
  -OEChem-01062216073D

 28 27  0     1  0  0  0  0  0999 V2000
   -3.4757   -2.7574    1.2675 H   0  0  0  0  0  0  0  0  0  0  0  0
   -3.3119   -1.8305    0.7110 C   0  0  0  0  0  0  0  0  0  0  0  0
   -4.1267   -1.1369    0.9328 H   0  0  0  0  0  0  0  0  0  0  0  0
   -3.3152   -2.0564   -0.3580 H   0  0  0  0  0  0  0  0  0  0  0  0
   -1.9847   -1.2112    1.1051 C   0  0  0  0  0  0  0  0  0  0  0  0
   -1.3472   -1.6808    2.0333 O   0  0  0  0  0  0  0  0  0  0  0  0
   -1.5844   -0.0320    0.5161 N   0  0  0  0  0  0  0  0  0  0  0  0
   -2.2344    0.3751   -0.1580 H   0  0  0  0  0  0  0  0  0  0  0  0
   -0.2450    0.5878    0.5312 C   0  0  1  0  0  0  0  0  0  0  0  0
    0.0532    0.8010    1.5628 H   0  0  0  0  0  0  0  0  0  0  0  0
    0.8563   -0.2510   -0.1874 C   0  0  0  0  0  0  0  0  0  0  0  0
    0.5132   -0.4426   -1.2110 H   0  0  0  0  0  0  0  0  0  0  0  0
    1.7705    0.3469   -0.2576 H   0  0  0  0  0  0  0  0  0  0  0  0
    1.2602   -1.5987    0.4478 C   0  0  0  0  0  0  0  0  0  0  0  0
    1.6071   -1.4383    1.4723 H   0  0  0  0  0  0  0  0  0  0  0  0
    0.4030   -2.2689    0.4783 H   0  0  0  0  0  0  0  0  0  0  0  0
    2.3319   -2.3545   -0.3399 C   0  0  0  0  0  0  0  0  0  0  0  0
    2.6905   -1.9416   -1.4316 O   0  0  0  0  0  0  0  0  0  0  0  0
    2.8414   -3.4669    0.2364 O   0  0  0  0  0  0  0  0  0  0  0  0
    3.4914   -3.8186   -0.3901 H   0  0  0  0  0  0  0  0  0  0  0  0
   -0.3226    1.9165   -0.2719 C   0  0  0  0  0  0  0  0  0  0  0  0
   -1.3681    2.2428   -0.8265 O   0  0  0  0  0  0  0  0  0  0  0  0
    0.7852    2.7312   -0.4339 N   0  0  0  0  0  0  0  0  0  0  0  0
    1.6475    2.4531    0.0251 H   0  0  0  0  0  0  0  0  0  0  0  0
    0.7678    3.9653   -1.2113 C   0  0  0  0  0  0  0  0  0  0  0  0
    0.0284    4.6639   -0.8053 H   0  0  0  0  0  0  0  0  0  0  0  0
    1.7502    4.4464   -1.1807 H   0  0  0  0  0  0  0  0  0  0  0  0
    0.5178    3.7561   -2.2568 H   0  0  0  0  0  0  0  0  0  0  0  0
  1  2  1  0  0  0  0
  2  3  1  0  0  0  0
  2  4  1  0  0  0  0
  2  5  1  0  0  0  0
  5  6  2  0  0  0  0
  5  7  1  0  0  0  0
  7  8  1  0  0  0  0
  7  9  1  0  0  0  0
  9 10  1  0  0  0  0
  9 11  1  0  0  0  0
  9 21  1  0  0  0  0
 11 12  1  0  0  0  0
 11 13  1  0  0  0  0
 11 14  1  0  0  0  0
 14 15  1  0  0  0  0
 14 16  1  0  0  0  0
 14 17  1  0  0  0  0
 17 18  2  0  0  0  0
 17 19  1  0  0  0  0
 19 20  1  0  0  0  0
 21 22  2  0  0  0  0
 21 23  1  0  0  0  0
 23 24  1  0  0  0  0
 23 25  1  0  0  0  0
 25 26  1  0  0  0  0
 25 27  1  0  0  0  0
 25 28  1  0  0  0  0
M  END
$$$$

  -OEChem-01062216073D

 28 27  0     1  0  0  0  0  0999 V2000
   -3.5118   -2.7256    1.2359 H   0  0  0  0  0  0  0  0  0  0  0  0
   -3.3374   -1.7864    0.7037 C   0  0  0  0  0  0  0  0  0  0  0  0
   -4.1255   -1.0779    0.9703 H   0  0  0  0  0  0  0  0  0  0  0  0
   -3.3777   -1.9781   -0.3712 H   0  0  0  0  0  0  0  0  0  0  0  0
   -1.9824   -1.2166    1.0782 C   0  0  0  0  0  0  0  0  0  0  0  0
   -1.3454   -1.7201    1.9884 O   0  0  0  0  0  0  0  0  0  0  0  0
   -1.5630   -0.0368    0.5031 N   0  0  0  0  0  0  0  0  0  0  0  0
   -2.2343    0.4239   -0.1130 H   0  0  0  0  0  0  0  0  0  0  0  0
   -0.2199    0.5771    0.5229 C   0  0  1  0  0  0  0  0  0  0  0  0
    0.0756    0.7908    1.5551 H   0  0  0  0  0  0  0  0  0  0  0  0
    0.8840   -0.2717   -0.1844 C   0  0  0  0  0  0  0  0  0  0  0  0
    0.5507   -0.4620   -1.2113 H   0  0  0  0  0  0  0  0  0  0  0  0
    1.8044    0.3169   -0.2408 H   0  0  0  0  0  0  0  0  0  0  0  0
    1.2829   -1.6190    0.4550 C   0  0  0  0  0  0  0  0  0  0  0  0
    1.6238   -1.4590    1.4816 H   0  0  0  0  0  0  0  0  0  0  0  0
    0.4258   -2.2891    0.4792 H   0  0  0  0  0  0  0  0  0  0  0  0
    2.3571   -2.3766   -0.3277 C   0  0  0  0  0  0  0  0  0  0  0  0
    2.7201   -1.9643   -1.4183 O   0  0  0  0  0  0  0  0  0  0  0  0
    2.8648   -3.4880    0.2520 O   0  0  0  0  0  0  0  0  0  0  0  0
    3.5178   -3.8410   -0.3705 H   0  0  0  0  0  0  0  0  0  0  0  0
   -0.3096    1.9131   -0.2756 C   0  0  0  0  0  0  0  0  0  0  0  0
   -1.4071    2.3556   -0.6030 O   0  0  0  0  0  0  0  0  0  0  0  0
    0.8121    2.5981   -0.7144 N   0  0  0  0  0  0  0  0  0  0  0  0
    1.7225    2.2225   -0.4665 H   0  0  0  0  0  0  0  0  0  0  0  0
    0.7500    3.8133   -1.5193 C   0  0  0  0  0  0  0  0  0  0  0  0
    0.2025    4.5985   -0.9872 H   0  0  0  0  0  0  0  0  0  0  0  0
    1.7593    4.1794   -1.7310 H   0  0  0  0  0  0  0  0  0  0  0  0
    0.2471    3.6170   -2.4722 H   0  0  0  0  0  0  0  0  0  0  0  0
  1  2  1  0  0  0  0
  2  3  1  0  0  0  0
  2  4  1  0  0  0  0
  2  5  1  0  0  0  0
  5  6  2  0  0  0  0
  5  7  1  0  0  0  0
  7  8  1  0  0  0  0
  7  9  1  0  0  0  0
  9 10  1  0  0  0  0
  9 11  1  0  0  0  0
  9 21  1  0  0  0  0
 11 12  1  0  0  0  0
 11 13  1  0  0  0  0
 11 14  1  0  0  0  0
 14 15  1  0  0  0  0
 14 16  1  0  0  0  0
 14 17  1  0  0  0  0
 17 18  2  0  0  0  0
 17 19  1  0  0  0  0
 19 20  1  0  0  0  0
 21 22  2  0  0  0  0
 21 23  1  0  0  0  0
 23 24  1  0  0  0  0
 23 25  1  0  0  0  0
 25 26  1  0  0  0  0
 25 27  1  0  0  0  0
 25 28  1  0  0  0  0
M  END
$$$$

  -OEChem-01062216073D

 28 27  0     1  0  0  0  0  0999 V2000
   -3.5380   -2.7042    1.1958 H   0  0  0  0  0  0  0  0  0  0  0  0
   -3.3659   -1.7435    0.7027 C   0  0  0  0  0  0  0  0  0  0  0  0
   -4.1282   -1.0345    1.0347 H   0  0  0  0  0  0  0  0  0  0  0  0
   -3.4524   -1.8821   -0.3777 H   0  0  0  0  0  0  0  0  0  0  0  0
   -1.9859   -1.2179    1.0492 C   0  0  0  0  0  0  0  0  0  0  0  0
   -1.3458   -1.7509    1.9396 O   0  0  0  0  0  0  0  0  0  0  0  0
   -1.5506   -0.0407    0.4801 N   0  0  0  0  0  0  0  0  0  0  0  0
   -2.2382    0.4641   -0.0803 H   0  0  0  0  0  0  0  0  0  0  0  0
   -0.2016    0.5617    0.5017 C   0  0  1  0  0  0  0  0  0  0  0  0
    0.0889    0.7809    1.5343 H   0  0  0  0  0  0  0  0  0  0  0  0
    0.9098   -0.2930   -0.1868 C   0  0  0  0  0  0  0  0  0  0  0  0
    0.5913   -0.4878   -1.2175 H   0  0  0  0  0  0  0  0  0  0  0  0
    1.8312    0.2957   -0.2255 H   0  0  0  0  0  0  0  0  0  0  0  0
    1.3054   -1.6358    0.4626 C   0  0  0  0  0  0  0  0  0  0  0  0
    1.6344   -1.4718    1.4923 H   0  0  0  0  0  0  0  0  0  0  0  0
    0.4505   -2.3088    0.4784 H   0  0  0  0  0  0  0  0  0  0  0  0
    2.3883   -2.3930   -0.3080 C   0  0  0  0  0  0  0  0  0  0  0  0
    2.7590   -1.9831   -1.3973 O   0  0  0  0  0  0  0  0  0  0  0  0
    2.8941   -3.5011    0.2795 O   0  0  0  0  0  0  0  0  0  0  0  0
    3.5539   -3.8542   -0.3358 H   0  0  0  0  0  0  0  0  0  0  0  0
   -0.2990    1.8996   -0.2965 C   0  0  0  0  0  0  0  0  0  0  0  0
   -1.3839    2.4659   -0.3871 O   0  0  0  0  0  0  0  0  0  0  0  0
    0.7593    2.4467   -1.0057 N   0  0  0  0  0  0  0  0  0  0  0  0
    1.6491    1.9582   -0.9792 H   0  0  0  0  0  0  0  0  0  0  0  0
    0.6505    3.6587   -1.8108 C   0  0  0  0  0  0  0  0  0  0  0  0
    0.3364    4.5047   -1.1901 H   0  0  0  0  0  0  0  0  0  0  0  0
    1.6178    3.9020   -2.2608 H   0  0  0  0  0  0  0  0  0  0  0  0
   -0.0797    3.5211   -2.6154 H   0  0  0  0  0  0  0  0  0  0  0  0
  1  2  1  0  0  0  0
  2  3  1  0  0  0  0
  2  4  1  0  0  0  0
  2  5  1  0  0  0  0
  5  6  2  0  0  0  0
  5  7  1  0  0  0  0
  7  8  1  0  0  0  0
  7  9  1  0  0  0  0
  9 10  1  0  0  0  0
  9 11  1  0  0  0  0
  9 21  1  0  0  0  0
 11 12  1  0  0  0  0
 11 13  1  0  0  0  0
 11 14  1  0  0  0  0
 14 15  1  0  0  0  0
 14 16  1  0  0  0  0
 14 17  1  0  0  0  0
 17 18  2  0  0  0  0
 17 19  1  0  0  0  0
 19 20  1  0  0  0  0
 21 22  2  0  0  0  0
 21 23  1  0  0  0  0
 23 24  1  0  0  0  0
 23 25  1  0  0  0  0
 25 26  1  0  0  0  0
 25 27  1  0  0  0  0
 25 28  1  0  0  0  0
M  END
$$$$

  -OEChem-01062216073D

 28 27  0     1  0  0  0  0  0999 V2000
   -3.5653   -2.6783    1.1883 H   0  0  0  0  0  0  0  0  0  0  0  0
   -3.3861   -1.7143    0.7038 C   0  0  0  0  0  0  0  0  0  0  0  0
   -4.1314   -0.9973    1.0569 H   0  0  0  0  0  0  0  0  0  0  0  0
   -3.4928   -1.8389   -0.3764 H   0  0  0  0  0  0  0  0  0  0  0  0
   -1.9920   -1.2151    1.0325 C   0  0  0  0  0  0  0  0  0  0  0  0
   -1.3471   -1.7703    1.9052 O   0  0  0  0  0  0  0  0  0  0  0  0
   -1.5479   -0.0399    0.4653 N   0  0  0  0  0  0  0  0  0  0  0  0
   -2.2463    0.4906   -0.0549 H   0  0  0  0  0  0  0  0  0  0  0  0
   -0.1939    0.5509    0.4824 C   0  0  1  0  0  0  0  0  0  0  0  0
    0.0948    0.7739    1.5147 H   0  0  0  0  0  0  0  0  0  0  0  0
    0.9234   -0.3051   -0.1923 C   0  0  0  0  0  0  0  0  0  0  0  0
    0.6107   -0.5114   -1.2226 H   0  0  0  0  0  0  0  0  0  0  0  0
    1.8403    0.2928   -0.2282 H   0  0  0  0  0  0  0  0  0  0  0  0
    1.3219   -1.6425    0.4654 C   0  0  0  0  0  0  0  0  0  0  0  0
    1.6455   -1.4724    1.4959 H   0  0  0  0  0  0  0  0  0  0  0  0
    0.4705   -2.3196    0.4797 H   0  0  0  0  0  0  0  0  0  0  0  0
    2.4121   -2.3964   -0.2982 C   0  0  0  0  0  0  0  0  0  0  0  0
    2.7840   -1.9873   -1.3877 O   0  0  0  0  0  0  0  0  0  0  0  0
    2.9221   -3.4998    0.2944 O   0  0  0  0  0  0  0  0  0  0  0  0
    3.5873   -3.8503   -0.3165 H   0  0  0  0  0  0  0  0  0  0  0  0
   -0.2922    1.8889   -0.3121 C   0  0  0  0  0  0  0  0  0  0  0  0
   -1.2980    2.5780   -0.1840 O   0  0  0  0  0  0  0  0  0  0  0  0
    0.6335    2.2930   -1.2624 N   0  0  0  0  0  0  0  0  0  0  0  0
    1.4300    1.6860   -1.4333 H   0  0  0  0  0  0  0  0  0  0  0  0
    0.4856    3.4980   -2.0717 C   0  0  0  0  0  0  0  0  0  0  0  0
    0.4252    4.3847   -1.4318 H   0  0  0  0  0  0  0  0  0  0  0  0
    1.3444    3.6131   -2.7398 H   0  0  0  0  0  0  0  0  0  0  0  0
   -0.4220    3.4416   -2.6818 H   0  0  0  0  0  0  0  0  0  0  0  0
  1  2  1  0  0  0  0
  2  3  1  0  0  0  0
  2  4  1  0  0  0  0
  2  5  1  0  0  0  0
  5  6  2  0  0  0  0
  5  7  1  0  0  0  0
  7  8  1  0  0  0  0
  7  9  1  0  0  0  0
  9 10  1  0  0  0  0
  9 11  1  0  0  0  0
  9 21  1  0  0  0  0
 11 12  1  0  0  0  0
 11 13  1  0  0  0  0
 11 14  1  0  0  0  0
 14 15  1  0  0  0  0
 14 16  1  0  0  0  0
 14 17  1  0  0  0  0
 17 18  2  0  0  0  0
 17 19  1  0  0  0  0
 19 20  1  0  0  0  0
 21 22  2  0  0  0  0
 21 23  1  0  0  0  0
 23 24  1  0  0  0  0
 23 25  1  0  0  0  0
 25 26  1  0  0  0  0
 25 27  1  0  0  0  0
 25 28  1  0  0  0  0
M  END
$$$$

  -OEChem-01062216073D

 28 27  0     1  0  0  0  0  0999 V2000
   -3.5682   -2.6764    1.2007 H   0  0  0  0  0  0  0  0  0  0  0  0
   -3.3938   -1.7122    0.7149 C   0  0  0  0  0  0  0  0  0  0  0  0
   -4.1353   -0.9956    1.0767 H   0  0  0  0  0  0  0  0  0  0  0  0
   -3.5125   -1.8363   -0.3641 H   0  0  0  0  0  0  0  0  0  0  0  0
   -1.9961   -1.2133    1.0295 C   0  0  0  0  0  0  0  0  0  0  0  0
   -1.3443   -1.7677    1.8971 O   0  0  0  0  0  0  0  0  0  0  0  0
   -1.5565   -0.0400    0.4544 N   0  0  0  0  0  0  0  0  0  0  0  0
   -2.2620    0.4881   -0.0567 H   0  0  0  0  0  0  0  0  0  0  0  0
   -0.2012    0.5484    0.4614 C   0  0  1  0  0  0  0  0  0  0  0  0
    0.0891    0.7778    1.4923 H   0  0  0  0  0  0  0  0  0  0  0  0
    0.9198   -0.3088   -0.2050 C   0  0  0  0  0  0  0  0  0  0  0  0
    0.6028   -0.5353   -1.2295 H   0  0  0  0  0  0  0  0  0  0  0  0
    1.8287    0.3014   -0.2565 H   0  0  0  0  0  0  0  0  0  0  0  0
    1.3272   -1.6384    0.4628 C   0  0  0  0  0  0  0  0  0  0  0  0
    1.6529   -1.4570    1.4908 H   0  0  0  0  0  0  0  0  0  0  0  0
    0.4802   -2.3208    0.4860 H   0  0  0  0  0  0  0  0  0  0  0  0
    2.4208   -2.3916   -0.2973 C   0  0  0  0  0  0  0  0  0  0  0  0
    2.7874   -1.9880   -1.3906 O   0  0  0  0  0  0  0  0  0  0  0  0
    2.9382   -3.4887    0.3010 O   0  0  0  0  0  0  0  0  0  0  0  0
    3.6052   -3.8388   -0.3080 H   0  0  0  0  0  0  0  0  0  0  0  0
   -0.2959    1.8823   -0.3347 C   0  0  0  0  0  0  0  0  0  0  0  0
   -1.1680    2.6851   -0.0274 O   0  0  0  0  0  0  0  0  0  0  0  0
    0.4370    2.1476   -1.4817 N   0  0  0  0  0  0  0  0  0  0  0  0
    1.1181    1.4538   -1.7770 H   0  0  0  0  0  0  0  0  0  0  0  0
    0.2725    3.3551   -2.2835 C   0  0  0  0  0  0  0  0  0  0  0  0
    0.4874    4.2455   -1.6831 H   0  0  0  0  0  0  0  0  0  0  0  0
    0.9583    3.3397   -3.1361 H   0  0  0  0  0  0  0  0  0  0  0  0
   -0.7514    3.4263   -2.6654 H   0  0  0  0  0  0  0  0  0  0  0  0
  1  2  1  0  0  0  0
  2  3  1  0  0  0  0
  2  4  1  0  0  0  0
  2  5  1  0  0  0  0
  5  6  2  0  0  0  0
  5  7  1  0  0  0  0
  7  8  1  0  0  0  0
  7  9  1  0  0  0  0
  9 10  1  0  0  0  0
  9 11  1  0  0  0  0
  9 21  1  0  0  0  0
 11 12  1  0  0  0  0
 11 13  1  0  0  0  0
 11 14  1  0  0  0  0
 14 15  1  0  0  0  0
 14 16  1  0  0  0  0
 14 17  1  0  0  0  0
 17 18  2  0  0  0  0
 17 19  1  0  0  0  0
 19 20  1  0  0  0  0
 21 22  2  0  0  0  0
 21 23  1  0  0  0  0
 23 24  1  0  0  0  0
 23 25  1  0  0  0  0
 25 26  1  0  0  0  0
 25 27  1  0  0  0  0
 25 28  1  0  0  0  0
M  END
$$$$

  -OEChem-01062216073D

 28 27  0     1  0  0  0  0  0999 V2000
   -3.5432   -2.7004    1.2334 H   0  0  0  0  0  0  0  0  0  0  0  0
   -3.3875   -1.7376    0.7385 C   0  0  0  0  0  0  0  0  0  0  0  0
   -4.1409   -1.0314    1.0962 H   0  0  0  0  0  0  0  0  0  0  0  0
   -3.5070   -1.8739   -0.3388 H   0  0  0  0  0  0  0  0  0  0  0  0
   -1.9982   -1.2113    1.0453 C   0  0  0  0  0  0  0  0  0  0  0  0
   -1.3376   -1.7435    1.9198 O   0  0  0  0  0  0  0  0  0  0  0  0
   -1.5758   -0.0395    0.4533 N   0  0  0  0  0  0  0  0  0  0  0  0
   -2.2837    0.4554   -0.0848 H   0  0  0  0  0  0  0  0  0  0  0  0
   -0.2216    0.5522    0.4414 C   0  0  1  0  0  0  0  0  0  0  0  0
    0.0758    0.7876    1.4689 H   0  0  0  0  0  0  0  0  0  0  0  0
    0.8985   -0.3058   -0.2246 C   0  0  0  0  0  0  0  0  0  0  0  0
    0.5708   -0.5557   -1.2397 H   0  0  0  0  0  0  0  0  0  0  0  0
    1.7992    0.3146   -0.3015 H   0  0  0  0  0  0  0  0  0  0  0  0
    1.3186   -1.6257    0.4551 C   0  0  0  0  0  0  0  0  0  0  0  0
    1.6530   -1.4297    1.4778 H   0  0  0  0  0  0  0  0  0  0  0  0
    0.4754   -2.3120    0.4950 H   0  0  0  0  0  0  0  0  0  0  0  0
    2.4100   -2.3812   -0.3056 C   0  0  0  0  0  0  0  0  0  0  0  0
    2.7653   -1.9880   -1.4065 O   0  0  0  0  0  0  0  0  0  0  0  0
    2.9381   -3.4688    0.3003 O   0  0  0  0  0  0  0  0  0  0  0  0
    3.6043   -3.8197   -0.3092 H   0  0  0  0  0  0  0  0  0  0  0  0
   -0.3100    1.8801   -0.3594 C   0  0  0  0  0  0  0  0  0  0  0  0
   -0.9756    2.7970    0.1008 O   0  0  0  0  0  0  0  0  0  0  0  0
    0.1744    2.0243   -1.6506 N   0  0  0  0  0  0  0  0  0  0  0  0
    0.7056    1.2523   -2.0433 H   0  0  0  0  0  0  0  0  0  0  0  0
    0.0281    3.2464   -2.4338 C   0  0  0  0  0  0  0  0  0  0  0  0
    0.5089    4.0880   -1.9242 H   0  0  0  0  0  0  0  0  0  0  0  0
    0.4950    3.1250   -3.4160 H   0  0  0  0  0  0  0  0  0  0  0  0
   -1.0307    3.4832   -2.5823 H   0  0  0  0  0  0  0  0  0  0  0  0
  1  2  1  0  0  0  0
  2  3  1  0  0  0  0
  2  4  1  0  0  0  0
  2  5  1  0  0  0  0
  5  6  2  0  0  0  0
  5  7  1  0  0  0  0
  7  8  1  0  0  0  0
  7  9  1  0  0  0  0
  9 10  1  0  0  0  0
  9 11  1  0  0  0  0
  9 21  1  0  0  0  0
 11 12  1  0  0  0  0
 11 13  1  0  0  0  0
 11 14  1  0  0  0  0
 14 15  1  0  0  0  0
 14 16  1  0  0  0  0
 14 17  1  0  0  0  0
 17 18  2  0  0  0  0
 17 19  1  0  0  0  0
 19 20  1  0  0  0  0
 21 22  2  0  0  0  0
 21 23  1  0  0  0  0
 23 24  1  0  0  0  0
 23 25  1  0  0  0  0
 25 26  1  0  0  0  0
 25 27  1  0  0  0  0
 25 28  1  0  0  0  0
M  END
$$$$

  -OEChem-01062216073D

 28 27  0     1  0  0  0  0  0999 V2000
   -3.5178   -2.7290    1.2673 H   0  0  0  0  0  0  0  0  0  0  0  0
   -3.3802   -1.7690    0.7619 C   0  0  0  0  0  0  0  0  0  0  0  0
   -4.1483   -1.0743    1.1108 H   0  0  0  0  0  0  0  0  0  0  0  0
   -3.4948   -1.9199   -0.3141 H   0  0  0  0  0  0  0  0  0  0  0  0
   -2.0021   -1.2124    1.0658 C   0  0  0  0  0  0  0  0  0  0  0  0
   -1.3316   -1.7241    1.9449 O   0  0  0  0  0  0  0  0  0  0  0  0
   -1.5989   -0.0403    0.4601 N   0  0  0  0  0  0  0  0  0  0  0  0
   -2.3060    0.4179   -0.1093 H   0  0  0  0  0  0  0  0  0  0  0  0
   -0.2470    0.5573    0.4334 C   0  0  1  0  0  0  0  0  0  0  0  0
    0.0578    0.7955    1.4585 H   0  0  0  0  0  0  0  0  0  0  0  0
    0.8733   -0.2937   -0.2397 C   0  0  0  0  0  0  0  0  0  0  0  0
    0.5418   -0.5529   -1.2505 H   0  0  0  0  0  0  0  0  0  0  0  0
    1.7669    0.3355   -0.3303 H   0  0  0  0  0  0  0  0  0  0  0  0
    1.3056   -1.6080    0.4435 C   0  0  0  0  0  0  0  0  0  0  0  0
    1.6467   -1.4039    1.4623 H   0  0  0  0  0  0  0  0  0  0  0  0
    0.4663   -2.2985    0.4939 H   0  0  0  0  0  0  0  0  0  0  0  0
    2.3959   -2.3623   -0.3200 C   0  0  0  0  0  0  0  0  0  0  0  0
    2.7421   -1.9736   -1.4252 O   0  0  0  0  0  0  0  0  0  0  0  0
    2.9321   -3.4450    0.2877 O   0  0  0  0  0  0  0  0  0  0  0  0
    3.5981   -3.7939   -0.3233 H   0  0  0  0  0  0  0  0  0  0  0  0
   -0.3321    1.8801   -0.3704 C   0  0  0  0  0  0  0  0  0  0  0  0
   -0.7206    2.8924    0.1932 O   0  0  0  0  0  0  0  0  0  0  0  0
   -0.1346    1.9343   -1.7412 N   0  0  0  0  0  0  0  0  0  0  0  0
    0.1975    1.0919   -2.2015 H   0  0  0  0  0  0  0  0  0  0  0  0
   -0.2471    3.1627   -2.5197 C   0  0  0  0  0  0  0  0  0  0  0  0
    0.4655    3.9119   -2.1586 H   0  0  0  0  0  0  0  0  0  0  0  0
   -0.0344    2.9637   -3.5746 H   0  0  0  0  0  0  0  0  0  0  0  0
   -1.2593    3.5742   -2.4436 H   0  0  0  0  0  0  0  0  0  0  0  0
  1  2  1  0  0  0  0
  2  3  1  0  0  0  0
  2  4  1  0  0  0  0
  2  5  1  0  0  0  0
  5  6  2  0  0  0  0
  5  7  1  0  0  0  0
  7  8  1  0  0  0  0
  7  9  1  0  0  0  0
  9 10  1  0  0  0  0
  9 11  1  0  0  0  0
  9 21  1  0  0  0  0
 11 12  1  0  0  0  0
 11 13  1  0  0  0  0
 11 14  1  0  0  0  0
 14 15  1  0  0  0  0
 14 16  1  0  0  0  0
 14 17  1  0  0  0  0
 17 18  2  0  0  0  0
 17 19  1  0  0  0  0
 19 20  1  0  0  0  0
 21 22  2  0  0  0  0
 21 23  1  0  0  0  0
 23 24  1  0  0  0  0
 23 25  1  0  0  0  0
 25 26  1  0  0  0  0
 25 27  1  0  0  0  0
 25 28  1  0  0  0  0
M  END
$$$$

  -OEChem-01062216073D

 28 27  0     1  0  0  0  0  0999 V2000
   -3.5022   -2.7551    1.2981 H   0  0  0  0  0  0  0  0  0  0  0  0
   -3.3789   -1.7960    0.7869 C   0  0  0  0  0  0  0  0  0  0  0  0
   -4.1552   -1.1095    1.1337 H   0  0  0  0  0  0  0  0  0  0  0  0
   -3.4939   -1.9544   -0.2880 H   0  0  0  0  0  0  0  0  0  0  0  0
   -2.0082   -1.2187    1.0855 C   0  0  0  0  0  0  0  0  0  0  0  0
   -1.3282   -1.7160    1.9653 O   0  0  0  0  0  0  0  0  0  0  0  0
   -1.6222   -0.0446    0.4722 N   0  0  0  0  0  0  0  0  0  0  0  0
   -2.3269    0.3841   -0.1219 H   0  0  0  0  0  0  0  0  0  0  0  0
   -0.2737    0.5616    0.4415 C   0  0  1  0  0  0  0  0  0  0  0  0
    0.0349    0.7977    1.4664 H   0  0  0  0  0  0  0  0  0  0  0  0
    0.8484   -0.2735   -0.2462 C   0  0  0  0  0  0  0  0  0  0  0  0
    0.5181   -0.5230   -1.2597 H   0  0  0  0  0  0  0  0  0  0  0  0
    1.7368    0.3633   -0.3341 H   0  0  0  0  0  0  0  0  0  0  0  0
    1.2903   -1.5896    0.4266 C   0  0  0  0  0  0  0  0  0  0  0  0
    1.6355   -1.3892    1.4447 H   0  0  0  0  0  0  0  0  0  0  0  0
    0.4533   -2.2833    0.4785 H   0  0  0  0  0  0  0  0  0  0  0  0
    2.3815   -2.3351   -0.3441 C   0  0  0  0  0  0  0  0  0  0  0  0
    2.7235   -1.9407   -1.4485 O   0  0  0  0  0  0  0  0  0  0  0  0
    2.9231   -3.4183    0.2578 O   0  0  0  0  0  0  0  0  0  0  0  0
    3.5915   -3.7591   -0.3549 H   0  0  0  0  0  0  0  0  0  0  0  0
   -0.3584    1.8802   -0.3635 C   0  0  0  0  0  0  0  0  0  0  0  0
   -0.4303    2.9464    0.2287 O   0  0  0  0  0  0  0  0  0  0  0  0
   -0.4627    1.8823   -1.7450 N   0  0  0  0  0  0  0  0  0  0  0  0
   -0.3461    0.9942   -2.2238 H   0  0  0  0  0  0  0  0  0  0  0  0
   -0.5368    3.1043   -2.5380 C   0  0  0  0  0  0  0  0  0  0  0  0
    0.3497    3.7251   -2.3701 H   0  0  0  0  0  0  0  0  0  0  0  0
   -0.5918    2.8616   -3.6036 H   0  0  0  0  0  0  0  0  0  0  0  0
   -1.4273    3.6826   -2.2697 H   0  0  0  0  0  0  0  0  0  0  0  0
  1  2  1  0  0  0  0
  2  3  1  0  0  0  0
  2  4  1  0  0  0  0
  2  5  1  0  0  0  0
  5  6  2  0  0  0  0
  5  7  1  0  0  0  0
  7  8  1  0  0  0  0
  7  9  1  0  0  0  0
  9 10  1  0  0  0  0
  9 11  1  0  0  0  0
  9 21  1  0  0  0  0
 11 12  1  0  0  0  0
 11 13  1  0  0  0  0
 11 14  1  0  0  0  0
 14 15  1  0  0  0  0
 14 16  1  0  0  0  0
 14 17  1  0  0  0  0
 17 18  2  0  0  0  0
 17 19  1  0  0  0  0
 19 20  1  0  0  0  0
 21 22  2  0  0  0  0
 21 23  1  0  0  0  0
 23 24  1  0  0  0  0
 23 25  1  0  0  0  0
 25 26  1  0  0  0  0
 25 27  1  0  0  0  0
 25 28  1  0  0  0  0
M  END
$$$$

  -OEChem-01062216073D

 28 27  0     1  0  0  0  0  0999 V2000
   -3.5001   -2.7755    1.3320 H   0  0  0  0  0  0  0  0  0  0  0  0
   -3.3837   -1.8201    0.8122 C   0  0  0  0  0  0  0  0  0  0  0  0
   -4.1649   -1.1359    1.1526 H   0  0  0  0  0  0  0  0  0  0  0  0
   -3.4974   -1.9892   -0.2611 H   0  0  0  0  0  0  0  0  0  0  0  0
   -2.0170   -1.2304    1.1052 C   0  0  0  0  0  0  0  0  0  0  0  0
   -1.3269   -1.7232    1.9795 O   0  0  0  0  0  0  0  0  0  0  0  0
   -1.6435   -0.0531    0.4896 N   0  0  0  0  0  0  0  0  0  0  0  0
   -2.3543    0.3721   -0.0998 H   0  0  0  0  0  0  0  0  0  0  0  0
   -0.2996    0.5653    0.4645 C   0  0  1  0  0  0  0  0  0  0  0  0
    0.0105    0.7962    1.4901 H   0  0  0  0  0  0  0  0  0  0  0  0
    0.8243   -0.2484   -0.2422 C   0  0  0  0  0  0  0  0  0  0  0  0
    0.4960   -0.4757   -1.2619 H   0  0  0  0  0  0  0  0  0  0  0  0
    1.7087    0.3959   -0.3180 H   0  0  0  0  0  0  0  0  0  0  0  0
    1.2743   -1.5722    0.4097 C   0  0  0  0  0  0  0  0  0  0  0  0
    1.6212   -1.3847    1.4296 H   0  0  0  0  0  0  0  0  0  0  0  0
    0.4399   -2.2699    0.4541 H   0  0  0  0  0  0  0  0  0  0  0  0
    2.3673   -2.3015   -0.3737 C   0  0  0  0  0  0  0  0  0  0  0  0
    2.7058   -1.8903   -1.4728 O   0  0  0  0  0  0  0  0  0  0  0  0
    2.9135   -3.3919    0.2112 O   0  0  0  0  0  0  0  0  0  0  0  0
    3.5832   -3.7203   -0.4071 H   0  0  0  0  0  0  0  0  0  0  0  0
   -0.3836    1.8806   -0.3413 C   0  0  0  0  0  0  0  0  0  0  0  0
   -0.1462    2.9488    0.2014 O   0  0  0  0  0  0  0  0  0  0  0  0
   -0.7820    1.8745   -1.6679 N   0  0  0  0  0  0  0  0  0  0  0  0
   -0.8594    0.9700   -2.1231 H   0  0  0  0  0  0  0  0  0  0  0  0
   -0.8200    3.0790   -2.4898 C   0  0  0  0  0  0  0  0  0  0  0  0
    0.1722    3.5398   -2.5421 H   0  0  0  0  0  0  0  0  0  0  0  0
   -1.1416    2.8345   -3.5067 H   0  0  0  0  0  0  0  0  0  0  0  0
   -1.5237    3.8067   -2.0716 H   0  0  0  0  0  0  0  0  0  0  0  0
  1  2  1  0  0  0  0
  2  3  1  0  0  0  0
  2  4  1  0  0  0  0
  2  5  1  0  0  0  0
  5  6  2  0  0  0  0
  5  7  1  0  0  0  0
  7  8  1  0  0  0  0
  7  9  1  0  0  0  0
  9 10  1  0  0  0  0
  9 11  1  0  0  0  0
  9 21  1  0  0  0  0
 11 12  1  0  0  0  0
 11 13  1  0  0  0  0
 11 14  1  0  0  0  0
 14 15  1  0  0  0  0
 14 16  1  0  0  0  0
 14 17  1  0  0  0  0
 17 18  2  0  0  0  0
 17 19  1  0  0  0  0
 19 20  1  0  0  0  0
 21 22  2  0  0  0  0
 21 23  1  0  0  0  0
 23 24  1  0  0  0  0
 23 25  1  0  0  0  0
 25 26  1  0  0  0  0
 25 27  1  0  0  0  0
 25 28  1  0  0  0  0
M  END
$$$$

  -OEChem-01062216073D

 28 27  0     1  0  0  0  0  0999 V2000
   -3.4942   -2.7974    1.3683 H   0  0  0  0  0  0  0  0  0  0  0  0
   -3.3831   -1.8488    0.8353 C   0  0  0  0  0  0  0  0  0  0  0  0
   -4.1700   -1.1664    1.1655 H   0  0  0  0  0  0  0  0  0  0  0  0
   -3.4939   -2.0337   -0.2357 H   0  0  0  0  0  0  0  0  0  0  0  0
   -2.0205   -1.2463    1.1219 C   0  0  0  0  0  0  0  0  0  0  0  0
   -1.3239   -1.7302    1.9960 O   0  0  0  0  0  0  0  0  0  0  0  0
   -1.6591   -0.0664    0.5035 N   0  0  0  0  0  0  0  0  0  0  0  0
   -2.3820    0.3658   -0.0650 H   0  0  0  0  0  0  0  0  0  0  0  0
   -0.3213    0.5683    0.4868 C   0  0  1  0  0  0  0  0  0  0  0  0
   -0.0125    0.7956    1.5133 H   0  0  0  0  0  0  0  0  0  0  0  0
    0.8026   -0.2325   -0.2334 C   0  0  0  0  0  0  0  0  0  0  0  0
    0.4708   -0.4433   -1.2557 H   0  0  0  0  0  0  0  0  0  0  0  0
    1.6857    0.4145   -0.3038 H   0  0  0  0  0  0  0  0  0  0  0  0
    1.2602   -1.5623    0.4016 C   0  0  0  0  0  0  0  0  0  0  0  0
    1.6104   -1.3842    1.4222 H   0  0  0  0  0  0  0  0  0  0  0  0
    0.4284   -2.2631    0.4423 H   0  0  0  0  0  0  0  0  0  0  0  0
    2.3527   -2.2800   -0.3929 C   0  0  0  0  0  0  0  0  0  0  0  0
    2.6869   -1.8568   -1.4886 O   0  0  0  0  0  0  0  0  0  0  0  0
    2.9023   -3.3760    0.1781 O   0  0  0  0  0  0  0  0  0  0  0  0
    3.5711   -3.6957   -0.4456 H   0  0  0  0  0  0  0  0  0  0  0  0
   -0.3969    1.8822   -0.3217 C   0  0  0  0  0  0  0  0  0  0  0  0
    0.0977    2.9064    0.1242 O   0  0  0  0  0  0  0  0  0  0  0  0
   -1.0594    1.9248   -1.5377 N   0  0  0  0  0  0  0  0  0  0  0  0
   -1.2975    1.0325   -1.9594 H   0  0  0  0  0  0  0  0  0  0  0  0
   -1.0918    3.1204   -2.3730 C   0  0  0  0  0  0  0  0  0  0  0  0
   -0.0773    3.4132   -2.6640 H   0  0  0  0  0  0  0  0  0  0  0  0
   -1.6730    2.9334   -3.2811 H   0  0  0  0  0  0  0  0  0  0  0  0
   -1.5561    3.9524   -1.8327 H   0  0  0  0  0  0  0  0  0  0  0  0
  1  2  1  0  0  0  0
  2  3  1  0  0  0  0
  2  4  1  0  0  0  0
  2  5  1  0  0  0  0
  5  6  2  0  0  0  0
  5  7  1  0  0  0  0
  7  8  1  0  0  0  0
  7  9  1  0  0  0  0
  9 10  1  0  0  0  0
  9 11  1  0  0  0  0
  9 21  1  0  0  0  0
 11 12  1  0  0  0  0
 11 13  1  0  0  0  0
 11 14  1  0  0  0  0
 14 15  1  0  0  0  0
 14 16  1  0  0  0  0
 14 17  1  0  0  0  0
 17 18  2  0  0  0  0
 17 19  1  0  0  0  0
 19 20  1  0  0  0  0
 21 22  2  0  0  0  0
 21 23  1  0  0  0  0
 23 24  1  0  0  0  0
 23 25  1  0  0  0  0
 25 26  1  0  0  0  0
 25 27  1  0  0  0  0
 25 28  1  0  0  0  0
M  END
$$$$

  -OEChem-01062216073D

 28 27  0     1  0  0  0  0  0999 V2000
   -3.4921   -2.8157    1.4019 H   0  0  0  0  0  0  0  0  0  0  0  0
   -3.3805   -1.8757    0.8538 C   0  0  0  0  0  0  0  0  0  0  0  0
   -4.1692   -1.1884    1.1699 H   0  0  0  0  0  0  0  0  0  0  0  0
   -3.4876   -2.0787   -0.2144 H   0  0  0  0  0  0  0  0  0  0  0  0
   -2.0195   -1.2671    1.1340 C   0  0  0  0  0  0  0  0  0  0  0  0
   -1.3189   -1.7446    2.0081 O   0  0  0  0  0  0  0  0  0  0  0  0
   -1.6678   -0.0853    0.5132 N   0  0  0  0  0  0  0  0  0  0  0  0
   -2.4070    0.3602   -0.0217 H   0  0  0  0  0  0  0  0  0  0  0  0
   -0.3365    0.5657    0.5022 C   0  0  1  0  0  0  0  0  0  0  0  0
   -0.0295    0.7925    1.5294 H   0  0  0  0  0  0  0  0  0  0  0  0
    0.7882   -0.2295   -0.2246 C   0  0  0  0  0  0  0  0  0  0  0  0
    0.4530   -0.4335   -1.2477 H   0  0  0  0  0  0  0  0  0  0  0  0
    1.6710    0.4181   -0.2943 H   0  0  0  0  0  0  0  0  0  0  0  0
    1.2535   -1.5607    0.4020 C   0  0  0  0  0  0  0  0  0  0  0  0
    1.6068   -1.3861    1.4222 H   0  0  0  0  0  0  0  0  0  0  0  0
    0.4250   -2.2654    0.4417 H   0  0  0  0  0  0  0  0  0  0  0  0
    2.3460   -2.2702   -0.4003 C   0  0  0  0  0  0  0  0  0  0  0  0
    2.6747   -1.8408   -1.4952 O   0  0  0  0  0  0  0  0  0  0  0  0
    2.9024   -3.3665    0.1636 O   0  0  0  0  0  0  0  0  0  0  0  0
    3.5703   -3.6787   -0.4649 H   0  0  0  0  0  0  0  0  0  0  0  0
   -0.4026    1.8803   -0.3093 C   0  0  0  0  0  0  0  0  0  0  0  0
    0.2935    2.8317    0.0128 O   0  0  0  0  0  0  0  0  0  0  0  0
   -1.2887    2.0221   -1.3657 N   0  0  0  0  0  0  0  0  0  0  0  0
   -1.6780    1.1662   -1.7464 H   0  0  0  0  0  0  0  0  0  0  0  0
   -1.3363    3.2258   -2.1888 C   0  0  0  0  0  0  0  0  0  0  0  0
   -0.3827    3.3747   -2.7064 H   0  0  0  0  0  0  0  0  0  0  0  0
   -2.1292    3.1418   -2.9381 H   0  0  0  0  0  0  0  0  0  0  0  0
   -1.5414    4.1061   -1.5702 H   0  0  0  0  0  0  0  0  0  0  0  0
  1  2  1  0  0  0  0
  2  3  1  0  0  0  0
  2  4  1  0  0  0  0
  2  5  1  0  0  0  0
  5  6  2  0  0  0  0
  5  7  1  0  0  0  0
  7  8  1  0  0  0  0
  7  9  1  0  0  0  0
  9 10  1  0  0  0  0
  9 11  1  0  0  0  0
  9 21  1  0  0  0  0
 11 12  1  0  0  0  0
 11 13  1  0  0  0  0
 11 14  1  0  0  0  0
 14 15  1  0  0  0  0
 14 16  1  0  0  0  0
 14 17  1  0  0  0  0
 17 18  2  0  0  0  0
 17 19  1  0  0  0  0
 19 20  1  0  0  0  0
 21 22  2  0  0  0  0
 21 23  1  0  0  0  0
 23 24  1  0  0  0  0
 23 25  1  0  0  0  0
 25 26  1  0  0  0  0
 25 27  1  0  0  0  0
 25 28  1  0  0  0  0
M  END
$$$$

  -OEChem-01062216073D

 28 27  0     1  0  0  0  0  0999 V2000
   -3.3925   -2.8945    1.4251 H   0  0  0  0  0  0  0  0  0  0  0  0
   -3.3165   -1.9584    0.8640 C   0  0  0  0  0  0  0  0  0  0  0  0
   -4.1506   -1.3112    1.1455 H   0  0  0  0  0  0  0  0  0  0  0  0
   -3.3805   -2.1842   -0.2031 H   0  0  0  0  0  0  0  0  0  0  0  0
   -1.9991   -1.2726    1.1730 C   0  0  0  0  0  0  0  0  0  0  0  0
   -1.3056   -1.6901    2.0831 O   0  0  0  0  0  0  0  0  0  0  0  0
   -1.6806   -0.0909    0.5342 N   0  0  0  0  0  0  0  0  0  0  0  0
   -2.4082    0.2819   -0.0639 H   0  0  0  0  0  0  0  0  0  0  0  0
   -0.3562    0.5779    0.5055 C   0  0  1  0  0  0  0  0  0  0  0  0
   -0.0404    0.8095    1.5288 H   0  0  0  0  0  0  0  0  0  0  0  0
    0.7563   -0.2349   -0.2260 C   0  0  0  0  0  0  0  0  0  0  0  0
    0.4049   -0.4509   -1.2412 H   0  0  0  0  0  0  0  0  0  0  0  0
    1.6434    0.4036   -0.3195 H   0  0  0  0  0  0  0  0  0  0  0  0
    1.2294   -1.5577    0.4136 C   0  0  0  0  0  0  0  0  0  0  0  0
    1.6008   -1.3672    1.4244 H   0  0  0  0  0  0  0  0  0  0  0  0
    0.4011   -2.2603    0.4791 H   0  0  0  0  0  0  0  0  0  0  0  0
    2.3068   -2.2834   -0.3946 C   0  0  0  0  0  0  0  0  0  0  0  0
    2.6198   -1.8740   -1.5016 O   0  0  0  0  0  0  0  0  0  0  0  0
    2.8637   -3.3759    0.1763 O   0  0  0  0  0  0  0  0  0  0  0  0
    3.5189   -3.7023   -0.4583 H   0  0  0  0  0  0  0  0  0  0  0  0
   -0.4085    1.8946   -0.3117 C   0  0  0  0  0  0  0  0  0  0  0  0
    0.4575    2.7419   -0.1459 O   0  0  0  0  0  0  0  0  0  0  0  0
   -1.4621    2.1904   -1.1639 N   0  0  0  0  0  0  0  0  0  0  0  0
   -2.0509    1.4192   -1.4531 H   0  0  0  0  0  0  0  0  0  0  0  0
   -1.5112    3.4212   -1.9471 C   0  0  0  0  0  0  0  0  0  0  0  0
   -0.6645    3.4695   -2.6402 H   0  0  0  0  0  0  0  0  0  0  0  0
   -2.4379    3.4655   -2.5271 H   0  0  0  0  0  0  0  0  0  0  0  0
   -1.4768    4.2964   -1.2893 H   0  0  0  0  0  0  0  0  0  0  0  0
  1  2  1  0  0  0  0
  2  3  1  0  0  0  0
  2  4  1  0  0  0  0
  2  5  1  0  0  0  0
  5  6  2  0  0  0  0
  5  7  1  0  0  0  0
  7  8  1  0  0  0  0
  7  9  1  0  0  0  0
  9 10  1  0  0  0  0
  9 11  1  0  0  0  0
  9 21  1  0  0  0  0
 11 12  1  0  0  0  0
 11 13  1  0  0  0  0
 11 14  1  0  0  0  0
 14 15  1  0  0  0  0
 14 16  1  0  0  0  0
 14 17  1  0  0  0  0
 17 18  2  0  0  0  0
 17 19  1  0  0  0  0
 19 20  1  0  0  0  0
 21 22  2  0  0  0  0
 21 23  1  0  0  0  0
 23 24  1  0  0  0  0
 23 25  1  0  0  0  0
 25 26  1  0  0  0  0
 25 27  1  0  0  0  0
 25 28  1  0  0  0  0
M  END
$$$$

  -OEChem-01062216073D

 28 27  0     1  0  0  0  0  0999 V2000
   -3.1766   -2.9488    1.3777 H   0  0  0  0  0  0  0  0  0  0  0  0
   -3.1255   -2.0435    0.7658 C   0  0  0  0  0  0  0  0  0  0  0  0
   -4.0590   -1.4878    0.8819 H   0  0  0  0  0  0  0  0  0  0  0  0
   -3.0079   -2.3342   -0.2809 H   0  0  0  0  0  0  0  0  0  0  0  0
   -1.9531   -1.1862    1.2027 C   0  0  0  0  0  0  0  0  0  0  0  0
   -1.3323   -1.4727    2.2117 O   0  0  0  0  0  0  0  0  0  0  0  0
   -1.6754   -0.0108    0.5357 N   0  0  0  0  0  0  0  0  0  0  0  0
   -2.2377    0.0958   -0.3026 H   0  0  0  0  0  0  0  0  0  0  0  0
   -0.3334    0.6192    0.4661 C   0  0  1  0  0  0  0  0  0  0  0  0
    0.0077    0.8624    1.4784 H   0  0  0  0  0  0  0  0  0  0  0  0
    0.7403   -0.2606   -0.2507 C   0  0  0  0  0  0  0  0  0  0  0  0
    0.3678   -0.4996   -1.2528 H   0  0  0  0  0  0  0  0  0  0  0  0
    1.6514    0.3356   -0.3795 H   0  0  0  0  0  0  0  0  0  0  0  0
    1.1744   -1.5729    0.4405 C   0  0  0  0  0  0  0  0  0  0  0  0
    1.5717   -1.3494    1.4347 H   0  0  0  0  0  0  0  0  0  0  0  0
    0.3253   -2.2432    0.5565 H   0  0  0  0  0  0  0  0  0  0  0  0
    2.2128   -2.3722   -0.3487 C   0  0  0  0  0  0  0  0  0  0  0  0
    2.5258   -2.0244   -1.4759 O   0  0  0  0  0  0  0  0  0  0  0  0
    2.7373   -3.4577    0.2644 O   0  0  0  0  0  0  0  0  0  0  0  0
    3.3766   -3.8317   -0.3602 H   0  0  0  0  0  0  0  0  0  0  0  0
   -0.3990    1.9367   -0.3557 C   0  0  0  0  0  0  0  0  0  0  0  0
    0.6084    2.5992   -0.5629 O   0  0  0  0  0  0  0  0  0  0  0  0
   -1.5932    2.3779   -0.9047 N   0  0  0  0  0  0  0  0  0  0  0  0
   -2.4376    1.9862   -0.5024 H   0  0  0  0  0  0  0  0  0  0  0  0
   -1.7030    3.6421   -1.6259 C   0  0  0  0  0  0  0  0  0  0  0  0
   -1.0191    3.6569   -2.4815 H   0  0  0  0  0  0  0  0  0  0  0  0
   -2.7221    3.7778   -2.0006 H   0  0  0  0  0  0  0  0  0  0  0  0
   -1.4595    4.4824   -0.9670 H   0  0  0  0  0  0  0  0  0  0  0  0
  1  2  1  0  0  0  0
  2  3  1  0  0  0  0
  2  4  1  0  0  0  0
  2  5  1  0  0  0  0
  5  6  2  0  0  0  0
  5  7  1  0  0  0  0
  7  8  1  0  0  0  0
  7  9  1  0  0  0  0
  9 10  1  0  0  0  0
  9 11  1  0  0  0  0
  9 21  1  0  0  0  0
 11 12  1  0  0  0  0
 11 13  1  0  0  0  0
 11 14  1  0  0  0  0
 14 15  1  0  0  0  0
 14 16  1  0  0  0  0
 14 17  1  0  0  0  0
 17 18  2  0  0  0  0
 17 19  1  0  0  0  0
 19 20  1  0  0  0  0
 21 22  2  0  0  0  0
 21 23  1  0  0  0  0
 23 24  1  0  0  0  0
 23 25  1  0  0  0  0
 25 26  1  0  0  0  0
 25 27  1  0  0  0  0
 25 28  1  0  0  0  0
M  END
$$$$

  -OEChem-01062216073D

 28 27  0     1  0  0  0  0  0999 V2000
   -3.2042   -2.9194    1.3508 H   0  0  0  0  0  0  0  0  0  0  0  0
   -3.1331   -2.0153    0.7394 C   0  0  0  0  0  0  0  0  0  0  0  0
   -4.0575   -1.4431    0.8488 H   0  0  0  0  0  0  0  0  0  0  0  0
   -3.0133   -2.3085   -0.3063 H   0  0  0  0  0  0  0  0  0  0  0  0
   -1.9487   -1.1783    1.1832 C   0  0  0  0  0  0  0  0  0  0  0  0
   -1.3348   -1.4771    2.1928 O   0  0  0  0  0  0  0  0  0  0  0  0
   -1.6552   -0.0013    0.5268 N   0  0  0  0  0  0  0  0  0  0  0  0
   -2.2275    0.1363   -0.3017 H   0  0  0  0  0  0  0  0  0  0  0  0
   -0.3085    0.6180    0.4557 C   0  0  1  0  0  0  0  0  0  0  0  0
    0.0344    0.8625    1.4666 H   0  0  0  0  0  0  0  0  0  0  0  0
    0.7633   -0.2708   -0.2549 C   0  0  0  0  0  0  0  0  0  0  0  0
    0.3927   -0.5106   -1.2577 H   0  0  0  0  0  0  0  0  0  0  0  0
    1.6790    0.3186   -0.3810 H   0  0  0  0  0  0  0  0  0  0  0  0
    1.1881   -1.5823    0.4443 C   0  0  0  0  0  0  0  0  0  0  0  0
    1.5823   -1.3564    1.4389 H   0  0  0  0  0  0  0  0  0  0  0  0
    0.3347   -2.2473    0.5597 H   0  0  0  0  0  0  0  0  0  0  0  0
    2.2249   -2.3924   -0.3365 C   0  0  0  0  0  0  0  0  0  0  0  0
    2.5445   -2.0531   -1.4644 O   0  0  0  0  0  0  0  0  0  0  0  0
    2.7407   -3.4777    0.2847 O   0  0  0  0  0  0  0  0  0  0  0  0
    3.3765   -3.8609   -0.3380 H   0  0  0  0  0  0  0  0  0  0  0  0
   -0.3994    1.9390   -0.3614 C   0  0  0  0  0  0  0  0  0  0  0  0
    0.5938    2.4961   -0.8087 O   0  0  0  0  0  0  0  0  0  0  0  0
   -1.6345    2.5144   -0.6145 N   0  0  0  0  0  0  0  0  0  0  0  0
   -2.4039    2.1783   -0.0431 H   0  0  0  0  0  0  0  0  0  0  0  0
   -1.7831    3.8011   -1.2870 C   0  0  0  0  0  0  0  0  0  0  0  0
   -1.3251    3.7699   -2.2816 H   0  0  0  0  0  0  0  0  0  0  0  0
   -2.8428    4.0475   -1.4050 H   0  0  0  0  0  0  0  0  0  0  0  0
   -1.3038    4.5955   -0.7051 H   0  0  0  0  0  0  0  0  0  0  0  0
  1  2  1  0  0  0  0
  2  3  1  0  0  0  0
  2  4  1  0  0  0  0
  2  5  1  0  0  0  0
  5  6  2  0  0  0  0
  5  7  1  0  0  0  0
  7  8  1  0  0  0  0
  7  9  1  0  0  0  0
  9 10  1  0  0  0  0
  9 11  1  0  0  0  0
  9 21  1  0  0  0  0
 11 12  1  0  0  0  0
 11 13  1  0  0  0  0
 11 14  1  0  0  0  0
 14 15  1  0  0  0  0
 14 16  1  0  0  0  0
 14 17  1  0  0  0  0
 17 18  2  0  0  0  0
 17 19  1  0  0  0  0
 19 20  1  0  0  0  0
 21 22  2  0  0  0  0
 21 23  1  0  0  0  0
 23 24  1  0  0  0  0
 23 25  1  0  0  0  0
 25 26  1  0  0  0  0
 25 27  1  0  0  0  0
 25 28  1  0  0  0  0
M  END
$$$$

  -OEChem-01062216073D

 28 27  0     1  0  0  0  0  0999 V2000
   -3.2451   -2.8818    1.3412 H   0  0  0  0  0  0  0  0  0  0  0  0
   -3.1462   -1.9874    0.7194 C   0  0  0  0  0  0  0  0  0  0  0  0
   -4.0582   -1.3927    0.8111 H   0  0  0  0  0  0  0  0  0  0  0  0
   -3.0219   -2.2962   -0.3213 H   0  0  0  0  0  0  0  0  0  0  0  0
   -1.9473   -1.1727    1.1658 C   0  0  0  0  0  0  0  0  0  0  0  0
   -1.3367   -1.4870    2.1728 O   0  0  0  0  0  0  0  0  0  0  0  0
   -1.6401    0.0076    0.5223 N   0  0  0  0  0  0  0  0  0  0  0  0
   -2.2265    0.1818   -0.2902 H   0  0  0  0  0  0  0  0  0  0  0  0
   -0.2893    0.6157    0.4520 C   0  0  1  0  0  0  0  0  0  0  0  0
    0.0547    0.8562    1.4634 H   0  0  0  0  0  0  0  0  0  0  0  0
    0.7829   -0.2755   -0.2552 C   0  0  0  0  0  0  0  0  0  0  0  0
    0.4164   -0.5141   -1.2598 H   0  0  0  0  0  0  0  0  0  0  0  0
    1.6998    0.3131   -0.3758 H   0  0  0  0  0  0  0  0  0  0  0  0
    1.2007   -1.5881    0.4456 C   0  0  0  0  0  0  0  0  0  0  0  0
    1.5907   -1.3642    1.4424 H   0  0  0  0  0  0  0  0  0  0  0  0
    0.3442   -2.2499    0.5564 H   0  0  0  0  0  0  0  0  0  0  0  0
    2.2381   -2.4021   -0.3299 C   0  0  0  0  0  0  0  0  0  0  0  0
    2.5645   -2.0653   -1.4565 O   0  0  0  0  0  0  0  0  0  0  0  0
    2.7456   -3.4894    0.2944 O   0  0  0  0  0  0  0  0  0  0  0  0
    3.3802   -3.8778   -0.3262 H   0  0  0  0  0  0  0  0  0  0  0  0
   -0.3996    1.9414   -0.3550 C   0  0  0  0  0  0  0  0  0  0  0  0
    0.5099    2.3790   -1.0466 O   0  0  0  0  0  0  0  0  0  0  0  0
   -1.5842    2.6581   -0.3163 N   0  0  0  0  0  0  0  0  0  0  0  0
   -2.2612    2.3679    0.3840 H   0  0  0  0  0  0  0  0  0  0  0  0
   -1.7541    3.9561   -0.9610 C   0  0  0  0  0  0  0  0  0  0  0  0
   -1.5724    3.8763   -2.0382 H   0  0  0  0  0  0  0  0  0  0  0  0
   -2.7738    4.3236   -0.8107 H   0  0  0  0  0  0  0  0  0  0  0  0
   -1.0559    4.6873   -0.5403 H   0  0  0  0  0  0  0  0  0  0  0  0
  1  2  1  0  0  0  0
  2  3  1  0  0  0  0
  2  4  1  0  0  0  0
  2  5  1  0  0  0  0
  5  6  2  0  0  0  0
  5  7  1  0  0  0  0
  7  8  1  0  0  0  0
  7  9  1  0  0  0  0
  9 10  1  0  0  0  0
  9 11  1  0  0  0  0
  9 21  1  0  0  0  0
 11 12  1  0  0  0  0
 11 13  1  0  0  0  0
 11 14  1  0  0  0  0
 14 15  1  0  0  0  0
 14 16  1  0  0  0  0
 14 17  1  0  0  0  0
 17 18  2  0  0  0  0
 17 19  1  0  0  0  0
 19 20  1  0  0  0  0
 21 22  2  0  0  0  0
 21 23  1  0  0  0  0
 23 24  1  0  0  0  0
 23 25  1  0  0  0  0
 25 26  1  0  0  0  0
 25 27  1  0  0  0  0
 25 28  1  0  0  0  0
M  END
$$$$

  -OEChem-01062216073D

 28 27  0     1  0  0  0  0  0999 V2000
   -3.2579   -2.8728    1.2984 H   0  0  0  0  0  0  0  0  0  0  0  0
   -3.1643   -1.9596    0.7037 C   0  0  0  0  0  0  0  0  0  0  0  0
   -4.0696   -1.3614    0.8318 H   0  0  0  0  0  0  0  0  0  0  0  0
   -3.0625   -2.2363   -0.3485 H   0  0  0  0  0  0  0  0  0  0  0  0
   -1.9506   -1.1685    1.1523 C   0  0  0  0  0  0  0  0  0  0  0  0
   -1.3406   -1.5020    2.1537 O   0  0  0  0  0  0  0  0  0  0  0  0
   -1.6300    0.0155    0.5232 N   0  0  0  0  0  0  0  0  0  0  0  0
   -2.2248    0.2200   -0.2764 H   0  0  0  0  0  0  0  0  0  0  0  0
   -0.2756    0.6118    0.4584 C   0  0  1  0  0  0  0  0  0  0  0  0
    0.0685    0.8430    1.4719 H   0  0  0  0  0  0  0  0  0  0  0  0
    0.7987   -0.2754   -0.2486 C   0  0  0  0  0  0  0  0  0  0  0  0
    0.4354   -0.5102   -1.2555 H   0  0  0  0  0  0  0  0  0  0  0  0
    1.7134    0.3180   -0.3641 H   0  0  0  0  0  0  0  0  0  0  0  0
    1.2101   -1.5924    0.4473 C   0  0  0  0  0  0  0  0  0  0  0  0
    1.5945   -1.3744    1.4475 H   0  0  0  0  0  0  0  0  0  0  0  0
    0.3509   -2.2522    0.5493 H   0  0  0  0  0  0  0  0  0  0  0  0
    2.2508   -2.4045   -0.3261 C   0  0  0  0  0  0  0  0  0  0  0  0
    2.5852   -2.0630   -1.4488 O   0  0  0  0  0  0  0  0  0  0  0  0
    2.7526   -3.4957    0.2961 O   0  0  0  0  0  0  0  0  0  0  0  0
    3.3879   -3.8837   -0.3241 H   0  0  0  0  0  0  0  0  0  0  0  0
   -0.3923    1.9434   -0.3347 C   0  0  0  0  0  0  0  0  0  0  0  0
    0.3637    2.2560   -1.2450 O   0  0  0  0  0  0  0  0  0  0  0  0
   -1.4366    2.8011   -0.0365 N   0  0  0  0  0  0  0  0  0  0  0  0
   -2.0099    2.5606    0.7678 H   0  0  0  0  0  0  0  0  0  0  0  0
   -1.6238    4.0971   -0.6794 C   0  0  0  0  0  0  0  0  0  0  0  0
   -1.7480    3.9742   -1.7606 H   0  0  0  0  0  0  0  0  0  0  0  0
   -2.5164    4.5913   -0.2840 H   0  0  0  0  0  0  0  0  0  0  0  0
   -0.7595    4.7443   -0.4961 H   0  0  0  0  0  0  0  0  0  0  0  0
  1  2  1  0  0  0  0
  2  3  1  0  0  0  0
  2  4  1  0  0  0  0
  2  5  1  0  0  0  0
  5  6  2  0  0  0  0
  5  7  1  0  0  0  0
  7  8  1  0  0  0  0
  7  9  1  0  0  0  0
  9 10  1  0  0  0  0
  9 11  1  0  0  0  0
  9 21  1  0  0  0  0
 11 12  1  0  0  0  0
 11 13  1  0  0  0  0
 11 14  1  0  0  0  0
 14 15  1  0  0  0  0
 14 16  1  0  0  0  0
 14 17  1  0  0  0  0
 17 18  2  0  0  0  0
 17 19  1  0  0  0  0
 19 20  1  0  0  0  0
 21 22  2  0  0  0  0
 21 23  1  0  0  0  0
 23 24  1  0  0  0  0
 23 25  1  0  0  0  0
 25 26  1  0  0  0  0
 25 27  1  0  0  0  0
 25 28  1  0  0  0  0
M  END
$$$$

  -OEChem-01062216073D

 28 27  0     1  0  0  0  0  0999 V2000
   -3.2953   -2.8482    1.2810 H   0  0  0  0  0  0  0  0  0  0  0  0
   -3.1827   -1.9352    0.6894 C   0  0  0  0  0  0  0  0  0  0  0  0
   -4.0773   -1.3206    0.8158 H   0  0  0  0  0  0  0  0  0  0  0  0
   -3.0817   -2.2097   -0.3634 H   0  0  0  0  0  0  0  0  0  0  0  0
   -1.9564   -1.1675    1.1444 C   0  0  0  0  0  0  0  0  0  0  0  0
   -1.3466   -1.5227    2.1387 O   0  0  0  0  0  0  0  0  0  0  0  0
   -1.6231    0.0199    0.5292 N   0  0  0  0  0  0  0  0  0  0  0  0
   -2.2199    0.2460   -0.2631 H   0  0  0  0  0  0  0  0  0  0  0  0
   -0.2663    0.6065    0.4713 C   0  0  1  0  0  0  0  0  0  0  0  0
    0.0779    0.8252    1.4874 H   0  0  0  0  0  0  0  0  0  0  0  0
    0.8102   -0.2738   -0.2382 C   0  0  0  0  0  0  0  0  0  0  0  0
    0.4475   -0.5064   -1.2461 H   0  0  0  0  0  0  0  0  0  0  0  0
    1.7210    0.3259   -0.3519 H   0  0  0  0  0  0  0  0  0  0  0  0
    1.2174   -1.5967    0.4484 C   0  0  0  0  0  0  0  0  0  0  0  0
    1.5965   -1.3883    1.4528 H   0  0  0  0  0  0  0  0  0  0  0  0
    0.3567   -2.2563    0.5398 H   0  0  0  0  0  0  0  0  0  0  0  0
    2.2615   -2.4023   -0.3269 C   0  0  0  0  0  0  0  0  0  0  0  0
    2.6016   -2.0510   -1.4449 O   0  0  0  0  0  0  0  0  0  0  0  0
    2.7639   -3.4962    0.2902 O   0  0  0  0  0  0  0  0  0  0  0  0
    3.4021   -3.8784   -0.3306 H   0  0  0  0  0  0  0  0  0  0  0  0
   -0.3775    1.9439   -0.3076 C   0  0  0  0  0  0  0  0  0  0  0  0
    0.1598    2.1383   -1.3899 O   0  0  0  0  0  0  0  0  0  0  0  0
   -1.2039    2.9318    0.1960 N   0  0  0  0  0  0  0  0  0  0  0  0
   -1.6520    2.7491    1.0900 H   0  0  0  0  0  0  0  0  0  0  0  0
   -1.4107    4.2215   -0.4535 C   0  0  0  0  0  0  0  0  0  0  0  0
   -1.8491    4.0841   -1.4476 H   0  0  0  0  0  0  0  0  0  0  0  0
   -2.0891    4.8410    0.1411 H   0  0  0  0  0  0  0  0  0  0  0  0
   -0.4596    4.7542   -0.5589 H   0  0  0  0  0  0  0  0  0  0  0  0
  1  2  1  0  0  0  0
  2  3  1  0  0  0  0
  2  4  1  0  0  0  0
  2  5  1  0  0  0  0
  5  6  2  0  0  0  0
  5  7  1  0  0  0  0
  7  8  1  0  0  0  0
  7  9  1  0  0  0  0
  9 10  1  0  0  0  0
  9 11  1  0  0  0  0
  9 21  1  0  0  0  0
 11 12  1  0  0  0  0
 11 13  1  0  0  0  0
 11 14  1  0  0  0  0
 14 15  1  0  0  0  0
 14 16  1  0  0  0  0
 14 17  1  0  0  0  0
 17 18  2  0  0  0  0
 17 19  1  0  0  0  0
 19 20  1  0  0  0  0
 21 22  2  0  0  0  0
 21 23  1  0  0  0  0
 23 24  1  0  0  0  0
 23 25  1  0  0  0  0
 25 26  1  0  0  0  0
 25 27  1  0  0  0  0
 25 28  1  0  0  0  0
M  END
$$$$

  -OEChem-01062216073D

 28 27  0     1  0  0  0  0  0999 V2000
   -3.3063   -2.8413    1.2575 H   0  0  0  0  0  0  0  0  0  0  0  0
   -3.1913   -1.9208    0.6781 C   0  0  0  0  0  0  0  0  0  0  0  0
   -4.0823   -1.3037    0.8158 H   0  0  0  0  0  0  0  0  0  0  0  0
   -3.0953   -2.1815   -0.3786 H   0  0  0  0  0  0  0  0  0  0  0  0
   -1.9601   -1.1648    1.1391 C   0  0  0  0  0  0  0  0  0  0  0  0
   -1.3520   -1.5334    2.1299 O   0  0  0  0  0  0  0  0  0  0  0  0
   -1.6176    0.0247    0.5334 N   0  0  0  0  0  0  0  0  0  0  0  0
   -2.2067    0.2609   -0.2622 H   0  0  0  0  0  0  0  0  0  0  0  0
   -0.2590    0.6036    0.4897 C   0  0  1  0  0  0  0  0  0  0  0  0
    0.0801    0.8088    1.5104 H   0  0  0  0  0  0  0  0  0  0  0  0
    0.8200   -0.2679   -0.2245 C   0  0  0  0  0  0  0  0  0  0  0  0
    0.4613   -0.4934   -1.2355 H   0  0  0  0  0  0  0  0  0  0  0  0
    1.7297    0.3347   -0.3313 H   0  0  0  0  0  0  0  0  0  0  0  0
    1.2179   -1.5999    0.4489 C   0  0  0  0  0  0  0  0  0  0  0  0
    1.5886   -1.4058    1.4590 H   0  0  0  0  0  0  0  0  0  0  0  0
    0.3535   -2.2571    0.5244 H   0  0  0  0  0  0  0  0  0  0  0  0
    2.2657   -2.3992   -0.3275 C   0  0  0  0  0  0  0  0  0  0  0  0
    2.6157   -2.0353   -1.4383 O   0  0  0  0  0  0  0  0  0  0  0  0
    2.7595   -3.5021    0.2802 O   0  0  0  0  0  0  0  0  0  0  0  0
    3.4004   -3.8804   -0.3402 H   0  0  0  0  0  0  0  0  0  0  0  0
   -0.3540    1.9447   -0.2804 C   0  0  0  0  0  0  0  0  0  0  0  0
   -0.0828    2.0415   -1.4703 O   0  0  0  0  0  0  0  0  0  0  0  0
   -0.9094    3.0392    0.3562 N   0  0  0  0  0  0  0  0  0  0  0  0
   -1.2041    2.9169    1.3213 H   0  0  0  0  0  0  0  0  0  0  0  0
   -1.1345    4.3235   -0.2974 C   0  0  0  0  0  0  0  0  0  0  0  0
   -1.8445    4.2141   -1.1239 H   0  0  0  0  0  0  0  0  0  0  0  0
   -1.5425    5.0457    0.4165 H   0  0  0  0  0  0  0  0  0  0  0  0
   -0.1941    4.7228   -0.6920 H   0  0  0  0  0  0  0  0  0  0  0  0
  1  2  1  0  0  0  0
  2  3  1  0  0  0  0
  2  4  1  0  0  0  0
  2  5  1  0  0  0  0
  5  6  2  0  0  0  0
  5  7  1  0  0  0  0
  7  8  1  0  0  0  0
  7  9  1  0  0  0  0
  9 10  1  0  0  0  0
  9 11  1  0  0  0  0
  9 21  1  0  0  0  0
 11 12  1  0  0  0  0
 11 13  1  0  0  0  0
 11 14  1  0  0  0  0
 14 15  1  0  0  0  0
 14 16  1  0  0  0  0
 14 17  1  0  0  0  0
 17 18  2  0  0  0  0
 17 19  1  0  0  0  0
 19 20  1  0  0  0  0
 21 22  2  0  0  0  0
 21 23  1  0  0  0  0
 23 24  1  0  0  0  0
 23 25  1  0  0  0  0
 25 26  1  0  0  0  0
 25 27  1  0  0  0  0
 25 28  1  0  0  0  0
M  END
$$$$

  -OEChem-01062216073D

 28 27  0     1  0  0  0  0  0999 V2000
   -3.3318   -2.8255    1.2428 H   0  0  0  0  0  0  0  0  0  0  0  0
   -3.2091   -1.9008    0.6720 C   0  0  0  0  0  0  0  0  0  0  0  0
   -4.0914   -1.2740    0.8217 H   0  0  0  0  0  0  0  0  0  0  0  0
   -3.1231   -2.1517   -0.3880 H   0  0  0  0  0  0  0  0  0  0  0  0
   -1.9661   -1.1641    1.1328 C   0  0  0  0  0  0  0  0  0  0  0  0
   -1.3576   -1.5485    2.1177 O   0  0  0  0  0  0  0  0  0  0  0  0
   -1.6104    0.0239    0.5322 N   0  0  0  0  0  0  0  0  0  0  0  0
   -2.1925    0.2723   -0.2655 H   0  0  0  0  0  0  0  0  0  0  0  0
   -0.2508    0.5976    0.5022 C   0  0  1  0  0  0  0  0  0  0  0  0
    0.0810    0.7937    1.5268 H   0  0  0  0  0  0  0  0  0  0  0  0
    0.8327   -0.2630   -0.2150 C   0  0  0  0  0  0  0  0  0  0  0  0
    0.4804   -0.4786   -1.2306 H   0  0  0  0  0  0  0  0  0  0  0  0
    1.7423    0.3412   -0.3102 H   0  0  0  0  0  0  0  0  0  0  0  0
    1.2224   -1.6022    0.4486 C   0  0  0  0  0  0  0  0  0  0  0  0
    1.5849   -1.4177    1.4632 H   0  0  0  0  0  0  0  0  0  0  0  0
    0.3551   -2.2573    0.5111 H   0  0  0  0  0  0  0  0  0  0  0  0
    2.2758   -2.3962   -0.3255 C   0  0  0  0  0  0  0  0  0  0  0  0
    2.6365   -2.0218   -1.4295 O   0  0  0  0  0  0  0  0  0  0  0  0
    2.7621   -3.5060    0.2758 O   0  0  0  0  0  0  0  0  0  0  0  0
    3.4040   -3.8825   -0.3447 H   0  0  0  0  0  0  0  0  0  0  0  0
   -0.3306    1.9373   -0.2665 C   0  0  0  0  0  0  0  0  0  0  0  0
   -0.3487    1.9717   -1.4904 O   0  0  0  0  0  0  0  0  0  0  0  0
   -0.5856    3.1032    0.4312 N   0  0  0  0  0  0  0  0  0  0  0  0
   -0.6865    3.0312    1.4398 H   0  0  0  0  0  0  0  0  0  0  0  0
   -0.8199    4.3907   -0.2125 C   0  0  0  0  0  0  0  0  0  0  0  0
   -1.7235    4.3525   -0.8301 H   0  0  0  0  0  0  0  0  0  0  0  0
   -0.9485    5.1732    0.5416 H   0  0  0  0  0  0  0  0  0  0  0  0
    0.0297    4.6615   -0.8484 H   0  0  0  0  0  0  0  0  0  0  0  0
  1  2  1  0  0  0  0
  2  3  1  0  0  0  0
  2  4  1  0  0  0  0
  2  5  1  0  0  0  0
  5  6  2  0  0  0  0
  5  7  1  0  0  0  0
  7  8  1  0  0  0  0
  7  9  1  0  0  0  0
  9 10  1  0  0  0  0
  9 11  1  0  0  0  0
  9 21  1  0  0  0  0
 11 12  1  0  0  0  0
 11 13  1  0  0  0  0
 11 14  1  0  0  0  0
 14 15  1  0  0  0  0
 14 16  1  0  0  0  0
 14 17  1  0  0  0  0
 17 18  2  0  0  0  0
 17 19  1  0  0  0  0
 19 20  1  0  0  0  0
 21 22  2  0  0  0  0
 21 23  1  0  0  0  0
 23 24  1  0  0  0  0
 23 25  1  0  0  0  0
 25 26  1  0  0  0  0
 25 27  1  0  0  0  0
 25 28  1  0  0  0  0
M  END
$$$$

  -OEChem-01062216073D

 28 27  0     1  0  0  0  0  0999 V2000
   -3.3199   -2.8423    1.2148 H   0  0  0  0  0  0  0  0  0  0  0  0
   -3.2150   -1.8996    0.6702 C   0  0  0  0  0  0  0  0  0  0  0  0
   -4.1032   -1.2883    0.8476 H   0  0  0  0  0  0  0  0  0  0  0  0
   -3.1379   -2.1182   -0.3977 H   0  0  0  0  0  0  0  0  0  0  0  0
   -1.9754   -1.1622    1.1388 C   0  0  0  0  0  0  0  0  0  0  0  0
   -1.3647   -1.5535    2.1200 O   0  0  0  0  0  0  0  0  0  0  0  0
   -1.6120    0.0221    0.5360 N   0  0  0  0  0  0  0  0  0  0  0  0
   -2.1895    0.2808   -0.2627 H   0  0  0  0  0  0  0  0  0  0  0  0
   -0.2530    0.5945    0.5173 C   0  0  1  0  0  0  0  0  0  0  0  0
    0.0704    0.7878    1.5450 H   0  0  0  0  0  0  0  0  0  0  0  0
    0.8325   -0.2575   -0.2032 C   0  0  0  0  0  0  0  0  0  0  0  0
    0.4851   -0.4609   -1.2230 H   0  0  0  0  0  0  0  0  0  0  0  0
    1.7433    0.3467   -0.2866 H   0  0  0  0  0  0  0  0  0  0  0  0
    1.2176   -1.6031    0.4494 C   0  0  0  0  0  0  0  0  0  0  0  0
    1.5753   -1.4296    1.4680 H   0  0  0  0  0  0  0  0  0  0  0  0
    0.3486   -2.2571    0.5016 H   0  0  0  0  0  0  0  0  0  0  0  0
    2.2747   -2.3898   -0.3276 C   0  0  0  0  0  0  0  0  0  0  0  0
    2.6406   -2.0039   -1.4260 O   0  0  0  0  0  0  0  0  0  0  0  0
    2.7603   -3.5041    0.2658 O   0  0  0  0  0  0  0  0  0  0  0  0
    3.4062   -3.8743   -0.3543 H   0  0  0  0  0  0  0  0  0  0  0  0
   -0.3211    1.9289   -0.2588 C   0  0  0  0  0  0  0  0  0  0  0  0
   -0.6039    1.9400   -1.4509 O   0  0  0  0  0  0  0  0  0  0  0  0
   -0.2683    3.1295    0.4248 N   0  0  0  0  0  0  0  0  0  0  0  0
   -0.1500    3.0912    1.4332 H   0  0  0  0  0  0  0  0  0  0  0  0
   -0.4667    4.4253   -0.2141 C   0  0  0  0  0  0  0  0  0  0  0  0
   -1.4791    4.4990   -0.6249 H   0  0  0  0  0  0  0  0  0  0  0  0
   -0.3275    5.2314    0.5128 H   0  0  0  0  0  0  0  0  0  0  0  0
    0.2539    4.5665   -1.0266 H   0  0  0  0  0  0  0  0  0  0  0  0
  1  2  1  0  0  0  0
  2  3  1  0  0  0  0
  2  4  1  0  0  0  0
  2  5  1  0  0  0  0
  5  6  2  0  0  0  0
  5  7  1  0  0  0  0
  7  8  1  0  0  0  0
  7  9  1  0  0  0  0
  9 10  1  0  0  0  0
  9 11  1  0  0  0  0
  9 21  1  0  0  0  0
 11 12  1  0  0  0  0
 11 13  1  0  0  0  0
 11 14  1  0  0  0  0
 14 15  1  0  0  0  0
 14 16  1  0  0  0  0
 14 17  1  0  0  0  0
 17 18  2  0  0  0  0
 17 19  1  0  0  0  0
 19 20  1  0  0  0  0
 21 22  2  0  0  0  0
 21 23  1  0  0  0  0
 23 24  1  0  0  0  0
 23 25  1  0  0  0  0
 25 26  1  0  0  0  0
 25 27  1  0  0  0  0
 25 28  1  0  0  0  0
M  END
$$$$

  -OEChem-01062216073D

 28 27  0     1  0  0  0  0  0999 V2000
   -3.3895   -2.7963    1.2611 H   0  0  0  0  0  0  0  0  0  0  0  0
   -3.2433   -1.8806    0.6814 C   0  0  0  0  0  0  0  0  0  0  0  0
   -4.1086   -1.2293    0.8260 H   0  0  0  0  0  0  0  0  0  0  0  0
   -3.1653   -2.1432   -0.3763 H   0  0  0  0  0  0  0  0  0  0  0  0
   -1.9809   -1.1721    1.1332 C   0  0  0  0  0  0  0  0  0  0  0  0
   -1.3638   -1.5820    2.1028 O   0  0  0  0  0  0  0  0  0  0  0  0
   -1.6058    0.0087    0.5313 N   0  0  0  0  0  0  0  0  0  0  0  0
   -2.1845    0.2865   -0.2610 H   0  0  0  0  0  0  0  0  0  0  0  0
   -0.2500    0.5874    0.5266 C   0  0  1  0  0  0  0  0  0  0  0  0
    0.0633    0.7821    1.5570 H   0  0  0  0  0  0  0  0  0  0  0  0
    0.8414   -0.2520   -0.1960 C   0  0  0  0  0  0  0  0  0  0  0  0
    0.4997   -0.4441   -1.2199 H   0  0  0  0  0  0  0  0  0  0  0  0
    1.7515    0.3545   -0.2674 H   0  0  0  0  0  0  0  0  0  0  0  0
    1.2261   -1.6021    0.4460 C   0  0  0  0  0  0  0  0  0  0  0  0
    1.5761   -1.4384    1.4688 H   0  0  0  0  0  0  0  0  0  0  0  0
    0.3580   -2.2582    0.4850 H   0  0  0  0  0  0  0  0  0  0  0  0
    2.2900   -2.3780   -0.3318 C   0  0  0  0  0  0  0  0  0  0  0  0
    2.6612   -1.9798   -1.4241 O   0  0  0  0  0  0  0  0  0  0  0  0
    2.7744   -3.4972    0.2531 O   0  0  0  0  0  0  0  0  0  0  0  0
    3.4231   -3.8614   -0.3676 H   0  0  0  0  0  0  0  0  0  0  0  0
   -0.3136    1.9158   -0.2584 C   0  0  0  0  0  0  0  0  0  0  0  0
   -0.8095    1.9411   -1.3792 O   0  0  0  0  0  0  0  0  0  0  0  0
    0.0294    3.1076    0.3526 N   0  0  0  0  0  0  0  0  0  0  0  0
    0.3463    3.0692    1.3171 H   0  0  0  0  0  0  0  0  0  0  0  0
   -0.1284    4.4083   -0.2876 C   0  0  0  0  0  0  0  0  0  0  0  0
   -1.1848    4.6069   -0.4972 H   0  0  0  0  0  0  0  0  0  0  0  0
    0.2501    5.2008    0.3652 H   0  0  0  0  0  0  0  0  0  0  0  0
    0.4299    4.4421   -1.2293 H   0  0  0  0  0  0  0  0  0  0  0  0
  1  2  1  0  0  0  0
  2  3  1  0  0  0  0
  2  4  1  0  0  0  0
  2  5  1  0  0  0  0
  5  6  2  0  0  0  0
  5  7  1  0  0  0  0
  7  8  1  0  0  0  0
  7  9  1  0  0  0  0
  9 10  1  0  0  0  0
  9 11  1  0  0  0  0
  9 21  1  0  0  0  0
 11 12  1  0  0  0  0
 11 13  1  0  0  0  0
 11 14  1  0  0  0  0
 14 15  1  0  0  0  0
 14 16  1  0  0  0  0
 14 17  1  0  0  0  0
 17 18  2  0  0  0  0
 17 19  1  0  0  0  0
 19 20  1  0  0  0  0
 21 22  2  0  0  0  0
 21 23  1  0  0  0  0
 23 24  1  0  0  0  0
 23 25  1  0  0  0  0
 25 26  1  0  0  0  0
 25 27  1  0  0  0  0
 25 28  1  0  0  0  0
M  END
$$$$

  -OEChem-01062216073D

 28 27  0     1  0  0  0  0  0999 V2000
   -3.4076   -2.7980    1.2646 H   0  0  0  0  0  0  0  0  0  0  0  0
   -3.2634   -1.8768    0.6935 C   0  0  0  0  0  0  0  0  0  0  0  0
   -4.1223   -1.2215    0.8581 H   0  0  0  0  0  0  0  0  0  0  0  0
   -3.2030   -2.1277   -0.3682 H   0  0  0  0  0  0  0  0  0  0  0  0
   -1.9892   -1.1823    1.1346 C   0  0  0  0  0  0  0  0  0  0  0  0
   -1.3651   -1.6028    2.0952 O   0  0  0  0  0  0  0  0  0  0  0  0
   -1.6088   -0.0037    0.5313 N   0  0  0  0  0  0  0  0  0  0  0  0
   -2.1990    0.2972   -0.2447 H   0  0  0  0  0  0  0  0  0  0  0  0
   -0.2576    0.5860    0.5320 C   0  0  1  0  0  0  0  0  0  0  0  0
    0.0496    0.7866    1.5633 H   0  0  0  0  0  0  0  0  0  0  0  0
    0.8383   -0.2455   -0.1914 C   0  0  0  0  0  0  0  0  0  0  0  0
    0.4976   -0.4348   -1.2163 H   0  0  0  0  0  0  0  0  0  0  0  0
    1.7462    0.3647   -0.2596 H   0  0  0  0  0  0  0  0  0  0  0  0
    1.2305   -1.5959    0.4460 C   0  0  0  0  0  0  0  0  0  0  0  0
    1.5795   -1.4341    1.4694 H   0  0  0  0  0  0  0  0  0  0  0  0
    0.3655   -2.2568    0.4823 H   0  0  0  0  0  0  0  0  0  0  0  0
    2.2994   -2.3617   -0.3354 C   0  0  0  0  0  0  0  0  0  0  0  0
    2.6671   -1.9553   -1.4260 O   0  0  0  0  0  0  0  0  0  0  0  0
    2.7926   -3.4800    0.2437 O   0  0  0  0  0  0  0  0  0  0  0  0
    3.4415   -3.8383   -0.3802 H   0  0  0  0  0  0  0  0  0  0  0  0
   -0.3205    1.9100   -0.2615 C   0  0  0  0  0  0  0  0  0  0  0  0
   -0.9947    1.9793   -1.2837 O   0  0  0  0  0  0  0  0  0  0  0  0
    0.2912    3.0513    0.2230 N   0  0  0  0  0  0  0  0  0  0  0  0
    0.7952    2.9813    1.1023 H   0  0  0  0  0  0  0  0  0  0  0  0
    0.2027    4.3470   -0.4400 C   0  0  0  0  0  0  0  0  0  0  0  0
   -0.8384    4.6836   -0.4875 H   0  0  0  0  0  0  0  0  0  0  0  0
    0.7830    5.0945    0.1094 H   0  0  0  0  0  0  0  0  0  0  0  0
    0.5991    4.2838   -1.4589 H   0  0  0  0  0  0  0  0  0  0  0  0
  1  2  1  0  0  0  0
  2  3  1  0  0  0  0
  2  4  1  0  0  0  0
  2  5  1  0  0  0  0
  5  6  2  0  0  0  0
  5  7  1  0  0  0  0
  7  8  1  0  0  0  0
  7  9  1  0  0  0  0
  9 10  1  0  0  0  0
  9 11  1  0  0  0  0
  9 21  1  0  0  0  0
 11 12  1  0  0  0  0
 11 13  1  0  0  0  0
 11 14  1  0  0  0  0
 14 15  1  0  0  0  0
 14 16  1  0  0  0  0
 14 17  1  0  0  0  0
 17 18  2  0  0  0  0
 17 19  1  0  0  0  0
 19 20  1  0  0  0  0
 21 22  2  0  0  0  0
 21 23  1  0  0  0  0
 23 24  1  0  0  0  0
 23 25  1  0  0  0  0
 25 26  1  0  0  0  0
 25 27  1  0  0  0  0
 25 28  1  0  0  0  0
M  END
$$$$

  -OEChem-01062216073D

 28 27  0     1  0  0  0  0  0999 V2000
   -3.4296   -2.7911    1.2838 H   0  0  0  0  0  0  0  0  0  0  0  0
   -3.2789   -1.8753    0.7055 C   0  0  0  0  0  0  0  0  0  0  0  0
   -4.1276   -1.2080    0.8734 H   0  0  0  0  0  0  0  0  0  0  0  0
   -3.2311   -2.1330   -0.3553 H   0  0  0  0  0  0  0  0  0  0  0  0
   -1.9926   -1.1939    1.1311 C   0  0  0  0  0  0  0  0  0  0  0  0
   -1.3599   -1.6233    2.0821 O   0  0  0  0  0  0  0  0  0  0  0  0
   -1.6125   -0.0159    0.5270 N   0  0  0  0  0  0  0  0  0  0  0  0
   -2.2211    0.3107   -0.2246 H   0  0  0  0  0  0  0  0  0  0  0  0
   -0.2674    0.5878    0.5297 C   0  0  1  0  0  0  0  0  0  0  0  0
    0.0353    0.7941    1.5612 H   0  0  0  0  0  0  0  0  0  0  0  0
    0.8327   -0.2388   -0.1930 C   0  0  0  0  0  0  0  0  0  0  0  0
    0.4899   -0.4309   -1.2167 H   0  0  0  0  0  0  0  0  0  0  0  0
    1.7382    0.3743   -0.2647 H   0  0  0  0  0  0  0  0  0  0  0  0
    1.2347   -1.5859    0.4446 C   0  0  0  0  0  0  0  0  0  0  0  0
    1.5829   -1.4221    1.4682 H   0  0  0  0  0  0  0  0  0  0  0  0
    0.3753   -2.2536    0.4805 H   0  0  0  0  0  0  0  0  0  0  0  0
    2.3076   -2.3441   -0.3386 C   0  0  0  0  0  0  0  0  0  0  0  0
    2.6703   -1.9349   -1.4300 O   0  0  0  0  0  0  0  0  0  0  0  0
    2.8111   -3.4580    0.2404 O   0  0  0  0  0  0  0  0  0  0  0  0
    3.4623   -3.8116   -0.3839 H   0  0  0  0  0  0  0  0  0  0  0  0
   -0.3291    1.9104   -0.2692 C   0  0  0  0  0  0  0  0  0  0  0  0
   -1.1576    2.0533   -1.1630 O   0  0  0  0  0  0  0  0  0  0  0  0
    0.5142    2.9607    0.0442 N   0  0  0  0  0  0  0  0  0  0  0  0
    1.1747    2.8269    0.8045 H   0  0  0  0  0  0  0  0  0  0  0  0
    0.4859    4.2429   -0.6498 C   0  0  0  0  0  0  0  0  0  0  0  0
   -0.4950    4.7172   -0.5384 H   0  0  0  0  0  0  0  0  0  0  0  0
    1.2436    4.9148   -0.2352 H   0  0  0  0  0  0  0  0  0  0  0  0
    0.6920    4.1061   -1.7167 H   0  0  0  0  0  0  0  0  0  0  0  0
  1  2  1  0  0  0  0
  2  3  1  0  0  0  0
  2  4  1  0  0  0  0
  2  5  1  0  0  0  0
  5  6  2  0  0  0  0
  5  7  1  0  0  0  0
  7  8  1  0  0  0  0
  7  9  1  0  0  0  0
  9 10  1  0  0  0  0
  9 11  1  0  0  0  0
  9 21  1  0  0  0  0
 11 12  1  0  0  0  0
 11 13  1  0  0  0  0
 11 14  1  0  0  0  0
 14 15  1  0  0  0  0
 14 16  1  0  0  0  0
 14 17  1  0  0  0  0
 17 18  2  0  0  0  0
 17 19  1  0  0  0  0
 19 20  1  0  0  0  0
 21 22  2  0  0  0  0
 21 23  1  0  0  0  0
 23 24  1  0  0  0  0
 23 25  1  0  0  0  0
 25 26  1  0  0  0  0
 25 27  1  0  0  0  0
 25 28  1  0  0  0  0
M  END
$$$$

  -OEChem-01062216073D

 28 27  0     1  0  0  0  0  0999 V2000
   -3.4472   -2.7849    1.2751 H   0  0  0  0  0  0  0  0  0  0  0  0
   -3.2964   -1.8601    0.7113 C   0  0  0  0  0  0  0  0  0  0  0  0
   -4.1326   -1.1850    0.9096 H   0  0  0  0  0  0  0  0  0  0  0  0
   -3.2741   -2.0983   -0.3549 H   0  0  0  0  0  0  0  0  0  0  0  0
   -1.9919   -1.2044    1.1222 C   0  0  0  0  0  0  0  0  0  0  0  0
   -1.3534   -1.6535    2.0600 O   0  0  0  0  0  0  0  0  0  0  0  0
   -1.6042   -0.0251    0.5251 N   0  0  0  0  0  0  0  0  0  0  0  0
   -2.2347    0.3411   -0.1896 H   0  0  0  0  0  0  0  0  0  0  0  0
   -0.2634    0.5900    0.5347 C   0  0  1  0  0  0  0  0  0  0  0  0
    0.0367    0.7996    1.5663 H   0  0  0  0  0  0  0  0  0  0  0  0
    0.8389   -0.2379   -0.1891 C   0  0  0  0  0  0  0  0  0  0  0  0
    0.4962   -0.4281   -1.2131 H   0  0  0  0  0  0  0  0  0  0  0  0
    1.7469    0.3709   -0.2596 H   0  0  0  0  0  0  0  0  0  0  0  0
    1.2450   -1.5860    0.4442 C   0  0  0  0  0  0  0  0  0  0  0  0
    1.5923   -1.4252    1.4684 H   0  0  0  0  0  0  0  0  0  0  0  0
    0.3878   -2.2567    0.4767 H   0  0  0  0  0  0  0  0  0  0  0  0
    2.3187   -2.3396   -0.3429 C   0  0  0  0  0  0  0  0  0  0  0  0
    2.6783   -1.9258   -1.4337 O   0  0  0  0  0  0  0  0  0  0  0  0
    2.8283   -3.4523    0.2328 O   0  0  0  0  0  0  0  0  0  0  0  0
    3.4797   -3.8019   -0.3934 H   0  0  0  0  0  0  0  0  0  0  0  0
   -0.3319    1.9150   -0.2663 C   0  0  0  0  0  0  0  0  0  0  0  0
   -1.2819    2.1409   -1.0100 O   0  0  0  0  0  0  0  0  0  0  0  0
    0.6796    2.8543   -0.1713 N   0  0  0  0  0  0  0  0  0  0  0  0
    1.4556    2.6526    0.4524 H   0  0  0  0  0  0  0  0  0  0  0  0
    0.6813    4.1071   -0.9181 C   0  0  0  0  0  0  0  0  0  0  0  0
   -0.1961    4.7094   -0.6594 H   0  0  0  0  0  0  0  0  0  0  0  0
    1.5791    4.6874   -0.6842 H   0  0  0  0  0  0  0  0  0  0  0  0
    0.6686    3.9100   -1.9954 H   0  0  0  0  0  0  0  0  0  0  0  0
  1  2  1  0  0  0  0
  2  3  1  0  0  0  0
  2  4  1  0  0  0  0
  2  5  1  0  0  0  0
  5  6  2  0  0  0  0
  5  7  1  0  0  0  0
  7  8  1  0  0  0  0
  7  9  1  0  0  0  0
  9 10  1  0  0  0  0
  9 11  1  0  0  0  0
  9 21  1  0  0  0  0
 11 12  1  0  0  0  0
 11 13  1  0  0  0  0
 11 14  1  0  0  0  0
 14 15  1  0  0  0  0
 14 16  1  0  0  0  0
 14 17  1  0  0  0  0
 17 18  2  0  0  0  0
 17 19  1  0  0  0  0
 19 20  1  0  0  0  0
 21 22  2  0  0  0  0
 21 23  1  0  0  0  0
 23 24  1  0  0  0  0
 23 25  1  0  0  0  0
 25 26  1  0  0  0  0
 25 27  1  0  0  0  0
 25 28  1  0  0  0  0
M  END
$$$$

  -OEChem-01062216073D

 28 27  0     1  0  0  0  0  0999 V2000
   -3.3794   -2.8158    1.2835 H   0  0  0  0  0  0  0  0  0  0  0  0
   -3.2896   -1.8390    0.8001 C   0  0  0  0  0  0  0  0  0  0  0  0
   -4.0346   -1.1634    1.2274 H   0  0  0  0  0  0  0  0  0  0  0  0
   -3.4845   -1.9563   -0.2686 H   0  0  0  0  0  0  0  0  0  0  0  0
   -1.8977   -1.2762    1.0152 C   0  0  0  0  0  0  0  0  0  0  0  0
   -1.1244   -1.8381    1.7743 O   0  0  0  0  0  0  0  0  0  0  0  0
   -1.5491   -0.0781    0.4296 N   0  0  0  0  0  0  0  0  0  0  0  0
   -2.2811    0.4239   -0.0740 H   0  0  0  0  0  0  0  0  0  0  0  0
   -0.2236    0.5657    0.4496 C   0  0  1  0  0  0  0  0  0  0  0  0
    0.1909    0.5352    1.4625 H   0  0  0  0  0  0  0  0  0  0  0  0
    0.7652   -0.0866   -0.5563 C   0  0  0  0  0  0  0  0  0  0  0  0
    0.3038   -0.0630   -1.5504 H   0  0  0  0  0  0  0  0  0  0  0  0
    1.6777    0.5159   -0.6070 H   0  0  0  0  0  0  0  0  0  0  0  0
    1.1925   -1.5357   -0.2420 C   0  0  0  0  0  0  0  0  0  0  0  0
    1.6591   -1.5771    0.7462 H   0  0  0  0  0  0  0  0  0  0  0  0
    0.3178   -2.1862   -0.2299 H   0  0  0  0  0  0  0  0  0  0  0  0
    2.1490   -2.1353   -1.2734 C   0  0  0  0  0  0  0  0  0  0  0  0
    2.4020   -1.5220   -2.2984 O   0  0  0  0  0  0  0  0  0  0  0  0
    2.6772   -3.3463   -0.9835 O   0  0  0  0  0  0  0  0  0  0  0  0
    3.2446   -3.5770   -1.7342 H   0  0  0  0  0  0  0  0  0  0  0  0
   -0.3769    2.0472    0.0147 C   0  0  0  0  0  0  0  0  0  0  0  0
   -1.4744    2.4816   -0.3219 O   0  0  0  0  0  0  0  0  0  0  0  0
    0.7163    2.8935   -0.0544 N   0  0  0  0  0  0  0  0  0  0  0  0
    1.6202    2.5219    0.2224 H   0  0  0  0  0  0  0  0  0  0  0  0
    0.6289    4.2807   -0.4958 C   0  0  0  0  0  0  0  0  0  0  0  0
   -0.0234    4.8542    0.1713 H   0  0  0  0  0  0  0  0  0  0  0  0
    1.6206    4.7432   -0.4919 H   0  0  0  0  0  0  0  0  0  0  0  0
    0.2271    4.3348   -1.5132 H   0  0  0  0  0  0  0  0  0  0  0  0
  1  2  1  0  0  0  0
  2  3  1  0  0  0  0
  2  4  1  0  0  0  0
  2  5  1  0  0  0  0
  5  6  2  0  0  0  0
  5  7  1  0  0  0  0
  7  8  1  0  0  0  0
  7  9  1  0  0  0  0
  9 10  1  0  0  0  0
  9 11  1  0  0  0  0
  9 21  1  0  0  0  0
 11 12  1  0  0  0  0
 11 13  1  0  0  0  0
 11 14  1  0  0  0  0
 14 15  1  0  0  0  0
 14 16  1  0  0  0  0
 14 17  1  0  0  0  0
 17 18  2  0  0  0  0
 17 19  1  0  0  0  0
 19 20  1  0  0  0  0
 21 22  2  0  0  0  0
 21 23  1  0  0  0  0
 23 24  1  0  0  0  0
 23 25  1  0  0  0  0
 25 26  1  0  0  0  0
 25 27  1  0  0  0  0
 25 28  1  0  0  0  0
M  END
$$$$

  -OEChem-01062216073D

 28 27  0     1  0  0  0  0  0999 V2000
   -3.4004   -2.7863    1.2837 H   0  0  0  0  0  0  0  0  0  0  0  0
   -3.2979   -1.8096    0.8027 C   0  0  0  0  0  0  0  0  0  0  0  0
   -4.0217   -1.1203    1.2441 H   0  0  0  0  0  0  0  0  0  0  0  0
   -3.5117   -1.9186   -0.2633 H   0  0  0  0  0  0  0  0  0  0  0  0
   -1.8916   -1.2760    0.9972 C   0  0  0  0  0  0  0  0  0  0  0  0
   -1.1185   -1.8581    1.7409 O   0  0  0  0  0  0  0  0  0  0  0  0
   -1.5342   -0.0776    0.4171 N   0  0  0  0  0  0  0  0  0  0  0  0
   -2.2795    0.4602   -0.0262 H   0  0  0  0  0  0  0  0  0  0  0  0
   -0.2059    0.5615    0.4408 C   0  0  1  0  0  0  0  0  0  0  0  0
    0.2072    0.5338    1.4545 H   0  0  0  0  0  0  0  0  0  0  0  0
    0.7835   -0.1040   -0.5594 C   0  0  0  0  0  0  0  0  0  0  0  0
    0.3272   -0.0788   -1.5558 H   0  0  0  0  0  0  0  0  0  0  0  0
    1.7040    0.4854   -0.6046 H   0  0  0  0  0  0  0  0  0  0  0  0
    1.2050   -1.5541   -0.2420 C   0  0  0  0  0  0  0  0  0  0  0  0
    1.6675   -1.5973    0.7480 H   0  0  0  0  0  0  0  0  0  0  0  0
    0.3285   -2.2018   -0.2347 H   0  0  0  0  0  0  0  0  0  0  0  0
    2.1612   -2.1578   -1.2716 C   0  0  0  0  0  0  0  0  0  0  0  0
    2.4175   -1.5459   -2.2968 O   0  0  0  0  0  0  0  0  0  0  0  0
    2.6855   -3.3698   -0.9796 O   0  0  0  0  0  0  0  0  0  0  0  0
    3.2531   -3.6039   -1.7289 H   0  0  0  0  0  0  0  0  0  0  0  0
   -0.3694    2.0467    0.0078 C   0  0  0  0  0  0  0  0  0  0  0  0
   -1.4911    2.5360   -0.0859 O   0  0  0  0  0  0  0  0  0  0  0  0
    0.7106    2.8316   -0.3609 N   0  0  0  0  0  0  0  0  0  0  0  0
    1.6367    2.4195   -0.2995 H   0  0  0  0  0  0  0  0  0  0  0  0
    0.5832    4.2078   -0.8269 C   0  0  0  0  0  0  0  0  0  0  0  0
    0.1389    4.8367   -0.0482 H   0  0  0  0  0  0  0  0  0  0  0  0
    1.5669    4.6146   -1.0804 H   0  0  0  0  0  0  0  0  0  0  0  0
   -0.0495    4.2531   -1.7197 H   0  0  0  0  0  0  0  0  0  0  0  0
  1  2  1  0  0  0  0
  2  3  1  0  0  0  0
  2  4  1  0  0  0  0
  2  5  1  0  0  0  0
  5  6  2  0  0  0  0
  5  7  1  0  0  0  0
  7  8  1  0  0  0  0
  7  9  1  0  0  0  0
  9 10  1  0  0  0  0
  9 11  1  0  0  0  0
  9 21  1  0  0  0  0
 11 12  1  0  0  0  0
 11 13  1  0  0  0  0
 11 14  1  0  0  0  0
 14 15  1  0  0  0  0
 14 16  1  0  0  0  0
 14 17  1  0  0  0  0
 17 18  2  0  0  0  0
 17 19  1  0  0  0  0
 19 20  1  0  0  0  0
 21 22  2  0  0  0  0
 21 23  1  0  0  0  0
 23 24  1  0  0  0  0
 23 25  1  0  0  0  0
 25 26  1  0  0  0  0
 25 27  1  0  0  0  0
 25 28  1  0  0  0  0
M  END
$$$$

  -OEChem-01062216073D

 28 27  0     1  0  0  0  0  0999 V2000
   -3.4343   -2.7433    1.3062 H   0  0  0  0  0  0  0  0  0  0  0  0
   -3.3167   -1.7739    0.8139 C   0  0  0  0  0  0  0  0  0  0  0  0
   -4.0148   -1.0631    1.2629 H   0  0  0  0  0  0  0  0  0  0  0  0
   -3.5541   -1.8869   -0.2466 H   0  0  0  0  0  0  0  0  0  0  0  0
   -1.8938   -1.2741    0.9760 C   0  0  0  0  0  0  0  0  0  0  0  0
   -1.1189   -1.8795    1.6984 O   0  0  0  0  0  0  0  0  0  0  0  0
   -1.5274   -0.0761    0.3995 N   0  0  0  0  0  0  0  0  0  0  0  0
   -2.2817    0.4925    0.0147 H   0  0  0  0  0  0  0  0  0  0  0  0
   -0.1930    0.5521    0.4219 C   0  0  1  0  0  0  0  0  0  0  0  0
    0.2166    0.5264    1.4372 H   0  0  0  0  0  0  0  0  0  0  0  0
    0.8030   -0.1240   -0.5656 C   0  0  0  0  0  0  0  0  0  0  0  0
    0.3578   -0.1002   -1.5671 H   0  0  0  0  0  0  0  0  0  0  0  0
    1.7278    0.4602   -0.5966 H   0  0  0  0  0  0  0  0  0  0  0  0
    1.2224   -1.5732   -0.2423 C   0  0  0  0  0  0  0  0  0  0  0  0
    1.6785   -1.6150    0.7508 H   0  0  0  0  0  0  0  0  0  0  0  0
    0.3467   -2.2220   -0.2413 H   0  0  0  0  0  0  0  0  0  0  0  0
    2.1852   -2.1758   -1.2667 C   0  0  0  0  0  0  0  0  0  0  0  0
    2.4453   -1.5624   -2.2903 O   0  0  0  0  0  0  0  0  0  0  0  0
    2.7102   -3.3873   -0.9738 O   0  0  0  0  0  0  0  0  0  0  0  0
    3.2821   -3.6192   -1.7206 H   0  0  0  0  0  0  0  0  0  0  0  0
   -0.3628    2.0399   -0.0069 C   0  0  0  0  0  0  0  0  0  0  0  0
   -1.4461    2.5923    0.1553 O   0  0  0  0  0  0  0  0  0  0  0  0
    0.6258    2.7556   -0.6636 N   0  0  0  0  0  0  0  0  0  0  0  0
    1.5089    2.2870   -0.8418 H   0  0  0  0  0  0  0  0  0  0  0  0
    0.4514    4.1251   -1.1355 C   0  0  0  0  0  0  0  0  0  0  0  0
    0.2288    4.7947   -0.2980 H   0  0  0  0  0  0  0  0  0  0  0  0
    1.3654    4.4763   -1.6241 H   0  0  0  0  0  0  0  0  0  0  0  0
   -0.3695    4.1802   -1.8582 H   0  0  0  0  0  0  0  0  0  0  0  0
  1  2  1  0  0  0  0
  2  3  1  0  0  0  0
  2  4  1  0  0  0  0
  2  5  1  0  0  0  0
  5  6  2  0  0  0  0
  5  7  1  0  0  0  0
  7  8  1  0  0  0  0
  7  9  1  0  0  0  0
  9 10  1  0  0  0  0
  9 11  1  0  0  0  0
  9 21  1  0  0  0  0
 11 12  1  0  0  0  0
 11 13  1  0  0  0  0
 11 14  1  0  0  0  0
 14 15  1  0  0  0  0
 14 16  1  0  0  0  0
 14 17  1  0  0  0  0
 17 18  2  0  0  0  0
 17 19  1  0  0  0  0
 19 20  1  0  0  0  0
 21 22  2  0  0  0  0
 21 23  1  0  0  0  0
 23 24  1  0  0  0  0
 23 25  1  0  0  0  0
 25 26  1  0  0  0  0
 25 27  1  0  0  0  0
 25 28  1  0  0  0  0
M  END
$$$$

  -OEChem-01062216073D

 28 27  0     1  0  0  0  0  0999 V2000
   -3.4539   -2.7147    1.3254 H   0  0  0  0  0  0  0  0  0  0  0  0
   -3.3304   -1.7493    0.8266 C   0  0  0  0  0  0  0  0  0  0  0  0
   -4.0088   -1.0259    1.2854 H   0  0  0  0  0  0  0  0  0  0  0  0
   -3.5889   -1.8631   -0.2288 H   0  0  0  0  0  0  0  0  0  0  0  0
   -1.8973   -1.2707    0.9611 C   0  0  0  0  0  0  0  0  0  0  0  0
   -1.1184   -1.8911    1.6658 O   0  0  0  0  0  0  0  0  0  0  0  0
   -1.5282   -0.0734    0.3843 N   0  0  0  0  0  0  0  0  0  0  0  0
   -2.2881    0.5118    0.0396 H   0  0  0  0  0  0  0  0  0  0  0  0
   -0.1890    0.5450    0.4023 C   0  0  1  0  0  0  0  0  0  0  0  0
    0.2181    0.5225    1.4188 H   0  0  0  0  0  0  0  0  0  0  0  0
    0.8150   -0.1336   -0.5748 C   0  0  0  0  0  0  0  0  0  0  0  0
    0.3785   -0.1156   -1.5802 H   0  0  0  0  0  0  0  0  0  0  0  0
    1.7375    0.4560   -0.5951 H   0  0  0  0  0  0  0  0  0  0  0  0
    1.2354   -1.5808   -0.2456 C   0  0  0  0  0  0  0  0  0  0  0  0
    1.6830   -1.6208    0.7514 H   0  0  0  0  0  0  0  0  0  0  0  0
    0.3607   -2.2309   -0.2520 H   0  0  0  0  0  0  0  0  0  0  0  0
    2.2065   -2.1834   -1.2619 C   0  0  0  0  0  0  0  0  0  0  0  0
    2.4716   -1.5706   -2.2848 O   0  0  0  0  0  0  0  0  0  0  0  0
    2.7320   -3.3932   -0.9636 O   0  0  0  0  0  0  0  0  0  0  0  0
    3.3110   -3.6250   -1.7050 H   0  0  0  0  0  0  0  0  0  0  0  0
   -0.3609    2.0325   -0.0233 C   0  0  0  0  0  0  0  0  0  0  0  0
   -1.3446    2.6499    0.3683 O   0  0  0  0  0  0  0  0  0  0  0  0
    0.4694    2.6681   -0.9334 N   0  0  0  0  0  0  0  0  0  0  0  0
    1.2429    2.1346   -1.3189 H   0  0  0  0  0  0  0  0  0  0  0  0
    0.2539    4.0314   -1.4057 C   0  0  0  0  0  0  0  0  0  0  0  0
    0.2768    4.7359   -0.5675 H   0  0  0  0  0  0  0  0  0  0  0  0
    1.0373    4.3145   -2.1154 H   0  0  0  0  0  0  0  0  0  0  0  0
   -0.7150    4.1148   -1.9093 H   0  0  0  0  0  0  0  0  0  0  0  0
  1  2  1  0  0  0  0
  2  3  1  0  0  0  0
  2  4  1  0  0  0  0
  2  5  1  0  0  0  0
  5  6  2  0  0  0  0
  5  7  1  0  0  0  0
  7  8  1  0  0  0  0
  7  9  1  0  0  0  0
  9 10  1  0  0  0  0
  9 11  1  0  0  0  0
  9 21  1  0  0  0  0
 11 12  1  0  0  0  0
 11 13  1  0  0  0  0
 11 14  1  0  0  0  0
 14 15  1  0  0  0  0
 14 16  1  0  0  0  0
 14 17  1  0  0  0  0
 17 18  2  0  0  0  0
 17 19  1  0  0  0  0
 19 20  1  0  0  0  0
 21 22  2  0  0  0  0
 21 23  1  0  0  0  0
 23 24  1  0  0  0  0
 23 25  1  0  0  0  0
 25 26  1  0  0  0  0
 25 27  1  0  0  0  0
 25 28  1  0  0  0  0
M  END
$$$$

  -OEChem-01062216073D

 28 27  0     1  0  0  0  0  0999 V2000
   -3.4483   -2.7181    1.3452 H   0  0  0  0  0  0  0  0  0  0  0  0
   -3.3323   -1.7546    0.8407 C   0  0  0  0  0  0  0  0  0  0  0  0
   -4.0113   -1.0322    1.3002 H   0  0  0  0  0  0  0  0  0  0  0  0
   -3.5970   -1.8751   -0.2124 H   0  0  0  0  0  0  0  0  0  0  0  0
   -1.9007   -1.2690    0.9642 C   0  0  0  0  0  0  0  0  0  0  0  0
   -1.1150   -1.8841    1.6655 O   0  0  0  0  0  0  0  0  0  0  0  0
   -1.5406   -0.0726    0.3792 N   0  0  0  0  0  0  0  0  0  0  0  0
   -2.3055    0.5004    0.0279 H   0  0  0  0  0  0  0  0  0  0  0  0
   -0.2018    0.5469    0.3867 C   0  0  1  0  0  0  0  0  0  0  0  0
    0.2071    0.5300    1.4028 H   0  0  0  0  0  0  0  0  0  0  0  0
    0.8058   -0.1332   -0.5848 C   0  0  0  0  0  0  0  0  0  0  0  0
    0.3651   -0.1329   -1.5884 H   0  0  0  0  0  0  0  0  0  0  0  0
    1.7201    0.4702   -0.6145 H   0  0  0  0  0  0  0  0  0  0  0  0
    1.2366   -1.5749   -0.2477 C   0  0  0  0  0  0  0  0  0  0  0  0
    1.6865   -1.6053    0.7486 H   0  0  0  0  0  0  0  0  0  0  0  0
    0.3666   -2.2311   -0.2481 H   0  0  0  0  0  0  0  0  0  0  0  0
    2.2111   -2.1750   -1.2624 C   0  0  0  0  0  0  0  0  0  0  0  0
    2.4700   -1.5653   -2.2890 O   0  0  0  0  0  0  0  0  0  0  0  0
    2.7461   -3.3794   -0.9586 O   0  0  0  0  0  0  0  0  0  0  0  0
    3.3284   -3.6101   -1.6976 H   0  0  0  0  0  0  0  0  0  0  0  0
   -0.3691    2.0313   -0.0416 C   0  0  0  0  0  0  0  0  0  0  0  0
   -1.1959    2.7213    0.5404 O   0  0  0  0  0  0  0  0  0  0  0  0
    0.2487    2.5755   -1.1569 N   0  0  0  0  0  0  0  0  0  0  0  0
    0.8854    1.9808   -1.6795 H   0  0  0  0  0  0  0  0  0  0  0  0
    0.0199    3.9389   -1.6218 C   0  0  0  0  0  0  0  0  0  0  0  0
    0.3104    4.6605   -0.8510 H   0  0  0  0  0  0  0  0  0  0  0  0
    0.6120    4.1366   -2.5205 H   0  0  0  0  0  0  0  0  0  0  0  0
   -1.0372    4.0896   -1.8647 H   0  0  0  0  0  0  0  0  0  0  0  0
  1  2  1  0  0  0  0
  2  3  1  0  0  0  0
  2  4  1  0  0  0  0
  2  5  1  0  0  0  0
  5  6  2  0  0  0  0
  5  7  1  0  0  0  0
  7  8  1  0  0  0  0
  7  9  1  0  0  0  0
  9 10  1  0  0  0  0
  9 11  1  0  0  0  0
  9 21  1  0  0  0  0
 11 12  1  0  0  0  0
 11 13  1  0  0  0  0
 11 14  1  0  0  0  0
 14 15  1  0  0  0  0
 14 16  1  0  0  0  0
 14 17  1  0  0  0  0
 17 18  2  0  0  0  0
 17 19  1  0  0  0  0
 19 20  1  0  0  0  0
 21 22  2  0  0  0  0
 21 23  1  0  0  0  0
 23 24  1  0  0  0  0
 23 25  1  0  0  0  0
 25 26  1  0  0  0  0
 25 27  1  0  0  0  0
 25 28  1  0  0  0  0
M  END
$$$$

  -OEChem-01062216073D

 28 27  0     1  0  0  0  0  0999 V2000
   -3.4201   -2.7484    1.3630 H   0  0  0  0  0  0  0  0  0  0  0  0
   -3.3214   -1.7851    0.8544 C   0  0  0  0  0  0  0  0  0  0  0  0
   -4.0181   -1.0751    1.3067 H   0  0  0  0  0  0  0  0  0  0  0  0
   -3.5774   -1.9166   -0.1996 H   0  0  0  0  0  0  0  0  0  0  0  0
   -1.9008   -1.2690    0.9834 C   0  0  0  0  0  0  0  0  0  0  0  0
   -1.1070   -1.8635    1.6929 O   0  0  0  0  0  0  0  0  0  0  0  0
   -1.5584   -0.0735    0.3850 N   0  0  0  0  0  0  0  0  0  0  0  0
   -2.3268    0.4645   -0.0087 H   0  0  0  0  0  0  0  0  0  0  0  0
   -0.2234    0.5552    0.3731 C   0  0  1  0  0  0  0  0  0  0  0  0
    0.1944    0.5465    1.3859 H   0  0  0  0  0  0  0  0  0  0  0  0
    0.7820   -0.1266   -0.5985 C   0  0  0  0  0  0  0  0  0  0  0  0
    0.3306   -0.1512   -1.5964 H   0  0  0  0  0  0  0  0  0  0  0  0
    1.6854    0.4923   -0.6502 H   0  0  0  0  0  0  0  0  0  0  0  0
    1.2282   -1.5607   -0.2479 C   0  0  0  0  0  0  0  0  0  0  0  0
    1.6884   -1.5736    0.7442 H   0  0  0  0  0  0  0  0  0  0  0  0
    0.3644   -2.2249   -0.2304 H   0  0  0  0  0  0  0  0  0  0  0  0
    2.1997   -2.1644   -1.2637 C   0  0  0  0  0  0  0  0  0  0  0  0
    2.4446   -1.5645   -2.2995 O   0  0  0  0  0  0  0  0  0  0  0  0
    2.7465   -3.3613   -0.9515 O   0  0  0  0  0  0  0  0  0  0  0  0
    3.3260   -3.5942   -1.6921 H   0  0  0  0  0  0  0  0  0  0  0  0
   -0.3873    2.0353   -0.0612 C   0  0  0  0  0  0  0  0  0  0  0  0
   -0.9874    2.8034    0.6774 O   0  0  0  0  0  0  0  0  0  0  0  0
   -0.0360    2.4931   -1.3215 N   0  0  0  0  0  0  0  0  0  0  0  0
    0.4399    1.8443   -1.9421 H   0  0  0  0  0  0  0  0  0  0  0  0
   -0.2465    3.8661   -1.7665 C   0  0  0  0  0  0  0  0  0  0  0  0
    0.2940    4.5653   -1.1196 H   0  0  0  0  0  0  0  0  0  0  0  0
    0.1166    3.9920   -2.7910 H   0  0  0  0  0  0  0  0  0  0  0  0
   -1.3122    4.1179   -1.7447 H   0  0  0  0  0  0  0  0  0  0  0  0
  1  2  1  0  0  0  0
  2  3  1  0  0  0  0
  2  4  1  0  0  0  0
  2  5  1  0  0  0  0
  5  6  2  0  0  0  0
  5  7  1  0  0  0  0
  7  8  1  0  0  0  0
  7  9  1  0  0  0  0
  9 10  1  0  0  0  0
  9 11  1  0  0  0  0
  9 21  1  0  0  0  0
 11 12  1  0  0  0  0
 11 13  1  0  0  0  0
 11 14  1  0  0  0  0
 14 15  1  0  0  0  0
 14 16  1  0  0  0  0
 14 17  1  0  0  0  0
 17 18  2  0  0  0  0
 17 19  1  0  0  0  0
 19 20  1  0  0  0  0
 21 22  2  0  0  0  0
 21 23  1  0  0  0  0
 23 24  1  0  0  0  0
 23 25  1  0  0  0  0
 25 26  1  0  0  0  0
 25 27  1  0  0  0  0
 25 28  1  0  0  0  0
M  END
$$$$

  -OEChem-01062216073D

 28 27  0     1  0  0  0  0  0999 V2000
   -3.3891   -2.7851    1.3751 H   0  0  0  0  0  0  0  0  0  0  0  0
   -3.3088   -1.8208    0.8653 C   0  0  0  0  0  0  0  0  0  0  0  0
   -4.0259   -1.1266    1.3102 H   0  0  0  0  0  0  0  0  0  0  0  0
   -3.5526   -1.9603   -0.1905 H   0  0  0  0  0  0  0  0  0  0  0  0
   -1.9017   -1.2718    1.0061 C   0  0  0  0  0  0  0  0  0  0  0  0
   -1.1013   -1.8451    1.7253 O   0  0  0  0  0  0  0  0  0  0  0  0
   -1.5769   -0.0757    0.3983 N   0  0  0  0  0  0  0  0  0  0  0  0
   -2.3444    0.4228   -0.0446 H   0  0  0  0  0  0  0  0  0  0  0  0
   -0.2460    0.5626    0.3716 C   0  0  1  0  0  0  0  0  0  0  0  0
    0.1804    0.5563    1.3813 H   0  0  0  0  0  0  0  0  0  0  0  0
    0.7565   -0.1124   -0.6064 C   0  0  0  0  0  0  0  0  0  0  0  0
    0.2984   -0.1490   -1.6004 H   0  0  0  0  0  0  0  0  0  0  0  0
    1.6513    0.5178   -0.6715 H   0  0  0  0  0  0  0  0  0  0  0  0
    1.2149   -1.5417   -0.2505 C   0  0  0  0  0  0  0  0  0  0  0  0
    1.6839   -1.5436    0.7376 H   0  0  0  0  0  0  0  0  0  0  0  0
    0.3558   -2.2116   -0.2193 H   0  0  0  0  0  0  0  0  0  0  0  0
    2.1830   -2.1462   -1.2690 C   0  0  0  0  0  0  0  0  0  0  0  0
    2.4169   -1.5517   -2.3103 O   0  0  0  0  0  0  0  0  0  0  0  0
    2.7381   -3.3386   -0.9538 O   0  0  0  0  0  0  0  0  0  0  0  0
    3.3158   -3.5714   -1.6959 H   0  0  0  0  0  0  0  0  0  0  0  0
   -0.4077    2.0395   -0.0654 C   0  0  0  0  0  0  0  0  0  0  0  0
   -0.7189    2.8785    0.7668 O   0  0  0  0  0  0  0  0  0  0  0  0
   -0.3546    2.4257   -1.3950 N   0  0  0  0  0  0  0  0  0  0  0  0
   -0.0825    1.7237   -2.0770 H   0  0  0  0  0  0  0  0  0  0  0  0
   -0.5392    3.8031   -1.8380 C   0  0  0  0  0  0  0  0  0  0  0  0
    0.2101    4.4572   -1.3794 H   0  0  0  0  0  0  0  0  0  0  0  0
   -0.4356    3.8685   -2.9253 H   0  0  0  0  0  0  0  0  0  0  0  0
   -1.5363    4.1639   -1.5641 H   0  0  0  0  0  0  0  0  0  0  0  0
  1  2  1  0  0  0  0
  2  3  1  0  0  0  0
  2  4  1  0  0  0  0
  2  5  1  0  0  0  0
  5  6  2  0  0  0  0
  5  7  1  0  0  0  0
  7  8  1  0  0  0  0
  7  9  1  0  0  0  0
  9 10  1  0  0  0  0
  9 11  1  0  0  0  0
  9 21  1  0  0  0  0
 11 12  1  0  0  0  0
 11 13  1  0  0  0  0
 11 14  1  0  0  0  0
 14 15  1  0  0  0  0
 14 16  1  0  0  0  0
 14 17  1  0  0  0  0
 17 18  2  0  0  0  0
 17 19  1  0  0  0  0
 19 20  1  0  0  0  0
 21 22  2  0  0  0  0
 21 23  1  0  0  0  0
 23 24  1  0  0  0  0
 23 25  1  0  0  0  0
 25 26  1  0  0  0  0
 25 27  1  0  0  0  0
 25 28  1  0  0  0  0
M  END
$$$$

  -OEChem-01062216073D

 28 27  0     1  0  0  0  0  0999 V2000
   -3.3748   -2.8127    1.3905 H   0  0  0  0  0  0  0  0  0  0  0  0
   -3.3058   -1.8486    0.8784 C   0  0  0  0  0  0  0  0  0  0  0  0
   -4.0353   -1.1640    1.3179 H   0  0  0  0  0  0  0  0  0  0  0  0
   -3.5421   -1.9948   -0.1781 H   0  0  0  0  0  0  0  0  0  0  0  0
   -1.9073   -1.2789    1.0246 C   0  0  0  0  0  0  0  0  0  0  0  0
   -1.1009   -1.8398    1.7463 O   0  0  0  0  0  0  0  0  0  0  0  0
   -1.5946   -0.0813    0.4129 N   0  0  0  0  0  0  0  0  0  0  0  0
   -2.3606    0.3941   -0.0564 H   0  0  0  0  0  0  0  0  0  0  0  0
   -0.2665    0.5643    0.3837 C   0  0  1  0  0  0  0  0  0  0  0  0
    0.1647    0.5561    1.3918 H   0  0  0  0  0  0  0  0  0  0  0  0
    0.7357   -0.0941   -0.6037 C   0  0  0  0  0  0  0  0  0  0  0  0
    0.2786   -0.1223   -1.5980 H   0  0  0  0  0  0  0  0  0  0  0  0
    1.6258    0.5431   -0.6653 H   0  0  0  0  0  0  0  0  0  0  0  0
    1.2018   -1.5231   -0.2574 C   0  0  0  0  0  0  0  0  0  0  0  0
    1.6748   -1.5279    0.7288 H   0  0  0  0  0  0  0  0  0  0  0  0
    0.3451   -2.1964   -0.2253 H   0  0  0  0  0  0  0  0  0  0  0  0
    2.1699   -2.1180   -1.2814 C   0  0  0  0  0  0  0  0  0  0  0  0
    2.3988   -1.5178   -2.3203 O   0  0  0  0  0  0  0  0  0  0  0  0
    2.7311   -3.3093   -0.9731 O   0  0  0  0  0  0  0  0  0  0  0  0
    3.3105   -3.5337   -1.7164 H   0  0  0  0  0  0  0  0  0  0  0  0
   -0.4287    2.0379   -0.0545 C   0  0  0  0  0  0  0  0  0  0  0  0
   -0.4244    2.9264    0.7842 O   0  0  0  0  0  0  0  0  0  0  0  0
   -0.6803    2.3723   -1.3748 N   0  0  0  0  0  0  0  0  0  0  0  0
   -0.6254    1.6285   -2.0641 H   0  0  0  0  0  0  0  0  0  0  0  0
   -0.8417    3.7472   -1.8335 C   0  0  0  0  0  0  0  0  0  0  0  0
    0.0555    4.3343   -1.6102 H   0  0  0  0  0  0  0  0  0  0  0  0
   -1.0088    3.7692   -2.9147 H   0  0  0  0  0  0  0  0  0  0  0  0
   -1.7008    4.2166   -1.3424 H   0  0  0  0  0  0  0  0  0  0  0  0
  1  2  1  0  0  0  0
  2  3  1  0  0  0  0
  2  4  1  0  0  0  0
  2  5  1  0  0  0  0
  5  6  2  0  0  0  0
  5  7  1  0  0  0  0
  7  8  1  0  0  0  0
  7  9  1  0  0  0  0
  9 10  1  0  0  0  0
  9 11  1  0  0  0  0
  9 21  1  0  0  0  0
 11 12  1  0  0  0  0
 11 13  1  0  0  0  0
 11 14  1  0  0  0  0
 14 15  1  0  0  0  0
 14 16  1  0  0  0  0
 14 17  1  0  0  0  0
 17 18  2  0  0  0  0
 17 19  1  0  0  0  0
 19 20  1  0  0  0  0
 21 22  2  0  0  0  0
 21 23  1  0  0  0  0
 23 24  1  0  0  0  0
 23 25  1  0  0  0  0
 25 26  1  0  0  0  0
 25 27  1  0  0  0  0
 25 28  1  0  0  0  0
M  END
$$$$

  -OEChem-01062216073D

 28 27  0     1  0  0  0  0  0999 V2000
   -3.3706   -2.8355    1.4098 H   0  0  0  0  0  0  0  0  0  0  0  0
   -3.3067   -1.8730    0.8941 C   0  0  0  0  0  0  0  0  0  0  0  0
   -4.0402   -1.1910    1.3307 H   0  0  0  0  0  0  0  0  0  0  0  0
   -3.5415   -2.0243   -0.1620 H   0  0  0  0  0  0  0  0  0  0  0  0
   -1.9118   -1.2947    1.0392 C   0  0  0  0  0  0  0  0  0  0  0  0
   -1.1001   -1.8503    1.7588 O   0  0  0  0  0  0  0  0  0  0  0  0
   -1.6092   -0.0946    0.4272 N   0  0  0  0  0  0  0  0  0  0  0  0
   -2.3802    0.3775   -0.0366 H   0  0  0  0  0  0  0  0  0  0  0  0
   -0.2858    0.5616    0.4052 C   0  0  1  0  0  0  0  0  0  0  0  0
    0.1463    0.5496    1.4129 H   0  0  0  0  0  0  0  0  0  0  0  0
    0.7163   -0.0747   -0.5942 C   0  0  0  0  0  0  0  0  0  0  0  0
    0.2606   -0.0844   -1.5898 H   0  0  0  0  0  0  0  0  0  0  0  0
    1.6041    0.5672   -0.6448 H   0  0  0  0  0  0  0  0  0  0  0  0
    1.1883   -1.5059   -0.2655 C   0  0  0  0  0  0  0  0  0  0  0  0
    1.6631   -1.5198    0.7197 H   0  0  0  0  0  0  0  0  0  0  0  0
    0.3343   -2.1828   -0.2390 H   0  0  0  0  0  0  0  0  0  0  0  0
    2.1569   -2.0857   -1.2970 C   0  0  0  0  0  0  0  0  0  0  0  0
    2.3832   -1.4743   -2.3296 O   0  0  0  0  0  0  0  0  0  0  0  0
    2.7223   -3.2781   -1.0014 O   0  0  0  0  0  0  0  0  0  0  0  0
    3.3052   -3.4891   -1.7458 H   0  0  0  0  0  0  0  0  0  0  0  0
   -0.4499    2.0326   -0.0338 C   0  0  0  0  0  0  0  0  0  0  0  0
   -0.1501    2.9394    0.7279 O   0  0  0  0  0  0  0  0  0  0  0  0
   -0.9909    2.3435   -1.2702 N   0  0  0  0  0  0  0  0  0  0  0  0
   -1.1256    1.5780   -1.9238 H   0  0  0  0  0  0  0  0  0  0  0  0
   -1.1299    3.7129   -1.7525 C   0  0  0  0  0  0  0  0  0  0  0  0
   -0.1536    4.2077   -1.7912 H   0  0  0  0  0  0  0  0  0  0  0  0
   -1.5608    3.7193   -2.7582 H   0  0  0  0  0  0  0  0  0  0  0  0
   -1.7884    4.2864   -1.0915 H   0  0  0  0  0  0  0  0  0  0  0  0
  1  2  1  0  0  0  0
  2  3  1  0  0  0  0
  2  4  1  0  0  0  0
  2  5  1  0  0  0  0
  5  6  2  0  0  0  0
  5  7  1  0  0  0  0
  7  8  1  0  0  0  0
  7  9  1  0  0  0  0
  9 10  1  0  0  0  0
  9 11  1  0  0  0  0
  9 21  1  0  0  0  0
 11 12  1  0  0  0  0
 11 13  1  0  0  0  0
 11 14  1  0  0  0  0
 14 15  1  0  0  0  0
 14 16  1  0  0  0  0
 14 17  1  0  0  0  0
 17 18  2  0  0  0  0
 17 19  1  0  0  0  0
 19 20  1  0  0  0  0
 21 22  2  0  0  0  0
 21 23  1  0  0  0  0
 23 24  1  0  0  0  0
 23 25  1  0  0  0  0
 25 26  1  0  0  0  0
 25 27  1  0  0  0  0
 25 28  1  0  0  0  0
M  END
$$$$

  -OEChem-01062216073D

 28 27  0     1  0  0  0  0  0999 V2000
   -3.3714   -2.8625    1.4459 H   0  0  0  0  0  0  0  0  0  0  0  0
   -3.3126   -1.9082    0.9145 C   0  0  0  0  0  0  0  0  0  0  0  0
   -4.0483   -1.2224    1.3418 H   0  0  0  0  0  0  0  0  0  0  0  0
   -3.5487   -2.0781   -0.1387 H   0  0  0  0  0  0  0  0  0  0  0  0
   -1.9196   -1.3225    1.0471 C   0  0  0  0  0  0  0  0  0  0  0  0
   -1.0994   -1.8756    1.7588 O   0  0  0  0  0  0  0  0  0  0  0  0
   -1.6292   -0.1174    0.4380 N   0  0  0  0  0  0  0  0  0  0  0  0
   -2.4127    0.3642    0.0069 H   0  0  0  0  0  0  0  0  0  0  0  0
   -0.3120    0.5550    0.4294 C   0  0  1  0  0  0  0  0  0  0  0  0
    0.1180    0.5380    1.4377 H   0  0  0  0  0  0  0  0  0  0  0  0
    0.6943   -0.0597   -0.5787 C   0  0  0  0  0  0  0  0  0  0  0  0
    0.2371   -0.0545   -1.5740 H   0  0  0  0  0  0  0  0  0  0  0  0
    1.5779    0.5886   -0.6205 H   0  0  0  0  0  0  0  0  0  0  0  0
    1.1781   -1.4915   -0.2701 C   0  0  0  0  0  0  0  0  0  0  0  0
    1.6550   -1.5137    0.7141 H   0  0  0  0  0  0  0  0  0  0  0  0
    0.3295   -2.1754   -0.2504 H   0  0  0  0  0  0  0  0  0  0  0  0
    2.1509   -2.0506   -1.3096 C   0  0  0  0  0  0  0  0  0  0  0  0
    2.3729   -1.4248   -2.3345 O   0  0  0  0  0  0  0  0  0  0  0  0
    2.7232   -3.2440   -1.0305 O   0  0  0  0  0  0  0  0  0  0  0  0
    3.3072   -3.4413   -1.7779 H   0  0  0  0  0  0  0  0  0  0  0  0
   -0.4707    2.0269   -0.0077 C   0  0  0  0  0  0  0  0  0  0  0  0
    0.0848    2.9176    0.6173 O   0  0  0  0  0  0  0  0  0  0  0  0
   -1.2640    2.3562   -1.0947 N   0  0  0  0  0  0  0  0  0  0  0  0
   -1.5574    1.5915   -1.6944 H   0  0  0  0  0  0  0  0  0  0  0  0
   -1.3757    3.7200   -1.6006 C   0  0  0  0  0  0  0  0  0  0  0  0
   -0.3998    4.0847   -1.9383 H   0  0  0  0  0  0  0  0  0  0  0  0
   -2.0710    3.7560   -2.4448 H   0  0  0  0  0  0  0  0  0  0  0  0
   -1.7497    4.3899   -0.8188 H   0  0  0  0  0  0  0  0  0  0  0  0
  1  2  1  0  0  0  0
  2  3  1  0  0  0  0
  2  4  1  0  0  0  0
  2  5  1  0  0  0  0
  5  6  2  0  0  0  0
  5  7  1  0  0  0  0
  7  8  1  0  0  0  0
  7  9  1  0  0  0  0
  9 10  1  0  0  0  0
  9 11  1  0  0  0  0
  9 21  1  0  0  0  0
 11 12  1  0  0  0  0
 11 13  1  0  0  0  0
 11 14  1  0  0  0  0
 14 15  1  0  0  0  0
 14 16  1  0  0  0  0
 14 17  1  0  0  0  0
 17 18  2  0  0  0  0
 17 19  1  0  0  0  0
 19 20  1  0  0  0  0
 21 22  2  0  0  0  0
 21 23  1  0  0  0  0
 23 24  1  0  0  0  0
 23 25  1  0  0  0  0
 25 26  1  0  0  0  0
 25 27  1  0  0  0  0
 25 28  1  0  0  0  0
M  END
$$$$

  -OEChem-01062216073D

 28 27  0     1  0  0  0  0  0999 V2000
   -3.3373   -2.9105    1.4448 H   0  0  0  0  0  0  0  0  0  0  0  0
   -3.2956   -1.9495    0.9240 C   0  0  0  0  0  0  0  0  0  0  0  0
   -4.0440   -1.2822    1.3584 H   0  0  0  0  0  0  0  0  0  0  0  0
   -3.5283   -2.1125   -0.1311 H   0  0  0  0  0  0  0  0  0  0  0  0
   -1.9132   -1.3404    1.0635 C   0  0  0  0  0  0  0  0  0  0  0  0
   -1.0898   -1.8751    1.7853 O   0  0  0  0  0  0  0  0  0  0  0  0
   -1.6378   -0.1341    0.4494 N   0  0  0  0  0  0  0  0  0  0  0  0
   -2.4298    0.3394    0.0273 H   0  0  0  0  0  0  0  0  0  0  0  0
   -0.3269    0.5532    0.4436 C   0  0  1  0  0  0  0  0  0  0  0  0
    0.1054    0.5358    1.4508 H   0  0  0  0  0  0  0  0  0  0  0  0
    0.6745   -0.0587   -0.5712 C   0  0  0  0  0  0  0  0  0  0  0  0
    0.2101   -0.0513   -1.5634 H   0  0  0  0  0  0  0  0  0  0  0  0
    1.5572    0.5907   -0.6191 H   0  0  0  0  0  0  0  0  0  0  0  0
    1.1657   -1.4894   -0.2673 C   0  0  0  0  0  0  0  0  0  0  0  0
    1.6492   -1.5100    0.7134 H   0  0  0  0  0  0  0  0  0  0  0  0
    0.3201   -2.1767   -0.2423 H   0  0  0  0  0  0  0  0  0  0  0  0
    2.1332   -2.0448   -1.3136 C   0  0  0  0  0  0  0  0  0  0  0  0
    2.3465   -1.4184   -2.3398 O   0  0  0  0  0  0  0  0  0  0  0  0
    2.7137   -3.2347   -1.0369 O   0  0  0  0  0  0  0  0  0  0  0  0
    3.2969   -3.4265   -1.7863 H   0  0  0  0  0  0  0  0  0  0  0  0
   -0.4729    2.0270    0.0027 C   0  0  0  0  0  0  0  0  0  0  0  0
    0.2775    2.8768    0.4590 O   0  0  0  0  0  0  0  0  0  0  0  0
   -1.4707    2.4146   -0.8775 N   0  0  0  0  0  0  0  0  0  0  0  0
   -1.9241    1.6761   -1.4042 H   0  0  0  0  0  0  0  0  0  0  0  0
   -1.5911    3.7843   -1.3658 C   0  0  0  0  0  0  0  0  0  0  0  0
   -0.6820    4.0835   -1.8984 H   0  0  0  0  0  0  0  0  0  0  0  0
   -2.4391    3.8695   -2.0520 H   0  0  0  0  0  0  0  0  0  0  0  0
   -1.7529    4.4754   -0.5315 H   0  0  0  0  0  0  0  0  0  0  0  0
  1  2  1  0  0  0  0
  2  3  1  0  0  0  0
  2  4  1  0  0  0  0
  2  5  1  0  0  0  0
  5  6  2  0  0  0  0
  5  7  1  0  0  0  0
  7  8  1  0  0  0  0
  7  9  1  0  0  0  0
  9 10  1  0  0  0  0
  9 11  1  0  0  0  0
  9 21  1  0  0  0  0
 11 12  1  0  0  0  0
 11 13  1  0  0  0  0
 11 14  1  0  0  0  0
 14 15  1  0  0  0  0
 14 16  1  0  0  0  0
 14 17  1  0  0  0  0
 17 18  2  0  0  0  0
 17 19  1  0  0  0  0
 19 20  1  0  0  0  0
 21 22  2  0  0  0  0
 21 23  1  0  0  0  0
 23 24  1  0  0  0  0
 23 25  1  0  0  0  0
 25 26  1  0  0  0  0
 25 27  1  0  0  0  0
 25 28  1  0  0  0  0
M  END
$$$$

  -OEChem-01062216073D

 28 27  0     1  0  0  0  0  0999 V2000
   -3.0829   -3.0279    1.3656 H   0  0  0  0  0  0  0  0  0  0  0  0
   -3.0991   -2.0900    0.8030 C   0  0  0  0  0  0  0  0  0  0  0  0
   -4.0027   -1.5363    1.0695 H   0  0  0  0  0  0  0  0  0  0  0  0
   -3.1207   -2.3229   -0.2643 H   0  0  0  0  0  0  0  0  0  0  0  0
   -1.8695   -1.2649    1.1320 C   0  0  0  0  0  0  0  0  0  0  0  0
   -1.1026   -1.6403    2.0018 O   0  0  0  0  0  0  0  0  0  0  0  0
   -1.6535   -0.0662    0.4806 N   0  0  0  0  0  0  0  0  0  0  0  0
   -2.2782    0.0890   -0.3031 H   0  0  0  0  0  0  0  0  0  0  0  0
   -0.3360    0.6098    0.4201 C   0  0  1  0  0  0  0  0  0  0  0  0
    0.1233    0.6085    1.4153 H   0  0  0  0  0  0  0  0  0  0  0  0
    0.6250   -0.0699   -0.5937 C   0  0  0  0  0  0  0  0  0  0  0  0
    0.1341   -0.0960   -1.5728 H   0  0  0  0  0  0  0  0  0  0  0  0
    1.5222    0.5520   -0.6982 H   0  0  0  0  0  0  0  0  0  0  0  0
    1.0938   -1.4950   -0.2267 C   0  0  0  0  0  0  0  0  0  0  0  0
    1.6070   -1.4713    0.7390 H   0  0  0  0  0  0  0  0  0  0  0  0
    0.2383   -2.1636   -0.1364 H   0  0  0  0  0  0  0  0  0  0  0  0
    2.0200   -2.1282   -1.2658 C   0  0  0  0  0  0  0  0  0  0  0  0
    2.2203   -1.5646   -2.3298 O   0  0  0  0  0  0  0  0  0  0  0  0
    2.5765   -3.3170   -0.9399 O   0  0  0  0  0  0  0  0  0  0  0  0
    3.1362   -3.5632   -1.6915 H   0  0  0  0  0  0  0  0  0  0  0  0
   -0.4585    2.0869   -0.0297 C   0  0  0  0  0  0  0  0  0  0  0  0
    0.5062    2.8333    0.0595 O   0  0  0  0  0  0  0  0  0  0  0  0
   -1.6161    2.5740   -0.6147 N   0  0  0  0  0  0  0  0  0  0  0  0
   -2.4526    2.0131   -0.5083 H   0  0  0  0  0  0  0  0  0  0  0  0
   -1.7625    3.9654   -1.0291 C   0  0  0  0  0  0  0  0  0  0  0  0
   -0.9864    4.2331   -1.7541 H   0  0  0  0  0  0  0  0  0  0  0  0
   -2.7386    4.1209   -1.4987 H   0  0  0  0  0  0  0  0  0  0  0  0
   -1.6811    4.6335   -0.1652 H   0  0  0  0  0  0  0  0  0  0  0  0
  1  2  1  0  0  0  0
  2  3  1  0  0  0  0
  2  4  1  0  0  0  0
  2  5  1  0  0  0  0
  5  6  2  0  0  0  0
  5  7  1  0  0  0  0
  7  8  1  0  0  0  0
  7  9  1  0  0  0  0
  9 10  1  0  0  0  0
  9 11  1  0  0  0  0
  9 21  1  0  0  0  0
 11 12  1  0  0  0  0
 11 13  1  0  0  0  0
 11 14  1  0  0  0  0
 14 15  1  0  0  0  0
 14 16  1  0  0  0  0
 14 17  1  0  0  0  0
 17 18  2  0  0  0  0
 17 19  1  0  0  0  0
 19 20  1  0  0  0  0
 21 22  2  0  0  0  0
 21 23  1  0  0  0  0
 23 24  1  0  0  0  0
 23 25  1  0  0  0  0
 25 26  1  0  0  0  0
 25 27  1  0  0  0  0
 25 28  1  0  0  0  0
M  END
$$$$

  -OEChem-01062216073D

 28 27  0     1  0  0  0  0  0999 V2000
   -3.1024   -2.9938    1.3621 H   0  0  0  0  0  0  0  0  0  0  0  0
   -3.0857   -2.0749    0.7689 C   0  0  0  0  0  0  0  0  0  0  0  0
   -3.9928   -1.5038    0.9804 H   0  0  0  0  0  0  0  0  0  0  0  0
   -3.0682   -2.3422   -0.2904 H   0  0  0  0  0  0  0  0  0  0  0  0
   -1.8606   -1.2516    1.1180 C   0  0  0  0  0  0  0  0  0  0  0  0
   -1.1075   -1.6251    2.0007 O   0  0  0  0  0  0  0  0  0  0  0  0
   -1.6347   -0.0511    0.4739 N   0  0  0  0  0  0  0  0  0  0  0  0
   -2.2505    0.1109   -0.3174 H   0  0  0  0  0  0  0  0  0  0  0  0
   -0.3128    0.6164    0.4137 C   0  0  1  0  0  0  0  0  0  0  0  0
    0.1472    0.6158    1.4083 H   0  0  0  0  0  0  0  0  0  0  0  0
    0.6430   -0.0760   -0.5994 C   0  0  0  0  0  0  0  0  0  0  0  0
    0.1524   -0.0990   -1.5786 H   0  0  0  0  0  0  0  0  0  0  0  0
    1.5477    0.5342   -0.7055 H   0  0  0  0  0  0  0  0  0  0  0  0
    1.0991   -1.5042   -0.2271 C   0  0  0  0  0  0  0  0  0  0  0  0
    1.6118   -1.4818    0.7388 H   0  0  0  0  0  0  0  0  0  0  0  0
    0.2377   -2.1648   -0.1349 H   0  0  0  0  0  0  0  0  0  0  0  0
    2.0194   -2.1515   -1.2628 C   0  0  0  0  0  0  0  0  0  0  0  0
    2.2263   -1.5958   -2.3296 O   0  0  0  0  0  0  0  0  0  0  0  0
    2.5596   -3.3466   -0.9322 O   0  0  0  0  0  0  0  0  0  0  0  0
    3.1132   -3.6045   -1.6844 H   0  0  0  0  0  0  0  0  0  0  0  0
   -0.4560    2.0956   -0.0300 C   0  0  0  0  0  0  0  0  0  0  0  0
    0.5302    2.8020   -0.1861 O   0  0  0  0  0  0  0  0  0  0  0  0
   -1.7014    2.6335   -0.3099 N   0  0  0  0  0  0  0  0  0  0  0  0
   -2.4981    2.1149    0.0440 H   0  0  0  0  0  0  0  0  0  0  0  0
   -1.8918    4.0356   -0.6655 C   0  0  0  0  0  0  0  0  0  0  0  0
   -1.3149    4.2858   -1.5624 H   0  0  0  0  0  0  0  0  0  0  0  0
   -2.9479    4.2344   -0.8715 H   0  0  0  0  0  0  0  0  0  0  0  0
   -1.5681    4.6862    0.1541 H   0  0  0  0  0  0  0  0  0  0  0  0
  1  2  1  0  0  0  0
  2  3  1  0  0  0  0
  2  4  1  0  0  0  0
  2  5  1  0  0  0  0
  5  6  2  0  0  0  0
  5  7  1  0  0  0  0
  7  8  1  0  0  0  0
  7  9  1  0  0  0  0
  9 10  1  0  0  0  0
  9 11  1  0  0  0  0
  9 21  1  0  0  0  0
 11 12  1  0  0  0  0
 11 13  1  0  0  0  0
 11 14  1  0  0  0  0
 14 15  1  0  0  0  0
 14 16  1  0  0  0  0
 14 17  1  0  0  0  0
 17 18  2  0  0  0  0
 17 19  1  0  0  0  0
 19 20  1  0  0  0  0
 21 22  2  0  0  0  0
 21 23  1  0  0  0  0
 23 24  1  0  0  0  0
 23 25  1  0  0  0  0
 25 26  1  0  0  0  0
 25 27  1  0  0  0  0
 25 28  1  0  0  0  0
M  END
$$$$

  -OEChem-01062216073D

 28 27  0     1  0  0  0  0  0999 V2000
   -3.1370   -2.9621    1.3505 H   0  0  0  0  0  0  0  0  0  0  0  0
   -3.1022   -2.0452    0.7549 C   0  0  0  0  0  0  0  0  0  0  0  0
   -3.9969   -1.4548    0.9665 H   0  0  0  0  0  0  0  0  0  0  0  0
   -3.0923   -2.3148   -0.3039 H   0  0  0  0  0  0  0  0  0  0  0  0
   -1.8589   -1.2468    1.0986 C   0  0  0  0  0  0  0  0  0  0  0  0
   -1.1078   -1.6350    1.9767 O   0  0  0  0  0  0  0  0  0  0  0  0
   -1.6196   -0.0436    0.4653 N   0  0  0  0  0  0  0  0  0  0  0  0
   -2.2512    0.1527   -0.3067 H   0  0  0  0  0  0  0  0  0  0  0  0
   -0.2943    0.6162    0.4013 C   0  0  1  0  0  0  0  0  0  0  0  0
    0.1665    0.6144    1.3951 H   0  0  0  0  0  0  0  0  0  0  0  0
    0.6616   -0.0839   -0.6084 C   0  0  0  0  0  0  0  0  0  0  0  0
    0.1725   -0.1089   -1.5882 H   0  0  0  0  0  0  0  0  0  0  0  0
    1.5698    0.5203   -0.7153 H   0  0  0  0  0  0  0  0  0  0  0  0
    1.1128   -1.5122   -0.2300 C   0  0  0  0  0  0  0  0  0  0  0  0
    1.6243   -1.4873    0.7364 H   0  0  0  0  0  0  0  0  0  0  0  0
    0.2494   -2.1699   -0.1368 H   0  0  0  0  0  0  0  0  0  0  0  0
    2.0328   -2.1675   -1.2609 C   0  0  0  0  0  0  0  0  0  0  0  0
    2.2442   -1.6183   -2.3299 O   0  0  0  0  0  0  0  0  0  0  0  0
    2.5705   -3.3613   -0.9216 O   0  0  0  0  0  0  0  0  0  0  0  0
    3.1265   -3.6235   -1.6706 H   0  0  0  0  0  0  0  0  0  0  0  0
   -0.4570    2.0982   -0.0321 C   0  0  0  0  0  0  0  0  0  0  0  0
    0.4895    2.7589   -0.4372 O   0  0  0  0  0  0  0  0  0  0  0  0
   -1.7043    2.6987    0.0085 N   0  0  0  0  0  0  0  0  0  0  0  0
   -2.4197    2.2012    0.5302 H   0  0  0  0  0  0  0  0  0  0  0  0
   -1.9159    4.1101   -0.2944 C   0  0  0  0  0  0  0  0  0  0  0  0
   -1.5700    4.3408   -1.3078 H   0  0  0  0  0  0  0  0  0  0  0  0
   -2.9802    4.3559   -0.2311 H   0  0  0  0  0  0  0  0  0  0  0  0
   -1.3701    4.7407    0.4154 H   0  0  0  0  0  0  0  0  0  0  0  0
  1  2  1  0  0  0  0
  2  3  1  0  0  0  0
  2  4  1  0  0  0  0
  2  5  1  0  0  0  0
  5  6  2  0  0  0  0
  5  7  1  0  0  0  0
  7  8  1  0  0  0  0
  7  9  1  0  0  0  0
  9 10  1  0  0  0  0
  9 11  1  0  0  0  0
  9 21  1  0  0  0  0
 11 12  1  0  0  0  0
 11 13  1  0  0  0  0
 11 14  1  0  0  0  0
 14 15  1  0  0  0  0
 14 16  1  0  0  0  0
 14 17  1  0  0  0  0
 17 18  2  0  0  0  0
 17 19  1  0  0  0  0
 19 20  1  0  0  0  0
 21 22  2  0  0  0  0
 21 23  1  0  0  0  0
 23 24  1  0  0  0  0
 23 25  1  0  0  0  0
 25 26  1  0  0  0  0
 25 27  1  0  0  0  0
 25 28  1  0  0  0  0
M  END
$$$$

  -OEChem-01062216073D

 28 27  0     1  0  0  0  0  0999 V2000
   -3.1161   -2.9761    1.2654 H   0  0  0  0  0  0  0  0  0  0  0  0
   -3.1165   -2.0148    0.7435 C   0  0  0  0  0  0  0  0  0  0  0  0
   -4.0007   -1.4492    1.0468 H   0  0  0  0  0  0  0  0  0  0  0  0
   -3.1613   -2.2007   -0.3323 H   0  0  0  0  0  0  0  0  0  0  0  0
   -1.8601   -1.2365    1.0850 C   0  0  0  0  0  0  0  0  0  0  0  0
   -1.1111   -1.6396    1.9584 O   0  0  0  0  0  0  0  0  0  0  0  0
   -1.6067   -0.0312    0.4622 N   0  0  0  0  0  0  0  0  0  0  0  0
   -2.2512    0.1997   -0.2897 H   0  0  0  0  0  0  0  0  0  0  0  0
   -0.2767    0.6169    0.4011 C   0  0  1  0  0  0  0  0  0  0  0  0
    0.1833    0.6101    1.3953 H   0  0  0  0  0  0  0  0  0  0  0  0
    0.6795   -0.0872   -0.6056 C   0  0  0  0  0  0  0  0  0  0  0  0
    0.1956   -0.1057   -1.5884 H   0  0  0  0  0  0  0  0  0  0  0  0
    1.5920    0.5123   -0.7046 H   0  0  0  0  0  0  0  0  0  0  0  0
    1.1209   -1.5189   -0.2282 C   0  0  0  0  0  0  0  0  0  0  0  0
    1.6269   -1.5005    0.7412 H   0  0  0  0  0  0  0  0  0  0  0  0
    0.2526   -2.1713   -0.1428 H   0  0  0  0  0  0  0  0  0  0  0  0
    2.0416   -2.1772   -1.2569 C   0  0  0  0  0  0  0  0  0  0  0  0
    2.2610   -1.6273   -2.3240 O   0  0  0  0  0  0  0  0  0  0  0  0
    2.5719   -3.3742   -0.9171 O   0  0  0  0  0  0  0  0  0  0  0  0
    3.1279   -3.6383   -1.6654 H   0  0  0  0  0  0  0  0  0  0  0  0
   -0.4516    2.1006   -0.0220 C   0  0  0  0  0  0  0  0  0  0  0  0
    0.3900    2.7050   -0.6725 O   0  0  0  0  0  0  0  0  0  0  0  0
   -1.6141    2.7688    0.3216 N   0  0  0  0  0  0  0  0  0  0  0  0
   -2.2318    2.2920    0.9727 H   0  0  0  0  0  0  0  0  0  0  0  0
   -1.8392    4.1820    0.0393 C   0  0  0  0  0  0  0  0  0  0  0  0
   -1.7642    4.3750   -1.0362 H   0  0  0  0  0  0  0  0  0  0  0  0
   -2.8376    4.4807    0.3727 H   0  0  0  0  0  0  0  0  0  0  0  0
   -1.0994    4.7992    0.5598 H   0  0  0  0  0  0  0  0  0  0  0  0
  1  2  1  0  0  0  0
  2  3  1  0  0  0  0
  2  4  1  0  0  0  0
  2  5  1  0  0  0  0
  5  6  2  0  0  0  0
  5  7  1  0  0  0  0
  7  8  1  0  0  0  0
  7  9  1  0  0  0  0
  9 10  1  0  0  0  0
  9 11  1  0  0  0  0
  9 21  1  0  0  0  0
 11 12  1  0  0  0  0
 11 13  1  0  0  0  0
 11 14  1  0  0  0  0
 14 15  1  0  0  0  0
 14 16  1  0  0  0  0
 14 17  1  0  0  0  0
 17 18  2  0  0  0  0
 17 19  1  0  0  0  0
 19 20  1  0  0  0  0
 21 22  2  0  0  0  0
 21 23  1  0  0  0  0
 23 24  1  0  0  0  0
 23 25  1  0  0  0  0
 25 26  1  0  0  0  0
 25 27  1  0  0  0  0
 25 28  1  0  0  0  0
M  END
$$$$

  -OEChem-01062216073D

 28 27  0     1  0  0  0  0  0999 V2000
   -3.1421   -2.9496    1.2551 H   0  0  0  0  0  0  0  0  0  0  0  0
   -3.1273   -1.9891    0.7319 C   0  0  0  0  0  0  0  0  0  0  0  0
   -4.0049   -1.4110    1.0308 H   0  0  0  0  0  0  0  0  0  0  0  0
   -3.1704   -2.1758   -0.3438 H   0  0  0  0  0  0  0  0  0  0  0  0
   -1.8616   -1.2278    1.0770 C   0  0  0  0  0  0  0  0  0  0  0  0
   -1.1158   -1.6447    1.9470 O   0  0  0  0  0  0  0  0  0  0  0  0
   -1.5964   -0.0199    0.4649 N   0  0  0  0  0  0  0  0  0  0  0  0
   -2.2468    0.2341   -0.2748 H   0  0  0  0  0  0  0  0  0  0  0  0
   -0.2622    0.6158    0.4053 C   0  0  1  0  0  0  0  0  0  0  0  0
    0.1982    0.6011    1.3990 H   0  0  0  0  0  0  0  0  0  0  0  0
    0.6938   -0.0872   -0.6018 C   0  0  0  0  0  0  0  0  0  0  0  0
    0.2118   -0.1017   -1.5856 H   0  0  0  0  0  0  0  0  0  0  0  0
    1.6062    0.5134   -0.6962 H   0  0  0  0  0  0  0  0  0  0  0  0
    1.1271   -1.5225   -0.2294 C   0  0  0  0  0  0  0  0  0  0  0  0
    1.6300   -1.5112    0.7416 H   0  0  0  0  0  0  0  0  0  0  0  0
    0.2551   -2.1706   -0.1492 H   0  0  0  0  0  0  0  0  0  0  0  0
    2.0482   -2.1813   -1.2571 C   0  0  0  0  0  0  0  0  0  0  0  0
    2.2747   -1.6289   -2.3211 O   0  0  0  0  0  0  0  0  0  0  0  0
    2.5700   -3.3828   -0.9201 O   0  0  0  0  0  0  0  0  0  0  0  0
    3.1247   -3.6482   -1.6688 H   0  0  0  0  0  0  0  0  0  0  0  0
   -0.4415    2.1014   -0.0046 C   0  0  0  0  0  0  0  0  0  0  0  0
    0.2272    2.6382   -0.8776 O   0  0  0  0  0  0  0  0  0  0  0  0
   -1.4352    2.8441    0.6073 N   0  0  0  0  0  0  0  0  0  0  0  0
   -1.9389    2.3949    1.3674 H   0  0  0  0  0  0  0  0  0  0  0  0
   -1.6726    4.2565    0.3321 C   0  0  0  0  0  0  0  0  0  0  0  0
   -1.9005    4.4076   -0.7284 H   0  0  0  0  0  0  0  0  0  0  0  0
   -2.5197    4.6202    0.9216 H   0  0  0  0  0  0  0  0  0  0  0  0
   -0.7895    4.8505    0.5906 H   0  0  0  0  0  0  0  0  0  0  0  0
  1  2  1  0  0  0  0
  2  3  1  0  0  0  0
  2  4  1  0  0  0  0
  2  5  1  0  0  0  0
  5  6  2  0  0  0  0
  5  7  1  0  0  0  0
  7  8  1  0  0  0  0
  7  9  1  0  0  0  0
  9 10  1  0  0  0  0
  9 11  1  0  0  0  0
  9 21  1  0  0  0  0
 11 12  1  0  0  0  0
 11 13  1  0  0  0  0
 11 14  1  0  0  0  0
 14 15  1  0  0  0  0
 14 16  1  0  0  0  0
 14 17  1  0  0  0  0
 17 18  2  0  0  0  0
 17 19  1  0  0  0  0
 19 20  1  0  0  0  0
 21 22  2  0  0  0  0
 21 23  1  0  0  0  0
 23 24  1  0  0  0  0
 23 25  1  0  0  0  0
 25 26  1  0  0  0  0
 25 27  1  0  0  0  0
 25 28  1  0  0  0  0
M  END
$$$$

  -OEChem-01062216073D

 28 27  0     1  0  0  0  0  0999 V2000
   -3.1929   -2.9094    1.2758 H   0  0  0  0  0  0  0  0  0  0  0  0
   -3.1459   -1.9642    0.7275 C   0  0  0  0  0  0  0  0  0  0  0  0
   -4.0116   -1.3555    0.9994 H   0  0  0  0  0  0  0  0  0  0  0  0
   -3.1803   -2.1784   -0.3434 H   0  0  0  0  0  0  0  0  0  0  0  0
   -1.8652   -1.2267    1.0686 C   0  0  0  0  0  0  0  0  0  0  0  0
   -1.1197   -1.6624    1.9300 O   0  0  0  0  0  0  0  0  0  0  0  0
   -1.5876   -0.0161    0.4681 N   0  0  0  0  0  0  0  0  0  0  0  0
   -2.2398    0.2591   -0.2625 H   0  0  0  0  0  0  0  0  0  0  0  0
   -0.2506    0.6102    0.4162 C   0  0  1  0  0  0  0  0  0  0  0  0
    0.2089    0.5833    1.4101 H   0  0  0  0  0  0  0  0  0  0  0  0
    0.7074   -0.0861   -0.5927 C   0  0  0  0  0  0  0  0  0  0  0  0
    0.2265   -0.0947   -1.5773 H   0  0  0  0  0  0  0  0  0  0  0  0
    1.6180    0.5178   -0.6821 H   0  0  0  0  0  0  0  0  0  0  0  0
    1.1342   -1.5258   -0.2318 C   0  0  0  0  0  0  0  0  0  0  0  0
    1.6325   -1.5252    0.7416 H   0  0  0  0  0  0  0  0  0  0  0  0
    0.2587   -2.1707   -0.1620 H   0  0  0  0  0  0  0  0  0  0  0  0
    2.0582   -2.1781   -1.2613 C   0  0  0  0  0  0  0  0  0  0  0  0
    2.2917   -1.6165   -2.3191 O   0  0  0  0  0  0  0  0  0  0  0  0
    2.5751   -3.3841   -0.9330 O   0  0  0  0  0  0  0  0  0  0  0  0
    3.1302   -3.6461   -1.6828 H   0  0  0  0  0  0  0  0  0  0  0  0
   -0.4241    2.0979    0.0184 C   0  0  0  0  0  0  0  0  0  0  0  0
    0.0222    2.5644   -1.0214 O   0  0  0  0  0  0  0  0  0  0  0  0
   -1.1822    2.9175    0.8341 N   0  0  0  0  0  0  0  0  0  0  0  0
   -1.5568    2.5051    1.6842 H   0  0  0  0  0  0  0  0  0  0  0  0
   -1.4314    4.3271    0.5559 C   0  0  0  0  0  0  0  0  0  0  0  0
   -1.9606    4.4425   -0.3958 H   0  0  0  0  0  0  0  0  0  0  0  0
   -2.0448    4.7671    1.3481 H   0  0  0  0  0  0  0  0  0  0  0  0
   -0.4873    4.8795    0.5025 H   0  0  0  0  0  0  0  0  0  0  0  0
  1  2  1  0  0  0  0
  2  3  1  0  0  0  0
  2  4  1  0  0  0  0
  2  5  1  0  0  0  0
  5  6  2  0  0  0  0
  5  7  1  0  0  0  0
  7  8  1  0  0  0  0
  7  9  1  0  0  0  0
  9 10  1  0  0  0  0
  9 11  1  0  0  0  0
  9 21  1  0  0  0  0
 11 12  1  0  0  0  0
 11 13  1  0  0  0  0
 11 14  1  0  0  0  0
 14 15  1  0  0  0  0
 14 16  1  0  0  0  0
 14 17  1  0  0  0  0
 17 18  2  0  0  0  0
 17 19  1  0  0  0  0
 19 20  1  0  0  0  0
 21 22  2  0  0  0  0
 21 23  1  0  0  0  0
 23 24  1  0  0  0  0
 23 25  1  0  0  0  0
 25 26  1  0  0  0  0
 25 27  1  0  0  0  0
 25 28  1  0  0  0  0
M  END
$$$$

  -OEChem-01062216073D

 28 27  0     1  0  0  0  0  0999 V2000
   -3.2240   -2.8875    1.2714 H   0  0  0  0  0  0  0  0  0  0  0  0
   -3.1629   -1.9429    0.7236 C   0  0  0  0  0  0  0  0  0  0  0  0
   -4.0194   -1.3215    0.9958 H   0  0  0  0  0  0  0  0  0  0  0  0
   -3.2004   -2.1556   -0.3476 H   0  0  0  0  0  0  0  0  0  0  0  0
   -1.8713   -1.2249    1.0650 C   0  0  0  0  0  0  0  0  0  0  0  0
   -1.1259   -1.6788    1.9174 O   0  0  0  0  0  0  0  0  0  0  0  0
   -1.5807   -0.0138    0.4723 N   0  0  0  0  0  0  0  0  0  0  0  0
   -2.2322    0.2798   -0.2521 H   0  0  0  0  0  0  0  0  0  0  0  0
   -0.2409    0.6026    0.4277 C   0  0  1  0  0  0  0  0  0  0  0  0
    0.2163    0.5627    1.4221 H   0  0  0  0  0  0  0  0  0  0  0  0
    0.7187   -0.0849   -0.5835 C   0  0  0  0  0  0  0  0  0  0  0  0
    0.2393   -0.0881   -1.5692 H   0  0  0  0  0  0  0  0  0  0  0  0
    1.6281    0.5213   -0.6674 H   0  0  0  0  0  0  0  0  0  0  0  0
    1.1380   -1.5292   -0.2333 C   0  0  0  0  0  0  0  0  0  0  0  0
    1.6307   -1.5402    0.7427 H   0  0  0  0  0  0  0  0  0  0  0  0
    0.2588   -2.1706   -0.1740 H   0  0  0  0  0  0  0  0  0  0  0  0
    2.0647   -2.1750   -1.2642 C   0  0  0  0  0  0  0  0  0  0  0  0
    2.3055   -1.6041   -2.3153 O   0  0  0  0  0  0  0  0  0  0  0  0
    2.5797   -3.3836   -0.9424 O   0  0  0  0  0  0  0  0  0  0  0  0
    3.1376   -3.6405   -1.6918 H   0  0  0  0  0  0  0  0  0  0  0  0
   -0.4005    2.0915    0.0371 C   0  0  0  0  0  0  0  0  0  0  0  0
   -0.2260    2.4890   -1.1075 O   0  0  0  0  0  0  0  0  0  0  0  0
   -0.8732    2.9842    0.9810 N   0  0  0  0  0  0  0  0  0  0  0  0
   -1.0804    2.6172    1.9060 H   0  0  0  0  0  0  0  0  0  0  0  0
   -1.1357    4.3909    0.6992 C   0  0  0  0  0  0  0  0  0  0  0  0
   -1.9132    4.4904   -0.0656 H   0  0  0  0  0  0  0  0  0  0  0  0
   -1.4741    4.9021    1.6055 H   0  0  0  0  0  0  0  0  0  0  0  0
   -0.2262    4.8865    0.3430 H   0  0  0  0  0  0  0  0  0  0  0  0
  1  2  1  0  0  0  0
  2  3  1  0  0  0  0
  2  4  1  0  0  0  0
  2  5  1  0  0  0  0
  5  6  2  0  0  0  0
  5  7  1  0  0  0  0
  7  8  1  0  0  0  0
  7  9  1  0  0  0  0
  9 10  1  0  0  0  0
  9 11  1  0  0  0  0
  9 21  1  0  0  0  0
 11 12  1  0  0  0  0
 11 13  1  0  0  0  0
 11 14  1  0  0  0  0
 14 15  1  0  0  0  0
 14 16  1  0  0  0  0
 14 17  1  0  0  0  0
 17 18  2  0  0  0  0
 17 19  1  0  0  0  0
 19 20  1  0  0  0  0
 21 22  2  0  0  0  0
 21 23  1  0  0  0  0
 23 24  1  0  0  0  0
 23 25  1  0  0  0  0
 25 26  1  0  0  0  0
 25 27  1  0  0  0  0
 25 28  1  0  0  0  0
M  END
$$$$

  -OEChem-01062216073D

 28 27  0     1  0  0  0  0  0999 V2000
   -3.2202   -2.8954    1.2305 H   0  0  0  0  0  0  0  0  0  0  0  0
   -3.1740   -1.9276    0.7233 C   0  0  0  0  0  0  0  0  0  0  0  0
   -4.0252   -1.3212    1.0420 H   0  0  0  0  0  0  0  0  0  0  0  0
   -3.2363   -2.0939   -0.3549 H   0  0  0  0  0  0  0  0  0  0  0  0
   -1.8764   -1.2210    1.0662 C   0  0  0  0  0  0  0  0  0  0  0  0
   -1.1327   -1.6848    1.9153 O   0  0  0  0  0  0  0  0  0  0  0  0
   -1.5737   -0.0127    0.4744 N   0  0  0  0  0  0  0  0  0  0  0  0
   -2.2213    0.2935   -0.2490 H   0  0  0  0  0  0  0  0  0  0  0  0
   -0.2319    0.5968    0.4393 C   0  0  1  0  0  0  0  0  0  0  0  0
    0.2206    0.5492    1.4355 H   0  0  0  0  0  0  0  0  0  0  0  0
    0.7284   -0.0830   -0.5741 C   0  0  0  0  0  0  0  0  0  0  0  0
    0.2528   -0.0772   -1.5617 H   0  0  0  0  0  0  0  0  0  0  0  0
    1.6395    0.5214   -0.6497 H   0  0  0  0  0  0  0  0  0  0  0  0
    1.1387   -1.5322   -0.2338 C   0  0  0  0  0  0  0  0  0  0  0  0
    1.6271   -1.5530    0.7443 H   0  0  0  0  0  0  0  0  0  0  0  0
    0.2556   -2.1692   -0.1825 H   0  0  0  0  0  0  0  0  0  0  0  0
    2.0674   -2.1745   -1.2654 C   0  0  0  0  0  0  0  0  0  0  0  0
    2.3159   -1.5956   -2.3106 O   0  0  0  0  0  0  0  0  0  0  0  0
    2.5756   -3.3881   -0.9512 O   0  0  0  0  0  0  0  0  0  0  0  0
    3.1346   -3.6428   -1.7005 H   0  0  0  0  0  0  0  0  0  0  0  0
   -0.3789    2.0840    0.0454 C   0  0  0  0  0  0  0  0  0  0  0  0
   -0.4894    2.4242   -1.1257 O   0  0  0  0  0  0  0  0  0  0  0  0
   -0.5468    3.0366    1.0332 N   0  0  0  0  0  0  0  0  0  0  0  0
   -0.5532    2.7144    1.9970 H   0  0  0  0  0  0  0  0  0  0  0  0
   -0.8072    4.4443    0.7552 C   0  0  0  0  0  0  0  0  0  0  0  0
   -1.7427    4.5586    0.1974 H   0  0  0  0  0  0  0  0  0  0  0  0
   -0.8909    5.0062    1.6905 H   0  0  0  0  0  0  0  0  0  0  0  0
    0.0089    4.8754    0.1657 H   0  0  0  0  0  0  0  0  0  0  0  0
  1  2  1  0  0  0  0
  2  3  1  0  0  0  0
  2  4  1  0  0  0  0
  2  5  1  0  0  0  0
  5  6  2  0  0  0  0
  5  7  1  0  0  0  0
  7  8  1  0  0  0  0
  7  9  1  0  0  0  0
  9 10  1  0  0  0  0
  9 11  1  0  0  0  0
  9 21  1  0  0  0  0
 11 12  1  0  0  0  0
 11 13  1  0  0  0  0
 11 14  1  0  0  0  0
 14 15  1  0  0  0  0
 14 16  1  0  0  0  0
 14 17  1  0  0  0  0
 17 18  2  0  0  0  0
 17 19  1  0  0  0  0
 19 20  1  0  0  0  0
 21 22  2  0  0  0  0
 21 23  1  0  0  0  0
 23 24  1  0  0  0  0
 23 25  1  0  0  0  0
 25 26  1  0  0  0  0
 25 27  1  0  0  0  0
 25 28  1  0  0  0  0
M  END
$$$$

  -OEChem-01062216073D

 28 27  0     1  0  0  0  0  0999 V2000
   -3.2552   -2.8756    1.2424 H   0  0  0  0  0  0  0  0  0  0  0  0
   -3.1937   -1.9114    0.7298 C   0  0  0  0  0  0  0  0  0  0  0  0
   -4.0333   -1.2886    1.0475 H   0  0  0  0  0  0  0  0  0  0  0  0
   -3.2618   -2.0820   -0.3474 H   0  0  0  0  0  0  0  0  0  0  0  0
   -1.8834   -1.2248    1.0648 C   0  0  0  0  0  0  0  0  0  0  0  0
   -1.1375   -1.7041    1.9035 O   0  0  0  0  0  0  0  0  0  0  0  0
   -1.5676   -0.0203    0.4728 N   0  0  0  0  0  0  0  0  0  0  0  0
   -2.2181    0.3091   -0.2384 H   0  0  0  0  0  0  0  0  0  0  0  0
   -0.2262    0.5875    0.4483 C   0  0  1  0  0  0  0  0  0  0  0  0
    0.2188    0.5358    1.4475 H   0  0  0  0  0  0  0  0  0  0  0  0
    0.7376   -0.0813   -0.5664 C   0  0  0  0  0  0  0  0  0  0  0  0
    0.2655   -0.0653   -1.5558 H   0  0  0  0  0  0  0  0  0  0  0  0
    1.6496    0.5228   -0.6324 H   0  0  0  0  0  0  0  0  0  0  0  0
    1.1442   -1.5335   -0.2358 C   0  0  0  0  0  0  0  0  0  0  0  0
    1.6274   -1.5637    0.7445 H   0  0  0  0  0  0  0  0  0  0  0  0
    0.2591   -2.1685   -0.1942 H   0  0  0  0  0  0  0  0  0  0  0  0
    2.0777   -2.1682   -1.2677 C   0  0  0  0  0  0  0  0  0  0  0  0
    2.3322   -1.5803   -2.3064 O   0  0  0  0  0  0  0  0  0  0  0  0
    2.5837   -3.3846   -0.9612 O   0  0  0  0  0  0  0  0  0  0  0  0
    3.1439   -3.6347   -1.7113 H   0  0  0  0  0  0  0  0  0  0  0  0
   -0.3657    2.0716    0.0465 C   0  0  0  0  0  0  0  0  0  0  0  0
   -0.7364    2.3771   -1.0803 O   0  0  0  0  0  0  0  0  0  0  0  0
   -0.2310    3.0639    0.9996 N   0  0  0  0  0  0  0  0  0  0  0  0
   -0.0292    2.7749    1.9526 H   0  0  0  0  0  0  0  0  0  0  0  0
   -0.4664    4.4764    0.7238 C   0  0  0  0  0  0  0  0  0  0  0  0
   -1.5049    4.6399    0.4171 H   0  0  0  0  0  0  0  0  0  0  0  0
   -0.2715    5.0746    1.6192 H   0  0  0  0  0  0  0  0  0  0  0  0
    0.1958    4.8264   -0.0751 H   0  0  0  0  0  0  0  0  0  0  0  0
  1  2  1  0  0  0  0
  2  3  1  0  0  0  0
  2  4  1  0  0  0  0
  2  5  1  0  0  0  0
  5  6  2  0  0  0  0
  5  7  1  0  0  0  0
  7  8  1  0  0  0  0
  7  9  1  0  0  0  0
  9 10  1  0  0  0  0
  9 11  1  0  0  0  0
  9 21  1  0  0  0  0
 11 12  1  0  0  0  0
 11 13  1  0  0  0  0
 11 14  1  0  0  0  0
 14 15  1  0  0  0  0
 14 16  1  0  0  0  0
 14 17  1  0  0  0  0
 17 18  2  0  0  0  0
 17 19  1  0  0  0  0
 19 20  1  0  0  0  0
 21 22  2  0  0  0  0
 21 23  1  0  0  0  0
 23 24  1  0  0  0  0
 23 25  1  0  0  0  0
 25 26  1  0  0  0  0
 25 27  1  0  0  0  0
 25 28  1  0  0  0  0
M  END
$$$$

  -OEChem-01062216073D

 28 27  0     1  0  0  0  0  0999 V2000
   -3.2913   -2.8627    1.2558 H   0  0  0  0  0  0  0  0  0  0  0  0
   -3.2210   -1.8969    0.7473 C   0  0  0  0  0  0  0  0  0  0  0  0
   -4.0425   -1.2600    1.0839 H   0  0  0  0  0  0  0  0  0  0  0  0
   -3.3122   -2.0589   -0.3295 H   0  0  0  0  0  0  0  0  0  0  0  0
   -1.8924   -1.2363    1.0612 C   0  0  0  0  0  0  0  0  0  0  0  0
   -1.1407   -1.7333    1.8847 O   0  0  0  0  0  0  0  0  0  0  0  0
   -1.5671   -0.0353    0.4676 N   0  0  0  0  0  0  0  0  0  0  0  0
   -2.2271    0.3210   -0.2225 H   0  0  0  0  0  0  0  0  0  0  0  0
   -0.2285    0.5774    0.4529 C   0  0  1  0  0  0  0  0  0  0  0  0
    0.2073    0.5282    1.4562 H   0  0  0  0  0  0  0  0  0  0  0  0
    0.7420   -0.0800   -0.5604 C   0  0  0  0  0  0  0  0  0  0  0  0
    0.2740   -0.0577   -1.5518 H   0  0  0  0  0  0  0  0  0  0  0  0
    1.6523    0.5273   -0.6176 H   0  0  0  0  0  0  0  0  0  0  0  0
    1.1525   -1.5326   -0.2372 C   0  0  0  0  0  0  0  0  0  0  0  0
    1.6311   -1.5681    0.7455 H   0  0  0  0  0  0  0  0  0  0  0  0
    0.2691   -2.1707   -0.2037 H   0  0  0  0  0  0  0  0  0  0  0  0
    2.0934   -2.1546   -1.2700 C   0  0  0  0  0  0  0  0  0  0  0  0
    2.3489   -1.5566   -2.3027 O   0  0  0  0  0  0  0  0  0  0  0  0
    2.6061   -3.3698   -0.9711 O   0  0  0  0  0  0  0  0  0  0  0  0
    3.1692   -3.6113   -1.7217 H   0  0  0  0  0  0  0  0  0  0  0  0
   -0.3647    2.0582    0.0406 C   0  0  0  0  0  0  0  0  0  0  0  0
   -0.9489    2.3542   -0.9952 O   0  0  0  0  0  0  0  0  0  0  0  0
    0.0543    3.0647    0.8909 N   0  0  0  0  0  0  0  0  0  0  0  0
    0.4581    2.7913    1.7824 H   0  0  0  0  0  0  0  0  0  0  0  0
   -0.1297    4.4825    0.6033 C   0  0  0  0  0  0  0  0  0  0  0  0
   -1.1952    4.7220    0.5217 H   0  0  0  0  0  0  0  0  0  0  0  0
    0.3013    5.0907    1.4046 H   0  0  0  0  0  0  0  0  0  0  0  0
    0.3645    4.7501   -0.3368 H   0  0  0  0  0  0  0  0  0  0  0  0
  1  2  1  0  0  0  0
  2  3  1  0  0  0  0
  2  4  1  0  0  0  0
  2  5  1  0  0  0  0
  5  6  2  0  0  0  0
  5  7  1  0  0  0  0
  7  8  1  0  0  0  0
  7  9  1  0  0  0  0
  9 10  1  0  0  0  0
  9 11  1  0  0  0  0
  9 21  1  0  0  0  0
 11 12  1  0  0  0  0
 11 13  1  0  0  0  0
 11 14  1  0  0  0  0
 14 15  1  0  0  0  0
 14 16  1  0  0  0  0
 14 17  1  0  0  0  0
 17 18  2  0  0  0  0
 17 19  1  0  0  0  0
 19 20  1  0  0  0  0
 21 22  2  0  0  0  0
 21 23  1  0  0  0  0
 23 24  1  0  0  0  0
 23 25  1  0  0  0  0
 25 26  1  0  0  0  0
 25 27  1  0  0  0  0
 25 28  1  0  0  0  0
M  END
$$$$

  -OEChem-01062216073D

 28 27  0     1  0  0  0  0  0999 V2000
   -3.3237   -2.8516    1.2731 H   0  0  0  0  0  0  0  0  0  0  0  0
   -3.2473   -1.8858    0.7659 C   0  0  0  0  0  0  0  0  0  0  0  0
   -4.0506   -1.2359    1.1213 H   0  0  0  0  0  0  0  0  0  0  0  0
   -3.3635   -2.0433   -0.3091 H   0  0  0  0  0  0  0  0  0  0  0  0
   -1.9011   -1.2495    1.0544 C   0  0  0  0  0  0  0  0  0  0  0  0
   -1.1415   -1.7622    1.8607 O   0  0  0  0  0  0  0  0  0  0  0  0
   -1.5685   -0.0511    0.4603 N   0  0  0  0  0  0  0  0  0  0  0  0
   -2.2439    0.3384   -0.1968 H   0  0  0  0  0  0  0  0  0  0  0  0
   -0.2340    0.5705    0.4549 C   0  0  1  0  0  0  0  0  0  0  0  0
    0.1938    0.5261    1.4618 H   0  0  0  0  0  0  0  0  0  0  0  0
    0.7434   -0.0772   -0.5564 C   0  0  0  0  0  0  0  0  0  0  0  0
    0.2774   -0.0528   -1.5485 H   0  0  0  0  0  0  0  0  0  0  0  0
    1.6514    0.5342   -0.6088 H   0  0  0  0  0  0  0  0  0  0  0  0
    1.1614   -1.5284   -0.2389 C   0  0  0  0  0  0  0  0  0  0  0  0
    1.6362   -1.5664    0.7454 H   0  0  0  0  0  0  0  0  0  0  0  0
    0.2812   -2.1716   -0.2123 H   0  0  0  0  0  0  0  0  0  0  0  0
    2.1100   -2.1390   -1.2718 C   0  0  0  0  0  0  0  0  0  0  0  0
    2.3649   -1.5332   -2.3002 O   0  0  0  0  0  0  0  0  0  0  0  0
    2.6327   -3.3509   -0.9763 O   0  0  0  0  0  0  0  0  0  0  0  0
    3.2002   -3.5847   -1.7261 H   0  0  0  0  0  0  0  0  0  0  0  0
   -0.3707    2.0490    0.0329 C   0  0  0  0  0  0  0  0  0  0  0  0
   -1.1357    2.3586   -0.8738 O   0  0  0  0  0  0  0  0  0  0  0  0
    0.3009    3.0423    0.7211 N   0  0  0  0  0  0  0  0  0  0  0  0
    0.8885    2.7623    1.5010 H   0  0  0  0  0  0  0  0  0  0  0  0
    0.1736    4.4601    0.4050 C   0  0  0  0  0  0  0  0  0  0  0  0
   -0.8621    4.7912    0.5365 H   0  0  0  0  0  0  0  0  0  0  0  0
    0.8132    5.0542    1.0650 H   0  0  0  0  0  0  0  0  0  0  0  0
    0.4751    4.6505   -0.6306 H   0  0  0  0  0  0  0  0  0  0  0  0
  1  2  1  0  0  0  0
  2  3  1  0  0  0  0
  2  4  1  0  0  0  0
  2  5  1  0  0  0  0
  5  6  2  0  0  0  0
  5  7  1  0  0  0  0
  7  8  1  0  0  0  0
  7  9  1  0  0  0  0
  9 10  1  0  0  0  0
  9 11  1  0  0  0  0
  9 21  1  0  0  0  0
 11 12  1  0  0  0  0
 11 13  1  0  0  0  0
 11 14  1  0  0  0  0
 14 15  1  0  0  0  0
 14 16  1  0  0  0  0
 14 17  1  0  0  0  0
 17 18  2  0  0  0  0
 17 19  1  0  0  0  0
 19 20  1  0  0  0  0
 21 22  2  0  0  0  0
 21 23  1  0  0  0  0
 23 24  1  0  0  0  0
 23 25  1  0  0  0  0
 25 26  1  0  0  0  0
 25 27  1  0  0  0  0
 25 28  1  0  0  0  0
M  END
$$$$

  -OEChem-01062216073D

 28 27  0     1  0  0  0  0  0999 V2000
   -3.3424   -2.8470    1.2788 H   0  0  0  0  0  0  0  0  0  0  0  0
   -3.2675   -1.8741    0.7850 C   0  0  0  0  0  0  0  0  0  0  0  0
   -4.0500   -1.2188    1.1750 H   0  0  0  0  0  0  0  0  0  0  0  0
   -3.4185   -2.0118   -0.2883 H   0  0  0  0  0  0  0  0  0  0  0  0
   -1.9043   -1.2614    1.0431 C   0  0  0  0  0  0  0  0  0  0  0  0
   -1.1372   -1.7886    1.8328 O   0  0  0  0  0  0  0  0  0  0  0  0
   -1.5682   -0.0642    0.4485 N   0  0  0  0  0  0  0  0  0  0  0  0
   -2.2635    0.3604   -0.1654 H   0  0  0  0  0  0  0  0  0  0  0  0
   -0.2383    0.5680    0.4508 C   0  0  1  0  0  0  0  0  0  0  0  0
    0.1826    0.5299    1.4609 H   0  0  0  0  0  0  0  0  0  0  0  0
    0.7466   -0.0748   -0.5575 C   0  0  0  0  0  0  0  0  0  0  0  0
    0.2838   -0.0520   -1.5513 H   0  0  0  0  0  0  0  0  0  0  0  0
    1.6525    0.5400   -0.6066 H   0  0  0  0  0  0  0  0  0  0  0  0
    1.1724   -1.5237   -0.2398 C   0  0  0  0  0  0  0  0  0  0  0  0
    1.6425   -1.5610    0.7466 H   0  0  0  0  0  0  0  0  0  0  0  0
    0.2962   -2.1726   -0.2194 H   0  0  0  0  0  0  0  0  0  0  0  0
    2.1277   -2.1272   -1.2700 C   0  0  0  0  0  0  0  0  0  0  0  0
    2.3819   -1.5184   -2.2970 O   0  0  0  0  0  0  0  0  0  0  0  0
    2.6529   -3.3385   -0.9767 O   0  0  0  0  0  0  0  0  0  0  0  0
    3.2203   -3.5706   -1.7270 H   0  0  0  0  0  0  0  0  0  0  0  0
   -0.3768    2.0454    0.0206 C   0  0  0  0  0  0  0  0  0  0  0  0
   -1.2888    2.3873   -0.7250 O   0  0  0  0  0  0  0  0  0  0  0  0
    0.5032    3.0008    0.4952 N   0  0  0  0  0  0  0  0  0  0  0  0
    1.2336    2.6963    1.1322 H   0  0  0  0  0  0  0  0  0  0  0  0
    0.4142    4.4135    0.1452 C   0  0  0  0  0  0  0  0  0  0  0  0
   -0.5429    4.8308    0.4757 H   0  0  0  0  0  0  0  0  0  0  0  0
    1.2206    4.9748    0.6269 H   0  0  0  0  0  0  0  0  0  0  0  0
    0.5009    4.5461   -0.9384 H   0  0  0  0  0  0  0  0  0  0  0  0
  1  2  1  0  0  0  0
  2  3  1  0  0  0  0
  2  4  1  0  0  0  0
  2  5  1  0  0  0  0
  5  6  2  0  0  0  0
  5  7  1  0  0  0  0
  7  8  1  0  0  0  0
  7  9  1  0  0  0  0
  9 10  1  0  0  0  0
  9 11  1  0  0  0  0
  9 21  1  0  0  0  0
 11 12  1  0  0  0  0
 11 13  1  0  0  0  0
 11 14  1  0  0  0  0
 14 15  1  0  0  0  0
 14 16  1  0  0  0  0
 14 17  1  0  0  0  0
 17 18  2  0  0  0  0
 17 19  1  0  0  0  0
 19 20  1  0  0  0  0
 21 22  2  0  0  0  0
 21 23  1  0  0  0  0
 23 24  1  0  0  0  0
 23 25  1  0  0  0  0
 25 26  1  0  0  0  0
 25 27  1  0  0  0  0
 25 28  1  0  0  0  0
M  END
$$$$

  -OEChem-01062216073D

 28 27  0     1  0  0  0  0  0999 V2000
   -3.3616   -2.8357    1.2827 H   0  0  0  0  0  0  0  0  0  0  0  0
   -3.2802   -1.8601    0.7954 C   0  0  0  0  0  0  0  0  0  0  0  0
   -4.0447   -1.1956    1.2053 H   0  0  0  0  0  0  0  0  0  0  0  0
   -3.4531   -1.9871   -0.2760 H   0  0  0  0  0  0  0  0  0  0  0  0
   -1.9028   -1.2707    1.0320 C   0  0  0  0  0  0  0  0  0  0  0  0
   -1.1310   -1.8142    1.8060 O   0  0  0  0  0  0  0  0  0  0  0  0
   -1.5618   -0.0739    0.4393 N   0  0  0  0  0  0  0  0  0  0  0  0
   -2.2767    0.3876   -0.1239 H   0  0  0  0  0  0  0  0  0  0  0  0
   -0.2360    0.5676    0.4497 C   0  0  1  0  0  0  0  0  0  0  0  0
    0.1815    0.5363    1.4615 H   0  0  0  0  0  0  0  0  0  0  0  0
    0.7516   -0.0776   -0.5570 C   0  0  0  0  0  0  0  0  0  0  0  0
    0.2880   -0.0563   -1.5504 H   0  0  0  0  0  0  0  0  0  0  0  0
    1.6586    0.5345   -0.6083 H   0  0  0  0  0  0  0  0  0  0  0  0
    1.1817   -1.5252   -0.2399 C   0  0  0  0  0  0  0  0  0  0  0  0
    1.6509   -1.5620    0.7470 H   0  0  0  0  0  0  0  0  0  0  0  0
    0.3076   -2.1765   -0.2218 H   0  0  0  0  0  0  0  0  0  0  0  0
    2.1387   -2.1250   -1.2712 C   0  0  0  0  0  0  0  0  0  0  0  0
    2.3897   -1.5135   -2.2975 O   0  0  0  0  0  0  0  0  0  0  0  0
    2.6700   -3.3342   -0.9796 O   0  0  0  0  0  0  0  0  0  0  0  0
    3.2365   -3.5644   -1.7312 H   0  0  0  0  0  0  0  0  0  0  0  0
   -0.3800    2.0457    0.0136 C   0  0  0  0  0  0  0  0  0  0  0  0
   -1.4051    2.4313   -0.5396 O   0  0  0  0  0  0  0  0  0  0  0  0
    0.6453    2.9486    0.2308 N   0  0  0  0  0  0  0  0  0  0  0  0
    1.4817    2.6112    0.6983 H   0  0  0  0  0  0  0  0  0  0  0  0
    0.5721    4.3511   -0.1617 C   0  0  0  0  0  0  0  0  0  0  0  0
   -0.2551    4.8503    0.3541 H   0  0  0  0  0  0  0  0  0  0  0  0
    1.5023    4.8661    0.0973 H   0  0  0  0  0  0  0  0  0  0  0  0
    0.4179    4.4395   -1.2424 H   0  0  0  0  0  0  0  0  0  0  0  0
  1  2  1  0  0  0  0
  2  3  1  0  0  0  0
  2  4  1  0  0  0  0
  2  5  1  0  0  0  0
  5  6  2  0  0  0  0
  5  7  1  0  0  0  0
  7  8  1  0  0  0  0
  7  9  1  0  0  0  0
  9 10  1  0  0  0  0
  9 11  1  0  0  0  0
  9 21  1  0  0  0  0
 11 12  1  0  0  0  0
 11 13  1  0  0  0  0
 11 14  1  0  0  0  0
 14 15  1  0  0  0  0
 14 16  1  0  0  0  0
 14 17  1  0  0  0  0
 17 18  2  0  0  0  0
 17 19  1  0  0  0  0
 19 20  1  0  0  0  0
 21 22  2  0  0  0  0
 21 23  1  0  0  0  0
 23 24  1  0  0  0  0
 23 25  1  0  0  0  0
 25 26  1  0  0  0  0
 25 27  1  0  0  0  0
 25 28  1  0  0  0  0
M  END
$$$$

  -OEChem-01062216073D

 28 27  0     1  0  0  0  0  0999 V2000
   -3.3110   -2.8162    1.3427 H   0  0  0  0  0  0  0  0  0  0  0  0
   -3.2512   -1.8423    0.8489 C   0  0  0  0  0  0  0  0  0  0  0  0
   -3.9211   -1.1462    1.3595 H   0  0  0  0  0  0  0  0  0  0  0  0
   -3.5740   -1.9532   -0.1890 H   0  0  0  0  0  0  0  0  0  0  0  0
   -1.8282   -1.3192    0.8941 C   0  0  0  0  0  0  0  0  0  0  0  0
   -0.9603   -1.9593    1.4668 O   0  0  0  0  0  0  0  0  0  0  0  0
   -1.5320   -0.0990    0.3237 N   0  0  0  0  0  0  0  0  0  0  0  0
   -2.3198    0.4768    0.0260 H   0  0  0  0  0  0  0  0  0  0  0  0
   -0.2189    0.5658    0.3625 C   0  0  1  0  0  0  0  0  0  0  0  0
    0.3097    0.3064    1.2860 H   0  0  0  0  0  0  0  0  0  0  0  0
    0.6326    0.1602   -0.8652 C   0  0  0  0  0  0  0  0  0  0  0  0
    0.0601    0.3816   -1.7734 H   0  0  0  0  0  0  0  0  0  0  0  0
    1.5426    0.7683   -0.8953 H   0  0  0  0  0  0  0  0  0  0  0  0
    1.0566   -1.3238   -0.8811 C   0  0  0  0  0  0  0  0  0  0  0  0
    1.6348   -1.5493    0.0191 H   0  0  0  0  0  0  0  0  0  0  0  0
    0.1711   -1.9620   -0.8772 H   0  0  0  0  0  0  0  0  0  0  0  0
    1.8787   -1.7203   -2.1078 C   0  0  0  0  0  0  0  0  0  0  0  0
    2.0327   -0.9245   -3.0208 O   0  0  0  0  0  0  0  0  0  0  0  0
    2.4057   -2.9660   -2.1123 O   0  0  0  0  0  0  0  0  0  0  0  0
    2.8816   -3.0515   -2.9519 H   0  0  0  0  0  0  0  0  0  0  0  0
   -0.4083    2.1034    0.3353 C   0  0  0  0  0  0  0  0  0  0  0  0
   -1.5332    2.5855    0.2481 O   0  0  0  0  0  0  0  0  0  0  0  0
    0.6796    2.9579    0.3652 N   0  0  0  0  0  0  0  0  0  0  0  0
    1.6037    2.5430    0.4388 H   0  0  0  0  0  0  0  0  0  0  0  0
    0.5602    4.4105    0.3130 C   0  0  0  0  0  0  0  0  0  0  0  0
   -0.0120    4.7796    1.1706 H   0  0  0  0  0  0  0  0  0  0  0  0
    1.5518    4.8725    0.3346 H   0  0  0  0  0  0  0  0  0  0  0  0
    0.0549    4.7212   -0.6075 H   0  0  0  0  0  0  0  0  0  0  0  0
  1  2  1  0  0  0  0
  2  3  1  0  0  0  0
  2  4  1  0  0  0  0
  2  5  1  0  0  0  0
  5  6  2  0  0  0  0
  5  7  1  0  0  0  0
  7  8  1  0  0  0  0
  7  9  1  0  0  0  0
  9 10  1  0  0  0  0
  9 11  1  0  0  0  0
  9 21  1  0  0  0  0
 11 12  1  0  0  0  0
 11 13  1  0  0  0  0
 11 14  1  0  0  0  0
 14 15  1  0  0  0  0
 14 16  1  0  0  0  0
 14 17  1  0  0  0  0
 17 18  2  0  0  0  0
 17 19  1  0  0  0  0
 19 20  1  0  0  0  0
 21 22  2  0  0  0  0
 21 23  1  0  0  0  0
 23 24  1  0  0  0  0
 23 25  1  0  0  0  0
 25 26  1  0  0  0  0
 25 27  1  0  0  0  0
 25 28  1  0  0  0  0
M  END
$$$$

  -OEChem-01062216073D

 28 27  0     1  0  0  0  0  0999 V2000
   -3.3223   -2.7891    1.3583 H   0  0  0  0  0  0  0  0  0  0  0  0
   -3.2565   -1.8177    0.8603 C   0  0  0  0  0  0  0  0  0  0  0  0
   -3.9041   -1.1092    1.3824 H   0  0  0  0  0  0  0  0  0  0  0  0
   -3.6029   -1.9262   -0.1702 H   0  0  0  0  0  0  0  0  0  0  0  0
   -1.8245   -1.3182    0.8743 C   0  0  0  0  0  0  0  0  0  0  0  0
   -0.9557   -1.9755    1.4254 O   0  0  0  0  0  0  0  0  0  0  0  0
   -1.5248   -0.0969    0.3076 N   0  0  0  0  0  0  0  0  0  0  0  0
   -2.3165    0.5021    0.0731 H   0  0  0  0  0  0  0  0  0  0  0  0
   -0.2079    0.5617    0.3521 C   0  0  1  0  0  0  0  0  0  0  0  0
    0.3171    0.3032    1.2781 H   0  0  0  0  0  0  0  0  0  0  0  0
    0.6472    0.1441   -0.8719 C   0  0  0  0  0  0  0  0  0  0  0  0
    0.0814    0.3688   -1.7834 H   0  0  0  0  0  0  0  0  0  0  0  0
    1.5649    0.7396   -0.8984 H   0  0  0  0  0  0  0  0  0  0  0  0
    1.0650   -1.3416   -0.8861 C   0  0  0  0  0  0  0  0  0  0  0  0
    1.6386   -1.5700    0.0163 H   0  0  0  0  0  0  0  0  0  0  0  0
    0.1773   -1.9762   -0.8870 H   0  0  0  0  0  0  0  0  0  0  0  0
    1.8892   -1.7399   -2.1109 C   0  0  0  0  0  0  0  0  0  0  0  0
    2.0481   -0.9430   -3.0223 O   0  0  0  0  0  0  0  0  0  0  0  0
    2.4132   -2.9868   -2.1152 O   0  0  0  0  0  0  0  0  0  0  0  0
    2.8917   -3.0726   -2.9533 H   0  0  0  0  0  0  0  0  0  0  0  0
   -0.4052    2.1016    0.3296 C   0  0  0  0  0  0  0  0  0  0  0  0
   -1.5256    2.5764    0.4875 O   0  0  0  0  0  0  0  0  0  0  0  0
    0.6390    2.9696    0.0596 N   0  0  0  0  0  0  0  0  0  0  0  0
    1.5605    2.5688   -0.0870 H   0  0  0  0  0  0  0  0  0  0  0  0
    0.4801    4.4174   -0.0212 C   0  0  0  0  0  0  0  0  0  0  0  0
    0.1264    4.8183    0.9346 H   0  0  0  0  0  0  0  0  0  0  0  0
    1.4370    4.8904   -0.2614 H   0  0  0  0  0  0  0  0  0  0  0  0
   -0.2406    4.6813   -0.8024 H   0  0  0  0  0  0  0  0  0  0  0  0
  1  2  1  0  0  0  0
  2  3  1  0  0  0  0
  2  4  1  0  0  0  0
  2  5  1  0  0  0  0
  5  6  2  0  0  0  0
  5  7  1  0  0  0  0
  7  8  1  0  0  0  0
  7  9  1  0  0  0  0
  9 10  1  0  0  0  0
  9 11  1  0  0  0  0
  9 21  1  0  0  0  0
 11 12  1  0  0  0  0
 11 13  1  0  0  0  0
 11 14  1  0  0  0  0
 14 15  1  0  0  0  0
 14 16  1  0  0  0  0
 14 17  1  0  0  0  0
 17 18  2  0  0  0  0
 17 19  1  0  0  0  0
 19 20  1  0  0  0  0
 21 22  2  0  0  0  0
 21 23  1  0  0  0  0
 23 24  1  0  0  0  0
 23 25  1  0  0  0  0
 25 26  1  0  0  0  0
 25 27  1  0  0  0  0
 25 28  1  0  0  0  0
M  END
$$$$

  -OEChem-01062216073D

 28 27  0     1  0  0  0  0  0999 V2000
   -3.3371   -2.7570    1.3805 H   0  0  0  0  0  0  0  0  0  0  0  0
   -3.2656   -1.7890    0.8766 C   0  0  0  0  0  0  0  0  0  0  0  0
   -3.8883   -1.0670    1.4104 H   0  0  0  0  0  0  0  0  0  0  0  0
   -3.6368   -1.8952   -0.1454 H   0  0  0  0  0  0  0  0  0  0  0  0
   -1.8251   -1.3146    0.8563 C   0  0  0  0  0  0  0  0  0  0  0  0
   -0.9560   -1.9878    1.3872 O   0  0  0  0  0  0  0  0  0  0  0  0
   -1.5224   -0.0928    0.2914 N   0  0  0  0  0  0  0  0  0  0  0  0
   -2.3148    0.5214    0.1055 H   0  0  0  0  0  0  0  0  0  0  0  0
   -0.1999    0.5558    0.3345 C   0  0  1  0  0  0  0  0  0  0  0  0
    0.3212    0.2980    1.2629 H   0  0  0  0  0  0  0  0  0  0  0  0
    0.6631    0.1282   -0.8819 C   0  0  0  0  0  0  0  0  0  0  0  0
    0.1075    0.3541   -1.7995 H   0  0  0  0  0  0  0  0  0  0  0  0
    1.5865    0.7146   -0.8973 H   0  0  0  0  0  0  0  0  0  0  0  0
    1.0765   -1.3584   -0.8915 C   0  0  0  0  0  0  0  0  0  0  0  0
    1.6427   -1.5889    0.0153 H   0  0  0  0  0  0  0  0  0  0  0  0
    0.1867   -1.9901   -0.9003 H   0  0  0  0  0  0  0  0  0  0  0  0
    1.9079   -1.7581   -2.1109 C   0  0  0  0  0  0  0  0  0  0  0  0
    2.0742   -0.9607   -3.0208 O   0  0  0  0  0  0  0  0  0  0  0  0
    2.4282   -3.0063   -2.1131 O   0  0  0  0  0  0  0  0  0  0  0  0
    2.9132   -3.0929   -2.9473 H   0  0  0  0  0  0  0  0  0  0  0  0
   -0.4026    2.0968    0.3180 C   0  0  0  0  0  0  0  0  0  0  0  0
   -1.4594    2.5685    0.7240 O   0  0  0  0  0  0  0  0  0  0  0  0
    0.5214    2.9678   -0.2354 N   0  0  0  0  0  0  0  0  0  0  0  0
    1.3760    2.5722   -0.6152 H   0  0  0  0  0  0  0  0  0  0  0  0
    0.3138    4.4090   -0.3256 C   0  0  0  0  0  0  0  0  0  0  0  0
    0.1963    4.8423    0.6732 H   0  0  0  0  0  0  0  0  0  0  0  0
    1.1713    4.8858   -0.8102 H   0  0  0  0  0  0  0  0  0  0  0  0
   -0.5828    4.6316   -0.9137 H   0  0  0  0  0  0  0  0  0  0  0  0
  1  2  1  0  0  0  0
  2  3  1  0  0  0  0
  2  4  1  0  0  0  0
  2  5  1  0  0  0  0
  5  6  2  0  0  0  0
  5  7  1  0  0  0  0
  7  8  1  0  0  0  0
  7  9  1  0  0  0  0
  9 10  1  0  0  0  0
  9 11  1  0  0  0  0
  9 21  1  0  0  0  0
 11 12  1  0  0  0  0
 11 13  1  0  0  0  0
 11 14  1  0  0  0  0
 14 15  1  0  0  0  0
 14 16  1  0  0  0  0
 14 17  1  0  0  0  0
 17 18  2  0  0  0  0
 17 19  1  0  0  0  0
 19 20  1  0  0  0  0
 21 22  2  0  0  0  0
 21 23  1  0  0  0  0
 23 24  1  0  0  0  0
 23 25  1  0  0  0  0
 25 26  1  0  0  0  0
 25 27  1  0  0  0  0
 25 28  1  0  0  0  0
M  END
$$$$

  -OEChem-01062216073D

 28 27  0     1  0  0  0  0  0999 V2000
   -3.3363   -2.7452    1.3972 H   0  0  0  0  0  0  0  0  0  0  0  0
   -3.2682   -1.7793    0.8891 C   0  0  0  0  0  0  0  0  0  0  0  0
   -3.8824   -1.0541    1.4283 H   0  0  0  0  0  0  0  0  0  0  0  0
   -3.6520   -1.8886   -0.1280 H   0  0  0  0  0  0  0  0  0  0  0  0
   -1.8267   -1.3094    0.8501 C   0  0  0  0  0  0  0  0  0  0  0  0
   -0.9544   -1.9870    1.3693 O   0  0  0  0  0  0  0  0  0  0  0  0
   -1.5281   -0.0878    0.2817 N   0  0  0  0  0  0  0  0  0  0  0  0
   -2.3231    0.5272    0.1154 H   0  0  0  0  0  0  0  0  0  0  0  0
   -0.2029    0.5561    0.3171 C   0  0  1  0  0  0  0  0  0  0  0  0
    0.3168    0.3026    1.2475 H   0  0  0  0  0  0  0  0  0  0  0  0
    0.6667    0.1210   -0.8915 C   0  0  0  0  0  0  0  0  0  0  0  0
    0.1169    0.3407   -1.8141 H   0  0  0  0  0  0  0  0  0  0  0  0
    1.5898    0.7097   -0.8995 H   0  0  0  0  0  0  0  0  0  0  0  0
    1.0832   -1.3645   -0.8927 C   0  0  0  0  0  0  0  0  0  0  0  0
    1.6452   -1.5902    0.0181 H   0  0  0  0  0  0  0  0  0  0  0  0
    0.1948   -1.9979   -0.9036 H   0  0  0  0  0  0  0  0  0  0  0  0
    1.9211   -1.7664   -2.1070 C   0  0  0  0  0  0  0  0  0  0  0  0
    2.0887   -0.9711   -3.0189 O   0  0  0  0  0  0  0  0  0  0  0  0
    2.4436   -3.0139   -2.1038 O   0  0  0  0  0  0  0  0  0  0  0  0
    2.9330   -3.1022   -2.9352 H   0  0  0  0  0  0  0  0  0  0  0  0
   -0.4069    2.0960    0.3019 C   0  0  0  0  0  0  0  0  0  0  0  0
   -1.3400    2.5772    0.9338 O   0  0  0  0  0  0  0  0  0  0  0  0
    0.3332    2.9484   -0.5016 N   0  0  0  0  0  0  0  0  0  0  0  0
    1.0595    2.5390   -1.0818 H   0  0  0  0  0  0  0  0  0  0  0  0
    0.0924    4.3846   -0.5862 C   0  0  0  0  0  0  0  0  0  0  0  0
    0.2253    4.8533    0.3948 H   0  0  0  0  0  0  0  0  0  0  0  0
    0.7945    4.8459   -1.2874 H   0  0  0  0  0  0  0  0  0  0  0  0
   -0.9262    4.5833   -0.9359 H   0  0  0  0  0  0  0  0  0  0  0  0
  1  2  1  0  0  0  0
  2  3  1  0  0  0  0
  2  4  1  0  0  0  0
  2  5  1  0  0  0  0
  5  6  2  0  0  0  0
  5  7  1  0  0  0  0
  7  8  1  0  0  0  0
  7  9  1  0  0  0  0
  9 10  1  0  0  0  0
  9 11  1  0  0  0  0
  9 21  1  0  0  0  0
 11 12  1  0  0  0  0
 11 13  1  0  0  0  0
 11 14  1  0  0  0  0
 14 15  1  0  0  0  0
 14 16  1  0  0  0  0
 14 17  1  0  0  0  0
 17 18  2  0  0  0  0
 17 19  1  0  0  0  0
 19 20  1  0  0  0  0
 21 22  2  0  0  0  0
 21 23  1  0  0  0  0
 23 24  1  0  0  0  0
 23 25  1  0  0  0  0
 25 26  1  0  0  0  0
 25 27  1  0  0  0  0
 25 28  1  0  0  0  0
M  END
$$$$

  -OEChem-01062216073D

 28 27  0     1  0  0  0  0  0999 V2000
   -3.3274   -2.7553    1.4115 H   0  0  0  0  0  0  0  0  0  0  0  0
   -3.2678   -1.7900    0.9009 C   0  0  0  0  0  0  0  0  0  0  0  0
   -3.8855   -1.0680    1.4407 H   0  0  0  0  0  0  0  0  0  0  0  0
   -3.6543   -1.9037   -0.1147 H   0  0  0  0  0  0  0  0  0  0  0  0
   -1.8297   -1.3100    0.8561 C   0  0  0  0  0  0  0  0  0  0  0  0
   -0.9514   -1.9827    1.3712 O   0  0  0  0  0  0  0  0  0  0  0  0
   -1.5413   -0.0886    0.2811 N   0  0  0  0  0  0  0  0  0  0  0  0
   -2.3423    0.5133    0.1015 H   0  0  0  0  0  0  0  0  0  0  0  0
   -0.2179    0.5601    0.3058 C   0  0  1  0  0  0  0  0  0  0  0  0
    0.3043    0.3128    1.2368 H   0  0  0  0  0  0  0  0  0  0  0  0
    0.6557    0.1227   -0.8986 C   0  0  0  0  0  0  0  0  0  0  0  0
    0.1031    0.3261   -1.8230 H   0  0  0  0  0  0  0  0  0  0  0  0
    1.5704    0.7257   -0.9101 H   0  0  0  0  0  0  0  0  0  0  0  0
    1.0840   -1.3593   -0.8913 C   0  0  0  0  0  0  0  0  0  0  0  0
    1.6479   -1.5752    0.0206 H   0  0  0  0  0  0  0  0  0  0  0  0
    0.2006   -2.0001   -0.8985 H   0  0  0  0  0  0  0  0  0  0  0  0
    1.9256   -1.7594   -2.1038 C   0  0  0  0  0  0  0  0  0  0  0  0
    2.0859   -0.9660   -3.0186 O   0  0  0  0  0  0  0  0  0  0  0  0
    2.4602   -3.0016   -2.0956 O   0  0  0  0  0  0  0  0  0  0  0  0
    2.9538   -3.0874   -2.9248 H   0  0  0  0  0  0  0  0  0  0  0  0
   -0.4195    2.0982    0.2874 C   0  0  0  0  0  0  0  0  0  0  0  0
   -1.1722    2.6054    1.1084 O   0  0  0  0  0  0  0  0  0  0  0  0
    0.0842    2.9107   -0.7156 N   0  0  0  0  0  0  0  0  0  0  0  0
    0.6546    2.4740   -1.4340 H   0  0  0  0  0  0  0  0  0  0  0  0
   -0.1672    4.3455   -0.7915 C   0  0  0  0  0  0  0  0  0  0  0  0
    0.2151    4.8487    0.1030 H   0  0  0  0  0  0  0  0  0  0  0  0
    0.3316    4.7719   -1.6672 H   0  0  0  0  0  0  0  0  0  0  0  0
   -1.2410    4.5434   -0.8750 H   0  0  0  0  0  0  0  0  0  0  0  0
  1  2  1  0  0  0  0
  2  3  1  0  0  0  0
  2  4  1  0  0  0  0
  2  5  1  0  0  0  0
  5  6  2  0  0  0  0
  5  7  1  0  0  0  0
  7  8  1  0  0  0  0
  7  9  1  0  0  0  0
  9 10  1  0  0  0  0
  9 11  1  0  0  0  0
  9 21  1  0  0  0  0
 11 12  1  0  0  0  0
 11 13  1  0  0  0  0
 11 14  1  0  0  0  0
 14 15  1  0  0  0  0
 14 16  1  0  0  0  0
 14 17  1  0  0  0  0
 17 18  2  0  0  0  0
 17 19  1  0  0  0  0
 19 20  1  0  0  0  0
 21 22  2  0  0  0  0
 21 23  1  0  0  0  0
 23 24  1  0  0  0  0
 23 25  1  0  0  0  0
 25 26  1  0  0  0  0
 25 27  1  0  0  0  0
 25 28  1  0  0  0  0
M  END
$$$$

  -OEChem-01062216073D

 28 27  0     1  0  0  0  0  0999 V2000
   -3.3046   -2.7879    1.4161 H   0  0  0  0  0  0  0  0  0  0  0  0
   -3.2585   -1.8223    0.9046 C   0  0  0  0  0  0  0  0  0  0  0  0
   -3.8939   -1.1112    1.4383 H   0  0  0  0  0  0  0  0  0  0  0  0
   -3.6344   -1.9456   -0.1138 H   0  0  0  0  0  0  0  0  0  0  0  0
   -1.8289   -1.3159    0.8720 C   0  0  0  0  0  0  0  0  0  0  0  0
   -0.9436   -1.9710    1.3970 O   0  0  0  0  0  0  0  0  0  0  0  0
   -1.5555   -0.0940    0.2898 N   0  0  0  0  0  0  0  0  0  0  0  0
   -2.3638    0.4787    0.0595 H   0  0  0  0  0  0  0  0  0  0  0  0
   -0.2385    0.5688    0.3028 C   0  0  1  0  0  0  0  0  0  0  0  0
    0.2918    0.3285    1.2316 H   0  0  0  0  0  0  0  0  0  0  0  0
    0.6329    0.1335   -0.9027 C   0  0  0  0  0  0  0  0  0  0  0  0
    0.0716    0.3169   -1.8255 H   0  0  0  0  0  0  0  0  0  0  0  0
    1.5357    0.7545   -0.9270 H   0  0  0  0  0  0  0  0  0  0  0  0
    1.0770   -1.3435   -0.8862 C   0  0  0  0  0  0  0  0  0  0  0  0
    1.6489   -1.5449    0.0242 H   0  0  0  0  0  0  0  0  0  0  0  0
    0.2009   -1.9942   -0.8821 H   0  0  0  0  0  0  0  0  0  0  0  0
    1.9163   -1.7450   -2.0996 C   0  0  0  0  0  0  0  0  0  0  0  0
    2.0638   -0.9581   -3.0222 O   0  0  0  0  0  0  0  0  0  0  0  0
    2.4620   -2.9823   -2.0840 O   0  0  0  0  0  0  0  0  0  0  0  0
    2.9535   -3.0699   -2.9142 H   0  0  0  0  0  0  0  0  0  0  0  0
   -0.4390    2.1046    0.2787 C   0  0  0  0  0  0  0  0  0  0  0  0
   -0.9531    2.6518    1.2439 O   0  0  0  0  0  0  0  0  0  0  0  0
   -0.2149    2.8652   -0.8575 N   0  0  0  0  0  0  0  0  0  0  0  0
    0.1823    2.3965   -1.6666 H   0  0  0  0  0  0  0  0  0  0  0  0
   -0.4533    4.3027   -0.9231 C   0  0  0  0  0  0  0  0  0  0  0  0
    0.1623    4.8271   -0.1845 H   0  0  0  0  0  0  0  0  0  0  0  0
   -0.1998    4.6836   -1.9171 H   0  0  0  0  0  0  0  0  0  0  0  0
   -1.5070    4.5269   -0.7261 H   0  0  0  0  0  0  0  0  0  0  0  0
  1  2  1  0  0  0  0
  2  3  1  0  0  0  0
  2  4  1  0  0  0  0
  2  5  1  0  0  0  0
  5  6  2  0  0  0  0
  5  7  1  0  0  0  0
  7  8  1  0  0  0  0
  7  9  1  0  0  0  0
  9 10  1  0  0  0  0
  9 11  1  0  0  0  0
  9 21  1  0  0  0  0
 11 12  1  0  0  0  0
 11 13  1  0  0  0  0
 11 14  1  0  0  0  0
 14 15  1  0  0  0  0
 14 16  1  0  0  0  0
 14 17  1  0  0  0  0
 17 18  2  0  0  0  0
 17 19  1  0  0  0  0
 19 20  1  0  0  0  0
 21 22  2  0  0  0  0
 21 23  1  0  0  0  0
 23 24  1  0  0  0  0
 23 25  1  0  0  0  0
 25 26  1  0  0  0  0
 25 27  1  0  0  0  0
 25 28  1  0  0  0  0
M  END
$$$$

  -OEChem-01062216073D

 28 27  0     1  0  0  0  0  0999 V2000
   -3.2819   -2.8251    1.4131 H   0  0  0  0  0  0  0  0  0  0  0  0
   -3.2489   -1.8578    0.9037 C   0  0  0  0  0  0  0  0  0  0  0  0
   -3.9066   -1.1612    1.4297 H   0  0  0  0  0  0  0  0  0  0  0  0
   -3.6081   -1.9872   -0.1201 H   0  0  0  0  0  0  0  0  0  0  0  0
   -1.8297   -1.3222    0.8923 C   0  0  0  0  0  0  0  0  0  0  0  0
   -0.9391   -1.9594    1.4296 O   0  0  0  0  0  0  0  0  0  0  0  0
   -1.5692   -0.0993    0.3055 N   0  0  0  0  0  0  0  0  0  0  0  0
   -2.3809    0.4453    0.0264 H   0  0  0  0  0  0  0  0  0  0  0  0
   -0.2574    0.5751    0.3082 C   0  0  1  0  0  0  0  0  0  0  0  0
    0.2806    0.3379    1.2337 H   0  0  0  0  0  0  0  0  0  0  0  0
    0.6109    0.1478   -0.9012 C   0  0  0  0  0  0  0  0  0  0  0  0
    0.0440    0.3209   -1.8222 H   0  0  0  0  0  0  0  0  0  0  0  0
    1.5050    0.7813   -0.9323 H   0  0  0  0  0  0  0  0  0  0  0  0
    1.0675   -1.3257   -0.8817 C   0  0  0  0  0  0  0  0  0  0  0  0
    1.6475   -1.5173    0.0256 H   0  0  0  0  0  0  0  0  0  0  0  0
    0.1976   -1.9843   -0.8677 H   0  0  0  0  0  0  0  0  0  0  0  0
    1.9041   -1.7257   -2.0976 C   0  0  0  0  0  0  0  0  0  0  0  0
    2.0408   -0.9418   -3.0245 O   0  0  0  0  0  0  0  0  0  0  0  0
    2.4566   -2.9600   -2.0809 O   0  0  0  0  0  0  0  0  0  0  0  0
    2.9452   -3.0468   -2.9129 H   0  0  0  0  0  0  0  0  0  0  0  0
   -0.4575    2.1087    0.2813 C   0  0  0  0  0  0  0  0  0  0  0  0
   -0.6800    2.7053    1.3245 O   0  0  0  0  0  0  0  0  0  0  0  0
   -0.5390    2.8129   -0.9088 N   0  0  0  0  0  0  0  0  0  0  0  0
   -0.3464    2.3063   -1.7680 H   0  0  0  0  0  0  0  0  0  0  0  0
   -0.7611    4.2531   -0.9747 C   0  0  0  0  0  0  0  0  0  0  0  0
    0.0377    4.7886   -0.4507 H   0  0  0  0  0  0  0  0  0  0  0  0
   -0.7751    4.5870   -2.0166 H   0  0  0  0  0  0  0  0  0  0  0  0
   -1.7202    4.5152   -0.5156 H   0  0  0  0  0  0  0  0  0  0  0  0
  1  2  1  0  0  0  0
  2  3  1  0  0  0  0
  2  4  1  0  0  0  0
  2  5  1  0  0  0  0
  5  6  2  0  0  0  0
  5  7  1  0  0  0  0
  7  8  1  0  0  0  0
  7  9  1  0  0  0  0
  9 10  1  0  0  0  0
  9 11  1  0  0  0  0
  9 21  1  0  0  0  0
 11 12  1  0  0  0  0
 11 13  1  0  0  0  0
 11 14  1  0  0  0  0
 14 15  1  0  0  0  0
 14 16  1  0  0  0  0
 14 17  1  0  0  0  0
 17 18  2  0  0  0  0
 17 19  1  0  0  0  0
 19 20  1  0  0  0  0
 21 22  2  0  0  0  0
 21 23  1  0  0  0  0
 23 24  1  0  0  0  0
 23 25  1  0  0  0  0
 25 26  1  0  0  0  0
 25 27  1  0  0  0  0
 25 28  1  0  0  0  0
M  END
$$$$

  -OEChem-01062216073D

 28 27  0     1  0  0  0  0  0999 V2000
   -3.2728   -2.8537    1.4152 H   0  0  0  0  0  0  0  0  0  0  0  0
   -3.2472   -1.8850    0.9079 C   0  0  0  0  0  0  0  0  0  0  0  0
   -3.9175   -1.1975    1.4296 H   0  0  0  0  0  0  0  0  0  0  0  0
   -3.5960   -2.0166   -0.1191 H   0  0  0  0  0  0  0  0  0  0  0  0
   -1.8343   -1.3330    0.9089 C   0  0  0  0  0  0  0  0  0  0  0  0
   -0.9404   -1.9610    1.4507 O   0  0  0  0  0  0  0  0  0  0  0  0
   -1.5825   -0.1084    0.3214 N   0  0  0  0  0  0  0  0  0  0  0  0
   -2.3956    0.4186    0.0148 H   0  0  0  0  0  0  0  0  0  0  0  0
   -0.2739    0.5733    0.3218 C   0  0  1  0  0  0  0  0  0  0  0  0
    0.2689    0.3336    1.2442 H   0  0  0  0  0  0  0  0  0  0  0  0
    0.5935    0.1646   -0.8927 C   0  0  0  0  0  0  0  0  0  0  0  0
    0.0269    0.3440   -1.8125 H   0  0  0  0  0  0  0  0  0  0  0  0
    1.4831    0.8045   -0.9191 H   0  0  0  0  0  0  0  0  0  0  0  0
    1.0577   -1.3064   -0.8817 C   0  0  0  0  0  0  0  0  0  0  0  0
    1.6406   -1.4983    0.0237 H   0  0  0  0  0  0  0  0  0  0  0  0
    0.1906   -1.9691   -0.8680 H   0  0  0  0  0  0  0  0  0  0  0  0
    1.8947   -1.6970   -2.1004 C   0  0  0  0  0  0  0  0  0  0  0  0
    2.0267   -0.9085   -3.0237 O   0  0  0  0  0  0  0  0  0  0  0  0
    2.4530   -2.9288   -2.0904 O   0  0  0  0  0  0  0  0  0  0  0  0
    2.9438   -3.0077   -2.9220 H   0  0  0  0  0  0  0  0  0  0  0  0
   -0.4756    2.1042    0.2952 C   0  0  0  0  0  0  0  0  0  0  0  0
   -0.3836    2.7519    1.3271 O   0  0  0  0  0  0  0  0  0  0  0  0
   -0.8635    2.7515   -0.8657 N   0  0  0  0  0  0  0  0  0  0  0  0
   -0.8840    2.2047   -1.7213 H   0  0  0  0  0  0  0  0  0  0  0  0
   -1.0691    4.1932   -0.9453 C   0  0  0  0  0  0  0  0  0  0  0  0
   -0.1498    4.7270   -0.6817 H   0  0  0  0  0  0  0  0  0  0  0  0
   -1.3559    4.4796   -1.9616 H   0  0  0  0  0  0  0  0  0  0  0  0
   -1.8655    4.5055   -0.2612 H   0  0  0  0  0  0  0  0  0  0  0  0
  1  2  1  0  0  0  0
  2  3  1  0  0  0  0
  2  4  1  0  0  0  0
  2  5  1  0  0  0  0
  5  6  2  0  0  0  0
  5  7  1  0  0  0  0
  7  8  1  0  0  0  0
  7  9  1  0  0  0  0
  9 10  1  0  0  0  0
  9 11  1  0  0  0  0
  9 21  1  0  0  0  0
 11 12  1  0  0  0  0
 11 13  1  0  0  0  0
 11 14  1  0  0  0  0
 14 15  1  0  0  0  0
 14 16  1  0  0  0  0
 14 17  1  0  0  0  0
 17 18  2  0  0  0  0
 17 19  1  0  0  0  0
 19 20  1  0  0  0  0
 21 22  2  0  0  0  0
 21 23  1  0  0  0  0
 23 24  1  0  0  0  0
 23 25  1  0  0  0  0
 25 26  1  0  0  0  0
 25 27  1  0  0  0  0
 25 28  1  0  0  0  0
M  END
$$$$

  -OEChem-01062216073D

 28 27  0     1  0  0  0  0  0999 V2000
   -3.2701   -2.8798    1.4333 H   0  0  0  0  0  0  0  0  0  0  0  0
   -3.2508   -1.9136    0.9210 C   0  0  0  0  0  0  0  0  0  0  0  0
   -3.9220   -1.2268    1.4422 H   0  0  0  0  0  0  0  0  0  0  0  0
   -3.6036   -2.0525   -0.1036 H   0  0  0  0  0  0  0  0  0  0  0  0
   -1.8402   -1.3552    0.9141 C   0  0  0  0  0  0  0  0  0  0  0  0
   -0.9410   -1.9787    1.4518 O   0  0  0  0  0  0  0  0  0  0  0  0
   -1.5975   -0.1269    0.3299 N   0  0  0  0  0  0  0  0  0  0  0  0
   -2.4158    0.3980    0.0349 H   0  0  0  0  0  0  0  0  0  0  0  0
   -0.2933    0.5652    0.3410 C   0  0  1  0  0  0  0  0  0  0  0  0
    0.2501    0.3218    1.2619 H   0  0  0  0  0  0  0  0  0  0  0  0
    0.5763    0.1801   -0.8779 C   0  0  0  0  0  0  0  0  0  0  0  0
    0.0104    0.3725   -1.7952 H   0  0  0  0  0  0  0  0  0  0  0  0
    1.4620    0.8259   -0.8934 H   0  0  0  0  0  0  0  0  0  0  0  0
    1.0492   -1.2884   -0.8842 C   0  0  0  0  0  0  0  0  0  0  0  0
    1.6330   -1.4874    0.0191 H   0  0  0  0  0  0  0  0  0  0  0  0
    0.1866   -1.9570   -0.8774 H   0  0  0  0  0  0  0  0  0  0  0  0
    1.8893   -1.6613   -2.1061 C   0  0  0  0  0  0  0  0  0  0  0  0
    2.0188   -0.8634   -3.0215 O   0  0  0  0  0  0  0  0  0  0  0  0
    2.4516   -2.8912   -2.1081 O   0  0  0  0  0  0  0  0  0  0  0  0
    2.9439   -2.9588   -2.9397 H   0  0  0  0  0  0  0  0  0  0  0  0
   -0.4977    2.0944    0.3165 C   0  0  0  0  0  0  0  0  0  0  0  0
   -0.1158    2.7836    1.2500 O   0  0  0  0  0  0  0  0  0  0  0  0
   -1.1658    2.6968   -0.7361 N   0  0  0  0  0  0  0  0  0  0  0  0
   -1.3703    2.1199   -1.5463 H   0  0  0  0  0  0  0  0  0  0  0  0
   -1.3472    4.1406   -0.8372 C   0  0  0  0  0  0  0  0  0  0  0  0
   -0.3772    4.6491   -0.8516 H   0  0  0  0  0  0  0  0  0  0  0  0
   -1.8839    4.3923   -1.7571 H   0  0  0  0  0  0  0  0  0  0  0  0
   -1.9273    4.5144    0.0133 H   0  0  0  0  0  0  0  0  0  0  0  0
  1  2  1  0  0  0  0
  2  3  1  0  0  0  0
  2  4  1  0  0  0  0
  2  5  1  0  0  0  0
  5  6  2  0  0  0  0
  5  7  1  0  0  0  0
  7  8  1  0  0  0  0
  7  9  1  0  0  0  0
  9 10  1  0  0  0  0
  9 11  1  0  0  0  0
  9 21  1  0  0  0  0
 11 12  1  0  0  0  0
 11 13  1  0  0  0  0
 11 14  1  0  0  0  0
 14 15  1  0  0  0  0
 14 16  1  0  0  0  0
 14 17  1  0  0  0  0
 17 18  2  0  0  0  0
 17 19  1  0  0  0  0
 19 20  1  0  0  0  0
 21 22  2  0  0  0  0
 21 23  1  0  0  0  0
 23 24  1  0  0  0  0
 23 25  1  0  0  0  0
 25 26  1  0  0  0  0
 25 27  1  0  0  0  0
 25 28  1  0  0  0  0
M  END
$$$$

  -OEChem-01062216073D

 28 27  0     1  0  0  0  0  0999 V2000
   -3.2621   -2.9160    1.4316 H   0  0  0  0  0  0  0  0  0  0  0  0
   -3.2494   -1.9464    0.9254 C   0  0  0  0  0  0  0  0  0  0  0  0
   -3.9296   -1.2692    1.4475 H   0  0  0  0  0  0  0  0  0  0  0  0
   -3.5960   -2.0822   -0.1019 H   0  0  0  0  0  0  0  0  0  0  0  0
   -1.8441   -1.3750    0.9279 C   0  0  0  0  0  0  0  0  0  0  0  0
   -0.9427   -1.9901    1.4713 O   0  0  0  0  0  0  0  0  0  0  0  0
   -1.6089   -0.1448    0.3444 N   0  0  0  0  0  0  0  0  0  0  0  0
   -2.4318    0.3773    0.0593 H   0  0  0  0  0  0  0  0  0  0  0  0
   -0.3084    0.5565    0.3665 C   0  0  1  0  0  0  0  0  0  0  0  0
    0.2353    0.3096    1.2862 H   0  0  0  0  0  0  0  0  0  0  0  0
    0.5589    0.1889   -0.8580 C   0  0  0  0  0  0  0  0  0  0  0  0
   -0.0093    0.3947   -1.7714 H   0  0  0  0  0  0  0  0  0  0  0  0
    1.4433    0.8373   -0.8666 H   0  0  0  0  0  0  0  0  0  0  0  0
    1.0376   -1.2777   -0.8823 C   0  0  0  0  0  0  0  0  0  0  0  0
    1.6251   -1.4843    0.0169 H   0  0  0  0  0  0  0  0  0  0  0  0
    0.1773   -1.9496   -0.8800 H   0  0  0  0  0  0  0  0  0  0  0  0
    1.8759   -1.6320   -2.1112 C   0  0  0  0  0  0  0  0  0  0  0  0
    1.9998   -0.8231   -3.0176 O   0  0  0  0  0  0  0  0  0  0  0  0
    2.4460   -2.8582   -2.1280 O   0  0  0  0  0  0  0  0  0  0  0  0
    2.9404   -2.9106   -2.9595 H   0  0  0  0  0  0  0  0  0  0  0  0
   -0.5062    2.0861    0.3407 C   0  0  0  0  0  0  0  0  0  0  0  0
    0.1178    2.8021    1.1091 O   0  0  0  0  0  0  0  0  0  0  0  0
   -1.4124    2.6610   -0.5350 N   0  0  0  0  0  0  0  0  0  0  0  0
   -1.7742    2.0678   -1.2749 H   0  0  0  0  0  0  0  0  0  0  0  0
   -1.5854    4.1049   -0.6513 C   0  0  0  0  0  0  0  0  0  0  0  0
   -0.6475    4.5808   -0.9566 H   0  0  0  0  0  0  0  0  0  0  0  0
   -2.3510    4.3365   -1.3979 H   0  0  0  0  0  0  0  0  0  0  0  0
   -1.8997    4.5311    0.3074 H   0  0  0  0  0  0  0  0  0  0  0  0
  1  2  1  0  0  0  0
  2  3  1  0  0  0  0
  2  4  1  0  0  0  0
  2  5  1  0  0  0  0
  5  6  2  0  0  0  0
  5  7  1  0  0  0  0
  7  8  1  0  0  0  0
  7  9  1  0  0  0  0
  9 10  1  0  0  0  0
  9 11  1  0  0  0  0
  9 21  1  0  0  0  0
 11 12  1  0  0  0  0
 11 13  1  0  0  0  0
 11 14  1  0  0  0  0
 14 15  1  0  0  0  0
 14 16  1  0  0  0  0
 14 17  1  0  0  0  0
 17 18  2  0  0  0  0
 17 19  1  0  0  0  0
 19 20  1  0  0  0  0
 21 22  2  0  0  0  0
 21 23  1  0  0  0  0
 23 24  1  0  0  0  0
 23 25  1  0  0  0  0
 25 26  1  0  0  0  0
 25 27  1  0  0  0  0
 25 28  1  0  0  0  0
M  END
$$$$

  -OEChem-01062216073D

 28 27  0     1  0  0  0  0  0999 V2000
   -3.2167   -2.9807    1.4036 H   0  0  0  0  0  0  0  0  0  0  0  0
   -3.2193   -2.0106    0.8984 C   0  0  0  0  0  0  0  0  0  0  0  0
   -3.9384   -1.3569    1.3977 H   0  0  0  0  0  0  0  0  0  0  0  0
   -3.5266   -2.1567   -0.1398 H   0  0  0  0  0  0  0  0  0  0  0  0
   -1.8343   -1.3935    0.9481 C   0  0  0  0  0  0  0  0  0  0  0  0
   -0.9328   -1.9776    1.5243 O   0  0  0  0  0  0  0  0  0  0  0  0
   -1.6170   -0.1599    0.3642 N   0  0  0  0  0  0  0  0  0  0  0  0
   -2.4399    0.3217    0.0193 H   0  0  0  0  0  0  0  0  0  0  0  0
   -0.3250    0.5607    0.3850 C   0  0  1  0  0  0  0  0  0  0  0  0
    0.2256    0.3154    1.3011 H   0  0  0  0  0  0  0  0  0  0  0  0
    0.5327    0.1939   -0.8474 C   0  0  0  0  0  0  0  0  0  0  0  0
   -0.0468    0.3935   -1.7552 H   0  0  0  0  0  0  0  0  0  0  0  0
    1.4133    0.8471   -0.8696 H   0  0  0  0  0  0  0  0  0  0  0  0
    1.0219   -1.2693   -0.8679 C   0  0  0  0  0  0  0  0  0  0  0  0
    1.6206   -1.4645    0.0263 H   0  0  0  0  0  0  0  0  0  0  0  0
    0.1676   -1.9479   -0.8517 H   0  0  0  0  0  0  0  0  0  0  0  0
    1.8504   -1.6275   -2.1021 C   0  0  0  0  0  0  0  0  0  0  0  0
    1.9604   -0.8249   -3.0156 O   0  0  0  0  0  0  0  0  0  0  0  0
    2.4232   -2.8527   -2.1179 O   0  0  0  0  0  0  0  0  0  0  0  0
    2.9085   -2.9086   -2.9545 H   0  0  0  0  0  0  0  0  0  0  0  0
   -0.5092    2.0941    0.3599 C   0  0  0  0  0  0  0  0  0  0  0  0
    0.3095    2.8152    0.9105 O   0  0  0  0  0  0  0  0  0  0  0  0
   -1.5993    2.6747   -0.2685 N   0  0  0  0  0  0  0  0  0  0  0  0
   -2.1361    2.0836   -0.8927 H   0  0  0  0  0  0  0  0  0  0  0  0
   -1.7601    4.1207   -0.3785 C   0  0  0  0  0  0  0  0  0  0  0  0
   -0.9347    4.5556   -0.9522 H   0  0  0  0  0  0  0  0  0  0  0  0
   -2.6999    4.3605   -0.8852 H   0  0  0  0  0  0  0  0  0  0  0  0
   -1.7786    4.5813    0.6151 H   0  0  0  0  0  0  0  0  0  0  0  0
  1  2  1  0  0  0  0
  2  3  1  0  0  0  0
  2  4  1  0  0  0  0
  2  5  1  0  0  0  0
  5  6  2  0  0  0  0
  5  7  1  0  0  0  0
  7  8  1  0  0  0  0
  7  9  1  0  0  0  0
  9 10  1  0  0  0  0
  9 11  1  0  0  0  0
  9 21  1  0  0  0  0
 11 12  1  0  0  0  0
 11 13  1  0  0  0  0
 11 14  1  0  0  0  0
 14 15  1  0  0  0  0
 14 16  1  0  0  0  0
 14 17  1  0  0  0  0
 17 18  2  0  0  0  0
 17 19  1  0  0  0  0
 19 20  1  0  0  0  0
 21 22  2  0  0  0  0
 21 23  1  0  0  0  0
 23 24  1  0  0  0  0
 23 25  1  0  0  0  0
 25 26  1  0  0  0  0
 25 27  1  0  0  0  0
 25 28  1  0  0  0  0
M  END
$$$$

  -OEChem-01062216073D

 28 27  0     1  0  0  0  0  0999 V2000
   -3.0370   -3.0611    1.2661 H   0  0  0  0  0  0  0  0  0  0  0  0
   -3.0702   -2.1030    0.7393 C   0  0  0  0  0  0  0  0  0  0  0  0
   -3.9453   -1.5449    1.0806 H   0  0  0  0  0  0  0  0  0  0  0  0
   -3.1620   -2.2957   -0.3322 H   0  0  0  0  0  0  0  0  0  0  0  0
   -1.8073   -1.3104    1.0192 C   0  0  0  0  0  0  0  0  0  0  0  0
   -0.9655   -1.7596    1.7776 O   0  0  0  0  0  0  0  0  0  0  0  0
   -1.6205   -0.0851    0.4076 N   0  0  0  0  0  0  0  0  0  0  0  0
   -2.2816    0.1254   -0.3332 H   0  0  0  0  0  0  0  0  0  0  0  0
   -0.3200    0.6219    0.3746 C   0  0  1  0  0  0  0  0  0  0  0  0
    0.2537    0.3926    1.2802 H   0  0  0  0  0  0  0  0  0  0  0  0
    0.4986    0.1922   -0.8652 C   0  0  0  0  0  0  0  0  0  0  0  0
   -0.0997    0.3683   -1.7657 H   0  0  0  0  0  0  0  0  0  0  0  0
    1.3908    0.8256   -0.9379 H   0  0  0  0  0  0  0  0  0  0  0  0
    0.9621   -1.2806   -0.8309 C   0  0  0  0  0  0  0  0  0  0  0  0
    1.5836   -1.4425    0.0546 H   0  0  0  0  0  0  0  0  0  0  0  0
    0.1002   -1.9454   -0.7575 H   0  0  0  0  0  0  0  0  0  0  0  0
    1.7519   -1.7110   -2.0677 C   0  0  0  0  0  0  0  0  0  0  0  0
    1.8534   -0.9554   -3.0208 O   0  0  0  0  0  0  0  0  0  0  0  0
    2.2976   -2.9483   -2.0403 O   0  0  0  0  0  0  0  0  0  0  0  0
    2.7625   -3.0521   -2.8841 H   0  0  0  0  0  0  0  0  0  0  0  0
   -0.4827    2.1598    0.3403 C   0  0  0  0  0  0  0  0  0  0  0  0
    0.4942    2.8808    0.4842 O   0  0  0  0  0  0  0  0  0  0  0  0
   -1.7004    2.7451    0.0369 N   0  0  0  0  0  0  0  0  0  0  0  0
   -2.5163    2.1464    0.0906 H   0  0  0  0  0  0  0  0  0  0  0  0
   -1.8968    4.1904    0.0081 C   0  0  0  0  0  0  0  0  0  0  0  0
   -1.2191    4.6557   -0.7157 H   0  0  0  0  0  0  0  0  0  0  0  0
   -2.9245    4.4275   -0.2830 H   0  0  0  0  0  0  0  0  0  0  0  0
   -1.7064    4.6234    0.9957 H   0  0  0  0  0  0  0  0  0  0  0  0
  1  2  1  0  0  0  0
  2  3  1  0  0  0  0
  2  4  1  0  0  0  0
  2  5  1  0  0  0  0
  5  6  2  0  0  0  0
  5  7  1  0  0  0  0
  7  8  1  0  0  0  0
  7  9  1  0  0  0  0
  9 10  1  0  0  0  0
  9 11  1  0  0  0  0
  9 21  1  0  0  0  0
 11 12  1  0  0  0  0
 11 13  1  0  0  0  0
 11 14  1  0  0  0  0
 14 15  1  0  0  0  0
 14 16  1  0  0  0  0
 14 17  1  0  0  0  0
 17 18  2  0  0  0  0
 17 19  1  0  0  0  0
 19 20  1  0  0  0  0
 21 22  2  0  0  0  0
 21 23  1  0  0  0  0
 23 24  1  0  0  0  0
 23 25  1  0  0  0  0
 25 26  1  0  0  0  0
 25 27  1  0  0  0  0
 25 28  1  0  0  0  0
M  END
$$$$

  -OEChem-01062216073D

 28 27  0     1  0  0  0  0  0999 V2000
   -3.0317   -3.0583    1.2214 H   0  0  0  0  0  0  0  0  0  0  0  0
   -3.0718   -2.0855    0.7228 C   0  0  0  0  0  0  0  0  0  0  0  0
   -3.9405   -1.5361    1.0937 H   0  0  0  0  0  0  0  0  0  0  0  0
   -3.1811   -2.2474   -0.3523 H   0  0  0  0  0  0  0  0  0  0  0  0
   -1.8035   -1.3027    1.0050 C   0  0  0  0  0  0  0  0  0  0  0  0
   -0.9674   -1.7549    1.7679 O   0  0  0  0  0  0  0  0  0  0  0  0
   -1.6086   -0.0759    0.3997 N   0  0  0  0  0  0  0  0  0  0  0  0
   -2.2736    0.1529   -0.3335 H   0  0  0  0  0  0  0  0  0  0  0  0
   -0.3057    0.6267    0.3675 C   0  0  1  0  0  0  0  0  0  0  0  0
    0.2675    0.3971    1.2729 H   0  0  0  0  0  0  0  0  0  0  0  0
    0.5108    0.1878   -0.8723 C   0  0  0  0  0  0  0  0  0  0  0  0
   -0.0882    0.3634   -1.7724 H   0  0  0  0  0  0  0  0  0  0  0  0
    1.4071    0.8142   -0.9511 H   0  0  0  0  0  0  0  0  0  0  0  0
    0.9669   -1.2872   -0.8330 C   0  0  0  0  0  0  0  0  0  0  0  0
    1.5875   -1.4502    0.0529 H   0  0  0  0  0  0  0  0  0  0  0  0
    0.1016   -1.9473   -0.7592 H   0  0  0  0  0  0  0  0  0  0  0  0
    1.7539   -1.7254   -2.0686 C   0  0  0  0  0  0  0  0  0  0  0  0
    1.8593   -0.9743   -3.0248 O   0  0  0  0  0  0  0  0  0  0  0  0
    2.2948   -2.9645   -2.0358 O   0  0  0  0  0  0  0  0  0  0  0  0
    2.7588   -3.0733   -2.8795 H   0  0  0  0  0  0  0  0  0  0  0  0
   -0.4798    2.1652    0.3400 C   0  0  0  0  0  0  0  0  0  0  0  0
    0.4920    2.9021    0.2486 O   0  0  0  0  0  0  0  0  0  0  0  0
   -1.7428    2.7322    0.3486 N   0  0  0  0  0  0  0  0  0  0  0  0
   -2.5054    2.1180    0.6146 H   0  0  0  0  0  0  0  0  0  0  0  0
   -1.9626    4.1740    0.3802 C   0  0  0  0  0  0  0  0  0  0  0  0
   -1.4852    4.6539   -0.4809 H   0  0  0  0  0  0  0  0  0  0  0  0
   -3.0337    4.3950    0.3454 H   0  0  0  0  0  0  0  0  0  0  0  0
   -1.5476    4.6052    1.2973 H   0  0  0  0  0  0  0  0  0  0  0  0
  1  2  1  0  0  0  0
  2  3  1  0  0  0  0
  2  4  1  0  0  0  0
  2  5  1  0  0  0  0
  5  6  2  0  0  0  0
  5  7  1  0  0  0  0
  7  8  1  0  0  0  0
  7  9  1  0  0  0  0
  9 10  1  0  0  0  0
  9 11  1  0  0  0  0
  9 21  1  0  0  0  0
 11 12  1  0  0  0  0
 11 13  1  0  0  0  0
 11 14  1  0  0  0  0
 14 15  1  0  0  0  0
 14 16  1  0  0  0  0
 14 17  1  0  0  0  0
 17 18  2  0  0  0  0
 17 19  1  0  0  0  0
 19 20  1  0  0  0  0
 21 22  2  0  0  0  0
 21 23  1  0  0  0  0
 23 24  1  0  0  0  0
 23 25  1  0  0  0  0
 25 26  1  0  0  0  0
 25 27  1  0  0  0  0
 25 28  1  0  0  0  0
M  END
$$$$

  -OEChem-01062216073D

 28 27  0     1  0  0  0  0  0999 V2000
   -3.0494   -3.0355    1.2020 H   0  0  0  0  0  0  0  0  0  0  0  0
   -3.0844   -2.0560    0.7162 C   0  0  0  0  0  0  0  0  0  0  0  0
   -3.9405   -1.5003    1.1062 H   0  0  0  0  0  0  0  0  0  0  0  0
   -3.2120   -2.2030   -0.3591 H   0  0  0  0  0  0  0  0  0  0  0  0
   -1.8020   -1.2929    0.9889 C   0  0  0  0  0  0  0  0  0  0  0  0
   -0.9678   -1.7564    1.7470 O   0  0  0  0  0  0  0  0  0  0  0  0
   -1.5953   -0.0644    0.3919 N   0  0  0  0  0  0  0  0  0  0  0  0
   -2.2744    0.1956   -0.3185 H   0  0  0  0  0  0  0  0  0  0  0  0
   -0.2890    0.6310    0.3590 C   0  0  1  0  0  0  0  0  0  0  0  0
    0.2826    0.3996    1.2646 H   0  0  0  0  0  0  0  0  0  0  0  0
    0.5274    0.1835   -0.8796 C   0  0  0  0  0  0  0  0  0  0  0  0
   -0.0687    0.3616   -1.7813 H   0  0  0  0  0  0  0  0  0  0  0  0
    1.4291    0.8021   -0.9587 H   0  0  0  0  0  0  0  0  0  0  0  0
    0.9764   -1.2940   -0.8368 C   0  0  0  0  0  0  0  0  0  0  0  0
    1.5950   -1.4585    0.0503 H   0  0  0  0  0  0  0  0  0  0  0  0
    0.1078   -1.9496   -0.7625 H   0  0  0  0  0  0  0  0  0  0  0  0
    1.7625   -1.7388   -2.0710 C   0  0  0  0  0  0  0  0  0  0  0  0
    1.8725   -0.9904   -3.0286 O   0  0  0  0  0  0  0  0  0  0  0  0
    2.2980   -2.9801   -2.0350 O   0  0  0  0  0  0  0  0  0  0  0  0
    2.7611   -3.0927   -2.8787 H   0  0  0  0  0  0  0  0  0  0  0  0
   -0.4774    2.1696    0.3411 C   0  0  0  0  0  0  0  0  0  0  0  0
    0.4304    2.9211    0.0133 O   0  0  0  0  0  0  0  0  0  0  0  0
   -1.7046    2.7206    0.6667 N   0  0  0  0  0  0  0  0  0  0  0  0
   -2.3795    2.0898    1.0886 H   0  0  0  0  0  0  0  0  0  0  0  0
   -1.9356    4.1583    0.7521 C   0  0  0  0  0  0  0  0  0  0  0  0
   -1.7062    4.6417   -0.2037 H   0  0  0  0  0  0  0  0  0  0  0  0
   -2.9831    4.3598    0.9955 H   0  0  0  0  0  0  0  0  0  0  0  0
   -1.3059    4.6022    1.5304 H   0  0  0  0  0  0  0  0  0  0  0  0
  1  2  1  0  0  0  0
  2  3  1  0  0  0  0
  2  4  1  0  0  0  0
  2  5  1  0  0  0  0
  5  6  2  0  0  0  0
  5  7  1  0  0  0  0
  7  8  1  0  0  0  0
  7  9  1  0  0  0  0
  9 10  1  0  0  0  0
  9 11  1  0  0  0  0
  9 21  1  0  0  0  0
 11 12  1  0  0  0  0
 11 13  1  0  0  0  0
 11 14  1  0  0  0  0
 14 15  1  0  0  0  0
 14 16  1  0  0  0  0
 14 17  1  0  0  0  0
 17 18  2  0  0  0  0
 17 19  1  0  0  0  0
 19 20  1  0  0  0  0
 21 22  2  0  0  0  0
 21 23  1  0  0  0  0
 23 24  1  0  0  0  0
 23 25  1  0  0  0  0
 25 26  1  0  0  0  0
 25 27  1  0  0  0  0
 25 28  1  0  0  0  0
M  END
$$$$

  -OEChem-01062216073D

 28 27  0     1  0  0  0  0  0999 V2000
   -3.0728   -3.0081    1.1953 H   0  0  0  0  0  0  0  0  0  0  0  0
   -3.0967   -2.0277    0.7112 C   0  0  0  0  0  0  0  0  0  0  0  0
   -3.9432   -1.4607    1.1061 H   0  0  0  0  0  0  0  0  0  0  0  0
   -3.2313   -2.1715   -0.3637 H   0  0  0  0  0  0  0  0  0  0  0  0
   -1.8024   -1.2830    0.9781 C   0  0  0  0  0  0  0  0  0  0  0  0
   -0.9685   -1.7601    1.7284 O   0  0  0  0  0  0  0  0  0  0  0  0
   -1.5846   -0.0522    0.3907 N   0  0  0  0  0  0  0  0  0  0  0  0
   -2.2783    0.2395   -0.2932 H   0  0  0  0  0  0  0  0  0  0  0  0
   -0.2741    0.6332    0.3554 C   0  0  1  0  0  0  0  0  0  0  0  0
    0.2978    0.3966    1.2594 H   0  0  0  0  0  0  0  0  0  0  0  0
    0.5422    0.1820   -0.8827 C   0  0  0  0  0  0  0  0  0  0  0  0
   -0.0509    0.3652   -1.7855 H   0  0  0  0  0  0  0  0  0  0  0  0
    1.4476    0.7953   -0.9580 H   0  0  0  0  0  0  0  0  0  0  0  0
    0.9834   -1.2977   -0.8406 C   0  0  0  0  0  0  0  0  0  0  0  0
    1.5989   -1.4671    0.0476 H   0  0  0  0  0  0  0  0  0  0  0  0
    0.1107   -1.9481   -0.7692 H   0  0  0  0  0  0  0  0  0  0  0  0
    1.7692   -1.7463   -2.0737 C   0  0  0  0  0  0  0  0  0  0  0  0
    1.8854   -0.9988   -3.0312 O   0  0  0  0  0  0  0  0  0  0  0  0
    2.2986   -2.9902   -2.0363 O   0  0  0  0  0  0  0  0  0  0  0  0
    2.7609   -3.1051   -2.8802 H   0  0  0  0  0  0  0  0  0  0  0  0
   -0.4721    2.1709    0.3505 C   0  0  0  0  0  0  0  0  0  0  0  0
    0.3073    2.9265   -0.2136 O   0  0  0  0  0  0  0  0  0  0  0  0
   -1.5791    2.7157    0.9766 N   0  0  0  0  0  0  0  0  0  0  0  0
   -2.1459    2.0779    1.5285 H   0  0  0  0  0  0  0  0  0  0  0  0
   -1.8128    4.1510    1.0879 C   0  0  0  0  0  0  0  0  0  0  0  0
   -1.8629    4.6099    0.0947 H   0  0  0  0  0  0  0  0  0  0  0  0
   -2.7589    4.3422    1.6032 H   0  0  0  0  0  0  0  0  0  0  0  0
   -1.0060    4.6278    1.6547 H   0  0  0  0  0  0  0  0  0  0  0  0
  1  2  1  0  0  0  0
  2  3  1  0  0  0  0
  2  4  1  0  0  0  0
  2  5  1  0  0  0  0
  5  6  2  0  0  0  0
  5  7  1  0  0  0  0
  7  8  1  0  0  0  0
  7  9  1  0  0  0  0
  9 10  1  0  0  0  0
  9 11  1  0  0  0  0
  9 21  1  0  0  0  0
 11 12  1  0  0  0  0
 11 13  1  0  0  0  0
 11 14  1  0  0  0  0
 14 15  1  0  0  0  0
 14 16  1  0  0  0  0
 14 17  1  0  0  0  0
 17 18  2  0  0  0  0
 17 19  1  0  0  0  0
 19 20  1  0  0  0  0
 21 22  2  0  0  0  0
 21 23  1  0  0  0  0
 23 24  1  0  0  0  0
 23 25  1  0  0  0  0
 25 26  1  0  0  0  0
 25 27  1  0  0  0  0
 25 28  1  0  0  0  0
M  END
$$$$

  -OEChem-01062216073D

 28 27  0     1  0  0  0  0  0999 V2000
   -3.1080   -2.9702    1.1994 H   0  0  0  0  0  0  0  0  0  0  0  0
   -3.1147   -1.9897    0.7146 C   0  0  0  0  0  0  0  0  0  0  0  0
   -3.9454   -1.4041    1.1158 H   0  0  0  0  0  0  0  0  0  0  0  0
   -3.2609   -2.1308   -0.3591 H   0  0  0  0  0  0  0  0  0  0  0  0
   -1.8027   -1.2728    0.9699 C   0  0  0  0  0  0  0  0  0  0  0  0
   -0.9688   -1.7691    1.7080 O   0  0  0  0  0  0  0  0  0  0  0  0
   -1.5702   -0.0406    0.3924 N   0  0  0  0  0  0  0  0  0  0  0  0
   -2.2740    0.2816   -0.2673 H   0  0  0  0  0  0  0  0  0  0  0  0
   -0.2547    0.6313    0.3564 C   0  0  1  0  0  0  0  0  0  0  0  0
    0.3178    0.3863    1.2576 H   0  0  0  0  0  0  0  0  0  0  0  0
    0.5612    0.1823   -0.8824 C   0  0  0  0  0  0  0  0  0  0  0  0
   -0.0298    0.3727   -1.7852 H   0  0  0  0  0  0  0  0  0  0  0  0
    1.4686    0.7935   -0.9523 H   0  0  0  0  0  0  0  0  0  0  0  0
    0.9919   -1.3006   -0.8463 C   0  0  0  0  0  0  0  0  0  0  0  0
    1.6028   -1.4791    0.0431 H   0  0  0  0  0  0  0  0  0  0  0  0
    0.1135   -1.9441   -0.7806 H   0  0  0  0  0  0  0  0  0  0  0  0
    1.7778   -1.7504   -2.0787 C   0  0  0  0  0  0  0  0  0  0  0  0
    1.9028   -1.0007   -3.0332 O   0  0  0  0  0  0  0  0  0  0  0  0
    2.2990   -2.9979   -2.0430 O   0  0  0  0  0  0  0  0  0  0  0  0
    2.7612   -3.1146   -2.8867 H   0  0  0  0  0  0  0  0  0  0  0  0
   -0.4566    2.1670    0.3645 C   0  0  0  0  0  0  0  0  0  0  0  0
    0.1267    2.9124   -0.4110 O   0  0  0  0  0  0  0  0  0  0  0  0
   -1.3678    2.7165    1.2479 N   0  0  0  0  0  0  0  0  0  0  0  0
   -1.8032    2.0806    1.9106 H   0  0  0  0  0  0  0  0  0  0  0  0
   -1.6166    4.1485    1.3652 C   0  0  0  0  0  0  0  0  0  0  0  0
   -1.9577    4.5586    0.4087 H   0  0  0  0  0  0  0  0  0  0  0  0
   -2.3891    4.3383    2.1165 H   0  0  0  0  0  0  0  0  0  0  0  0
   -0.7034    4.6723    1.6670 H   0  0  0  0  0  0  0  0  0  0  0  0
  1  2  1  0  0  0  0
  2  3  1  0  0  0  0
  2  4  1  0  0  0  0
  2  5  1  0  0  0  0
  5  6  2  0  0  0  0
  5  7  1  0  0  0  0
  7  8  1  0  0  0  0
  7  9  1  0  0  0  0
  9 10  1  0  0  0  0
  9 11  1  0  0  0  0
  9 21  1  0  0  0  0
 11 12  1  0  0  0  0
 11 13  1  0  0  0  0
 11 14  1  0  0  0  0
 14 15  1  0  0  0  0
 14 16  1  0  0  0  0
 14 17  1  0  0  0  0
 17 18  2  0  0  0  0
 17 19  1  0  0  0  0
 19 20  1  0  0  0  0
 21 22  2  0  0  0  0
 21 23  1  0  0  0  0
 23 24  1  0  0  0  0
 23 25  1  0  0  0  0
 25 26  1  0  0  0  0
 25 27  1  0  0  0  0
 25 28  1  0  0  0  0
M  END
$$$$

  -OEChem-01062216073D

 28 27  0     1  0  0  0  0  0999 V2000
   -3.1279   -2.9476    1.2007 H   0  0  0  0  0  0  0  0  0  0  0  0
   -3.1233   -1.9677    0.7147 C   0  0  0  0  0  0  0  0  0  0  0  0
   -3.9463   -1.3714    1.1160 H   0  0  0  0  0  0  0  0  0  0  0  0
   -3.2722   -2.1078   -0.3587 H   0  0  0  0  0  0  0  0  0  0  0  0
   -1.8029   -1.2658    0.9677 C   0  0  0  0  0  0  0  0  0  0  0  0
   -0.9702   -1.7745    1.6994 O   0  0  0  0  0  0  0  0  0  0  0  0
   -1.5603   -0.0329    0.3968 N   0  0  0  0  0  0  0  0  0  0  0  0
   -2.2663    0.3064   -0.2521 H   0  0  0  0  0  0  0  0  0  0  0  0
   -0.2412    0.6280    0.3635 C   0  0  1  0  0  0  0  0  0  0  0  0
    0.3310    0.3736    1.2622 H   0  0  0  0  0  0  0  0  0  0  0  0
    0.5728    0.1826   -0.8767 C   0  0  0  0  0  0  0  0  0  0  0  0
   -0.0175    0.3790   -1.7788 H   0  0  0  0  0  0  0  0  0  0  0  0
    1.4806    0.7934   -0.9425 H   0  0  0  0  0  0  0  0  0  0  0  0
    0.9938   -1.3032   -0.8491 C   0  0  0  0  0  0  0  0  0  0  0  0
    1.6034   -1.4908    0.0393 H   0  0  0  0  0  0  0  0  0  0  0  0
    0.1112   -1.9417   -0.7881 H   0  0  0  0  0  0  0  0  0  0  0  0
    1.7783   -1.7510   -2.0828 C   0  0  0  0  0  0  0  0  0  0  0  0
    1.9098   -0.9967   -3.0329 O   0  0  0  0  0  0  0  0  0  0  0  0
    2.2922   -3.0018   -2.0526 O   0  0  0  0  0  0  0  0  0  0  0  0
    2.7539   -3.1173   -2.8967 H   0  0  0  0  0  0  0  0  0  0  0  0
   -0.4370    2.1627    0.3797 C   0  0  0  0  0  0  0  0  0  0  0  0
   -0.0873    2.8798   -0.5484 O   0  0  0  0  0  0  0  0  0  0  0  0
   -1.0915    2.7389    1.4524 N   0  0  0  0  0  0  0  0  0  0  0  0
   -1.3833    2.1187    2.2031 H   0  0  0  0  0  0  0  0  0  0  0  0
   -1.3491    4.1694    1.5681 C   0  0  0  0  0  0  0  0  0  0  0  0
   -1.9590    4.5186    0.7282 H   0  0  0  0  0  0  0  0  0  0  0  0
   -1.8863    4.3836    2.4971 H   0  0  0  0  0  0  0  0  0  0  0  0
   -0.4075    4.7287    1.5762 H   0  0  0  0  0  0  0  0  0  0  0  0
  1  2  1  0  0  0  0
  2  3  1  0  0  0  0
  2  4  1  0  0  0  0
  2  5  1  0  0  0  0
  5  6  2  0  0  0  0
  5  7  1  0  0  0  0
  7  8  1  0  0  0  0
  7  9  1  0  0  0  0
  9 10  1  0  0  0  0
  9 11  1  0  0  0  0
  9 21  1  0  0  0  0
 11 12  1  0  0  0  0
 11 13  1  0  0  0  0
 11 14  1  0  0  0  0
 14 15  1  0  0  0  0
 14 16  1  0  0  0  0
 14 17  1  0  0  0  0
 17 18  2  0  0  0  0
 17 19  1  0  0  0  0
 19 20  1  0  0  0  0
 21 22  2  0  0  0  0
 21 23  1  0  0  0  0
 23 24  1  0  0  0  0
 23 25  1  0  0  0  0
 25 26  1  0  0  0  0
 25 27  1  0  0  0  0
 25 28  1  0  0  0  0
M  END
$$$$

  -OEChem-01062216073D

 28 27  0     1  0  0  0  0  0999 V2000
   -3.1459   -2.9307    1.2025 H   0  0  0  0  0  0  0  0  0  0  0  0
   -3.1333   -1.9501    0.7182 C   0  0  0  0  0  0  0  0  0  0  0  0
   -3.9496   -1.3468    1.1228 H   0  0  0  0  0  0  0  0  0  0  0  0
   -3.2864   -2.0869   -0.3550 H   0  0  0  0  0  0  0  0  0  0  0  0
   -1.8053   -1.2618    0.9687 C   0  0  0  0  0  0  0  0  0  0  0  0
   -0.9731   -1.7829    1.6928 O   0  0  0  0  0  0  0  0  0  0  0  0
   -1.5514   -0.0300    0.4008 N   0  0  0  0  0  0  0  0  0  0  0  0
   -2.2572    0.3262   -0.2396 H   0  0  0  0  0  0  0  0  0  0  0  0
   -0.2292    0.6212    0.3728 C   0  0  1  0  0  0  0  0  0  0  0  0
    0.3416    0.3568    1.2694 H   0  0  0  0  0  0  0  0  0  0  0  0
    0.5844    0.1828   -0.8690 C   0  0  0  0  0  0  0  0  0  0  0  0
   -0.0051    0.3863   -1.7703 H   0  0  0  0  0  0  0  0  0  0  0  0
    1.4926    0.7932   -0.9299 H   0  0  0  0  0  0  0  0  0  0  0  0
    0.9961   -1.3056   -0.8520 C   0  0  0  0  0  0  0  0  0  0  0  0
    1.6010   -1.5049    0.0369 H   0  0  0  0  0  0  0  0  0  0  0  0
    0.1083   -1.9377   -0.7980 H   0  0  0  0  0  0  0  0  0  0  0  0
    1.7809   -1.7491   -2.0872 C   0  0  0  0  0  0  0  0  0  0  0  0
    1.9197   -0.9885   -3.0310 O   0  0  0  0  0  0  0  0  0  0  0  0
    2.2864   -3.0034   -2.0656 O   0  0  0  0  0  0  0  0  0  0  0  0
    2.7470   -3.1163   -2.9107 H   0  0  0  0  0  0  0  0  0  0  0  0
   -0.4138    2.1556    0.3905 C   0  0  0  0  0  0  0  0  0  0  0  0
   -0.3316    2.8300   -0.6276 O   0  0  0  0  0  0  0  0  0  0  0  0
   -0.7745    2.7743    1.5727 N   0  0  0  0  0  0  0  0  0  0  0  0
   -0.9007    2.1806    2.3881 H   0  0  0  0  0  0  0  0  0  0  0  0
   -1.0368    4.2040    1.6864 C   0  0  0  0  0  0  0  0  0  0  0  0
   -1.8660    4.4953    1.0330 H   0  0  0  0  0  0  0  0  0  0  0  0
   -1.3024    4.4595    2.7167 H   0  0  0  0  0  0  0  0  0  0  0  0
   -0.1486    4.7799    1.4057 H   0  0  0  0  0  0  0  0  0  0  0  0
  1  2  1  0  0  0  0
  2  3  1  0  0  0  0
  2  4  1  0  0  0  0
  2  5  1  0  0  0  0
  5  6  2  0  0  0  0
  5  7  1  0  0  0  0
  7  8  1  0  0  0  0
  7  9  1  0  0  0  0
  9 10  1  0  0  0  0
  9 11  1  0  0  0  0
  9 21  1  0  0  0  0
 11 12  1  0  0  0  0
 11 13  1  0  0  0  0
 11 14  1  0  0  0  0
 14 15  1  0  0  0  0
 14 16  1  0  0  0  0
 14 17  1  0  0  0  0
 17 18  2  0  0  0  0
 17 19  1  0  0  0  0
 19 20  1  0  0  0  0
 21 22  2  0  0  0  0
 21 23  1  0  0  0  0
 23 24  1  0  0  0  0
 23 25  1  0  0  0  0
 25 26  1  0  0  0  0
 25 27  1  0  0  0  0
 25 28  1  0  0  0  0
M  END
$$$$

  -OEChem-01062216073D

 28 27  0     1  0  0  0  0  0999 V2000
   -3.1829   -2.9059    1.2181 H   0  0  0  0  0  0  0  0  0  0  0  0
   -3.1572   -1.9248    0.7356 C   0  0  0  0  0  0  0  0  0  0  0  0
   -3.9539   -1.3051    1.1542 H   0  0  0  0  0  0  0  0  0  0  0  0
   -3.3307   -2.0554   -0.3353 H   0  0  0  0  0  0  0  0  0  0  0  0
   -1.8111   -1.2648    0.9655 C   0  0  0  0  0  0  0  0  0  0  0  0
   -0.9761   -1.8063    1.6717 O   0  0  0  0  0  0  0  0  0  0  0  0
   -1.5430   -0.0356    0.3990 N   0  0  0  0  0  0  0  0  0  0  0  0
   -2.2547    0.3471   -0.2197 H   0  0  0  0  0  0  0  0  0  0  0  0
   -0.2186    0.6083    0.3773 C   0  0  1  0  0  0  0  0  0  0  0  0
    0.3481    0.3350    1.2737 H   0  0  0  0  0  0  0  0  0  0  0  0
    0.5982    0.1800   -0.8645 C   0  0  0  0  0  0  0  0  0  0  0  0
    0.0112    0.3908   -1.7659 H   0  0  0  0  0  0  0  0  0  0  0  0
    1.5070    0.7903   -0.9179 H   0  0  0  0  0  0  0  0  0  0  0  0
    1.0046   -1.3097   -0.8583 C   0  0  0  0  0  0  0  0  0  0  0  0
    1.6047   -1.5193    0.0315 H   0  0  0  0  0  0  0  0  0  0  0  0
    0.1138   -1.9383   -0.8135 H   0  0  0  0  0  0  0  0  0  0  0  0
    1.7934   -1.7443   -2.0940 C   0  0  0  0  0  0  0  0  0  0  0  0
    1.9383   -0.9751   -3.0301 O   0  0  0  0  0  0  0  0  0  0  0  0
    2.2994   -2.9986   -2.0803 O   0  0  0  0  0  0  0  0  0  0  0  0
    2.7623   -3.1052   -2.9249 H   0  0  0  0  0  0  0  0  0  0  0  0
   -0.3939    2.1422    0.3919 C   0  0  0  0  0  0  0  0  0  0  0  0
   -0.5958    2.7664   -0.6417 O   0  0  0  0  0  0  0  0  0  0  0  0
   -0.4465    2.8122    1.5998 N   0  0  0  0  0  0  0  0  0  0  0  0
   -0.3663    2.2555    2.4463 H   0  0  0  0  0  0  0  0  0  0  0  0
   -0.7066    4.2425    1.7138 C   0  0  0  0  0  0  0  0  0  0  0  0
   -1.6839    4.4901    1.2859 H   0  0  0  0  0  0  0  0  0  0  0  0
   -0.7029    4.5455    2.7653 H   0  0  0  0  0  0  0  0  0  0  0  0
    0.0640    4.8151    1.1867 H   0  0  0  0  0  0  0  0  0  0  0  0
  1  2  1  0  0  0  0
  2  3  1  0  0  0  0
  2  4  1  0  0  0  0
  2  5  1  0  0  0  0
  5  6  2  0  0  0  0
  5  7  1  0  0  0  0
  7  8  1  0  0  0  0
  7  9  1  0  0  0  0
  9 10  1  0  0  0  0
  9 11  1  0  0  0  0
  9 21  1  0  0  0  0
 11 12  1  0  0  0  0
 11 13  1  0  0  0  0
 11 14  1  0  0  0  0
 14 15  1  0  0  0  0
 14 16  1  0  0  0  0
 14 17  1  0  0  0  0
 17 18  2  0  0  0  0
 17 19  1  0  0  0  0
 19 20  1  0  0  0  0
 21 22  2  0  0  0  0
 21 23  1  0  0  0  0
 23 24  1  0  0  0  0
 23 25  1  0  0  0  0
 25 26  1  0  0  0  0
 25 27  1  0  0  0  0
 25 28  1  0  0  0  0
M  END
$$$$

  -OEChem-01062216073D

 28 27  0     1  0  0  0  0  0999 V2000
   -3.2153   -2.8820    1.2409 H   0  0  0  0  0  0  0  0  0  0  0  0
   -3.1749   -1.9068    0.7476 C   0  0  0  0  0  0  0  0  0  0  0  0
   -3.9572   -1.2681    1.1644 H   0  0  0  0  0  0  0  0  0  0  0  0
   -3.3572   -2.0459   -0.3208 H   0  0  0  0  0  0  0  0  0  0  0  0
   -1.8161   -1.2684    0.9627 C   0  0  0  0  0  0  0  0  0  0  0  0
   -0.9801   -1.8254    1.6561 O   0  0  0  0  0  0  0  0  0  0  0  0
   -1.5353   -0.0434    0.3942 N   0  0  0  0  0  0  0  0  0  0  0  0
   -2.2535    0.3671   -0.1995 H   0  0  0  0  0  0  0  0  0  0  0  0
   -0.2103    0.5970    0.3811 C   0  0  1  0  0  0  0  0  0  0  0  0
    0.3489    0.3199    1.2810 H   0  0  0  0  0  0  0  0  0  0  0  0
    0.6093    0.1781   -0.8598 C   0  0  0  0  0  0  0  0  0  0  0  0
    0.0248    0.3971   -1.7609 H   0  0  0  0  0  0  0  0  0  0  0  0
    1.5194    0.7864   -0.9060 H   0  0  0  0  0  0  0  0  0  0  0  0
    1.0116   -1.3124   -0.8625 C   0  0  0  0  0  0  0  0  0  0  0  0
    1.6079   -1.5295    0.0282 H   0  0  0  0  0  0  0  0  0  0  0  0
    0.1184   -1.9385   -0.8253 H   0  0  0  0  0  0  0  0  0  0  0  0
    1.8042   -1.7402   -2.0980 C   0  0  0  0  0  0  0  0  0  0  0  0
    1.9547   -0.9641   -3.0275 O   0  0  0  0  0  0  0  0  0  0  0  0
    2.3062   -2.9960   -2.0921 O   0  0  0  0  0  0  0  0  0  0  0  0
    2.7702   -3.0991   -2.9366 H   0  0  0  0  0  0  0  0  0  0  0  0
   -0.3791    2.1306    0.3861 C   0  0  0  0  0  0  0  0  0  0  0  0
   -0.8420    2.7060   -0.5908 O   0  0  0  0  0  0  0  0  0  0  0  0
   -0.1335    2.8527    1.5392 N   0  0  0  0  0  0  0  0  0  0  0  0
    0.1545    2.3345    2.3646 H   0  0  0  0  0  0  0  0  0  0  0  0
   -0.3760    4.2859    1.6532 C   0  0  0  0  0  0  0  0  0  0  0  0
   -1.4373    4.5084    1.5008 H   0  0  0  0  0  0  0  0  0  0  0  0
   -0.0868    4.6411    2.6469 H   0  0  0  0  0  0  0  0  0  0  0  0
    0.2094    4.8342    0.9073 H   0  0  0  0  0  0  0  0  0  0  0  0
  1  2  1  0  0  0  0
  2  3  1  0  0  0  0
  2  4  1  0  0  0  0
  2  5  1  0  0  0  0
  5  6  2  0  0  0  0
  5  7  1  0  0  0  0
  7  8  1  0  0  0  0
  7  9  1  0  0  0  0
  9 10  1  0  0  0  0
  9 11  1  0  0  0  0
  9 21  1  0  0  0  0
 11 12  1  0  0  0  0
 11 13  1  0  0  0  0
 11 14  1  0  0  0  0
 14 15  1  0  0  0  0
 14 16  1  0  0  0  0
 14 17  1  0  0  0  0
 17 18  2  0  0  0  0
 17 19  1  0  0  0  0
 19 20  1  0  0  0  0
 21 22  2  0  0  0  0
 21 23  1  0  0  0  0
 23 24  1  0  0  0  0
 23 25  1  0  0  0  0
 25 26  1  0  0  0  0
 25 27  1  0  0  0  0
 25 28  1  0  0  0  0
M  END
$$$$

  -OEChem-01062216073D

 28 27  0     1  0  0  0  0  0999 V2000
   -3.2548   -2.8585    1.2747 H   0  0  0  0  0  0  0  0  0  0  0  0
   -3.2028   -1.8871    0.7753 C   0  0  0  0  0  0  0  0  0  0  0  0
   -3.9582   -1.2271    1.2084 H   0  0  0  0  0  0  0  0  0  0  0  0
   -3.4153   -2.0261   -0.2874 H   0  0  0  0  0  0  0  0  0  0  0  0
   -1.8239   -1.2812    0.9528 C   0  0  0  0  0  0  0  0  0  0  0  0
   -0.9809   -1.8602    1.6195 O   0  0  0  0  0  0  0  0  0  0  0  0
   -1.5333   -0.0597    0.3826 N   0  0  0  0  0  0  0  0  0  0  0  0
   -2.2657    0.3877   -0.1663 H   0  0  0  0  0  0  0  0  0  0  0  0
   -0.2102    0.5835    0.3791 C   0  0  1  0  0  0  0  0  0  0  0  0
    0.3402    0.3070    1.2843 H   0  0  0  0  0  0  0  0  0  0  0  0
    0.6173    0.1754   -0.8586 C   0  0  0  0  0  0  0  0  0  0  0  0
    0.0363    0.3993   -1.7609 H   0  0  0  0  0  0  0  0  0  0  0  0
    1.5262    0.7863   -0.8957 H   0  0  0  0  0  0  0  0  0  0  0  0
    1.0244   -1.3135   -0.8685 C   0  0  0  0  0  0  0  0  0  0  0  0
    1.6165   -1.5346    0.0238 H   0  0  0  0  0  0  0  0  0  0  0  0
    0.1330   -1.9428   -0.8400 H   0  0  0  0  0  0  0  0  0  0  0  0
    1.8255   -1.7302   -2.1024 C   0  0  0  0  0  0  0  0  0  0  0  0
    1.9782   -0.9466   -3.0254 O   0  0  0  0  0  0  0  0  0  0  0  0
    2.3335   -2.9836   -2.1019 O   0  0  0  0  0  0  0  0  0  0  0  0
    2.8013   -3.0803   -2.9450 H   0  0  0  0  0  0  0  0  0  0  0  0
   -0.3791    2.1165    0.3735 C   0  0  0  0  0  0  0  0  0  0  0  0
   -1.0581    2.6540   -0.4932 O   0  0  0  0  0  0  0  0  0  0  0  0
    0.1383    2.8837    1.4008 N   0  0  0  0  0  0  0  0  0  0  0  0
    0.6256    2.4004    2.1500 H   0  0  0  0  0  0  0  0  0  0  0  0
   -0.0636    4.3242    1.5026 C   0  0  0  0  0  0  0  0  0  0  0  0
   -1.1293    4.5553    1.6031 H   0  0  0  0  0  0  0  0  0  0  0  0
    0.4606    4.7191    2.3781 H   0  0  0  0  0  0  0  0  0  0  0  0
    0.3239    4.8297    0.6117 H   0  0  0  0  0  0  0  0  0  0  0  0
  1  2  1  0  0  0  0
  2  3  1  0  0  0  0
  2  4  1  0  0  0  0
  2  5  1  0  0  0  0
  5  6  2  0  0  0  0
  5  7  1  0  0  0  0
  7  8  1  0  0  0  0
  7  9  1  0  0  0  0
  9 10  1  0  0  0  0
  9 11  1  0  0  0  0
  9 21  1  0  0  0  0
 11 12  1  0  0  0  0
 11 13  1  0  0  0  0
 11 14  1  0  0  0  0
 14 15  1  0  0  0  0
 14 16  1  0  0  0  0
 14 17  1  0  0  0  0
 17 18  2  0  0  0  0
 17 19  1  0  0  0  0
 19 20  1  0  0  0  0
 21 22  2  0  0  0  0
 21 23  1  0  0  0  0
 23 24  1  0  0  0  0
 23 25  1  0  0  0  0
 25 26  1  0  0  0  0
 25 27  1  0  0  0  0
 25 28  1  0  0  0  0
M  END
$$$$

  -OEChem-01062216073D

 28 27  0     1  0  0  0  0  0999 V2000
   -3.2677   -2.8607    1.2724 H   0  0  0  0  0  0  0  0  0  0  0  0
   -3.2207   -1.8751    0.8008 C   0  0  0  0  0  0  0  0  0  0  0  0
   -3.9509   -1.2188    1.2805 H   0  0  0  0  0  0  0  0  0  0  0  0
   -3.4738   -1.9786   -0.2571 H   0  0  0  0  0  0  0  0  0  0  0  0
   -1.8276   -1.2929    0.9448 C   0  0  0  0  0  0  0  0  0  0  0  0
   -0.9775   -1.8902    1.5859 O   0  0  0  0  0  0  0  0  0  0  0  0
   -1.5318   -0.0740    0.3719 N   0  0  0  0  0  0  0  0  0  0  0  0
   -2.2808    0.4106   -0.1211 H   0  0  0  0  0  0  0  0  0  0  0  0
   -0.2118    0.5753    0.3765 C   0  0  1  0  0  0  0  0  0  0  0  0
    0.3323    0.3037    1.2872 H   0  0  0  0  0  0  0  0  0  0  0  0
    0.6210    0.1734   -0.8590 C   0  0  0  0  0  0  0  0  0  0  0  0
    0.0406    0.3967   -1.7618 H   0  0  0  0  0  0  0  0  0  0  0  0
    1.5278    0.7876   -0.8934 H   0  0  0  0  0  0  0  0  0  0  0  0
    1.0336   -1.3140   -0.8717 C   0  0  0  0  0  0  0  0  0  0  0  0
    1.6221   -1.5371    0.0226 H   0  0  0  0  0  0  0  0  0  0  0  0
    0.1433   -1.9454   -0.8492 H   0  0  0  0  0  0  0  0  0  0  0  0
    1.8403   -1.7236   -2.1043 C   0  0  0  0  0  0  0  0  0  0  0  0
    1.9925   -0.9358   -3.0240 O   0  0  0  0  0  0  0  0  0  0  0  0
    2.3544   -2.9745   -2.1067 O   0  0  0  0  0  0  0  0  0  0  0  0
    2.8236   -3.0666   -2.9495 H   0  0  0  0  0  0  0  0  0  0  0  0
   -0.3846    2.1084    0.3601 C   0  0  0  0  0  0  0  0  0  0  0  0
   -1.2417    2.6188   -0.3521 O   0  0  0  0  0  0  0  0  0  0  0  0
    0.3662    2.9116    1.1984 N   0  0  0  0  0  0  0  0  0  0  0  0
    1.0336    2.4576    1.8152 H   0  0  0  0  0  0  0  0  0  0  0  0
    0.2045    4.3589    1.2739 C   0  0  0  0  0  0  0  0  0  0  0  0
   -0.8227    4.6163    1.5531 H   0  0  0  0  0  0  0  0  0  0  0  0
    0.8811    4.7770    2.0254 H   0  0  0  0  0  0  0  0  0  0  0  0
    0.4333    4.8206    0.3075 H   0  0  0  0  0  0  0  0  0  0  0  0
  1  2  1  0  0  0  0
  2  3  1  0  0  0  0
  2  4  1  0  0  0  0
  2  5  1  0  0  0  0
  5  6  2  0  0  0  0
  5  7  1  0  0  0  0
  7  8  1  0  0  0  0
  7  9  1  0  0  0  0
  9 10  1  0  0  0  0
  9 11  1  0  0  0  0
  9 21  1  0  0  0  0
 11 12  1  0  0  0  0
 11 13  1  0  0  0  0
 11 14  1  0  0  0  0
 14 15  1  0  0  0  0
 14 16  1  0  0  0  0
 14 17  1  0  0  0  0
 17 18  2  0  0  0  0
 17 19  1  0  0  0  0
 19 20  1  0  0  0  0
 21 22  2  0  0  0  0
 21 23  1  0  0  0  0
 23 24  1  0  0  0  0
 23 25  1  0  0  0  0
 25 26  1  0  0  0  0
 25 27  1  0  0  0  0
 25 28  1  0  0  0  0
M  END
$$$$

  -OEChem-01062216073D

 28 27  0     1  0  0  0  0  0999 V2000
   -3.2913   -2.8446    1.3028 H   0  0  0  0  0  0  0  0  0  0  0  0
   -3.2368   -1.8649    0.8201 C   0  0  0  0  0  0  0  0  0  0  0  0
   -3.9457   -1.1913    1.3077 H   0  0  0  0  0  0  0  0  0  0  0  0
   -3.5127   -1.9749   -0.2314 H   0  0  0  0  0  0  0  0  0  0  0  0
   -1.8316   -1.3052    0.9303 C   0  0  0  0  0  0  0  0  0  0  0  0
   -0.9744   -1.9189    1.5461 O   0  0  0  0  0  0  0  0  0  0  0  0
   -1.5337   -0.0873    0.3570 N   0  0  0  0  0  0  0  0  0  0  0  0
   -2.2979    0.4322   -0.0744 H   0  0  0  0  0  0  0  0  0  0  0  0
   -0.2172    0.5692    0.3743 C   0  0  1  0  0  0  0  0  0  0  0  0
    0.3195    0.3029    1.2911 H   0  0  0  0  0  0  0  0  0  0  0  0
    0.6236    0.1715   -0.8576 C   0  0  0  0  0  0  0  0  0  0  0  0
    0.0461    0.3946   -1.7623 H   0  0  0  0  0  0  0  0  0  0  0  0
    1.5292    0.7876   -0.8876 H   0  0  0  0  0  0  0  0  0  0  0  0
    1.0430   -1.3139   -0.8736 C   0  0  0  0  0  0  0  0  0  0  0  0
    1.6267   -1.5386    0.0233 H   0  0  0  0  0  0  0  0  0  0  0  0
    0.1555   -1.9494   -0.8590 H   0  0  0  0  0  0  0  0  0  0  0  0
    1.8572   -1.7142   -2.1046 C   0  0  0  0  0  0  0  0  0  0  0  0
    2.0090   -0.9209   -3.0198 O   0  0  0  0  0  0  0  0  0  0  0  0
    2.3778   -2.9624   -2.1110 O   0  0  0  0  0  0  0  0  0  0  0  0
    2.8493   -3.0492   -2.9530 H   0  0  0  0  0  0  0  0  0  0  0  0
   -0.3942    2.1029    0.3502 C   0  0  0  0  0  0  0  0  0  0  0  0
   -1.3821    2.5985   -0.1812 O   0  0  0  0  0  0  0  0  0  0  0  0
    0.5367    2.9297    0.9517 N   0  0  0  0  0  0  0  0  0  0  0  0
    1.3303    2.4934    1.4120 H   0  0  0  0  0  0  0  0  0  0  0  0
    0.4113    4.3822    0.9836 C   0  0  0  0  0  0  0  0  0  0  0  0
   -0.5088    4.6760    1.4999 H   0  0  0  0  0  0  0  0  0  0  0  0
    1.2608    4.8249    1.5127 H   0  0  0  0  0  0  0  0  0  0  0  0
    0.3888    4.7877   -0.0336 H   0  0  0  0  0  0  0  0  0  0  0  0
  1  2  1  0  0  0  0
  2  3  1  0  0  0  0
  2  4  1  0  0  0  0
  2  5  1  0  0  0  0
  5  6  2  0  0  0  0
  5  7  1  0  0  0  0
  7  8  1  0  0  0  0
  7  9  1  0  0  0  0
  9 10  1  0  0  0  0
  9 11  1  0  0  0  0
  9 21  1  0  0  0  0
 11 12  1  0  0  0  0
 11 13  1  0  0  0  0
 11 14  1  0  0  0  0
 14 15  1  0  0  0  0
 14 16  1  0  0  0  0
 14 17  1  0  0  0  0
 17 18  2  0  0  0  0
 17 19  1  0  0  0  0
 19 20  1  0  0  0  0
 21 22  2  0  0  0  0
 21 23  1  0  0  0  0
 23 24  1  0  0  0  0
 23 25  1  0  0  0  0
 25 26  1  0  0  0  0
 25 27  1  0  0  0  0
 25 28  1  0  0  0  0
M  END
$$$$

  -OEChem-01062216073D

 28 27  0     1  0  0  0  0  0999 V2000
   -3.3065   -2.8308    1.3293 H   0  0  0  0  0  0  0  0  0  0  0  0
   -3.2485   -1.8551    0.8386 C   0  0  0  0  0  0  0  0  0  0  0  0
   -3.9355   -1.1675    1.3378 H   0  0  0  0  0  0  0  0  0  0  0  0
   -3.5507   -1.9674   -0.2055 H   0  0  0  0  0  0  0  0  0  0  0  0
   -1.8327   -1.3157    0.9119 C   0  0  0  0  0  0  0  0  0  0  0  0
   -0.9691   -1.9422    1.5055 O   0  0  0  0  0  0  0  0  0  0  0  0
   -1.5360   -0.0970    0.3394 N   0  0  0  0  0  0  0  0  0  0  0  0
   -2.3143    0.4529   -0.0243 H   0  0  0  0  0  0  0  0  0  0  0  0
   -0.2225    0.5663    0.3688 C   0  0  1  0  0  0  0  0  0  0  0  0
    0.3092    0.3044    1.2900 H   0  0  0  0  0  0  0  0  0  0  0  0
    0.6259    0.1685   -0.8600 C   0  0  0  0  0  0  0  0  0  0  0  0
    0.0515    0.3907   -1.7669 H   0  0  0  0  0  0  0  0  0  0  0  0
    1.5314    0.7841   -0.8881 H   0  0  0  0  0  0  0  0  0  0  0  0
    1.0514   -1.3150   -0.8772 C   0  0  0  0  0  0  0  0  0  0  0  0
    1.6325   -1.5389    0.0215 H   0  0  0  0  0  0  0  0  0  0  0  0
    0.1661   -1.9537   -0.8694 H   0  0  0  0  0  0  0  0  0  0  0  0
    1.8722   -1.7101   -2.1055 C   0  0  0  0  0  0  0  0  0  0  0  0
    2.0242   -0.9141   -3.0184 O   0  0  0  0  0  0  0  0  0  0  0  0
    2.3988   -2.9560   -2.1123 O   0  0  0  0  0  0  0  0  0  0  0  0
    2.8729   -3.0400   -2.9532 H   0  0  0  0  0  0  0  0  0  0  0  0
   -0.4048    2.1015    0.3410 C   0  0  0  0  0  0  0  0  0  0  0  0
   -1.4834    2.5902    0.0203 O   0  0  0  0  0  0  0  0  0  0  0  0
    0.6434    2.9425    0.6684 N   0  0  0  0  0  0  0  0  0  0  0  0
    1.5228    2.5164    0.9456 H   0  0  0  0  0  0  0  0  0  0  0  0
    0.5358    4.3968    0.6549 C   0  0  0  0  0  0  0  0  0  0  0  0
   -0.2279    4.7316    1.3648 H   0  0  0  0  0  0  0  0  0  0  0  0
    1.4912    4.8502    0.9358 H   0  0  0  0  0  0  0  0  0  0  0  0
    0.2663    4.7519   -0.3455 H   0  0  0  0  0  0  0  0  0  0  0  0
  1  2  1  0  0  0  0
  2  3  1  0  0  0  0
  2  4  1  0  0  0  0
  2  5  1  0  0  0  0
  5  6  2  0  0  0  0
  5  7  1  0  0  0  0
  7  8  1  0  0  0  0
  7  9  1  0  0  0  0
  9 10  1  0  0  0  0
  9 11  1  0  0  0  0
  9 21  1  0  0  0  0
 11 12  1  0  0  0  0
 11 13  1  0  0  0  0
 11 14  1  0  0  0  0
 14 15  1  0  0  0  0
 14 16  1  0  0  0  0
 14 17  1  0  0  0  0
 17 18  2  0  0  0  0
 17 19  1  0  0  0  0
 19 20  1  0  0  0  0
 21 22  2  0  0  0  0
 21 23  1  0  0  0  0
 23 24  1  0  0  0  0
 23 25  1  0  0  0  0
 25 26  1  0  0  0  0
 25 27  1  0  0  0  0
 25 28  1  0  0  0  0
M  END
$$$$

  -OEChem-01062216073D

 28 27  0     1  0  0  0  0  0999 V2000
   -3.2498   -2.7869    1.4063 H   0  0  0  0  0  0  0  0  0  0  0  0
   -3.2202   -1.8181    0.9001 C   0  0  0  0  0  0  0  0  0  0  0  0
   -3.8097   -1.1015    1.4771 H   0  0  0  0  0  0  0  0  0  0  0  0
   -3.6607   -1.9255   -0.0940 H   0  0  0  0  0  0  0  0  0  0  0  0
   -1.7879   -1.3337    0.7811 C   0  0  0  0  0  0  0  0  0  0  0  0
   -0.8702   -2.0352    1.1773 O   0  0  0  0  0  0  0  0  0  0  0  0
   -1.5314   -0.0951    0.2313 N   0  0  0  0  0  0  0  0  0  0  0  0
   -2.3384    0.5180    0.1166 H   0  0  0  0  0  0  0  0  0  0  0  0
   -0.2232    0.5778    0.2917 C   0  0  1  0  0  0  0  0  0  0  0  0
    0.4107    0.1210    1.0590 H   0  0  0  0  0  0  0  0  0  0  0  0
    0.4711    0.4695   -1.0816 C   0  0  0  0  0  0  0  0  0  0  0  0
   -0.2006    0.8684   -1.8506 H   0  0  0  0  0  0  0  0  0  0  0  0
    1.3776    1.0834   -1.0862 H   0  0  0  0  0  0  0  0  0  0  0  0
    0.8648   -0.9797   -1.4396 C   0  0  0  0  0  0  0  0  0  0  0  0
    1.5440   -1.3715   -0.6774 H   0  0  0  0  0  0  0  0  0  0  0  0
   -0.0242   -1.6147   -1.4462 H   0  0  0  0  0  0  0  0  0  0  0  0
    1.5350   -1.1179   -2.8070 C   0  0  0  0  0  0  0  0  0  0  0  0
    1.5974   -0.1548   -3.5547 O   0  0  0  0  0  0  0  0  0  0  0  0
    2.0347   -2.3348   -3.1208 O   0  0  0  0  0  0  0  0  0  0  0  0
    2.4097   -2.2474   -4.0100 H   0  0  0  0  0  0  0  0  0  0  0  0
   -0.4011    2.0664    0.6753 C   0  0  0  0  0  0  0  0  0  0  0  0
   -1.5252    2.5312    0.8351 O   0  0  0  0  0  0  0  0  0  0  0  0
    0.6914    2.9066    0.7964 N   0  0  0  0  0  0  0  0  0  0  0  0
    1.6146    2.5050    0.6608 H   0  0  0  0  0  0  0  0  0  0  0  0
    0.5782    4.3230    1.1243 C   0  0  0  0  0  0  0  0  0  0  0  0
    0.1029    4.4531    2.1023 H   0  0  0  0  0  0  0  0  0  0  0  0
    1.5694    4.7854    1.1573 H   0  0  0  0  0  0  0  0  0  0  0  0
   -0.0211    4.8439    0.3700 H   0  0  0  0  0  0  0  0  0  0  0  0
  1  2  1  0  0  0  0
  2  3  1  0  0  0  0
  2  4  1  0  0  0  0
  2  5  1  0  0  0  0
  5  6  2  0  0  0  0
  5  7  1  0  0  0  0
  7  8  1  0  0  0  0
  7  9  1  0  0  0  0
  9 10  1  0  0  0  0
  9 11  1  0  0  0  0
  9 21  1  0  0  0  0
 11 12  1  0  0  0  0
 11 13  1  0  0  0  0
 11 14  1  0  0  0  0
 14 15  1  0  0  0  0
 14 16  1  0  0  0  0
 14 17  1  0  0  0  0
 17 18  2  0  0  0  0
 17 19  1  0  0  0  0
 19 20  1  0  0  0  0
 21 22  2  0  0  0  0
 21 23  1  0  0  0  0
 23 24  1  0  0  0  0
 23 25  1  0  0  0  0
 25 26  1  0  0  0  0
 25 27  1  0  0  0  0
 25 28  1  0  0  0  0
M  END
$$$$

  -OEChem-01062216073D

 28 27  0     1  0  0  0  0  0999 V2000
   -3.2433   -2.7714    1.4208 H   0  0  0  0  0  0  0  0  0  0  0  0
   -3.2183   -1.8001    0.9189 C   0  0  0  0  0  0  0  0  0  0  0  0
   -3.7822   -1.0803    1.5175 H   0  0  0  0  0  0  0  0  0  0  0  0
   -3.6905   -1.8977   -0.0617 H   0  0  0  0  0  0  0  0  0  0  0  0
   -1.7850   -1.3307    0.7583 C   0  0  0  0  0  0  0  0  0  0  0  0
   -0.8645   -2.0446    1.1247 O   0  0  0  0  0  0  0  0  0  0  0  0
   -1.5327   -0.0901    0.2100 N   0  0  0  0  0  0  0  0  0  0  0  0
   -2.3389    0.5306    0.1439 H   0  0  0  0  0  0  0  0  0  0  0  0
   -0.2217    0.5786    0.2751 C   0  0  1  0  0  0  0  0  0  0  0  0
    0.4091    0.1229    1.0463 H   0  0  0  0  0  0  0  0  0  0  0  0
    0.4786    0.4578   -1.0968 C   0  0  0  0  0  0  0  0  0  0  0  0
   -0.1871    0.8570   -1.8706 H   0  0  0  0  0  0  0  0  0  0  0  0
    1.3914    1.0613   -1.1026 H   0  0  0  0  0  0  0  0  0  0  0  0
    0.8682   -0.9943   -1.4475 C   0  0  0  0  0  0  0  0  0  0  0  0
    1.5408   -1.3875   -0.6800 H   0  0  0  0  0  0  0  0  0  0  0  0
   -0.0240   -1.6247   -1.4576 H   0  0  0  0  0  0  0  0  0  0  0  0
    1.5432   -1.1398   -2.8119 C   0  0  0  0  0  0  0  0  0  0  0  0
    1.6112   -0.1787   -3.5619 O   0  0  0  0  0  0  0  0  0  0  0  0
    2.0450   -2.3576   -3.1187 O   0  0  0  0  0  0  0  0  0  0  0  0
    2.4263   -2.2735   -4.0055 H   0  0  0  0  0  0  0  0  0  0  0  0
   -0.4060    2.0677    0.6651 C   0  0  0  0  0  0  0  0  0  0  0  0
   -1.4973    2.4659    1.0590 O   0  0  0  0  0  0  0  0  0  0  0  0
    0.6121    2.9914    0.5045 N   0  0  0  0  0  0  0  0  0  0  0  0
    1.5085    2.6531    0.1677 H   0  0  0  0  0  0  0  0  0  0  0  0
    0.4660    4.4086    0.8171 C   0  0  0  0  0  0  0  0  0  0  0  0
    0.2181    4.5442    1.8752 H   0  0  0  0  0  0  0  0  0  0  0  0
    1.3997    4.9403    0.6102 H   0  0  0  0  0  0  0  0  0  0  0  0
   -0.3276    4.8559    0.2094 H   0  0  0  0  0  0  0  0  0  0  0  0
  1  2  1  0  0  0  0
  2  3  1  0  0  0  0
  2  4  1  0  0  0  0
  2  5  1  0  0  0  0
  5  6  2  0  0  0  0
  5  7  1  0  0  0  0
  7  8  1  0  0  0  0
  7  9  1  0  0  0  0
  9 10  1  0  0  0  0
  9 11  1  0  0  0  0
  9 21  1  0  0  0  0
 11 12  1  0  0  0  0
 11 13  1  0  0  0  0
 11 14  1  0  0  0  0
 14 15  1  0  0  0  0
 14 16  1  0  0  0  0
 14 17  1  0  0  0  0
 17 18  2  0  0  0  0
 17 19  1  0  0  0  0
 19 20  1  0  0  0  0
 21 22  2  0  0  0  0
 21 23  1  0  0  0  0
 23 24  1  0  0  0  0
 23 25  1  0  0  0  0
 25 26  1  0  0  0  0
 25 27  1  0  0  0  0
 25 28  1  0  0  0  0
M  END
$$$$

  -OEChem-01062216073D

 28 27  0     1  0  0  0  0  0999 V2000
   -3.2378   -2.7599    1.4279 H   0  0  0  0  0  0  0  0  0  0  0  0
   -3.2161   -1.7875    0.9280 C   0  0  0  0  0  0  0  0  0  0  0  0
   -3.7651   -1.0663    1.5385 H   0  0  0  0  0  0  0  0  0  0  0  0
   -3.7054   -1.8798   -0.0445 H   0  0  0  0  0  0  0  0  0  0  0  0
   -1.7832   -1.3257    0.7444 C   0  0  0  0  0  0  0  0  0  0  0  0
   -0.8620   -2.0496    1.0885 O   0  0  0  0  0  0  0  0  0  0  0  0
   -1.5348   -0.0829    0.1981 N   0  0  0  0  0  0  0  0  0  0  0  0
   -2.3408    0.5399    0.1636 H   0  0  0  0  0  0  0  0  0  0  0  0
   -0.2205    0.5808    0.2611 C   0  0  1  0  0  0  0  0  0  0  0  0
    0.4073    0.1249    1.0345 H   0  0  0  0  0  0  0  0  0  0  0  0
    0.4853    0.4466   -1.1077 C   0  0  0  0  0  0  0  0  0  0  0  0
   -0.1737    0.8459   -1.8871 H   0  0  0  0  0  0  0  0  0  0  0  0
    1.4042    1.0405   -1.1103 H   0  0  0  0  0  0  0  0  0  0  0  0
    0.8721   -1.0078   -1.4503 C   0  0  0  0  0  0  0  0  0  0  0  0
    1.5424   -1.3983   -0.6793 H   0  0  0  0  0  0  0  0  0  0  0  0
   -0.0213   -1.6365   -1.4612 H   0  0  0  0  0  0  0  0  0  0  0  0
    1.5514   -1.1596   -2.8116 C   0  0  0  0  0  0  0  0  0  0  0  0
    1.6238   -0.2009   -3.5646 O   0  0  0  0  0  0  0  0  0  0  0  0
    2.0501   -2.3801   -3.1130 O   0  0  0  0  0  0  0  0  0  0  0  0
    2.4351   -2.3012   -3.9985 H   0  0  0  0  0  0  0  0  0  0  0  0
   -0.4070    2.0692    0.6590 C   0  0  0  0  0  0  0  0  0  0  0  0
   -1.4093    2.4069    1.2790 O   0  0  0  0  0  0  0  0  0  0  0  0
    0.4627    3.0615    0.2387 N   0  0  0  0  0  0  0  0  0  0  0  0
    1.2682    2.7812   -0.3122 H   0  0  0  0  0  0  0  0  0  0  0  0
    0.2745    4.4767    0.5387 C   0  0  0  0  0  0  0  0  0  0  0  0
    0.2697    4.6418    1.6214 H   0  0  0  0  0  0  0  0  0  0  0  0
    1.0862    5.0677    0.1034 H   0  0  0  0  0  0  0  0  0  0  0  0
   -0.6736    4.8343    0.1235 H   0  0  0  0  0  0  0  0  0  0  0  0
  1  2  1  0  0  0  0
  2  3  1  0  0  0  0
  2  4  1  0  0  0  0
  2  5  1  0  0  0  0
  5  6  2  0  0  0  0
  5  7  1  0  0  0  0
  7  8  1  0  0  0  0
  7  9  1  0  0  0  0
  9 10  1  0  0  0  0
  9 11  1  0  0  0  0
  9 21  1  0  0  0  0
 11 12  1  0  0  0  0
 11 13  1  0  0  0  0
 11 14  1  0  0  0  0
 14 15  1  0  0  0  0
 14 16  1  0  0  0  0
 14 17  1  0  0  0  0
 17 18  2  0  0  0  0
 17 19  1  0  0  0  0
 19 20  1  0  0  0  0
 21 22  2  0  0  0  0
 21 23  1  0  0  0  0
 23 24  1  0  0  0  0
 23 25  1  0  0  0  0
 25 26  1  0  0  0  0
 25 27  1  0  0  0  0
 25 28  1  0  0  0  0
M  END
$$$$

  -OEChem-01062216073D

 28 27  0     1  0  0  0  0  0999 V2000
   -3.2337   -2.7526    1.4437 H   0  0  0  0  0  0  0  0  0  0  0  0
   -3.2173   -1.7816    0.9406 C   0  0  0  0  0  0  0  0  0  0  0  0
   -3.7576   -1.0580    1.5559 H   0  0  0  0  0  0  0  0  0  0  0  0
   -3.7188   -1.8758   -0.0255 H   0  0  0  0  0  0  0  0  0  0  0  0
   -1.7861   -1.3222    0.7382 C   0  0  0  0  0  0  0  0  0  0  0  0
   -0.8628   -2.0511    1.0655 O   0  0  0  0  0  0  0  0  0  0  0  0
   -1.5422   -0.0782    0.1912 N   0  0  0  0  0  0  0  0  0  0  0  0
   -2.3500    0.5411    0.1645 H   0  0  0  0  0  0  0  0  0  0  0  0
   -0.2258    0.5827    0.2475 C   0  0  1  0  0  0  0  0  0  0  0  0
    0.4009    0.1289    1.0231 H   0  0  0  0  0  0  0  0  0  0  0  0
    0.4878    0.4419   -1.1164 C   0  0  0  0  0  0  0  0  0  0  0  0
   -0.1650    0.8379   -1.9028 H   0  0  0  0  0  0  0  0  0  0  0  0
    1.4083    1.0345   -1.1102 H   0  0  0  0  0  0  0  0  0  0  0  0
    0.8771   -1.0131   -1.4518 C   0  0  0  0  0  0  0  0  0  0  0  0
    1.5421   -1.4019   -0.6755 H   0  0  0  0  0  0  0  0  0  0  0  0
   -0.0164   -1.6416   -1.4663 H   0  0  0  0  0  0  0  0  0  0  0  0
    1.5640   -1.1681   -2.8088 C   0  0  0  0  0  0  0  0  0  0  0  0
    1.6396   -0.2108   -3.5635 O   0  0  0  0  0  0  0  0  0  0  0  0
    2.0654   -2.3886   -3.1047 O   0  0  0  0  0  0  0  0  0  0  0  0
    2.4568   -2.3110   -3.9875 H   0  0  0  0  0  0  0  0  0  0  0  0
   -0.4116    2.0695    0.6492 C   0  0  0  0  0  0  0  0  0  0  0  0
   -1.2653    2.3621    1.4775 O   0  0  0  0  0  0  0  0  0  0  0  0
    0.2479    3.1032    0.0049 N   0  0  0  0  0  0  0  0  0  0  0  0
    0.9045    2.8582   -0.7303 H   0  0  0  0  0  0  0  0  0  0  0  0
    0.0218    4.5129    0.3046 C   0  0  0  0  0  0  0  0  0  0  0  0
    0.2639    4.7258    1.3513 H   0  0  0  0  0  0  0  0  0  0  0  0
    0.6540    5.1413   -0.3302 H   0  0  0  0  0  0  0  0  0  0  0  0
   -1.0244    4.7809    0.1231 H   0  0  0  0  0  0  0  0  0  0  0  0
  1  2  1  0  0  0  0
  2  3  1  0  0  0  0
  2  4  1  0  0  0  0
  2  5  1  0  0  0  0
  5  6  2  0  0  0  0
  5  7  1  0  0  0  0
  7  8  1  0  0  0  0
  7  9  1  0  0  0  0
  9 10  1  0  0  0  0
  9 11  1  0  0  0  0
  9 21  1  0  0  0  0
 11 12  1  0  0  0  0
 11 13  1  0  0  0  0
 11 14  1  0  0  0  0
 14 15  1  0  0  0  0
 14 16  1  0  0  0  0
 14 17  1  0  0  0  0
 17 18  2  0  0  0  0
 17 19  1  0  0  0  0
 19 20  1  0  0  0  0
 21 22  2  0  0  0  0
 21 23  1  0  0  0  0
 23 24  1  0  0  0  0
 23 25  1  0  0  0  0
 25 26  1  0  0  0  0
 25 27  1  0  0  0  0
 25 28  1  0  0  0  0
M  END
$$$$

  -OEChem-01062216073D

 28 27  0     1  0  0  0  0  0999 V2000
   -3.2265   -2.7721    1.4297 H   0  0  0  0  0  0  0  0  0  0  0  0
   -3.2153   -1.7924    0.9437 C   0  0  0  0  0  0  0  0  0  0  0  0
   -3.7581   -1.0821    1.5722 H   0  0  0  0  0  0  0  0  0  0  0  0
   -3.7179   -1.8726   -0.0230 H   0  0  0  0  0  0  0  0  0  0  0  0
   -1.7865   -1.3228    0.7480 C   0  0  0  0  0  0  0  0  0  0  0  0
   -0.8595   -2.0449    1.0788 O   0  0  0  0  0  0  0  0  0  0  0  0
   -1.5497   -0.0798    0.1953 N   0  0  0  0  0  0  0  0  0  0  0  0
   -2.3639    0.5280    0.1439 H   0  0  0  0  0  0  0  0  0  0  0  0
   -0.2360    0.5866    0.2462 C   0  0  1  0  0  0  0  0  0  0  0  0
    0.3929    0.1387    1.0241 H   0  0  0  0  0  0  0  0  0  0  0  0
    0.4801    0.4428   -1.1151 C   0  0  0  0  0  0  0  0  0  0  0  0
   -0.1746    0.8282   -1.9048 H   0  0  0  0  0  0  0  0  0  0  0  0
    1.3945    1.0459   -1.1072 H   0  0  0  0  0  0  0  0  0  0  0  0
    0.8789   -1.0104   -1.4460 C   0  0  0  0  0  0  0  0  0  0  0  0
    1.5464   -1.3928   -0.6686 H   0  0  0  0  0  0  0  0  0  0  0  0
   -0.0104   -1.6448   -1.4595 H   0  0  0  0  0  0  0  0  0  0  0  0
    1.5680   -1.1621   -2.8025 C   0  0  0  0  0  0  0  0  0  0  0  0
    1.6367   -0.2044   -3.5578 O   0  0  0  0  0  0  0  0  0  0  0  0
    2.0758   -2.3800   -3.0990 O   0  0  0  0  0  0  0  0  0  0  0  0
    2.4676   -2.2997   -3.9815 H   0  0  0  0  0  0  0  0  0  0  0  0
   -0.4234    2.0730    0.6417 C   0  0  0  0  0  0  0  0  0  0  0  0
   -1.0849    2.3466    1.6343 O   0  0  0  0  0  0  0  0  0  0  0  0
   -0.0211    3.1142   -0.1786 N   0  0  0  0  0  0  0  0  0  0  0  0
    0.4714    2.8760   -1.0346 H   0  0  0  0  0  0  0  0  0  0  0  0
   -0.2685    4.5198    0.1230 C   0  0  0  0  0  0  0  0  0  0  0  0
    0.2046    4.7975    1.0710 H   0  0  0  0  0  0  0  0  0  0  0  0
    0.1438    5.1548   -0.6673 H   0  0  0  0  0  0  0  0  0  0  0  0
   -1.3439    4.7141    0.1960 H   0  0  0  0  0  0  0  0  0  0  0  0
  1  2  1  0  0  0  0
  2  3  1  0  0  0  0
  2  4  1  0  0  0  0
  2  5  1  0  0  0  0
  5  6  2  0  0  0  0
  5  7  1  0  0  0  0
  7  8  1  0  0  0  0
  7  9  1  0  0  0  0
  9 10  1  0  0  0  0
  9 11  1  0  0  0  0
  9 21  1  0  0  0  0
 11 12  1  0  0  0  0
 11 13  1  0  0  0  0
 11 14  1  0  0  0  0
 14 15  1  0  0  0  0
 14 16  1  0  0  0  0
 14 17  1  0  0  0  0
 17 18  2  0  0  0  0
 17 19  1  0  0  0  0
 19 20  1  0  0  0  0
 21 22  2  0  0  0  0
 21 23  1  0  0  0  0
 23 24  1  0  0  0  0
 23 25  1  0  0  0  0
 25 26  1  0  0  0  0
 25 27  1  0  0  0  0
 25 28  1  0  0  0  0
M  END
$$$$

  -OEChem-01062216073D

 28 27  0     1  0  0  0  0  0999 V2000
   -3.2157   -2.7946    1.4368 H   0  0  0  0  0  0  0  0  0  0  0  0
   -3.2129   -1.8200    0.9406 C   0  0  0  0  0  0  0  0  0  0  0  0
   -3.7765   -1.1127    1.5539 H   0  0  0  0  0  0  0  0  0  0  0  0
   -3.7000   -1.9186   -0.0324 H   0  0  0  0  0  0  0  0  0  0  0  0
   -1.7886   -1.3301    0.7600 C   0  0  0  0  0  0  0  0  0  0  0  0
   -0.8557   -2.0398    1.0997 O   0  0  0  0  0  0  0  0  0  0  0  0
   -1.5624   -0.0865    0.2032 N   0  0  0  0  0  0  0  0  0  0  0  0
   -2.3860    0.5020    0.1091 H   0  0  0  0  0  0  0  0  0  0  0  0
   -0.2550    0.5934    0.2459 C   0  0  1  0  0  0  0  0  0  0  0  0
    0.3798    0.1519    1.0231 H   0  0  0  0  0  0  0  0  0  0  0  0
    0.4618    0.4532   -1.1146 C   0  0  0  0  0  0  0  0  0  0  0  0
   -0.1995    0.8207   -1.9069 H   0  0  0  0  0  0  0  0  0  0  0  0
    1.3644    1.0749   -1.1105 H   0  0  0  0  0  0  0  0  0  0  0  0
    0.8766   -0.9971   -1.4378 C   0  0  0  0  0  0  0  0  0  0  0  0
    1.5494   -1.3659   -0.6581 H   0  0  0  0  0  0  0  0  0  0  0  0
   -0.0048   -1.6428   -1.4453 H   0  0  0  0  0  0  0  0  0  0  0  0
    1.5671   -1.1491   -2.7938 C   0  0  0  0  0  0  0  0  0  0  0  0
    1.6250   -0.1951   -3.5545 O   0  0  0  0  0  0  0  0  0  0  0  0
    2.0862   -2.3636   -3.0844 O   0  0  0  0  0  0  0  0  0  0  0  0
    2.4783   -2.2838   -3.9667 H   0  0  0  0  0  0  0  0  0  0  0  0
   -0.4427    2.0786    0.6359 C   0  0  0  0  0  0  0  0  0  0  0  0
   -0.8491    2.3572    1.7548 O   0  0  0  0  0  0  0  0  0  0  0  0
   -0.3362    3.0988   -0.2947 N   0  0  0  0  0  0  0  0  0  0  0  0
   -0.0251    2.8521   -1.2299 H   0  0  0  0  0  0  0  0  0  0  0  0
   -0.5753    4.5023    0.0214 C   0  0  0  0  0  0  0  0  0  0  0  0
    0.1214    4.8446    0.7939 H   0  0  0  0  0  0  0  0  0  0  0  0
   -0.4341    5.1209   -0.8701 H   0  0  0  0  0  0  0  0  0  0  0  0
   -1.5993    4.6457    0.3822 H   0  0  0  0  0  0  0  0  0  0  0  0
  1  2  1  0  0  0  0
  2  3  1  0  0  0  0
  2  4  1  0  0  0  0
  2  5  1  0  0  0  0
  5  6  2  0  0  0  0
  5  7  1  0  0  0  0
  7  8  1  0  0  0  0
  7  9  1  0  0  0  0
  9 10  1  0  0  0  0
  9 11  1  0  0  0  0
  9 21  1  0  0  0  0
 11 12  1  0  0  0  0
 11 13  1  0  0  0  0
 11 14  1  0  0  0  0
 14 15  1  0  0  0  0
 14 16  1  0  0  0  0
 14 17  1  0  0  0  0
 17 18  2  0  0  0  0
 17 19  1  0  0  0  0
 19 20  1  0  0  0  0
 21 22  2  0  0  0  0
 21 23  1  0  0  0  0
 23 24  1  0  0  0  0
 23 25  1  0  0  0  0
 25 26  1  0  0  0  0
 25 27  1  0  0  0  0
 25 28  1  0  0  0  0
M  END
$$$$

  -OEChem-01062216073D

 28 27  0     1  0  0  0  0  0999 V2000
   -3.2046   -2.8292    1.4296 H   0  0  0  0  0  0  0  0  0  0  0  0
   -3.2088   -1.8556    0.9312 C   0  0  0  0  0  0  0  0  0  0  0  0
   -3.7945   -1.1562    1.5325 H   0  0  0  0  0  0  0  0  0  0  0  0
   -3.6759   -1.9644   -0.0505 H   0  0  0  0  0  0  0  0  0  0  0  0
   -1.7898   -1.3423    0.7763 C   0  0  0  0  0  0  0  0  0  0  0  0
   -0.8521   -2.0369    1.1328 O   0  0  0  0  0  0  0  0  0  0  0  0
   -1.5744   -0.0973    0.2177 N   0  0  0  0  0  0  0  0  0  0  0  0
   -2.4056    0.4711    0.0808 H   0  0  0  0  0  0  0  0  0  0  0  0
   -0.2741    0.5970    0.2546 C   0  0  1  0  0  0  0  0  0  0  0  0
    0.3683    0.1602    1.0284 H   0  0  0  0  0  0  0  0  0  0  0  0
    0.4402    0.4664   -1.1071 C   0  0  0  0  0  0  0  0  0  0  0  0
   -0.2261    0.8239   -1.8994 H   0  0  0  0  0  0  0  0  0  0  0  0
    1.3330    1.1021   -1.1047 H   0  0  0  0  0  0  0  0  0  0  0  0
    0.8698   -0.9802   -1.4285 C   0  0  0  0  0  0  0  0  0  0  0  0
    1.5492   -1.3391   -0.6499 H   0  0  0  0  0  0  0  0  0  0  0  0
   -0.0044   -1.6351   -1.4314 H   0  0  0  0  0  0  0  0  0  0  0  0
    1.5588   -1.1287   -2.7855 C   0  0  0  0  0  0  0  0  0  0  0  0
    1.6052   -0.1766   -3.5492 O   0  0  0  0  0  0  0  0  0  0  0  0
    2.0902   -2.3385   -3.0736 O   0  0  0  0  0  0  0  0  0  0  0  0
    2.4842   -2.2556   -3.9549 H   0  0  0  0  0  0  0  0  0  0  0  0
   -0.4642    2.0809    0.6409 C   0  0  0  0  0  0  0  0  0  0  0  0
   -0.5723    2.3923    1.8176 O   0  0  0  0  0  0  0  0  0  0  0  0
   -0.6702    3.0547   -0.3218 N   0  0  0  0  0  0  0  0  0  0  0  0
   -0.5641    2.7819   -1.2946 H   0  0  0  0  0  0  0  0  0  0  0  0
   -0.8868    4.4615   -0.0036 C   0  0  0  0  0  0  0  0  0  0  0  0
   -0.0248    4.8692    0.5350 H   0  0  0  0  0  0  0  0  0  0  0  0
   -1.0268    5.0405   -0.9216 H   0  0  0  0  0  0  0  0  0  0  0  0
   -1.7797    4.5809    0.6191 H   0  0  0  0  0  0  0  0  0  0  0  0
  1  2  1  0  0  0  0
  2  3  1  0  0  0  0
  2  4  1  0  0  0  0
  2  5  1  0  0  0  0
  5  6  2  0  0  0  0
  5  7  1  0  0  0  0
  7  8  1  0  0  0  0
  7  9  1  0  0  0  0
  9 10  1  0  0  0  0
  9 11  1  0  0  0  0
  9 21  1  0  0  0  0
 11 12  1  0  0  0  0
 11 13  1  0  0  0  0
 11 14  1  0  0  0  0
 14 15  1  0  0  0  0
 14 16  1  0  0  0  0
 14 17  1  0  0  0  0
 17 18  2  0  0  0  0
 17 19  1  0  0  0  0
 19 20  1  0  0  0  0
 21 22  2  0  0  0  0
 21 23  1  0  0  0  0
 23 24  1  0  0  0  0
 23 25  1  0  0  0  0
 25 26  1  0  0  0  0
 25 27  1  0  0  0  0
 25 28  1  0  0  0  0
M  END
$$$$

  -OEChem-01062216073D

 28 27  0     1  0  0  0  0  0999 V2000
   -3.1975   -2.8659    1.4156 H   0  0  0  0  0  0  0  0  0  0  0  0
   -3.2063   -1.8913    0.9191 C   0  0  0  0  0  0  0  0  0  0  0  0
   -3.8162   -1.2030    1.5091 H   0  0  0  0  0  0  0  0  0  0  0  0
   -3.6504   -2.0055   -0.0725 H   0  0  0  0  0  0  0  0  0  0  0  0
   -1.7923   -1.3561    0.7953 C   0  0  0  0  0  0  0  0  0  0  0  0
   -0.8522   -2.0359    1.1716 O   0  0  0  0  0  0  0  0  0  0  0  0
   -1.5831   -0.1097    0.2372 N   0  0  0  0  0  0  0  0  0  0  0  0
   -2.4184    0.4431    0.0669 H   0  0  0  0  0  0  0  0  0  0  0  0
   -0.2876    0.5951    0.2733 C   0  0  1  0  0  0  0  0  0  0  0  0
    0.3607    0.1588    1.0428 H   0  0  0  0  0  0  0  0  0  0  0  0
    0.4230    0.4813   -1.0907 C   0  0  0  0  0  0  0  0  0  0  0  0
   -0.2460    0.8406   -1.8798 H   0  0  0  0  0  0  0  0  0  0  0  0
    1.3102    1.1250   -1.0848 H   0  0  0  0  0  0  0  0  0  0  0  0
    0.8617   -0.9611   -1.4198 C   0  0  0  0  0  0  0  0  0  0  0  0
    1.5467   -1.3174   -0.6450 H   0  0  0  0  0  0  0  0  0  0  0  0
   -0.0069   -1.6237   -1.4212 H   0  0  0  0  0  0  0  0  0  0  0  0
    1.5481   -1.1002   -2.7792 C   0  0  0  0  0  0  0  0  0  0  0  0
    1.5868   -0.1456   -3.5400 O   0  0  0  0  0  0  0  0  0  0  0  0
    2.0823   -2.3072   -3.0740 O   0  0  0  0  0  0  0  0  0  0  0  0
    2.4729   -2.2191   -3.9563 H   0  0  0  0  0  0  0  0  0  0  0  0
   -0.4817    2.0770    0.6578 C   0  0  0  0  0  0  0  0  0  0  0  0
   -0.2766    2.4477    1.8037 O   0  0  0  0  0  0  0  0  0  0  0  0
   -0.9920    2.9830   -0.2562 N   0  0  0  0  0  0  0  0  0  0  0  0
   -1.0929    2.6700   -1.2171 H   0  0  0  0  0  0  0  0  0  0  0  0
   -1.1879    4.3957    0.0484 C   0  0  0  0  0  0  0  0  0  0  0  0
   -0.2354    4.8659    0.3152 H   0  0  0  0  0  0  0  0  0  0  0  0
   -1.6006    4.9178   -0.8203 H   0  0  0  0  0  0  0  0  0  0  0  0
   -1.8851    4.5147    0.8847 H   0  0  0  0  0  0  0  0  0  0  0  0
  1  2  1  0  0  0  0
  2  3  1  0  0  0  0
  2  4  1  0  0  0  0
  2  5  1  0  0  0  0
  5  6  2  0  0  0  0
  5  7  1  0  0  0  0
  7  8  1  0  0  0  0
  7  9  1  0  0  0  0
  9 10  1  0  0  0  0
  9 11  1  0  0  0  0
  9 21  1  0  0  0  0
 11 12  1  0  0  0  0
 11 13  1  0  0  0  0
 11 14  1  0  0  0  0
 14 15  1  0  0  0  0
 14 16  1  0  0  0  0
 14 17  1  0  0  0  0
 17 18  2  0  0  0  0
 17 19  1  0  0  0  0
 19 20  1  0  0  0  0
 21 22  2  0  0  0  0
 21 23  1  0  0  0  0
 23 24  1  0  0  0  0
 23 25  1  0  0  0  0
 25 26  1  0  0  0  0
 25 27  1  0  0  0  0
 25 28  1  0  0  0  0
M  END
$$$$

  -OEChem-01062216073D

 28 27  0     1  0  0  0  0  0999 V2000
   -3.1999   -2.8984    1.4117 H   0  0  0  0  0  0  0  0  0  0  0  0
   -3.2116   -1.9218    0.9191 C   0  0  0  0  0  0  0  0  0  0  0  0
   -3.8300   -1.2400    1.5076 H   0  0  0  0  0  0  0  0  0  0  0  0
   -3.6485   -2.0347   -0.0759 H   0  0  0  0  0  0  0  0  0  0  0  0
   -1.8001   -1.3771    0.8078 C   0  0  0  0  0  0  0  0  0  0  0  0
   -0.8596   -2.0490    1.1959 O   0  0  0  0  0  0  0  0  0  0  0  0
   -1.5935   -0.1286    0.2530 N   0  0  0  0  0  0  0  0  0  0  0  0
   -2.4307    0.4163    0.0695 H   0  0  0  0  0  0  0  0  0  0  0  0
   -0.3007    0.5829    0.2966 C   0  0  1  0  0  0  0  0  0  0  0  0
    0.3500    0.1435    1.0624 H   0  0  0  0  0  0  0  0  0  0  0  0
    0.4088    0.4923   -1.0679 C   0  0  0  0  0  0  0  0  0  0  0  0
   -0.2606    0.8636   -1.8512 H   0  0  0  0  0  0  0  0  0  0  0  0
    1.2936    1.1395   -1.0522 H   0  0  0  0  0  0  0  0  0  0  0  0
    0.8540   -0.9436   -1.4155 C   0  0  0  0  0  0  0  0  0  0  0  0
    1.5415   -1.3061   -0.6457 H   0  0  0  0  0  0  0  0  0  0  0  0
   -0.0117   -1.6100   -1.4242 H   0  0  0  0  0  0  0  0  0  0  0  0
    1.5402   -1.0629   -2.7765 C   0  0  0  0  0  0  0  0  0  0  0  0
    1.5743   -0.0991   -3.5257 O   0  0  0  0  0  0  0  0  0  0  0  0
    2.0804   -2.2634   -3.0859 O   0  0  0  0  0  0  0  0  0  0  0  0
    2.4741   -2.1607   -3.9652 H   0  0  0  0  0  0  0  0  0  0  0  0
   -0.4959    2.0631    0.6818 C   0  0  0  0  0  0  0  0  0  0  0  0
   -0.0019    2.5086    1.7063 O   0  0  0  0  0  0  0  0  0  0  0  0
   -1.2766    2.8915   -0.1064 N   0  0  0  0  0  0  0  0  0  0  0  0
   -1.5656    2.5322   -1.0110 H   0  0  0  0  0  0  0  0  0  0  0  0
   -1.4535    4.3120    0.1736 C   0  0  0  0  0  0  0  0  0  0  0  0
   -0.4896    4.8312    0.1458 H   0  0  0  0  0  0  0  0  0  0  0  0
   -2.1136    4.7665   -0.5714 H   0  0  0  0  0  0  0  0  0  0  0  0
   -1.9016    4.4547    1.1626 H   0  0  0  0  0  0  0  0  0  0  0  0
  1  2  1  0  0  0  0
  2  3  1  0  0  0  0
  2  4  1  0  0  0  0
  2  5  1  0  0  0  0
  5  6  2  0  0  0  0
  5  7  1  0  0  0  0
  7  8  1  0  0  0  0
  7  9  1  0  0  0  0
  9 10  1  0  0  0  0
  9 11  1  0  0  0  0
  9 21  1  0  0  0  0
 11 12  1  0  0  0  0
 11 13  1  0  0  0  0
 11 14  1  0  0  0  0
 14 15  1  0  0  0  0
 14 16  1  0  0  0  0
 14 17  1  0  0  0  0
 17 18  2  0  0  0  0
 17 19  1  0  0  0  0
 19 20  1  0  0  0  0
 21 22  2  0  0  0  0
 21 23  1  0  0  0  0
 23 24  1  0  0  0  0
 23 25  1  0  0  0  0
 25 26  1  0  0  0  0
 25 27  1  0  0  0  0
 25 28  1  0  0  0  0
M  END
$$$$

  -OEChem-01062216073D

 28 27  0     1  0  0  0  0  0999 V2000
   -3.1878   -2.9431    1.3846 H   0  0  0  0  0  0  0  0  0  0  0  0
   -3.2047   -1.9621    0.9011 C   0  0  0  0  0  0  0  0  0  0  0  0
   -3.8448   -1.2951    1.4835 H   0  0  0  0  0  0  0  0  0  0  0  0
   -3.6201   -2.0724   -0.1034 H   0  0  0  0  0  0  0  0  0  0  0  0
   -1.7996   -1.3960    0.8210 C   0  0  0  0  0  0  0  0  0  0  0  0
   -0.8576   -2.0548    1.2274 O   0  0  0  0  0  0  0  0  0  0  0  0
   -1.6004   -0.1447    0.2694 N   0  0  0  0  0  0  0  0  0  0  0  0
   -2.4416    0.3884    0.0738 H   0  0  0  0  0  0  0  0  0  0  0  0
   -0.3115    0.5762    0.3198 C   0  0  1  0  0  0  0  0  0  0  0  0
    0.3418    0.1350    1.0823 H   0  0  0  0  0  0  0  0  0  0  0  0
    0.3926    0.4986   -1.0475 C   0  0  0  0  0  0  0  0  0  0  0  0
   -0.2816    0.8751   -1.8242 H   0  0  0  0  0  0  0  0  0  0  0  0
    1.2748    1.1494   -1.0302 H   0  0  0  0  0  0  0  0  0  0  0  0
    0.8439   -0.9332   -1.4057 C   0  0  0  0  0  0  0  0  0  0  0  0
    1.5366   -1.2958   -0.6408 H   0  0  0  0  0  0  0  0  0  0  0  0
   -0.0180   -1.6041   -1.4146 H   0  0  0  0  0  0  0  0  0  0  0  0
    1.5256   -1.0418   -2.7700 C   0  0  0  0  0  0  0  0  0  0  0  0
    1.5526   -0.0745   -3.5147 O   0  0  0  0  0  0  0  0  0  0  0  0
    2.0669   -2.2394   -3.0891 O   0  0  0  0  0  0  0  0  0  0  0  0
    2.4558   -2.1300   -3.9698 H   0  0  0  0  0  0  0  0  0  0  0  0
   -0.4992    2.0574    0.7060 C   0  0  0  0  0  0  0  0  0  0  0  0
    0.2263    2.5753    1.5413 O   0  0  0  0  0  0  0  0  0  0  0  0
   -1.5002    2.8127    0.1179 N   0  0  0  0  0  0  0  0  0  0  0  0
   -1.9542    2.4162   -0.6982 H   0  0  0  0  0  0  0  0  0  0  0  0
   -1.6686    4.2371    0.3838 C   0  0  0  0  0  0  0  0  0  0  0  0
   -0.7781    4.7938    0.0730 H   0  0  0  0  0  0  0  0  0  0  0  0
   -2.5310    4.6261   -0.1661 H   0  0  0  0  0  0  0  0  0  0  0  0
   -1.8363    4.4105    1.4522 H   0  0  0  0  0  0  0  0  0  0  0  0
  1  2  1  0  0  0  0
  2  3  1  0  0  0  0
  2  4  1  0  0  0  0
  2  5  1  0  0  0  0
  5  6  2  0  0  0  0
  5  7  1  0  0  0  0
  7  8  1  0  0  0  0
  7  9  1  0  0  0  0
  9 10  1  0  0  0  0
  9 11  1  0  0  0  0
  9 21  1  0  0  0  0
 11 12  1  0  0  0  0
 11 13  1  0  0  0  0
 11 14  1  0  0  0  0
 14 15  1  0  0  0  0
 14 16  1  0  0  0  0
 14 17  1  0  0  0  0
 17 18  2  0  0  0  0
 17 19  1  0  0  0  0
 19 20  1  0  0  0  0
 21 22  2  0  0  0  0
 21 23  1  0  0  0  0
 23 24  1  0  0  0  0
 23 25  1  0  0  0  0
 25 26  1  0  0  0  0
 25 27  1  0  0  0  0
 25 28  1  0  0  0  0
M  END
$$$$

  -OEChem-01062216073D

 28 27  0     1  0  0  0  0  0999 V2000
   -3.0551   -3.0626    1.2026 H   0  0  0  0  0  0  0  0  0  0  0  0
   -3.0956   -2.0829    0.7177 C   0  0  0  0  0  0  0  0  0  0  0  0
   -3.9196   -1.5109    1.1508 H   0  0  0  0  0  0  0  0  0  0  0  0
   -3.2796   -2.2275   -0.3496 H   0  0  0  0  0  0  0  0  0  0  0  0
   -1.7864   -1.3452    0.9252 C   0  0  0  0  0  0  0  0  0  0  0  0
   -0.8979   -1.8647    1.5776 O   0  0  0  0  0  0  0  0  0  0  0  0
   -1.6060   -0.1015    0.3495 N   0  0  0  0  0  0  0  0  0  0  0  0
   -2.3244    0.1897   -0.3048 H   0  0  0  0  0  0  0  0  0  0  0  0
   -0.3191    0.6281    0.3480 C   0  0  1  0  0  0  0  0  0  0  0  0
    0.3586    0.2016    1.0970 H   0  0  0  0  0  0  0  0  0  0  0  0
    0.3411    0.5076   -1.0380 C   0  0  0  0  0  0  0  0  0  0  0  0
   -0.3560    0.8624   -1.8048 H   0  0  0  0  0  0  0  0  0  0  0  0
    1.2235    1.1579   -1.0706 H   0  0  0  0  0  0  0  0  0  0  0  0
    0.7837   -0.9366   -1.3583 C   0  0  0  0  0  0  0  0  0  0  0  0
    1.5030   -1.2682   -0.6037 H   0  0  0  0  0  0  0  0  0  0  0  0
   -0.0746   -1.6104   -1.3141 H   0  0  0  0  0  0  0  0  0  0  0  0
    1.4224   -1.0961   -2.7383 C   0  0  0  0  0  0  0  0  0  0  0  0
    1.4257   -0.1588   -3.5200 O   0  0  0  0  0  0  0  0  0  0  0  0
    1.9512   -2.3067   -3.0281 O   0  0  0  0  0  0  0  0  0  0  0  0
    2.3166   -2.2299   -3.9224 H   0  0  0  0  0  0  0  0  0  0  0  0
   -0.4649    2.1213    0.7153 C   0  0  0  0  0  0  0  0  0  0  0  0
    0.4938    2.7312    1.1664 O   0  0  0  0  0  0  0  0  0  0  0  0
   -1.6212    2.8239    0.4219 N   0  0  0  0  0  0  0  0  0  0  0  0
   -2.4231    2.2917    0.1067 H   0  0  0  0  0  0  0  0  0  0  0  0
   -1.7881    4.2425    0.7174 C   0  0  0  0  0  0  0  0  0  0  0  0
   -1.0248    4.8341    0.2004 H   0  0  0  0  0  0  0  0  0  0  0  0
   -2.7725    4.5856    0.3853 H   0  0  0  0  0  0  0  0  0  0  0  0
   -1.7032    4.4225    1.7943 H   0  0  0  0  0  0  0  0  0  0  0  0
  1  2  1  0  0  0  0
  2  3  1  0  0  0  0
  2  4  1  0  0  0  0
  2  5  1  0  0  0  0
  5  6  2  0  0  0  0
  5  7  1  0  0  0  0
  7  8  1  0  0  0  0
  7  9  1  0  0  0  0
  9 10  1  0  0  0  0
  9 11  1  0  0  0  0
  9 21  1  0  0  0  0
 11 12  1  0  0  0  0
 11 13  1  0  0  0  0
 11 14  1  0  0  0  0
 14 15  1  0  0  0  0
 14 16  1  0  0  0  0
 14 17  1  0  0  0  0
 17 18  2  0  0  0  0
 17 19  1  0  0  0  0
 19 20  1  0  0  0  0
 21 22  2  0  0  0  0
 21 23  1  0  0  0  0
 23 24  1  0  0  0  0
 23 25  1  0  0  0  0
 25 26  1  0  0  0  0
 25 27  1  0  0  0  0
 25 28  1  0  0  0  0
M  END
$$$$

  -OEChem-01062216073D

 28 27  0     1  0  0  0  0  0999 V2000
   -3.0326   -3.0694    1.1530 H   0  0  0  0  0  0  0  0  0  0  0  0
   -3.0768   -2.0838    0.6805 C   0  0  0  0  0  0  0  0  0  0  0  0
   -3.9178   -1.5290    1.1031 H   0  0  0  0  0  0  0  0  0  0  0  0
   -3.2369   -2.2168   -0.3921 H   0  0  0  0  0  0  0  0  0  0  0  0
   -1.7832   -1.3298    0.9250 C   0  0  0  0  0  0  0  0  0  0  0  0
   -0.9107   -1.8309    1.6125 O   0  0  0  0  0  0  0  0  0  0  0  0
   -1.6013   -0.0867    0.3492 N   0  0  0  0  0  0  0  0  0  0  0  0
   -2.2961    0.1841   -0.3399 H   0  0  0  0  0  0  0  0  0  0  0  0
   -0.3118    0.6387    0.3456 C   0  0  1  0  0  0  0  0  0  0  0  0
    0.3669    0.2137    1.0940 H   0  0  0  0  0  0  0  0  0  0  0  0
    0.3422    0.5071   -1.0441 C   0  0  0  0  0  0  0  0  0  0  0  0
   -0.3566    0.8623   -1.8091 H   0  0  0  0  0  0  0  0  0  0  0  0
    1.2287    1.1511   -1.0862 H   0  0  0  0  0  0  0  0  0  0  0  0
    0.7762   -0.9413   -1.3580 C   0  0  0  0  0  0  0  0  0  0  0  0
    1.4973   -1.2714   -0.6045 H   0  0  0  0  0  0  0  0  0  0  0  0
   -0.0850   -1.6107   -1.3062 H   0  0  0  0  0  0  0  0  0  0  0  0
    1.4081   -1.1125   -2.7399 C   0  0  0  0  0  0  0  0  0  0  0  0
    1.4135   -0.1810   -3.5282 O   0  0  0  0  0  0  0  0  0  0  0  0
    1.9330   -2.3265   -3.0219 O   0  0  0  0  0  0  0  0  0  0  0  0
    2.2990   -2.2558   -3.9166 H   0  0  0  0  0  0  0  0  0  0  0  0
   -0.4600    2.1320    0.7151 C   0  0  0  0  0  0  0  0  0  0  0  0
    0.5352    2.8145    0.9122 O   0  0  0  0  0  0  0  0  0  0  0  0
   -1.6997    2.7477    0.7097 N   0  0  0  0  0  0  0  0  0  0  0  0
   -2.5081    2.1358    0.6908 H   0  0  0  0  0  0  0  0  0  0  0  0
   -1.8886    4.1493    1.0667 C   0  0  0  0  0  0  0  0  0  0  0  0
   -1.2918    4.7951    0.4138 H   0  0  0  0  0  0  0  0  0  0  0  0
   -2.9405    4.4303    0.9582 H   0  0  0  0  0  0  0  0  0  0  0  0
   -1.5867    4.3242    2.1047 H   0  0  0  0  0  0  0  0  0  0  0  0
  1  2  1  0  0  0  0
  2  3  1  0  0  0  0
  2  4  1  0  0  0  0
  2  5  1  0  0  0  0
  5  6  2  0  0  0  0
  5  7  1  0  0  0  0
  7  8  1  0  0  0  0
  7  9  1  0  0  0  0
  9 10  1  0  0  0  0
  9 11  1  0  0  0  0
  9 21  1  0  0  0  0
 11 12  1  0  0  0  0
 11 13  1  0  0  0  0
 11 14  1  0  0  0  0
 14 15  1  0  0  0  0
 14 16  1  0  0  0  0
 14 17  1  0  0  0  0
 17 18  2  0  0  0  0
 17 19  1  0  0  0  0
 19 20  1  0  0  0  0
 21 22  2  0  0  0  0
 21 23  1  0  0  0  0
 23 24  1  0  0  0  0
 23 25  1  0  0  0  0
 25 26  1  0  0  0  0
 25 27  1  0  0  0  0
 25 28  1  0  0  0  0
M  END
$$$$

  -OEChem-01062216073D

 28 27  0     1  0  0  0  0  0999 V2000
   -3.0363   -3.0528    1.1333 H   0  0  0  0  0  0  0  0  0  0  0  0
   -3.0761   -2.0652    0.6648 C   0  0  0  0  0  0  0  0  0  0  0  0
   -3.9156   -1.5088    1.0887 H   0  0  0  0  0  0  0  0  0  0  0  0
   -3.2351   -2.1932   -0.4087 H   0  0  0  0  0  0  0  0  0  0  0  0
   -1.7798   -1.3178    0.9133 C   0  0  0  0  0  0  0  0  0  0  0  0
   -0.9135   -1.8201    1.6075 O   0  0  0  0  0  0  0  0  0  0  0  0
   -1.5901   -0.0733    0.3437 N   0  0  0  0  0  0  0  0  0  0  0  0
   -2.2888    0.2147   -0.3356 H   0  0  0  0  0  0  0  0  0  0  0  0
   -0.2976    0.6470    0.3413 C   0  0  1  0  0  0  0  0  0  0  0  0
    0.3803    0.2209    1.0894 H   0  0  0  0  0  0  0  0  0  0  0  0
    0.3532    0.5072   -1.0507 C   0  0  0  0  0  0  0  0  0  0  0  0
   -0.3446    0.8649   -1.8155 H   0  0  0  0  0  0  0  0  0  0  0  0
    1.2446    1.1437   -1.0986 H   0  0  0  0  0  0  0  0  0  0  0  0
    0.7788   -0.9449   -1.3611 C   0  0  0  0  0  0  0  0  0  0  0  0
    1.4998   -1.2768   -0.6084 H   0  0  0  0  0  0  0  0  0  0  0  0
   -0.0857   -1.6098   -1.3061 H   0  0  0  0  0  0  0  0  0  0  0  0
    1.4070   -1.1251   -2.7435 C   0  0  0  0  0  0  0  0  0  0  0  0
    1.4167   -0.1973   -3.5360 O   0  0  0  0  0  0  0  0  0  0  0  0
    1.9205   -2.3448   -3.0221 O   0  0  0  0  0  0  0  0  0  0  0  0
    2.2819   -2.2818   -3.9190 H   0  0  0  0  0  0  0  0  0  0  0  0
   -0.4551    2.1387    0.7194 C   0  0  0  0  0  0  0  0  0  0  0  0
    0.5077    2.8925    0.6929 O   0  0  0  0  0  0  0  0  0  0  0  0
   -1.7019    2.6613    1.0147 N   0  0  0  0  0  0  0  0  0  0  0  0
   -2.4410    1.9862    1.1816 H   0  0  0  0  0  0  0  0  0  0  0  0
   -1.9056    4.0444    1.4298 C   0  0  0  0  0  0  0  0  0  0  0  0
   -1.5339    4.7332    0.6636 H   0  0  0  0  0  0  0  0  0  0  0  0
   -2.9711    4.2420    1.5812 H   0  0  0  0  0  0  0  0  0  0  0  0
   -1.3780    4.2445    2.3683 H   0  0  0  0  0  0  0  0  0  0  0  0
  1  2  1  0  0  0  0
  2  3  1  0  0  0  0
  2  4  1  0  0  0  0
  2  5  1  0  0  0  0
  5  6  2  0  0  0  0
  5  7  1  0  0  0  0
  7  8  1  0  0  0  0
  7  9  1  0  0  0  0
  9 10  1  0  0  0  0
  9 11  1  0  0  0  0
  9 21  1  0  0  0  0
 11 12  1  0  0  0  0
 11 13  1  0  0  0  0
 11 14  1  0  0  0  0
 14 15  1  0  0  0  0
 14 16  1  0  0  0  0
 14 17  1  0  0  0  0
 17 18  2  0  0  0  0
 17 19  1  0  0  0  0
 19 20  1  0  0  0  0
 21 22  2  0  0  0  0
 21 23  1  0  0  0  0
 23 24  1  0  0  0  0
 23 25  1  0  0  0  0
 25 26  1  0  0  0  0
 25 27  1  0  0  0  0
 25 28  1  0  0  0  0
M  END
$$$$

  -OEChem-01062216073D

 28 27  0     1  0  0  0  0  0999 V2000
   -3.0498   -3.0320    1.1276 H   0  0  0  0  0  0  0  0  0  0  0  0
   -3.0841   -2.0428    0.6620 C   0  0  0  0  0  0  0  0  0  0  0  0
   -3.9135   -1.4787    1.0950 H   0  0  0  0  0  0  0  0  0  0  0  0
   -3.2552   -2.1663   -0.4101 H   0  0  0  0  0  0  0  0  0  0  0  0
   -1.7776   -1.3095    0.8990 C   0  0  0  0  0  0  0  0  0  0  0  0
   -0.9089   -1.8213    1.5833 O   0  0  0  0  0  0  0  0  0  0  0  0
   -1.5818   -0.0627    0.3372 N   0  0  0  0  0  0  0  0  0  0  0  0
   -2.2979    0.2560   -0.3102 H   0  0  0  0  0  0  0  0  0  0  0  0
   -0.2876    0.6540    0.3330 C   0  0  1  0  0  0  0  0  0  0  0  0
    0.3893    0.2260    1.0808 H   0  0  0  0  0  0  0  0  0  0  0  0
    0.3627    0.5072   -1.0598 C   0  0  0  0  0  0  0  0  0  0  0  0
   -0.3346    0.8649   -1.8251 H   0  0  0  0  0  0  0  0  0  0  0  0
    1.2572    1.1387   -1.1124 H   0  0  0  0  0  0  0  0  0  0  0  0
    0.7836   -0.9471   -1.3651 C   0  0  0  0  0  0  0  0  0  0  0  0
    1.5037   -1.2785   -0.6114 H   0  0  0  0  0  0  0  0  0  0  0  0
   -0.0831   -1.6086   -1.3081 H   0  0  0  0  0  0  0  0  0  0  0  0
    1.4108   -1.1349   -2.7469 C   0  0  0  0  0  0  0  0  0  0  0  0
    1.4234   -0.2106   -3.5434 O   0  0  0  0  0  0  0  0  0  0  0  0
    1.9222   -2.3567   -3.0199 O   0  0  0  0  0  0  0  0  0  0  0  0
    2.2839   -2.2976   -3.9171 H   0  0  0  0  0  0  0  0  0  0  0  0
   -0.4537    2.1432    0.7220 C   0  0  0  0  0  0  0  0  0  0  0  0
    0.4214    2.9632    0.4812 O   0  0  0  0  0  0  0  0  0  0  0  0
   -1.6251    2.5790    1.3150 N   0  0  0  0  0  0  0  0  0  0  0  0
   -2.2675    1.8555    1.6233 H   0  0  0  0  0  0  0  0  0  0  0  0
   -1.8239    3.9469    1.7796 C   0  0  0  0  0  0  0  0  0  0  0  0
   -1.7080    4.6536    0.9509 H   0  0  0  0  0  0  0  0  0  0  0  0
   -2.8300    4.0643    2.1933 H   0  0  0  0  0  0  0  0  0  0  0  0
   -1.0962    4.1964    2.5591 H   0  0  0  0  0  0  0  0  0  0  0  0
  1  2  1  0  0  0  0
  2  3  1  0  0  0  0
  2  4  1  0  0  0  0
  2  5  1  0  0  0  0
  5  6  2  0  0  0  0
  5  7  1  0  0  0  0
  7  8  1  0  0  0  0
  7  9  1  0  0  0  0
  9 10  1  0  0  0  0
  9 11  1  0  0  0  0
  9 21  1  0  0  0  0
 11 12  1  0  0  0  0
 11 13  1  0  0  0  0
 11 14  1  0  0  0  0
 14 15  1  0  0  0  0
 14 16  1  0  0  0  0
 14 17  1  0  0  0  0
 17 18  2  0  0  0  0
 17 19  1  0  0  0  0
 19 20  1  0  0  0  0
 21 22  2  0  0  0  0
 21 23  1  0  0  0  0
 23 24  1  0  0  0  0
 23 25  1  0  0  0  0
 25 26  1  0  0  0  0
 25 27  1  0  0  0  0
 25 28  1  0  0  0  0
M  END
$$$$

  -OEChem-01062216073D

 28 27  0     1  0  0  0  0  0999 V2000
   -3.0770   -2.9956    1.1380 H   0  0  0  0  0  0  0  0  0  0  0  0
   -3.0975   -2.0081    0.6681 C   0  0  0  0  0  0  0  0  0  0  0  0
   -3.9115   -1.4264    1.1072 H   0  0  0  0  0  0  0  0  0  0  0  0
   -3.2825   -2.1332   -0.4016 H   0  0  0  0  0  0  0  0  0  0  0  0
   -1.7751   -1.2979    0.8870 C   0  0  0  0  0  0  0  0  0  0  0  0
   -0.9044   -1.8241    1.5582 O   0  0  0  0  0  0  0  0  0  0  0  0
   -1.5692   -0.0490    0.3351 N   0  0  0  0  0  0  0  0  0  0  0  0
   -2.3005    0.3012   -0.2784 H   0  0  0  0  0  0  0  0  0  0  0  0
   -0.2710    0.6583    0.3277 C   0  0  1  0  0  0  0  0  0  0  0  0
    0.4054    0.2251    1.0726 H   0  0  0  0  0  0  0  0  0  0  0  0
    0.3790    0.5083   -1.0657 C   0  0  0  0  0  0  0  0  0  0  0  0
   -0.3162    0.8712   -1.8306 H   0  0  0  0  0  0  0  0  0  0  0  0
    1.2775    1.1341   -1.1174 H   0  0  0  0  0  0  0  0  0  0  0  0
    0.7908   -0.9487   -1.3712 C   0  0  0  0  0  0  0  0  0  0  0  0
    1.5076   -1.2854   -0.6167 H   0  0  0  0  0  0  0  0  0  0  0  0
   -0.0807   -1.6040   -1.3150 H   0  0  0  0  0  0  0  0  0  0  0  0
    1.4175   -1.1418   -2.7526 C   0  0  0  0  0  0  0  0  0  0  0  0
    1.4373   -0.2187   -3.5502 O   0  0  0  0  0  0  0  0  0  0  0  0
    1.9200   -2.3678   -3.0243 O   0  0  0  0  0  0  0  0  0  0  0  0
    2.2802   -2.3125   -3.9223 H   0  0  0  0  0  0  0  0  0  0  0  0
   -0.4447    2.1431    0.7314 C   0  0  0  0  0  0  0  0  0  0  0  0
    0.2752    3.0236    0.2809 O   0  0  0  0  0  0  0  0  0  0  0  0
   -1.4629    2.4988    1.5974 N   0  0  0  0  0  0  0  0  0  0  0  0
   -1.9765    1.7358    2.0290 H   0  0  0  0  0  0  0  0  0  0  0  0
   -1.6649    3.8580    2.0855 C   0  0  0  0  0  0  0  0  0  0  0  0
   -1.8302    4.5451    1.2488 H   0  0  0  0  0  0  0  0  0  0  0  0
   -2.5393    3.8984    2.7422 H   0  0  0  0  0  0  0  0  0  0  0  0
   -0.7901    4.1963    2.6509 H   0  0  0  0  0  0  0  0  0  0  0  0
  1  2  1  0  0  0  0
  2  3  1  0  0  0  0
  2  4  1  0  0  0  0
  2  5  1  0  0  0  0
  5  6  2  0  0  0  0
  5  7  1  0  0  0  0
  7  8  1  0  0  0  0
  7  9  1  0  0  0  0
  9 10  1  0  0  0  0
  9 11  1  0  0  0  0
  9 21  1  0  0  0  0
 11 12  1  0  0  0  0
 11 13  1  0  0  0  0
 11 14  1  0  0  0  0
 14 15  1  0  0  0  0
 14 16  1  0  0  0  0
 14 17  1  0  0  0  0
 17 18  2  0  0  0  0
 17 19  1  0  0  0  0
 19 20  1  0  0  0  0
 21 22  2  0  0  0  0
 21 23  1  0  0  0  0
 23 24  1  0  0  0  0
 23 25  1  0  0  0  0
 25 26  1  0  0  0  0
 25 27  1  0  0  0  0
 25 28  1  0  0  0  0
M  END
$$$$

  -OEChem-01062216073D

 28 27  0     1  0  0  0  0  0999 V2000
   -3.0851   -2.9782    1.1290 H   0  0  0  0  0  0  0  0  0  0  0  0
   -3.1028   -1.9865    0.6680 C   0  0  0  0  0  0  0  0  0  0  0  0
   -3.9120   -1.4045    1.1154 H   0  0  0  0  0  0  0  0  0  0  0  0
   -3.2930   -2.1009   -0.4019 H   0  0  0  0  0  0  0  0  0  0  0  0
   -1.7757   -1.2855    0.8877 C   0  0  0  0  0  0  0  0  0  0  0  0
   -0.9076   -1.8199    1.5562 O   0  0  0  0  0  0  0  0  0  0  0  0
   -1.5603   -0.0363    0.3407 N   0  0  0  0  0  0  0  0  0  0  0  0
   -2.2985    0.3348   -0.2520 H   0  0  0  0  0  0  0  0  0  0  0  0
   -0.2577    0.6593    0.3298 C   0  0  1  0  0  0  0  0  0  0  0  0
    0.4186    0.2199    1.0709 H   0  0  0  0  0  0  0  0  0  0  0  0
    0.3906    0.5094   -1.0643 C   0  0  0  0  0  0  0  0  0  0  0  0
   -0.3024    0.8792   -1.8280 H   0  0  0  0  0  0  0  0  0  0  0  0
    1.2923    1.1310   -1.1123 H   0  0  0  0  0  0  0  0  0  0  0  0
    0.7912   -0.9498   -1.3741 C   0  0  0  0  0  0  0  0  0  0  0  0
    1.5042   -1.2956   -0.6203 H   0  0  0  0  0  0  0  0  0  0  0  0
   -0.0864   -1.5973   -1.3201 H   0  0  0  0  0  0  0  0  0  0  0  0
    1.4161   -1.1449   -2.7560 C   0  0  0  0  0  0  0  0  0  0  0  0
    1.4435   -0.2210   -3.5523 O   0  0  0  0  0  0  0  0  0  0  0  0
    1.9101   -2.3739   -3.0287 O   0  0  0  0  0  0  0  0  0  0  0  0
    2.2703   -2.3199   -3.9268 H   0  0  0  0  0  0  0  0  0  0  0  0
   -0.4318    2.1403    0.7421 C   0  0  0  0  0  0  0  0  0  0  0  0
    0.0786    3.0566    0.1121 O   0  0  0  0  0  0  0  0  0  0  0  0
   -1.2260    2.4462    1.8316 N   0  0  0  0  0  0  0  0  0  0  0  0
   -1.5907    1.6626    2.3664 H   0  0  0  0  0  0  0  0  0  0  0  0
   -1.4257    3.8028    2.3271 C   0  0  0  0  0  0  0  0  0  0  0  0
   -1.8734    4.4325    1.5510 H   0  0  0  0  0  0  0  0  0  0  0  0
   -2.0943    3.7954    3.1932 H   0  0  0  0  0  0  0  0  0  0  0  0
   -0.4703    4.2438    2.6302 H   0  0  0  0  0  0  0  0  0  0  0  0
  1  2  1  0  0  0  0
  2  3  1  0  0  0  0
  2  4  1  0  0  0  0
  2  5  1  0  0  0  0
  5  6  2  0  0  0  0
  5  7  1  0  0  0  0
  7  8  1  0  0  0  0
  7  9  1  0  0  0  0
  9 10  1  0  0  0  0
  9 11  1  0  0  0  0
  9 21  1  0  0  0  0
 11 12  1  0  0  0  0
 11 13  1  0  0  0  0
 11 14  1  0  0  0  0
 14 15  1  0  0  0  0
 14 16  1  0  0  0  0
 14 17  1  0  0  0  0
 17 18  2  0  0  0  0
 17 19  1  0  0  0  0
 19 20  1  0  0  0  0
 21 22  2  0  0  0  0
 21 23  1  0  0  0  0
 23 24  1  0  0  0  0
 23 25  1  0  0  0  0
 25 26  1  0  0  0  0
 25 27  1  0  0  0  0
 25 28  1  0  0  0  0
M  END
$$$$

  -OEChem-01062216073D

 28 27  0     1  0  0  0  0  0999 V2000
   -3.1159   -2.9387    1.1587 H   0  0  0  0  0  0  0  0  0  0  0  0
   -3.1190   -1.9482    0.6947 C   0  0  0  0  0  0  0  0  0  0  0  0
   -3.9050   -1.3457    1.1564 H   0  0  0  0  0  0  0  0  0  0  0  0
   -3.3329   -2.0608   -0.3710 H   0  0  0  0  0  0  0  0  0  0  0  0
   -1.7718   -1.2781    0.8857 C   0  0  0  0  0  0  0  0  0  0  0  0
   -0.9006   -1.8308    1.5358 O   0  0  0  0  0  0  0  0  0  0  0  0
   -1.5431   -0.0302    0.3426 N   0  0  0  0  0  0  0  0  0  0  0  0
   -2.2870    0.3651   -0.2274 H   0  0  0  0  0  0  0  0  0  0  0  0
   -0.2352    0.6519    0.3318 C   0  0  1  0  0  0  0  0  0  0  0  0
    0.4407    0.2041    1.0680 H   0  0  0  0  0  0  0  0  0  0  0  0
    0.4116    0.5078   -1.0627 C   0  0  0  0  0  0  0  0  0  0  0  0
   -0.2797    0.8869   -1.8238 H   0  0  0  0  0  0  0  0  0  0  0  0
    1.3153    1.1267   -1.1054 H   0  0  0  0  0  0  0  0  0  0  0  0
    0.7996   -0.9524   -1.3831 C   0  0  0  0  0  0  0  0  0  0  0  0
    1.5094   -1.3099   -0.6319 H   0  0  0  0  0  0  0  0  0  0  0  0
   -0.0837   -1.5926   -1.3338 H   0  0  0  0  0  0  0  0  0  0  0  0
    1.4231   -1.1428   -2.7659 C   0  0  0  0  0  0  0  0  0  0  0  0
    1.4590   -0.2132   -3.5553 O   0  0  0  0  0  0  0  0  0  0  0  0
    1.9061   -2.3743   -3.0476 O   0  0  0  0  0  0  0  0  0  0  0  0
    2.2629   -2.3184   -3.9469 H   0  0  0  0  0  0  0  0  0  0  0  0
   -0.4067    2.1301    0.7496 C   0  0  0  0  0  0  0  0  0  0  0  0
   -0.1467    3.0564   -0.0066 O   0  0  0  0  0  0  0  0  0  0  0  0
   -0.9288    2.4137    1.9977 N   0  0  0  0  0  0  0  0  0  0  0  0
   -1.1387    1.6230    2.6014 H   0  0  0  0  0  0  0  0  0  0  0  0
   -1.1498    3.7674    2.4914 C   0  0  0  0  0  0  0  0  0  0  0  0
   -1.8408    4.3070    1.8352 H   0  0  0  0  0  0  0  0  0  0  0  0
   -1.5803    3.7384    3.4969 H   0  0  0  0  0  0  0  0  0  0  0  0
   -0.2042    4.3180    2.5354 H   0  0  0  0  0  0  0  0  0  0  0  0
  1  2  1  0  0  0  0
  2  3  1  0  0  0  0
  2  4  1  0  0  0  0
  2  5  1  0  0  0  0
  5  6  2  0  0  0  0
  5  7  1  0  0  0  0
  7  8  1  0  0  0  0
  7  9  1  0  0  0  0
  9 10  1  0  0  0  0
  9 11  1  0  0  0  0
  9 21  1  0  0  0  0
 11 12  1  0  0  0  0
 11 13  1  0  0  0  0
 11 14  1  0  0  0  0
 14 15  1  0  0  0  0
 14 16  1  0  0  0  0
 14 17  1  0  0  0  0
 17 18  2  0  0  0  0
 17 19  1  0  0  0  0
 19 20  1  0  0  0  0
 21 22  2  0  0  0  0
 21 23  1  0  0  0  0
 23 24  1  0  0  0  0
 23 25  1  0  0  0  0
 25 26  1  0  0  0  0
 25 27  1  0  0  0  0
 25 28  1  0  0  0  0
M  END
$$$$

  -OEChem-01062216073D

 28 27  0     1  0  0  0  0  0999 V2000
   -3.1389   -2.9147    1.1790 H   0  0  0  0  0  0  0  0  0  0  0  0
   -3.1318   -1.9244    0.7149 C   0  0  0  0  0  0  0  0  0  0  0  0
   -3.9013   -1.3086    1.1868 H   0  0  0  0  0  0  0  0  0  0  0  0
   -3.3624   -2.0328   -0.3477 H   0  0  0  0  0  0  0  0  0  0  0  0
   -1.7711   -1.2768    0.8869 C   0  0  0  0  0  0  0  0  0  0  0  0
   -0.8968   -1.8471    1.5181 O   0  0  0  0  0  0  0  0  0  0  0  0
   -1.5310   -0.0311    0.3447 N   0  0  0  0  0  0  0  0  0  0  0  0
   -2.2810    0.3876   -0.2003 H   0  0  0  0  0  0  0  0  0  0  0  0
   -0.2201    0.6416    0.3353 C   0  0  1  0  0  0  0  0  0  0  0  0
    0.4548    0.1855    1.0675 H   0  0  0  0  0  0  0  0  0  0  0  0
    0.4257    0.5041   -1.0596 C   0  0  0  0  0  0  0  0  0  0  0  0
   -0.2657    0.8889   -1.8179 H   0  0  0  0  0  0  0  0  0  0  0  0
    1.3301    1.1220   -1.0987 H   0  0  0  0  0  0  0  0  0  0  0  0
    0.8054   -0.9558   -1.3905 C   0  0  0  0  0  0  0  0  0  0  0  0
    1.5136   -1.3228   -0.6424 H   0  0  0  0  0  0  0  0  0  0  0  0
   -0.0818   -1.5910   -1.3454 H   0  0  0  0  0  0  0  0  0  0  0  0
    1.4278   -1.1395   -2.7746 C   0  0  0  0  0  0  0  0  0  0  0  0
    1.4685   -0.2042   -3.5568 O   0  0  0  0  0  0  0  0  0  0  0  0
    1.9075   -2.3704   -3.0647 O   0  0  0  0  0  0  0  0  0  0  0  0
    2.2628   -2.3089   -3.9642 H   0  0  0  0  0  0  0  0  0  0  0  0
   -0.3848    2.1191    0.7524 C   0  0  0  0  0  0  0  0  0  0  0  0
   -0.3984    3.0236   -0.0721 O   0  0  0  0  0  0  0  0  0  0  0  0
   -0.6035    2.4212    2.0833 N   0  0  0  0  0  0  0  0  0  0  0  0
   -0.6398    1.6428    2.7365 H   0  0  0  0  0  0  0  0  0  0  0  0
   -0.8305    3.7750    2.5746 C   0  0  0  0  0  0  0  0  0  0  0  0
   -1.7120    4.2141    2.0955 H   0  0  0  0  0  0  0  0  0  0  0  0
   -0.9953    3.7627    3.6563 H   0  0  0  0  0  0  0  0  0  0  0  0
    0.0374    4.4091    2.3644 H   0  0  0  0  0  0  0  0  0  0  0  0
  1  2  1  0  0  0  0
  2  3  1  0  0  0  0
  2  4  1  0  0  0  0
  2  5  1  0  0  0  0
  5  6  2  0  0  0  0
  5  7  1  0  0  0  0
  7  8  1  0  0  0  0
  7  9  1  0  0  0  0
  9 10  1  0  0  0  0
  9 11  1  0  0  0  0
  9 21  1  0  0  0  0
 11 12  1  0  0  0  0
 11 13  1  0  0  0  0
 11 14  1  0  0  0  0
 14 15  1  0  0  0  0
 14 16  1  0  0  0  0
 14 17  1  0  0  0  0
 17 18  2  0  0  0  0
 17 19  1  0  0  0  0
 19 20  1  0  0  0  0
 21 22  2  0  0  0  0
 21 23  1  0  0  0  0
 23 24  1  0  0  0  0
 23 25  1  0  0  0  0
 25 26  1  0  0  0  0
 25 27  1  0  0  0  0
 25 28  1  0  0  0  0
M  END
$$$$

  -OEChem-01062216073D

 28 27  0     1  0  0  0  0  0999 V2000
   -3.1627   -2.8940    1.2027 H   0  0  0  0  0  0  0  0  0  0  0  0
   -3.1457   -1.9055    0.7348 C   0  0  0  0  0  0  0  0  0  0  0  0
   -3.8984   -1.2755    1.2146 H   0  0  0  0  0  0  0  0  0  0  0  0
   -3.3914   -2.0137   -0.3244 H   0  0  0  0  0  0  0  0  0  0  0  0
   -1.7727   -1.2794    0.8865 C   0  0  0  0  0  0  0  0  0  0  0  0
   -0.8960   -1.8677    1.4982 O   0  0  0  0  0  0  0  0  0  0  0  0
   -1.5213   -0.0367    0.3425 N   0  0  0  0  0  0  0  0  0  0  0  0
   -2.2778    0.4095   -0.1714 H   0  0  0  0  0  0  0  0  0  0  0  0
   -0.2079    0.6283    0.3381 C   0  0  1  0  0  0  0  0  0  0  0  0
    0.4629    0.1652    1.0692 H   0  0  0  0  0  0  0  0  0  0  0  0
    0.4394    0.4992   -1.0559 C   0  0  0  0  0  0  0  0  0  0  0  0
   -0.2505    0.8910   -1.8122 H   0  0  0  0  0  0  0  0  0  0  0  0
    1.3450    1.1154   -1.0896 H   0  0  0  0  0  0  0  0  0  0  0  0
    0.8125   -0.9597   -1.3982 C   0  0  0  0  0  0  0  0  0  0  0  0
    1.5166   -1.3374   -0.6516 H   0  0  0  0  0  0  0  0  0  0  0  0
   -0.0788   -1.5898   -1.3601 H   0  0  0  0  0  0  0  0  0  0  0  0
    1.4368   -1.1344   -2.7831 C   0  0  0  0  0  0  0  0  0  0  0  0
    1.4836   -0.1923   -3.5569 O   0  0  0  0  0  0  0  0  0  0  0  0
    1.9097   -2.3653   -3.0839 O   0  0  0  0  0  0  0  0  0  0  0  0
    2.2636   -2.2992   -3.9837 H   0  0  0  0  0  0  0  0  0  0  0  0
   -0.3642    2.1071    0.7493 C   0  0  0  0  0  0  0  0  0  0  0  0
   -0.6518    2.9647   -0.0755 O   0  0  0  0  0  0  0  0  0  0  0  0
   -0.2753    2.4589    2.0831 N   0  0  0  0  0  0  0  0  0  0  0  0
   -0.1279    1.7094    2.7540 H   0  0  0  0  0  0  0  0  0  0  0  0
   -0.4989    3.8144    2.5714 C   0  0  0  0  0  0  0  0  0  0  0  0
   -1.5119    4.1489    2.3241 H   0  0  0  0  0  0  0  0  0  0  0  0
   -0.3786    3.8502    3.6584 H   0  0  0  0  0  0  0  0  0  0  0  0
    0.2202    4.5071    2.1213 H   0  0  0  0  0  0  0  0  0  0  0  0
  1  2  1  0  0  0  0
  2  3  1  0  0  0  0
  2  4  1  0  0  0  0
  2  5  1  0  0  0  0
  5  6  2  0  0  0  0
  5  7  1  0  0  0  0
  7  8  1  0  0  0  0
  7  9  1  0  0  0  0
  9 10  1  0  0  0  0
  9 11  1  0  0  0  0
  9 21  1  0  0  0  0
 11 12  1  0  0  0  0
 11 13  1  0  0  0  0
 11 14  1  0  0  0  0
 14 15  1  0  0  0  0
 14 16  1  0  0  0  0
 14 17  1  0  0  0  0
 17 18  2  0  0  0  0
 17 19  1  0  0  0  0
 19 20  1  0  0  0  0
 21 22  2  0  0  0  0
 21 23  1  0  0  0  0
 23 24  1  0  0  0  0
 23 25  1  0  0  0  0
 25 26  1  0  0  0  0
 25 27  1  0  0  0  0
 25 28  1  0  0  0  0
M  END
$$$$

  -OEChem-01062216073D

 28 27  0     1  0  0  0  0  0999 V2000
   -3.1962   -2.8659    1.2488 H   0  0  0  0  0  0  0  0  0  0  0  0
   -3.1695   -1.8814    0.7732 C   0  0  0  0  0  0  0  0  0  0  0  0
   -3.8900   -1.2295    1.2727 H   0  0  0  0  0  0  0  0  0  0  0  0
   -3.4526   -1.9904   -0.2765 H   0  0  0  0  0  0  0  0  0  0  0  0
   -1.7771   -1.2889    0.8758 C   0  0  0  0  0  0  0  0  0  0  0  0
   -0.8922   -1.9023    1.4506 O   0  0  0  0  0  0  0  0  0  0  0  0
   -1.5158   -0.0498    0.3290 N   0  0  0  0  0  0  0  0  0  0  0  0
   -2.2858    0.4361   -0.1266 H   0  0  0  0  0  0  0  0  0  0  0  0
   -0.2016    0.6119    0.3318 C   0  0  1  0  0  0  0  0  0  0  0  0
    0.4630    0.1450    1.0662 H   0  0  0  0  0  0  0  0  0  0  0  0
    0.4527    0.4939   -1.0584 C   0  0  0  0  0  0  0  0  0  0  0  0
   -0.2342    0.8917   -1.8144 H   0  0  0  0  0  0  0  0  0  0  0  0
    1.3586    1.1098   -1.0830 H   0  0  0  0  0  0  0  0  0  0  0  0
    0.8258   -0.9626   -1.4100 C   0  0  0  0  0  0  0  0  0  0  0  0
    1.5244   -1.3480   -0.6623 H   0  0  0  0  0  0  0  0  0  0  0  0
   -0.0673   -1.5910   -1.3819 H   0  0  0  0  0  0  0  0  0  0  0  0
    1.4577   -1.1265   -2.7927 C   0  0  0  0  0  0  0  0  0  0  0  0
    1.5096   -0.1774   -3.5576 O   0  0  0  0  0  0  0  0  0  0  0  0
    1.9329   -2.3548   -3.1012 O   0  0  0  0  0  0  0  0  0  0  0  0
    2.2911   -2.2815   -3.9988 H   0  0  0  0  0  0  0  0  0  0  0  0
   -0.3564    2.0924    0.7341 C   0  0  0  0  0  0  0  0  0  0  0  0
   -0.8986    2.8867   -0.0239 O   0  0  0  0  0  0  0  0  0  0  0  0
    0.0224    2.5123    1.9956 N   0  0  0  0  0  0  0  0  0  0  0  0
    0.3725    1.8067    2.6381 H   0  0  0  0  0  0  0  0  0  0  0  0
   -0.1807    3.8722    2.4807 C   0  0  0  0  0  0  0  0  0  0  0  0
   -1.2460    4.1259    2.4767 H   0  0  0  0  0  0  0  0  0  0  0  0
    0.1942    3.9689    3.5041 H   0  0  0  0  0  0  0  0  0  0  0  0
    0.3540    4.5886    1.8481 H   0  0  0  0  0  0  0  0  0  0  0  0
  1  2  1  0  0  0  0
  2  3  1  0  0  0  0
  2  4  1  0  0  0  0
  2  5  1  0  0  0  0
  5  6  2  0  0  0  0
  5  7  1  0  0  0  0
  7  8  1  0  0  0  0
  7  9  1  0  0  0  0
  9 10  1  0  0  0  0
  9 11  1  0  0  0  0
  9 21  1  0  0  0  0
 11 12  1  0  0  0  0
 11 13  1  0  0  0  0
 11 14  1  0  0  0  0
 14 15  1  0  0  0  0
 14 16  1  0  0  0  0
 14 17  1  0  0  0  0
 17 18  2  0  0  0  0
 17 19  1  0  0  0  0
 19 20  1  0  0  0  0
 21 22  2  0  0  0  0
 21 23  1  0  0  0  0
 23 24  1  0  0  0  0
 23 25  1  0  0  0  0
 25 26  1  0  0  0  0
 25 27  1  0  0  0  0
 25 28  1  0  0  0  0
M  END
$$$$

  -OEChem-01062216073D

 28 27  0     1  0  0  0  0  0999 V2000
   -3.2309   -2.8327    1.2994 H   0  0  0  0  0  0  0  0  0  0  0  0
   -3.1945   -1.8522    0.8164 C   0  0  0  0  0  0  0  0  0  0  0  0
   -3.8769   -1.1771    1.3384 H   0  0  0  0  0  0  0  0  0  0  0  0
   -3.5203   -1.9582   -0.2211 H   0  0  0  0  0  0  0  0  0  0  0  0
   -1.7827   -1.2995    0.8608 C   0  0  0  0  0  0  0  0  0  0  0  0
   -0.8899   -1.9417    1.3906 O   0  0  0  0  0  0  0  0  0  0  0  0
   -1.5126   -0.0642    0.3103 N   0  0  0  0  0  0  0  0  0  0  0  0
   -2.2953    0.4621   -0.0740 H   0  0  0  0  0  0  0  0  0  0  0  0
   -0.1982    0.5959    0.3213 C   0  0  1  0  0  0  0  0  0  0  0  0
    0.4577    0.1276    1.0624 H   0  0  0  0  0  0  0  0  0  0  0  0
    0.4658    0.4869   -1.0638 C   0  0  0  0  0  0  0  0  0  0  0  0
   -0.2159    0.8907   -1.8214 H   0  0  0  0  0  0  0  0  0  0  0  0
    1.3727    1.1016   -1.0780 H   0  0  0  0  0  0  0  0  0  0  0  0
    0.8416   -0.9670   -1.4227 C   0  0  0  0  0  0  0  0  0  0  0  0
    1.5350   -1.3580   -0.6729 H   0  0  0  0  0  0  0  0  0  0  0  0
   -0.0517   -1.5957   -1.4048 H   0  0  0  0  0  0  0  0  0  0  0  0
    1.4835   -1.1204   -2.8021 C   0  0  0  0  0  0  0  0  0  0  0  0
    1.5404   -0.1653   -3.5596 O   0  0  0  0  0  0  0  0  0  0  0  0
    1.9643   -2.3451   -3.1153 O   0  0  0  0  0  0  0  0  0  0  0  0
    2.3267   -2.2659   -4.0106 H   0  0  0  0  0  0  0  0  0  0  0  0
   -0.3556    2.0783    0.7135 C   0  0  0  0  0  0  0  0  0  0  0  0
   -1.1151    2.8007    0.0796 O   0  0  0  0  0  0  0  0  0  0  0  0
    0.2796    2.5795    1.8344 N   0  0  0  0  0  0  0  0  0  0  0  0
    0.8297    1.9320    2.3918 H   0  0  0  0  0  0  0  0  0  0  0  0
    0.0969    3.9448    2.3125 C   0  0  0  0  0  0  0  0  0  0  0  0
   -0.9522    4.1237    2.5706 H   0  0  0  0  0  0  0  0  0  0  0  0
    0.7071    4.1187    3.2041 H   0  0  0  0  0  0  0  0  0  0  0  0
    0.3976    4.6638    1.5430 H   0  0  0  0  0  0  0  0  0  0  0  0
  1  2  1  0  0  0  0
  2  3  1  0  0  0  0
  2  4  1  0  0  0  0
  2  5  1  0  0  0  0
  5  6  2  0  0  0  0
  5  7  1  0  0  0  0
  7  8  1  0  0  0  0
  7  9  1  0  0  0  0
  9 10  1  0  0  0  0
  9 11  1  0  0  0  0
  9 21  1  0  0  0  0
 11 12  1  0  0  0  0
 11 13  1  0  0  0  0
 11 14  1  0  0  0  0
 14 15  1  0  0  0  0
 14 16  1  0  0  0  0
 14 17  1  0  0  0  0
 17 18  2  0  0  0  0
 17 19  1  0  0  0  0
 19 20  1  0  0  0  0
 21 22  2  0  0  0  0
 21 23  1  0  0  0  0
 23 24  1  0  0  0  0
 23 25  1  0  0  0  0
 25 26  1  0  0  0  0
 25 27  1  0  0  0  0
 25 28  1  0  0  0  0
M  END
$$$$

  -OEChem-01062216073D

 28 27  0     1  0  0  0  0  0999 V2000
   -3.2467   -2.8245    1.3321 H   0  0  0  0  0  0  0  0  0  0  0  0
   -3.2096   -1.8469    0.8431 C   0  0  0  0  0  0  0  0  0  0  0  0
   -3.8669   -1.1590    1.3802 H   0  0  0  0  0  0  0  0  0  0  0  0
   -3.5659   -1.9529   -0.1843 H   0  0  0  0  0  0  0  0  0  0  0  0
   -1.7892   -1.3148    0.8459 C   0  0  0  0  0  0  0  0  0  0  0  0
   -0.8892   -1.9748    1.3409 O   0  0  0  0  0  0  0  0  0  0  0  0
   -1.5191   -0.0803    0.2939 N   0  0  0  0  0  0  0  0  0  0  0  0
   -2.3120    0.4776   -0.0202 H   0  0  0  0  0  0  0  0  0  0  0  0
   -0.2073    0.5844    0.3169 C   0  0  1  0  0  0  0  0  0  0  0  0
    0.4413    0.1186    1.0662 H   0  0  0  0  0  0  0  0  0  0  0  0
    0.4658    0.4832   -1.0635 C   0  0  0  0  0  0  0  0  0  0  0  0
   -0.2143    0.8869   -1.8227 H   0  0  0  0  0  0  0  0  0  0  0  0
    1.3702    1.1015   -1.0706 H   0  0  0  0  0  0  0  0  0  0  0  0
    0.8494   -0.9672   -1.4274 C   0  0  0  0  0  0  0  0  0  0  0  0
    1.5389   -1.3600   -0.6751 H   0  0  0  0  0  0  0  0  0  0  0  0
   -0.0421   -1.5987   -1.4191 H   0  0  0  0  0  0  0  0  0  0  0  0
    1.5007   -1.1092   -2.8035 C   0  0  0  0  0  0  0  0  0  0  0  0
    1.5581   -0.1485   -3.5540 O   0  0  0  0  0  0  0  0  0  0  0  0
    1.9908   -2.3290   -3.1213 O   0  0  0  0  0  0  0  0  0  0  0  0
    2.3578   -2.2425   -4.0139 H   0  0  0  0  0  0  0  0  0  0  0  0
   -0.3684    2.0689    0.7019 C   0  0  0  0  0  0  0  0  0  0  0  0
   -1.2900    2.7243    0.2296 O   0  0  0  0  0  0  0  0  0  0  0  0
    0.4776    2.6546    1.6252 N   0  0  0  0  0  0  0  0  0  0  0  0
    1.1956    2.0712    2.0451 H   0  0  0  0  0  0  0  0  0  0  0  0
    0.3429    4.0380    2.0660 C   0  0  0  0  0  0  0  0  0  0  0  0
   -0.6352    4.1983    2.5316 H   0  0  0  0  0  0  0  0  0  0  0  0
    1.1185    4.2796    2.7991 H   0  0  0  0  0  0  0  0  0  0  0  0
    0.4452    4.7223    1.2170 H   0  0  0  0  0  0  0  0  0  0  0  0
  1  2  1  0  0  0  0
  2  3  1  0  0  0  0
  2  4  1  0  0  0  0
  2  5  1  0  0  0  0
  5  6  2  0  0  0  0
  5  7  1  0  0  0  0
  7  8  1  0  0  0  0
  7  9  1  0  0  0  0
  9 10  1  0  0  0  0
  9 11  1  0  0  0  0
  9 21  1  0  0  0  0
 11 12  1  0  0  0  0
 11 13  1  0  0  0  0
 11 14  1  0  0  0  0
 14 15  1  0  0  0  0
 14 16  1  0  0  0  0
 14 17  1  0  0  0  0
 17 18  2  0  0  0  0
 17 19  1  0  0  0  0
 19 20  1  0  0  0  0
 21 22  2  0  0  0  0
 21 23  1  0  0  0  0
 23 24  1  0  0  0  0
 23 25  1  0  0  0  0
 25 26  1  0  0  0  0
 25 27  1  0  0  0  0
 25 28  1  0  0  0  0
M  END
$$$$

  -OEChem-01062216073D

 28 27  0     1  0  0  0  0  0999 V2000
   -3.2568   -2.8109    1.3661 H   0  0  0  0  0  0  0  0  0  0  0  0
   -3.2195   -1.8376    0.8692 C   0  0  0  0  0  0  0  0  0  0  0  0
   -3.8505   -1.1365    1.4210 H   0  0  0  0  0  0  0  0  0  0  0  0
   -3.6078   -1.9453   -0.1464 H   0  0  0  0  0  0  0  0  0  0  0  0
   -1.7923   -1.3264    0.8247 C   0  0  0  0  0  0  0  0  0  0  0  0
   -0.8843   -2.0037    1.2804 O   0  0  0  0  0  0  0  0  0  0  0  0
   -1.5264   -0.0913    0.2721 N   0  0  0  0  0  0  0  0  0  0  0  0
   -2.3278    0.4916    0.0320 H   0  0  0  0  0  0  0  0  0  0  0  0
   -0.2172    0.5790    0.3085 C   0  0  1  0  0  0  0  0  0  0  0  0
    0.4249    0.1165    1.0656 H   0  0  0  0  0  0  0  0  0  0  0  0
    0.4657    0.4806   -1.0673 C   0  0  0  0  0  0  0  0  0  0  0  0
   -0.2116    0.8823   -1.8299 H   0  0  0  0  0  0  0  0  0  0  0  0
    1.3686    1.1012   -1.0691 H   0  0  0  0  0  0  0  0  0  0  0  0
    0.8575   -0.9675   -1.4310 C   0  0  0  0  0  0  0  0  0  0  0  0
    1.5426   -1.3602   -0.6744 H   0  0  0  0  0  0  0  0  0  0  0  0
   -0.0318   -1.6021   -1.4310 H   0  0  0  0  0  0  0  0  0  0  0  0
    1.5184   -1.1035   -2.8031 C   0  0  0  0  0  0  0  0  0  0  0  0
    1.5759   -0.1402   -3.5506 O   0  0  0  0  0  0  0  0  0  0  0  0
    2.0166   -2.3201   -3.1209 O   0  0  0  0  0  0  0  0  0  0  0  0
    2.3872   -2.2305   -4.0117 H   0  0  0  0  0  0  0  0  0  0  0  0
   -0.3834    2.0653    0.6892 C   0  0  0  0  0  0  0  0  0  0  0  0
   -1.4206    2.6571    0.4110 O   0  0  0  0  0  0  0  0  0  0  0  0
    0.6170    2.7341    1.3699 N   0  0  0  0  0  0  0  0  0  0  0  0
    1.4525    2.2113    1.6164 H   0  0  0  0  0  0  0  0  0  0  0  0
    0.5125    4.1316    1.7724 C   0  0  0  0  0  0  0  0  0  0  0  0
   -0.3390    4.2747    2.4463 H   0  0  0  0  0  0  0  0  0  0  0  0
    1.4221    4.4449    2.2939 H   0  0  0  0  0  0  0  0  0  0  0  0
    0.3788    4.7735    0.8950 H   0  0  0  0  0  0  0  0  0  0  0  0
  1  2  1  0  0  0  0
  2  3  1  0  0  0  0
  2  4  1  0  0  0  0
  2  5  1  0  0  0  0
  5  6  2  0  0  0  0
  5  7  1  0  0  0  0
  7  8  1  0  0  0  0
  7  9  1  0  0  0  0
  9 10  1  0  0  0  0
  9 11  1  0  0  0  0
  9 21  1  0  0  0  0
 11 12  1  0  0  0  0
 11 13  1  0  0  0  0
 11 14  1  0  0  0  0
 14 15  1  0  0  0  0
 14 16  1  0  0  0  0
 14 17  1  0  0  0  0
 17 18  2  0  0  0  0
 17 19  1  0  0  0  0
 19 20  1  0  0  0  0
 21 22  2  0  0  0  0
 21 23  1  0  0  0  0
 23 24  1  0  0  0  0
 23 25  1  0  0  0  0
 25 26  1  0  0  0  0
 25 27  1  0  0  0  0
 25 28  1  0  0  0  0
M  END
$$$$

  -OEChem-01062216073D

 28 27  0     1  0  0  0  0  0999 V2000
   -3.2548   -2.8030    1.3871 H   0  0  0  0  0  0  0  0  0  0  0  0
   -3.2220   -1.8322    0.8852 C   0  0  0  0  0  0  0  0  0  0  0  0
   -3.8340   -1.1237    1.4489 H   0  0  0  0  0  0  0  0  0  0  0  0
   -3.6354   -1.9409   -0.1205 H   0  0  0  0  0  0  0  0  0  0  0  0
   -1.7921   -1.3324    0.8046 C   0  0  0  0  0  0  0  0  0  0  0  0
   -0.8780   -2.0210    1.2305 O   0  0  0  0  0  0  0  0  0  0  0  0
   -1.5319   -0.0959    0.2525 N   0  0  0  0  0  0  0  0  0  0  0  0
   -2.3380    0.5036    0.0768 H   0  0  0  0  0  0  0  0  0  0  0  0
   -0.2248    0.5784    0.3013 C   0  0  1  0  0  0  0  0  0  0  0  0
    0.4132    0.1201    1.0647 H   0  0  0  0  0  0  0  0  0  0  0  0
    0.4649    0.4776   -1.0724 C   0  0  0  0  0  0  0  0  0  0  0  0
   -0.2107    0.8761   -1.8383 H   0  0  0  0  0  0  0  0  0  0  0  0
    1.3676    1.0983   -1.0744 H   0  0  0  0  0  0  0  0  0  0  0  0
    0.8613   -0.9700   -1.4336 C   0  0  0  0  0  0  0  0  0  0  0  0
    1.5439   -1.3609   -0.6739 H   0  0  0  0  0  0  0  0  0  0  0  0
   -0.0265   -1.6070   -1.4375 H   0  0  0  0  0  0  0  0  0  0  0  0
    1.5283   -1.1050   -2.8028 C   0  0  0  0  0  0  0  0  0  0  0  0
    1.5867   -0.1414   -3.5499 O   0  0  0  0  0  0  0  0  0  0  0  0
    2.0308   -2.3202   -3.1186 O   0  0  0  0  0  0  0  0  0  0  0  0
    2.4039   -2.2305   -4.0084 H   0  0  0  0  0  0  0  0  0  0  0  0
   -0.3954    2.0662    0.6809 C   0  0  0  0  0  0  0  0  0  0  0  0
   -1.4996    2.5965    0.6170 O   0  0  0  0  0  0  0  0  0  0  0  0
    0.6916    2.8187    1.0870 N   0  0  0  0  0  0  0  0  0  0  0  0
    1.5936    2.3549    1.1438 H   0  0  0  0  0  0  0  0  0  0  0  0
    0.5970    4.2279    1.4498 C   0  0  0  0  0  0  0  0  0  0  0  0
   -0.0829    4.3609    2.2981 H   0  0  0  0  0  0  0  0  0  0  0  0
    1.5813    4.6137    1.7321 H   0  0  0  0  0  0  0  0  0  0  0  0
    0.2245    4.8166    0.6048 H   0  0  0  0  0  0  0  0  0  0  0  0
  1  2  1  0  0  0  0
  2  3  1  0  0  0  0
  2  4  1  0  0  0  0
  2  5  1  0  0  0  0
  5  6  2  0  0  0  0
  5  7  1  0  0  0  0
  7  8  1  0  0  0  0
  7  9  1  0  0  0  0
  9 10  1  0  0  0  0
  9 11  1  0  0  0  0
  9 21  1  0  0  0  0
 11 12  1  0  0  0  0
 11 13  1  0  0  0  0
 11 14  1  0  0  0  0
 14 15  1  0  0  0  0
 14 16  1  0  0  0  0
 14 17  1  0  0  0  0
 17 18  2  0  0  0  0
 17 19  1  0  0  0  0
 19 20  1  0  0  0  0
 21 22  2  0  0  0  0
 21 23  1  0  0  0  0
 23 24  1  0  0  0  0
 23 25  1  0  0  0  0
 25 26  1  0  0  0  0
 25 27  1  0  0  0  0
 25 28  1  0  0  0  0
M  END
$$$$

  -OEChem-01062216073D

 28 27  0     1  0  0  0  0  0999 V2000
   -3.1951   -2.7668    1.4559 H   0  0  0  0  0  0  0  0  0  0  0  0
   -3.1919   -1.7968    0.9513 C   0  0  0  0  0  0  0  0  0  0  0  0
   -3.7236   -1.0742    1.5755 H   0  0  0  0  0  0  0  0  0  0  0  0
   -3.7112   -1.8944   -0.0050 H   0  0  0  0  0  0  0  0  0  0  0  0
   -1.7667   -1.3319    0.7204 C   0  0  0  0  0  0  0  0  0  0  0  0
   -0.8320   -2.0643    1.0053 O   0  0  0  0  0  0  0  0  0  0  0  0
   -1.5370   -0.0829    0.1816 N   0  0  0  0  0  0  0  0  0  0  0  0
   -2.3471    0.5354    0.1718 H   0  0  0  0  0  0  0  0  0  0  0  0
   -0.2308    0.5944    0.2505 C   0  0  1  0  0  0  0  0  0  0  0  0
    0.4968   -0.0102    0.8025 H   0  0  0  0  0  0  0  0  0  0  0  0
    0.2852    0.8134   -1.1838 C   0  0  0  0  0  0  0  0  0  0  0  0
   -0.4749    1.3538   -1.7595 H   0  0  0  0  0  0  0  0  0  0  0  0
    1.1866    1.4345   -1.1637 H   0  0  0  0  0  0  0  0  0  0  0  0
    0.6221   -0.5204   -1.8847 C   0  0  0  0  0  0  0  0  0  0  0  0
    1.3902   -1.0475   -1.3118 H   0  0  0  0  0  0  0  0  0  0  0  0
   -0.2648   -1.1593   -1.9104 H   0  0  0  0  0  0  0  0  0  0  0  0
    1.1176   -0.3560   -3.3219 C   0  0  0  0  0  0  0  0  0  0  0  0
    1.0937    0.7434   -3.8520 O   0  0  0  0  0  0  0  0  0  0  0  0
    1.5680   -1.4700   -3.9425 O   0  0  0  0  0  0  0  0  0  0  0  0
    1.8324   -1.1910   -4.8321 H   0  0  0  0  0  0  0  0  0  0  0  0
   -0.3510    1.9409    1.0022 C   0  0  0  0  0  0  0  0  0  0  0  0
   -1.4460    2.3349    1.3897 O   0  0  0  0  0  0  0  0  0  0  0  0
    0.7545    2.7509    1.1898 N   0  0  0  0  0  0  0  0  0  0  0  0
    1.6542    2.4048    0.8694 H   0  0  0  0  0  0  0  0  0  0  0  0
    0.6937    4.0427    1.8639 C   0  0  0  0  0  0  0  0  0  0  0  0
    0.3326    3.9227    2.8909 H   0  0  0  0  0  0  0  0  0  0  0  0
    1.6875    4.4997    1.8981 H   0  0  0  0  0  0  0  0  0  0  0  0
    0.0194    4.7215    1.3307 H   0  0  0  0  0  0  0  0  0  0  0  0
  1  2  1  0  0  0  0
  2  3  1  0  0  0  0
  2  4  1  0  0  0  0
  2  5  1  0  0  0  0
  5  6  2  0  0  0  0
  5  7  1  0  0  0  0
  7  8  1  0  0  0  0
  7  9  1  0  0  0  0
  9 10  1  0  0  0  0
  9 11  1  0  0  0  0
  9 21  1  0  0  0  0
 11 12  1  0  0  0  0
 11 13  1  0  0  0  0
 11 14  1  0  0  0  0
 14 15  1  0  0  0  0
 14 16  1  0  0  0  0
 14 17  1  0  0  0  0
 17 18  2  0  0  0  0
 17 19  1  0  0  0  0
 19 20  1  0  0  0  0
 21 22  2  0  0  0  0
 21 23  1  0  0  0  0
 23 24  1  0  0  0  0
 23 25  1  0  0  0  0
 25 26  1  0  0  0  0
 25 27  1  0  0  0  0
 25 28  1  0  0  0  0
M  END
$$$$

  -OEChem-01062216073D

 28 27  0     1  0  0  0  0  0999 V2000
   -3.1770   -2.7779    1.4234 H   0  0  0  0  0  0  0  0  0  0  0  0
   -3.1837   -1.7874    0.9599 C   0  0  0  0  0  0  0  0  0  0  0  0
   -3.6825   -1.0870    1.6344 H   0  0  0  0  0  0  0  0  0  0  0  0
   -3.7412   -1.8404    0.0218 H   0  0  0  0  0  0  0  0  0  0  0  0
   -1.7637   -1.3257    0.6934 C   0  0  0  0  0  0  0  0  0  0  0  0
   -0.8258   -2.0689    0.9369 O   0  0  0  0  0  0  0  0  0  0  0  0
   -1.5429   -0.0713    0.1625 N   0  0  0  0  0  0  0  0  0  0  0  0
   -2.3522    0.5468    0.1955 H   0  0  0  0  0  0  0  0  0  0  0  0
   -0.2346    0.6036    0.2366 C   0  0  1  0  0  0  0  0  0  0  0  0
    0.4905   -0.0020    0.7905 H   0  0  0  0  0  0  0  0  0  0  0  0
    0.2865    0.8098   -1.1995 C   0  0  0  0  0  0  0  0  0  0  0  0
   -0.4698    1.3485   -1.7820 H   0  0  0  0  0  0  0  0  0  0  0  0
    1.1928    1.4233   -1.1853 H   0  0  0  0  0  0  0  0  0  0  0  0
    0.6213   -0.5318   -1.8874 C   0  0  0  0  0  0  0  0  0  0  0  0
    1.3856   -1.0566   -1.3071 H   0  0  0  0  0  0  0  0  0  0  0  0
   -0.2670   -1.1684   -1.9113 H   0  0  0  0  0  0  0  0  0  0  0  0
    1.1215   -0.3823   -3.3243 C   0  0  0  0  0  0  0  0  0  0  0  0
    1.1025    0.7127   -3.8637 O   0  0  0  0  0  0  0  0  0  0  0  0
    1.5713   -1.5029   -3.9334 O   0  0  0  0  0  0  0  0  0  0  0  0
    1.8417   -1.2329   -4.8238 H   0  0  0  0  0  0  0  0  0  0  0  0
   -0.3552    1.9453    1.0020 C   0  0  0  0  0  0  0  0  0  0  0  0
   -1.3910    2.2195    1.5985 O   0  0  0  0  0  0  0  0  0  0  0  0
    0.6456    2.8996    0.9465 N   0  0  0  0  0  0  0  0  0  0  0  0
    1.4929    2.6667    0.4374 H   0  0  0  0  0  0  0  0  0  0  0  0
    0.5508    4.2005    1.5987 C   0  0  0  0  0  0  0  0  0  0  0  0
    0.4268    4.0794    2.6801 H   0  0  0  0  0  0  0  0  0  0  0  0
    1.4602    4.7817    1.4180 H   0  0  0  0  0  0  0  0  0  0  0  0
   -0.3025    4.7641    1.2070 H   0  0  0  0  0  0  0  0  0  0  0  0
  1  2  1  0  0  0  0
  2  3  1  0  0  0  0
  2  4  1  0  0  0  0
  2  5  1  0  0  0  0
  5  6  2  0  0  0  0
  5  7  1  0  0  0  0
  7  8  1  0  0  0  0
  7  9  1  0  0  0  0
  9 10  1  0  0  0  0
  9 11  1  0  0  0  0
  9 21  1  0  0  0  0
 11 12  1  0  0  0  0
 11 13  1  0  0  0  0
 11 14  1  0  0  0  0
 14 15  1  0  0  0  0
 14 16  1  0  0  0  0
 14 17  1  0  0  0  0
 17 18  2  0  0  0  0
 17 19  1  0  0  0  0
 19 20  1  0  0  0  0
 21 22  2  0  0  0  0
 21 23  1  0  0  0  0
 23 24  1  0  0  0  0
 23 25  1  0  0  0  0
 25 26  1  0  0  0  0
 25 27  1  0  0  0  0
 25 28  1  0  0  0  0
M  END
$$$$

  -OEChem-01062216073D

 28 27  0     1  0  0  0  0  0999 V2000
   -3.1635   -2.7494    1.4674 H   0  0  0  0  0  0  0  0  0  0  0  0
   -3.1776   -1.7738    0.9736 C   0  0  0  0  0  0  0  0  0  0  0  0
   -3.6705   -1.0544    1.6322 H   0  0  0  0  0  0  0  0  0  0  0  0
   -3.7452   -1.8567    0.0438 H   0  0  0  0  0  0  0  0  0  0  0  0
   -1.7618   -1.3175    0.6776 C   0  0  0  0  0  0  0  0  0  0  0  0
   -0.8229   -2.0683    0.8926 O   0  0  0  0  0  0  0  0  0  0  0  0
   -1.5480   -0.0616    0.1466 N   0  0  0  0  0  0  0  0  0  0  0  0
   -2.3577    0.5537    0.1966 H   0  0  0  0  0  0  0  0  0  0  0  0
   -0.2381    0.6114    0.2189 C   0  0  1  0  0  0  0  0  0  0  0  0
    0.4850    0.0080    0.7784 H   0  0  0  0  0  0  0  0  0  0  0  0
    0.2893    0.8011   -1.2181 C   0  0  0  0  0  0  0  0  0  0  0  0
   -0.4619    1.3379   -1.8087 H   0  0  0  0  0  0  0  0  0  0  0  0
    1.2006    1.4067   -1.2058 H   0  0  0  0  0  0  0  0  0  0  0  0
    0.6244   -0.5464   -1.8938 C   0  0  0  0  0  0  0  0  0  0  0  0
    1.3860   -1.0676   -1.3069 H   0  0  0  0  0  0  0  0  0  0  0  0
   -0.2645   -1.1820   -1.9159 H   0  0  0  0  0  0  0  0  0  0  0  0
    1.1299   -0.4064   -3.3301 C   0  0  0  0  0  0  0  0  0  0  0  0
    1.1134    0.6860   -3.8757 O   0  0  0  0  0  0  0  0  0  0  0  0
    1.5805   -1.5308   -3.9320 O   0  0  0  0  0  0  0  0  0  0  0  0
    1.8540   -1.2664   -4.8232 H   0  0  0  0  0  0  0  0  0  0  0  0
   -0.3628    1.9516    0.9896 C   0  0  0  0  0  0  0  0  0  0  0  0
   -1.2833    2.1114    1.7831 O   0  0  0  0  0  0  0  0  0  0  0  0
    0.4584    3.0328    0.7181 N   0  0  0  0  0  0  0  0  0  0  0  0
    1.2028    2.9020    0.0399 H   0  0  0  0  0  0  0  0  0  0  0  0
    0.3291    4.3267    1.3791 C   0  0  0  0  0  0  0  0  0  0  0  0
    0.4586    4.2191    2.4613 H   0  0  0  0  0  0  0  0  0  0  0  0
    1.0902    5.0199    1.0077 H   0  0  0  0  0  0  0  0  0  0  0  0
   -0.6573    4.7605    1.1841 H   0  0  0  0  0  0  0  0  0  0  0  0
  1  2  1  0  0  0  0
  2  3  1  0  0  0  0
  2  4  1  0  0  0  0
  2  5  1  0  0  0  0
  5  6  2  0  0  0  0
  5  7  1  0  0  0  0
  7  8  1  0  0  0  0
  7  9  1  0  0  0  0
  9 10  1  0  0  0  0
  9 11  1  0  0  0  0
  9 21  1  0  0  0  0
 11 12  1  0  0  0  0
 11 13  1  0  0  0  0
 11 14  1  0  0  0  0
 14 15  1  0  0  0  0
 14 16  1  0  0  0  0
 14 17  1  0  0  0  0
 17 18  2  0  0  0  0
 17 19  1  0  0  0  0
 19 20  1  0  0  0  0
 21 22  2  0  0  0  0
 21 23  1  0  0  0  0
 23 24  1  0  0  0  0
 23 25  1  0  0  0  0
 25 26  1  0  0  0  0
 25 27  1  0  0  0  0
 25 28  1  0  0  0  0
M  END
$$$$

  -OEChem-01062216073D

 28 27  0     1  0  0  0  0  0999 V2000
   -3.1688   -2.7726    1.4081 H   0  0  0  0  0  0  0  0  0  0  0  0
   -3.1782   -1.7642    0.9850 C   0  0  0  0  0  0  0  0  0  0  0  0
   -3.6371   -1.0844    1.7073 H   0  0  0  0  0  0  0  0  0  0  0  0
   -3.7745   -1.7710    0.0697 H   0  0  0  0  0  0  0  0  0  0  0  0
   -1.7628   -1.3131    0.6785 C   0  0  0  0  0  0  0  0  0  0  0  0
   -0.8260   -2.0698    0.8797 O   0  0  0  0  0  0  0  0  0  0  0  0
   -1.5496   -0.0570    0.1470 N   0  0  0  0  0  0  0  0  0  0  0  0
   -2.3611    0.5549    0.1921 H   0  0  0  0  0  0  0  0  0  0  0  0
   -0.2374    0.6125    0.2119 C   0  0  1  0  0  0  0  0  0  0  0  0
    0.4848    0.0093    0.7733 H   0  0  0  0  0  0  0  0  0  0  0  0
    0.2965    0.7958   -1.2232 C   0  0  0  0  0  0  0  0  0  0  0  0
   -0.4484    1.3342   -1.8201 H   0  0  0  0  0  0  0  0  0  0  0  0
    1.2118    1.3960   -1.2030 H   0  0  0  0  0  0  0  0  0  0  0  0
    0.6312   -0.5537   -1.8944 C   0  0  0  0  0  0  0  0  0  0  0  0
    1.3894   -1.0756   -1.3035 H   0  0  0  0  0  0  0  0  0  0  0  0
   -0.2593   -1.1875   -1.9185 H   0  0  0  0  0  0  0  0  0  0  0  0
    1.1426   -0.4166   -3.3288 C   0  0  0  0  0  0  0  0  0  0  0  0
    1.1300    0.6754   -3.8754 O   0  0  0  0  0  0  0  0  0  0  0  0
    1.5922   -1.5426   -3.9280 O   0  0  0  0  0  0  0  0  0  0  0  0
    1.8685   -1.2805   -4.8189 H   0  0  0  0  0  0  0  0  0  0  0  0
   -0.3622    1.9503    0.9852 C   0  0  0  0  0  0  0  0  0  0  0  0
   -1.1107    2.0182    1.9522 O   0  0  0  0  0  0  0  0  0  0  0  0
    0.2228    3.1215    0.5336 N   0  0  0  0  0  0  0  0  0  0  0  0
    0.7914    3.0723   -0.3064 H   0  0  0  0  0  0  0  0  0  0  0  0
    0.0392    4.4141    1.1840 C   0  0  0  0  0  0  0  0  0  0  0  0
    0.3849    4.3735    2.2225 H   0  0  0  0  0  0  0  0  0  0  0  0
    0.6111    5.1861    0.6602 H   0  0  0  0  0  0  0  0  0  0  0  0
   -1.0177    4.7010    1.1755 H   0  0  0  0  0  0  0  0  0  0  0  0
  1  2  1  0  0  0  0
  2  3  1  0  0  0  0
  2  4  1  0  0  0  0
  2  5  1  0  0  0  0
  5  6  2  0  0  0  0
  5  7  1  0  0  0  0
  7  8  1  0  0  0  0
  7  9  1  0  0  0  0
  9 10  1  0  0  0  0
  9 11  1  0  0  0  0
  9 21  1  0  0  0  0
 11 12  1  0  0  0  0
 11 13  1  0  0  0  0
 11 14  1  0  0  0  0
 14 15  1  0  0  0  0
 14 16  1  0  0  0  0
 14 17  1  0  0  0  0
 17 18  2  0  0  0  0
 17 19  1  0  0  0  0
 19 20  1  0  0  0  0
 21 22  2  0  0  0  0
 21 23  1  0  0  0  0
 23 24  1  0  0  0  0
 23 25  1  0  0  0  0
 25 26  1  0  0  0  0
 25 27  1  0  0  0  0
 25 28  1  0  0  0  0
M  END
$$$$

  -OEChem-01062216073D

 28 27  0     1  0  0  0  0  0999 V2000
   -3.1610   -2.7895    1.3910 H   0  0  0  0  0  0  0  0  0  0  0  0
   -3.1753   -1.7781    0.9753 C   0  0  0  0  0  0  0  0  0  0  0  0
   -3.6469   -1.1074    1.6979 H   0  0  0  0  0  0  0  0  0  0  0  0
   -3.7628   -1.7840    0.0542 H   0  0  0  0  0  0  0  0  0  0  0  0
   -1.7612   -1.3123    0.6858 C   0  0  0  0  0  0  0  0  0  0  0  0
   -0.8203   -2.0628    0.8899 O   0  0  0  0  0  0  0  0  0  0  0  0
   -1.5548   -0.0557    0.1521 N   0  0  0  0  0  0  0  0  0  0  0  0
   -2.3748    0.5450    0.1646 H   0  0  0  0  0  0  0  0  0  0  0  0
   -0.2466    0.6219    0.2113 C   0  0  1  0  0  0  0  0  0  0  0  0
    0.4787    0.0236    0.7746 H   0  0  0  0  0  0  0  0  0  0  0  0
    0.2879    0.7999   -1.2232 C   0  0  0  0  0  0  0  0  0  0  0  0
   -0.4604    1.3267   -1.8261 H   0  0  0  0  0  0  0  0  0  0  0  0
    1.1977    1.4095   -1.2012 H   0  0  0  0  0  0  0  0  0  0  0  0
    0.6317   -0.5517   -1.8848 C   0  0  0  0  0  0  0  0  0  0  0  0
    1.3931   -1.0642   -1.2898 H   0  0  0  0  0  0  0  0  0  0  0  0
   -0.2539   -1.1922   -1.9052 H   0  0  0  0  0  0  0  0  0  0  0  0
    1.1440   -0.4200   -3.3192 C   0  0  0  0  0  0  0  0  0  0  0  0
    1.1247    0.6689   -3.8720 O   0  0  0  0  0  0  0  0  0  0  0  0
    1.5988   -1.5469   -3.9125 O   0  0  0  0  0  0  0  0  0  0  0  0
    1.8764   -1.2875   -4.8039 H   0  0  0  0  0  0  0  0  0  0  0  0
   -0.3709    1.9597    0.9809 C   0  0  0  0  0  0  0  0  0  0  0  0
   -0.8995    1.9698    2.0843 O   0  0  0  0  0  0  0  0  0  0  0  0
   -0.0657    3.1764    0.3936 N   0  0  0  0  0  0  0  0  0  0  0  0
    0.3203    3.1634   -0.5460 H   0  0  0  0  0  0  0  0  0  0  0  0
   -0.2711    4.4610    1.0533 C   0  0  0  0  0  0  0  0  0  0  0  0
    0.3004    4.5091    1.9864 H   0  0  0  0  0  0  0  0  0  0  0  0
    0.0593    5.2777    0.4042 H   0  0  0  0  0  0  0  0  0  0  0  0
   -1.3318    4.6091    1.2824 H   0  0  0  0  0  0  0  0  0  0  0  0
  1  2  1  0  0  0  0
  2  3  1  0  0  0  0
  2  4  1  0  0  0  0
  2  5  1  0  0  0  0
  5  6  2  0  0  0  0
  5  7  1  0  0  0  0
  7  8  1  0  0  0  0
  7  9  1  0  0  0  0
  9 10  1  0  0  0  0
  9 11  1  0  0  0  0
  9 21  1  0  0  0  0
 11 12  1  0  0  0  0
 11 13  1  0  0  0  0
 11 14  1  0  0  0  0
 14 15  1  0  0  0  0
 14 16  1  0  0  0  0
 14 17  1  0  0  0  0
 17 18  2  0  0  0  0
 17 19  1  0  0  0  0
 19 20  1  0  0  0  0
 21 22  2  0  0  0  0
 21 23  1  0  0  0  0
 23 24  1  0  0  0  0
 23 25  1  0  0  0  0
 25 26  1  0  0  0  0
 25 27  1  0  0  0  0
 25 28  1  0  0  0  0
M  END
$$$$

  -OEChem-01062216073D

 28 27  0     1  0  0  0  0  0999 V2000
   -3.1525   -2.8126    1.3884 H   0  0  0  0  0  0  0  0  0  0  0  0
   -3.1749   -1.8074    0.9584 C   0  0  0  0  0  0  0  0  0  0  0  0
   -3.6793   -1.1373    1.6587 H   0  0  0  0  0  0  0  0  0  0  0  0
   -3.7364   -1.8370    0.0217 H   0  0  0  0  0  0  0  0  0  0  0  0
   -1.7623   -1.3185    0.7010 C   0  0  0  0  0  0  0  0  0  0  0  0
   -0.8151   -2.0541    0.9274 O   0  0  0  0  0  0  0  0  0  0  0  0
   -1.5644   -0.0617    0.1633 N   0  0  0  0  0  0  0  0  0  0  0  0
   -2.3942    0.5238    0.1311 H   0  0  0  0  0  0  0  0  0  0  0  0
   -0.2629    0.6292    0.2172 C   0  0  1  0  0  0  0  0  0  0  0  0
    0.4683    0.0386    0.7810 H   0  0  0  0  0  0  0  0  0  0  0  0
    0.2710    0.8092   -1.2166 C   0  0  0  0  0  0  0  0  0  0  0  0
   -0.4823    1.3226   -1.8243 H   0  0  0  0  0  0  0  0  0  0  0  0
    1.1714    1.4334   -1.1926 H   0  0  0  0  0  0  0  0  0  0  0  0
    0.6294   -0.5413   -1.8730 C   0  0  0  0  0  0  0  0  0  0  0  0
    1.3956   -1.0432   -1.2751 H   0  0  0  0  0  0  0  0  0  0  0  0
   -0.2498   -1.1907   -1.8915 H   0  0  0  0  0  0  0  0  0  0  0  0
    1.1420   -0.4104   -3.3074 C   0  0  0  0  0  0  0  0  0  0  0  0
    1.1125    0.6759   -3.8648 O   0  0  0  0  0  0  0  0  0  0  0  0
    1.6094   -1.5352   -3.8950 O   0  0  0  0  0  0  0  0  0  0  0  0
    1.8907   -1.2762   -4.7853 H   0  0  0  0  0  0  0  0  0  0  0  0
   -0.3904    1.9684    0.9796 C   0  0  0  0  0  0  0  0  0  0  0  0
   -0.6519    1.9602    2.1738 O   0  0  0  0  0  0  0  0  0  0  0  0
   -0.3942    3.1840    0.3161 N   0  0  0  0  0  0  0  0  0  0  0  0
   -0.1991    3.1771   -0.6809 H   0  0  0  0  0  0  0  0  0  0  0  0
   -0.5888    4.4637    0.9886 C   0  0  0  0  0  0  0  0  0  0  0  0
    0.1897    4.6225    1.7424 H   0  0  0  0  0  0  0  0  0  0  0  0
   -0.5419    5.2834    0.2652 H   0  0  0  0  0  0  0  0  0  0  0  0
   -1.5665    4.4934    1.4811 H   0  0  0  0  0  0  0  0  0  0  0  0
  1  2  1  0  0  0  0
  2  3  1  0  0  0  0
  2  4  1  0  0  0  0
  2  5  1  0  0  0  0
  5  6  2  0  0  0  0
  5  7  1  0  0  0  0
  7  8  1  0  0  0  0
  7  9  1  0  0  0  0
  9 10  1  0  0  0  0
  9 11  1  0  0  0  0
  9 21  1  0  0  0  0
 11 12  1  0  0  0  0
 11 13  1  0  0  0  0
 11 14  1  0  0  0  0
 14 15  1  0  0  0  0
 14 16  1  0  0  0  0
 14 17  1  0  0  0  0
 17 18  2  0  0  0  0
 17 19  1  0  0  0  0
 19 20  1  0  0  0  0
 21 22  2  0  0  0  0
 21 23  1  0  0  0  0
 23 24  1  0  0  0  0
 23 25  1  0  0  0  0
 25 26  1  0  0  0  0
 25 27  1  0  0  0  0
 25 28  1  0  0  0  0
M  END
$$$$

  -OEChem-01062216073D

 28 27  0     1  0  0  0  0  0999 V2000
   -3.1576   -2.8249    1.4238 H   0  0  0  0  0  0  0  0  0  0  0  0
   -3.1825   -1.8419    0.9451 C   0  0  0  0  0  0  0  0  0  0  0  0
   -3.7269   -1.1508    1.5931 H   0  0  0  0  0  0  0  0  0  0  0  0
   -3.7067   -1.9279   -0.0095 H   0  0  0  0  0  0  0  0  0  0  0  0
   -1.7704   -1.3364    0.7178 C   0  0  0  0  0  0  0  0  0  0  0  0
   -0.8202   -2.0583    0.9713 O   0  0  0  0  0  0  0  0  0  0  0  0
   -1.5763   -0.0794    0.1785 N   0  0  0  0  0  0  0  0  0  0  0  0
   -2.4135    0.4908    0.1017 H   0  0  0  0  0  0  0  0  0  0  0  0
   -0.2817    0.6250    0.2325 C   0  0  1  0  0  0  0  0  0  0  0  0
    0.4553    0.0394    0.7948 H   0  0  0  0  0  0  0  0  0  0  0  0
    0.2531    0.8181   -1.1986 C   0  0  0  0  0  0  0  0  0  0  0  0
   -0.5043    1.3239   -1.8071 H   0  0  0  0  0  0  0  0  0  0  0  0
    1.1429    1.4574   -1.1676 H   0  0  0  0  0  0  0  0  0  0  0  0
    0.6282   -0.5243   -1.8615 C   0  0  0  0  0  0  0  0  0  0  0  0
    1.4002   -1.0192   -1.2648 H   0  0  0  0  0  0  0  0  0  0  0  0
   -0.2425   -1.1846   -1.8844 H   0  0  0  0  0  0  0  0  0  0  0  0
    1.1423   -0.3795   -3.2941 C   0  0  0  0  0  0  0  0  0  0  0  0
    1.1013    0.7095   -3.8454 O   0  0  0  0  0  0  0  0  0  0  0  0
    1.6203   -1.4961   -3.8889 O   0  0  0  0  0  0  0  0  0  0  0  0
    1.9020   -1.2274   -4.7762 H   0  0  0  0  0  0  0  0  0  0  0  0
   -0.4149    1.9657    0.9878 C   0  0  0  0  0  0  0  0  0  0  0  0
   -0.3732    1.9858    2.2088 O   0  0  0  0  0  0  0  0  0  0  0  0
   -0.7319    3.1347    0.3168 N   0  0  0  0  0  0  0  0  0  0  0  0
   -0.7373    3.1059   -0.6985 H   0  0  0  0  0  0  0  0  0  0  0  0
   -0.8963    4.4201    0.9859 C   0  0  0  0  0  0  0  0  0  0  0  0
    0.0321    4.7117    1.4882 H   0  0  0  0  0  0  0  0  0  0  0  0
   -1.1550    5.1956    0.2585 H   0  0  0  0  0  0  0  0  0  0  0  0
   -1.6973    4.3655    1.7310 H   0  0  0  0  0  0  0  0  0  0  0  0
  1  2  1  0  0  0  0
  2  3  1  0  0  0  0
  2  4  1  0  0  0  0
  2  5  1  0  0  0  0
  5  6  2  0  0  0  0
  5  7  1  0  0  0  0
  7  8  1  0  0  0  0
  7  9  1  0  0  0  0
  9 10  1  0  0  0  0
  9 11  1  0  0  0  0
  9 21  1  0  0  0  0
 11 12  1  0  0  0  0
 11 13  1  0  0  0  0
 11 14  1  0  0  0  0
 14 15  1  0  0  0  0
 14 16  1  0  0  0  0
 14 17  1  0  0  0  0
 17 18  2  0  0  0  0
 17 19  1  0  0  0  0
 19 20  1  0  0  0  0
 21 22  2  0  0  0  0
 21 23  1  0  0  0  0
 23 24  1  0  0  0  0
 23 25  1  0  0  0  0
 25 26  1  0  0  0  0
 25 27  1  0  0  0  0
 25 28  1  0  0  0  0
M  END
$$$$

  -OEChem-01062216073D

 28 27  0     1  0  0  0  0  0999 V2000
   -3.1602   -2.8644    1.4029 H   0  0  0  0  0  0  0  0  0  0  0  0
   -3.1857   -1.8839    0.9189 C   0  0  0  0  0  0  0  0  0  0  0  0
   -3.7662   -1.2003    1.5433 H   0  0  0  0  0  0  0  0  0  0  0  0
   -3.6731   -1.9842   -0.0538 H   0  0  0  0  0  0  0  0  0  0  0  0
   -1.7755   -1.3539    0.7408 C   0  0  0  0  0  0  0  0  0  0  0  0
   -0.8237   -2.0571    1.0353 O   0  0  0  0  0  0  0  0  0  0  0  0
   -1.5837   -0.0964    0.2016 N   0  0  0  0  0  0  0  0  0  0  0  0
   -2.4256    0.4579    0.0781 H   0  0  0  0  0  0  0  0  0  0  0  0
   -0.2942    0.6190    0.2551 C   0  0  1  0  0  0  0  0  0  0  0  0
    0.4486    0.0353    0.8117 H   0  0  0  0  0  0  0  0  0  0  0  0
    0.2353    0.8276   -1.1745 C   0  0  0  0  0  0  0  0  0  0  0  0
   -0.5259    1.3327   -1.7783 H   0  0  0  0  0  0  0  0  0  0  0  0
    1.1196    1.4743   -1.1400 H   0  0  0  0  0  0  0  0  0  0  0  0
    0.6198   -0.5072   -1.8470 C   0  0  0  0  0  0  0  0  0  0  0  0
    1.3974   -0.9993   -1.2553 H   0  0  0  0  0  0  0  0  0  0  0  0
   -0.2455   -1.1747   -1.8716 H   0  0  0  0  0  0  0  0  0  0  0  0
    1.1297   -0.3492   -3.2798 C   0  0  0  0  0  0  0  0  0  0  0  0
    1.0790    0.7424   -3.8251 O   0  0  0  0  0  0  0  0  0  0  0  0
    1.6172   -1.4583   -3.8807 O   0  0  0  0  0  0  0  0  0  0  0  0
    1.8967   -1.1821   -4.7664 H   0  0  0  0  0  0  0  0  0  0  0  0
   -0.4295    1.9605    1.0059 C   0  0  0  0  0  0  0  0  0  0  0  0
   -0.0703    2.0572    2.1695 O   0  0  0  0  0  0  0  0  0  0  0  0
   -1.0434    3.0455    0.4034 N   0  0  0  0  0  0  0  0  0  0  0  0
   -1.2661    2.9674   -0.5842 H   0  0  0  0  0  0  0  0  0  0  0  0
   -1.1809    4.3432    1.0551 C   0  0  0  0  0  0  0  0  0  0  0  0
   -0.1959    4.7604    1.2898 H   0  0  0  0  0  0  0  0  0  0  0  0
   -1.7066    5.0437    0.3991 H   0  0  0  0  0  0  0  0  0  0  0  0
   -1.7522    4.2471    1.9846 H   0  0  0  0  0  0  0  0  0  0  0  0
  1  2  1  0  0  0  0
  2  3  1  0  0  0  0
  2  4  1  0  0  0  0
  2  5  1  0  0  0  0
  5  6  2  0  0  0  0
  5  7  1  0  0  0  0
  7  8  1  0  0  0  0
  7  9  1  0  0  0  0
  9 10  1  0  0  0  0
  9 11  1  0  0  0  0
  9 21  1  0  0  0  0
 11 12  1  0  0  0  0
 11 13  1  0  0  0  0
 11 14  1  0  0  0  0
 14 15  1  0  0  0  0
 14 16  1  0  0  0  0
 14 17  1  0  0  0  0
 17 18  2  0  0  0  0
 17 19  1  0  0  0  0
 19 20  1  0  0  0  0
 21 22  2  0  0  0  0
 21 23  1  0  0  0  0
 23 24  1  0  0  0  0
 23 25  1  0  0  0  0
 25 26  1  0  0  0  0
 25 27  1  0  0  0  0
 25 28  1  0  0  0  0
M  END
$$$$

  -OEChem-01062216073D

 28 27  0     1  0  0  0  0  0999 V2000
   -3.1658   -2.9096    1.3680 H   0  0  0  0  0  0  0  0  0  0  0  0
   -3.1885   -1.9254    0.8911 C   0  0  0  0  0  0  0  0  0  0  0  0
   -3.7998   -1.2553    1.5004 H   0  0  0  0  0  0  0  0  0  0  0  0
   -3.6403   -2.0241   -0.0987 H   0  0  0  0  0  0  0  0  0  0  0  0
   -1.7808   -1.3745    0.7652 C   0  0  0  0  0  0  0  0  0  0  0  0
   -0.8310   -2.0588    1.1051 O   0  0  0  0  0  0  0  0  0  0  0  0
   -1.5885   -0.1164    0.2275 N   0  0  0  0  0  0  0  0  0  0  0  0
   -2.4320    0.4218    0.0573 H   0  0  0  0  0  0  0  0  0  0  0  0
   -0.3023    0.6066    0.2833 C   0  0  1  0  0  0  0  0  0  0  0  0
    0.4450    0.0230    0.8344 H   0  0  0  0  0  0  0  0  0  0  0  0
    0.2205    0.8332   -1.1450 C   0  0  0  0  0  0  0  0  0  0  0  0
   -0.5435    1.3454   -1.7394 H   0  0  0  0  0  0  0  0  0  0  0  0
    1.1025    1.4830   -1.1045 H   0  0  0  0  0  0  0  0  0  0  0  0
    0.6104   -0.4922   -1.8329 C   0  0  0  0  0  0  0  0  0  0  0  0
    1.3928   -0.9859   -1.2492 H   0  0  0  0  0  0  0  0  0  0  0  0
   -0.2510   -1.1642   -1.8617 H   0  0  0  0  0  0  0  0  0  0  0  0
    1.1141   -0.3171   -3.2659 C   0  0  0  0  0  0  0  0  0  0  0  0
    1.0553    0.7791   -3.8003 O   0  0  0  0  0  0  0  0  0  0  0  0
    1.6033   -1.4179   -3.8805 O   0  0  0  0  0  0  0  0  0  0  0  0
    1.8799   -1.1301   -4.7634 H   0  0  0  0  0  0  0  0  0  0  0  0
   -0.4362    1.9489    1.0311 C   0  0  0  0  0  0  0  0  0  0  0  0
    0.2053    2.1605    2.0490 O   0  0  0  0  0  0  0  0  0  0  0  0
   -1.3055    2.9226    0.5686 N   0  0  0  0  0  0  0  0  0  0  0  0
   -1.7215    2.7771   -0.3455 H   0  0  0  0  0  0  0  0  0  0  0  0
   -1.4238    4.2363    1.1914 C   0  0  0  0  0  0  0  0  0  0  0  0
   -0.4684    4.7697    1.1458 H   0  0  0  0  0  0  0  0  0  0  0  0
   -2.1802    4.8347    0.6743 H   0  0  0  0  0  0  0  0  0  0  0  0
   -1.7212    4.1377    2.2409 H   0  0  0  0  0  0  0  0  0  0  0  0
  1  2  1  0  0  0  0
  2  3  1  0  0  0  0
  2  4  1  0  0  0  0
  2  5  1  0  0  0  0
  5  6  2  0  0  0  0
  5  7  1  0  0  0  0
  7  8  1  0  0  0  0
  7  9  1  0  0  0  0
  9 10  1  0  0  0  0
  9 11  1  0  0  0  0
  9 21  1  0  0  0  0
 11 12  1  0  0  0  0
 11 13  1  0  0  0  0
 11 14  1  0  0  0  0
 14 15  1  0  0  0  0
 14 16  1  0  0  0  0
 14 17  1  0  0  0  0
 17 18  2  0  0  0  0
 17 19  1  0  0  0  0
 19 20  1  0  0  0  0
 21 22  2  0  0  0  0
 21 23  1  0  0  0  0
 23 24  1  0  0  0  0
 23 25  1  0  0  0  0
 25 26  1  0  0  0  0
 25 27  1  0  0  0  0
 25 28  1  0  0  0  0
M  END
$$$$

  -OEChem-01062216073D

 28 27  0     1  0  0  0  0  0999 V2000
   -3.1452   -2.9937    1.2550 H   0  0  0  0  0  0  0  0  0  0  0  0
   -3.1655   -2.0044    0.7890 C   0  0  0  0  0  0  0  0  0  0  0  0
   -3.8734   -1.3751    1.3336 H   0  0  0  0  0  0  0  0  0  0  0  0
   -3.5007   -2.1105   -0.2455 H   0  0  0  0  0  0  0  0  0  0  0  0
   -1.7826   -1.3819    0.8256 C   0  0  0  0  0  0  0  0  0  0  0  0
   -0.8521   -2.0042    1.3071 O   0  0  0  0  0  0  0  0  0  0  0  0
   -1.5886   -0.1253    0.2847 N   0  0  0  0  0  0  0  0  0  0  0  0
   -2.4070    0.3318   -0.1018 H   0  0  0  0  0  0  0  0  0  0  0  0
   -0.3074    0.6106    0.3254 C   0  0  1  0  0  0  0  0  0  0  0  0
    0.4498    0.0306    0.8659 H   0  0  0  0  0  0  0  0  0  0  0  0
    0.1915    0.8387   -1.1105 C   0  0  0  0  0  0  0  0  0  0  0  0
   -0.5846    1.3472   -1.6923 H   0  0  0  0  0  0  0  0  0  0  0  0
    1.0690    1.4956   -1.0836 H   0  0  0  0  0  0  0  0  0  0  0  0
    0.5832   -0.4850   -1.8015 C   0  0  0  0  0  0  0  0  0  0  0  0
    1.3802   -0.9676   -1.2286 H   0  0  0  0  0  0  0  0  0  0  0  0
   -0.2711   -1.1664   -1.8152 H   0  0  0  0  0  0  0  0  0  0  0  0
    1.0638   -0.3099   -3.2425 C   0  0  0  0  0  0  0  0  0  0  0  0
    0.9880    0.7833   -3.7802 O   0  0  0  0  0  0  0  0  0  0  0  0
    1.5468   -1.4106   -3.8620 O   0  0  0  0  0  0  0  0  0  0  0  0
    1.8103   -1.1231   -4.7492 H   0  0  0  0  0  0  0  0  0  0  0  0
   -0.4183    1.9616    1.0631 C   0  0  0  0  0  0  0  0  0  0  0  0
    0.4707    2.3238    1.8192 O   0  0  0  0  0  0  0  0  0  0  0  0
   -1.4804    2.8165    0.8212 N   0  0  0  0  0  0  0  0  0  0  0  0
   -2.1416    2.5512    0.1006 H   0  0  0  0  0  0  0  0  0  0  0  0
   -1.5806    4.1456    1.4132 C   0  0  0  0  0  0  0  0  0  0  0  0
   -0.7327    4.7672    1.1064 H   0  0  0  0  0  0  0  0  0  0  0  0
   -2.5042    4.6358    1.0908 H   0  0  0  0  0  0  0  0  0  0  0  0
   -1.5896    4.0782    2.5063 H   0  0  0  0  0  0  0  0  0  0  0  0
  1  2  1  0  0  0  0
  2  3  1  0  0  0  0
  2  4  1  0  0  0  0
  2  5  1  0  0  0  0
  5  6  2  0  0  0  0
  5  7  1  0  0  0  0
  7  8  1  0  0  0  0
  7  9  1  0  0  0  0
  9 10  1  0  0  0  0
  9 11  1  0  0  0  0
  9 21  1  0  0  0  0
 11 12  1  0  0  0  0
 11 13  1  0  0  0  0
 11 14  1  0  0  0  0
 14 15  1  0  0  0  0
 14 16  1  0  0  0  0
 14 17  1  0  0  0  0
 17 18  2  0  0  0  0
 17 19  1  0  0  0  0
 19 20  1  0  0  0  0
 21 22  2  0  0  0  0
 21 23  1  0  0  0  0
 23 24  1  0  0  0  0
 23 25  1  0  0  0  0
 25 26  1  0  0  0  0
 25 27  1  0  0  0  0
 25 28  1  0  0  0  0
M  END
$$$$

  -OEChem-01062216073D

 28 27  0     1  0  0  0  0  0999 V2000
   -3.0746   -3.0462    1.1229 H   0  0  0  0  0  0  0  0  0  0  0  0
   -3.1046   -2.0568    0.6572 C   0  0  0  0  0  0  0  0  0  0  0  0
   -3.9273   -1.4873    1.0959 H   0  0  0  0  0  0  0  0  0  0  0  0
   -3.2833   -2.1789   -0.4138 H   0  0  0  0  0  0  0  0  0  0  0  0
   -1.7919   -1.3319    0.8870 C   0  0  0  0  0  0  0  0  0  0  0  0
   -0.9192   -1.8590    1.5538 O   0  0  0  0  0  0  0  0  0  0  0  0
   -1.5972   -0.0838    0.3268 N   0  0  0  0  0  0  0  0  0  0  0  0
   -2.3087    0.2250   -0.3278 H   0  0  0  0  0  0  0  0  0  0  0  0
   -0.3081    0.6404    0.3456 C   0  0  1  0  0  0  0  0  0  0  0  0
    0.4511    0.0595    0.8822 H   0  0  0  0  0  0  0  0  0  0  0  0
    0.1723    0.8441   -1.1011 C   0  0  0  0  0  0  0  0  0  0  0  0
   -0.6060    1.3562   -1.6770 H   0  0  0  0  0  0  0  0  0  0  0  0
    1.0575    1.4916   -1.0966 H   0  0  0  0  0  0  0  0  0  0  0  0
    0.5411   -0.4932   -1.7792 C   0  0  0  0  0  0  0  0  0  0  0  0
    1.3428   -0.9741   -1.2112 H   0  0  0  0  0  0  0  0  0  0  0  0
   -0.3189   -1.1670   -1.7711 H   0  0  0  0  0  0  0  0  0  0  0  0
    1.0027   -0.3458   -3.2296 C   0  0  0  0  0  0  0  0  0  0  0  0
    0.9312    0.7385   -3.7848 O   0  0  0  0  0  0  0  0  0  0  0  0
    1.4649   -1.4623   -3.8367 O   0  0  0  0  0  0  0  0  0  0  0  0
    1.7237   -1.1909   -4.7306 H   0  0  0  0  0  0  0  0  0  0  0  0
   -0.3884    2.0025    1.0678 C   0  0  0  0  0  0  0  0  0  0  0  0
    0.6281    2.5169    1.5114 O   0  0  0  0  0  0  0  0  0  0  0  0
   -1.5650    2.7308    1.0795 N   0  0  0  0  0  0  0  0  0  0  0  0
   -2.4064    2.2459    0.7895 H   0  0  0  0  0  0  0  0  0  0  0  0
   -1.6889    4.0300    1.7304 C   0  0  0  0  0  0  0  0  0  0  0  0
   -0.9737    4.7425    1.3053 H   0  0  0  0  0  0  0  0  0  0  0  0
   -2.6972    4.4303    1.5885 H   0  0  0  0  0  0  0  0  0  0  0  0
   -1.4984    3.9398    2.8050 H   0  0  0  0  0  0  0  0  0  0  0  0
  1  2  1  0  0  0  0
  2  3  1  0  0  0  0
  2  4  1  0  0  0  0
  2  5  1  0  0  0  0
  5  6  2  0  0  0  0
  5  7  1  0  0  0  0
  7  8  1  0  0  0  0
  7  9  1  0  0  0  0
  9 10  1  0  0  0  0
  9 11  1  0  0  0  0
  9 21  1  0  0  0  0
 11 12  1  0  0  0  0
 11 13  1  0  0  0  0
 11 14  1  0  0  0  0
 14 15  1  0  0  0  0
 14 16  1  0  0  0  0
 14 17  1  0  0  0  0
 17 18  2  0  0  0  0
 17 19  1  0  0  0  0
 19 20  1  0  0  0  0
 21 22  2  0  0  0  0
 21 23  1  0  0  0  0
 23 24  1  0  0  0  0
 23 25  1  0  0  0  0
 25 26  1  0  0  0  0
 25 27  1  0  0  0  0
 25 28  1  0  0  0  0
M  END
$$$$

  -OEChem-01062216073D

 28 27  0     1  0  0  0  0  0999 V2000
   -3.0628   -3.0495    1.0874 H   0  0  0  0  0  0  0  0  0  0  0  0
   -3.0950   -2.0572    0.6282 C   0  0  0  0  0  0  0  0  0  0  0  0
   -3.9295   -1.4982    1.0578 H   0  0  0  0  0  0  0  0  0  0  0  0
   -3.2558   -2.1738   -0.4462 H   0  0  0  0  0  0  0  0  0  0  0  0
   -1.7924   -1.3225    0.8831 C   0  0  0  0  0  0  0  0  0  0  0  0
   -0.9317   -1.8376    1.5743 O   0  0  0  0  0  0  0  0  0  0  0  0
   -1.5951   -0.0736    0.3262 N   0  0  0  0  0  0  0  0  0  0  0  0
   -2.2966    0.2329   -0.3413 H   0  0  0  0  0  0  0  0  0  0  0  0
   -0.3034    0.6470    0.3466 C   0  0  1  0  0  0  0  0  0  0  0  0
    0.4551    0.0649    0.8821 H   0  0  0  0  0  0  0  0  0  0  0  0
    0.1734    0.8451   -1.1038 C   0  0  0  0  0  0  0  0  0  0  0  0
   -0.6045    1.3593   -1.6784 H   0  0  0  0  0  0  0  0  0  0  0  0
    1.0615    1.4883   -1.1063 H   0  0  0  0  0  0  0  0  0  0  0  0
    0.5357   -0.4955   -1.7791 C   0  0  0  0  0  0  0  0  0  0  0  0
    1.3373   -0.9775   -1.2119 H   0  0  0  0  0  0  0  0  0  0  0  0
   -0.3267   -1.1659   -1.7670 H   0  0  0  0  0  0  0  0  0  0  0  0
    0.9932   -0.3543   -3.2312 C   0  0  0  0  0  0  0  0  0  0  0  0
    0.9238    0.7278   -3.7907 O   0  0  0  0  0  0  0  0  0  0  0  0
    1.4508   -1.4747   -3.8345 O   0  0  0  0  0  0  0  0  0  0  0  0
    1.7059   -1.2078   -4.7307 H   0  0  0  0  0  0  0  0  0  0  0  0
   -0.3837    2.0075    1.0738 C   0  0  0  0  0  0  0  0  0  0  0  0
    0.6370    2.6416    1.3009 O   0  0  0  0  0  0  0  0  0  0  0  0
   -1.6080    2.5875    1.3546 N   0  0  0  0  0  0  0  0  0  0  0  0
   -2.4194    1.9838    1.2759 H   0  0  0  0  0  0  0  0  0  0  0  0
   -1.7417    3.8610    2.0522 C   0  0  0  0  0  0  0  0  0  0  0  0
   -1.2213    4.6543    1.5051 H   0  0  0  0  0  0  0  0  0  0  0  0
   -2.7969    4.1379    2.1372 H   0  0  0  0  0  0  0  0  0  0  0  0
   -1.3177    3.7924    3.0596 H   0  0  0  0  0  0  0  0  0  0  0  0
  1  2  1  0  0  0  0
  2  3  1  0  0  0  0
  2  4  1  0  0  0  0
  2  5  1  0  0  0  0
  5  6  2  0  0  0  0
  5  7  1  0  0  0  0
  7  8  1  0  0  0  0
  7  9  1  0  0  0  0
  9 10  1  0  0  0  0
  9 11  1  0  0  0  0
  9 21  1  0  0  0  0
 11 12  1  0  0  0  0
 11 13  1  0  0  0  0
 11 14  1  0  0  0  0
 14 15  1  0  0  0  0
 14 16  1  0  0  0  0
 14 17  1  0  0  0  0
 17 18  2  0  0  0  0
 17 19  1  0  0  0  0
 19 20  1  0  0  0  0
 21 22  2  0  0  0  0
 21 23  1  0  0  0  0
 23 24  1  0  0  0  0
 23 25  1  0  0  0  0
 25 26  1  0  0  0  0
 25 27  1  0  0  0  0
 25 28  1  0  0  0  0
M  END
$$$$

  -OEChem-01062216073D

 28 27  0     1  0  0  0  0  0999 V2000
   -3.0627   -3.0390    1.0716 H   0  0  0  0  0  0  0  0  0  0  0  0
   -3.0951   -2.0443    0.6176 C   0  0  0  0  0  0  0  0  0  0  0  0
   -3.9277   -1.4865    1.0529 H   0  0  0  0  0  0  0  0  0  0  0  0
   -3.2600   -2.1549   -0.4569 H   0  0  0  0  0  0  0  0  0  0  0  0
   -1.7901   -1.3134    0.8708 C   0  0  0  0  0  0  0  0  0  0  0  0
   -0.9309   -1.8290    1.5635 O   0  0  0  0  0  0  0  0  0  0  0  0
   -1.5887   -0.0629    0.3195 N   0  0  0  0  0  0  0  0  0  0  0  0
   -2.2998    0.2640   -0.3287 H   0  0  0  0  0  0  0  0  0  0  0  0
   -0.2961    0.6561    0.3418 C   0  0  1  0  0  0  0  0  0  0  0  0
    0.4617    0.0741    0.8778 H   0  0  0  0  0  0  0  0  0  0  0  0
    0.1785    0.8461   -1.1120 C   0  0  0  0  0  0  0  0  0  0  0  0
   -0.6002    1.3592   -1.6869 H   0  0  0  0  0  0  0  0  0  0  0  0
    1.0679    1.4871   -1.1224 H   0  0  0  0  0  0  0  0  0  0  0  0
    0.5374   -0.4987   -1.7823 C   0  0  0  0  0  0  0  0  0  0  0  0
    1.3390   -0.9803   -1.2147 H   0  0  0  0  0  0  0  0  0  0  0  0
   -0.3261   -1.1675   -1.7663 H   0  0  0  0  0  0  0  0  0  0  0  0
    0.9921   -0.3652   -3.2361 C   0  0  0  0  0  0  0  0  0  0  0  0
    0.9237    0.7138   -3.8016 O   0  0  0  0  0  0  0  0  0  0  0  0
    1.4460   -1.4896   -3.8346 O   0  0  0  0  0  0  0  0  0  0  0  0
    1.6996   -1.2276   -4.7327 H   0  0  0  0  0  0  0  0  0  0  0  0
   -0.3819    2.0143    1.0763 C   0  0  0  0  0  0  0  0  0  0  0  0
    0.5855    2.7619    1.1137 O   0  0  0  0  0  0  0  0  0  0  0  0
   -1.5766    2.4406    1.6283 N   0  0  0  0  0  0  0  0  0  0  0  0
   -2.3098    1.7422    1.7001 H   0  0  0  0  0  0  0  0  0  0  0  0
   -1.7072    3.6821    2.3824 C   0  0  0  0  0  0  0  0  0  0  0  0
   -1.4196    4.5389    1.7638 H   0  0  0  0  0  0  0  0  0  0  0  0
   -2.7435    3.8233    2.7039 H   0  0  0  0  0  0  0  0  0  0  0  0
   -1.0672    3.6598    3.2708 H   0  0  0  0  0  0  0  0  0  0  0  0
  1  2  1  0  0  0  0
  2  3  1  0  0  0  0
  2  4  1  0  0  0  0
  2  5  1  0  0  0  0
  5  6  2  0  0  0  0
  5  7  1  0  0  0  0
  7  8  1  0  0  0  0
  7  9  1  0  0  0  0
  9 10  1  0  0  0  0
  9 11  1  0  0  0  0
  9 21  1  0  0  0  0
 11 12  1  0  0  0  0
 11 13  1  0  0  0  0
 11 14  1  0  0  0  0
 14 15  1  0  0  0  0
 14 16  1  0  0  0  0
 14 17  1  0  0  0  0
 17 18  2  0  0  0  0
 17 19  1  0  0  0  0
 19 20  1  0  0  0  0
 21 22  2  0  0  0  0
 21 23  1  0  0  0  0
 23 24  1  0  0  0  0
 23 25  1  0  0  0  0
 25 26  1  0  0  0  0
 25 27  1  0  0  0  0
 25 28  1  0  0  0  0
M  END
$$$$

  -OEChem-01062216073D

 28 27  0     1  0  0  0  0  0999 V2000
   -3.0813   -3.0086    1.0779 H   0  0  0  0  0  0  0  0  0  0  0  0
   -3.1021   -2.0161    0.6188 C   0  0  0  0  0  0  0  0  0  0  0  0
   -3.9220   -1.4424    1.0574 H   0  0  0  0  0  0  0  0  0  0  0  0
   -3.2773   -2.1301   -0.4538 H   0  0  0  0  0  0  0  0  0  0  0  0
   -1.7845   -1.3035    0.8571 C   0  0  0  0  0  0  0  0  0  0  0  0
   -0.9231   -1.8287    1.5400 O   0  0  0  0  0  0  0  0  0  0  0  0
   -1.5780   -0.0504    0.3152 N   0  0  0  0  0  0  0  0  0  0  0  0
   -2.3068    0.3056   -0.2975 H   0  0  0  0  0  0  0  0  0  0  0  0
   -0.2842    0.6658    0.3348 C   0  0  1  0  0  0  0  0  0  0  0  0
    0.4734    0.0820    0.8691 H   0  0  0  0  0  0  0  0  0  0  0  0
    0.1875    0.8493   -1.1224 C   0  0  0  0  0  0  0  0  0  0  0  0
   -0.5913    1.3623   -1.6971 H   0  0  0  0  0  0  0  0  0  0  0  0
    1.0796    1.4861   -1.1399 H   0  0  0  0  0  0  0  0  0  0  0  0
    0.5414   -0.4992   -1.7875 C   0  0  0  0  0  0  0  0  0  0  0  0
    1.3435   -0.9792   -1.2195 H   0  0  0  0  0  0  0  0  0  0  0  0
   -0.3236   -1.1659   -1.7657 H   0  0  0  0  0  0  0  0  0  0  0  0
    0.9930   -0.3755   -3.2433 C   0  0  0  0  0  0  0  0  0  0  0  0
    0.9265    0.7002   -3.8148 O   0  0  0  0  0  0  0  0  0  0  0  0
    1.4451   -1.5042   -3.8355 O   0  0  0  0  0  0  0  0  0  0  0  0
    1.6982   -1.2473   -4.7353 H   0  0  0  0  0  0  0  0  0  0  0  0
   -0.3775    2.0178    1.0824 C   0  0  0  0  0  0  0  0  0  0  0  0
    0.4761    2.8817    0.9359 O   0  0  0  0  0  0  0  0  0  0  0  0
   -1.4645    2.2877    1.8940 N   0  0  0  0  0  0  0  0  0  0  0  0
   -2.0799    1.5046    2.0923 H   0  0  0  0  0  0  0  0  0  0  0  0
   -1.5886    3.5048    2.6874 C   0  0  0  0  0  0  0  0  0  0  0  0
   -1.5624    4.3884    2.0407 H   0  0  0  0  0  0  0  0  0  0  0  0
   -2.5371    3.5060    3.2330 H   0  0  0  0  0  0  0  0  0  0  0  0
   -0.7707    3.5752    3.4122 H   0  0  0  0  0  0  0  0  0  0  0  0
  1  2  1  0  0  0  0
  2  3  1  0  0  0  0
  2  4  1  0  0  0  0
  2  5  1  0  0  0  0
  5  6  2  0  0  0  0
  5  7  1  0  0  0  0
  7  8  1  0  0  0  0
  7  9  1  0  0  0  0
  9 10  1  0  0  0  0
  9 11  1  0  0  0  0
  9 21  1  0  0  0  0
 11 12  1  0  0  0  0
 11 13  1  0  0  0  0
 11 14  1  0  0  0  0
 14 15  1  0  0  0  0
 14 16  1  0  0  0  0
 14 17  1  0  0  0  0
 17 18  2  0  0  0  0
 17 19  1  0  0  0  0
 19 20  1  0  0  0  0
 21 22  2  0  0  0  0
 21 23  1  0  0  0  0
 23 24  1  0  0  0  0
 23 25  1  0  0  0  0
 25 26  1  0  0  0  0
 25 27  1  0  0  0  0
 25 28  1  0  0  0  0
M  END
$$$$

  -OEChem-01062216073D

 28 27  0     1  0  0  0  0  0999 V2000
   -3.0959   -2.9800    1.0882 H   0  0  0  0  0  0  0  0  0  0  0  0
   -3.1123   -1.9859    0.6321 C   0  0  0  0  0  0  0  0  0  0  0  0
   -3.9185   -1.4042    1.0852 H   0  0  0  0  0  0  0  0  0  0  0  0
   -3.3062   -2.0944   -0.4377 H   0  0  0  0  0  0  0  0  0  0  0  0
   -1.7824   -1.2898    0.8506 C   0  0  0  0  0  0  0  0  0  0  0  0
   -0.9190   -1.8228    1.5253 O   0  0  0  0  0  0  0  0  0  0  0  0
   -1.5685   -0.0361    0.3146 N   0  0  0  0  0  0  0  0  0  0  0  0
   -2.3114    0.3469   -0.2641 H   0  0  0  0  0  0  0  0  0  0  0  0
   -0.2713    0.6720    0.3284 C   0  0  1  0  0  0  0  0  0  0  0  0
    0.4853    0.0851    0.8602 H   0  0  0  0  0  0  0  0  0  0  0  0
    0.2012    0.8514   -1.1296 C   0  0  0  0  0  0  0  0  0  0  0  0
   -0.5748    1.3689   -1.7038 H   0  0  0  0  0  0  0  0  0  0  0  0
    1.0971    1.4828   -1.1482 H   0  0  0  0  0  0  0  0  0  0  0  0
    0.5470   -0.4998   -1.7934 C   0  0  0  0  0  0  0  0  0  0  0  0
    1.3460   -0.9849   -1.2253 H   0  0  0  0  0  0  0  0  0  0  0  0
   -0.3228   -1.1604   -1.7710 H   0  0  0  0  0  0  0  0  0  0  0  0
    0.9990   -0.3806   -3.2496 C   0  0  0  0  0  0  0  0  0  0  0  0
    0.9391    0.6944   -3.8232 O   0  0  0  0  0  0  0  0  0  0  0  0
    1.4431   -1.5133   -3.8403 O   0  0  0  0  0  0  0  0  0  0  0  0
    1.6936   -1.2600   -4.7419 H   0  0  0  0  0  0  0  0  0  0  0  0
   -0.3716    2.0173    1.0872 C   0  0  0  0  0  0  0  0  0  0  0  0
    0.3073    2.9853    0.7726 O   0  0  0  0  0  0  0  0  0  0  0  0
   -1.2768    2.1495    2.1242 N   0  0  0  0  0  0  0  0  0  0  0  0
   -1.7440    1.2987    2.4253 H   0  0  0  0  0  0  0  0  0  0  0  0
   -1.3910    3.3508    2.9425 C   0  0  0  0  0  0  0  0  0  0  0  0
   -1.6446    4.2157    2.3204 H   0  0  0  0  0  0  0  0  0  0  0  0
   -2.1769    3.2243    3.6932 H   0  0  0  0  0  0  0  0  0  0  0  0
   -0.4469    3.5535    3.4591 H   0  0  0  0  0  0  0  0  0  0  0  0
  1  2  1  0  0  0  0
  2  3  1  0  0  0  0
  2  4  1  0  0  0  0
  2  5  1  0  0  0  0
  5  6  2  0  0  0  0
  5  7  1  0  0  0  0
  7  8  1  0  0  0  0
  7  9  1  0  0  0  0
  9 10  1  0  0  0  0
  9 11  1  0  0  0  0
  9 21  1  0  0  0  0
 11 12  1  0  0  0  0
 11 13  1  0  0  0  0
 11 14  1  0  0  0  0
 14 15  1  0  0  0  0
 14 16  1  0  0  0  0
 14 17  1  0  0  0  0
 17 18  2  0  0  0  0
 17 19  1  0  0  0  0
 19 20  1  0  0  0  0
 21 22  2  0  0  0  0
 21 23  1  0  0  0  0
 23 24  1  0  0  0  0
 23 25  1  0  0  0  0
 25 26  1  0  0  0  0
 25 27  1  0  0  0  0
 25 28  1  0  0  0  0
M  END
$$$$

  -OEChem-01062216073D

 28 27  0     1  0  0  0  0  0999 V2000
   -3.1038   -2.9523    1.0972 H   0  0  0  0  0  0  0  0  0  0  0  0
   -3.1132   -1.9590    0.6396 C   0  0  0  0  0  0  0  0  0  0  0  0
   -3.9137   -1.3700    1.0935 H   0  0  0  0  0  0  0  0  0  0  0  0
   -3.3102   -2.0678   -0.4295 H   0  0  0  0  0  0  0  0  0  0  0  0
   -1.7774   -1.2729    0.8540 C   0  0  0  0  0  0  0  0  0  0  0  0
   -0.9152   -1.8102    1.5278 O   0  0  0  0  0  0  0  0  0  0  0  0
   -1.5559   -0.0199    0.3207 N   0  0  0  0  0  0  0  0  0  0  0  0
   -2.3046    0.3799   -0.2390 H   0  0  0  0  0  0  0  0  0  0  0  0
   -0.2538    0.6758    0.3275 C   0  0  1  0  0  0  0  0  0  0  0  0
    0.5027    0.0839    0.8537 H   0  0  0  0  0  0  0  0  0  0  0  0
    0.2156    0.8549   -1.1313 C   0  0  0  0  0  0  0  0  0  0  0  0
   -0.5582    1.3793   -1.7025 H   0  0  0  0  0  0  0  0  0  0  0  0
    1.1158    1.4805   -1.1499 H   0  0  0  0  0  0  0  0  0  0  0  0
    0.5464   -0.4993   -1.7966 C   0  0  0  0  0  0  0  0  0  0  0  0
    1.3416   -0.9928   -1.2304 H   0  0  0  0  0  0  0  0  0  0  0  0
   -0.3303   -1.1508   -1.7719 H   0  0  0  0  0  0  0  0  0  0  0  0
    0.9955   -0.3858   -3.2539 C   0  0  0  0  0  0  0  0  0  0  0  0
    0.9451    0.6890   -3.8286 O   0  0  0  0  0  0  0  0  0  0  0  0
    1.4256   -1.5241   -3.8446 O   0  0  0  0  0  0  0  0  0  0  0  0
    1.6726   -1.2753   -4.7484 H   0  0  0  0  0  0  0  0  0  0  0  0
   -0.3550    2.0148    1.0946 C   0  0  0  0  0  0  0  0  0  0  0  0
    0.0961    3.0589    0.6433 O   0  0  0  0  0  0  0  0  0  0  0  0
   -1.0152    2.0423    2.3088 N   0  0  0  0  0  0  0  0  0  0  0  0
   -1.3191    1.1464    2.6819 H   0  0  0  0  0  0  0  0  0  0  0  0
   -1.1320    3.2364    3.1365 C   0  0  0  0  0  0  0  0  0  0  0  0
   -1.6530    4.0307    2.5917 H   0  0  0  0  0  0  0  0  0  0  0  0
   -1.6981    3.0130    4.0459 H   0  0  0  0  0  0  0  0  0  0  0  0
   -0.1405    3.6002    3.4262 H   0  0  0  0  0  0  0  0  0  0  0  0
  1  2  1  0  0  0  0
  2  3  1  0  0  0  0
  2  4  1  0  0  0  0
  2  5  1  0  0  0  0
  5  6  2  0  0  0  0
  5  7  1  0  0  0  0
  7  8  1  0  0  0  0
  7  9  1  0  0  0  0
  9 10  1  0  0  0  0
  9 11  1  0  0  0  0
  9 21  1  0  0  0  0
 11 12  1  0  0  0  0
 11 13  1  0  0  0  0
 11 14  1  0  0  0  0
 14 15  1  0  0  0  0
 14 16  1  0  0  0  0
 14 17  1  0  0  0  0
 17 18  2  0  0  0  0
 17 19  1  0  0  0  0
 19 20  1  0  0  0  0
 21 22  2  0  0  0  0
 21 23  1  0  0  0  0
 23 24  1  0  0  0  0
 23 25  1  0  0  0  0
 25 26  1  0  0  0  0
 25 27  1  0  0  0  0
 25 28  1  0  0  0  0
M  END
$$$$

  -OEChem-01062216073D

 28 27  0     1  0  0  0  0  0999 V2000
   -3.1193   -2.9229    1.1305 H   0  0  0  0  0  0  0  0  0  0  0  0
   -3.1202   -1.9316    0.6681 C   0  0  0  0  0  0  0  0  0  0  0  0
   -3.9061   -1.3286    1.1294 H   0  0  0  0  0  0  0  0  0  0  0  0
   -3.3326   -2.0419   -0.3981 H   0  0  0  0  0  0  0  0  0  0  0  0
   -1.7718   -1.2644    0.8613 C   0  0  0  0  0  0  0  0  0  0  0  0
   -0.9056   -1.8146    1.5203 O   0  0  0  0  0  0  0  0  0  0  0  0
   -1.5405   -0.0138    0.3269 N   0  0  0  0  0  0  0  0  0  0  0  0
   -2.2953    0.4065   -0.2094 H   0  0  0  0  0  0  0  0  0  0  0  0
   -0.2330    0.6684    0.3277 C   0  0  1  0  0  0  0  0  0  0  0  0
    0.5227    0.0701    0.8477 H   0  0  0  0  0  0  0  0  0  0  0  0
    0.2339    0.8516   -1.1309 C   0  0  0  0  0  0  0  0  0  0  0  0
   -0.5376    1.3849   -1.6975 H   0  0  0  0  0  0  0  0  0  0  0  0
    1.1376    1.4721   -1.1458 H   0  0  0  0  0  0  0  0  0  0  0  0
    0.5504   -0.5012   -1.8061 C   0  0  0  0  0  0  0  0  0  0  0  0
    1.3419   -1.0069   -1.2457 H   0  0  0  0  0  0  0  0  0  0  0  0
   -0.3326   -1.1443   -1.7831 H   0  0  0  0  0  0  0  0  0  0  0  0
    0.9964   -0.3817   -3.2638 C   0  0  0  0  0  0  0  0  0  0  0  0
    0.9543    0.6974   -3.8309 O   0  0  0  0  0  0  0  0  0  0  0  0
    1.4161   -1.5193   -3.8630 O   0  0  0  0  0  0  0  0  0  0  0  0
    1.6609   -1.2665   -4.7663 H   0  0  0  0  0  0  0  0  0  0  0  0
   -0.3300    2.0045    1.0969 C   0  0  0  0  0  0  0  0  0  0  0  0
   -0.1344    3.0842    0.5547 O   0  0  0  0  0  0  0  0  0  0  0  0
   -0.7007    1.9780    2.4280 N   0  0  0  0  0  0  0  0  0  0  0  0
   -0.8552    1.0627    2.8446 H   0  0  0  0  0  0  0  0  0  0  0  0
   -0.8345    3.1717    3.2536 C   0  0  0  0  0  0  0  0  0  0  0  0
   -1.5893    3.8452    2.8343 H   0  0  0  0  0  0  0  0  0  0  0  0
   -1.1410    2.8983    4.2677 H   0  0  0  0  0  0  0  0  0  0  0  0
    0.1199    3.7053    3.3126 H   0  0  0  0  0  0  0  0  0  0  0  0
  1  2  1  0  0  0  0
  2  3  1  0  0  0  0
  2  4  1  0  0  0  0
  2  5  1  0  0  0  0
  5  6  2  0  0  0  0
  5  7  1  0  0  0  0
  7  8  1  0  0  0  0
  7  9  1  0  0  0  0
  9 10  1  0  0  0  0
  9 11  1  0  0  0  0
  9 21  1  0  0  0  0
 11 12  1  0  0  0  0
 11 13  1  0  0  0  0
 11 14  1  0  0  0  0
 14 15  1  0  0  0  0
 14 16  1  0  0  0  0
 14 17  1  0  0  0  0
 17 18  2  0  0  0  0
 17 19  1  0  0  0  0
 19 20  1  0  0  0  0
 21 22  2  0  0  0  0
 21 23  1  0  0  0  0
 23 24  1  0  0  0  0
 23 25  1  0  0  0  0
 25 26  1  0  0  0  0
 25 27  1  0  0  0  0
 25 28  1  0  0  0  0
M  END
$$$$

  -OEChem-01062216073D

 28 27  0     1  0  0  0  0  0999 V2000
   -3.1357   -2.8959    1.1666 H   0  0  0  0  0  0  0  0  0  0  0  0
   -3.1288   -1.9053    0.7027 C   0  0  0  0  0  0  0  0  0  0  0  0
   -3.8887   -1.2854    1.1844 H   0  0  0  0  0  0  0  0  0  0  0  0
   -3.3726   -2.0121   -0.3571 H   0  0  0  0  0  0  0  0  0  0  0  0
   -1.7627   -1.2651    0.8588 C   0  0  0  0  0  0  0  0  0  0  0  0
   -0.8866   -1.8370    1.4862 O   0  0  0  0  0  0  0  0  0  0  0  0
   -1.5239   -0.0164    0.3237 N   0  0  0  0  0  0  0  0  0  0  0  0
   -2.2893    0.4312   -0.1746 H   0  0  0  0  0  0  0  0  0  0  0  0
   -0.2144    0.6581    0.3248 C   0  0  1  0  0  0  0  0  0  0  0  0
    0.5403    0.0545    0.8402 H   0  0  0  0  0  0  0  0  0  0  0  0
    0.2505    0.8483   -1.1326 C   0  0  0  0  0  0  0  0  0  0  0  0
   -0.5218    1.3857   -1.6948 H   0  0  0  0  0  0  0  0  0  0  0  0
    1.1544    1.4682   -1.1448 H   0  0  0  0  0  0  0  0  0  0  0  0
    0.5586   -0.5019   -1.8162 C   0  0  0  0  0  0  0  0  0  0  0  0
    1.3490   -1.0140   -1.2603 H   0  0  0  0  0  0  0  0  0  0  0  0
   -0.3277   -1.1402   -1.7945 H   0  0  0  0  0  0  0  0  0  0  0  0
    1.0026   -0.3774   -3.2740 C   0  0  0  0  0  0  0  0  0  0  0  0
    0.9654    0.7048   -3.8357 O   0  0  0  0  0  0  0  0  0  0  0  0
    1.4127   -1.5147   -3.8805 O   0  0  0  0  0  0  0  0  0  0  0  0
    1.6548   -1.2597   -4.7838 H   0  0  0  0  0  0  0  0  0  0  0  0
   -0.3073    1.9936    1.0924 C   0  0  0  0  0  0  0  0  0  0  0  0
   -0.3798    3.0686    0.5116 O   0  0  0  0  0  0  0  0  0  0  0  0
   -0.3682    1.9659    2.4726 N   0  0  0  0  0  0  0  0  0  0  0  0
   -0.3706    1.0505    2.9167 H   0  0  0  0  0  0  0  0  0  0  0  0
   -0.5147    3.1589    3.2970 C   0  0  0  0  0  0  0  0  0  0  0  0
   -1.4446    3.6827    3.0515 H   0  0  0  0  0  0  0  0  0  0  0  0
   -0.5405    2.8857    4.3562 H   0  0  0  0  0  0  0  0  0  0  0  0
    0.3270    3.8409    3.1364 H   0  0  0  0  0  0  0  0  0  0  0  0
  1  2  1  0  0  0  0
  2  3  1  0  0  0  0
  2  4  1  0  0  0  0
  2  5  1  0  0  0  0
  5  6  2  0  0  0  0
  5  7  1  0  0  0  0
  7  8  1  0  0  0  0
  7  9  1  0  0  0  0
  9 10  1  0  0  0  0
  9 11  1  0  0  0  0
  9 21  1  0  0  0  0
 11 12  1  0  0  0  0
 11 13  1  0  0  0  0
 11 14  1  0  0  0  0
 14 15  1  0  0  0  0
 14 16  1  0  0  0  0
 14 17  1  0  0  0  0
 17 18  2  0  0  0  0
 17 19  1  0  0  0  0
 19 20  1  0  0  0  0
 21 22  2  0  0  0  0
 21 23  1  0  0  0  0
 23 24  1  0  0  0  0
 23 25  1  0  0  0  0
 25 26  1  0  0  0  0
 25 27  1  0  0  0  0
 25 28  1  0  0  0  0
M  END
$$$$

  -OEChem-01062216073D

 28 27  0     1  0  0  0  0  0999 V2000
   -3.1595   -2.8699    1.2159 H   0  0  0  0  0  0  0  0  0  0  0  0
   -3.1450   -1.8819    0.7470 C   0  0  0  0  0  0  0  0  0  0  0  0
   -3.8712   -1.2411    1.2530 H   0  0  0  0  0  0  0  0  0  0  0  0
   -3.4299   -1.9866   -0.3027 H   0  0  0  0  0  0  0  0  0  0  0  0
   -1.7589   -1.2753    0.8498 C   0  0  0  0  0  0  0  0  0  0  0  0
   -0.8684   -1.8777    1.4272 O   0  0  0  0  0  0  0  0  0  0  0  0
   -1.5144   -0.0284    0.3131 N   0  0  0  0  0  0  0  0  0  0  0  0
   -2.2958    0.4565   -0.1219 H   0  0  0  0  0  0  0  0  0  0  0  0
   -0.2046    0.6427    0.3165 C   0  0  1  0  0  0  0  0  0  0  0  0
    0.5481    0.0347    0.8290 H   0  0  0  0  0  0  0  0  0  0  0  0
    0.2632    0.8425   -1.1376 C   0  0  0  0  0  0  0  0  0  0  0  0
   -0.5086    1.3828   -1.6980 H   0  0  0  0  0  0  0  0  0  0  0  0
    1.1664    1.4631   -1.1439 H   0  0  0  0  0  0  0  0  0  0  0  0
    0.5698   -0.5035   -1.8295 C   0  0  0  0  0  0  0  0  0  0  0  0
    1.3561   -1.0234   -1.2750 H   0  0  0  0  0  0  0  0  0  0  0  0
   -0.3193   -1.1385   -1.8149 H   0  0  0  0  0  0  0  0  0  0  0  0
    1.0172   -0.3687   -3.2853 C   0  0  0  0  0  0  0  0  0  0  0  0
    0.9834    0.7180   -3.8386 O   0  0  0  0  0  0  0  0  0  0  0  0
    1.4307   -1.5011   -3.8984 O   0  0  0  0  0  0  0  0  0  0  0  0
    1.6745   -1.2389   -4.7991 H   0  0  0  0  0  0  0  0  0  0  0  0
   -0.2930    1.9801    1.0792 C   0  0  0  0  0  0  0  0  0  0  0  0
   -0.6405    3.0095    0.5150 O   0  0  0  0  0  0  0  0  0  0  0  0
   -0.0449    2.0027    2.4385 N   0  0  0  0  0  0  0  0  0  0  0  0
    0.1402    1.1105    2.8907 H   0  0  0  0  0  0  0  0  0  0  0  0
   -0.1907    3.1977    3.2604 C   0  0  0  0  0  0  0  0  0  0  0  0
   -1.2200    3.5690    3.2179 H   0  0  0  0  0  0  0  0  0  0  0  0
    0.0531    2.9718    4.3030 H   0  0  0  0  0  0  0  0  0  0  0  0
    0.4832    3.9871    2.9111 H   0  0  0  0  0  0  0  0  0  0  0  0
  1  2  1  0  0  0  0
  2  3  1  0  0  0  0
  2  4  1  0  0  0  0
  2  5  1  0  0  0  0
  5  6  2  0  0  0  0
  5  7  1  0  0  0  0
  7  8  1  0  0  0  0
  7  9  1  0  0  0  0
  9 10  1  0  0  0  0
  9 11  1  0  0  0  0
  9 21  1  0  0  0  0
 11 12  1  0  0  0  0
 11 13  1  0  0  0  0
 11 14  1  0  0  0  0
 14 15  1  0  0  0  0
 14 16  1  0  0  0  0
 14 17  1  0  0  0  0
 17 18  2  0  0  0  0
 17 19  1  0  0  0  0
 19 20  1  0  0  0  0
 21 22  2  0  0  0  0
 21 23  1  0  0  0  0
 23 24  1  0  0  0  0
 23 25  1  0  0  0  0
 25 26  1  0  0  0  0
 25 27  1  0  0  0  0
 25 28  1  0  0  0  0
M  END
$$$$

  -OEChem-01062216073D

 28 27  0     1  0  0  0  0  0999 V2000
   -3.1861   -2.8329    1.2743 H   0  0  0  0  0  0  0  0  0  0  0  0
   -3.1628   -1.8481    0.7996 C   0  0  0  0  0  0  0  0  0  0  0  0
   -3.8440   -1.1826    1.3354 H   0  0  0  0  0  0  0  0  0  0  0  0
   -3.4996   -1.9479   -0.2351 H   0  0  0  0  0  0  0  0  0  0  0  0
   -1.7549   -1.2854    0.8337 C   0  0  0  0  0  0  0  0  0  0  0  0
   -0.8527   -1.9239    1.3516 O   0  0  0  0  0  0  0  0  0  0  0  0
   -1.5016   -0.0417    0.2940 N   0  0  0  0  0  0  0  0  0  0  0  0
   -2.2969    0.4883   -0.0561 H   0  0  0  0  0  0  0  0  0  0  0  0
   -0.1905    0.6253    0.3028 C   0  0  1  0  0  0  0  0  0  0  0  0
    0.5577    0.0134    0.8172 H   0  0  0  0  0  0  0  0  0  0  0  0
    0.2812    0.8345   -1.1473 C   0  0  0  0  0  0  0  0  0  0  0  0
   -0.4888    1.3798   -1.7054 H   0  0  0  0  0  0  0  0  0  0  0  0
    1.1856    1.4531   -1.1478 H   0  0  0  0  0  0  0  0  0  0  0  0
    0.5855   -0.5078   -1.8474 C   0  0  0  0  0  0  0  0  0  0  0  0
    1.3693   -1.0338   -1.2949 H   0  0  0  0  0  0  0  0  0  0  0  0
   -0.3055   -1.1406   -1.8389 H   0  0  0  0  0  0  0  0  0  0  0  0
    1.0370   -0.3639   -3.3008 C   0  0  0  0  0  0  0  0  0  0  0  0
    1.0076    0.7272   -3.8458 O   0  0  0  0  0  0  0  0  0  0  0  0
    1.4510   -1.4922   -3.9210 O   0  0  0  0  0  0  0  0  0  0  0  0
    1.6951   -1.2243   -4.8199 H   0  0  0  0  0  0  0  0  0  0  0  0
   -0.2807    1.9659    1.0585 C   0  0  0  0  0  0  0  0  0  0  0  0
   -0.8888    2.9110    0.5725 O   0  0  0  0  0  0  0  0  0  0  0  0
    0.2474    2.0803    2.3308 N   0  0  0  0  0  0  0  0  0  0  0  0
    0.6362    1.2398    2.7503 H   0  0  0  0  0  0  0  0  0  0  0  0
    0.0963    3.2748    3.1530 C   0  0  0  0  0  0  0  0  0  0  0  0
   -0.9629    3.4775    3.3434 H   0  0  0  0  0  0  0  0  0  0  0  0
    0.6014    3.1393    4.1144 H   0  0  0  0  0  0  0  0  0  0  0  0
    0.5362    4.1435    2.6517 H   0  0  0  0  0  0  0  0  0  0  0  0
  1  2  1  0  0  0  0
  2  3  1  0  0  0  0
  2  4  1  0  0  0  0
  2  5  1  0  0  0  0
  5  6  2  0  0  0  0
  5  7  1  0  0  0  0
  7  8  1  0  0  0  0
  7  9  1  0  0  0  0
  9 10  1  0  0  0  0
  9 11  1  0  0  0  0
  9 21  1  0  0  0  0
 11 12  1  0  0  0  0
 11 13  1  0  0  0  0
 11 14  1  0  0  0  0
 14 15  1  0  0  0  0
 14 16  1  0  0  0  0
 14 17  1  0  0  0  0
 17 18  2  0  0  0  0
 17 19  1  0  0  0  0
 19 20  1  0  0  0  0
 21 22  2  0  0  0  0
 21 23  1  0  0  0  0
 23 24  1  0  0  0  0
 23 25  1  0  0  0  0
 25 26  1  0  0  0  0
 25 27  1  0  0  0  0
 25 28  1  0  0  0  0
M  END
$$$$

  -OEChem-01062216073D

 28 27  0     1  0  0  0  0  0999 V2000
   -3.2104   -2.8057    1.3459 H   0  0  0  0  0  0  0  0  0  0  0  0
   -3.1838   -1.8271    0.8588 C   0  0  0  0  0  0  0  0  0  0  0  0
   -3.8163   -1.1363    1.4216 H   0  0  0  0  0  0  0  0  0  0  0  0
   -3.5772   -1.9276   -0.1556 H   0  0  0  0  0  0  0  0  0  0  0  0
   -1.7604   -1.3050    0.8126 C   0  0  0  0  0  0  0  0  0  0  0  0
   -0.8476   -1.9757    1.2679 O   0  0  0  0  0  0  0  0  0  0  0  0
   -1.5052   -0.0635    0.2691 N   0  0  0  0  0  0  0  0  0  0  0  0
   -2.3097    0.5043    0.0095 H   0  0  0  0  0  0  0  0  0  0  0  0
   -0.1944    0.6039    0.2885 C   0  0  1  0  0  0  0  0  0  0  0  0
    0.5475   -0.0087    0.8109 H   0  0  0  0  0  0  0  0  0  0  0  0
    0.2900    0.8246   -1.1544 C   0  0  0  0  0  0  0  0  0  0  0  0
   -0.4765    1.3742   -1.7135 H   0  0  0  0  0  0  0  0  0  0  0  0
    1.1941    1.4435   -1.1423 H   0  0  0  0  0  0  0  0  0  0  0  0
    0.6017   -0.5102   -1.8647 C   0  0  0  0  0  0  0  0  0  0  0  0
    1.3806   -1.0415   -1.3107 H   0  0  0  0  0  0  0  0  0  0  0  0
   -0.2891   -1.1437   -1.8703 H   0  0  0  0  0  0  0  0  0  0  0  0
    1.0660   -0.3482   -3.3125 C   0  0  0  0  0  0  0  0  0  0  0  0
    1.0393    0.7499   -3.8440 O   0  0  0  0  0  0  0  0  0  0  0  0
    1.4917   -1.4670   -3.9419 O   0  0  0  0  0  0  0  0  0  0  0  0
    1.7424   -1.1877   -4.8355 H   0  0  0  0  0  0  0  0  0  0  0  0
   -0.2923    1.9479    1.0365 C   0  0  0  0  0  0  0  0  0  0  0  0
   -1.1035    2.7909    0.6732 O   0  0  0  0  0  0  0  0  0  0  0  0
    0.4719    2.1824    2.1643 N   0  0  0  0  0  0  0  0  0  0  0  0
    1.0593    1.4236    2.4992 H   0  0  0  0  0  0  0  0  0  0  0  0
    0.3571    3.3941    2.9672 C   0  0  0  0  0  0  0  0  0  0  0  0
   -0.6573    3.4939    3.3675 H   0  0  0  0  0  0  0  0  0  0  0  0
    1.0589    3.3610    3.8062 H   0  0  0  0  0  0  0  0  0  0  0  0
    0.5850    4.2777    2.3616 H   0  0  0  0  0  0  0  0  0  0  0  0
  1  2  1  0  0  0  0
  2  3  1  0  0  0  0
  2  4  1  0  0  0  0
  2  5  1  0  0  0  0
  5  6  2  0  0  0  0
  5  7  1  0  0  0  0
  7  8  1  0  0  0  0
  7  9  1  0  0  0  0
  9 10  1  0  0  0  0
  9 11  1  0  0  0  0
  9 21  1  0  0  0  0
 11 12  1  0  0  0  0
 11 13  1  0  0  0  0
 11 14  1  0  0  0  0
 14 15  1  0  0  0  0
 14 16  1  0  0  0  0
 14 17  1  0  0  0  0
 17 18  2  0  0  0  0
 17 19  1  0  0  0  0
 19 20  1  0  0  0  0
 21 22  2  0  0  0  0
 21 23  1  0  0  0  0
 23 24  1  0  0  0  0
 23 25  1  0  0  0  0
 25 26  1  0  0  0  0
 25 27  1  0  0  0  0
 25 28  1  0  0  0  0
M  END
$$$$

  -OEChem-01062216073D

 28 27  0     1  0  0  0  0  0999 V2000
   -3.2192   -2.7980    1.3849 H   0  0  0  0  0  0  0  0  0  0  0  0
   -3.1950   -1.8234    0.8894 C   0  0  0  0  0  0  0  0  0  0  0  0
   -3.8020   -1.1207    1.4655 H   0  0  0  0  0  0  0  0  0  0  0  0
   -3.6203   -1.9266   -0.1118 H   0  0  0  0  0  0  0  0  0  0  0  0
   -1.7674   -1.3196    0.7953 C   0  0  0  0  0  0  0  0  0  0  0  0
   -0.8472   -2.0087    1.2064 O   0  0  0  0  0  0  0  0  0  0  0  0
   -1.5161   -0.0781    0.2497 N   0  0  0  0  0  0  0  0  0  0  0  0
   -2.3255    0.5117    0.0627 H   0  0  0  0  0  0  0  0  0  0  0  0
   -0.2072    0.5936    0.2803 C   0  0  1  0  0  0  0  0  0  0  0  0
    0.5296   -0.0175    0.8114 H   0  0  0  0  0  0  0  0  0  0  0  0
    0.2878    0.8209   -1.1572 C   0  0  0  0  0  0  0  0  0  0  0  0
   -0.4770    1.3698   -1.7189 H   0  0  0  0  0  0  0  0  0  0  0  0
    1.1902    1.4419   -1.1362 H   0  0  0  0  0  0  0  0  0  0  0  0
    0.6099   -0.5095   -1.8709 C   0  0  0  0  0  0  0  0  0  0  0  0
    1.3856   -1.0415   -1.3131 H   0  0  0  0  0  0  0  0  0  0  0  0
   -0.2787   -1.1456   -1.8864 H   0  0  0  0  0  0  0  0  0  0  0  0
    1.0850   -0.3386   -3.3143 C   0  0  0  0  0  0  0  0  0  0  0  0
    1.0581    0.7624   -3.8398 O   0  0  0  0  0  0  0  0  0  0  0  0
    1.5221   -1.4516   -3.9459 O   0  0  0  0  0  0  0  0  0  0  0  0
    1.7781   -1.1670   -4.8363 H   0  0  0  0  0  0  0  0  0  0  0  0
   -0.3104    1.9409    1.0232 C   0  0  0  0  0  0  0  0  0  0  0  0
   -1.2679    2.6779    0.8181 O   0  0  0  0  0  0  0  0  0  0  0  0
    0.6431    2.3078    1.9545 N   0  0  0  0  0  0  0  0  0  0  0  0
    1.3875    1.6454    2.1533 H   0  0  0  0  0  0  0  0  0  0  0  0
    0.5723    3.5440    2.7243 C   0  0  0  0  0  0  0  0  0  0  0  0
   -0.3439    3.5712    3.3237 H   0  0  0  0  0  0  0  0  0  0  0  0
    1.4297    3.6193    3.3999 H   0  0  0  0  0  0  0  0  0  0  0  0
    0.5821    4.4116    2.0560 H   0  0  0  0  0  0  0  0  0  0  0  0
  1  2  1  0  0  0  0
  2  3  1  0  0  0  0
  2  4  1  0  0  0  0
  2  5  1  0  0  0  0
  5  6  2  0  0  0  0
  5  7  1  0  0  0  0
  7  8  1  0  0  0  0
  7  9  1  0  0  0  0
  9 10  1  0  0  0  0
  9 11  1  0  0  0  0
  9 21  1  0  0  0  0
 11 12  1  0  0  0  0
 11 13  1  0  0  0  0
 11 14  1  0  0  0  0
 14 15  1  0  0  0  0
 14 16  1  0  0  0  0
 14 17  1  0  0  0  0
 17 18  2  0  0  0  0
 17 19  1  0  0  0  0
 19 20  1  0  0  0  0
 21 22  2  0  0  0  0
 21 23  1  0  0  0  0
 23 24  1  0  0  0  0
 23 25  1  0  0  0  0
 25 26  1  0  0  0  0
 25 27  1  0  0  0  0
 25 28  1  0  0  0  0
M  END
$$$$

  -OEChem-01062216073D

 28 27  0     1  0  0  0  0  0999 V2000
   -3.2170   -2.7931    1.4095 H   0  0  0  0  0  0  0  0  0  0  0  0
   -3.1988   -1.8213    0.9087 C   0  0  0  0  0  0  0  0  0  0  0  0
   -3.7859   -1.1113    1.4963 H   0  0  0  0  0  0  0  0  0  0  0  0
   -3.6500   -1.9261   -0.0809 H   0  0  0  0  0  0  0  0  0  0  0  0
   -1.7707   -1.3283    0.7757 C   0  0  0  0  0  0  0  0  0  0  0  0
   -0.8442   -2.0315    1.1469 O   0  0  0  0  0  0  0  0  0  0  0  0
   -1.5268   -0.0852    0.2304 N   0  0  0  0  0  0  0  0  0  0  0  0
   -2.3385    0.5197    0.1120 H   0  0  0  0  0  0  0  0  0  0  0  0
   -0.2201    0.5909    0.2734 C   0  0  1  0  0  0  0  0  0  0  0  0
    0.5132   -0.0172    0.8132 H   0  0  0  0  0  0  0  0  0  0  0  0
    0.2837    0.8197   -1.1606 C   0  0  0  0  0  0  0  0  0  0  0  0
   -0.4801    1.3653   -1.7268 H   0  0  0  0  0  0  0  0  0  0  0  0
    1.1835    1.4441   -1.1352 H   0  0  0  0  0  0  0  0  0  0  0  0
    0.6149   -0.5095   -1.8731 C   0  0  0  0  0  0  0  0  0  0  0  0
    1.3875   -1.0406   -1.3104 H   0  0  0  0  0  0  0  0  0  0  0  0
   -0.2722   -1.1479   -1.8960 H   0  0  0  0  0  0  0  0  0  0  0  0
    1.0992   -0.3356   -3.3130 C   0  0  0  0  0  0  0  0  0  0  0  0
    1.0722    0.7662   -3.8373 O   0  0  0  0  0  0  0  0  0  0  0  0
    1.5437   -1.4466   -3.9430 O   0  0  0  0  0  0  0  0  0  0  0  0
    1.8034   -1.1613   -4.8321 H   0  0  0  0  0  0  0  0  0  0  0  0
   -0.3277    1.9395    1.0149 C   0  0  0  0  0  0  0  0  0  0  0  0
   -1.3810    2.5667    0.9960 O   0  0  0  0  0  0  0  0  0  0  0  0
    0.7529    2.4477    1.7115 N   0  0  0  0  0  0  0  0  0  0  0  0
    1.6010    1.8891    1.7420 H   0  0  0  0  0  0  0  0  0  0  0  0
    0.7095    3.7080    2.4435 C   0  0  0  0  0  0  0  0  0  0  0  0
   -0.0582    3.6726    3.2237 H   0  0  0  0  0  0  0  0  0  0  0  0
    1.6758    3.9041    2.9182 H   0  0  0  0  0  0  0  0  0  0  0  0
    0.4839    4.5371    1.7645 H   0  0  0  0  0  0  0  0  0  0  0  0
  1  2  1  0  0  0  0
  2  3  1  0  0  0  0
  2  4  1  0  0  0  0
  2  5  1  0  0  0  0
  5  6  2  0  0  0  0
  5  7  1  0  0  0  0
  7  8  1  0  0  0  0
  7  9  1  0  0  0  0
  9 10  1  0  0  0  0
  9 11  1  0  0  0  0
  9 21  1  0  0  0  0
 11 12  1  0  0  0  0
 11 13  1  0  0  0  0
 11 14  1  0  0  0  0
 14 15  1  0  0  0  0
 14 16  1  0  0  0  0
 14 17  1  0  0  0  0
 17 18  2  0  0  0  0
 17 19  1  0  0  0  0
 19 20  1  0  0  0  0
 21 22  2  0  0  0  0
 21 23  1  0  0  0  0
 23 24  1  0  0  0  0
 23 25  1  0  0  0  0
 25 26  1  0  0  0  0
 25 27  1  0  0  0  0
 25 28  1  0  0  0  0
M  END
$$$$

  -OEChem-01062216073D

 28 27  0     1  0  0  0  0  0999 V2000
   -3.2077   -2.7821    1.4376 H   0  0  0  0  0  0  0  0  0  0  0  0
   -3.1982   -1.8102    0.9365 C   0  0  0  0  0  0  0  0  0  0  0  0
   -3.7533   -1.0942    1.5477 H   0  0  0  0  0  0  0  0  0  0  0  0
   -3.6894   -1.9088   -0.0344 H   0  0  0  0  0  0  0  0  0  0  0  0
   -1.7711   -1.3332    0.7468 C   0  0  0  0  0  0  0  0  0  0  0  0
   -0.8390   -2.0528    1.0699 O   0  0  0  0  0  0  0  0  0  0  0  0
   -1.5350   -0.0874    0.2041 N   0  0  0  0  0  0  0  0  0  0  0  0
   -2.3468    0.5266    0.1455 H   0  0  0  0  0  0  0  0  0  0  0  0
   -0.2292    0.5910    0.2616 C   0  0  1  0  0  0  0  0  0  0  0  0
    0.5009   -0.0144    0.8090 H   0  0  0  0  0  0  0  0  0  0  0  0
    0.2830    0.8182   -1.1708 C   0  0  0  0  0  0  0  0  0  0  0  0
   -0.4786    1.3611   -1.7424 H   0  0  0  0  0  0  0  0  0  0  0  0
    1.1823    1.4429   -1.1448 H   0  0  0  0  0  0  0  0  0  0  0  0
    0.6202   -0.5116   -1.8789 C   0  0  0  0  0  0  0  0  0  0  0  0
    1.3902   -1.0407   -1.3104 H   0  0  0  0  0  0  0  0  0  0  0  0
   -0.2659   -1.1511   -1.9058 H   0  0  0  0  0  0  0  0  0  0  0  0
    1.1126   -0.3401   -3.3163 C   0  0  0  0  0  0  0  0  0  0  0  0
    1.0867    0.7611   -3.8422 O   0  0  0  0  0  0  0  0  0  0  0  0
    1.5641   -1.4512   -3.9415 O   0  0  0  0  0  0  0  0  0  0  0  0
    1.8278   -1.1678   -4.8299 H   0  0  0  0  0  0  0  0  0  0  0  0
   -0.3429    1.9393    1.0061 C   0  0  0  0  0  0  0  0  0  0  0  0
   -1.4420    2.4530    1.1862 O   0  0  0  0  0  0  0  0  0  0  0  0
    0.7903    2.5964    1.4493 N   0  0  0  0  0  0  0  0  0  0  0  0
    1.6871    2.1407    1.3077 H   0  0  0  0  0  0  0  0  0  0  0  0
    0.7496    3.8749    2.1493 C   0  0  0  0  0  0  0  0  0  0  0  0
    0.1711    3.7869    3.0752 H   0  0  0  0  0  0  0  0  0  0  0  0
    1.7629    4.2000    2.4043 H   0  0  0  0  0  0  0  0  0  0  0  0
    0.2892    4.6426    1.5183 H   0  0  0  0  0  0  0  0  0  0  0  0
  1  2  1  0  0  0  0
  2  3  1  0  0  0  0
  2  4  1  0  0  0  0
  2  5  1  0  0  0  0
  5  6  2  0  0  0  0
  5  7  1  0  0  0  0
  7  8  1  0  0  0  0
  7  9  1  0  0  0  0
  9 10  1  0  0  0  0
  9 11  1  0  0  0  0
  9 21  1  0  0  0  0
 11 12  1  0  0  0  0
 11 13  1  0  0  0  0
 11 14  1  0  0  0  0
 14 15  1  0  0  0  0
 14 16  1  0  0  0  0
 14 17  1  0  0  0  0
 17 18  2  0  0  0  0
 17 19  1  0  0  0  0
 19 20  1  0  0  0  0
 21 22  2  0  0  0  0
 21 23  1  0  0  0  0
 23 24  1  0  0  0  0
 23 25  1  0  0  0  0
 25 26  1  0  0  0  0
 25 27  1  0  0  0  0
 25 28  1  0  0  0  0
M  END
$$$$

  -OEChem-01062216073D

 28 27  0     1  0  0  0  0  0999 V2000
   -3.1533   -2.7934    1.4397 H   0  0  0  0  0  0  0  0  0  0  0  0
   -3.1677   -1.8005    0.9815 C   0  0  0  0  0  0  0  0  0  0  0  0
   -3.6640   -1.1056    1.6636 H   0  0  0  0  0  0  0  0  0  0  0  0
   -3.7324   -1.8510    0.0475 H   0  0  0  0  0  0  0  0  0  0  0  0
   -1.7521   -1.3308    0.7063 C   0  0  0  0  0  0  0  0  0  0  0  0
   -0.8080   -2.0645    0.9545 O   0  0  0  0  0  0  0  0  0  0  0  0
   -1.5442   -0.0770    0.1686 N   0  0  0  0  0  0  0  0  0  0  0  0
   -2.3583    0.5332    0.2062 H   0  0  0  0  0  0  0  0  0  0  0  0
   -0.2399    0.6059    0.2377 C   0  0  1  0  0  0  0  0  0  0  0  0
    0.5537   -0.0891    0.5321 H   0  0  0  0  0  0  0  0  0  0  0  0
    0.0889    1.1594   -1.1606 C   0  0  0  0  0  0  0  0  0  0  0  0
   -0.7379    1.7931   -1.5011 H   0  0  0  0  0  0  0  0  0  0  0  0
    0.9853    1.7865   -1.1113 H   0  0  0  0  0  0  0  0  0  0  0  0
    0.3357    0.0248   -2.1784 C   0  0  0  0  0  0  0  0  0  0  0  0
    1.1715   -0.5927   -1.8377 H   0  0  0  0  0  0  0  0  0  0  0  0
   -0.5464   -0.6186   -2.2363 H   0  0  0  0  0  0  0  0  0  0  0  0
    0.6446    0.5178   -3.5923 C   0  0  0  0  0  0  0  0  0  0  0  0
    0.5526    1.7057   -3.8570 O   0  0  0  0  0  0  0  0  0  0  0  0
    1.0145   -0.4184   -4.4953 O   0  0  0  0  0  0  0  0  0  0  0  0
    1.1672    0.0575   -5.3256 H   0  0  0  0  0  0  0  0  0  0  0  0
   -0.2558    1.7392    1.2912 C   0  0  0  0  0  0  0  0  0  0  0  0
   -1.2950    2.0256    1.8760 O   0  0  0  0  0  0  0  0  0  0  0  0
    0.8712    2.5086    1.5193 N   0  0  0  0  0  0  0  0  0  0  0  0
    1.7251    2.2516    1.0333 H   0  0  0  0  0  0  0  0  0  0  0  0
    0.9063    3.6131    2.4709 C   0  0  0  0  0  0  0  0  0  0  0  0
    0.6762    3.2569    3.4807 H   0  0  0  0  0  0  0  0  0  0  0  0
    1.9003    4.0708    2.4840 H   0  0  0  0  0  0  0  0  0  0  0  0
    0.1762    4.3810    2.1940 H   0  0  0  0  0  0  0  0  0  0  0  0
  1  2  1  0  0  0  0
  2  3  1  0  0  0  0
  2  4  1  0  0  0  0
  2  5  1  0  0  0  0
  5  6  2  0  0  0  0
  5  7  1  0  0  0  0
  7  8  1  0  0  0  0
  7  9  1  0  0  0  0
  9 10  1  0  0  0  0
  9 11  1  0  0  0  0
  9 21  1  0  0  0  0
 11 12  1  0  0  0  0
 11 13  1  0  0  0  0
 11 14  1  0  0  0  0
 14 15  1  0  0  0  0
 14 16  1  0  0  0  0
 14 17  1  0  0  0  0
 17 18  2  0  0  0  0
 17 19  1  0  0  0  0
 19 20  1  0  0  0  0
 21 22  2  0  0  0  0
 21 23  1  0  0  0  0
 23 24  1  0  0  0  0
 23 25  1  0  0  0  0
 25 26  1  0  0  0  0
 25 27  1  0  0  0  0
 25 28  1  0  0  0  0
M  END
$$$$

  -OEChem-01062216073D

 28 27  0     1  0  0  0  0  0999 V2000
   -3.1419   -2.7902    1.4254 H   0  0  0  0  0  0  0  0  0  0  0  0
   -3.1601   -1.7852    0.9947 C   0  0  0  0  0  0  0  0  0  0  0  0
   -3.6271   -1.1042    1.7108 H   0  0  0  0  0  0  0  0  0  0  0  0
   -3.7547   -1.8049    0.0783 H   0  0  0  0  0  0  0  0  0  0  0  0
   -1.7487   -1.3224    0.6878 C   0  0  0  0  0  0  0  0  0  0  0  0
   -0.8048   -2.0685    0.8966 O   0  0  0  0  0  0  0  0  0  0  0  0
   -1.5463   -0.0657    0.1544 N   0  0  0  0  0  0  0  0  0  0  0  0
   -2.3588    0.5435    0.2188 H   0  0  0  0  0  0  0  0  0  0  0  0
   -0.2401    0.6146    0.2270 C   0  0  1  0  0  0  0  0  0  0  0  0
    0.5525   -0.0798    0.5255 H   0  0  0  0  0  0  0  0  0  0  0  0
    0.0907    1.1546   -1.1780 C   0  0  0  0  0  0  0  0  0  0  0  0
   -0.7342    1.7878   -1.5243 H   0  0  0  0  0  0  0  0  0  0  0  0
    0.9907    1.7763   -1.1385 H   0  0  0  0  0  0  0  0  0  0  0  0
    0.3370    0.0115   -2.1865 C   0  0  0  0  0  0  0  0  0  0  0  0
    1.1732   -0.6027   -1.8409 H   0  0  0  0  0  0  0  0  0  0  0  0
   -0.5446   -0.6327   -2.2397 H   0  0  0  0  0  0  0  0  0  0  0  0
    0.6470    0.4944   -3.6039 C   0  0  0  0  0  0  0  0  0  0  0  0
    0.5556    1.6810   -3.8759 O   0  0  0  0  0  0  0  0  0  0  0  0
    1.0173   -0.4471   -4.5013 O   0  0  0  0  0  0  0  0  0  0  0  0
    1.1709    0.0238   -5.3344 H   0  0  0  0  0  0  0  0  0  0  0  0
   -0.2589    1.7433    1.2894 C   0  0  0  0  0  0  0  0  0  0  0  0
   -1.2182    1.8633    2.0436 O   0  0  0  0  0  0  0  0  0  0  0  0
    0.7318    2.7091    1.3291 N   0  0  0  0  0  0  0  0  0  0  0  0
    1.5214    2.6019    0.6997 H   0  0  0  0  0  0  0  0  0  0  0  0
    0.7285    3.8231    2.2704 C   0  0  0  0  0  0  0  0  0  0  0  0
    0.7412    3.4538    3.3014 H   0  0  0  0  0  0  0  0  0  0  0  0
    1.6115    4.4510    2.1173 H   0  0  0  0  0  0  0  0  0  0  0  0
   -0.1639    4.4421    2.1290 H   0  0  0  0  0  0  0  0  0  0  0  0
  1  2  1  0  0  0  0
  2  3  1  0  0  0  0
  2  4  1  0  0  0  0
  2  5  1  0  0  0  0
  5  6  2  0  0  0  0
  5  7  1  0  0  0  0
  7  8  1  0  0  0  0
  7  9  1  0  0  0  0
  9 10  1  0  0  0  0
  9 11  1  0  0  0  0
  9 21  1  0  0  0  0
 11 12  1  0  0  0  0
 11 13  1  0  0  0  0
 11 14  1  0  0  0  0
 14 15  1  0  0  0  0
 14 16  1  0  0  0  0
 14 17  1  0  0  0  0
 17 18  2  0  0  0  0
 17 19  1  0  0  0  0
 19 20  1  0  0  0  0
 21 22  2  0  0  0  0
 21 23  1  0  0  0  0
 23 24  1  0  0  0  0
 23 25  1  0  0  0  0
 25 26  1  0  0  0  0
 25 27  1  0  0  0  0
 25 28  1  0  0  0  0
M  END
$$$$

  -OEChem-01062216073D

 28 27  0     1  0  0  0  0  0999 V2000
   -3.1351   -2.7847    1.4120 H   0  0  0  0  0  0  0  0  0  0  0  0
   -3.1535   -1.7679    1.0100 C   0  0  0  0  0  0  0  0  0  0  0  0
   -3.5882   -1.1014    1.7591 H   0  0  0  0  0  0  0  0  0  0  0  0
   -3.7770   -1.7543    0.1130 H   0  0  0  0  0  0  0  0  0  0  0  0
   -1.7463   -1.3136    0.6722 C   0  0  0  0  0  0  0  0  0  0  0  0
   -0.8045   -2.0716    0.8447 O   0  0  0  0  0  0  0  0  0  0  0  0
   -1.5483   -0.0536    0.1436 N   0  0  0  0  0  0  0  0  0  0  0  0
   -2.3612    0.5529    0.2172 H   0  0  0  0  0  0  0  0  0  0  0  0
   -0.2399    0.6237    0.2137 C   0  0  1  0  0  0  0  0  0  0  0  0
    0.5512   -0.0717    0.5142 H   0  0  0  0  0  0  0  0  0  0  0  0
    0.0957    1.1517   -1.1950 C   0  0  0  0  0  0  0  0  0  0  0  0
   -0.7245    1.7868   -1.5486 H   0  0  0  0  0  0  0  0  0  0  0  0
    1.0017    1.7644   -1.1590 H   0  0  0  0  0  0  0  0  0  0  0  0
    0.3405   -0.0009   -2.1929 C   0  0  0  0  0  0  0  0  0  0  0  0
    1.1739   -0.6154   -1.8404 H   0  0  0  0  0  0  0  0  0  0  0  0
   -0.5429   -0.6432   -2.2431 H   0  0  0  0  0  0  0  0  0  0  0  0
    0.6551    0.4706   -3.6129 C   0  0  0  0  0  0  0  0  0  0  0  0
    0.5676    1.6558   -3.8925 O   0  0  0  0  0  0  0  0  0  0  0  0
    1.0230   -0.4781   -4.5037 O   0  0  0  0  0  0  0  0  0  0  0  0
    1.1781   -0.0141   -5.3403 H   0  0  0  0  0  0  0  0  0  0  0  0
   -0.2591    1.7457    1.2854 C   0  0  0  0  0  0  0  0  0  0  0  0
   -1.0787    1.7069    2.1956 O   0  0  0  0  0  0  0  0  0  0  0  0
    0.5272    2.8796    1.1694 N   0  0  0  0  0  0  0  0  0  0  0  0
    1.1843    2.9223    0.3967 H   0  0  0  0  0  0  0  0  0  0  0  0
    0.4730    3.9946    2.1084 C   0  0  0  0  0  0  0  0  0  0  0  0
    0.7260    3.6575    3.1193 H   0  0  0  0  0  0  0  0  0  0  0  0
    1.1855    4.7717    1.8152 H   0  0  0  0  0  0  0  0  0  0  0  0
   -0.5300    4.4342    2.1240 H   0  0  0  0  0  0  0  0  0  0  0  0
  1  2  1  0  0  0  0
  2  3  1  0  0  0  0
  2  4  1  0  0  0  0
  2  5  1  0  0  0  0
  5  6  2  0  0  0  0
  5  7  1  0  0  0  0
  7  8  1  0  0  0  0
  7  9  1  0  0  0  0
  9 10  1  0  0  0  0
  9 11  1  0  0  0  0
  9 21  1  0  0  0  0
 11 12  1  0  0  0  0
 11 13  1  0  0  0  0
 11 14  1  0  0  0  0
 14 15  1  0  0  0  0
 14 16  1  0  0  0  0
 14 17  1  0  0  0  0
 17 18  2  0  0  0  0
 17 19  1  0  0  0  0
 19 20  1  0  0  0  0
 21 22  2  0  0  0  0
 21 23  1  0  0  0  0
 23 24  1  0  0  0  0
 23 25  1  0  0  0  0
 25 26  1  0  0  0  0
 25 27  1  0  0  0  0
 25 28  1  0  0  0  0
M  END
$$$$

  -OEChem-01062216073D

 28 27  0     1  0  0  0  0  0999 V2000
   -3.1231   -2.7689    1.4481 H   0  0  0  0  0  0  0  0  0  0  0  0
   -3.1511   -1.7639    1.0176 C   0  0  0  0  0  0  0  0  0  0  0  0
   -3.5938   -1.0820    1.7479 H   0  0  0  0  0  0  0  0  0  0  0  0
   -3.7725   -1.7814    0.1192 H   0  0  0  0  0  0  0  0  0  0  0  0
   -1.7476   -1.3059    0.6697 C   0  0  0  0  0  0  0  0  0  0  0  0
   -0.8048   -2.0659    0.8257 O   0  0  0  0  0  0  0  0  0  0  0  0
   -1.5556   -0.0448    0.1407 N   0  0  0  0  0  0  0  0  0  0  0  0
   -2.3739    0.5551    0.1981 H   0  0  0  0  0  0  0  0  0  0  0  0
   -0.2482    0.6345    0.2045 C   0  0  1  0  0  0  0  0  0  0  0  0
    0.5432   -0.0589    0.5094 H   0  0  0  0  0  0  0  0  0  0  0  0
    0.0947    1.1522   -1.2057 C   0  0  0  0  0  0  0  0  0  0  0  0
   -0.7216    1.7871   -1.5690 H   0  0  0  0  0  0  0  0  0  0  0  0
    1.0038    1.7607   -1.1656 H   0  0  0  0  0  0  0  0  0  0  0  0
    0.3442   -0.0065   -2.1952 C   0  0  0  0  0  0  0  0  0  0  0  0
    1.1759   -0.6187   -1.8349 H   0  0  0  0  0  0  0  0  0  0  0  0
   -0.5388   -0.6493   -2.2451 H   0  0  0  0  0  0  0  0  0  0  0  0
    0.6659    0.4575   -3.6161 C   0  0  0  0  0  0  0  0  0  0  0  0
    0.5795    1.6416   -3.9017 O   0  0  0  0  0  0  0  0  0  0  0  0
    1.0368   -0.4955   -4.5007 O   0  0  0  0  0  0  0  0  0  0  0  0
    1.1980   -0.0360   -5.3385 H   0  0  0  0  0  0  0  0  0  0  0  0
   -0.2685    1.7539    1.2780 C   0  0  0  0  0  0  0  0  0  0  0  0
   -0.8881    1.5844    2.3204 O   0  0  0  0  0  0  0  0  0  0  0  0
    0.2591    3.0116    1.0370 N   0  0  0  0  0  0  0  0  0  0  0  0
    0.7297    3.1646    0.1503 H   0  0  0  0  0  0  0  0  0  0  0  0
    0.1766    4.1137    1.9891 C   0  0  0  0  0  0  0  0  0  0  0  0
    0.6693    3.8452    2.9297 H   0  0  0  0  0  0  0  0  0  0  0  0
    0.6688    5.0027    1.5831 H   0  0  0  0  0  0  0  0  0  0  0  0
   -0.8692    4.3632    2.1979 H   0  0  0  0  0  0  0  0  0  0  0  0
  1  2  1  0  0  0  0
  2  3  1  0  0  0  0
  2  4  1  0  0  0  0
  2  5  1  0  0  0  0
  5  6  2  0  0  0  0
  5  7  1  0  0  0  0
  7  8  1  0  0  0  0
  7  9  1  0  0  0  0
  9 10  1  0  0  0  0
  9 11  1  0  0  0  0
  9 21  1  0  0  0  0
 11 12  1  0  0  0  0
 11 13  1  0  0  0  0
 11 14  1  0  0  0  0
 14 15  1  0  0  0  0
 14 16  1  0  0  0  0
 14 17  1  0  0  0  0
 17 18  2  0  0  0  0
 17 19  1  0  0  0  0
 19 20  1  0  0  0  0
 21 22  2  0  0  0  0
 21 23  1  0  0  0  0
 23 24  1  0  0  0  0
 23 25  1  0  0  0  0
 25 26  1  0  0  0  0
 25 27  1  0  0  0  0
 25 28  1  0  0  0  0
M  END
$$$$

  -OEChem-01062216073D

 28 27  0     1  0  0  0  0  0999 V2000
   -3.1276   -2.7905    1.4134 H   0  0  0  0  0  0  0  0  0  0  0  0
   -3.1540   -1.7739    1.0112 C   0  0  0  0  0  0  0  0  0  0  0  0
   -3.5989   -1.1126    1.7587 H   0  0  0  0  0  0  0  0  0  0  0  0
   -3.7727   -1.7666    0.1109 H   0  0  0  0  0  0  0  0  0  0  0  0
   -1.7493   -1.3066    0.6805 C   0  0  0  0  0  0  0  0  0  0  0  0
   -0.8050   -2.0628    0.8423 O   0  0  0  0  0  0  0  0  0  0  0  0
   -1.5601   -0.0455    0.1494 N   0  0  0  0  0  0  0  0  0  0  0  0
   -2.3854    0.5461    0.1756 H   0  0  0  0  0  0  0  0  0  0  0  0
   -0.2561    0.6406    0.2076 C   0  0  1  0  0  0  0  0  0  0  0  0
    0.5374   -0.0494    0.5155 H   0  0  0  0  0  0  0  0  0  0  0  0
    0.0899    1.1541   -1.2028 C   0  0  0  0  0  0  0  0  0  0  0  0
   -0.7296    1.7802   -1.5737 H   0  0  0  0  0  0  0  0  0  0  0  0
    0.9944    1.7701   -1.1564 H   0  0  0  0  0  0  0  0  0  0  0  0
    0.3486   -0.0058   -2.1879 C   0  0  0  0  0  0  0  0  0  0  0  0
    1.1818   -0.6135   -1.8232 H   0  0  0  0  0  0  0  0  0  0  0  0
   -0.5313   -0.6524   -2.2396 H   0  0  0  0  0  0  0  0  0  0  0  0
    0.6734    0.4570   -3.6086 C   0  0  0  0  0  0  0  0  0  0  0  0
    0.5820    1.6403   -3.8966 O   0  0  0  0  0  0  0  0  0  0  0  0
    1.0515   -0.4959   -4.4905 O   0  0  0  0  0  0  0  0  0  0  0  0
    1.2154   -0.0368   -5.3280 H   0  0  0  0  0  0  0  0  0  0  0  0
   -0.2767    1.7619    1.2767 C   0  0  0  0  0  0  0  0  0  0  0  0
   -0.6569    1.5102    2.4118 O   0  0  0  0  0  0  0  0  0  0  0  0
   -0.0442    3.0874    0.9488 N   0  0  0  0  0  0  0  0  0  0  0  0
    0.2249    3.2962   -0.0080 H   0  0  0  0  0  0  0  0  0  0  0  0
   -0.1505    4.1835    1.9054 C   0  0  0  0  0  0  0  0  0  0  0  0
    0.5456    4.0345    2.7377 H   0  0  0  0  0  0  0  0  0  0  0  0
    0.0897    5.1342    1.4198 H   0  0  0  0  0  0  0  0  0  0  0  0
   -1.1681    4.2473    2.3049 H   0  0  0  0  0  0  0  0  0  0  0  0
  1  2  1  0  0  0  0
  2  3  1  0  0  0  0
  2  4  1  0  0  0  0
  2  5  1  0  0  0  0
  5  6  2  0  0  0  0
  5  7  1  0  0  0  0
  7  8  1  0  0  0  0
  7  9  1  0  0  0  0
  9 10  1  0  0  0  0
  9 11  1  0  0  0  0
  9 21  1  0  0  0  0
 11 12  1  0  0  0  0
 11 13  1  0  0  0  0
 11 14  1  0  0  0  0
 14 15  1  0  0  0  0
 14 16  1  0  0  0  0
 14 17  1  0  0  0  0
 17 18  2  0  0  0  0
 17 19  1  0  0  0  0
 19 20  1  0  0  0  0
 21 22  2  0  0  0  0
 21 23  1  0  0  0  0
 23 24  1  0  0  0  0
 23 25  1  0  0  0  0
 25 26  1  0  0  0  0
 25 27  1  0  0  0  0
 25 28  1  0  0  0  0
M  END
$$$$

  -OEChem-01062216073D

 28 27  0     1  0  0  0  0  0999 V2000
   -3.1286   -2.8156    1.3896 H   0  0  0  0  0  0  0  0  0  0  0  0
   -3.1587   -1.8017    0.9810 C   0  0  0  0  0  0  0  0  0  0  0  0
   -3.6425   -1.1451    1.7079 H   0  0  0  0  0  0  0  0  0  0  0  0
   -3.7443   -1.8106    0.0587 H   0  0  0  0  0  0  0  0  0  0  0  0
   -1.7512   -1.3111    0.6987 C   0  0  0  0  0  0  0  0  0  0  0  0
   -0.8017   -2.0521    0.8936 O   0  0  0  0  0  0  0  0  0  0  0  0
   -1.5647   -0.0507    0.1644 N   0  0  0  0  0  0  0  0  0  0  0  0
   -2.3990    0.5278    0.1401 H   0  0  0  0  0  0  0  0  0  0  0  0
   -0.2669    0.6475    0.2199 C   0  0  1  0  0  0  0  0  0  0  0  0
    0.5321   -0.0359    0.5296 H   0  0  0  0  0  0  0  0  0  0  0  0
    0.0766    1.1610   -1.1903 C   0  0  0  0  0  0  0  0  0  0  0  0
   -0.7486    1.7755   -1.5666 H   0  0  0  0  0  0  0  0  0  0  0  0
    0.9724    1.7901   -1.1394 H   0  0  0  0  0  0  0  0  0  0  0  0
    0.3473    0.0010   -2.1719 C   0  0  0  0  0  0  0  0  0  0  0  0
    1.1865   -0.5963   -1.8039 H   0  0  0  0  0  0  0  0  0  0  0  0
   -0.5258   -0.6552   -2.2223 H   0  0  0  0  0  0  0  0  0  0  0  0
    0.6701    0.4627   -3.5935 C   0  0  0  0  0  0  0  0  0  0  0  0
    0.5683    1.6443   -3.8847 O   0  0  0  0  0  0  0  0  0  0  0  0
    1.0574   -0.4892   -4.4725 O   0  0  0  0  0  0  0  0  0  0  0  0
    1.2203   -0.0309   -5.3106 H   0  0  0  0  0  0  0  0  0  0  0  0
   -0.2916    1.7733    1.2808 C   0  0  0  0  0  0  0  0  0  0  0  0
   -0.3917    1.4910    2.4659 O   0  0  0  0  0  0  0  0  0  0  0  0
   -0.3749    3.1071    0.9169 N   0  0  0  0  0  0  0  0  0  0  0  0
   -0.3054    3.3312   -0.0713 H   0  0  0  0  0  0  0  0  0  0  0  0
   -0.4738    4.1967    1.8816 C   0  0  0  0  0  0  0  0  0  0  0  0
    0.3986    4.2026    2.5437 H   0  0  0  0  0  0  0  0  0  0  0  0
   -0.5205    5.1591    1.3629 H   0  0  0  0  0  0  0  0  0  0  0  0
   -1.3773    4.0887    2.4911 H   0  0  0  0  0  0  0  0  0  0  0  0
  1  2  1  0  0  0  0
  2  3  1  0  0  0  0
  2  4  1  0  0  0  0
  2  5  1  0  0  0  0
  5  6  2  0  0  0  0
  5  7  1  0  0  0  0
  7  8  1  0  0  0  0
  7  9  1  0  0  0  0
  9 10  1  0  0  0  0
  9 11  1  0  0  0  0
  9 21  1  0  0  0  0
 11 12  1  0  0  0  0
 11 13  1  0  0  0  0
 11 14  1  0  0  0  0
 14 15  1  0  0  0  0
 14 16  1  0  0  0  0
 14 17  1  0  0  0  0
 17 18  2  0  0  0  0
 17 19  1  0  0  0  0
 19 20  1  0  0  0  0
 21 22  2  0  0  0  0
 21 23  1  0  0  0  0
 23 24  1  0  0  0  0
 23 25  1  0  0  0  0
 25 26  1  0  0  0  0
 25 27  1  0  0  0  0
 25 28  1  0  0  0  0
M  END
$$$$

  -OEChem-01062216073D

 28 27  0     1  0  0  0  0  0999 V2000
   -3.1393   -2.8243    1.4263 H   0  0  0  0  0  0  0  0  0  0  0  0
   -3.1706   -1.8392    0.9522 C   0  0  0  0  0  0  0  0  0  0  0  0
   -3.7115   -1.1526    1.6077 H   0  0  0  0  0  0  0  0  0  0  0  0
   -3.7020   -1.9224    0.0013 H   0  0  0  0  0  0  0  0  0  0  0  0
   -1.7615   -1.3290    0.7161 C   0  0  0  0  0  0  0  0  0  0  0  0
   -0.8091   -2.0528    0.9537 O   0  0  0  0  0  0  0  0  0  0  0  0
   -1.5759   -0.0688    0.1809 N   0  0  0  0  0  0  0  0  0  0  0  0
   -2.4172    0.4942    0.1032 H   0  0  0  0  0  0  0  0  0  0  0  0
   -0.2849    0.6423    0.2377 C   0  0  1  0  0  0  0  0  0  0  0  0
    0.5187   -0.0366    0.5467 H   0  0  0  0  0  0  0  0  0  0  0  0
    0.0592    1.1660   -1.1680 C   0  0  0  0  0  0  0  0  0  0  0  0
   -0.7703    1.7728   -1.5469 H   0  0  0  0  0  0  0  0  0  0  0  0
    0.9464    1.8071   -1.1073 H   0  0  0  0  0  0  0  0  0  0  0  0
    0.3450    0.0147   -2.1554 C   0  0  0  0  0  0  0  0  0  0  0  0
    1.1892   -0.5757   -1.7877 H   0  0  0  0  0  0  0  0  0  0  0  0
   -0.5208   -0.6501   -2.2129 H   0  0  0  0  0  0  0  0  0  0  0  0
    0.6687    0.4891   -3.5727 C   0  0  0  0  0  0  0  0  0  0  0  0
    0.5561    1.6715   -3.8565 O   0  0  0  0  0  0  0  0  0  0  0  0
    1.0690   -0.4529   -4.4565 O   0  0  0  0  0  0  0  0  0  0  0  0
    1.2341    0.0134   -5.2900 H   0  0  0  0  0  0  0  0  0  0  0  0
   -0.3137    1.7725    1.2914 C   0  0  0  0  0  0  0  0  0  0  0  0
   -0.0967    1.5232    2.4675 O   0  0  0  0  0  0  0  0  0  0  0  0
   -0.7092    3.0551    0.9501 N   0  0  0  0  0  0  0  0  0  0  0  0
   -0.8527    3.2556   -0.0349 H   0  0  0  0  0  0  0  0  0  0  0  0
   -0.7725    4.1525    1.9088 C   0  0  0  0  0  0  0  0  0  0  0  0
    0.2190    4.3517    2.3294 H   0  0  0  0  0  0  0  0  0  0  0  0
   -1.1305    5.0632    1.4192 H   0  0  0  0  0  0  0  0  0  0  0  0
   -1.4587    3.9086    2.7268 H   0  0  0  0  0  0  0  0  0  0  0  0
  1  2  1  0  0  0  0
  2  3  1  0  0  0  0
  2  4  1  0  0  0  0
  2  5  1  0  0  0  0
  5  6  2  0  0  0  0
  5  7  1  0  0  0  0
  7  8  1  0  0  0  0
  7  9  1  0  0  0  0
  9 10  1  0  0  0  0
  9 11  1  0  0  0  0
  9 21  1  0  0  0  0
 11 12  1  0  0  0  0
 11 13  1  0  0  0  0
 11 14  1  0  0  0  0
 14 15  1  0  0  0  0
 14 16  1  0  0  0  0
 14 17  1  0  0  0  0
 17 18  2  0  0  0  0
 17 19  1  0  0  0  0
 19 20  1  0  0  0  0
 21 22  2  0  0  0  0
 21 23  1  0  0  0  0
 23 24  1  0  0  0  0
 23 25  1  0  0  0  0
 25 26  1  0  0  0  0
 25 27  1  0  0  0  0
 25 28  1  0  0  0  0
M  END
$$$$

  -OEChem-01062216073D

 28 27  0     1  0  0  0  0  0999 V2000
   -3.1514   -2.8754    1.3742 H   0  0  0  0  0  0  0  0  0  0  0  0
   -3.1783   -1.8914    0.8973 C   0  0  0  0  0  0  0  0  0  0  0  0
   -3.7739   -1.2178    1.5179 H   0  0  0  0  0  0  0  0  0  0  0  0
   -3.6495   -1.9878   -0.0837 H   0  0  0  0  0  0  0  0  0  0  0  0
   -1.7701   -1.3481    0.7454 C   0  0  0  0  0  0  0  0  0  0  0  0
   -0.8187   -2.0429    1.0582 O   0  0  0  0  0  0  0  0  0  0  0  0
   -1.5818   -0.0877    0.2111 N   0  0  0  0  0  0  0  0  0  0  0  0
   -2.4261    0.4530    0.0533 H   0  0  0  0  0  0  0  0  0  0  0  0
   -0.2962    0.6347    0.2658 C   0  0  1  0  0  0  0  0  0  0  0  0
    0.5122   -0.0412    0.5687 H   0  0  0  0  0  0  0  0  0  0  0  0
    0.0415    1.1717   -1.1353 C   0  0  0  0  0  0  0  0  0  0  0  0
   -0.7909    1.7778   -1.5085 H   0  0  0  0  0  0  0  0  0  0  0  0
    0.9237    1.8190   -1.0683 H   0  0  0  0  0  0  0  0  0  0  0  0
    0.3347    0.0291   -2.1307 C   0  0  0  0  0  0  0  0  0  0  0  0
    1.1842   -0.5568   -1.7681 H   0  0  0  0  0  0  0  0  0  0  0  0
   -0.5261   -0.6420   -2.1916 H   0  0  0  0  0  0  0  0  0  0  0  0
    0.6530    0.5138   -3.5456 C   0  0  0  0  0  0  0  0  0  0  0  0
    0.5316    1.6966   -3.8234 O   0  0  0  0  0  0  0  0  0  0  0  0
    1.0553   -0.4215   -4.4356 O   0  0  0  0  0  0  0  0  0  0  0  0
    1.2191    0.0515   -5.2656 H   0  0  0  0  0  0  0  0  0  0  0  0
   -0.3242    1.7686    1.3136 C   0  0  0  0  0  0  0  0  0  0  0  0
    0.2240    1.6285    2.3962 O   0  0  0  0  0  0  0  0  0  0  0  0
   -1.0066    2.9463    1.0586 N   0  0  0  0  0  0  0  0  0  0  0  0
   -1.3859    3.0757    0.1261 H   0  0  0  0  0  0  0  0  0  0  0  0
   -1.0337    4.0671    1.9914 C   0  0  0  0  0  0  0  0  0  0  0  0
   -0.0205    4.4447    2.1662 H   0  0  0  0  0  0  0  0  0  0  0  0
   -1.6423    4.8820    1.5878 H   0  0  0  0  0  0  0  0  0  0  0  0
   -1.4641    3.7579    2.9499 H   0  0  0  0  0  0  0  0  0  0  0  0
  1  2  1  0  0  0  0
  2  3  1  0  0  0  0
  2  4  1  0  0  0  0
  2  5  1  0  0  0  0
  5  6  2  0  0  0  0
  5  7  1  0  0  0  0
  7  8  1  0  0  0  0
  7  9  1  0  0  0  0
  9 10  1  0  0  0  0
  9 11  1  0  0  0  0
  9 21  1  0  0  0  0
 11 12  1  0  0  0  0
 11 13  1  0  0  0  0
 11 14  1  0  0  0  0
 14 15  1  0  0  0  0
 14 16  1  0  0  0  0
 14 17  1  0  0  0  0
 17 18  2  0  0  0  0
 17 19  1  0  0  0  0
 19 20  1  0  0  0  0
 21 22  2  0  0  0  0
 21 23  1  0  0  0  0
 23 24  1  0  0  0  0
 23 25  1  0  0  0  0
 25 26  1  0  0  0  0
 25 27  1  0  0  0  0
 25 28  1  0  0  0  0
M  END
$$$$

  -OEChem-01062216073D

 28 27  0     1  0  0  0  0  0999 V2000
   -3.1586   -2.9407    1.2823 H   0  0  0  0  0  0  0  0  0  0  0  0
   -3.1770   -1.9526    0.8135 C   0  0  0  0  0  0  0  0  0  0  0  0
   -3.8469   -1.3058    1.3851 H   0  0  0  0  0  0  0  0  0  0  0  0
   -3.5580   -2.0544   -0.2055 H   0  0  0  0  0  0  0  0  0  0  0  0
   -1.7801   -1.3615    0.7891 C   0  0  0  0  0  0  0  0  0  0  0  0
   -0.8426   -2.0114    1.2169 O   0  0  0  0  0  0  0  0  0  0  0  0
   -1.5829   -0.1031    0.2538 N   0  0  0  0  0  0  0  0  0  0  0  0
   -2.4142    0.3924   -0.0503 H   0  0  0  0  0  0  0  0  0  0  0  0
   -0.2991    0.6249    0.3037 C   0  0  1  0  0  0  0  0  0  0  0  0
    0.5129   -0.0512    0.5974 H   0  0  0  0  0  0  0  0  0  0  0  0
    0.0245    1.1740   -1.0953 C   0  0  0  0  0  0  0  0  0  0  0  0
   -0.8100    1.7849   -1.4552 H   0  0  0  0  0  0  0  0  0  0  0  0
    0.9064    1.8222   -1.0297 H   0  0  0  0  0  0  0  0  0  0  0  0
    0.3137    0.0392   -2.1008 C   0  0  0  0  0  0  0  0  0  0  0  0
    1.1690   -0.5445   -1.7485 H   0  0  0  0  0  0  0  0  0  0  0  0
   -0.5443   -0.6356   -2.1588 H   0  0  0  0  0  0  0  0  0  0  0  0
    0.6184    0.5323   -3.5156 C   0  0  0  0  0  0  0  0  0  0  0  0
    0.4911    1.7155   -3.7875 O   0  0  0  0  0  0  0  0  0  0  0  0
    1.0128   -0.3988   -4.4134 O   0  0  0  0  0  0  0  0  0  0  0  0
    1.1697    0.0785   -5.2422 H   0  0  0  0  0  0  0  0  0  0  0  0
   -0.3148    1.7657    1.3433 C   0  0  0  0  0  0  0  0  0  0  0  0
    0.5112    1.7977    2.2430 O   0  0  0  0  0  0  0  0  0  0  0  0
   -1.2281    2.8011    1.2365 N   0  0  0  0  0  0  0  0  0  0  0  0
   -1.8362    2.8093    0.4251 H   0  0  0  0  0  0  0  0  0  0  0  0
   -1.2371    3.9488    2.1363 C   0  0  0  0  0  0  0  0  0  0  0  0
   -0.2871    4.4907    2.0763 H   0  0  0  0  0  0  0  0  0  0  0  0
   -2.0450    4.6360    1.8671 H   0  0  0  0  0  0  0  0  0  0  0  0
   -1.3920    3.6234    3.1705 H   0  0  0  0  0  0  0  0  0  0  0  0
  1  2  1  0  0  0  0
  2  3  1  0  0  0  0
  2  4  1  0  0  0  0
  2  5  1  0  0  0  0
  5  6  2  0  0  0  0
  5  7  1  0  0  0  0
  7  8  1  0  0  0  0
  7  9  1  0  0  0  0
  9 10  1  0  0  0  0
  9 11  1  0  0  0  0
  9 21  1  0  0  0  0
 11 12  1  0  0  0  0
 11 13  1  0  0  0  0
 11 14  1  0  0  0  0
 14 15  1  0  0  0  0
 14 16  1  0  0  0  0
 14 17  1  0  0  0  0
 17 18  2  0  0  0  0
 17 19  1  0  0  0  0
 19 20  1  0  0  0  0
 21 22  2  0  0  0  0
 21 23  1  0  0  0  0
 23 24  1  0  0  0  0
 23 25  1  0  0  0  0
 25 26  1  0  0  0  0
 25 27  1  0  0  0  0
 25 28  1  0  0  0  0
M  END
$$$$

  -OEChem-01062216073D

 28 27  0     1  0  0  0  0  0999 V2000
   -3.1214   -3.0074    1.1383 H   0  0  0  0  0  0  0  0  0  0  0  0
   -3.1429   -2.0158    0.6771 C   0  0  0  0  0  0  0  0  0  0  0  0
   -3.9320   -1.4260    1.1494 H   0  0  0  0  0  0  0  0  0  0  0  0
   -3.3655   -2.1291   -0.3866 H   0  0  0  0  0  0  0  0  0  0  0  0
   -1.8029   -1.3283    0.8586 C   0  0  0  0  0  0  0  0  0  0  0  0
   -0.9173   -1.8852    1.4825 O   0  0  0  0  0  0  0  0  0  0  0  0
   -1.5983   -0.0776    0.3087 N   0  0  0  0  0  0  0  0  0  0  0  0
   -2.3420    0.2865   -0.2780 H   0  0  0  0  0  0  0  0  0  0  0  0
   -0.3060    0.6373    0.3393 C   0  0  1  0  0  0  0  0  0  0  0  0
    0.5001   -0.0485    0.6265 H   0  0  0  0  0  0  0  0  0  0  0  0
    0.0061    1.1768   -1.0660 C   0  0  0  0  0  0  0  0  0  0  0  0
   -0.8244    1.8001   -1.4145 H   0  0  0  0  0  0  0  0  0  0  0  0
    0.8966    1.8147   -1.0135 H   0  0  0  0  0  0  0  0  0  0  0  0
    0.2711    0.0354   -2.0711 C   0  0  0  0  0  0  0  0  0  0  0  0
    1.1253   -0.5548   -1.7266 H   0  0  0  0  0  0  0  0  0  0  0  0
   -0.5943   -0.6303   -2.1163 H   0  0  0  0  0  0  0  0  0  0  0  0
    0.5638    0.5170   -3.4926 C   0  0  0  0  0  0  0  0  0  0  0  0
    0.4464    1.6993   -3.7711 O   0  0  0  0  0  0  0  0  0  0  0  0
    0.9357   -0.4249   -4.3890 O   0  0  0  0  0  0  0  0  0  0  0  0
    1.0927    0.0462   -5.2216 H   0  0  0  0  0  0  0  0  0  0  0  0
   -0.2834    1.7904    1.3644 C   0  0  0  0  0  0  0  0  0  0  0  0
    0.7366    2.0307    1.9939 O   0  0  0  0  0  0  0  0  0  0  0  0
   -1.3488    2.6687    1.4588 N   0  0  0  0  0  0  0  0  0  0  0  0
   -2.1929    2.4314    0.9502 H   0  0  0  0  0  0  0  0  0  0  0  0
   -1.3666    3.8064    2.3708 C   0  0  0  0  0  0  0  0  0  0  0  0
   -0.5296    4.4804    2.1593 H   0  0  0  0  0  0  0  0  0  0  0  0
   -2.2985    4.3686    2.2576 H   0  0  0  0  0  0  0  0  0  0  0  0
   -1.2904    3.4658    3.4088 H   0  0  0  0  0  0  0  0  0  0  0  0
  1  2  1  0  0  0  0
  2  3  1  0  0  0  0
  2  4  1  0  0  0  0
  2  5  1  0  0  0  0
  5  6  2  0  0  0  0
  5  7  1  0  0  0  0
  7  8  1  0  0  0  0
  7  9  1  0  0  0  0
  9 10  1  0  0  0  0
  9 11  1  0  0  0  0
  9 21  1  0  0  0  0
 11 12  1  0  0  0  0
 11 13  1  0  0  0  0
 11 14  1  0  0  0  0
 14 15  1  0  0  0  0
 14 16  1  0  0  0  0
 14 17  1  0  0  0  0
 17 18  2  0  0  0  0
 17 19  1  0  0  0  0
 19 20  1  0  0  0  0
 21 22  2  0  0  0  0
 21 23  1  0  0  0  0
 23 24  1  0  0  0  0
 23 25  1  0  0  0  0
 25 26  1  0  0  0  0
 25 27  1  0  0  0  0
 25 28  1  0  0  0  0
M  END
$$$$

  -OEChem-01062216073D

 28 27  0     1  0  0  0  0  0999 V2000
   -3.1009   -3.0297    1.0722 H   0  0  0  0  0  0  0  0  0  0  0  0
   -3.1232   -2.0371    0.6130 C   0  0  0  0  0  0  0  0  0  0  0  0
   -3.9538   -1.4707    1.0408 H   0  0  0  0  0  0  0  0  0  0  0  0
   -3.2824   -2.1518   -0.4619 H   0  0  0  0  0  0  0  0  0  0  0  0
   -1.8149   -1.3141    0.8712 C   0  0  0  0  0  0  0  0  0  0  0  0
   -0.9595   -1.8362    1.5635 O   0  0  0  0  0  0  0  0  0  0  0  0
   -1.6053   -0.0653    0.3196 N   0  0  0  0  0  0  0  0  0  0  0  0
   -2.3093    0.2609   -0.3353 H   0  0  0  0  0  0  0  0  0  0  0  0
   -0.3076    0.6404    0.3536 C   0  0  1  0  0  0  0  0  0  0  0  0
    0.4942   -0.0500    0.6407 H   0  0  0  0  0  0  0  0  0  0  0  0
    0.0005    1.1768   -1.0543 C   0  0  0  0  0  0  0  0  0  0  0  0
   -0.8284    1.8053   -1.3974 H   0  0  0  0  0  0  0  0  0  0  0  0
    0.8947    1.8099   -1.0083 H   0  0  0  0  0  0  0  0  0  0  0  0
    0.2542    0.0333   -2.0601 C   0  0  0  0  0  0  0  0  0  0  0  0
    1.1078   -0.5602   -1.7197 H   0  0  0  0  0  0  0  0  0  0  0  0
   -0.6134   -0.6293   -2.1007 H   0  0  0  0  0  0  0  0  0  0  0  0
    0.5422    0.5108   -3.4840 C   0  0  0  0  0  0  0  0  0  0  0  0
    0.4303    1.6927   -3.7657 O   0  0  0  0  0  0  0  0  0  0  0  0
    0.8996   -0.4366   -4.3803 O   0  0  0  0  0  0  0  0  0  0  0  0
    1.0534    0.0315   -5.2152 H   0  0  0  0  0  0  0  0  0  0  0  0
   -0.2728    1.7953    1.3767 C   0  0  0  0  0  0  0  0  0  0  0  0
    0.8001    2.2123    1.7893 O   0  0  0  0  0  0  0  0  0  0  0  0
   -1.4271    2.4896    1.6915 N   0  0  0  0  0  0  0  0  0  0  0  0
   -2.3030    2.0636    1.4091 H   0  0  0  0  0  0  0  0  0  0  0  0
   -1.4533    3.6041    2.6312 C   0  0  0  0  0  0  0  0  0  0  0  0
   -0.7818    4.4028    2.2985 H   0  0  0  0  0  0  0  0  0  0  0  0
   -2.4649    4.0146    2.7043 H   0  0  0  0  0  0  0  0  0  0  0  0
   -1.1392    3.2731    3.6266 H   0  0  0  0  0  0  0  0  0  0  0  0
  1  2  1  0  0  0  0
  2  3  1  0  0  0  0
  2  4  1  0  0  0  0
  2  5  1  0  0  0  0
  5  6  2  0  0  0  0
  5  7  1  0  0  0  0
  7  8  1  0  0  0  0
  7  9  1  0  0  0  0
  9 10  1  0  0  0  0
  9 11  1  0  0  0  0
  9 21  1  0  0  0  0
 11 12  1  0  0  0  0
 11 13  1  0  0  0  0
 11 14  1  0  0  0  0
 14 15  1  0  0  0  0
 14 16  1  0  0  0  0
 14 17  1  0  0  0  0
 17 18  2  0  0  0  0
 17 19  1  0  0  0  0
 19 20  1  0  0  0  0
 21 22  2  0  0  0  0
 21 23  1  0  0  0  0
 23 24  1  0  0  0  0
 23 25  1  0  0  0  0
 25 26  1  0  0  0  0
 25 27  1  0  0  0  0
 25 28  1  0  0  0  0
M  END
$$$$

  -OEChem-01062216073D

 28 27  0     1  0  0  0  0  0999 V2000
   -3.0893   -3.0351    1.0330 H   0  0  0  0  0  0  0  0  0  0  0  0
   -3.1156   -2.0386    0.5825 C   0  0  0  0  0  0  0  0  0  0  0  0
   -3.9583   -1.4849    1.0031 H   0  0  0  0  0  0  0  0  0  0  0  0
   -3.2586   -2.1456   -0.4955 H   0  0  0  0  0  0  0  0  0  0  0  0
   -1.8182   -1.3048    0.8646 C   0  0  0  0  0  0  0  0  0  0  0  0
   -0.9741   -1.8155    1.5790 O   0  0  0  0  0  0  0  0  0  0  0  0
   -1.6050   -0.0553    0.3168 N   0  0  0  0  0  0  0  0  0  0  0  0
   -2.3031    0.2734   -0.3440 H   0  0  0  0  0  0  0  0  0  0  0  0
   -0.3051    0.6479    0.3555 C   0  0  1  0  0  0  0  0  0  0  0  0
    0.4957   -0.0437    0.6423 H   0  0  0  0  0  0  0  0  0  0  0  0
   -0.0004    1.1785   -1.0568 C   0  0  0  0  0  0  0  0  0  0  0  0
   -0.8295    1.8069   -1.4000 H   0  0  0  0  0  0  0  0  0  0  0  0
    0.8947    1.8111   -1.0189 H   0  0  0  0  0  0  0  0  0  0  0  0
    0.2499    0.0297   -2.0582 C   0  0  0  0  0  0  0  0  0  0  0  0
    1.1046   -0.5620   -1.7177 H   0  0  0  0  0  0  0  0  0  0  0  0
   -0.6179   -0.6331   -2.0939 H   0  0  0  0  0  0  0  0  0  0  0  0
    0.5341    0.5006   -3.4849 C   0  0  0  0  0  0  0  0  0  0  0  0
    0.4224    1.6810   -3.7725 O   0  0  0  0  0  0  0  0  0  0  0  0
    0.8848   -0.4520   -4.3783 O   0  0  0  0  0  0  0  0  0  0  0  0
    1.0340    0.0121   -5.2162 H   0  0  0  0  0  0  0  0  0  0  0  0
   -0.2680    1.8015    1.3822 C   0  0  0  0  0  0  0  0  0  0  0  0
    0.7863    2.3729    1.6230 O   0  0  0  0  0  0  0  0  0  0  0  0
   -1.4383    2.2947    1.9300 N   0  0  0  0  0  0  0  0  0  0  0  0
   -2.2682    1.7259    1.7992 H   0  0  0  0  0  0  0  0  0  0  0  0
   -1.4645    3.3696    2.9148 C   0  0  0  0  0  0  0  0  0  0  0  0
   -0.9986    4.2736    2.5083 H   0  0  0  0  0  0  0  0  0  0  0  0
   -2.4968    3.6085    3.1878 H   0  0  0  0  0  0  0  0  0  0  0  0
   -0.9248    3.0728    3.8204 H   0  0  0  0  0  0  0  0  0  0  0  0
  1  2  1  0  0  0  0
  2  3  1  0  0  0  0
  2  4  1  0  0  0  0
  2  5  1  0  0  0  0
  5  6  2  0  0  0  0
  5  7  1  0  0  0  0
  7  8  1  0  0  0  0
  7  9  1  0  0  0  0
  9 10  1  0  0  0  0
  9 11  1  0  0  0  0
  9 21  1  0  0  0  0
 11 12  1  0  0  0  0
 11 13  1  0  0  0  0
 11 14  1  0  0  0  0
 14 15  1  0  0  0  0
 14 16  1  0  0  0  0
 14 17  1  0  0  0  0
 17 18  2  0  0  0  0
 17 19  1  0  0  0  0
 19 20  1  0  0  0  0
 21 22  2  0  0  0  0
 21 23  1  0  0  0  0
 23 24  1  0  0  0  0
 23 25  1  0  0  0  0
 25 26  1  0  0  0  0
 25 27  1  0  0  0  0
 25 28  1  0  0  0  0
M  END
$$$$

  -OEChem-01062216073D

 28 27  0     1  0  0  0  0  0999 V2000
   -3.0955   -3.0181    1.0319 H   0  0  0  0  0  0  0  0  0  0  0  0
   -3.1199   -2.0212    0.5823 C   0  0  0  0  0  0  0  0  0  0  0  0
   -3.9556   -1.4627    1.0105 H   0  0  0  0  0  0  0  0  0  0  0  0
   -3.2732   -2.1268   -0.4944 H   0  0  0  0  0  0  0  0  0  0  0  0
   -1.8156   -1.2956    0.8535 C   0  0  0  0  0  0  0  0  0  0  0  0
   -0.9741   -1.8035    1.5730 O   0  0  0  0  0  0  0  0  0  0  0  0
   -1.5996   -0.0451    0.3098 N   0  0  0  0  0  0  0  0  0  0  0  0
   -2.3087    0.3024   -0.3297 H   0  0  0  0  0  0  0  0  0  0  0  0
   -0.2997    0.6583    0.3487 C   0  0  1  0  0  0  0  0  0  0  0  0
    0.5010   -0.0322    0.6371 H   0  0  0  0  0  0  0  0  0  0  0  0
    0.0033    1.1816   -1.0685 C   0  0  0  0  0  0  0  0  0  0  0  0
   -0.8270    1.8075   -1.4132 H   0  0  0  0  0  0  0  0  0  0  0  0
    0.8983    1.8144   -1.0386 H   0  0  0  0  0  0  0  0  0  0  0  0
    0.2535    0.0281   -2.0646 C   0  0  0  0  0  0  0  0  0  0  0  0
    1.1088   -0.5612   -1.7220 H   0  0  0  0  0  0  0  0  0  0  0  0
   -0.6142   -0.6351   -2.0960 H   0  0  0  0  0  0  0  0  0  0  0  0
    0.5357    0.4922   -3.4941 C   0  0  0  0  0  0  0  0  0  0  0  0
    0.4227    1.6707   -3.7879 O   0  0  0  0  0  0  0  0  0  0  0  0
    0.8883   -0.4642   -4.3826 O   0  0  0  0  0  0  0  0  0  0  0  0
    1.0367   -0.0031   -5.2225 H   0  0  0  0  0  0  0  0  0  0  0  0
   -0.2682    1.8092    1.3813 C   0  0  0  0  0  0  0  0  0  0  0  0
    0.7132    2.5341    1.4716 O   0  0  0  0  0  0  0  0  0  0  0  0
   -1.3805    2.0905    2.1534 N   0  0  0  0  0  0  0  0  0  0  0  0
   -2.1153    1.3901    2.1456 H   0  0  0  0  0  0  0  0  0  0  0  0
   -1.3923    3.1162    3.1895 C   0  0  0  0  0  0  0  0  0  0  0  0
   -1.1639    4.0974    2.7602 H   0  0  0  0  0  0  0  0  0  0  0  0
   -2.3788    3.1679    3.6602 H   0  0  0  0  0  0  0  0  0  0  0  0
   -0.6498    2.8889    3.9616 H   0  0  0  0  0  0  0  0  0  0  0  0
  1  2  1  0  0  0  0
  2  3  1  0  0  0  0
  2  4  1  0  0  0  0
  2  5  1  0  0  0  0
  5  6  2  0  0  0  0
  5  7  1  0  0  0  0
  7  8  1  0  0  0  0
  7  9  1  0  0  0  0
  9 10  1  0  0  0  0
  9 11  1  0  0  0  0
  9 21  1  0  0  0  0
 11 12  1  0  0  0  0
 11 13  1  0  0  0  0
 11 14  1  0  0  0  0
 14 15  1  0  0  0  0
 14 16  1  0  0  0  0
 14 17  1  0  0  0  0
 17 18  2  0  0  0  0
 17 19  1  0  0  0  0
 19 20  1  0  0  0  0
 21 22  2  0  0  0  0
 21 23  1  0  0  0  0
 23 24  1  0  0  0  0
 23 25  1  0  0  0  0
 25 26  1  0  0  0  0
 25 27  1  0  0  0  0
 25 28  1  0  0  0  0
M  END
$$$$

  -OEChem-01062216073D

 28 27  0     1  0  0  0  0  0999 V2000
   -3.1041   -2.9967    1.0318 H   0  0  0  0  0  0  0  0  0  0  0  0
   -3.1237   -2.0004    0.5804 C   0  0  0  0  0  0  0  0  0  0  0  0
   -3.9546   -1.4356    1.0098 H   0  0  0  0  0  0  0  0  0  0  0  0
   -3.2812   -2.1064   -0.4957 H   0  0  0  0  0  0  0  0  0  0  0  0
   -1.8139   -1.2825    0.8449 C   0  0  0  0  0  0  0  0  0  0  0  0
   -0.9744   -1.7892    1.5677 O   0  0  0  0  0  0  0  0  0  0  0  0
   -1.5952   -0.0299    0.3087 N   0  0  0  0  0  0  0  0  0  0  0  0
   -2.3179    0.3387   -0.3035 H   0  0  0  0  0  0  0  0  0  0  0  0
   -0.2946    0.6720    0.3434 C   0  0  1  0  0  0  0  0  0  0  0  0
    0.5056   -0.0191    0.6305 H   0  0  0  0  0  0  0  0  0  0  0  0
    0.0065    1.1870   -1.0789 C   0  0  0  0  0  0  0  0  0  0  0  0
   -0.8236    1.8120   -1.4254 H   0  0  0  0  0  0  0  0  0  0  0  0
    0.9028    1.8181   -1.0568 H   0  0  0  0  0  0  0  0  0  0  0  0
    0.2540    0.0269   -2.0687 C   0  0  0  0  0  0  0  0  0  0  0  0
    1.1090   -0.5618   -1.7243 H   0  0  0  0  0  0  0  0  0  0  0  0
   -0.6144   -0.6355   -2.0949 H   0  0  0  0  0  0  0  0  0  0  0  0
    0.5342    0.4822   -3.5015 C   0  0  0  0  0  0  0  0  0  0  0  0
    0.4218    1.6590   -3.8024 O   0  0  0  0  0  0  0  0  0  0  0  0
    0.8899   -0.4791   -4.3837 O   0  0  0  0  0  0  0  0  0  0  0  0
    1.0396   -0.0221   -5.2255 H   0  0  0  0  0  0  0  0  0  0  0  0
   -0.2675    1.8153    1.3868 C   0  0  0  0  0  0  0  0  0  0  0  0
    0.5830    2.6937    1.3373 O   0  0  0  0  0  0  0  0  0  0  0  0
   -1.2442    1.8882    2.3630 N   0  0  0  0  0  0  0  0  0  0  0  0
   -1.8366    1.0685    2.4585 H   0  0  0  0  0  0  0  0  0  0  0  0
   -1.2317    2.8792    3.4322 C   0  0  0  0  0  0  0  0  0  0  0  0
   -1.2613    3.8920    3.0165 H   0  0  0  0  0  0  0  0  0  0  0  0
   -2.1033    2.7481    4.0805 H   0  0  0  0  0  0  0  0  0  0  0  0
   -0.3271    2.7749    4.0407 H   0  0  0  0  0  0  0  0  0  0  0  0
  1  2  1  0  0  0  0
  2  3  1  0  0  0  0
  2  4  1  0  0  0  0
  2  5  1  0  0  0  0
  5  6  2  0  0  0  0
  5  7  1  0  0  0  0
  7  8  1  0  0  0  0
  7  9  1  0  0  0  0
  9 10  1  0  0  0  0
  9 11  1  0  0  0  0
  9 21  1  0  0  0  0
 11 12  1  0  0  0  0
 11 13  1  0  0  0  0
 11 14  1  0  0  0  0
 14 15  1  0  0  0  0
 14 16  1  0  0  0  0
 14 17  1  0  0  0  0
 17 18  2  0  0  0  0
 17 19  1  0  0  0  0
 19 20  1  0  0  0  0
 21 22  2  0  0  0  0
 21 23  1  0  0  0  0
 23 24  1  0  0  0  0
 23 25  1  0  0  0  0
 25 26  1  0  0  0  0
 25 27  1  0  0  0  0
 25 28  1  0  0  0  0
M  END
$$$$

  -OEChem-01062216073D

 28 27  0     1  0  0  0  0  0999 V2000
   -3.1151   -2.9652    1.0496 H   0  0  0  0  0  0  0  0  0  0  0  0
   -3.1284   -1.9705    0.5949 C   0  0  0  0  0  0  0  0  0  0  0  0
   -3.9492   -1.3952    1.0303 H   0  0  0  0  0  0  0  0  0  0  0  0
   -3.2970   -2.0780   -0.4793 H   0  0  0  0  0  0  0  0  0  0  0  0
   -1.8090   -1.2653    0.8453 C   0  0  0  0  0  0  0  0  0  0  0  0
   -0.9715   -1.7702    1.5726 O   0  0  0  0  0  0  0  0  0  0  0  0
   -1.5848   -0.0126    0.3138 N   0  0  0  0  0  0  0  0  0  0  0  0
   -2.3187    0.3762   -0.2721 H   0  0  0  0  0  0  0  0  0  0  0  0
   -0.2806    0.6807    0.3383 C   0  0  1  0  0  0  0  0  0  0  0  0
    0.5178   -0.0143    0.6208 H   0  0  0  0  0  0  0  0  0  0  0  0
    0.0197    1.1923   -1.0858 C   0  0  0  0  0  0  0  0  0  0  0  0
   -0.8066    1.8238   -1.4301 H   0  0  0  0  0  0  0  0  0  0  0  0
    0.9210    1.8160   -1.0674 H   0  0  0  0  0  0  0  0  0  0  0  0
    0.2553    0.0287   -2.0741 C   0  0  0  0  0  0  0  0  0  0  0  0
    1.1064   -0.5666   -1.7312 H   0  0  0  0  0  0  0  0  0  0  0  0
   -0.6191   -0.6259   -2.0959 H   0  0  0  0  0  0  0  0  0  0  0  0
    0.5343    0.4773   -3.5092 C   0  0  0  0  0  0  0  0  0  0  0  0
    0.4304    1.6537   -3.8144 O   0  0  0  0  0  0  0  0  0  0  0  0
    0.8801   -0.4903   -4.3885 O   0  0  0  0  0  0  0  0  0  0  0  0
    1.0275   -0.0379   -5.2332 H   0  0  0  0  0  0  0  0  0  0  0  0
   -0.2576    1.8137    1.3931 C   0  0  0  0  0  0  0  0  0  0  0  0
    0.3958    2.8348    1.2246 O   0  0  0  0  0  0  0  0  0  0  0  0
   -1.0308    1.6966    2.5332 N   0  0  0  0  0  0  0  0  0  0  0  0
   -1.4408    0.7805    2.6989 H   0  0  0  0  0  0  0  0  0  0  0  0
   -1.0097    2.6695    3.6185 C   0  0  0  0  0  0  0  0  0  0  0  0
   -1.3086    3.6577    3.2529 H   0  0  0  0  0  0  0  0  0  0  0  0
   -1.7051    2.3701    4.4086 H   0  0  0  0  0  0  0  0  0  0  0  0
   -0.0051    2.7421    4.0485 H   0  0  0  0  0  0  0  0  0  0  0  0
  1  2  1  0  0  0  0
  2  3  1  0  0  0  0
  2  4  1  0  0  0  0
  2  5  1  0  0  0  0
  5  6  2  0  0  0  0
  5  7  1  0  0  0  0
  7  8  1  0  0  0  0
  7  9  1  0  0  0  0
  9 10  1  0  0  0  0
  9 11  1  0  0  0  0
  9 21  1  0  0  0  0
 11 12  1  0  0  0  0
 11 13  1  0  0  0  0
 11 14  1  0  0  0  0
 14 15  1  0  0  0  0
 14 16  1  0  0  0  0
 14 17  1  0  0  0  0
 17 18  2  0  0  0  0
 17 19  1  0  0  0  0
 19 20  1  0  0  0  0
 21 22  2  0  0  0  0
 21 23  1  0  0  0  0
 23 24  1  0  0  0  0
 23 25  1  0  0  0  0
 25 26  1  0  0  0  0
 25 27  1  0  0  0  0
 25 28  1  0  0  0  0
M  END
$$$$

  -OEChem-01062216073D

 28 27  0     1  0  0  0  0  0999 V2000
   -3.1181   -2.9374    1.0811 H   0  0  0  0  0  0  0  0  0  0  0  0
   -3.1222   -1.9513    0.6079 C   0  0  0  0  0  0  0  0  0  0  0  0
   -3.9462   -1.3651    1.0219 H   0  0  0  0  0  0  0  0  0  0  0  0
   -3.2774   -2.0787   -0.4662 H   0  0  0  0  0  0  0  0  0  0  0  0
   -1.8045   -1.2449    0.8617 C   0  0  0  0  0  0  0  0  0  0  0  0
   -0.9719   -1.7408    1.6023 O   0  0  0  0  0  0  0  0  0  0  0  0
   -1.5758    0.0042    0.3252 N   0  0  0  0  0  0  0  0  0  0  0  0
   -2.3091    0.3966   -0.2590 H   0  0  0  0  0  0  0  0  0  0  0  0
   -0.2651    0.6821    0.3384 C   0  0  1  0  0  0  0  0  0  0  0  0
    0.5302   -0.0183    0.6162 H   0  0  0  0  0  0  0  0  0  0  0  0
    0.0332    1.1928   -1.0858 C   0  0  0  0  0  0  0  0  0  0  0  0
   -0.7885    1.8341   -1.4238 H   0  0  0  0  0  0  0  0  0  0  0  0
    0.9409    1.8074   -1.0680 H   0  0  0  0  0  0  0  0  0  0  0  0
    0.2491    0.0289   -2.0779 C   0  0  0  0  0  0  0  0  0  0  0  0
    1.0939   -0.5784   -1.7411 H   0  0  0  0  0  0  0  0  0  0  0  0
   -0.6342   -0.6138   -2.0971 H   0  0  0  0  0  0  0  0  0  0  0  0
    0.5258    0.4778   -3.5133 C   0  0  0  0  0  0  0  0  0  0  0  0
    0.4347    1.6559   -3.8155 O   0  0  0  0  0  0  0  0  0  0  0  0
    0.8575   -0.4917   -4.3959 O   0  0  0  0  0  0  0  0  0  0  0  0
    1.0076   -0.0395   -5.2403 H   0  0  0  0  0  0  0  0  0  0  0  0
   -0.2404    1.8100    1.3960 C   0  0  0  0  0  0  0  0  0  0  0  0
    0.1888    2.9286    1.1455 O   0  0  0  0  0  0  0  0  0  0  0  0
   -0.7554    1.5537    2.6524 N   0  0  0  0  0  0  0  0  0  0  0  0
   -1.0076    0.5861    2.8464 H   0  0  0  0  0  0  0  0  0  0  0  0
   -0.7270    2.5170    3.7454 C   0  0  0  0  0  0  0  0  0  0  0  0
   -1.2682    3.4275    3.4671 H   0  0  0  0  0  0  0  0  0  0  0  0
   -1.2003    2.0930    4.6362 H   0  0  0  0  0  0  0  0  0  0  0  0
    0.3057    2.7833    3.9941 H   0  0  0  0  0  0  0  0  0  0  0  0
  1  2  1  0  0  0  0
  2  3  1  0  0  0  0
  2  4  1  0  0  0  0
  2  5  1  0  0  0  0
  5  6  2  0  0  0  0
  5  7  1  0  0  0  0
  7  8  1  0  0  0  0
  7  9  1  0  0  0  0
  9 10  1  0  0  0  0
  9 11  1  0  0  0  0
  9 21  1  0  0  0  0
 11 12  1  0  0  0  0
 11 13  1  0  0  0  0
 11 14  1  0  0  0  0
 14 15  1  0  0  0  0
 14 16  1  0  0  0  0
 14 17  1  0  0  0  0
 17 18  2  0  0  0  0
 17 19  1  0  0  0  0
 19 20  1  0  0  0  0
 21 22  2  0  0  0  0
 21 23  1  0  0  0  0
 23 24  1  0  0  0  0
 23 25  1  0  0  0  0
 25 26  1  0  0  0  0
 25 27  1  0  0  0  0
 25 28  1  0  0  0  0
M  END
$$$$

  -OEChem-01062216073D

 28 27  0     1  0  0  0  0  0999 V2000
   -3.1226   -2.9057    1.1231 H   0  0  0  0  0  0  0  0  0  0  0  0
   -3.1242   -1.9166    0.6564 C   0  0  0  0  0  0  0  0  0  0  0  0
   -3.9212   -1.3172    1.1032 H   0  0  0  0  0  0  0  0  0  0  0  0
   -3.3199   -2.0334   -0.4122 H   0  0  0  0  0  0  0  0  0  0  0  0
   -1.7846   -1.2375    0.8675 C   0  0  0  0  0  0  0  0  0  0  0  0
   -0.9342   -1.7566    1.5723 O   0  0  0  0  0  0  0  0  0  0  0  0
   -1.5500    0.0094    0.3284 N   0  0  0  0  0  0  0  0  0  0  0  0
   -2.3001    0.4320   -0.2123 H   0  0  0  0  0  0  0  0  0  0  0  0
   -0.2353    0.6754    0.3318 C   0  0  1  0  0  0  0  0  0  0  0  0
    0.5594   -0.0287    0.6012 H   0  0  0  0  0  0  0  0  0  0  0  0
    0.0579    1.1903   -1.0913 C   0  0  0  0  0  0  0  0  0  0  0  0
   -0.7612    1.8387   -1.4220 H   0  0  0  0  0  0  0  0  0  0  0  0
    0.9692    1.7994   -1.0739 H   0  0  0  0  0  0  0  0  0  0  0  0
    0.2568    0.0290   -2.0900 C   0  0  0  0  0  0  0  0  0  0  0  0
    1.0992   -0.5865   -1.7616 H   0  0  0  0  0  0  0  0  0  0  0  0
   -0.6324   -0.6059   -2.1049 H   0  0  0  0  0  0  0  0  0  0  0  0
    0.5276    0.4808   -3.5255 C   0  0  0  0  0  0  0  0  0  0  0  0
    0.4450    1.6607   -3.8227 O   0  0  0  0  0  0  0  0  0  0  0  0
    0.8425   -0.4886   -4.4143 O   0  0  0  0  0  0  0  0  0  0  0  0
    0.9850   -0.0350   -5.2592 H   0  0  0  0  0  0  0  0  0  0  0  0
   -0.2091    1.7986    1.3913 C   0  0  0  0  0  0  0  0  0  0  0  0
   -0.0359    2.9737    1.0947 O   0  0  0  0  0  0  0  0  0  0  0  0
   -0.4258    1.4580    2.7125 N   0  0  0  0  0  0  0  0  0  0  0  0
   -0.5617    0.4681    2.9136 H   0  0  0  0  0  0  0  0  0  0  0  0
   -0.4349    2.4211    3.8059 C   0  0  0  0  0  0  0  0  0  0  0  0
   -1.2180    3.1705    3.6496 H   0  0  0  0  0  0  0  0  0  0  0  0
   -0.6271    1.9132    4.7559 H   0  0  0  0  0  0  0  0  0  0  0  0
    0.5318    2.9310    3.8752 H   0  0  0  0  0  0  0  0  0  0  0  0
  1  2  1  0  0  0  0
  2  3  1  0  0  0  0
  2  4  1  0  0  0  0
  2  5  1  0  0  0  0
  5  6  2  0  0  0  0
  5  7  1  0  0  0  0
  7  8  1  0  0  0  0
  7  9  1  0  0  0  0
  9 10  1  0  0  0  0
  9 11  1  0  0  0  0
  9 21  1  0  0  0  0
 11 12  1  0  0  0  0
 11 13  1  0  0  0  0
 11 14  1  0  0  0  0
 14 15  1  0  0  0  0
 14 16  1  0  0  0  0
 14 17  1  0  0  0  0
 17 18  2  0  0  0  0
 17 19  1  0  0  0  0
 19 20  1  0  0  0  0
 21 22  2  0  0  0  0
 21 23  1  0  0  0  0
 23 24  1  0  0  0  0
 23 25  1  0  0  0  0
 25 26  1  0  0  0  0
 25 27  1  0  0  0  0
 25 28  1  0  0  0  0
M  END
$$$$

  -OEChem-01062216073D

 28 27  0     1  0  0  0  0  0999 V2000
   -3.1325   -2.8744    1.1903 H   0  0  0  0  0  0  0  0  0  0  0  0
   -3.1307   -1.8863    0.7212 C   0  0  0  0  0  0  0  0  0  0  0  0
   -3.8846   -1.2634    1.2090 H   0  0  0  0  0  0  0  0  0  0  0  0
   -3.3874   -1.9986   -0.3350 H   0  0  0  0  0  0  0  0  0  0  0  0
   -1.7627   -1.2460    0.8579 C   0  0  0  0  0  0  0  0  0  0  0  0
   -0.8846   -1.8005    1.4995 O   0  0  0  0  0  0  0  0  0  0  0  0
   -1.5273    0.0007    0.3179 N   0  0  0  0  0  0  0  0  0  0  0  0
   -2.3020    0.4652   -0.1487 H   0  0  0  0  0  0  0  0  0  0  0  0
   -0.2137    0.6655    0.3183 C   0  0  1  0  0  0  0  0  0  0  0  0
    0.5838   -0.0377    0.5811 H   0  0  0  0  0  0  0  0  0  0  0  0
    0.0760    1.1887   -1.1024 C   0  0  0  0  0  0  0  0  0  0  0  0
   -0.7463    1.8356   -1.4283 H   0  0  0  0  0  0  0  0  0  0  0  0
    0.9848    1.8013   -1.0822 H   0  0  0  0  0  0  0  0  0  0  0  0
    0.2713    0.0324   -2.1077 C   0  0  0  0  0  0  0  0  0  0  0  0
    1.1132   -0.5859   -1.7844 H   0  0  0  0  0  0  0  0  0  0  0  0
   -0.6185   -0.6014   -2.1226 H   0  0  0  0  0  0  0  0  0  0  0  0
    0.5390    0.4888   -3.5422 C   0  0  0  0  0  0  0  0  0  0  0  0
    0.4572    1.6699   -3.8350 O   0  0  0  0  0  0  0  0  0  0  0  0
    0.8504   -0.4780   -4.4354 O   0  0  0  0  0  0  0  0  0  0  0  0
    0.9895   -0.0223   -5.2797 H   0  0  0  0  0  0  0  0  0  0  0  0
   -0.1906    1.7874    1.3772 C   0  0  0  0  0  0  0  0  0  0  0  0
   -0.2875    2.9694    1.0729 O   0  0  0  0  0  0  0  0  0  0  0  0
   -0.0912    1.4328    2.7087 N   0  0  0  0  0  0  0  0  0  0  0  0
   -0.0976    0.4358    2.9192 H   0  0  0  0  0  0  0  0  0  0  0  0
   -0.1253    2.3940    3.8035 C   0  0  0  0  0  0  0  0  0  0  0  0
   -1.0666    2.9535    3.7939 H   0  0  0  0  0  0  0  0  0  0  0  0
   -0.0401    1.8765    4.7639 H   0  0  0  0  0  0  0  0  0  0  0  0
    0.7060    3.1016    3.7176 H   0  0  0  0  0  0  0  0  0  0  0  0
  1  2  1  0  0  0  0
  2  3  1  0  0  0  0
  2  4  1  0  0  0  0
  2  5  1  0  0  0  0
  5  6  2  0  0  0  0
  5  7  1  0  0  0  0
  7  8  1  0  0  0  0
  7  9  1  0  0  0  0
  9 10  1  0  0  0  0
  9 11  1  0  0  0  0
  9 21  1  0  0  0  0
 11 12  1  0  0  0  0
 11 13  1  0  0  0  0
 11 14  1  0  0  0  0
 14 15  1  0  0  0  0
 14 16  1  0  0  0  0
 14 17  1  0  0  0  0
 17 18  2  0  0  0  0
 17 19  1  0  0  0  0
 19 20  1  0  0  0  0
 21 22  2  0  0  0  0
 21 23  1  0  0  0  0
 23 24  1  0  0  0  0
 23 25  1  0  0  0  0
 25 26  1  0  0  0  0
 25 27  1  0  0  0  0
 25 28  1  0  0  0  0
M  END
$$$$

  -OEChem-01062216073D

 28 27  0     1  0  0  0  0  0999 V2000
   -3.1500   -2.8515    1.2436 H   0  0  0  0  0  0  0  0  0  0  0  0
   -3.1419   -1.8655    0.7704 C   0  0  0  0  0  0  0  0  0  0  0  0
   -3.8577   -1.2212    1.2869 H   0  0  0  0  0  0  0  0  0  0  0  0
   -3.4470   -1.9743   -0.2732 H   0  0  0  0  0  0  0  0  0  0  0  0
   -1.7521   -1.2621    0.8439 C   0  0  0  0  0  0  0  0  0  0  0  0
   -0.8523   -1.8570    1.4160 O   0  0  0  0  0  0  0  0  0  0  0  0
   -1.5139   -0.0165    0.3024 N   0  0  0  0  0  0  0  0  0  0  0  0
   -2.3088    0.4918   -0.0770 H   0  0  0  0  0  0  0  0  0  0  0  0
   -0.2019    0.6493    0.3057 C   0  0  1  0  0  0  0  0  0  0  0  0
    0.5962   -0.0545    0.5649 H   0  0  0  0  0  0  0  0  0  0  0  0
    0.0878    1.1819   -1.1105 C   0  0  0  0  0  0  0  0  0  0  0  0
   -0.7366    1.8279   -1.4336 H   0  0  0  0  0  0  0  0  0  0  0  0
    0.9943    1.7973   -1.0863 H   0  0  0  0  0  0  0  0  0  0  0  0
    0.2842    0.0320   -2.1223 C   0  0  0  0  0  0  0  0  0  0  0  0
    1.1255   -0.5891   -1.8024 H   0  0  0  0  0  0  0  0  0  0  0  0
   -0.6066   -0.6011   -2.1417 H   0  0  0  0  0  0  0  0  0  0  0  0
    0.5522    0.4990   -3.5533 C   0  0  0  0  0  0  0  0  0  0  0  0
    0.4694    1.6823   -3.8373 O   0  0  0  0  0  0  0  0  0  0  0  0
    0.8678   -0.4600   -4.4531 O   0  0  0  0  0  0  0  0  0  0  0  0
    1.0043    0.0026   -5.2941 H   0  0  0  0  0  0  0  0  0  0  0  0
   -0.1790    1.7749    1.3596 C   0  0  0  0  0  0  0  0  0  0  0  0
   -0.5500    2.9097    1.0878 O   0  0  0  0  0  0  0  0  0  0  0  0
    0.2263    1.4810    2.6473 N   0  0  0  0  0  0  0  0  0  0  0  0
    0.3953    0.5001    2.8614 H   0  0  0  0  0  0  0  0  0  0  0  0
    0.1889    2.4473    3.7380 C   0  0  0  0  0  0  0  0  0  0  0  0
   -0.8366    2.7907    3.9107 H   0  0  0  0  0  0  0  0  0  0  0  0
    0.5624    1.9914    4.6600 H   0  0  0  0  0  0  0  0  0  0  0  0
    0.8160    3.3140    3.5035 H   0  0  0  0  0  0  0  0  0  0  0  0
  1  2  1  0  0  0  0
  2  3  1  0  0  0  0
  2  4  1  0  0  0  0
  2  5  1  0  0  0  0
  5  6  2  0  0  0  0
  5  7  1  0  0  0  0
  7  8  1  0  0  0  0
  7  9  1  0  0  0  0
  9 10  1  0  0  0  0
  9 11  1  0  0  0  0
  9 21  1  0  0  0  0
 11 12  1  0  0  0  0
 11 13  1  0  0  0  0
 11 14  1  0  0  0  0
 14 15  1  0  0  0  0
 14 16  1  0  0  0  0
 14 17  1  0  0  0  0
 17 18  2  0  0  0  0
 17 19  1  0  0  0  0
 19 20  1  0  0  0  0
 21 22  2  0  0  0  0
 21 23  1  0  0  0  0
 23 24  1  0  0  0  0
 23 25  1  0  0  0  0
 25 26  1  0  0  0  0
 25 27  1  0  0  0  0
 25 28  1  0  0  0  0
M  END
$$$$

  -OEChem-01062216073D

 28 27  0     1  0  0  0  0  0999 V2000
   -3.1640   -2.8244    1.3182 H   0  0  0  0  0  0  0  0  0  0  0  0
   -3.1545   -1.8430    0.8357 C   0  0  0  0  0  0  0  0  0  0  0  0
   -3.8166   -1.1723    1.3888 H   0  0  0  0  0  0  0  0  0  0  0  0
   -3.5254   -1.9497   -0.1865 H   0  0  0  0  0  0  0  0  0  0  0  0
   -1.7454   -1.2824    0.8191 C   0  0  0  0  0  0  0  0  0  0  0  0
   -0.8271   -1.9180    1.3126 O   0  0  0  0  0  0  0  0  0  0  0  0
   -1.5091   -0.0369    0.2761 N   0  0  0  0  0  0  0  0  0  0  0  0
   -2.3199    0.5147    0.0053 H   0  0  0  0  0  0  0  0  0  0  0  0
   -0.1994    0.6324    0.2853 C   0  0  1  0  0  0  0  0  0  0  0  0
    0.5986   -0.0709    0.5450 H   0  0  0  0  0  0  0  0  0  0  0  0
    0.0965    1.1763   -1.1238 C   0  0  0  0  0  0  0  0  0  0  0  0
   -0.7285    1.8221   -1.4462 H   0  0  0  0  0  0  0  0  0  0  0  0
    1.0009    1.7941   -1.0902 H   0  0  0  0  0  0  0  0  0  0  0  0
    0.3001    0.0339   -2.1427 C   0  0  0  0  0  0  0  0  0  0  0  0
    1.1404   -0.5888   -1.8229 H   0  0  0  0  0  0  0  0  0  0  0  0
   -0.5898   -0.6001   -2.1709 H   0  0  0  0  0  0  0  0  0  0  0  0
    0.5751    0.5119   -3.5686 C   0  0  0  0  0  0  0  0  0  0  0  0
    0.4920    1.6973   -3.8440 O   0  0  0  0  0  0  0  0  0  0  0  0
    0.9012   -0.4394   -4.4729 O   0  0  0  0  0  0  0  0  0  0  0  0
    1.0405    0.0287   -5.3103 H   0  0  0  0  0  0  0  0  0  0  0  0
   -0.1814    1.7612    1.3351 C   0  0  0  0  0  0  0  0  0  0  0  0
   -0.8060    2.7972    1.1447 O   0  0  0  0  0  0  0  0  0  0  0  0
    0.4968    1.5830    2.5260 N   0  0  0  0  0  0  0  0  0  0  0  0
    0.8756    0.6563    2.7061 H   0  0  0  0  0  0  0  0  0  0  0  0
    0.4679    2.5552    3.6119 C   0  0  0  0  0  0  0  0  0  0  0  0
   -0.5577    2.7043    3.9656 H   0  0  0  0  0  0  0  0  0  0  0  0
    1.0764    2.2039    4.4508 H   0  0  0  0  0  0  0  0  0  0  0  0
    0.8677    3.5176    3.2753 H   0  0  0  0  0  0  0  0  0  0  0  0
  1  2  1  0  0  0  0
  2  3  1  0  0  0  0
  2  4  1  0  0  0  0
  2  5  1  0  0  0  0
  5  6  2  0  0  0  0
  5  7  1  0  0  0  0
  7  8  1  0  0  0  0
  7  9  1  0  0  0  0
  9 10  1  0  0  0  0
  9 11  1  0  0  0  0
  9 21  1  0  0  0  0
 11 12  1  0  0  0  0
 11 13  1  0  0  0  0
 11 14  1  0  0  0  0
 14 15  1  0  0  0  0
 14 16  1  0  0  0  0
 14 17  1  0  0  0  0
 17 18  2  0  0  0  0
 17 19  1  0  0  0  0
 19 20  1  0  0  0  0
 21 22  2  0  0  0  0
 21 23  1  0  0  0  0
 23 24  1  0  0  0  0
 23 25  1  0  0  0  0
 25 26  1  0  0  0  0
 25 27  1  0  0  0  0
 25 28  1  0  0  0  0
M  END
$$$$

  -OEChem-01062216073D

 28 27  0     1  0  0  0  0  0999 V2000
   -3.1766   -2.8056    1.3823 H   0  0  0  0  0  0  0  0  0  0  0  0
   -3.1670   -1.8292    0.8901 C   0  0  0  0  0  0  0  0  0  0  0  0
   -3.7844   -1.1374    1.4682 H   0  0  0  0  0  0  0  0  0  0  0  0
   -3.5904   -1.9355   -0.1115 H   0  0  0  0  0  0  0  0  0  0  0  0
   -1.7471   -1.3040    0.7987 C   0  0  0  0  0  0  0  0  0  0  0  0
   -0.8190   -1.9712    1.2277 O   0  0  0  0  0  0  0  0  0  0  0  0
   -1.5125   -0.0601    0.2512 N   0  0  0  0  0  0  0  0  0  0  0  0
   -2.3284    0.5217    0.0729 H   0  0  0  0  0  0  0  0  0  0  0  0
   -0.2041    0.6117    0.2697 C   0  0  1  0  0  0  0  0  0  0  0  0
    0.5920   -0.0913    0.5357 H   0  0  0  0  0  0  0  0  0  0  0  0
    0.1012    1.1661   -1.1318 C   0  0  0  0  0  0  0  0  0  0  0  0
   -0.7234    1.8131   -1.4536 H   0  0  0  0  0  0  0  0  0  0  0  0
    1.0045    1.7847   -1.0874 H   0  0  0  0  0  0  0  0  0  0  0  0
    0.3136    0.0337   -2.1596 C   0  0  0  0  0  0  0  0  0  0  0  0
    1.1518   -0.5920   -1.8402 H   0  0  0  0  0  0  0  0  0  0  0  0
   -0.5757   -0.6007   -2.2003 H   0  0  0  0  0  0  0  0  0  0  0  0
    0.5981    0.5283   -3.5783 C   0  0  0  0  0  0  0  0  0  0  0  0
    0.5148    1.7171   -3.8400 O   0  0  0  0  0  0  0  0  0  0  0  0
    0.9362   -0.4109   -4.4908 O   0  0  0  0  0  0  0  0  0  0  0  0
    1.0799    0.0679   -5.3212 H   0  0  0  0  0  0  0  0  0  0  0  0
   -0.1960    1.7457    1.3135 C   0  0  0  0  0  0  0  0  0  0  0  0
   -1.0168    2.6521    1.2385 O   0  0  0  0  0  0  0  0  0  0  0  0
    0.7028    1.7253    2.3633 N   0  0  0  0  0  0  0  0  0  0  0  0
    1.2829    0.8966    2.4640 H   0  0  0  0  0  0  0  0  0  0  0  0
    0.7059    2.7214    3.4278 C   0  0  0  0  0  0  0  0  0  0  0  0
   -0.2522    2.7187    3.9583 H   0  0  0  0  0  0  0  0  0  0  0  0
    1.5012    2.5046    4.1475 H   0  0  0  0  0  0  0  0  0  0  0  0
    0.8772    3.7216    3.0157 H   0  0  0  0  0  0  0  0  0  0  0  0
  1  2  1  0  0  0  0
  2  3  1  0  0  0  0
  2  4  1  0  0  0  0
  2  5  1  0  0  0  0
  5  6  2  0  0  0  0
  5  7  1  0  0  0  0
  7  8  1  0  0  0  0
  7  9  1  0  0  0  0
  9 10  1  0  0  0  0
  9 11  1  0  0  0  0
  9 21  1  0  0  0  0
 11 12  1  0  0  0  0
 11 13  1  0  0  0  0
 11 14  1  0  0  0  0
 14 15  1  0  0  0  0
 14 16  1  0  0  0  0
 14 17  1  0  0  0  0
 17 18  2  0  0  0  0
 17 19  1  0  0  0  0
 19 20  1  0  0  0  0
 21 22  2  0  0  0  0
 21 23  1  0  0  0  0
 23 24  1  0  0  0  0
 23 25  1  0  0  0  0
 25 26  1  0  0  0  0
 25 27  1  0  0  0  0
 25 28  1  0  0  0  0
M  END
$$$$

  -OEChem-01062216073D

 28 27  0     1  0  0  0  0  0999 V2000
   -3.1739   -2.8009    1.4060 H   0  0  0  0  0  0  0  0  0  0  0  0
   -3.1706   -1.8179    0.9269 C   0  0  0  0  0  0  0  0  0  0  0  0
   -3.7490   -1.1245    1.5423 H   0  0  0  0  0  0  0  0  0  0  0  0
   -3.6413   -1.9029   -0.0554 H   0  0  0  0  0  0  0  0  0  0  0  0
   -1.7481   -1.3139    0.7772 C   0  0  0  0  0  0  0  0  0  0  0  0
   -0.8136   -2.0014    1.1581 O   0  0  0  0  0  0  0  0  0  0  0  0
   -1.5187   -0.0701    0.2267 N   0  0  0  0  0  0  0  0  0  0  0  0
   -2.3353    0.5283    0.1181 H   0  0  0  0  0  0  0  0  0  0  0  0
   -0.2118    0.6052    0.2568 C   0  0  1  0  0  0  0  0  0  0  0  0
    0.5829   -0.0957    0.5329 H   0  0  0  0  0  0  0  0  0  0  0  0
    0.1012    1.1622   -1.1412 C   0  0  0  0  0  0  0  0  0  0  0  0
   -0.7243    1.8059   -1.4670 H   0  0  0  0  0  0  0  0  0  0  0  0
    1.0022    1.7835   -1.0917 H   0  0  0  0  0  0  0  0  0  0  0  0
    0.3239    0.0320   -2.1691 C   0  0  0  0  0  0  0  0  0  0  0  0
    1.1606   -0.5929   -1.8448 H   0  0  0  0  0  0  0  0  0  0  0  0
   -0.5640   -0.6040   -2.2172 H   0  0  0  0  0  0  0  0  0  0  0  0
    0.6164    0.5310   -3.5844 C   0  0  0  0  0  0  0  0  0  0  0  0
    0.5311    1.7204   -3.8428 O   0  0  0  0  0  0  0  0  0  0  0  0
    0.9620   -0.4042   -4.4980 O   0  0  0  0  0  0  0  0  0  0  0  0
    1.1064    0.0768   -5.3270 H   0  0  0  0  0  0  0  0  0  0  0  0
   -0.2125    1.7437    1.2966 C   0  0  0  0  0  0  0  0  0  0  0  0
   -1.1682    2.5080    1.3632 O   0  0  0  0  0  0  0  0  0  0  0  0
    0.8506    1.9040    2.1655 N   0  0  0  0  0  0  0  0  0  0  0  0
    1.5783    1.1950    2.1506 H   0  0  0  0  0  0  0  0  0  0  0  0
    0.8783    2.9194    3.2114 C   0  0  0  0  0  0  0  0  0  0  0  0
    0.0502    2.7705    3.9124 H   0  0  0  0  0  0  0  0  0  0  0  0
    1.8183    2.8633    3.7688 H   0  0  0  0  0  0  0  0  0  0  0  0
    0.7957    3.9208    2.7758 H   0  0  0  0  0  0  0  0  0  0  0  0
  1  2  1  0  0  0  0
  2  3  1  0  0  0  0
  2  4  1  0  0  0  0
  2  5  1  0  0  0  0
  5  6  2  0  0  0  0
  5  7  1  0  0  0  0
  7  8  1  0  0  0  0
  7  9  1  0  0  0  0
  9 10  1  0  0  0  0
  9 11  1  0  0  0  0
  9 21  1  0  0  0  0
 11 12  1  0  0  0  0
 11 13  1  0  0  0  0
 11 14  1  0  0  0  0
 14 15  1  0  0  0  0
 14 16  1  0  0  0  0
 14 17  1  0  0  0  0
 17 18  2  0  0  0  0
 17 19  1  0  0  0  0
 19 20  1  0  0  0  0
 21 22  2  0  0  0  0
 21 23  1  0  0  0  0
 23 24  1  0  0  0  0
 23 25  1  0  0  0  0
 25 26  1  0  0  0  0
 25 27  1  0  0  0  0
 25 28  1  0  0  0  0
M  END
$$$$

  -OEChem-01062216073D

 28 27  0     1  0  0  0  0  0999 V2000
   -3.1800   -2.7924    1.4460 H   0  0  0  0  0  0  0  0  0  0  0  0
   -3.1781   -1.8210    0.9437 C   0  0  0  0  0  0  0  0  0  0  0  0
   -3.7427   -1.1097    1.5516 H   0  0  0  0  0  0  0  0  0  0  0  0
   -3.6646   -1.9261   -0.0290 H   0  0  0  0  0  0  0  0  0  0  0  0
   -1.7548   -1.3299    0.7591 C   0  0  0  0  0  0  0  0  0  0  0  0
   -0.8173   -2.0349    1.0982 O   0  0  0  0  0  0  0  0  0  0  0  0
   -1.5298   -0.0840    0.2109 N   0  0  0  0  0  0  0  0  0  0  0  0
   -2.3455    0.5233    0.1569 H   0  0  0  0  0  0  0  0  0  0  0  0
   -0.2245    0.5955    0.2551 C   0  0  1  0  0  0  0  0  0  0  0  0
    0.5689   -0.1039    0.5388 H   0  0  0  0  0  0  0  0  0  0  0  0
    0.0955    1.1588   -1.1385 C   0  0  0  0  0  0  0  0  0  0  0  0
   -0.7309    1.8000   -1.4664 H   0  0  0  0  0  0  0  0  0  0  0  0
    0.9946    1.7825   -1.0824 H   0  0  0  0  0  0  0  0  0  0  0  0
    0.3286    0.0344   -2.1697 C   0  0  0  0  0  0  0  0  0  0  0  0
    1.1652   -0.5891   -1.8426 H   0  0  0  0  0  0  0  0  0  0  0  0
   -0.5571   -0.6040   -2.2258 H   0  0  0  0  0  0  0  0  0  0  0  0
    0.6285    0.5406   -3.5811 C   0  0  0  0  0  0  0  0  0  0  0  0
    0.5405    1.7312   -3.8339 O   0  0  0  0  0  0  0  0  0  0  0  0
    0.9850   -0.3886   -4.4969 O   0  0  0  0  0  0  0  0  0  0  0  0
    1.1330    0.0968   -5.3227 H   0  0  0  0  0  0  0  0  0  0  0  0
   -0.2305    1.7355    1.2949 C   0  0  0  0  0  0  0  0  0  0  0  0
   -1.2666    2.3490    1.5253 O   0  0  0  0  0  0  0  0  0  0  0  0
    0.9309    2.0924    1.9545 N   0  0  0  0  0  0  0  0  0  0  0  0
    1.7612    1.5322    1.7843 H   0  0  0  0  0  0  0  0  0  0  0  0
    0.9868    3.1530    2.9535 C   0  0  0  0  0  0  0  0  0  0  0  0
    0.3191    2.9260    3.7915 H   0  0  0  0  0  0  0  0  0  0  0  0
    2.0051    3.2557    3.3405 H   0  0  0  0  0  0  0  0  0  0  0  0
    0.6871    4.1100    2.5130 H   0  0  0  0  0  0  0  0  0  0  0  0
  1  2  1  0  0  0  0
  2  3  1  0  0  0  0
  2  4  1  0  0  0  0
  2  5  1  0  0  0  0
  5  6  2  0  0  0  0
  5  7  1  0  0  0  0
  7  8  1  0  0  0  0
  7  9  1  0  0  0  0
  9 10  1  0  0  0  0
  9 11  1  0  0  0  0
  9 21  1  0  0  0  0
 11 12  1  0  0  0  0
 11 13  1  0  0  0  0
 11 14  1  0  0  0  0
 14 15  1  0  0  0  0
 14 16  1  0  0  0  0
 14 17  1  0  0  0  0
 17 18  2  0  0  0  0
 17 19  1  0  0  0  0
 19 20  1  0  0  0  0
 21 22  2  0  0  0  0
 21 23  1  0  0  0  0
 23 24  1  0  0  0  0
 23 25  1  0  0  0  0
 25 26  1  0  0  0  0
 25 27  1  0  0  0  0
 25 28  1  0  0  0  0
M  END
$$$$

  -OEChem-01062216073D

 28 27  0     1  0  0  0  0  0999 V2000
   -3.1639   -2.8001    1.4311 H   0  0  0  0  0  0  0  0  0  0  0  0
   -3.1724   -1.8075    0.9725 C   0  0  0  0  0  0  0  0  0  0  0  0
   -3.6881   -1.1151    1.6425 H   0  0  0  0  0  0  0  0  0  0  0  0
   -3.7147   -1.8609    0.0255 H   0  0  0  0  0  0  0  0  0  0  0  0
   -1.7530   -1.3314    0.7303 C   0  0  0  0  0  0  0  0  0  0  0  0
   -0.8104   -2.0511    1.0217 O   0  0  0  0  0  0  0  0  0  0  0  0
   -1.5387   -0.0824    0.1848 N   0  0  0  0  0  0  0  0  0  0  0  0
   -2.3545    0.5273    0.1827 H   0  0  0  0  0  0  0  0  0  0  0  0
   -0.2356    0.6017    0.2432 C   0  0  1  0  0  0  0  0  0  0  0  0
    0.5585   -0.0935    0.5352 H   0  0  0  0  0  0  0  0  0  0  0  0
    0.0906    1.1604   -1.1518 C   0  0  0  0  0  0  0  0  0  0  0  0
   -0.7368    1.7959   -1.4878 H   0  0  0  0  0  0  0  0  0  0  0  0
    0.9864    1.7883   -1.0959 H   0  0  0  0  0  0  0  0  0  0  0  0
    0.3353    0.0309   -2.1755 C   0  0  0  0  0  0  0  0  0  0  0  0
    1.1728   -0.5869   -1.8397 H   0  0  0  0  0  0  0  0  0  0  0  0
   -0.5465   -0.6128   -2.2339 H   0  0  0  0  0  0  0  0  0  0  0  0
    0.6417    0.5299   -3.5880 C   0  0  0  0  0  0  0  0  0  0  0  0
    0.5498    1.7187   -3.8481 O   0  0  0  0  0  0  0  0  0  0  0  0
    1.0095   -0.4029   -4.4955 O   0  0  0  0  0  0  0  0  0  0  0  0
    1.1604    0.0770   -5.3238 H   0  0  0  0  0  0  0  0  0  0  0  0
   -0.2493    1.7409    1.2864 C   0  0  0  0  0  0  0  0  0  0  0  0
   -1.3144    2.1923    1.6934 O   0  0  0  0  0  0  0  0  0  0  0  0
    0.9346    2.3045    1.7259 N   0  0  0  0  0  0  0  0  0  0  0  0
    1.8034    1.8898    1.4019 H   0  0  0  0  0  0  0  0  0  0  0  0
    0.9894    3.3803    2.7085 C   0  0  0  0  0  0  0  0  0  0  0  0
    0.5327    3.0612    3.6514 H   0  0  0  0  0  0  0  0  0  0  0  0
    2.0284    3.6617    2.9050 H   0  0  0  0  0  0  0  0  0  0  0  0
    0.4565    4.2635    2.3404 H   0  0  0  0  0  0  0  0  0  0  0  0
  1  2  1  0  0  0  0
  2  3  1  0  0  0  0
  2  4  1  0  0  0  0
  2  5  1  0  0  0  0
  5  6  2  0  0  0  0
  5  7  1  0  0  0  0
  7  8  1  0  0  0  0
  7  9  1  0  0  0  0
  9 10  1  0  0  0  0
  9 11  1  0  0  0  0
  9 21  1  0  0  0  0
 11 12  1  0  0  0  0
 11 13  1  0  0  0  0
 11 14  1  0  0  0  0
 14 15  1  0  0  0  0
 14 16  1  0  0  0  0
 14 17  1  0  0  0  0
 17 18  2  0  0  0  0
 17 19  1  0  0  0  0
 19 20  1  0  0  0  0
 21 22  2  0  0  0  0
 21 23  1  0  0  0  0
 23 24  1  0  0  0  0
 23 25  1  0  0  0  0
 25 26  1  0  0  0  0
 25 27  1  0  0  0  0
 25 28  1  0  0  0  0
M  END
$$$$

  -OEChem-01062216073D

 28 27  0     1  0  0  0  0  0999 V2000
   -3.0999   -2.7965    1.4882 H   0  0  0  0  0  0  0  0  0  0  0  0
   -3.1378   -1.8118    1.0141 C   0  0  0  0  0  0  0  0  0  0  0  0
   -3.6251   -1.1118    1.6976 H   0  0  0  0  0  0  0  0  0  0  0  0
   -3.7251   -1.8843    0.0956 H   0  0  0  0  0  0  0  0  0  0  0  0
   -1.7351   -1.3304    0.6958 C   0  0  0  0  0  0  0  0  0  0  0  0
   -0.7774   -2.0572    0.9115 O   0  0  0  0  0  0  0  0  0  0  0  0
   -1.5525   -0.0729    0.1562 N   0  0  0  0  0  0  0  0  0  0  0  0
   -2.3709    0.5269    0.2244 H   0  0  0  0  0  0  0  0  0  0  0  0
   -0.2503    0.6133    0.2287 C   0  0  1  0  0  0  0  0  0  0  0  0
    0.5698   -0.1125    0.2495 H   0  0  0  0  0  0  0  0  0  0  0  0
   -0.0976    1.4819   -1.0333 C   0  0  0  0  0  0  0  0  0  0  0  0
   -0.9605    2.1525   -1.1166 H   0  0  0  0  0  0  0  0  0  0  0  0
    0.7967    2.1079   -0.9476 H   0  0  0  0  0  0  0  0  0  0  0  0
    0.0244    0.6192   -2.3082 C   0  0  0  0  0  0  0  0  0  0  0  0
    0.8992   -0.0314   -2.2229 H   0  0  0  0  0  0  0  0  0  0  0  0
   -0.8551   -0.0224   -2.4078 H   0  0  0  0  0  0  0  0  0  0  0  0
    0.1552    1.4332   -3.5959 C   0  0  0  0  0  0  0  0  0  0  0  0
    0.0285    2.6466   -3.5651 O   0  0  0  0  0  0  0  0  0  0  0  0
    0.4100    0.7411   -4.7295 O   0  0  0  0  0  0  0  0  0  0  0  0
    0.4552    1.3996   -5.4394 H   0  0  0  0  0  0  0  0  0  0  0  0
   -0.1283    1.4748    1.5096 C   0  0  0  0  0  0  0  0  0  0  0  0
   -1.0918    1.6217    2.2537 O   0  0  0  0  0  0  0  0  0  0  0  0
    1.0231    2.1981    1.7651 N   0  0  0  0  0  0  0  0  0  0  0  0
    1.8183    2.0499    1.1512 H   0  0  0  0  0  0  0  0  0  0  0  0
    1.1838    3.0591    2.9310 C   0  0  0  0  0  0  0  0  0  0  0  0
    1.0775    2.4786    3.8536 H   0  0  0  0  0  0  0  0  0  0  0  0
    2.1750    3.5225    2.9264 H   0  0  0  0  0  0  0  0  0  0  0  0
    0.4312    3.8548    2.9260 H   0  0  0  0  0  0  0  0  0  0  0  0
  1  2  1  0  0  0  0
  2  3  1  0  0  0  0
  2  4  1  0  0  0  0
  2  5  1  0  0  0  0
  5  6  2  0  0  0  0
  5  7  1  0  0  0  0
  7  8  1  0  0  0  0
  7  9  1  0  0  0  0
  9 10  1  0  0  0  0
  9 11  1  0  0  0  0
  9 21  1  0  0  0  0
 11 12  1  0  0  0  0
 11 13  1  0  0  0  0
 11 14  1  0  0  0  0
 14 15  1  0  0  0  0
 14 16  1  0  0  0  0
 14 17  1  0  0  0  0
 17 18  2  0  0  0  0
 17 19  1  0  0  0  0
 19 20  1  0  0  0  0
 21 22  2  0  0  0  0
 21 23  1  0  0  0  0
 23 24  1  0  0  0  0
 23 25  1  0  0  0  0
 25 26  1  0  0  0  0
 25 27  1  0  0  0  0
 25 28  1  0  0  0  0
M  END
$$$$

  -OEChem-01062216073D

 28 27  0     1  0  0  0  0  0999 V2000
   -3.0946   -2.8145    1.4233 H   0  0  0  0  0  0  0  0  0  0  0  0
   -3.1297   -1.7953    1.0284 C   0  0  0  0  0  0  0  0  0  0  0  0
   -3.5657   -1.1395    1.7863 H   0  0  0  0  0  0  0  0  0  0  0  0
   -3.7613   -1.7836    0.1371 H   0  0  0  0  0  0  0  0  0  0  0  0
   -1.7316   -1.3212    0.6808 C   0  0  0  0  0  0  0  0  0  0  0  0
   -0.7762   -2.0615    0.8565 O   0  0  0  0  0  0  0  0  0  0  0  0
   -1.5532   -0.0604    0.1465 N   0  0  0  0  0  0  0  0  0  0  0  0
   -2.3713    0.5371    0.2284 H   0  0  0  0  0  0  0  0  0  0  0  0
   -0.2496    0.6240    0.2217 C   0  0  1  0  0  0  0  0  0  0  0  0
    0.5705   -0.1017    0.2459 H   0  0  0  0  0  0  0  0  0  0  0  0
   -0.0976    1.4806   -1.0507 C   0  0  0  0  0  0  0  0  0  0  0  0
   -0.9602    2.1507   -1.1406 H   0  0  0  0  0  0  0  0  0  0  0  0
    0.7987    2.1047   -0.9773 H   0  0  0  0  0  0  0  0  0  0  0  0
    0.0256    0.6064   -2.3176 C   0  0  0  0  0  0  0  0  0  0  0  0
    0.9011   -0.0424   -2.2266 H   0  0  0  0  0  0  0  0  0  0  0  0
   -0.8529   -0.0375   -2.4123 H   0  0  0  0  0  0  0  0  0  0  0  0
    0.1555    1.4099   -3.6120 C   0  0  0  0  0  0  0  0  0  0  0  0
    0.0269    2.6235   -3.5902 O   0  0  0  0  0  0  0  0  0  0  0  0
    0.4122    0.7096   -4.7400 O   0  0  0  0  0  0  0  0  0  0  0  0
    0.4581    1.3623   -5.4551 H   0  0  0  0  0  0  0  0  0  0  0  0
   -0.1285    1.4790    1.5108 C   0  0  0  0  0  0  0  0  0  0  0  0
   -0.9942    1.4212    2.3770 O   0  0  0  0  0  0  0  0  0  0  0  0
    0.8643    2.4344    1.6452 N   0  0  0  0  0  0  0  0  0  0  0  0
    1.5823    2.4726    0.9283 H   0  0  0  0  0  0  0  0  0  0  0  0
    0.9823    3.3097    2.8062 C   0  0  0  0  0  0  0  0  0  0  0  0
    1.1229    2.7200    3.7185 H   0  0  0  0  0  0  0  0  0  0  0  0
    1.8409    3.9785    2.6913 H   0  0  0  0  0  0  0  0  0  0  0  0
    0.0810    3.9220    2.9178 H   0  0  0  0  0  0  0  0  0  0  0  0
  1  2  1  0  0  0  0
  2  3  1  0  0  0  0
  2  4  1  0  0  0  0
  2  5  1  0  0  0  0
  5  6  2  0  0  0  0
  5  7  1  0  0  0  0
  7  8  1  0  0  0  0
  7  9  1  0  0  0  0
  9 10  1  0  0  0  0
  9 11  1  0  0  0  0
  9 21  1  0  0  0  0
 11 12  1  0  0  0  0
 11 13  1  0  0  0  0
 11 14  1  0  0  0  0
 14 15  1  0  0  0  0
 14 16  1  0  0  0  0
 14 17  1  0  0  0  0
 17 18  2  0  0  0  0
 17 19  1  0  0  0  0
 19 20  1  0  0  0  0
 21 22  2  0  0  0  0
 21 23  1  0  0  0  0
 23 24  1  0  0  0  0
 23 25  1  0  0  0  0
 25 26  1  0  0  0  0
 25 27  1  0  0  0  0
 25 28  1  0  0  0  0
M  END
$$$$

  -OEChem-01062216073D

 28 27  0     1  0  0  0  0  0999 V2000
   -3.0786   -2.7958    1.4485 H   0  0  0  0  0  0  0  0  0  0  0  0
   -3.1214   -1.7815    1.0421 C   0  0  0  0  0  0  0  0  0  0  0  0
   -3.5471   -1.1180    1.7989 H   0  0  0  0  0  0  0  0  0  0  0  0
   -3.7660   -1.7815    0.1601 H   0  0  0  0  0  0  0  0  0  0  0  0
   -1.7293   -1.3095    0.6687 C   0  0  0  0  0  0  0  0  0  0  0  0
   -0.7753   -2.0599    0.8051 O   0  0  0  0  0  0  0  0  0  0  0  0
   -1.5576   -0.0450    0.1397 N   0  0  0  0  0  0  0  0  0  0  0  0
   -2.3778    0.5481    0.2264 H   0  0  0  0  0  0  0  0  0  0  0  0
   -0.2537    0.6402    0.2121 C   0  0  1  0  0  0  0  0  0  0  0  0
    0.5666   -0.0853    0.2388 H   0  0  0  0  0  0  0  0  0  0  0  0
   -0.0984    1.4847   -1.0686 C   0  0  0  0  0  0  0  0  0  0  0  0
   -0.9590    2.1562   -1.1668 H   0  0  0  0  0  0  0  0  0  0  0  0
    0.8016    2.1038   -1.0025 H   0  0  0  0  0  0  0  0  0  0  0  0
    0.0274    0.5972   -2.3261 C   0  0  0  0  0  0  0  0  0  0  0  0
    0.9018   -0.0522   -2.2261 H   0  0  0  0  0  0  0  0  0  0  0  0
   -0.8518   -0.0465   -2.4161 H   0  0  0  0  0  0  0  0  0  0  0  0
    0.1606    1.3879   -3.6279 C   0  0  0  0  0  0  0  0  0  0  0  0
    0.0323    2.6018   -3.6174 O   0  0  0  0  0  0  0  0  0  0  0  0
    0.4183    0.6769   -4.7489 O   0  0  0  0  0  0  0  0  0  0  0  0
    0.4658    1.3221   -5.4706 H   0  0  0  0  0  0  0  0  0  0  0  0
   -0.1321    1.4877    1.5083 C   0  0  0  0  0  0  0  0  0  0  0  0
   -0.8394    1.2383    2.4773 O   0  0  0  0  0  0  0  0  0  0  0  0
    0.6371    2.6385    1.5534 N   0  0  0  0  0  0  0  0  0  0  0  0
    1.2120    2.8540    0.7450 H   0  0  0  0  0  0  0  0  0  0  0  0
    0.7174    3.5052    2.7240 C   0  0  0  0  0  0  0  0  0  0  0  0
    1.0996    2.9494    3.5870 H   0  0  0  0  0  0  0  0  0  0  0  0
    1.3908    4.3452    2.5281 H   0  0  0  0  0  0  0  0  0  0  0  0
   -0.2708    3.9061    2.9733 H   0  0  0  0  0  0  0  0  0  0  0  0
  1  2  1  0  0  0  0
  2  3  1  0  0  0  0
  2  4  1  0  0  0  0
  2  5  1  0  0  0  0
  5  6  2  0  0  0  0
  5  7  1  0  0  0  0
  7  8  1  0  0  0  0
  7  9  1  0  0  0  0
  9 10  1  0  0  0  0
  9 11  1  0  0  0  0
  9 21  1  0  0  0  0
 11 12  1  0  0  0  0
 11 13  1  0  0  0  0
 11 14  1  0  0  0  0
 14 15  1  0  0  0  0
 14 16  1  0  0  0  0
 14 17  1  0  0  0  0
 17 18  2  0  0  0  0
 17 19  1  0  0  0  0
 19 20  1  0  0  0  0
 21 22  2  0  0  0  0
 21 23  1  0  0  0  0
 23 24  1  0  0  0  0
 23 25  1  0  0  0  0
 25 26  1  0  0  0  0
 25 27  1  0  0  0  0
 25 28  1  0  0  0  0
M  END
$$$$

  -OEChem-01062216073D

 28 27  0     1  0  0  0  0  0999 V2000
   -3.0724   -2.7840    1.4658 H   0  0  0  0  0  0  0  0  0  0  0  0
   -3.1191   -1.7714    1.0554 C   0  0  0  0  0  0  0  0  0  0  0  0
   -3.5364   -1.1048    1.8143 H   0  0  0  0  0  0  0  0  0  0  0  0
   -3.7726   -1.7743    0.1800 H   0  0  0  0  0  0  0  0  0  0  0  0
   -1.7304   -1.3019    0.6662 C   0  0  0  0  0  0  0  0  0  0  0  0
   -0.7792   -2.0594    0.7771 O   0  0  0  0  0  0  0  0  0  0  0  0
   -1.5622   -0.0353    0.1400 N   0  0  0  0  0  0  0  0  0  0  0  0
   -2.3860    0.5537    0.2130 H   0  0  0  0  0  0  0  0  0  0  0  0
   -0.2588    0.6514    0.2046 C   0  0  1  0  0  0  0  0  0  0  0  0
    0.5608   -0.0750    0.2340 H   0  0  0  0  0  0  0  0  0  0  0  0
   -0.0963    1.4872   -1.0800 C   0  0  0  0  0  0  0  0  0  0  0  0
   -0.9527    2.1624   -1.1865 H   0  0  0  0  0  0  0  0  0  0  0  0
    0.8091    2.0988   -1.0120 H   0  0  0  0  0  0  0  0  0  0  0  0
    0.0323    0.5916   -2.3309 C   0  0  0  0  0  0  0  0  0  0  0  0
    0.9055   -0.0582   -2.2236 H   0  0  0  0  0  0  0  0  0  0  0  0
   -0.8476   -0.0514   -2.4197 H   0  0  0  0  0  0  0  0  0  0  0  0
    0.1726    1.3748   -3.6367 C   0  0  0  0  0  0  0  0  0  0  0  0
    0.0469    2.5893   -3.6325 O   0  0  0  0  0  0  0  0  0  0  0  0
    0.4318    0.6576   -4.7533 O   0  0  0  0  0  0  0  0  0  0  0  0
    0.4847    1.2989   -5.4780 H   0  0  0  0  0  0  0  0  0  0  0  0
   -0.1355    1.4934    1.5039 C   0  0  0  0  0  0  0  0  0  0  0  0
   -0.6238    1.0845    2.5495 O   0  0  0  0  0  0  0  0  0  0  0  0
    0.3613    2.7865    1.4920 N   0  0  0  0  0  0  0  0  0  0  0  0
    0.7239    3.1459    0.6145 H   0  0  0  0  0  0  0  0  0  0  0  0
    0.4010    3.6427    2.6727 C   0  0  0  0  0  0  0  0  0  0  0  0
    1.0084    3.1828    3.4595 H   0  0  0  0  0  0  0  0  0  0  0  0
    0.8382    4.6141    2.4220 H   0  0  0  0  0  0  0  0  0  0  0  0
   -0.6098    3.8089    3.0603 H   0  0  0  0  0  0  0  0  0  0  0  0
  1  2  1  0  0  0  0
  2  3  1  0  0  0  0
  2  4  1  0  0  0  0
  2  5  1  0  0  0  0
  5  6  2  0  0  0  0
  5  7  1  0  0  0  0
  7  8  1  0  0  0  0
  7  9  1  0  0  0  0
  9 10  1  0  0  0  0
  9 11  1  0  0  0  0
  9 21  1  0  0  0  0
 11 12  1  0  0  0  0
 11 13  1  0  0  0  0
 11 14  1  0  0  0  0
 14 15  1  0  0  0  0
 14 16  1  0  0  0  0
 14 17  1  0  0  0  0
 17 18  2  0  0  0  0
 17 19  1  0  0  0  0
 19 20  1  0  0  0  0
 21 22  2  0  0  0  0
 21 23  1  0  0  0  0
 23 24  1  0  0  0  0
 23 25  1  0  0  0  0
 25 26  1  0  0  0  0
 25 27  1  0  0  0  0
 25 28  1  0  0  0  0
M  END
$$$$

  -OEChem-01062216073D

 28 27  0     1  0  0  0  0  0999 V2000
   -3.0785   -2.8009    1.4385 H   0  0  0  0  0  0  0  0  0  0  0  0
   -3.1242   -1.7806    1.0473 C   0  0  0  0  0  0  0  0  0  0  0  0
   -3.5486   -1.1294    1.8154 H   0  0  0  0  0  0  0  0  0  0  0  0
   -3.7712   -1.7687    0.1671 H   0  0  0  0  0  0  0  0  0  0  0  0
   -1.7334   -1.3018    0.6773 C   0  0  0  0  0  0  0  0  0  0  0  0
   -0.7812   -2.0568    0.7913 O   0  0  0  0  0  0  0  0  0  0  0  0
   -1.5678   -0.0356    0.1489 N   0  0  0  0  0  0  0  0  0  0  0  0
   -2.3988    0.5458    0.1939 H   0  0  0  0  0  0  0  0  0  0  0  0
   -0.2689    0.6595    0.2094 C   0  0  1  0  0  0  0  0  0  0  0  0
    0.5535   -0.0640    0.2443 H   0  0  0  0  0  0  0  0  0  0  0  0
   -0.1019    1.4897   -1.0774 C   0  0  0  0  0  0  0  0  0  0  0  0
   -0.9613    2.1593   -1.1946 H   0  0  0  0  0  0  0  0  0  0  0  0
    0.8005    2.1061   -1.0004 H   0  0  0  0  0  0  0  0  0  0  0  0
    0.0375    0.5905   -2.3243 C   0  0  0  0  0  0  0  0  0  0  0  0
    0.9126   -0.0556   -2.2099 H   0  0  0  0  0  0  0  0  0  0  0  0
   -0.8394   -0.0564   -2.4163 H   0  0  0  0  0  0  0  0  0  0  0  0
    0.1823    1.3717   -3.6308 C   0  0  0  0  0  0  0  0  0  0  0  0
    0.0514    2.5857   -3.6290 O   0  0  0  0  0  0  0  0  0  0  0  0
    0.4515    0.6541   -4.7448 O   0  0  0  0  0  0  0  0  0  0  0  0
    0.5088    1.2950   -5.4696 H   0  0  0  0  0  0  0  0  0  0  0  0
   -0.1475    1.5058    1.5037 C   0  0  0  0  0  0  0  0  0  0  0  0
   -0.3768    0.9980    2.5924 O   0  0  0  0  0  0  0  0  0  0  0  0
    0.0440    2.8774    1.4604 N   0  0  0  0  0  0  0  0  0  0  0  0
    0.1893    3.3057    0.5511 H   0  0  0  0  0  0  0  0  0  0  0  0
    0.0712    3.7225    2.6494 C   0  0  0  0  0  0  0  0  0  0  0  0
    0.8716    3.4054    3.3265 H   0  0  0  0  0  0  0  0  0  0  0  0
    0.2484    4.7654    2.3697 H   0  0  0  0  0  0  0  0  0  0  0  0
   -0.8838    3.6652    3.1825 H   0  0  0  0  0  0  0  0  0  0  0  0
  1  2  1  0  0  0  0
  2  3  1  0  0  0  0
  2  4  1  0  0  0  0
  2  5  1  0  0  0  0
  5  6  2  0  0  0  0
  5  7  1  0  0  0  0
  7  8  1  0  0  0  0
  7  9  1  0  0  0  0
  9 10  1  0  0  0  0
  9 11  1  0  0  0  0
  9 21  1  0  0  0  0
 11 12  1  0  0  0  0
 11 13  1  0  0  0  0
 11 14  1  0  0  0  0
 14 15  1  0  0  0  0
 14 16  1  0  0  0  0
 14 17  1  0  0  0  0
 17 18  2  0  0  0  0
 17 19  1  0  0  0  0
 19 20  1  0  0  0  0
 21 22  2  0  0  0  0
 21 23  1  0  0  0  0
 23 24  1  0  0  0  0
 23 25  1  0  0  0  0
 25 26  1  0  0  0  0
 25 27  1  0  0  0  0
 25 28  1  0  0  0  0
M  END
$$$$

  -OEChem-01062216073D

 28 27  0     1  0  0  0  0  0999 V2000
   -3.0875   -2.8178    1.4231 H   0  0  0  0  0  0  0  0  0  0  0  0
   -3.1363   -1.8076    1.0071 C   0  0  0  0  0  0  0  0  0  0  0  0
   -3.6118   -1.1504    1.7391 H   0  0  0  0  0  0  0  0  0  0  0  0
   -3.7401   -1.8297    0.0969 H   0  0  0  0  0  0  0  0  0  0  0  0
   -1.7399   -1.3064    0.6924 C   0  0  0  0  0  0  0  0  0  0  0  0
   -0.7829   -2.0474    0.8439 O   0  0  0  0  0  0  0  0  0  0  0  0
   -1.5742   -0.0402    0.1640 N   0  0  0  0  0  0  0  0  0  0  0  0
   -2.4138    0.5302    0.1584 H   0  0  0  0  0  0  0  0  0  0  0  0
   -0.2819    0.6670    0.2249 C   0  0  1  0  0  0  0  0  0  0  0  0
    0.5451   -0.0512    0.2632 H   0  0  0  0  0  0  0  0  0  0  0  0
   -0.1146    1.4964   -1.0613 C   0  0  0  0  0  0  0  0  0  0  0  0
   -0.9804    2.1558   -1.1879 H   0  0  0  0  0  0  0  0  0  0  0  0
    0.7795    2.1241   -0.9746 H   0  0  0  0  0  0  0  0  0  0  0  0
    0.0384    0.5955   -2.3054 C   0  0  0  0  0  0  0  0  0  0  0  0
    0.9193   -0.0416   -2.1843 H   0  0  0  0  0  0  0  0  0  0  0  0
   -0.8313   -0.0602   -2.3999 H   0  0  0  0  0  0  0  0  0  0  0  0
    0.1842    1.3734   -3.6136 C   0  0  0  0  0  0  0  0  0  0  0  0
    0.0441    2.5865   -3.6163 O   0  0  0  0  0  0  0  0  0  0  0  0
    0.4591    0.6533   -4.7247 O   0  0  0  0  0  0  0  0  0  0  0  0
    0.5170    1.2918   -5.4515 H   0  0  0  0  0  0  0  0  0  0  0  0
   -0.1642    1.5189    1.5132 C   0  0  0  0  0  0  0  0  0  0  0  0
   -0.0947    0.9773    2.6064 O   0  0  0  0  0  0  0  0  0  0  0  0
   -0.2910    2.8981    1.4780 N   0  0  0  0  0  0  0  0  0  0  0  0
   -0.3555    3.3428    0.5674 H   0  0  0  0  0  0  0  0  0  0  0  0
   -0.2448    3.7371    2.6705 C   0  0  0  0  0  0  0  0  0  0  0  0
    0.7142    3.6174    3.1857 H   0  0  0  0  0  0  0  0  0  0  0  0
   -0.3621    4.7902    2.3979 H   0  0  0  0  0  0  0  0  0  0  0  0
   -1.0511    3.4675    3.3609 H   0  0  0  0  0  0  0  0  0  0  0  0
  1  2  1  0  0  0  0
  2  3  1  0  0  0  0
  2  4  1  0  0  0  0
  2  5  1  0  0  0  0
  5  6  2  0  0  0  0
  5  7  1  0  0  0  0
  7  8  1  0  0  0  0
  7  9  1  0  0  0  0
  9 10  1  0  0  0  0
  9 11  1  0  0  0  0
  9 21  1  0  0  0  0
 11 12  1  0  0  0  0
 11 13  1  0  0  0  0
 11 14  1  0  0  0  0
 14 15  1  0  0  0  0
 14 16  1  0  0  0  0
 14 17  1  0  0  0  0
 17 18  2  0  0  0  0
 17 19  1  0  0  0  0
 19 20  1  0  0  0  0
 21 22  2  0  0  0  0
 21 23  1  0  0  0  0
 23 24  1  0  0  0  0
 23 25  1  0  0  0  0
 25 26  1  0  0  0  0
 25 27  1  0  0  0  0
 25 28  1  0  0  0  0
M  END
$$$$

  -OEChem-01062216073D

 28 27  0     1  0  0  0  0  0999 V2000
   -3.1181   -2.8482    1.3921 H   0  0  0  0  0  0  0  0  0  0  0  0
   -3.1583   -1.8497    0.9474 C   0  0  0  0  0  0  0  0  0  0  0  0
   -3.7014   -1.1865    1.6249 H   0  0  0  0  0  0  0  0  0  0  0  0
   -3.6927   -1.9087   -0.0036 H   0  0  0  0  0  0  0  0  0  0  0  0
   -1.7536   -1.3233    0.7214 C   0  0  0  0  0  0  0  0  0  0  0  0
   -0.7953   -2.0390    0.9561 O   0  0  0  0  0  0  0  0  0  0  0  0
   -1.5781   -0.0595    0.1906 N   0  0  0  0  0  0  0  0  0  0  0  0
   -2.4239    0.4942    0.1009 H   0  0  0  0  0  0  0  0  0  0  0  0
   -0.2916    0.6585    0.2518 C   0  0  1  0  0  0  0  0  0  0  0  0
    0.5392   -0.0562    0.2903 H   0  0  0  0  0  0  0  0  0  0  0  0
   -0.1276    1.4942   -1.0302 C   0  0  0  0  0  0  0  0  0  0  0  0
   -0.9977    2.1472   -1.1571 H   0  0  0  0  0  0  0  0  0  0  0  0
    0.7596    2.1306   -0.9339 H   0  0  0  0  0  0  0  0  0  0  0  0
    0.0346    0.6029   -2.2798 C   0  0  0  0  0  0  0  0  0  0  0  0
    0.9204   -0.0278   -2.1611 H   0  0  0  0  0  0  0  0  0  0  0  0
   -0.8299   -0.0589   -2.3801 H   0  0  0  0  0  0  0  0  0  0  0  0
    0.1769    1.3914   -3.5823 C   0  0  0  0  0  0  0  0  0  0  0  0
    0.0273    2.6032   -3.5770 O   0  0  0  0  0  0  0  0  0  0  0  0
    0.4590    0.6813   -4.6978 O   0  0  0  0  0  0  0  0  0  0  0  0
    0.5175    1.3263   -5.4189 H   0  0  0  0  0  0  0  0  0  0  0  0
   -0.1774    1.5212    1.5308 C   0  0  0  0  0  0  0  0  0  0  0  0
    0.2297    1.0352    2.5746 O   0  0  0  0  0  0  0  0  0  0  0  0
   -0.6102    2.8370    1.5422 N   0  0  0  0  0  0  0  0  0  0  0  0
   -0.9079    3.2420    0.6603 H   0  0  0  0  0  0  0  0  0  0  0  0
   -0.5299    3.6941    2.7198 C   0  0  0  0  0  0  0  0  0  0  0  0
    0.5123    3.8197    3.0322 H   0  0  0  0  0  0  0  0  0  0  0  0
   -0.9468    4.6816    2.4993 H   0  0  0  0  0  0  0  0  0  0  0  0
   -1.0961    3.2589    3.5503 H   0  0  0  0  0  0  0  0  0  0  0  0
  1  2  1  0  0  0  0
  2  3  1  0  0  0  0
  2  4  1  0  0  0  0
  2  5  1  0  0  0  0
  5  6  2  0  0  0  0
  5  7  1  0  0  0  0
  7  8  1  0  0  0  0
  7  9  1  0  0  0  0
  9 10  1  0  0  0  0
  9 11  1  0  0  0  0
  9 21  1  0  0  0  0
 11 12  1  0  0  0  0
 11 13  1  0  0  0  0
 11 14  1  0  0  0  0
 14 15  1  0  0  0  0
 14 16  1  0  0  0  0
 14 17  1  0  0  0  0
 17 18  2  0  0  0  0
 17 19  1  0  0  0  0
 19 20  1  0  0  0  0
 21 22  2  0  0  0  0
 21 23  1  0  0  0  0
 23 24  1  0  0  0  0
 23 25  1  0  0  0  0
 25 26  1  0  0  0  0
 25 27  1  0  0  0  0
 25 28  1  0  0  0  0
M  END
$$$$

  -OEChem-01062216073D

 28 27  0     1  0  0  0  0  0999 V2000
   -3.1467   -2.9016    1.3200 H   0  0  0  0  0  0  0  0  0  0  0  0
   -3.1763   -1.9106    0.8577 C   0  0  0  0  0  0  0  0  0  0  0  0
   -3.8028   -1.2572    1.4695 H   0  0  0  0  0  0  0  0  0  0  0  0
   -3.6153   -2.0006   -0.1388 H   0  0  0  0  0  0  0  0  0  0  0  0
   -1.7736   -1.3411    0.7574 C   0  0  0  0  0  0  0  0  0  0  0  0
   -0.8222   -2.0149    1.1107 O   0  0  0  0  0  0  0  0  0  0  0  0
   -1.5872   -0.0785    0.2280 N   0  0  0  0  0  0  0  0  0  0  0  0
   -2.4299    0.4454    0.0167 H   0  0  0  0  0  0  0  0  0  0  0  0
   -0.3041    0.6470    0.2862 C   0  0  1  0  0  0  0  0  0  0  0  0
    0.5275   -0.0673    0.3191 H   0  0  0  0  0  0  0  0  0  0  0  0
   -0.1447    1.4929   -0.9888 C   0  0  0  0  0  0  0  0  0  0  0  0
   -1.0144    2.1471   -1.1094 H   0  0  0  0  0  0  0  0  0  0  0  0
    0.7409    2.1309   -0.8865 H   0  0  0  0  0  0  0  0  0  0  0  0
    0.0190    0.6114   -2.2454 C   0  0  0  0  0  0  0  0  0  0  0  0
    0.9078   -0.0162   -2.1323 H   0  0  0  0  0  0  0  0  0  0  0  0
   -0.8428   -0.0529   -2.3502 H   0  0  0  0  0  0  0  0  0  0  0  0
    0.1570    1.4089   -3.5428 C   0  0  0  0  0  0  0  0  0  0  0  0
    0.0035    2.6199   -3.5304 O   0  0  0  0  0  0  0  0  0  0  0  0
    0.4413    0.7064   -4.6626 O   0  0  0  0  0  0  0  0  0  0  0  0
    0.5027    1.3567   -5.3786 H   0  0  0  0  0  0  0  0  0  0  0  0
   -0.1821    1.5167    1.5579 C   0  0  0  0  0  0  0  0  0  0  0  0
    0.5583    1.1870    2.4717 O   0  0  0  0  0  0  0  0  0  0  0  0
   -0.8834    2.7060    1.6673 N   0  0  0  0  0  0  0  0  0  0  0  0
   -1.4307    3.0050    0.8670 H   0  0  0  0  0  0  0  0  0  0  0  0
   -0.7585    3.6014    2.8116 C   0  0  0  0  0  0  0  0  0  0  0  0
    0.2728    3.9568    2.9088 H   0  0  0  0  0  0  0  0  0  0  0  0
   -1.4137    4.4690    2.6880 H   0  0  0  0  0  0  0  0  0  0  0  0
   -1.0409    3.0845    3.7349 H   0  0  0  0  0  0  0  0  0  0  0  0
  1  2  1  0  0  0  0
  2  3  1  0  0  0  0
  2  4  1  0  0  0  0
  2  5  1  0  0  0  0
  5  6  2  0  0  0  0
  5  7  1  0  0  0  0
  7  8  1  0  0  0  0
  7  9  1  0  0  0  0
  9 10  1  0  0  0  0
  9 11  1  0  0  0  0
  9 21  1  0  0  0  0
 11 12  1  0  0  0  0
 11 13  1  0  0  0  0
 11 14  1  0  0  0  0
 14 15  1  0  0  0  0
 14 16  1  0  0  0  0
 14 17  1  0  0  0  0
 17 18  2  0  0  0  0
 17 19  1  0  0  0  0
 19 20  1  0  0  0  0
 21 22  2  0  0  0  0
 21 23  1  0  0  0  0
 23 24  1  0  0  0  0
 23 25  1  0  0  0  0
 25 26  1  0  0  0  0
 25 27  1  0  0  0  0
 25 28  1  0  0  0  0
M  END
$$$$

  -OEChem-01062216073D

 28 27  0     1  0  0  0  0  0999 V2000
   -3.1557   -2.9743    1.1680 H   0  0  0  0  0  0  0  0  0  0  0  0
   -3.1748   -1.9782    0.7164 C   0  0  0  0  0  0  0  0  0  0  0  0
   -3.9161   -1.3697    1.2397 H   0  0  0  0  0  0  0  0  0  0  0  0
   -3.4639   -2.0742   -0.3328 H   0  0  0  0  0  0  0  0  0  0  0  0
   -1.8063   -1.3321    0.8216 C   0  0  0  0  0  0  0  0  0  0  0  0
   -0.8939   -1.9299    1.3629 O   0  0  0  0  0  0  0  0  0  0  0  0
   -1.6021   -0.0755    0.2866 N   0  0  0  0  0  0  0  0  0  0  0  0
   -2.3908    0.3584   -0.1814 H   0  0  0  0  0  0  0  0  0  0  0  0
   -0.3127    0.6401    0.3306 C   0  0  1  0  0  0  0  0  0  0  0  0
    0.5101   -0.0849    0.3540 H   0  0  0  0  0  0  0  0  0  0  0  0
   -0.1595    1.4900   -0.9416 C   0  0  0  0  0  0  0  0  0  0  0  0
   -1.0214    2.1575   -1.0462 H   0  0  0  0  0  0  0  0  0  0  0  0
    0.7341    2.1181   -0.8454 H   0  0  0  0  0  0  0  0  0  0  0  0
   -0.0174    0.6115   -2.2029 C   0  0  0  0  0  0  0  0  0  0  0  0
    0.8673   -0.0237   -2.1004 H   0  0  0  0  0  0  0  0  0  0  0  0
   -0.8857   -0.0448   -2.3010 H   0  0  0  0  0  0  0  0  0  0  0  0
    0.1142    1.4092   -3.5010 C   0  0  0  0  0  0  0  0  0  0  0  0
   -0.0276    2.6213   -3.4875 O   0  0  0  0  0  0  0  0  0  0  0  0
    0.3780    0.7034   -4.6239 O   0  0  0  0  0  0  0  0  0  0  0  0
    0.4417    1.3539   -5.3399 H   0  0  0  0  0  0  0  0  0  0  0  0
   -0.1587    1.5197    1.5904 C   0  0  0  0  0  0  0  0  0  0  0  0
    0.8377    1.4260    2.2919 O   0  0  0  0  0  0  0  0  0  0  0  0
   -1.0563    2.5424    1.8444 N   0  0  0  0  0  0  0  0  0  0  0  0
   -1.8616    2.6224    1.2338 H   0  0  0  0  0  0  0  0  0  0  0  0
   -0.9161    3.4701    2.9608 C   0  0  0  0  0  0  0  0  0  0  0  0
    0.0257    4.0236    2.8831 H   0  0  0  0  0  0  0  0  0  0  0  0
   -1.7401    4.1898    2.9619 H   0  0  0  0  0  0  0  0  0  0  0  0
   -0.9282    2.9278    3.9122 H   0  0  0  0  0  0  0  0  0  0  0  0
  1  2  1  0  0  0  0
  2  3  1  0  0  0  0
  2  4  1  0  0  0  0
  2  5  1  0  0  0  0
  5  6  2  0  0  0  0
  5  7  1  0  0  0  0
  7  8  1  0  0  0  0
  7  9  1  0  0  0  0
  9 10  1  0  0  0  0
  9 11  1  0  0  0  0
  9 21  1  0  0  0  0
 11 12  1  0  0  0  0
 11 13  1  0  0  0  0
 11 14  1  0  0  0  0
 14 15  1  0  0  0  0
 14 16  1  0  0  0  0
 14 17  1  0  0  0  0
 17 18  2  0  0  0  0
 17 19  1  0  0  0  0
 19 20  1  0  0  0  0
 21 22  2  0  0  0  0
 21 23  1  0  0  0  0
 23 24  1  0  0  0  0
 23 25  1  0  0  0  0
 25 26  1  0  0  0  0
 25 27  1  0  0  0  0
 25 28  1  0  0  0  0
M  END
$$$$

  -OEChem-01062216073D

 28 27  0     1  0  0  0  0  0999 V2000
   -3.1409   -2.9951    1.1008 H   0  0  0  0  0  0  0  0  0  0  0  0
   -3.1596   -2.0022    0.6424 C   0  0  0  0  0  0  0  0  0  0  0  0
   -3.9636   -1.4196    1.0985 H   0  0  0  0  0  0  0  0  0  0  0  0
   -3.3577   -2.1132   -0.4264 H   0  0  0  0  0  0  0  0  0  0  0  0
   -1.8290   -1.3056    0.8553 C   0  0  0  0  0  0  0  0  0  0  0  0
   -0.9552   -1.8491    1.5063 O   0  0  0  0  0  0  0  0  0  0  0  0
   -1.6166   -0.0550    0.3101 N   0  0  0  0  0  0  0  0  0  0  0  0
   -2.3433    0.3063   -0.2998 H   0  0  0  0  0  0  0  0  0  0  0  0
   -0.3162    0.6414    0.3468 C   0  0  1  0  0  0  0  0  0  0  0  0
    0.4959   -0.0954    0.3676 H   0  0  0  0  0  0  0  0  0  0  0  0
   -0.1613    1.4894   -0.9259 C   0  0  0  0  0  0  0  0  0  0  0  0
   -1.0135    2.1711   -1.0199 H   0  0  0  0  0  0  0  0  0  0  0  0
    0.7426    2.1041   -0.8369 H   0  0  0  0  0  0  0  0  0  0  0  0
   -0.0416    0.6094   -2.1889 C   0  0  0  0  0  0  0  0  0  0  0  0
    0.8360   -0.0365   -2.0933 H   0  0  0  0  0  0  0  0  0  0  0  0
   -0.9189   -0.0354   -2.2804 H   0  0  0  0  0  0  0  0  0  0  0  0
    0.0907    1.4040   -3.4886 C   0  0  0  0  0  0  0  0  0  0  0  0
   -0.0337    2.6176   -3.4763 O   0  0  0  0  0  0  0  0  0  0  0  0
    0.3322    0.6921   -4.6127 O   0  0  0  0  0  0  0  0  0  0  0  0
    0.3980    1.3409   -5.3301 H   0  0  0  0  0  0  0  0  0  0  0  0
   -0.1395    1.5257    1.5990 C   0  0  0  0  0  0  0  0  0  0  0  0
    0.9658    1.6540    2.1056 O   0  0  0  0  0  0  0  0  0  0  0  0
   -1.1679    2.3494    2.0208 N   0  0  0  0  0  0  0  0  0  0  0  0
   -2.0836    2.1798    1.6196 H   0  0  0  0  0  0  0  0  0  0  0  0
   -1.0497    3.2477    3.1630 C   0  0  0  0  0  0  0  0  0  0  0  0
   -0.2308    3.9584    3.0087 H   0  0  0  0  0  0  0  0  0  0  0  0
   -1.9760    3.8144    3.2972 H   0  0  0  0  0  0  0  0  0  0  0  0
   -0.8540    2.6791    4.0783 H   0  0  0  0  0  0  0  0  0  0  0  0
  1  2  1  0  0  0  0
  2  3  1  0  0  0  0
  2  4  1  0  0  0  0
  2  5  1  0  0  0  0
  5  6  2  0  0  0  0
  5  7  1  0  0  0  0
  7  8  1  0  0  0  0
  7  9  1  0  0  0  0
  9 10  1  0  0  0  0
  9 11  1  0  0  0  0
  9 21  1  0  0  0  0
 11 12  1  0  0  0  0
 11 13  1  0  0  0  0
 11 14  1  0  0  0  0
 14 15  1  0  0  0  0
 14 16  1  0  0  0  0
 14 17  1  0  0  0  0
 17 18  2  0  0  0  0
 17 19  1  0  0  0  0
 19 20  1  0  0  0  0
 21 22  2  0  0  0  0
 21 23  1  0  0  0  0
 23 24  1  0  0  0  0
 23 25  1  0  0  0  0
 25 26  1  0  0  0  0
 25 27  1  0  0  0  0
 25 28  1  0  0  0  0
M  END
$$$$

  -OEChem-01062216073D

 28 27  0     1  0  0  0  0  0999 V2000
   -3.1357   -3.0038    1.0621 H   0  0  0  0  0  0  0  0  0  0  0  0
   -3.1542   -2.0095    0.6064 C   0  0  0  0  0  0  0  0  0  0  0  0
   -3.9783   -1.4389    1.0412 H   0  0  0  0  0  0  0  0  0  0  0  0
   -3.3213   -2.1194   -0.4679 H   0  0  0  0  0  0  0  0  0  0  0  0
   -1.8391   -1.2965    0.8579 C   0  0  0  0  0  0  0  0  0  0  0  0
   -0.9845   -1.8183    1.5512 O   0  0  0  0  0  0  0  0  0  0  0  0
   -1.6213   -0.0474    0.3119 N   0  0  0  0  0  0  0  0  0  0  0  0
   -2.3266    0.2977   -0.3321 H   0  0  0  0  0  0  0  0  0  0  0  0
   -0.3161    0.6414    0.3523 C   0  0  1  0  0  0  0  0  0  0  0  0
    0.4928   -0.0985    0.3731 H   0  0  0  0  0  0  0  0  0  0  0  0
   -0.1623    1.4884   -0.9219 C   0  0  0  0  0  0  0  0  0  0  0  0
   -1.0126    2.1734   -1.0121 H   0  0  0  0  0  0  0  0  0  0  0  0
    0.7436    2.1007   -0.8375 H   0  0  0  0  0  0  0  0  0  0  0  0
   -0.0492    0.6074   -2.1852 C   0  0  0  0  0  0  0  0  0  0  0  0
    0.8273   -0.0407   -2.0921 H   0  0  0  0  0  0  0  0  0  0  0  0
   -0.9278   -0.0357   -2.2746 H   0  0  0  0  0  0  0  0  0  0  0  0
    0.0817    1.4014   -3.4855 C   0  0  0  0  0  0  0  0  0  0  0  0
   -0.0386    2.6153   -3.4744 O   0  0  0  0  0  0  0  0  0  0  0  0
    0.3131    0.6873   -4.6101 O   0  0  0  0  0  0  0  0  0  0  0  0
    0.3785    1.3359   -5.3278 H   0  0  0  0  0  0  0  0  0  0  0  0
   -0.1319    1.5265    1.6034 C   0  0  0  0  0  0  0  0  0  0  0  0
    0.9921    1.8551    1.9564 O   0  0  0  0  0  0  0  0  0  0  0  0
   -1.2256    2.1188    2.2082 N   0  0  0  0  0  0  0  0  0  0  0  0
   -2.1355    1.7524    1.9498 H   0  0  0  0  0  0  0  0  0  0  0  0
   -1.1153    2.9792    3.3800 C   0  0  0  0  0  0  0  0  0  0  0  0
   -0.4717    3.8390    3.1651 H   0  0  0  0  0  0  0  0  0  0  0  0
   -2.1019    3.3530    3.6703 H   0  0  0  0  0  0  0  0  0  0  0  0
   -0.6911    2.4243    4.2235 H   0  0  0  0  0  0  0  0  0  0  0  0
  1  2  1  0  0  0  0
  2  3  1  0  0  0  0
  2  4  1  0  0  0  0
  2  5  1  0  0  0  0
  5  6  2  0  0  0  0
  5  7  1  0  0  0  0
  7  8  1  0  0  0  0
  7  9  1  0  0  0  0
  9 10  1  0  0  0  0
  9 11  1  0  0  0  0
  9 21  1  0  0  0  0
 11 12  1  0  0  0  0
 11 13  1  0  0  0  0
 11 14  1  0  0  0  0
 14 15  1  0  0  0  0
 14 16  1  0  0  0  0
 14 17  1  0  0  0  0
 17 18  2  0  0  0  0
 17 19  1  0  0  0  0
 19 20  1  0  0  0  0
 21 22  2  0  0  0  0
 21 23  1  0  0  0  0
 23 24  1  0  0  0  0
 23 25  1  0  0  0  0
 25 26  1  0  0  0  0
 25 27  1  0  0  0  0
 25 28  1  0  0  0  0
M  END
$$$$

  -OEChem-01062216073D

 28 27  0     1  0  0  0  0  0999 V2000
   -3.1350   -2.9997    1.0392 H   0  0  0  0  0  0  0  0  0  0  0  0
   -3.1526   -2.0047    0.5850 C   0  0  0  0  0  0  0  0  0  0  0  0
   -3.9839   -1.4380    1.0115 H   0  0  0  0  0  0  0  0  0  0  0  0
   -3.3075   -2.1136   -0.4911 H   0  0  0  0  0  0  0  0  0  0  0  0
   -1.8431   -1.2872    0.8518 C   0  0  0  0  0  0  0  0  0  0  0  0
   -1.0002   -1.7985    1.5670 O   0  0  0  0  0  0  0  0  0  0  0  0
   -1.6202   -0.0385    0.3078 N   0  0  0  0  0  0  0  0  0  0  0  0
   -2.3226    0.3122   -0.3369 H   0  0  0  0  0  0  0  0  0  0  0  0
   -0.3131    0.6480    0.3535 C   0  0  1  0  0  0  0  0  0  0  0  0
    0.4950   -0.0924    0.3761 H   0  0  0  0  0  0  0  0  0  0  0  0
   -0.1632    1.4907   -0.9256 C   0  0  0  0  0  0  0  0  0  0  0  0
   -1.0146    2.1744   -1.0160 H   0  0  0  0  0  0  0  0  0  0  0  0
    0.7420    2.1050   -0.8483 H   0  0  0  0  0  0  0  0  0  0  0  0
   -0.0512    0.6051   -2.1858 C   0  0  0  0  0  0  0  0  0  0  0  0
    0.8267   -0.0407   -2.0921 H   0  0  0  0  0  0  0  0  0  0  0  0
   -0.9288   -0.0399   -2.2715 H   0  0  0  0  0  0  0  0  0  0  0  0
    0.0756    1.3941   -3.4895 C   0  0  0  0  0  0  0  0  0  0  0  0
   -0.0467    2.6077   -3.4834 O   0  0  0  0  0  0  0  0  0  0  0  0
    0.3050    0.6755   -4.6118 O   0  0  0  0  0  0  0  0  0  0  0  0
    0.3661    1.3217   -5.3320 H   0  0  0  0  0  0  0  0  0  0  0  0
   -0.1279    1.5340    1.6059 C   0  0  0  0  0  0  0  0  0  0  0  0
    0.9585    2.0474    1.8361 O   0  0  0  0  0  0  0  0  0  0  0  0
   -1.2135    1.8781    2.3899 N   0  0  0  0  0  0  0  0  0  0  0  0
   -2.0589    1.3377    2.2388 H   0  0  0  0  0  0  0  0  0  0  0  0
   -1.0958    2.6820    3.6001 C   0  0  0  0  0  0  0  0  0  0  0  0
   -0.6631    3.6614    3.3695 H   0  0  0  0  0  0  0  0  0  0  0  0
   -2.0815    2.8389    4.0482 H   0  0  0  0  0  0  0  0  0  0  0  0
   -0.4569    2.1780    4.3331 H   0  0  0  0  0  0  0  0  0  0  0  0
  1  2  1  0  0  0  0
  2  3  1  0  0  0  0
  2  4  1  0  0  0  0
  2  5  1  0  0  0  0
  5  6  2  0  0  0  0
  5  7  1  0  0  0  0
  7  8  1  0  0  0  0
  7  9  1  0  0  0  0
  9 10  1  0  0  0  0
  9 11  1  0  0  0  0
  9 21  1  0  0  0  0
 11 12  1  0  0  0  0
 11 13  1  0  0  0  0
 11 14  1  0  0  0  0
 14 15  1  0  0  0  0
 14 16  1  0  0  0  0
 14 17  1  0  0  0  0
 17 18  2  0  0  0  0
 17 19  1  0  0  0  0
 19 20  1  0  0  0  0
 21 22  2  0  0  0  0
 21 23  1  0  0  0  0
 23 24  1  0  0  0  0
 23 25  1  0  0  0  0
 25 26  1  0  0  0  0
 25 27  1  0  0  0  0
 25 28  1  0  0  0  0
M  END
$$$$

  -OEChem-01062216073D

 28 27  0     1  0  0  0  0  0999 V2000
   -3.1367   -2.9920    1.0200 H   0  0  0  0  0  0  0  0  0  0  0  0
   -3.1536   -1.9964    0.5672 C   0  0  0  0  0  0  0  0  0  0  0  0
   -3.9887   -1.4319    0.9891 H   0  0  0  0  0  0  0  0  0  0  0  0
   -3.3018   -2.1041   -0.5101 H   0  0  0  0  0  0  0  0  0  0  0  0
   -1.8472   -1.2765    0.8427 C   0  0  0  0  0  0  0  0  0  0  0  0
   -1.0145   -1.7767    1.5775 O   0  0  0  0  0  0  0  0  0  0  0  0
   -1.6218   -0.0258    0.3057 N   0  0  0  0  0  0  0  0  0  0  0  0
   -2.3307    0.3390   -0.3241 H   0  0  0  0  0  0  0  0  0  0  0  0
   -0.3156    0.6623    0.3536 C   0  0  1  0  0  0  0  0  0  0  0  0
    0.4925   -0.0775    0.3772 H   0  0  0  0  0  0  0  0  0  0  0  0
   -0.1685    1.4972   -0.9331 C   0  0  0  0  0  0  0  0  0  0  0  0
   -1.0215    2.1783   -1.0272 H   0  0  0  0  0  0  0  0  0  0  0  0
    0.7349    2.1149   -0.8643 H   0  0  0  0  0  0  0  0  0  0  0  0
   -0.0532    0.6036   -2.1881 C   0  0  0  0  0  0  0  0  0  0  0  0
    0.8264   -0.0392   -2.0904 H   0  0  0  0  0  0  0  0  0  0  0  0
   -0.9292   -0.0441   -2.2696 H   0  0  0  0  0  0  0  0  0  0  0  0
    0.0709    1.3842   -3.4974 C   0  0  0  0  0  0  0  0  0  0  0  0
   -0.0555    2.5973   -3.5005 O   0  0  0  0  0  0  0  0  0  0  0  0
    0.3085    0.6589   -4.6138 O   0  0  0  0  0  0  0  0  0  0  0  0
    0.3714    1.3006   -5.3379 H   0  0  0  0  0  0  0  0  0  0  0  0
   -0.1313    1.5440    1.6119 C   0  0  0  0  0  0  0  0  0  0  0  0
    0.8670    2.2408    1.7358 O   0  0  0  0  0  0  0  0  0  0  0  0
   -1.1317    1.6335    2.5622 N   0  0  0  0  0  0  0  0  0  0  0  0
   -1.8547    0.9230    2.5048 H   0  0  0  0  0  0  0  0  0  0  0  0
   -0.9813    2.3842    3.8026 C   0  0  0  0  0  0  0  0  0  0  0  0
   -0.7802    3.4397    3.5901 H   0  0  0  0  0  0  0  0  0  0  0  0
   -1.8979    2.3223    4.3967 H   0  0  0  0  0  0  0  0  0  0  0  0
   -0.1541    1.9804    4.3959 H   0  0  0  0  0  0  0  0  0  0  0  0
  1  2  1  0  0  0  0
  2  3  1  0  0  0  0
  2  4  1  0  0  0  0
  2  5  1  0  0  0  0
  5  6  2  0  0  0  0
  5  7  1  0  0  0  0
  7  8  1  0  0  0  0
  7  9  1  0  0  0  0
  9 10  1  0  0  0  0
  9 11  1  0  0  0  0
  9 21  1  0  0  0  0
 11 12  1  0  0  0  0
 11 13  1  0  0  0  0
 11 14  1  0  0  0  0
 14 15  1  0  0  0  0
 14 16  1  0  0  0  0
 14 17  1  0  0  0  0
 17 18  2  0  0  0  0
 17 19  1  0  0  0  0
 19 20  1  0  0  0  0
 21 22  2  0  0  0  0
 21 23  1  0  0  0  0
 23 24  1  0  0  0  0
 23 25  1  0  0  0  0
 25 26  1  0  0  0  0
 25 27  1  0  0  0  0
 25 28  1  0  0  0  0
M  END
$$$$

  -OEChem-01062216073D

 28 27  0     1  0  0  0  0  0999 V2000
   -3.1415   -2.9715    1.0095 H   0  0  0  0  0  0  0  0  0  0  0  0
   -3.1522   -1.9790    0.5499 C   0  0  0  0  0  0  0  0  0  0  0  0
   -3.9935   -1.4119    0.9554 H   0  0  0  0  0  0  0  0  0  0  0  0
   -3.2837   -2.0936   -0.5287 H   0  0  0  0  0  0  0  0  0  0  0  0
   -1.8508   -1.2566    0.8405 C   0  0  0  0  0  0  0  0  0  0  0  0
   -1.0333   -1.7417    1.6029 O   0  0  0  0  0  0  0  0  0  0  0  0
   -1.6204   -0.0045    0.3116 N   0  0  0  0  0  0  0  0  0  0  0  0
   -2.3316    0.3701   -0.3099 H   0  0  0  0  0  0  0  0  0  0  0  0
   -0.3110    0.6777    0.3556 C   0  0  1  0  0  0  0  0  0  0  0  0
    0.4933   -0.0661    0.3762 H   0  0  0  0  0  0  0  0  0  0  0  0
   -0.1658    1.5071   -0.9364 C   0  0  0  0  0  0  0  0  0  0  0  0
   -1.0169    2.1905   -1.0303 H   0  0  0  0  0  0  0  0  0  0  0  0
    0.7400    2.1218   -0.8773 H   0  0  0  0  0  0  0  0  0  0  0  0
   -0.0586    0.6048   -2.1857 C   0  0  0  0  0  0  0  0  0  0  0  0
    0.8187   -0.0409   -2.0865 H   0  0  0  0  0  0  0  0  0  0  0  0
   -0.9378   -0.0395   -2.2596 H   0  0  0  0  0  0  0  0  0  0  0  0
    0.0636    1.3738   -3.5017 C   0  0  0  0  0  0  0  0  0  0  0  0
   -0.0578    2.5872   -3.5160 O   0  0  0  0  0  0  0  0  0  0  0  0
    0.2917    0.6366   -4.6122 O   0  0  0  0  0  0  0  0  0  0  0  0
    0.3510    1.2709   -5.3431 H   0  0  0  0  0  0  0  0  0  0  0  0
   -0.1254    1.5474    1.6243 C   0  0  0  0  0  0  0  0  0  0  0  0
    0.7276    2.4245    1.6646 O   0  0  0  0  0  0  0  0  0  0  0  0
   -0.9717    1.3893    2.7061 N   0  0  0  0  0  0  0  0  0  0  0  0
   -1.5106    0.5266    2.7091 H   0  0  0  0  0  0  0  0  0  0  0  0
   -0.7925    2.1046    3.9634 C   0  0  0  0  0  0  0  0  0  0  0  0
   -0.8356    3.1865    3.7985 H   0  0  0  0  0  0  0  0  0  0  0  0
   -1.5833    1.8331    4.6692 H   0  0  0  0  0  0  0  0  0  0  0  0
    0.1752    1.8550    4.4113 H   0  0  0  0  0  0  0  0  0  0  0  0
  1  2  1  0  0  0  0
  2  3  1  0  0  0  0
  2  4  1  0  0  0  0
  2  5  1  0  0  0  0
  5  6  2  0  0  0  0
  5  7  1  0  0  0  0
  7  8  1  0  0  0  0
  7  9  1  0  0  0  0
  9 10  1  0  0  0  0
  9 11  1  0  0  0  0
  9 21  1  0  0  0  0
 11 12  1  0  0  0  0
 11 13  1  0  0  0  0
 11 14  1  0  0  0  0
 14 15  1  0  0  0  0
 14 16  1  0  0  0  0
 14 17  1  0  0  0  0
 17 18  2  0  0  0  0
 17 19  1  0  0  0  0
 19 20  1  0  0  0  0
 21 22  2  0  0  0  0
 21 23  1  0  0  0  0
 23 24  1  0  0  0  0
 23 25  1  0  0  0  0
 25 26  1  0  0  0  0
 25 27  1  0  0  0  0
 25 28  1  0  0  0  0
M  END
$$$$

  -OEChem-01062216073D

 28 27  0     1  0  0  0  0  0999 V2000
   -3.1444   -2.9488    1.0275 H   0  0  0  0  0  0  0  0  0  0  0  0
   -3.1565   -1.9522    0.5771 C   0  0  0  0  0  0  0  0  0  0  0  0
   -3.9855   -1.3825    1.0043 H   0  0  0  0  0  0  0  0  0  0  0  0
   -3.3111   -2.0561   -0.4996 H   0  0  0  0  0  0  0  0  0  0  0  0
   -1.8440   -1.2420    0.8474 C   0  0  0  0  0  0  0  0  0  0  0  0
   -1.0232   -1.7270    1.6080 O   0  0  0  0  0  0  0  0  0  0  0  0
   -1.6103    0.0096    0.3196 N   0  0  0  0  0  0  0  0  0  0  0  0
   -2.3357    0.4026   -0.2734 H   0  0  0  0  0  0  0  0  0  0  0  0
   -0.2988    0.6875    0.3518 C   0  0  1  0  0  0  0  0  0  0  0  0
    0.5043   -0.0578    0.3698 H   0  0  0  0  0  0  0  0  0  0  0  0
   -0.1548    1.5113   -0.9445 C   0  0  0  0  0  0  0  0  0  0  0  0
   -1.0027    2.1991   -1.0370 H   0  0  0  0  0  0  0  0  0  0  0  0
    0.7545    2.1212   -0.8906 H   0  0  0  0  0  0  0  0  0  0  0  0
   -0.0567    0.6044   -2.1914 C   0  0  0  0  0  0  0  0  0  0  0  0
    0.8178   -0.0452   -2.0945 H   0  0  0  0  0  0  0  0  0  0  0  0
   -0.9390   -0.0361   -2.2596 H   0  0  0  0  0  0  0  0  0  0  0  0
    0.0638    1.3699   -3.5100 C   0  0  0  0  0  0  0  0  0  0  0  0
   -0.0522    2.5838   -3.5269 O   0  0  0  0  0  0  0  0  0  0  0  0
    0.2885    0.6300   -4.6194 O   0  0  0  0  0  0  0  0  0  0  0  0
    0.3482    1.2640   -5.3507 H   0  0  0  0  0  0  0  0  0  0  0  0
   -0.1174    1.5483    1.6275 C   0  0  0  0  0  0  0  0  0  0  0  0
    0.5331    2.5854    1.6133 O   0  0  0  0  0  0  0  0  0  0  0  0
   -0.7479    1.1700    2.7978 N   0  0  0  0  0  0  0  0  0  0  0  0
   -1.1018    0.2136    2.8075 H   0  0  0  0  0  0  0  0  0  0  0  0
   -0.5516    1.8581    4.0673 C   0  0  0  0  0  0  0  0  0  0  0  0
   -0.8582    2.9062    3.9863 H   0  0  0  0  0  0  0  0  0  0  0  0
   -1.1505    1.3839    4.8506 H   0  0  0  0  0  0  0  0  0  0  0  0
    0.5017    1.8214    4.3645 H   0  0  0  0  0  0  0  0  0  0  0  0
  1  2  1  0  0  0  0
  2  3  1  0  0  0  0
  2  4  1  0  0  0  0
  2  5  1  0  0  0  0
  5  6  2  0  0  0  0
  5  7  1  0  0  0  0
  7  8  1  0  0  0  0
  7  9  1  0  0  0  0
  9 10  1  0  0  0  0
  9 11  1  0  0  0  0
  9 21  1  0  0  0  0
 11 12  1  0  0  0  0
 11 13  1  0  0  0  0
 11 14  1  0  0  0  0
 14 15  1  0  0  0  0
 14 16  1  0  0  0  0
 14 17  1  0  0  0  0
 17 18  2  0  0  0  0
 17 19  1  0  0  0  0
 19 20  1  0  0  0  0
 21 22  2  0  0  0  0
 21 23  1  0  0  0  0
 23 24  1  0  0  0  0
 23 25  1  0  0  0  0
 25 26  1  0  0  0  0
 25 27  1  0  0  0  0
 25 28  1  0  0  0  0
M  END
$$$$

  -OEChem-01062216073D

 28 27  0     1  0  0  0  0  0999 V2000
   -3.1453   -2.9205    1.0868 H   0  0  0  0  0  0  0  0  0  0  0  0
   -3.1544   -1.9278    0.6279 C   0  0  0  0  0  0  0  0  0  0  0  0
   -3.9620   -1.3412    1.0729 H   0  0  0  0  0  0  0  0  0  0  0  0
   -3.3405   -2.0381   -0.4431 H   0  0  0  0  0  0  0  0  0  0  0  0
   -1.8240   -1.2360    0.8545 C   0  0  0  0  0  0  0  0  0  0  0  0
   -0.9786   -1.7413    1.5757 O   0  0  0  0  0  0  0  0  0  0  0  0
   -1.5930    0.0154    0.3240 N   0  0  0  0  0  0  0  0  0  0  0  0
   -2.3398    0.4336   -0.2238 H   0  0  0  0  0  0  0  0  0  0  0  0
   -0.2803    0.6885    0.3433 C   0  0  1  0  0  0  0  0  0  0  0  0
    0.5227   -0.0568    0.3558 H   0  0  0  0  0  0  0  0  0  0  0  0
   -0.1380    1.5138   -0.9519 C   0  0  0  0  0  0  0  0  0  0  0  0
   -0.9828    2.2061   -1.0397 H   0  0  0  0  0  0  0  0  0  0  0  0
    0.7747    2.1188   -0.8986 H   0  0  0  0  0  0  0  0  0  0  0  0
   -0.0515    0.6082   -2.2005 C   0  0  0  0  0  0  0  0  0  0  0  0
    0.8188   -0.0478   -2.1088 H   0  0  0  0  0  0  0  0  0  0  0  0
   -0.9389   -0.0260   -2.2646 H   0  0  0  0  0  0  0  0  0  0  0  0
    0.0669    1.3740   -3.5189 C   0  0  0  0  0  0  0  0  0  0  0  0
   -0.0418    2.5886   -3.5340 O   0  0  0  0  0  0  0  0  0  0  0  0
    0.2822    0.6338   -4.6299 O   0  0  0  0  0  0  0  0  0  0  0  0
    0.3391    1.2676   -5.3614 H   0  0  0  0  0  0  0  0  0  0  0  0
   -0.1030    1.5420    1.6230 C   0  0  0  0  0  0  0  0  0  0  0  0
    0.3160    2.6918    1.5843 O   0  0  0  0  0  0  0  0  0  0  0  0
   -0.4646    0.9991    2.8410 N   0  0  0  0  0  0  0  0  0  0  0  0
   -0.6915    0.0031    2.8335 H   0  0  0  0  0  0  0  0  0  0  0  0
   -0.2720    1.6765    4.1162 C   0  0  0  0  0  0  0  0  0  0  0  0
   -0.8216    2.6235    4.1334 H   0  0  0  0  0  0  0  0  0  0  0  0
   -0.6380    1.0507    4.9357 H   0  0  0  0  0  0  0  0  0  0  0  0
    0.7904    1.8823    4.2840 H   0  0  0  0  0  0  0  0  0  0  0  0
  1  2  1  0  0  0  0
  2  3  1  0  0  0  0
  2  4  1  0  0  0  0
  2  5  1  0  0  0  0
  5  6  2  0  0  0  0
  5  7  1  0  0  0  0
  7  8  1  0  0  0  0
  7  9  1  0  0  0  0
  9 10  1  0  0  0  0
  9 11  1  0  0  0  0
  9 21  1  0  0  0  0
 11 12  1  0  0  0  0
 11 13  1  0  0  0  0
 11 14  1  0  0  0  0
 14 15  1  0  0  0  0
 14 16  1  0  0  0  0
 14 17  1  0  0  0  0
 17 18  2  0  0  0  0
 17 19  1  0  0  0  0
 19 20  1  0  0  0  0
 21 22  2  0  0  0  0
 21 23  1  0  0  0  0
 23 24  1  0  0  0  0
 23 25  1  0  0  0  0
 25 26  1  0  0  0  0
 25 27  1  0  0  0  0
 25 28  1  0  0  0  0
M  END
$$$$

  -OEChem-01062216073D

 28 27  0     1  0  0  0  0  0999 V2000
   -3.1360   -2.8855    1.1651 H   0  0  0  0  0  0  0  0  0  0  0  0
   -3.1431   -1.8963    0.6987 C   0  0  0  0  0  0  0  0  0  0  0  0
   -3.9152   -1.2874    1.1753 H   0  0  0  0  0  0  0  0  0  0  0  0
   -3.3807   -2.0104   -0.3617 H   0  0  0  0  0  0  0  0  0  0  0  0
   -1.7882   -1.2339    0.8585 C   0  0  0  0  0  0  0  0  0  0  0  0
   -0.9130   -1.7668    1.5236 O   0  0  0  0  0  0  0  0  0  0  0  0
   -1.5600    0.0162    0.3233 N   0  0  0  0  0  0  0  0  0  0  0  0
   -2.3303    0.4685   -0.1614 H   0  0  0  0  0  0  0  0  0  0  0  0
   -0.2449    0.6809    0.3282 C   0  0  1  0  0  0  0  0  0  0  0  0
    0.5580   -0.0647    0.3299 H   0  0  0  0  0  0  0  0  0  0  0  0
   -0.1101    1.5128   -0.9631 C   0  0  0  0  0  0  0  0  0  0  0  0
   -0.9526    2.2094   -1.0396 H   0  0  0  0  0  0  0  0  0  0  0  0
    0.8056    2.1136   -0.9121 H   0  0  0  0  0  0  0  0  0  0  0  0
   -0.0434    0.6128   -2.2168 C   0  0  0  0  0  0  0  0  0  0  0  0
    0.8226   -0.0504   -2.1365 H   0  0  0  0  0  0  0  0  0  0  0  0
   -0.9368   -0.0138   -2.2735 H   0  0  0  0  0  0  0  0  0  0  0  0
    0.0670    1.3828   -3.5335 C   0  0  0  0  0  0  0  0  0  0  0  0
   -0.0327    2.5981   -3.5434 O   0  0  0  0  0  0  0  0  0  0  0  0
    0.2613    0.6447   -4.6498 O   0  0  0  0  0  0  0  0  0  0  0  0
    0.3099    1.2802   -5.3805 H   0  0  0  0  0  0  0  0  0  0  0  0
   -0.0674    1.5279    1.6093 C   0  0  0  0  0  0  0  0  0  0  0  0
    0.1020    2.7400    1.5732 O   0  0  0  0  0  0  0  0  0  0  0  0
   -0.1267    0.8878    2.8319 N   0  0  0  0  0  0  0  0  0  0  0  0
   -0.2821   -0.1221    2.8087 H   0  0  0  0  0  0  0  0  0  0  0  0
    0.0086    1.5667    4.1134 C   0  0  0  0  0  0  0  0  0  0  0  0
   -0.7764    2.3209    4.2316 H   0  0  0  0  0  0  0  0  0  0  0  0
   -0.0763    0.8470    4.9333 H   0  0  0  0  0  0  0  0  0  0  0  0
    0.9842    2.0589    4.1846 H   0  0  0  0  0  0  0  0  0  0  0  0
  1  2  1  0  0  0  0
  2  3  1  0  0  0  0
  2  4  1  0  0  0  0
  2  5  1  0  0  0  0
  5  6  2  0  0  0  0
  5  7  1  0  0  0  0
  7  8  1  0  0  0  0
  7  9  1  0  0  0  0
  9 10  1  0  0  0  0
  9 11  1  0  0  0  0
  9 21  1  0  0  0  0
 11 12  1  0  0  0  0
 11 13  1  0  0  0  0
 11 14  1  0  0  0  0
 14 15  1  0  0  0  0
 14 16  1  0  0  0  0
 14 17  1  0  0  0  0
 17 18  2  0  0  0  0
 17 19  1  0  0  0  0
 19 20  1  0  0  0  0
 21 22  2  0  0  0  0
 21 23  1  0  0  0  0
 23 24  1  0  0  0  0
 23 25  1  0  0  0  0
 25 26  1  0  0  0  0
 25 27  1  0  0  0  0
 25 28  1  0  0  0  0
M  END
$$$$

  -OEChem-01062216073D

 28 27  0     1  0  0  0  0  0999 V2000
   -3.1151   -2.8607    1.2406 H   0  0  0  0  0  0  0  0  0  0  0  0
   -3.1271   -1.8759    0.7649 C   0  0  0  0  0  0  0  0  0  0  0  0
   -3.8676   -1.2500    1.2689 H   0  0  0  0  0  0  0  0  0  0  0  0
   -3.4128   -1.9952   -0.2830 H   0  0  0  0  0  0  0  0  0  0  0  0
   -1.7563   -1.2340    0.8587 C   0  0  0  0  0  0  0  0  0  0  0  0
   -0.8556   -1.7854    1.4737 O   0  0  0  0  0  0  0  0  0  0  0  0
   -1.5364    0.0140    0.3148 N   0  0  0  0  0  0  0  0  0  0  0  0
   -2.3277    0.4978   -0.1010 H   0  0  0  0  0  0  0  0  0  0  0  0
   -0.2218    0.6748    0.3107 C   0  0  1  0  0  0  0  0  0  0  0  0
    0.5826   -0.0688    0.3050 H   0  0  0  0  0  0  0  0  0  0  0  0
   -0.0921    1.5122   -0.9766 C   0  0  0  0  0  0  0  0  0  0  0  0
   -0.9345    2.2100   -1.0460 H   0  0  0  0  0  0  0  0  0  0  0  0
    0.8238    2.1123   -0.9248 H   0  0  0  0  0  0  0  0  0  0  0  0
   -0.0362    0.6179   -2.2349 C   0  0  0  0  0  0  0  0  0  0  0  0
    0.8277   -0.0488   -2.1632 H   0  0  0  0  0  0  0  0  0  0  0  0
   -0.9324   -0.0051   -2.2882 H   0  0  0  0  0  0  0  0  0  0  0  0
    0.0687    1.3927   -3.5490 C   0  0  0  0  0  0  0  0  0  0  0  0
   -0.0267    2.6085   -3.5532 O   0  0  0  0  0  0  0  0  0  0  0  0
    0.2566    0.6584   -4.6692 O   0  0  0  0  0  0  0  0  0  0  0  0
    0.3032    1.2963   -5.3978 H   0  0  0  0  0  0  0  0  0  0  0  0
   -0.0477    1.5220    1.5892 C   0  0  0  0  0  0  0  0  0  0  0  0
   -0.1314    2.7436    1.5772 O   0  0  0  0  0  0  0  0  0  0  0  0
    0.2057    0.8641    2.7767 N   0  0  0  0  0  0  0  0  0  0  0  0
    0.1344   -0.1546    2.7502 H   0  0  0  0  0  0  0  0  0  0  0  0
    0.3086    1.5377    4.0643 C   0  0  0  0  0  0  0  0  0  0  0  0
   -0.6230    2.0638    4.2978 H   0  0  0  0  0  0  0  0  0  0  0  0
    0.5035    0.8091    4.8570 H   0  0  0  0  0  0  0  0  0  0  0  0
    1.1293    2.2626    4.0521 H   0  0  0  0  0  0  0  0  0  0  0  0
  1  2  1  0  0  0  0
  2  3  1  0  0  0  0
  2  4  1  0  0  0  0
  2  5  1  0  0  0  0
  5  6  2  0  0  0  0
  5  7  1  0  0  0  0
  7  8  1  0  0  0  0
  7  9  1  0  0  0  0
  9 10  1  0  0  0  0
  9 11  1  0  0  0  0
  9 21  1  0  0  0  0
 11 12  1  0  0  0  0
 11 13  1  0  0  0  0
 11 14  1  0  0  0  0
 14 15  1  0  0  0  0
 14 16  1  0  0  0  0
 14 17  1  0  0  0  0
 17 18  2  0  0  0  0
 17 19  1  0  0  0  0
 19 20  1  0  0  0  0
 21 22  2  0  0  0  0
 21 23  1  0  0  0  0
 23 24  1  0  0  0  0
 23 25  1  0  0  0  0
 25 26  1  0  0  0  0
 25 27  1  0  0  0  0
 25 28  1  0  0  0  0
M  END
$$$$

  -OEChem-01062216073D

 28 27  0     1  0  0  0  0  0999 V2000
   -3.1069   -2.8392    1.3082 H   0  0  0  0  0  0  0  0  0  0  0  0
   -3.1226   -1.8580    0.8254 C   0  0  0  0  0  0  0  0  0  0  0  0
   -3.8203   -1.2115    1.3634 H   0  0  0  0  0  0  0  0  0  0  0  0
   -3.4670   -1.9782   -0.2047 H   0  0  0  0  0  0  0  0  0  0  0  0
   -1.7346   -1.2474    0.8391 C   0  0  0  0  0  0  0  0  0  0  0  0
   -0.8075   -1.8317    1.3798 O   0  0  0  0  0  0  0  0  0  0  0  0
   -1.5227    0.0005    0.2916 N   0  0  0  0  0  0  0  0  0  0  0  0
   -2.3352    0.5272   -0.0181 H   0  0  0  0  0  0  0  0  0  0  0  0
   -0.2113    0.6650    0.2902 C   0  0  1  0  0  0  0  0  0  0  0  0
    0.5968   -0.0745    0.2801 H   0  0  0  0  0  0  0  0  0  0  0  0
   -0.0829    1.5102   -0.9909 C   0  0  0  0  0  0  0  0  0  0  0  0
   -0.9292    2.2034   -1.0581 H   0  0  0  0  0  0  0  0  0  0  0  0
    0.8294    2.1147   -0.9341 H   0  0  0  0  0  0  0  0  0  0  0  0
   -0.0241    0.6226   -2.2532 C   0  0  0  0  0  0  0  0  0  0  0  0
    0.8403   -0.0436   -2.1843 H   0  0  0  0  0  0  0  0  0  0  0  0
   -0.9197   -0.0010   -2.3097 H   0  0  0  0  0  0  0  0  0  0  0  0
    0.0799    1.4036   -3.5634 C   0  0  0  0  0  0  0  0  0  0  0  0
   -0.0183    2.6193   -3.5624 O   0  0  0  0  0  0  0  0  0  0  0  0
    0.2741    0.6749   -4.6862 O   0  0  0  0  0  0  0  0  0  0  0  0
    0.3189    1.3157   -5.4123 H   0  0  0  0  0  0  0  0  0  0  0  0
   -0.0450    1.5151    1.5663 C   0  0  0  0  0  0  0  0  0  0  0  0
   -0.3975    2.6872    1.6059 O   0  0  0  0  0  0  0  0  0  0  0  0
    0.5086    0.9252    2.6858 N   0  0  0  0  0  0  0  0  0  0  0  0
    0.6008   -0.0900    2.6549 H   0  0  0  0  0  0  0  0  0  0  0  0
    0.6043    1.5991    3.9743 C   0  0  0  0  0  0  0  0  0  0  0  0
   -0.3917    1.8678    4.3416 H   0  0  0  0  0  0  0  0  0  0  0  0
    1.0801    0.9425    4.7091 H   0  0  0  0  0  0  0  0  0  0  0  0
    1.2057    2.5103    3.8868 H   0  0  0  0  0  0  0  0  0  0  0  0
  1  2  1  0  0  0  0
  2  3  1  0  0  0  0
  2  4  1  0  0  0  0
  2  5  1  0  0  0  0
  5  6  2  0  0  0  0
  5  7  1  0  0  0  0
  7  8  1  0  0  0  0
  7  9  1  0  0  0  0
  9 10  1  0  0  0  0
  9 11  1  0  0  0  0
  9 21  1  0  0  0  0
 11 12  1  0  0  0  0
 11 13  1  0  0  0  0
 11 14  1  0  0  0  0
 14 15  1  0  0  0  0
 14 16  1  0  0  0  0
 14 17  1  0  0  0  0
 17 18  2  0  0  0  0
 17 19  1  0  0  0  0
 19 20  1  0  0  0  0
 21 22  2  0  0  0  0
 21 23  1  0  0  0  0
 23 24  1  0  0  0  0
 23 25  1  0  0  0  0
 25 26  1  0  0  0  0
 25 27  1  0  0  0  0
 25 28  1  0  0  0  0
M  END
$$$$

  -OEChem-01062216073D

 28 27  0     1  0  0  0  0  0999 V2000
   -3.1157   -2.8242    1.3773 H   0  0  0  0  0  0  0  0  0  0  0  0
   -3.1323   -1.8445    0.8915 C   0  0  0  0  0  0  0  0  0  0  0  0
   -3.7700   -1.1745    1.4733 H   0  0  0  0  0  0  0  0  0  0  0  0
   -3.5507   -1.9558   -0.1116 H   0  0  0  0  0  0  0  0  0  0  0  0
   -1.7275   -1.2793    0.8065 C   0  0  0  0  0  0  0  0  0  0  0  0
   -0.7829   -1.9068    1.2611 O   0  0  0  0  0  0  0  0  0  0  0  0
   -1.5195   -0.0314    0.2568 N   0  0  0  0  0  0  0  0  0  0  0  0
   -2.3428    0.5332    0.0631 H   0  0  0  0  0  0  0  0  0  0  0  0
   -0.2118    0.6399    0.2669 C   0  0  1  0  0  0  0  0  0  0  0  0
    0.5995   -0.0957    0.2585 H   0  0  0  0  0  0  0  0  0  0  0  0
   -0.0778    1.4973   -1.0041 C   0  0  0  0  0  0  0  0  0  0  0  0
   -0.9269    2.1874   -1.0702 H   0  0  0  0  0  0  0  0  0  0  0  0
    0.8318    2.1045   -0.9346 H   0  0  0  0  0  0  0  0  0  0  0  0
   -0.0066    0.6247   -2.2759 C   0  0  0  0  0  0  0  0  0  0  0  0
    0.8598   -0.0392   -2.2098 H   0  0  0  0  0  0  0  0  0  0  0  0
   -0.8996   -0.0015   -2.3459 H   0  0  0  0  0  0  0  0  0  0  0  0
    0.1036    1.4252   -3.5740 C   0  0  0  0  0  0  0  0  0  0  0  0
    0.0005    2.6403   -3.5543 O   0  0  0  0  0  0  0  0  0  0  0  0
    0.3089    0.7159   -4.7070 O   0  0  0  0  0  0  0  0  0  0  0  0
    0.3509    1.3686   -5.4227 H   0  0  0  0  0  0  0  0  0  0  0  0
   -0.0572    1.4973    1.5396 C   0  0  0  0  0  0  0  0  0  0  0  0
   -0.6607    2.5567    1.6561 O   0  0  0  0  0  0  0  0  0  0  0  0
    0.7558    1.0562    2.5661 N   0  0  0  0  0  0  0  0  0  0  0  0
    1.0772    0.0923    2.5055 H   0  0  0  0  0  0  0  0  0  0  0  0
    0.8697    1.7523    3.8417 C   0  0  0  0  0  0  0  0  0  0  0  0
   -0.1015    1.7903    4.3461 H   0  0  0  0  0  0  0  0  0  0  0  0
    1.5795    1.2336    4.4933 H   0  0  0  0  0  0  0  0  0  0  0  0
    1.2277    2.7759    3.6888 H   0  0  0  0  0  0  0  0  0  0  0  0
  1  2  1  0  0  0  0
  2  3  1  0  0  0  0
  2  4  1  0  0  0  0
  2  5  1  0  0  0  0
  5  6  2  0  0  0  0
  5  7  1  0  0  0  0
  7  8  1  0  0  0  0
  7  9  1  0  0  0  0
  9 10  1  0  0  0  0
  9 11  1  0  0  0  0
  9 21  1  0  0  0  0
 11 12  1  0  0  0  0
 11 13  1  0  0  0  0
 11 14  1  0  0  0  0
 14 15  1  0  0  0  0
 14 16  1  0  0  0  0
 14 17  1  0  0  0  0
 17 18  2  0  0  0  0
 17 19  1  0  0  0  0
 19 20  1  0  0  0  0
 21 22  2  0  0  0  0
 21 23  1  0  0  0  0
 23 24  1  0  0  0  0
 23 25  1  0  0  0  0
 25 26  1  0  0  0  0
 25 27  1  0  0  0  0
 25 28  1  0  0  0  0
M  END
$$$$

  -OEChem-01062216073D

 28 27  0     1  0  0  0  0  0999 V2000
   -3.1137   -2.8145    1.4199 H   0  0  0  0  0  0  0  0  0  0  0  0
   -3.1343   -1.8313    0.9414 C   0  0  0  0  0  0  0  0  0  0  0  0
   -3.7240   -1.1511    1.5607 H   0  0  0  0  0  0  0  0  0  0  0  0
   -3.6090   -1.9262   -0.0381 H   0  0  0  0  0  0  0  0  0  0  0  0
   -1.7237   -1.2969    0.7839 C   0  0  0  0  0  0  0  0  0  0  0  0
   -0.7716   -1.9537    1.1764 O   0  0  0  0  0  0  0  0  0  0  0  0
   -1.5200   -0.0503    0.2295 N   0  0  0  0  0  0  0  0  0  0  0  0
   -2.3444    0.5361    0.1226 H   0  0  0  0  0  0  0  0  0  0  0  0
   -0.2139    0.6246    0.2478 C   0  0  1  0  0  0  0  0  0  0  0  0
    0.5990   -0.1093    0.2444 H   0  0  0  0  0  0  0  0  0  0  0  0
   -0.0747    1.4908   -1.0159 C   0  0  0  0  0  0  0  0  0  0  0  0
   -0.9259    2.1784   -1.0806 H   0  0  0  0  0  0  0  0  0  0  0  0
    0.8328    2.1001   -0.9386 H   0  0  0  0  0  0  0  0  0  0  0  0
    0.0040    0.6276   -2.2934 C   0  0  0  0  0  0  0  0  0  0  0  0
    0.8698   -0.0372   -2.2273 H   0  0  0  0  0  0  0  0  0  0  0  0
   -0.8889    0.0020   -2.3720 H   0  0  0  0  0  0  0  0  0  0  0  0
    0.1199    1.4372   -3.5853 C   0  0  0  0  0  0  0  0  0  0  0  0
    0.0152    2.6523   -3.5575 O   0  0  0  0  0  0  0  0  0  0  0  0
    0.3325    0.7360   -4.7219 O   0  0  0  0  0  0  0  0  0  0  0  0
    0.3773    1.3933   -5.4329 H   0  0  0  0  0  0  0  0  0  0  0  0
   -0.0696    1.4885    1.5168 C   0  0  0  0  0  0  0  0  0  0  0  0
   -0.8646    2.3947    1.7355 O   0  0  0  0  0  0  0  0  0  0  0  0
    0.9494    1.2409    2.4167 N   0  0  0  0  0  0  0  0  0  0  0  0
    1.4744    0.3798    2.2872 H   0  0  0  0  0  0  0  0  0  0  0  0
    1.0794    1.9554    3.6805 C   0  0  0  0  0  0  0  0  0  0  0  0
    0.2002    1.7833    4.3102 H   0  0  0  0  0  0  0  0  0  0  0  0
    1.9664    1.6109    4.2207 H   0  0  0  0  0  0  0  0  0  0  0  0
    1.1807    3.0314    3.5036 H   0  0  0  0  0  0  0  0  0  0  0  0
  1  2  1  0  0  0  0
  2  3  1  0  0  0  0
  2  4  1  0  0  0  0
  2  5  1  0  0  0  0
  5  6  2  0  0  0  0
  5  7  1  0  0  0  0
  7  8  1  0  0  0  0
  7  9  1  0  0  0  0
  9 10  1  0  0  0  0
  9 11  1  0  0  0  0
  9 21  1  0  0  0  0
 11 12  1  0  0  0  0
 11 13  1  0  0  0  0
 11 14  1  0  0  0  0
 14 15  1  0  0  0  0
 14 16  1  0  0  0  0
 14 17  1  0  0  0  0
 17 18  2  0  0  0  0
 17 19  1  0  0  0  0
 19 20  1  0  0  0  0
 21 22  2  0  0  0  0
 21 23  1  0  0  0  0
 23 24  1  0  0  0  0
 23 25  1  0  0  0  0
 25 26  1  0  0  0  0
 25 27  1  0  0  0  0
 25 28  1  0  0  0  0
M  END
$$$$

  -OEChem-01062216073D

 28 27  0     1  0  0  0  0  0999 V2000
   -3.1149   -2.8105    1.4450 H   0  0  0  0  0  0  0  0  0  0  0  0
   -3.1376   -1.8234    0.9747 C   0  0  0  0  0  0  0  0  0  0  0  0
   -3.6891   -1.1376    1.6227 H   0  0  0  0  0  0  0  0  0  0  0  0
   -3.6536   -1.9017    0.0148 H   0  0  0  0  0  0  0  0  0  0  0  0
   -1.7256   -1.3119    0.7624 C   0  0  0  0  0  0  0  0  0  0  0  0
   -0.7696   -1.9927    1.1009 O   0  0  0  0  0  0  0  0  0  0  0  0
   -1.5273   -0.0651    0.2063 N   0  0  0  0  0  0  0  0  0  0  0  0
   -2.3496    0.5328    0.1669 H   0  0  0  0  0  0  0  0  0  0  0  0
   -0.2234    0.6152    0.2362 C   0  0  1  0  0  0  0  0  0  0  0  0
    0.5905   -0.1173    0.2409 H   0  0  0  0  0  0  0  0  0  0  0  0
   -0.0794    1.4852   -1.0232 C   0  0  0  0  0  0  0  0  0  0  0  0
   -0.9337    2.1686   -1.0908 H   0  0  0  0  0  0  0  0  0  0  0  0
    0.8248    2.0984   -0.9387 H   0  0  0  0  0  0  0  0  0  0  0  0
    0.0118    0.6270   -2.3034 C   0  0  0  0  0  0  0  0  0  0  0  0
    0.8794   -0.0347   -2.2341 H   0  0  0  0  0  0  0  0  0  0  0  0
   -0.8781   -0.0018   -2.3900 H   0  0  0  0  0  0  0  0  0  0  0  0
    0.1330    1.4426   -3.5913 C   0  0  0  0  0  0  0  0  0  0  0  0
    0.0227    2.6572   -3.5584 O   0  0  0  0  0  0  0  0  0  0  0  0
    0.3618    0.7482   -4.7291 O   0  0  0  0  0  0  0  0  0  0  0  0
    0.4078    1.4082   -5.4376 H   0  0  0  0  0  0  0  0  0  0  0  0
   -0.0881    1.4846    1.5032 C   0  0  0  0  0  0  0  0  0  0  0  0
   -1.0136    2.2117    1.8449 O   0  0  0  0  0  0  0  0  0  0  0  0
    1.0745    1.4643    2.2504 N   0  0  0  0  0  0  0  0  0  0  0  0
    1.7653    0.7576    2.0137 H   0  0  0  0  0  0  0  0  0  0  0  0
    1.2293    2.2064    3.4958 C   0  0  0  0  0  0  0  0  0  0  0  0
    0.4959    1.8698    4.2362 H   0  0  0  0  0  0  0  0  0  0  0  0
    2.2321    2.0526    3.9062 H   0  0  0  0  0  0  0  0  0  0  0  0
    1.0888    3.2789    3.3235 H   0  0  0  0  0  0  0  0  0  0  0  0
  1  2  1  0  0  0  0
  2  3  1  0  0  0  0
  2  4  1  0  0  0  0
  2  5  1  0  0  0  0
  5  6  2  0  0  0  0
  5  7  1  0  0  0  0
  7  8  1  0  0  0  0
  7  9  1  0  0  0  0
  9 10  1  0  0  0  0
  9 11  1  0  0  0  0
  9 21  1  0  0  0  0
 11 12  1  0  0  0  0
 11 13  1  0  0  0  0
 11 14  1  0  0  0  0
 14 15  1  0  0  0  0
 14 16  1  0  0  0  0
 14 17  1  0  0  0  0
 17 18  2  0  0  0  0
 17 19  1  0  0  0  0
 19 20  1  0  0  0  0
 21 22  2  0  0  0  0
 21 23  1  0  0  0  0
 23 24  1  0  0  0  0
 23 25  1  0  0  0  0
 25 26  1  0  0  0  0
 25 27  1  0  0  0  0
 25 28  1  0  0  0  0
M  END
$$$$

  -OEChem-01062216073D

 28 27  0     1  0  0  0  0  0999 V2000
   -3.1129   -2.8144    1.4500 H   0  0  0  0  0  0  0  0  0  0  0  0
   -3.1403   -1.8216    0.9922 C   0  0  0  0  0  0  0  0  0  0  0  0
   -3.6629   -1.1378    1.6657 H   0  0  0  0  0  0  0  0  0  0  0  0
   -3.6875   -1.8833    0.0486 H   0  0  0  0  0  0  0  0  0  0  0  0
   -1.7304   -1.3222    0.7415 C   0  0  0  0  0  0  0  0  0  0  0  0
   -0.7725   -2.0173    1.0432 O   0  0  0  0  0  0  0  0  0  0  0  0
   -1.5376   -0.0739    0.1867 N   0  0  0  0  0  0  0  0  0  0  0  0
   -2.3588    0.5269    0.1896 H   0  0  0  0  0  0  0  0  0  0  0  0
   -0.2355    0.6106    0.2320 C   0  0  1  0  0  0  0  0  0  0  0  0
    0.5808   -0.1193    0.2451 H   0  0  0  0  0  0  0  0  0  0  0  0
   -0.0866    1.4824   -1.0250 C   0  0  0  0  0  0  0  0  0  0  0  0
   -0.9441    2.1613   -1.0976 H   0  0  0  0  0  0  0  0  0  0  0  0
    0.8142    2.0998   -0.9352 H   0  0  0  0  0  0  0  0  0  0  0  0
    0.0180    0.6257   -2.3048 C   0  0  0  0  0  0  0  0  0  0  0  0
    0.8885   -0.0314   -2.2295 H   0  0  0  0  0  0  0  0  0  0  0  0
   -0.8678   -0.0080   -2.3990 H   0  0  0  0  0  0  0  0  0  0  0  0
    0.1445    1.4437   -3.5904 C   0  0  0  0  0  0  0  0  0  0  0  0
    0.0278    2.6578   -3.5556 O   0  0  0  0  0  0  0  0  0  0  0  0
    0.3846    0.7527   -4.7278 O   0  0  0  0  0  0  0  0  0  0  0  0
    0.4327    1.4140   -5.4350 H   0  0  0  0  0  0  0  0  0  0  0  0
   -0.1082    1.4827    1.4994 C   0  0  0  0  0  0  0  0  0  0  0  0
   -1.1009    2.0244    1.9731 O   0  0  0  0  0  0  0  0  0  0  0  0
    1.1276    1.7062    2.0775 N   0  0  0  0  0  0  0  0  0  0  0  0
    1.9163    1.1791    1.7141 H   0  0  0  0  0  0  0  0  0  0  0  0
    1.3049    2.4876    3.2956 C   0  0  0  0  0  0  0  0  0  0  0  0
    0.7558    2.0315    4.1262 H   0  0  0  0  0  0  0  0  0  0  0  0
    2.3645    2.5348    3.5648 H   0  0  0  0  0  0  0  0  0  0  0  0
    0.9401    3.5102    3.1518 H   0  0  0  0  0  0  0  0  0  0  0  0
  1  2  1  0  0  0  0
  2  3  1  0  0  0  0
  2  4  1  0  0  0  0
  2  5  1  0  0  0  0
  5  6  2  0  0  0  0
  5  7  1  0  0  0  0
  7  8  1  0  0  0  0
  7  9  1  0  0  0  0
  9 10  1  0  0  0  0
  9 11  1  0  0  0  0
  9 21  1  0  0  0  0
 11 12  1  0  0  0  0
 11 13  1  0  0  0  0
 11 14  1  0  0  0  0
 14 15  1  0  0  0  0
 14 16  1  0  0  0  0
 14 17  1  0  0  0  0
 17 18  2  0  0  0  0
 17 19  1  0  0  0  0
 19 20  1  0  0  0  0
 21 22  2  0  0  0  0
 21 23  1  0  0  0  0
 23 24  1  0  0  0  0
 23 25  1  0  0  0  0
 25 26  1  0  0  0  0
 25 27  1  0  0  0  0
 25 28  1  0  0  0  0
M  END
$$$$

  -OEChem-01062216073D

 28 27  0     1  0  0  0  0  0999 V2000
   -3.1123   -2.7969    1.5016 H   0  0  0  0  0  0  0  0  0  0  0  0
   -3.1451   -1.8252    1.0008 C   0  0  0  0  0  0  0  0  0  0  0  0
   -3.6675   -1.1148    1.6464 H   0  0  0  0  0  0  0  0  0  0  0  0
   -3.6959   -1.9299    0.0631 H   0  0  0  0  0  0  0  0  0  0  0  0
   -1.7377   -1.3330    0.7229 C   0  0  0  0  0  0  0  0  0  0  0  0
   -0.7795   -2.0419    0.9894 O   0  0  0  0  0  0  0  0  0  0  0  0
   -1.5484   -0.0812    0.1736 N   0  0  0  0  0  0  0  0  0  0  0  0
   -2.3680    0.5205    0.2065 H   0  0  0  0  0  0  0  0  0  0  0  0
   -0.2459    0.6035    0.2337 C   0  0  1  0  0  0  0  0  0  0  0  0
    0.5717   -0.1250    0.2515 H   0  0  0  0  0  0  0  0  0  0  0  0
   -0.0926    1.4778   -1.0222 C   0  0  0  0  0  0  0  0  0  0  0  0
   -0.9520    2.1538   -1.0983 H   0  0  0  0  0  0  0  0  0  0  0  0
    0.8056    2.0981   -0.9298 H   0  0  0  0  0  0  0  0  0  0  0  0
    0.0210    0.6250   -2.3040 C   0  0  0  0  0  0  0  0  0  0  0  0
    0.8921   -0.0315   -2.2269 H   0  0  0  0  0  0  0  0  0  0  0  0
   -0.8630   -0.0103   -2.4055 H   0  0  0  0  0  0  0  0  0  0  0  0
    0.1520    1.4499   -3.5850 C   0  0  0  0  0  0  0  0  0  0  0  0
    0.0316    2.6636   -3.5438 O   0  0  0  0  0  0  0  0  0  0  0  0
    0.4024    0.7666   -4.7248 O   0  0  0  0  0  0  0  0  0  0  0  0
    0.4516    1.4321   -5.4279 H   0  0  0  0  0  0  0  0  0  0  0  0
   -0.1213    1.4729    1.5055 C   0  0  0  0  0  0  0  0  0  0  0  0
   -1.1253    1.8250    2.1151 O   0  0  0  0  0  0  0  0  0  0  0  0
    1.1130    1.9458    1.9123 N   0  0  0  0  0  0  0  0  0  0  0  0
    1.9330    1.6050    1.4195 H   0  0  0  0  0  0  0  0  0  0  0  0
    1.2961    2.7853    3.0904 C   0  0  0  0  0  0  0  0  0  0  0  0
    0.9513    2.2646    3.9901 H   0  0  0  0  0  0  0  0  0  0  0  0
    2.3541    3.0332    3.2183 H   0  0  0  0  0  0  0  0  0  0  0  0
    0.7332    3.7190    2.9865 H   0  0  0  0  0  0  0  0  0  0  0  0
  1  2  1  0  0  0  0
  2  3  1  0  0  0  0
  2  4  1  0  0  0  0
  2  5  1  0  0  0  0
  5  6  2  0  0  0  0
  5  7  1  0  0  0  0
  7  8  1  0  0  0  0
  7  9  1  0  0  0  0
  9 10  1  0  0  0  0
  9 11  1  0  0  0  0
  9 21  1  0  0  0  0
 11 12  1  0  0  0  0
 11 13  1  0  0  0  0
 11 14  1  0  0  0  0
 14 15  1  0  0  0  0
 14 16  1  0  0  0  0
 14 17  1  0  0  0  0
 17 18  2  0  0  0  0
 17 19  1  0  0  0  0
 19 20  1  0  0  0  0
 21 22  2  0  0  0  0
 21 23  1  0  0  0  0
 23 24  1  0  0  0  0
 23 25  1  0  0  0  0
 25 26  1  0  0  0  0
 25 27  1  0  0  0  0
 25 28  1  0  0  0  0
M  END
$$$$

  -OEChem-01062216073D

 28 27  0     1  0  0  0  0  0999 V2000
   -3.0400   -2.8545    1.4314 H   0  0  0  0  0  0  0  0  0  0  0  0
   -3.1000   -1.8334    1.0447 C   0  0  0  0  0  0  0  0  0  0  0  0
   -3.5359   -1.1912    1.8141 H   0  0  0  0  0  0  0  0  0  0  0  0
   -3.7447   -1.8270    0.1629 H   0  0  0  0  0  0  0  0  0  0  0  0
   -1.7164   -1.3313    0.6803 C   0  0  0  0  0  0  0  0  0  0  0  0
   -0.7414   -2.0488    0.8463 O   0  0  0  0  0  0  0  0  0  0  0  0
   -1.5650   -0.0682    0.1421 N   0  0  0  0  0  0  0  0  0  0  0  0
   -2.3896    0.5183    0.2340 H   0  0  0  0  0  0  0  0  0  0  0  0
   -0.2664    0.6231    0.2227 C   0  0  1  0  0  0  0  0  0  0  0  0
    0.5427   -0.0728   -0.0251 H   0  0  0  0  0  0  0  0  0  0  0  0
   -0.2656    1.7624   -0.8132 C   0  0  0  0  0  0  0  0  0  0  0  0
   -1.1334    2.4090   -0.6395 H   0  0  0  0  0  0  0  0  0  0  0  0
    0.6316    2.3777   -0.6872 H   0  0  0  0  0  0  0  0  0  0  0  0
   -0.2910    1.2211   -2.2595 C   0  0  0  0  0  0  0  0  0  0  0  0
    0.5898    0.5953   -2.4276 H   0  0  0  0  0  0  0  0  0  0  0  0
   -1.1744    0.5940   -2.4055 H   0  0  0  0  0  0  0  0  0  0  0  0
   -0.3146    2.3131   -3.3298 C   0  0  0  0  0  0  0  0  0  0  0  0
   -0.4409    3.4823   -3.0043 O   0  0  0  0  0  0  0  0  0  0  0  0
   -0.1919    1.9077   -4.6142 O   0  0  0  0  0  0  0  0  0  0  0  0
   -0.2306    2.7127   -5.1529 H   0  0  0  0  0  0  0  0  0  0  0  0
    0.0197    1.1712    1.6447 C   0  0  0  0  0  0  0  0  0  0  0  0
   -0.8514    1.1522    2.5077 O   0  0  0  0  0  0  0  0  0  0  0  0
    1.1965    1.8487    1.9121 N   0  0  0  0  0  0  0  0  0  0  0  0
    1.9188    1.8356    1.1985 H   0  0  0  0  0  0  0  0  0  0  0  0
    1.5041    2.4300    3.2140 C   0  0  0  0  0  0  0  0  0  0  0  0
    1.5098    1.6552    3.9881 H   0  0  0  0  0  0  0  0  0  0  0  0
    2.4891    2.9062    3.1936 H   0  0  0  0  0  0  0  0  0  0  0  0
    0.7600    3.1880    3.4807 H   0  0  0  0  0  0  0  0  0  0  0  0
  1  2  1  0  0  0  0
  2  3  1  0  0  0  0
  2  4  1  0  0  0  0
  2  5  1  0  0  0  0
  5  6  2  0  0  0  0
  5  7  1  0  0  0  0
  7  8  1  0  0  0  0
  7  9  1  0  0  0  0
  9 10  1  0  0  0  0
  9 11  1  0  0  0  0
  9 21  1  0  0  0  0
 11 12  1  0  0  0  0
 11 13  1  0  0  0  0
 11 14  1  0  0  0  0
 14 15  1  0  0  0  0
 14 16  1  0  0  0  0
 14 17  1  0  0  0  0
 17 18  2  0  0  0  0
 17 19  1  0  0  0  0
 19 20  1  0  0  0  0
 21 22  2  0  0  0  0
 21 23  1  0  0  0  0
 23 24  1  0  0  0  0
 23 25  1  0  0  0  0
 25 26  1  0  0  0  0
 25 27  1  0  0  0  0
 25 28  1  0  0  0  0
M  END
$$$$

  -OEChem-01062216073D

 28 27  0     1  0  0  0  0  0999 V2000
   -3.0389   -2.8453    1.4252 H   0  0  0  0  0  0  0  0  0  0  0  0
   -3.0967   -1.8188    1.0526 C   0  0  0  0  0  0  0  0  0  0  0  0
   -3.5074   -1.1817    1.8399 H   0  0  0  0  0  0  0  0  0  0  0  0
   -3.7615   -1.7942    0.1861 H   0  0  0  0  0  0  0  0  0  0  0  0
   -1.7161   -1.3274    0.6623 C   0  0  0  0  0  0  0  0  0  0  0  0
   -0.7485   -2.0645    0.7763 O   0  0  0  0  0  0  0  0  0  0  0  0
   -1.5642   -0.0586    0.1368 N   0  0  0  0  0  0  0  0  0  0  0  0
   -2.3874    0.5268    0.2420 H   0  0  0  0  0  0  0  0  0  0  0  0
   -0.2646    0.6317    0.2230 C   0  0  1  0  0  0  0  0  0  0  0  0
    0.5452   -0.0632   -0.0247 H   0  0  0  0  0  0  0  0  0  0  0  0
   -0.2690    1.7637   -0.8234 C   0  0  0  0  0  0  0  0  0  0  0  0
   -1.1392    2.4084   -0.6548 H   0  0  0  0  0  0  0  0  0  0  0  0
    0.6263    2.3830   -0.7102 H   0  0  0  0  0  0  0  0  0  0  0  0
   -0.2908    1.2110   -2.2653 C   0  0  0  0  0  0  0  0  0  0  0  0
    0.5939    0.5892   -2.4284 H   0  0  0  0  0  0  0  0  0  0  0  0
   -1.1700    0.5769   -2.4078 H   0  0  0  0  0  0  0  0  0  0  0  0
   -0.3194    2.2968   -3.3415 C   0  0  0  0  0  0  0  0  0  0  0  0
   -0.4519    3.4670   -3.0213 O   0  0  0  0  0  0  0  0  0  0  0  0
   -0.1933    1.8864   -4.6236 O   0  0  0  0  0  0  0  0  0  0  0  0
   -0.2347    2.6887   -5.1660 H   0  0  0  0  0  0  0  0  0  0  0  0
    0.0276    1.1694    1.6516 C   0  0  0  0  0  0  0  0  0  0  0  0
   -0.7344    0.9265    2.5806 O   0  0  0  0  0  0  0  0  0  0  0  0
    1.0333    2.0961    1.8688 N   0  0  0  0  0  0  0  0  0  0  0  0
    1.6615    2.2984    1.0974 H   0  0  0  0  0  0  0  0  0  0  0  0
    1.2979    2.7038    3.1682 C   0  0  0  0  0  0  0  0  0  0  0  0
    1.5432    1.9347    3.9084 H   0  0  0  0  0  0  0  0  0  0  0  0
    2.1415    3.3971    3.0973 H   0  0  0  0  0  0  0  0  0  0  0  0
    0.4219    3.2611    3.5166 H   0  0  0  0  0  0  0  0  0  0  0  0
  1  2  1  0  0  0  0
  2  3  1  0  0  0  0
  2  4  1  0  0  0  0
  2  5  1  0  0  0  0
  5  6  2  0  0  0  0
  5  7  1  0  0  0  0
  7  8  1  0  0  0  0
  7  9  1  0  0  0  0
  9 10  1  0  0  0  0
  9 11  1  0  0  0  0
  9 21  1  0  0  0  0
 11 12  1  0  0  0  0
 11 13  1  0  0  0  0
 11 14  1  0  0  0  0
 14 15  1  0  0  0  0
 14 16  1  0  0  0  0
 14 17  1  0  0  0  0
 17 18  2  0  0  0  0
 17 19  1  0  0  0  0
 19 20  1  0  0  0  0
 21 22  2  0  0  0  0
 21 23  1  0  0  0  0
 23 24  1  0  0  0  0
 23 25  1  0  0  0  0
 25 26  1  0  0  0  0
 25 27  1  0  0  0  0
 25 28  1  0  0  0  0
M  END
$$$$

  -OEChem-01062216073D

 28 27  0     1  0  0  0  0  0999 V2000
   -3.0282   -2.8311    1.4326 H   0  0  0  0  0  0  0  0  0  0  0  0
   -3.0865   -1.8004    1.0725 C   0  0  0  0  0  0  0  0  0  0  0  0
   -3.4682   -1.1685    1.8784 H   0  0  0  0  0  0  0  0  0  0  0  0
   -3.7755   -1.7603    0.2256 H   0  0  0  0  0  0  0  0  0  0  0  0
   -1.7127   -1.3170    0.6494 C   0  0  0  0  0  0  0  0  0  0  0  0
   -0.7520   -2.0687    0.7130 O   0  0  0  0  0  0  0  0  0  0  0  0
   -1.5641   -0.0434    0.1334 N   0  0  0  0  0  0  0  0  0  0  0  0
   -2.3893    0.5378    0.2422 H   0  0  0  0  0  0  0  0  0  0  0  0
   -0.2653    0.6500    0.2175 C   0  0  1  0  0  0  0  0  0  0  0  0
    0.5453   -0.0448   -0.0291 H   0  0  0  0  0  0  0  0  0  0  0  0
   -0.2709    1.7713   -0.8419 C   0  0  0  0  0  0  0  0  0  0  0  0
   -1.1409    2.4183   -0.6814 H   0  0  0  0  0  0  0  0  0  0  0  0
    0.6260    2.3897   -0.7389 H   0  0  0  0  0  0  0  0  0  0  0  0
   -0.2886    1.2022   -2.2776 C   0  0  0  0  0  0  0  0  0  0  0  0
    0.5974    0.5801   -2.4324 H   0  0  0  0  0  0  0  0  0  0  0  0
   -1.1663    0.5650   -2.4148 H   0  0  0  0  0  0  0  0  0  0  0  0
   -0.3184    2.2768   -3.3653 C   0  0  0  0  0  0  0  0  0  0  0  0
   -0.4548    3.4497   -3.0562 O   0  0  0  0  0  0  0  0  0  0  0  0
   -0.1904    1.8545   -4.6434 O   0  0  0  0  0  0  0  0  0  0  0  0
   -0.2345    2.6510   -5.1942 H   0  0  0  0  0  0  0  0  0  0  0  0
    0.0315    1.1782    1.6515 C   0  0  0  0  0  0  0  0  0  0  0  0
   -0.5605    0.7225    2.6225 O   0  0  0  0  0  0  0  0  0  0  0  0
    0.8028    2.3106    1.8563 N   0  0  0  0  0  0  0  0  0  0  0  0
    1.2754    2.7117    1.0527 H   0  0  0  0  0  0  0  0  0  0  0  0
    1.0207    2.9081    3.1694 C   0  0  0  0  0  0  0  0  0  0  0  0
    1.4983    2.1889    3.8435 H   0  0  0  0  0  0  0  0  0  0  0  0
    1.6694    3.7852    3.0837 H   0  0  0  0  0  0  0  0  0  0  0  0
    0.0690    3.2244    3.6095 H   0  0  0  0  0  0  0  0  0  0  0  0
  1  2  1  0  0  0  0
  2  3  1  0  0  0  0
  2  4  1  0  0  0  0
  2  5  1  0  0  0  0
  5  6  2  0  0  0  0
  5  7  1  0  0  0  0
  7  8  1  0  0  0  0
  7  9  1  0  0  0  0
  9 10  1  0  0  0  0
  9 11  1  0  0  0  0
  9 21  1  0  0  0  0
 11 12  1  0  0  0  0
 11 13  1  0  0  0  0
 11 14  1  0  0  0  0
 14 15  1  0  0  0  0
 14 16  1  0  0  0  0
 14 17  1  0  0  0  0
 17 18  2  0  0  0  0
 17 19  1  0  0  0  0
 19 20  1  0  0  0  0
 21 22  2  0  0  0  0
 21 23  1  0  0  0  0
 23 24  1  0  0  0  0
 23 25  1  0  0  0  0
 25 26  1  0  0  0  0
 25 27  1  0  0  0  0
 25 28  1  0  0  0  0
M  END
$$$$

  -OEChem-01062216073D

 28 27  0     1  0  0  0  0  0999 V2000
   -3.0190   -2.8300    1.4363 H   0  0  0  0  0  0  0  0  0  0  0  0
   -3.0843   -1.7974    1.0820 C   0  0  0  0  0  0  0  0  0  0  0  0
   -3.4622   -1.1719    1.8944 H   0  0  0  0  0  0  0  0  0  0  0  0
   -3.7804   -1.7554    0.2411 H   0  0  0  0  0  0  0  0  0  0  0  0
   -1.7153   -1.3080    0.6499 C   0  0  0  0  0  0  0  0  0  0  0  0
   -0.7586   -2.0659    0.6820 O   0  0  0  0  0  0  0  0  0  0  0  0
   -1.5720   -0.0316    0.1384 N   0  0  0  0  0  0  0  0  0  0  0  0
   -2.4021    0.5441    0.2363 H   0  0  0  0  0  0  0  0  0  0  0  0
   -0.2767    0.6697    0.2174 C   0  0  1  0  0  0  0  0  0  0  0  0
    0.5355   -0.0253   -0.0241 H   0  0  0  0  0  0  0  0  0  0  0  0
   -0.2759    1.7806   -0.8517 C   0  0  0  0  0  0  0  0  0  0  0  0
   -1.1456    2.4308   -0.7033 H   0  0  0  0  0  0  0  0  0  0  0  0
    0.6246    2.3945   -0.7485 H   0  0  0  0  0  0  0  0  0  0  0  0
   -0.2838    1.1979   -2.2818 C   0  0  0  0  0  0  0  0  0  0  0  0
    0.6037    0.5751   -2.4251 H   0  0  0  0  0  0  0  0  0  0  0  0
   -1.1602    0.5588   -2.4183 H   0  0  0  0  0  0  0  0  0  0  0  0
   -0.3070    2.2619   -3.3797 C   0  0  0  0  0  0  0  0  0  0  0  0
   -0.4463    3.4378   -3.0822 O   0  0  0  0  0  0  0  0  0  0  0  0
   -0.1707    1.8275   -4.6530 O   0  0  0  0  0  0  0  0  0  0  0  0
   -0.2089    2.6182   -5.2123 H   0  0  0  0  0  0  0  0  0  0  0  0
    0.0234    1.1958    1.6515 C   0  0  0  0  0  0  0  0  0  0  0  0
   -0.3298    0.5638    2.6382 O   0  0  0  0  0  0  0  0  0  0  0  0
    0.5132    2.4744    1.8651 N   0  0  0  0  0  0  0  0  0  0  0  0
    0.7620    3.0274    1.0511 H   0  0  0  0  0  0  0  0  0  0  0  0
    0.7113    3.0489    3.1915 C   0  0  0  0  0  0  0  0  0  0  0  0
    1.4057    2.4353    3.7755 H   0  0  0  0  0  0  0  0  0  0  0  0
    1.1276    4.0575    3.1092 H   0  0  0  0  0  0  0  0  0  0  0  0
   -0.2409    3.1106    3.7289 H   0  0  0  0  0  0  0  0  0  0  0  0
  1  2  1  0  0  0  0
  2  3  1  0  0  0  0
  2  4  1  0  0  0  0
  2  5  1  0  0  0  0
  5  6  2  0  0  0  0
  5  7  1  0  0  0  0
  7  8  1  0  0  0  0
  7  9  1  0  0  0  0
  9 10  1  0  0  0  0
  9 11  1  0  0  0  0
  9 21  1  0  0  0  0
 11 12  1  0  0  0  0
 11 13  1  0  0  0  0
 11 14  1  0  0  0  0
 14 15  1  0  0  0  0
 14 16  1  0  0  0  0
 14 17  1  0  0  0  0
 17 18  2  0  0  0  0
 17 19  1  0  0  0  0
 19 20  1  0  0  0  0
 21 22  2  0  0  0  0
 21 23  1  0  0  0  0
 23 24  1  0  0  0  0
 23 25  1  0  0  0  0
 25 26  1  0  0  0  0
 25 27  1  0  0  0  0
 25 28  1  0  0  0  0
M  END
$$$$

  -OEChem-01062216073D

 28 27  0     1  0  0  0  0  0999 V2000
   -3.0314   -2.8331    1.4350 H   0  0  0  0  0  0  0  0  0  0  0  0
   -3.0931   -1.8013    1.0779 C   0  0  0  0  0  0  0  0  0  0  0  0
   -3.4846   -1.1751    1.8833 H   0  0  0  0  0  0  0  0  0  0  0  0
   -3.7765   -1.7629    0.2264 H   0  0  0  0  0  0  0  0  0  0  0  0
   -1.7188   -1.3098    0.6648 C   0  0  0  0  0  0  0  0  0  0  0  0
   -0.7641   -2.0688    0.7033 O   0  0  0  0  0  0  0  0  0  0  0  0
   -1.5744   -0.0354    0.1484 N   0  0  0  0  0  0  0  0  0  0  0  0
   -2.4112    0.5348    0.2154 H   0  0  0  0  0  0  0  0  0  0  0  0
   -0.2837    0.6743    0.2228 C   0  0  1  0  0  0  0  0  0  0  0  0
    0.5312   -0.0200   -0.0118 H   0  0  0  0  0  0  0  0  0  0  0  0
   -0.2777    1.7805   -0.8504 C   0  0  0  0  0  0  0  0  0  0  0  0
   -1.1500    2.4291   -0.7119 H   0  0  0  0  0  0  0  0  0  0  0  0
    0.6223    2.3948   -0.7373 H   0  0  0  0  0  0  0  0  0  0  0  0
   -0.2766    1.1962   -2.2796 C   0  0  0  0  0  0  0  0  0  0  0  0
    0.6134    0.5753   -2.4168 H   0  0  0  0  0  0  0  0  0  0  0  0
   -1.1508    0.5550   -2.4202 H   0  0  0  0  0  0  0  0  0  0  0  0
   -0.2944    2.2614   -3.3768 C   0  0  0  0  0  0  0  0  0  0  0  0
   -0.4365    3.4366   -3.0776 O   0  0  0  0  0  0  0  0  0  0  0  0
   -0.1531    1.8293   -4.6503 O   0  0  0  0  0  0  0  0  0  0  0  0
   -0.1869    2.6212   -5.2082 H   0  0  0  0  0  0  0  0  0  0  0  0
    0.0118    1.2095    1.6525 C   0  0  0  0  0  0  0  0  0  0  0  0
   -0.0642    0.4735    2.6257 O   0  0  0  0  0  0  0  0  0  0  0  0
    0.1935    2.5623    1.8932 N   0  0  0  0  0  0  0  0  0  0  0  0
    0.2151    3.1862    1.0925 H   0  0  0  0  0  0  0  0  0  0  0  0
    0.3791    3.1235    3.2273 C   0  0  0  0  0  0  0  0  0  0  0  0
    1.2625    2.6881    3.7065 H   0  0  0  0  0  0  0  0  0  0  0  0
    0.5178    4.2073    3.1671 H   0  0  0  0  0  0  0  0  0  0  0  0
   -0.4962    2.9213    3.8537 H   0  0  0  0  0  0  0  0  0  0  0  0
  1  2  1  0  0  0  0
  2  3  1  0  0  0  0
  2  4  1  0  0  0  0
  2  5  1  0  0  0  0
  5  6  2  0  0  0  0
  5  7  1  0  0  0  0
  7  8  1  0  0  0  0
  7  9  1  0  0  0  0
  9 10  1  0  0  0  0
  9 11  1  0  0  0  0
  9 21  1  0  0  0  0
 11 12  1  0  0  0  0
 11 13  1  0  0  0  0
 11 14  1  0  0  0  0
 14 15  1  0  0  0  0
 14 16  1  0  0  0  0
 14 17  1  0  0  0  0
 17 18  2  0  0  0  0
 17 19  1  0  0  0  0
 19 20  1  0  0  0  0
 21 22  2  0  0  0  0
 21 23  1  0  0  0  0
 23 24  1  0  0  0  0
 23 25  1  0  0  0  0
 25 26  1  0  0  0  0
 25 27  1  0  0  0  0
 25 28  1  0  0  0  0
M  END
$$$$

  -OEChem-01062216073D

 28 27  0     1  0  0  0  0  0999 V2000
   -3.0553   -2.8344    1.4384 H   0  0  0  0  0  0  0  0  0  0  0  0
   -3.1177   -1.8220    1.0294 C   0  0  0  0  0  0  0  0  0  0  0  0
   -3.5763   -1.1707    1.7772 H   0  0  0  0  0  0  0  0  0  0  0  0
   -3.7446   -1.8406    0.1348 H   0  0  0  0  0  0  0  0  0  0  0  0
   -1.7309   -1.3152    0.6813 C   0  0  0  0  0  0  0  0  0  0  0  0
   -0.7722   -2.0629    0.7717 O   0  0  0  0  0  0  0  0  0  0  0  0
   -1.5788   -0.0422    0.1649 N   0  0  0  0  0  0  0  0  0  0  0  0
   -2.4233    0.5202    0.1749 H   0  0  0  0  0  0  0  0  0  0  0  0
   -0.2941    0.6771    0.2421 C   0  0  1  0  0  0  0  0  0  0  0  0
    0.5253   -0.0142    0.0125 H   0  0  0  0  0  0  0  0  0  0  0  0
   -0.2869    1.7830   -0.8296 C   0  0  0  0  0  0  0  0  0  0  0  0
   -1.1657    2.4244   -0.7003 H   0  0  0  0  0  0  0  0  0  0  0  0
    0.6069    2.4044   -0.7025 H   0  0  0  0  0  0  0  0  0  0  0  0
   -0.2739    1.1983   -2.2580 C   0  0  0  0  0  0  0  0  0  0  0  0
    0.6207    0.5827   -2.3891 H   0  0  0  0  0  0  0  0  0  0  0  0
   -1.1432    0.5515   -2.4038 H   0  0  0  0  0  0  0  0  0  0  0  0
   -0.2904    2.2621   -3.3564 C   0  0  0  0  0  0  0  0  0  0  0  0
   -0.4408    3.4369   -3.0598 O   0  0  0  0  0  0  0  0  0  0  0  0
   -0.1404    1.8287   -4.6284 O   0  0  0  0  0  0  0  0  0  0  0  0
   -0.1726    2.6197   -5.1878 H   0  0  0  0  0  0  0  0  0  0  0  0
   -0.0056    1.2206    1.6667 C   0  0  0  0  0  0  0  0  0  0  0  0
    0.2432    0.4620    2.5911 O   0  0  0  0  0  0  0  0  0  0  0  0
   -0.1390    2.5691    1.9563 N   0  0  0  0  0  0  0  0  0  0  0  0
   -0.3413    3.1990    1.1863 H   0  0  0  0  0  0  0  0  0  0  0  0
    0.0745    3.1288    3.2865 C   0  0  0  0  0  0  0  0  0  0  0  0
    1.1026    2.9480    3.6177 H   0  0  0  0  0  0  0  0  0  0  0  0
   -0.1011    4.2088    3.2760 H   0  0  0  0  0  0  0  0  0  0  0  0
   -0.6126    2.6750    4.0086 H   0  0  0  0  0  0  0  0  0  0  0  0
  1  2  1  0  0  0  0
  2  3  1  0  0  0  0
  2  4  1  0  0  0  0
  2  5  1  0  0  0  0
  5  6  2  0  0  0  0
  5  7  1  0  0  0  0
  7  8  1  0  0  0  0
  7  9  1  0  0  0  0
  9 10  1  0  0  0  0
  9 11  1  0  0  0  0
  9 21  1  0  0  0  0
 11 12  1  0  0  0  0
 11 13  1  0  0  0  0
 11 14  1  0  0  0  0
 14 15  1  0  0  0  0
 14 16  1  0  0  0  0
 14 17  1  0  0  0  0
 17 18  2  0  0  0  0
 17 19  1  0  0  0  0
 19 20  1  0  0  0  0
 21 22  2  0  0  0  0
 21 23  1  0  0  0  0
 23 24  1  0  0  0  0
 23 25  1  0  0  0  0
 25 26  1  0  0  0  0
 25 27  1  0  0  0  0
 25 28  1  0  0  0  0
M  END
$$$$

  -OEChem-01062216073D

 28 27  0     1  0  0  0  0  0999 V2000
   -3.1110   -2.8764    1.3529 H   0  0  0  0  0  0  0  0  0  0  0  0
   -3.1579   -1.8733    0.9193 C   0  0  0  0  0  0  0  0  0  0  0  0
   -3.7195   -1.2255    1.5965 H   0  0  0  0  0  0  0  0  0  0  0  0
   -3.6780   -1.9280   -0.0400 H   0  0  0  0  0  0  0  0  0  0  0  0
   -1.7566   -1.3273    0.7192 C   0  0  0  0  0  0  0  0  0  0  0  0
   -0.7938   -2.0366    0.9493 O   0  0  0  0  0  0  0  0  0  0  0  0
   -1.5869   -0.0568    0.2030 N   0  0  0  0  0  0  0  0  0  0  0  0
   -2.4365    0.4868    0.0923 H   0  0  0  0  0  0  0  0  0  0  0  0
   -0.3072    0.6719    0.2787 C   0  0  1  0  0  0  0  0  0  0  0  0
    0.5142   -0.0178    0.0501 H   0  0  0  0  0  0  0  0  0  0  0  0
   -0.3012    1.7801   -0.7897 C   0  0  0  0  0  0  0  0  0  0  0  0
   -1.1824    2.4182   -0.6642 H   0  0  0  0  0  0  0  0  0  0  0  0
    0.5884    2.4061   -0.6535 H   0  0  0  0  0  0  0  0  0  0  0  0
   -0.2821    1.1980   -2.2193 C   0  0  0  0  0  0  0  0  0  0  0  0
    0.6157    0.5866   -2.3488 H   0  0  0  0  0  0  0  0  0  0  0  0
   -1.1483    0.5481   -2.3691 H   0  0  0  0  0  0  0  0  0  0  0  0
   -0.2996    2.2628   -3.3167 C   0  0  0  0  0  0  0  0  0  0  0  0
   -0.4551    3.4369   -3.0204 O   0  0  0  0  0  0  0  0  0  0  0  0
   -0.1464    1.8299   -4.5884 O   0  0  0  0  0  0  0  0  0  0  0  0
   -0.1752    2.6214   -5.1472 H   0  0  0  0  0  0  0  0  0  0  0  0
   -0.0187    1.2274    1.6958 C   0  0  0  0  0  0  0  0  0  0  0  0
    0.6014    0.5693    2.5164 O   0  0  0  0  0  0  0  0  0  0  0  0
   -0.4473    2.4932    2.0609 N   0  0  0  0  0  0  0  0  0  0  0  0
   -0.9145    3.0540    1.3559 H   0  0  0  0  0  0  0  0  0  0  0  0
   -0.1706    3.0856    3.3648 C   0  0  0  0  0  0  0  0  0  0  0  0
    0.9090    3.1864    3.5185 H   0  0  0  0  0  0  0  0  0  0  0  0
   -0.6245    4.0789    3.4341 H   0  0  0  0  0  0  0  0  0  0  0  0
   -0.5825    2.4613    4.1649 H   0  0  0  0  0  0  0  0  0  0  0  0
  1  2  1  0  0  0  0
  2  3  1  0  0  0  0
  2  4  1  0  0  0  0
  2  5  1  0  0  0  0
  5  6  2  0  0  0  0
  5  7  1  0  0  0  0
  7  8  1  0  0  0  0
  7  9  1  0  0  0  0
  9 10  1  0  0  0  0
  9 11  1  0  0  0  0
  9 21  1  0  0  0  0
 11 12  1  0  0  0  0
 11 13  1  0  0  0  0
 11 14  1  0  0  0  0
 14 15  1  0  0  0  0
 14 16  1  0  0  0  0
 14 17  1  0  0  0  0
 17 18  2  0  0  0  0
 17 19  1  0  0  0  0
 19 20  1  0  0  0  0
 21 22  2  0  0  0  0
 21 23  1  0  0  0  0
 23 24  1  0  0  0  0
 23 25  1  0  0  0  0
 25 26  1  0  0  0  0
 25 27  1  0  0  0  0
 25 28  1  0  0  0  0
M  END
$$$$

  -OEChem-01062216073D

 28 27  0     1  0  0  0  0  0999 V2000
   -3.1647   -2.9248    1.2470 H   0  0  0  0  0  0  0  0  0  0  0  0
   -3.1874   -1.9303    0.7919 C   0  0  0  0  0  0  0  0  0  0  0  0
   -3.8567   -1.2935    1.3750 H   0  0  0  0  0  0  0  0  0  0  0  0
   -3.5723   -2.0186   -0.2269 H   0  0  0  0  0  0  0  0  0  0  0  0
   -1.7923   -1.3350    0.7705 C   0  0  0  0  0  0  0  0  0  0  0  0
   -0.8497   -1.9858    1.1822 O   0  0  0  0  0  0  0  0  0  0  0  0
   -1.5982   -0.0695    0.2525 N   0  0  0  0  0  0  0  0  0  0  0  0
   -2.4271    0.4297   -0.0527 H   0  0  0  0  0  0  0  0  0  0  0  0
   -0.3155    0.6552    0.3174 C   0  0  1  0  0  0  0  0  0  0  0  0
    0.4988   -0.0411    0.0820 H   0  0  0  0  0  0  0  0  0  0  0  0
   -0.3091    1.7699   -0.7431 C   0  0  0  0  0  0  0  0  0  0  0  0
   -1.1825    2.4163   -0.6054 H   0  0  0  0  0  0  0  0  0  0  0  0
    0.5862    2.3879   -0.6063 H   0  0  0  0  0  0  0  0  0  0  0  0
   -0.3039    1.1975   -2.1767 C   0  0  0  0  0  0  0  0  0  0  0  0
    0.5899    0.5821   -2.3150 H   0  0  0  0  0  0  0  0  0  0  0  0
   -1.1743    0.5536   -2.3252 H   0  0  0  0  0  0  0  0  0  0  0  0
   -0.3215    2.2684   -3.2684 C   0  0  0  0  0  0  0  0  0  0  0  0
   -0.4669    3.4420   -2.9661 O   0  0  0  0  0  0  0  0  0  0  0  0
   -0.1820    1.8402   -4.5433 O   0  0  0  0  0  0  0  0  0  0  0  0
   -0.2053    2.6355   -5.0973 H   0  0  0  0  0  0  0  0  0  0  0  0
   -0.0094    1.2198    1.7249 C   0  0  0  0  0  0  0  0  0  0  0  0
    0.9198    0.7804    2.3853 O   0  0  0  0  0  0  0  0  0  0  0  0
   -0.6790    2.3381    2.1925 N   0  0  0  0  0  0  0  0  0  0  0  0
   -1.4122    2.7260    1.6090 H   0  0  0  0  0  0  0  0  0  0  0  0
   -0.3693    2.9820    3.4639 C   0  0  0  0  0  0  0  0  0  0  0  0
    0.6679    3.3338    3.4729 H   0  0  0  0  0  0  0  0  0  0  0  0
   -1.0269    3.8417    3.6239 H   0  0  0  0  0  0  0  0  0  0  0  0
   -0.5097    2.2796    4.2926 H   0  0  0  0  0  0  0  0  0  0  0  0
  1  2  1  0  0  0  0
  2  3  1  0  0  0  0
  2  4  1  0  0  0  0
  2  5  1  0  0  0  0
  5  6  2  0  0  0  0
  5  7  1  0  0  0  0
  7  8  1  0  0  0  0
  7  9  1  0  0  0  0
  9 10  1  0  0  0  0
  9 11  1  0  0  0  0
  9 21  1  0  0  0  0
 11 12  1  0  0  0  0
 11 13  1  0  0  0  0
 11 14  1  0  0  0  0
 14 15  1  0  0  0  0
 14 16  1  0  0  0  0
 14 17  1  0  0  0  0
 17 18  2  0  0  0  0
 17 19  1  0  0  0  0
 19 20  1  0  0  0  0
 21 22  2  0  0  0  0
 21 23  1  0  0  0  0
 23 24  1  0  0  0  0
 23 25  1  0  0  0  0
 25 26  1  0  0  0  0
 25 27  1  0  0  0  0
 25 28  1  0  0  0  0
M  END
$$$$

  -OEChem-01062216073D

 28 27  0     1  0  0  0  0  0999 V2000
   -3.1786   -2.9638    1.1329 H   0  0  0  0  0  0  0  0  0  0  0  0
   -3.1909   -1.9682    0.6801 C   0  0  0  0  0  0  0  0  0  0  0  0
   -3.9548   -1.3654    1.1769 H   0  0  0  0  0  0  0  0  0  0  0  0
   -3.4432   -2.0674   -0.3783 H   0  0  0  0  0  0  0  0  0  0  0  0
   -1.8324   -1.3104    0.8314 C   0  0  0  0  0  0  0  0  0  0  0  0
   -0.9357   -1.8931    1.4128 O   0  0  0  0  0  0  0  0  0  0  0  0
   -1.6177   -0.0544    0.3002 N   0  0  0  0  0  0  0  0  0  0  0  0
   -2.3797    0.3591   -0.2275 H   0  0  0  0  0  0  0  0  0  0  0  0
   -0.3213    0.6464    0.3460 C   0  0  1  0  0  0  0  0  0  0  0  0
    0.4762   -0.0662    0.1031 H   0  0  0  0  0  0  0  0  0  0  0  0
   -0.3084    1.7631   -0.7109 C   0  0  0  0  0  0  0  0  0  0  0  0
   -1.1645    2.4282   -0.5550 H   0  0  0  0  0  0  0  0  0  0  0  0
    0.6012    2.3627   -0.5851 H   0  0  0  0  0  0  0  0  0  0  0  0
   -0.3354    1.1942   -2.1459 C   0  0  0  0  0  0  0  0  0  0  0  0
    0.5451    0.5633   -2.2975 H   0  0  0  0  0  0  0  0  0  0  0  0
   -1.2194    0.5668   -2.2839 H   0  0  0  0  0  0  0  0  0  0  0  0
   -0.3481    2.2657   -3.2373 C   0  0  0  0  0  0  0  0  0  0  0  0
   -0.4660    3.4418   -2.9346 O   0  0  0  0  0  0  0  0  0  0  0  0
   -0.2376    1.8331   -4.5137 O   0  0  0  0  0  0  0  0  0  0  0  0
   -0.2531    2.6287   -5.0676 H   0  0  0  0  0  0  0  0  0  0  0  0
    0.0152    1.2189    1.7408 C   0  0  0  0  0  0  0  0  0  0  0  0
    1.1189    1.0316    2.2322 O   0  0  0  0  0  0  0  0  0  0  0  0
   -0.8244    2.1477    2.3303 N   0  0  0  0  0  0  0  0  0  0  0  0
   -1.7403    2.2735    1.9135 H   0  0  0  0  0  0  0  0  0  0  0  0
   -0.5293    2.7941    3.6034 C   0  0  0  0  0  0  0  0  0  0  0  0
    0.4100    3.3539    3.5405 H   0  0  0  0  0  0  0  0  0  0  0  0
   -1.3290    3.4921    3.8688 H   0  0  0  0  0  0  0  0  0  0  0  0
   -0.4408    2.0475    4.3999 H   0  0  0  0  0  0  0  0  0  0  0  0
  1  2  1  0  0  0  0
  2  3  1  0  0  0  0
  2  4  1  0  0  0  0
  2  5  1  0  0  0  0
  5  6  2  0  0  0  0
  5  7  1  0  0  0  0
  7  8  1  0  0  0  0
  7  9  1  0  0  0  0
  9 10  1  0  0  0  0
  9 11  1  0  0  0  0
  9 21  1  0  0  0  0
 11 12  1  0  0  0  0
 11 13  1  0  0  0  0
 11 14  1  0  0  0  0
 14 15  1  0  0  0  0
 14 16  1  0  0  0  0
 14 17  1  0  0  0  0
 17 18  2  0  0  0  0
 17 19  1  0  0  0  0
 19 20  1  0  0  0  0
 21 22  2  0  0  0  0
 21 23  1  0  0  0  0
 23 24  1  0  0  0  0
 23 25  1  0  0  0  0
 25 26  1  0  0  0  0
 25 27  1  0  0  0  0
 25 28  1  0  0  0  0
M  END
$$$$

  -OEChem-01062216073D

 28 27  0     1  0  0  0  0  0999 V2000
   -3.1758   -2.9725    1.1019 H   0  0  0  0  0  0  0  0  0  0  0  0
   -3.1875   -1.9799    0.6425 C   0  0  0  0  0  0  0  0  0  0  0  0
   -3.9860   -1.3908    1.0993 H   0  0  0  0  0  0  0  0  0  0  0  0
   -3.3888   -2.0907   -0.4256 H   0  0  0  0  0  0  0  0  0  0  0  0
   -1.8508   -1.2939    0.8518 C   0  0  0  0  0  0  0  0  0  0  0  0
   -0.9788   -1.8423    1.5007 O   0  0  0  0  0  0  0  0  0  0  0  0
   -1.6290   -0.0434    0.3109 N   0  0  0  0  0  0  0  0  0  0  0  0
   -2.3547    0.3314   -0.2920 H   0  0  0  0  0  0  0  0  0  0  0  0
   -0.3231    0.6416    0.3513 C   0  0  1  0  0  0  0  0  0  0  0  0
    0.4661   -0.0796    0.1077 H   0  0  0  0  0  0  0  0  0  0  0  0
   -0.3053    1.7598   -0.7040 C   0  0  0  0  0  0  0  0  0  0  0  0
   -1.1521    2.4348   -0.5382 H   0  0  0  0  0  0  0  0  0  0  0  0
    0.6121    2.3489   -0.5841 H   0  0  0  0  0  0  0  0  0  0  0  0
   -0.3482    1.1948   -2.1402 C   0  0  0  0  0  0  0  0  0  0  0  0
    0.5252    0.5556   -2.2993 H   0  0  0  0  0  0  0  0  0  0  0  0
   -1.2393    0.5772   -2.2746 H   0  0  0  0  0  0  0  0  0  0  0  0
   -0.3567    2.2687   -3.2291 C   0  0  0  0  0  0  0  0  0  0  0  0
   -0.4595    3.4456   -2.9249 O   0  0  0  0  0  0  0  0  0  0  0  0
   -0.2636    1.8360   -4.5068 O   0  0  0  0  0  0  0  0  0  0  0  0
   -0.2723    2.6330   -5.0589 H   0  0  0  0  0  0  0  0  0  0  0  0
    0.0269    1.2186    1.7400 C   0  0  0  0  0  0  0  0  0  0  0  0
    1.1934    1.2631    2.1051 O   0  0  0  0  0  0  0  0  0  0  0  0
   -0.9275    1.9124    2.4617 N   0  0  0  0  0  0  0  0  0  0  0  0
   -1.8905    1.7993    2.1641 H   0  0  0  0  0  0  0  0  0  0  0  0
   -0.6547    2.5186    3.7591 C   0  0  0  0  0  0  0  0  0  0  0  0
    0.1500    3.2570    3.6763 H   0  0  0  0  0  0  0  0  0  0  0  0
   -1.5482    3.0249    4.1362 H   0  0  0  0  0  0  0  0  0  0  0  0
   -0.3566    1.7529    4.4834 H   0  0  0  0  0  0  0  0  0  0  0  0
  1  2  1  0  0  0  0
  2  3  1  0  0  0  0
  2  4  1  0  0  0  0
  2  5  1  0  0  0  0
  5  6  2  0  0  0  0
  5  7  1  0  0  0  0
  7  8  1  0  0  0  0
  7  9  1  0  0  0  0
  9 10  1  0  0  0  0
  9 11  1  0  0  0  0
  9 21  1  0  0  0  0
 11 12  1  0  0  0  0
 11 13  1  0  0  0  0
 11 14  1  0  0  0  0
 14 15  1  0  0  0  0
 14 16  1  0  0  0  0
 14 17  1  0  0  0  0
 17 18  2  0  0  0  0
 17 19  1  0  0  0  0
 19 20  1  0  0  0  0
 21 22  2  0  0  0  0
 21 23  1  0  0  0  0
 23 24  1  0  0  0  0
 23 25  1  0  0  0  0
 25 26  1  0  0  0  0
 25 27  1  0  0  0  0
 25 28  1  0  0  0  0
M  END
$$$$

  -OEChem-01062216073D

 28 27  0     1  0  0  0  0  0999 V2000
   -3.1790   -2.9750    1.0798 H   0  0  0  0  0  0  0  0  0  0  0  0
   -3.1867   -1.9865    0.6112 C   0  0  0  0  0  0  0  0  0  0  0  0
   -4.0049   -1.4013    1.0378 H   0  0  0  0  0  0  0  0  0  0  0  0
   -3.3540   -2.1086   -0.4616 H   0  0  0  0  0  0  0  0  0  0  0  0
   -1.8640   -1.2851    0.8543 C   0  0  0  0  0  0  0  0  0  0  0  0
   -1.0090   -1.8134    1.5418 O   0  0  0  0  0  0  0  0  0  0  0  0
   -1.6376   -0.0363    0.3115 N   0  0  0  0  0  0  0  0  0  0  0  0
   -2.3490    0.3283   -0.3148 H   0  0  0  0  0  0  0  0  0  0  0  0
   -0.3275    0.6424    0.3544 C   0  0  1  0  0  0  0  0  0  0  0  0
    0.4588   -0.0818    0.1105 H   0  0  0  0  0  0  0  0  0  0  0  0
   -0.3088    1.7596   -0.7025 C   0  0  0  0  0  0  0  0  0  0  0  0
   -1.1538    2.4363   -0.5341 H   0  0  0  0  0  0  0  0  0  0  0  0
    0.6096    2.3477   -0.5859 H   0  0  0  0  0  0  0  0  0  0  0  0
   -0.3549    1.1939   -2.1387 C   0  0  0  0  0  0  0  0  0  0  0  0
    0.5171    0.5532   -2.2987 H   0  0  0  0  0  0  0  0  0  0  0  0
   -1.2474    0.5780   -2.2720 H   0  0  0  0  0  0  0  0  0  0  0  0
   -0.3626    2.2674   -3.2282 C   0  0  0  0  0  0  0  0  0  0  0  0
   -0.4626    3.4447   -2.9250 O   0  0  0  0  0  0  0  0  0  0  0  0
   -0.2709    1.8338   -4.5058 O   0  0  0  0  0  0  0  0  0  0  0  0
   -0.2788    2.6311   -5.0577 H   0  0  0  0  0  0  0  0  0  0  0  0
    0.0300    1.2224    1.7408 C   0  0  0  0  0  0  0  0  0  0  0  0
    1.1954    1.4839    2.0060 O   0  0  0  0  0  0  0  0  0  0  0  0
   -0.9674    1.6494    2.5982 N   0  0  0  0  0  0  0  0  0  0  0  0
   -1.9048    1.3232    2.3882 H   0  0  0  0  0  0  0  0  0  0  0  0
   -0.6928    2.2049    3.9177 C   0  0  0  0  0  0  0  0  0  0  0  0
   -0.0648    3.0984    3.8346 H   0  0  0  0  0  0  0  0  0  0  0  0
   -1.6273    2.4866    4.4121 H   0  0  0  0  0  0  0  0  0  0  0  0
   -0.1760    1.4691    4.5430 H   0  0  0  0  0  0  0  0  0  0  0  0
  1  2  1  0  0  0  0
  2  3  1  0  0  0  0
  2  4  1  0  0  0  0
  2  5  1  0  0  0  0
  5  6  2  0  0  0  0
  5  7  1  0  0  0  0
  7  8  1  0  0  0  0
  7  9  1  0  0  0  0
  9 10  1  0  0  0  0
  9 11  1  0  0  0  0
  9 21  1  0  0  0  0
 11 12  1  0  0  0  0
 11 13  1  0  0  0  0
 11 14  1  0  0  0  0
 14 15  1  0  0  0  0
 14 16  1  0  0  0  0
 14 17  1  0  0  0  0
 17 18  2  0  0  0  0
 17 19  1  0  0  0  0
 19 20  1  0  0  0  0
 21 22  2  0  0  0  0
 21 23  1  0  0  0  0
 23 24  1  0  0  0  0
 23 25  1  0  0  0  0
 25 26  1  0  0  0  0
 25 27  1  0  0  0  0
 25 28  1  0  0  0  0
M  END
$$$$

  -OEChem-01062216073D

 28 27  0     1  0  0  0  0  0999 V2000
   -3.1872   -2.9716    1.0484 H   0  0  0  0  0  0  0  0  0  0  0  0
   -3.1915   -1.9813    0.5833 C   0  0  0  0  0  0  0  0  0  0  0  0
   -4.0144   -1.3986    1.0043 H   0  0  0  0  0  0  0  0  0  0  0  0
   -3.3490   -2.0999   -0.4914 H   0  0  0  0  0  0  0  0  0  0  0  0
   -1.8719   -1.2794    0.8410 C   0  0  0  0  0  0  0  0  0  0  0  0
   -1.0296   -1.7997    1.5498 O   0  0  0  0  0  0  0  0  0  0  0  0
   -1.6381   -0.0294    0.3054 N   0  0  0  0  0  0  0  0  0  0  0  0
   -2.3487    0.3454   -0.3161 H   0  0  0  0  0  0  0  0  0  0  0  0
   -0.3286    0.6519    0.3597 C   0  0  1  0  0  0  0  0  0  0  0  0
    0.4605   -0.0696    0.1192 H   0  0  0  0  0  0  0  0  0  0  0  0
   -0.3161    1.7654   -0.7037 C   0  0  0  0  0  0  0  0  0  0  0  0
   -1.1668    2.4362   -0.5402 H   0  0  0  0  0  0  0  0  0  0  0  0
    0.5963    2.3632   -0.5904 H   0  0  0  0  0  0  0  0  0  0  0  0
   -0.3535    1.1923   -2.1375 C   0  0  0  0  0  0  0  0  0  0  0  0
    0.5242    0.5582   -2.2918 H   0  0  0  0  0  0  0  0  0  0  0  0
   -1.2408    0.5692   -2.2708 H   0  0  0  0  0  0  0  0  0  0  0  0
   -0.3670    2.2589   -3.2333 C   0  0  0  0  0  0  0  0  0  0  0  0
   -0.4773    3.4373   -2.9387 O   0  0  0  0  0  0  0  0  0  0  0  0
   -0.2736    1.8166   -4.5077 O   0  0  0  0  0  0  0  0  0  0  0  0
   -0.2893    2.6096   -5.0653 H   0  0  0  0  0  0  0  0  0  0  0  0
    0.0284    1.2334    1.7482 C   0  0  0  0  0  0  0  0  0  0  0  0
    1.1427    1.7013    1.9416 O   0  0  0  0  0  0  0  0  0  0  0  0
   -0.9392    1.3772    2.7253 N   0  0  0  0  0  0  0  0  0  0  0  0
   -1.7897    0.8429    2.5808 H   0  0  0  0  0  0  0  0  0  0  0  0
   -0.6414    1.8708    4.0640 C   0  0  0  0  0  0  0  0  0  0  0  0
   -0.2136    2.8776    4.0148 H   0  0  0  0  0  0  0  0  0  0  0  0
   -1.5555    1.9151    4.6636 H   0  0  0  0  0  0  0  0  0  0  0  0
    0.0723    1.2089    4.5658 H   0  0  0  0  0  0  0  0  0  0  0  0
  1  2  1  0  0  0  0
  2  3  1  0  0  0  0
  2  4  1  0  0  0  0
  2  5  1  0  0  0  0
  5  6  2  0  0  0  0
  5  7  1  0  0  0  0
  7  8  1  0  0  0  0
  7  9  1  0  0  0  0
  9 10  1  0  0  0  0
  9 11  1  0  0  0  0
  9 21  1  0  0  0  0
 11 12  1  0  0  0  0
 11 13  1  0  0  0  0
 11 14  1  0  0  0  0
 14 15  1  0  0  0  0
 14 16  1  0  0  0  0
 14 17  1  0  0  0  0
 17 18  2  0  0  0  0
 17 19  1  0  0  0  0
 19 20  1  0  0  0  0
 21 22  2  0  0  0  0
 21 23  1  0  0  0  0
 23 24  1  0  0  0  0
 23 25  1  0  0  0  0
 25 26  1  0  0  0  0
 25 27  1  0  0  0  0
 25 28  1  0  0  0  0
M  END
$$$$

  -OEChem-01062216073D

 28 27  0     1  0  0  0  0  0999 V2000
   -3.1986   -2.9727    0.9901 H   0  0  0  0  0  0  0  0  0  0  0  0
   -3.2027   -1.9718    0.5491 C   0  0  0  0  0  0  0  0  0  0  0  0
   -4.0288   -1.4004    0.9792 H   0  0  0  0  0  0  0  0  0  0  0  0
   -3.3551   -2.0654   -0.5289 H   0  0  0  0  0  0  0  0  0  0  0  0
   -1.8863   -1.2725    0.8298 C   0  0  0  0  0  0  0  0  0  0  0  0
   -1.0650   -1.7826    1.5707 O   0  0  0  0  0  0  0  0  0  0  0  0
   -1.6418   -0.0203    0.3064 N   0  0  0  0  0  0  0  0  0  0  0  0
   -2.3531    0.3676   -0.3064 H   0  0  0  0  0  0  0  0  0  0  0  0
   -0.3332    0.6635    0.3692 C   0  0  1  0  0  0  0  0  0  0  0  0
    0.4574   -0.0568    0.1307 H   0  0  0  0  0  0  0  0  0  0  0  0
   -0.3266    1.7704   -0.7040 C   0  0  0  0  0  0  0  0  0  0  0  0
   -1.1828    2.4356   -0.5461 H   0  0  0  0  0  0  0  0  0  0  0  0
    0.5804    2.3771   -0.5977 H   0  0  0  0  0  0  0  0  0  0  0  0
   -0.3560    1.1877   -2.1343 C   0  0  0  0  0  0  0  0  0  0  0  0
    0.5270    0.5594   -2.2823 H   0  0  0  0  0  0  0  0  0  0  0  0
   -1.2381    0.5567   -2.2659 H   0  0  0  0  0  0  0  0  0  0  0  0
   -0.3749    2.2478   -3.2367 C   0  0  0  0  0  0  0  0  0  0  0  0
   -0.4952    3.4271   -2.9498 O   0  0  0  0  0  0  0  0  0  0  0  0
   -0.2687    1.7995   -4.5081 O   0  0  0  0  0  0  0  0  0  0  0  0
   -0.2846    2.5904   -5.0691 H   0  0  0  0  0  0  0  0  0  0  0  0
    0.0251    1.2409    1.7627 C   0  0  0  0  0  0  0  0  0  0  0  0
    1.0368    1.9158    1.9028 O   0  0  0  0  0  0  0  0  0  0  0  0
   -0.8380    1.1028    2.8339 N   0  0  0  0  0  0  0  0  0  0  0  0
   -1.5155    0.3514    2.7366 H   0  0  0  0  0  0  0  0  0  0  0  0
   -0.4968    1.5529    4.1778 C   0  0  0  0  0  0  0  0  0  0  0  0
   -0.3070    2.6314    4.1847 H   0  0  0  0  0  0  0  0  0  0  0  0
   -1.3206    1.3447    4.8671 H   0  0  0  0  0  0  0  0  0  0  0  0
    0.3984    1.0359    4.5388 H   0  0  0  0  0  0  0  0  0  0  0  0
  1  2  1  0  0  0  0
  2  3  1  0  0  0  0
  2  4  1  0  0  0  0
  2  5  1  0  0  0  0
  5  6  2  0  0  0  0
  5  7  1  0  0  0  0
  7  8  1  0  0  0  0
  7  9  1  0  0  0  0
  9 10  1  0  0  0  0
  9 11  1  0  0  0  0
  9 21  1  0  0  0  0
 11 12  1  0  0  0  0
 11 13  1  0  0  0  0
 11 14  1  0  0  0  0
 14 15  1  0  0  0  0
 14 16  1  0  0  0  0
 14 17  1  0  0  0  0
 17 18  2  0  0  0  0
 17 19  1  0  0  0  0
 19 20  1  0  0  0  0
 21 22  2  0  0  0  0
 21 23  1  0  0  0  0
 23 24  1  0  0  0  0
 23 25  1  0  0  0  0
 25 26  1  0  0  0  0
 25 27  1  0  0  0  0
 25 28  1  0  0  0  0
M  END
$$$$

  -OEChem-01062216073D

 28 27  0     1  0  0  0  0  0999 V2000
   -3.2220   -2.9494    0.9782 H   0  0  0  0  0  0  0  0  0  0  0  0
   -3.2119   -1.9477    0.5392 C   0  0  0  0  0  0  0  0  0  0  0  0
   -4.0279   -1.3644    0.9727 H   0  0  0  0  0  0  0  0  0  0  0  0
   -3.3683   -2.0360   -0.5387 H   0  0  0  0  0  0  0  0  0  0  0  0
   -1.8847   -1.2691    0.8169 C   0  0  0  0  0  0  0  0  0  0  0  0
   -1.0616   -1.7977    1.5445 O   0  0  0  0  0  0  0  0  0  0  0  0
   -1.6328   -0.0120    0.3102 N   0  0  0  0  0  0  0  0  0  0  0  0
   -2.3607    0.4054   -0.2624 H   0  0  0  0  0  0  0  0  0  0  0  0
   -0.3260    0.6748    0.3757 C   0  0  1  0  0  0  0  0  0  0  0  0
    0.4649   -0.0433    0.1327 H   0  0  0  0  0  0  0  0  0  0  0  0
   -0.3282    1.7782   -0.7031 C   0  0  0  0  0  0  0  0  0  0  0  0
   -1.1871    2.4401   -0.5457 H   0  0  0  0  0  0  0  0  0  0  0  0
    0.5762    2.3901   -0.6051 H   0  0  0  0  0  0  0  0  0  0  0  0
   -0.3561    1.1864   -2.1300 C   0  0  0  0  0  0  0  0  0  0  0  0
    0.5306    0.5627   -2.2749 H   0  0  0  0  0  0  0  0  0  0  0  0
   -1.2341    0.5488   -2.2557 H   0  0  0  0  0  0  0  0  0  0  0  0
   -0.3838    2.2375   -3.2407 C   0  0  0  0  0  0  0  0  0  0  0  0
   -0.5114    3.4183   -2.9639 O   0  0  0  0  0  0  0  0  0  0  0  0
   -0.2766    1.7787   -4.5081 O   0  0  0  0  0  0  0  0  0  0  0  0
   -0.3009    2.5643   -5.0758 H   0  0  0  0  0  0  0  0  0  0  0  0
    0.0331    1.2383    1.7777 C   0  0  0  0  0  0  0  0  0  0  0  0
    0.8880    2.1067    1.8980 O   0  0  0  0  0  0  0  0  0  0  0  0
   -0.6591    0.8305    2.9027 N   0  0  0  0  0  0  0  0  0  0  0  0
   -1.1424   -0.0607    2.7948 H   0  0  0  0  0  0  0  0  0  0  0  0
   -0.2940    1.2546    4.2486 C   0  0  0  0  0  0  0  0  0  0  0  0
   -0.3487    2.3448    4.3362 H   0  0  0  0  0  0  0  0  0  0  0  0
   -0.9790    0.8165    4.9807 H   0  0  0  0  0  0  0  0  0  0  0  0
    0.7248    0.9330    4.4888 H   0  0  0  0  0  0  0  0  0  0  0  0
  1  2  1  0  0  0  0
  2  3  1  0  0  0  0
  2  4  1  0  0  0  0
  2  5  1  0  0  0  0
  5  6  2  0  0  0  0
  5  7  1  0  0  0  0
  7  8  1  0  0  0  0
  7  9  1  0  0  0  0
  9 10  1  0  0  0  0
  9 11  1  0  0  0  0
  9 21  1  0  0  0  0
 11 12  1  0  0  0  0
 11 13  1  0  0  0  0
 11 14  1  0  0  0  0
 14 15  1  0  0  0  0
 14 16  1  0  0  0  0
 14 17  1  0  0  0  0
 17 18  2  0  0  0  0
 17 19  1  0  0  0  0
 19 20  1  0  0  0  0
 21 22  2  0  0  0  0
 21 23  1  0  0  0  0
 23 24  1  0  0  0  0
 23 25  1  0  0  0  0
 25 26  1  0  0  0  0
 25 27  1  0  0  0  0
 25 28  1  0  0  0  0
M  END
$$$$

  -OEChem-01062216073D

 28 27  0     1  0  0  0  0  0999 V2000
   -3.2277   -2.9260    1.0488 H   0  0  0  0  0  0  0  0  0  0  0  0
   -3.2200   -1.9234    0.6118 C   0  0  0  0  0  0  0  0  0  0  0  0
   -3.9847   -1.3184    1.1051 H   0  0  0  0  0  0  0  0  0  0  0  0
   -3.4568   -2.0027   -0.4520 H   0  0  0  0  0  0  0  0  0  0  0  0
   -1.8567   -1.2847    0.7934 C   0  0  0  0  0  0  0  0  0  0  0  0
   -0.9877   -1.8589    1.4291 O   0  0  0  0  0  0  0  0  0  0  0  0
   -1.6155   -0.0202    0.2985 N   0  0  0  0  0  0  0  0  0  0  0  0
   -2.3886    0.4480   -0.1654 H   0  0  0  0  0  0  0  0  0  0  0  0
   -0.3172    0.6821    0.3640 C   0  0  1  0  0  0  0  0  0  0  0  0
    0.4812   -0.0268    0.1195 H   0  0  0  0  0  0  0  0  0  0  0  0
   -0.3237    1.7854   -0.7154 C   0  0  0  0  0  0  0  0  0  0  0  0
   -1.1882    2.4409   -0.5624 H   0  0  0  0  0  0  0  0  0  0  0  0
    0.5758    2.4039   -0.6143 H   0  0  0  0  0  0  0  0  0  0  0  0
   -0.3403    1.1920   -2.1416 C   0  0  0  0  0  0  0  0  0  0  0  0
    0.5507    0.5738   -2.2826 H   0  0  0  0  0  0  0  0  0  0  0  0
   -1.2141    0.5488   -2.2698 H   0  0  0  0  0  0  0  0  0  0  0  0
   -0.3712    2.2422   -3.2529 C   0  0  0  0  0  0  0  0  0  0  0  0
   -0.5095    3.4221   -2.9774 O   0  0  0  0  0  0  0  0  0  0  0  0
   -0.2491    1.7844   -4.5196 O   0  0  0  0  0  0  0  0  0  0  0  0
   -0.2764    2.5697   -5.0878 H   0  0  0  0  0  0  0  0  0  0  0  0
    0.0284    1.2335    1.7751 C   0  0  0  0  0  0  0  0  0  0  0  0
    0.6705    2.2674    1.9102 O   0  0  0  0  0  0  0  0  0  0  0  0
   -0.4328    0.5933    2.9097 N   0  0  0  0  0  0  0  0  0  0  0  0
   -0.7575   -0.3636    2.7591 H   0  0  0  0  0  0  0  0  0  0  0  0
   -0.0557    0.9946    4.2590 C   0  0  0  0  0  0  0  0  0  0  0  0
   -0.3653    2.0270    4.4531 H   0  0  0  0  0  0  0  0  0  0  0  0
   -0.5411    0.3459    4.9945 H   0  0  0  0  0  0  0  0  0  0  0  0
    1.0288    0.9206    4.3918 H   0  0  0  0  0  0  0  0  0  0  0  0
  1  2  1  0  0  0  0
  2  3  1  0  0  0  0
  2  4  1  0  0  0  0
  2  5  1  0  0  0  0
  5  6  2  0  0  0  0
  5  7  1  0  0  0  0
  7  8  1  0  0  0  0
  7  9  1  0  0  0  0
  9 10  1  0  0  0  0
  9 11  1  0  0  0  0
  9 21  1  0  0  0  0
 11 12  1  0  0  0  0
 11 13  1  0  0  0  0
 11 14  1  0  0  0  0
 14 15  1  0  0  0  0
 14 16  1  0  0  0  0
 14 17  1  0  0  0  0
 17 18  2  0  0  0  0
 17 19  1  0  0  0  0
 19 20  1  0  0  0  0
 21 22  2  0  0  0  0
 21 23  1  0  0  0  0
 23 24  1  0  0  0  0
 23 25  1  0  0  0  0
 25 26  1  0  0  0  0
 25 27  1  0  0  0  0
 25 28  1  0  0  0  0
M  END
$$$$

  -OEChem-01062216073D

 28 27  0     1  0  0  0  0  0999 V2000
   -3.2128   -2.8974    1.1397 H   0  0  0  0  0  0  0  0  0  0  0  0
   -3.2079   -1.9008    0.6893 C   0  0  0  0  0  0  0  0  0  0  0  0
   -3.9276   -1.2720    1.2193 H   0  0  0  0  0  0  0  0  0  0  0  0
   -3.5101   -1.9865   -0.3573 H   0  0  0  0  0  0  0  0  0  0  0  0
   -1.8217   -1.2930    0.7805 C   0  0  0  0  0  0  0  0  0  0  0  0
   -0.9173   -1.9034    1.3286 O   0  0  0  0  0  0  0  0  0  0  0  0
   -1.5917   -0.0248    0.2884 N   0  0  0  0  0  0  0  0  0  0  0  0
   -2.3939    0.4794   -0.0786 H   0  0  0  0  0  0  0  0  0  0  0  0
   -0.2962    0.6807    0.3475 C   0  0  1  0  0  0  0  0  0  0  0  0
    0.5050   -0.0227    0.0963 H   0  0  0  0  0  0  0  0  0  0  0  0
   -0.3072    1.7883   -0.7270 C   0  0  0  0  0  0  0  0  0  0  0  0
   -1.1713    2.4433   -0.5689 H   0  0  0  0  0  0  0  0  0  0  0  0
    0.5928    2.4056   -0.6236 H   0  0  0  0  0  0  0  0  0  0  0  0
   -0.3290    1.1989   -2.1549 C   0  0  0  0  0  0  0  0  0  0  0  0
    0.5608    0.5803   -2.3012 H   0  0  0  0  0  0  0  0  0  0  0  0
   -1.2035    0.5560   -2.2801 H   0  0  0  0  0  0  0  0  0  0  0  0
   -0.3648    2.2509   -3.2641 C   0  0  0  0  0  0  0  0  0  0  0  0
   -0.5024    3.4303   -2.9861 O   0  0  0  0  0  0  0  0  0  0  0  0
   -0.2494    1.7953   -4.5322 O   0  0  0  0  0  0  0  0  0  0  0  0
   -0.2838    2.5813   -5.0988 H   0  0  0  0  0  0  0  0  0  0  0  0
    0.0410    1.2198    1.7645 C   0  0  0  0  0  0  0  0  0  0  0  0
    0.4428    2.3638    1.9346 O   0  0  0  0  0  0  0  0  0  0  0  0
   -0.1478    0.4167    2.8727 N   0  0  0  0  0  0  0  0  0  0  0  0
   -0.3649   -0.5638    2.6792 H   0  0  0  0  0  0  0  0  0  0  0  0
    0.2103    0.8098    4.2290 C   0  0  0  0  0  0  0  0  0  0  0  0
   -0.3362    1.7117    4.5238 H   0  0  0  0  0  0  0  0  0  0  0  0
   -0.0405    0.0097    4.9320 H   0  0  0  0  0  0  0  0  0  0  0  0
    1.2846    1.0098    4.2985 H   0  0  0  0  0  0  0  0  0  0  0  0
  1  2  1  0  0  0  0
  2  3  1  0  0  0  0
  2  4  1  0  0  0  0
  2  5  1  0  0  0  0
  5  6  2  0  0  0  0
  5  7  1  0  0  0  0
  7  8  1  0  0  0  0
  7  9  1  0  0  0  0
  9 10  1  0  0  0  0
  9 11  1  0  0  0  0
  9 21  1  0  0  0  0
 11 12  1  0  0  0  0
 11 13  1  0  0  0  0
 11 14  1  0  0  0  0
 14 15  1  0  0  0  0
 14 16  1  0  0  0  0
 14 17  1  0  0  0  0
 17 18  2  0  0  0  0
 17 19  1  0  0  0  0
 19 20  1  0  0  0  0
 21 22  2  0  0  0  0
 21 23  1  0  0  0  0
 23 24  1  0  0  0  0
 23 25  1  0  0  0  0
 25 26  1  0  0  0  0
 25 27  1  0  0  0  0
 25 28  1  0  0  0  0
M  END
$$$$

  -OEChem-01062216073D

 28 27  0     1  0  0  0  0  0999 V2000
   -3.1754   -2.8705    1.2319 H   0  0  0  0  0  0  0  0  0  0  0  0
   -3.1772   -1.8826    0.7622 C   0  0  0  0  0  0  0  0  0  0  0  0
   -3.8702   -1.2363    1.3062 H   0  0  0  0  0  0  0  0  0  0  0  0
   -3.5190   -1.9851   -0.2705 H   0  0  0  0  0  0  0  0  0  0  0  0
   -1.7823   -1.2878    0.7899 C   0  0  0  0  0  0  0  0  0  0  0  0
   -0.8569   -1.9134    1.2848 O   0  0  0  0  0  0  0  0  0  0  0  0
   -1.5627   -0.0210    0.2887 N   0  0  0  0  0  0  0  0  0  0  0  0
   -2.3776    0.5027   -0.0187 H   0  0  0  0  0  0  0  0  0  0  0  0
   -0.2630    0.6751    0.3261 C   0  0  1  0  0  0  0  0  0  0  0  0
    0.5330   -0.0292    0.0614 H   0  0  0  0  0  0  0  0  0  0  0  0
   -0.2799    1.7884   -0.7414 C   0  0  0  0  0  0  0  0  0  0  0  0
   -1.1374    2.4486   -0.5684 H   0  0  0  0  0  0  0  0  0  0  0  0
    0.6261    2.3981   -0.6439 H   0  0  0  0  0  0  0  0  0  0  0  0
   -0.3293    1.2065   -2.1713 C   0  0  0  0  0  0  0  0  0  0  0  0
    0.5526    0.5809   -2.3343 H   0  0  0  0  0  0  0  0  0  0  0  0
   -1.2117    0.5719   -2.2854 H   0  0  0  0  0  0  0  0  0  0  0  0
   -0.3722    2.2635   -3.2754 C   0  0  0  0  0  0  0  0  0  0  0  0
   -0.4944    3.4431   -2.9910 O   0  0  0  0  0  0  0  0  0  0  0  0
   -0.2778    1.8120   -4.5468 O   0  0  0  0  0  0  0  0  0  0  0  0
   -0.3140    2.6005   -5.1098 H   0  0  0  0  0  0  0  0  0  0  0  0
    0.0820    1.2056    1.7417 C   0  0  0  0  0  0  0  0  0  0  0  0
    0.2419    2.3999    1.9600 O   0  0  0  0  0  0  0  0  0  0  0  0
    0.1914    0.3165    2.7927 N   0  0  0  0  0  0  0  0  0  0  0  0
    0.0165   -0.6677    2.5740 H   0  0  0  0  0  0  0  0  0  0  0  0
    0.4828    0.7055    4.1657 C   0  0  0  0  0  0  0  0  0  0  0  0
   -0.2792    1.3982    4.5378 H   0  0  0  0  0  0  0  0  0  0  0  0
    0.4944   -0.1765    4.8132 H   0  0  0  0  0  0  0  0  0  0  0  0
    1.4619    1.1921    4.2254 H   0  0  0  0  0  0  0  0  0  0  0  0
  1  2  1  0  0  0  0
  2  3  1  0  0  0  0
  2  4  1  0  0  0  0
  2  5  1  0  0  0  0
  5  6  2  0  0  0  0
  5  7  1  0  0  0  0
  7  8  1  0  0  0  0
  7  9  1  0  0  0  0
  9 10  1  0  0  0  0
  9 11  1  0  0  0  0
  9 21  1  0  0  0  0
 11 12  1  0  0  0  0
 11 13  1  0  0  0  0
 11 14  1  0  0  0  0
 14 15  1  0  0  0  0
 14 16  1  0  0  0  0
 14 17  1  0  0  0  0
 17 18  2  0  0  0  0
 17 19  1  0  0  0  0
 19 20  1  0  0  0  0
 21 22  2  0  0  0  0
 21 23  1  0  0  0  0
 23 24  1  0  0  0  0
 23 25  1  0  0  0  0
 25 26  1  0  0  0  0
 25 27  1  0  0  0  0
 25 28  1  0  0  0  0
M  END
$$$$

  -OEChem-01062216073D

 28 27  0     1  0  0  0  0  0999 V2000
   -3.1193   -2.8594    1.3067 H   0  0  0  0  0  0  0  0  0  0  0  0
   -3.1403   -1.8699    0.8412 C   0  0  0  0  0  0  0  0  0  0  0  0
   -3.8041   -1.2228    1.4198 H   0  0  0  0  0  0  0  0  0  0  0  0
   -3.5312   -1.9675   -0.1746 H   0  0  0  0  0  0  0  0  0  0  0  0
   -1.7436   -1.2798    0.8043 C   0  0  0  0  0  0  0  0  0  0  0  0
   -0.7987   -1.9026    1.2666 O   0  0  0  0  0  0  0  0  0  0  0  0
   -1.5401   -0.0189    0.2818 N   0  0  0  0  0  0  0  0  0  0  0  0
   -2.3647    0.5192    0.0298 H   0  0  0  0  0  0  0  0  0  0  0  0
   -0.2373    0.6674    0.2994 C   0  0  1  0  0  0  0  0  0  0  0  0
    0.5549   -0.0391    0.0277 H   0  0  0  0  0  0  0  0  0  0  0  0
   -0.2535    1.7856   -0.7609 C   0  0  0  0  0  0  0  0  0  0  0  0
   -1.1035    2.4524   -0.5758 H   0  0  0  0  0  0  0  0  0  0  0  0
    0.6585    2.3862   -0.6648 H   0  0  0  0  0  0  0  0  0  0  0  0
   -0.3264    1.2139   -2.1935 C   0  0  0  0  0  0  0  0  0  0  0  0
    0.5457    0.5783   -2.3712 H   0  0  0  0  0  0  0  0  0  0  0  0
   -1.2182    0.5914   -2.3007 H   0  0  0  0  0  0  0  0  0  0  0  0
   -0.3693    2.2800   -3.2891 C   0  0  0  0  0  0  0  0  0  0  0  0
   -0.4740    3.4586   -2.9939 O   0  0  0  0  0  0  0  0  0  0  0  0
   -0.2947    1.8378   -4.5649 O   0  0  0  0  0  0  0  0  0  0  0  0
   -0.3316    2.6311   -5.1210 H   0  0  0  0  0  0  0  0  0  0  0  0
    0.1051    1.2006    1.7111 C   0  0  0  0  0  0  0  0  0  0  0  0
    0.0224    2.3912    1.9864 O   0  0  0  0  0  0  0  0  0  0  0  0
    0.5103    0.3075    2.6830 N   0  0  0  0  0  0  0  0  0  0  0  0
    0.3906   -0.6820    2.4524 H   0  0  0  0  0  0  0  0  0  0  0  0
    0.7560    0.6862    4.0679 C   0  0  0  0  0  0  0  0  0  0  0  0
   -0.1568    1.0835    4.5238 H   0  0  0  0  0  0  0  0  0  0  0  0
    1.0832   -0.1841    4.6446 H   0  0  0  0  0  0  0  0  0  0  0  0
    1.5388    1.4500    4.1228 H   0  0  0  0  0  0  0  0  0  0  0  0
  1  2  1  0  0  0  0
  2  3  1  0  0  0  0
  2  4  1  0  0  0  0
  2  5  1  0  0  0  0
  5  6  2  0  0  0  0
  5  7  1  0  0  0  0
  7  8  1  0  0  0  0
  7  9  1  0  0  0  0
  9 10  1  0  0  0  0
  9 11  1  0  0  0  0
  9 21  1  0  0  0  0
 11 12  1  0  0  0  0
 11 13  1  0  0  0  0
 11 14  1  0  0  0  0
 14 15  1  0  0  0  0
 14 16  1  0  0  0  0
 14 17  1  0  0  0  0
 17 18  2  0  0  0  0
 17 19  1  0  0  0  0
 19 20  1  0  0  0  0
 21 22  2  0  0  0  0
 21 23  1  0  0  0  0
 23 24  1  0  0  0  0
 23 25  1  0  0  0  0
 25 26  1  0  0  0  0
 25 27  1  0  0  0  0
 25 28  1  0  0  0  0
M  END
$$$$

  -OEChem-01062216073D

 28 27  0     1  0  0  0  0  0999 V2000
   -3.0650   -2.8434    1.3934 H   0  0  0  0  0  0  0  0  0  0  0  0
   -3.1053   -1.8616    0.9133 C   0  0  0  0  0  0  0  0  0  0  0  0
   -3.7369   -1.2023    1.5137 H   0  0  0  0  0  0  0  0  0  0  0  0
   -3.5467   -1.9730   -0.0801 H   0  0  0  0  0  0  0  0  0  0  0  0
   -1.7101   -1.2788    0.7971 C   0  0  0  0  0  0  0  0  0  0  0  0
   -0.7437   -1.9006    1.2157 O   0  0  0  0  0  0  0  0  0  0  0  0
   -1.5289   -0.0215    0.2576 N   0  0  0  0  0  0  0  0  0  0  0  0
   -2.3623    0.5353    0.0878 H   0  0  0  0  0  0  0  0  0  0  0  0
   -0.2270    0.6622    0.2716 C   0  0  1  0  0  0  0  0  0  0  0  0
    0.5682   -0.0405   -0.0003 H   0  0  0  0  0  0  0  0  0  0  0  0
   -0.2407    1.7865   -0.7817 C   0  0  0  0  0  0  0  0  0  0  0  0
   -1.0897    2.4536   -0.5927 H   0  0  0  0  0  0  0  0  0  0  0  0
    0.6723    2.3847   -0.6808 H   0  0  0  0  0  0  0  0  0  0  0  0
   -0.3187    1.2244   -2.2180 C   0  0  0  0  0  0  0  0  0  0  0  0
    0.5499    0.5863   -2.4020 H   0  0  0  0  0  0  0  0  0  0  0  0
   -1.2130    0.6058   -2.3270 H   0  0  0  0  0  0  0  0  0  0  0  0
   -0.3593    2.2980   -3.3062 C   0  0  0  0  0  0  0  0  0  0  0  0
   -0.4583    3.4749   -3.0022 O   0  0  0  0  0  0  0  0  0  0  0  0
   -0.2924    1.8647   -4.5856 O   0  0  0  0  0  0  0  0  0  0  0  0
   -0.3319    2.6618   -5.1361 H   0  0  0  0  0  0  0  0  0  0  0  0
    0.0943    1.1976    1.6848 C   0  0  0  0  0  0  0  0  0  0  0  0
   -0.2361    2.3259    2.0285 O   0  0  0  0  0  0  0  0  0  0  0  0
    0.7768    0.3841    2.5678 N   0  0  0  0  0  0  0  0  0  0  0  0
    0.7987   -0.6059    2.3179 H   0  0  0  0  0  0  0  0  0  0  0  0
    1.0241    0.7564    3.9547 C   0  0  0  0  0  0  0  0  0  0  0  0
    0.0786    0.8901    4.4906 H   0  0  0  0  0  0  0  0  0  0  0  0
    1.6020   -0.0245    4.4580 H   0  0  0  0  0  0  0  0  0  0  0  0
    1.5930    1.6909    4.0048 H   0  0  0  0  0  0  0  0  0  0  0  0
  1  2  1  0  0  0  0
  2  3  1  0  0  0  0
  2  4  1  0  0  0  0
  2  5  1  0  0  0  0
  5  6  2  0  0  0  0
  5  7  1  0  0  0  0
  7  8  1  0  0  0  0
  7  9  1  0  0  0  0
  9 10  1  0  0  0  0
  9 11  1  0  0  0  0
  9 21  1  0  0  0  0
 11 12  1  0  0  0  0
 11 13  1  0  0  0  0
 11 14  1  0  0  0  0
 14 15  1  0  0  0  0
 14 16  1  0  0  0  0
 14 17  1  0  0  0  0
 17 18  2  0  0  0  0
 17 19  1  0  0  0  0
 19 20  1  0  0  0  0
 21 22  2  0  0  0  0
 21 23  1  0  0  0  0
 23 24  1  0  0  0  0
 23 25  1  0  0  0  0
 25 26  1  0  0  0  0
 25 27  1  0  0  0  0
 25 28  1  0  0  0  0
M  END
$$$$

  -OEChem-01062216073D

 28 27  0     1  0  0  0  0  0999 V2000
   -3.0430   -2.8366    1.4412 H   0  0  0  0  0  0  0  0  0  0  0  0
   -3.0938   -1.8561    0.9595 C   0  0  0  0  0  0  0  0  0  0  0  0
   -3.6899   -1.1872    1.5851 H   0  0  0  0  0  0  0  0  0  0  0  0
   -3.5806   -1.9663   -0.0126 H   0  0  0  0  0  0  0  0  0  0  0  0
   -1.6985   -1.2896    0.7791 C   0  0  0  0  0  0  0  0  0  0  0  0
   -0.7217   -1.9249    1.1494 O   0  0  0  0  0  0  0  0  0  0  0  0
   -1.5284   -0.0354    0.2294 N   0  0  0  0  0  0  0  0  0  0  0  0
   -2.3629    0.5376    0.1360 H   0  0  0  0  0  0  0  0  0  0  0  0
   -0.2270    0.6473    0.2473 C   0  0  1  0  0  0  0  0  0  0  0  0
    0.5686   -0.0546   -0.0250 H   0  0  0  0  0  0  0  0  0  0  0  0
   -0.2363    1.7795   -0.7955 C   0  0  0  0  0  0  0  0  0  0  0  0
   -1.0847    2.4463   -0.6028 H   0  0  0  0  0  0  0  0  0  0  0  0
    0.6774    2.3749   -0.6882 H   0  0  0  0  0  0  0  0  0  0  0  0
   -0.3142    1.2304   -2.2365 C   0  0  0  0  0  0  0  0  0  0  0  0
    0.5523    0.5904   -2.4254 H   0  0  0  0  0  0  0  0  0  0  0  0
   -1.2113    0.6167   -2.3514 H   0  0  0  0  0  0  0  0  0  0  0  0
   -0.3503    2.3148   -3.3142 C   0  0  0  0  0  0  0  0  0  0  0  0
   -0.4463    3.4889   -2.9983 O   0  0  0  0  0  0  0  0  0  0  0  0
   -0.2803    1.8946   -4.5977 O   0  0  0  0  0  0  0  0  0  0  0  0
   -0.3195    2.6972   -5.1401 H   0  0  0  0  0  0  0  0  0  0  0  0
    0.0839    1.1899    1.6591 C   0  0  0  0  0  0  0  0  0  0  0  0
   -0.4770    2.1952    2.0780 O   0  0  0  0  0  0  0  0  0  0  0  0
    1.0117    0.5421    2.4514 N   0  0  0  0  0  0  0  0  0  0  0  0
    1.2503   -0.4053    2.1630 H   0  0  0  0  0  0  0  0  0  0  0  0
    1.2719    0.9301    3.8320 C   0  0  0  0  0  0  0  0  0  0  0  0
    0.3666    0.8202    4.4382 H   0  0  0  0  0  0  0  0  0  0  0  0
    2.0566    0.2992    4.2604 H   0  0  0  0  0  0  0  0  0  0  0  0
    1.6045    1.9724    3.8812 H   0  0  0  0  0  0  0  0  0  0  0  0
  1  2  1  0  0  0  0
  2  3  1  0  0  0  0
  2  4  1  0  0  0  0
  2  5  1  0  0  0  0
  5  6  2  0  0  0  0
  5  7  1  0  0  0  0
  7  8  1  0  0  0  0
  7  9  1  0  0  0  0
  9 10  1  0  0  0  0
  9 11  1  0  0  0  0
  9 21  1  0  0  0  0
 11 12  1  0  0  0  0
 11 13  1  0  0  0  0
 11 14  1  0  0  0  0
 14 15  1  0  0  0  0
 14 16  1  0  0  0  0
 14 17  1  0  0  0  0
 17 18  2  0  0  0  0
 17 19  1  0  0  0  0
 19 20  1  0  0  0  0
 21 22  2  0  0  0  0
 21 23  1  0  0  0  0
 23 24  1  0  0  0  0
 23 25  1  0  0  0  0
 25 26  1  0  0  0  0
 25 27  1  0  0  0  0
 25 28  1  0  0  0  0
M  END
$$$$

  -OEChem-01062216073D

 28 27  0     1  0  0  0  0  0999 V2000
   -3.0354   -2.8329    1.4619 H   0  0  0  0  0  0  0  0  0  0  0  0
   -3.0901   -1.8443    0.9976 C   0  0  0  0  0  0  0  0  0  0  0  0
   -3.6435   -1.1747    1.6608 H   0  0  0  0  0  0  0  0  0  0  0  0
   -3.6240   -1.9300    0.0482 H   0  0  0  0  0  0  0  0  0  0  0  0
   -1.6947   -1.3003    0.7595 C   0  0  0  0  0  0  0  0  0  0  0  0
   -0.7146   -1.9569    1.0789 O   0  0  0  0  0  0  0  0  0  0  0  0
   -1.5297   -0.0480    0.2040 N   0  0  0  0  0  0  0  0  0  0  0  0
   -2.3614    0.5361    0.1731 H   0  0  0  0  0  0  0  0  0  0  0  0
   -0.2300    0.6379    0.2290 C   0  0  1  0  0  0  0  0  0  0  0  0
    0.5675   -0.0632   -0.0393 H   0  0  0  0  0  0  0  0  0  0  0  0
   -0.2375    1.7746   -0.8076 C   0  0  0  0  0  0  0  0  0  0  0  0
   -1.0884    2.4381   -0.6135 H   0  0  0  0  0  0  0  0  0  0  0  0
    0.6744    2.3716   -0.6946 H   0  0  0  0  0  0  0  0  0  0  0  0
   -0.3091    1.2324   -2.2515 C   0  0  0  0  0  0  0  0  0  0  0  0
    0.5588    0.5948   -2.4408 H   0  0  0  0  0  0  0  0  0  0  0  0
   -1.2048    0.6174   -2.3719 H   0  0  0  0  0  0  0  0  0  0  0  0
   -0.3433    2.3218   -3.3243 C   0  0  0  0  0  0  0  0  0  0  0  0
   -0.4426    3.4942   -3.0025 O   0  0  0  0  0  0  0  0  0  0  0  0
   -0.2640    1.9088   -4.6098 O   0  0  0  0  0  0  0  0  0  0  0  0
   -0.3029    2.7136   -5.1489 H   0  0  0  0  0  0  0  0  0  0  0  0
    0.0721    1.1892    1.6391 C   0  0  0  0  0  0  0  0  0  0  0  0
   -0.6746    2.0187    2.1450 O   0  0  0  0  0  0  0  0  0  0  0  0
    1.1922    0.7658    2.3287 N   0  0  0  0  0  0  0  0  0  0  0  0
    1.6553   -0.0639    1.9661 H   0  0  0  0  0  0  0  0  0  0  0  0
    1.4644    1.1643    3.7043 C   0  0  0  0  0  0  0  0  0  0  0  0
    0.6681    0.8142    4.3695 H   0  0  0  0  0  0  0  0  0  0  0  0
    2.4128    0.7352    4.0416 H   0  0  0  0  0  0  0  0  0  0  0  0
    1.5339    2.2545    3.7817 H   0  0  0  0  0  0  0  0  0  0  0  0
  1  2  1  0  0  0  0
  2  3  1  0  0  0  0
  2  4  1  0  0  0  0
  2  5  1  0  0  0  0
  5  6  2  0  0  0  0
  5  7  1  0  0  0  0
  7  8  1  0  0  0  0
  7  9  1  0  0  0  0
  9 10  1  0  0  0  0
  9 11  1  0  0  0  0
  9 21  1  0  0  0  0
 11 12  1  0  0  0  0
 11 13  1  0  0  0  0
 11 14  1  0  0  0  0
 14 15  1  0  0  0  0
 14 16  1  0  0  0  0
 14 17  1  0  0  0  0
 17 18  2  0  0  0  0
 17 19  1  0  0  0  0
 19 20  1  0  0  0  0
 21 22  2  0  0  0  0
 21 23  1  0  0  0  0
 23 24  1  0  0  0  0
 23 25  1  0  0  0  0
 25 26  1  0  0  0  0
 25 27  1  0  0  0  0
 25 28  1  0  0  0  0
M  END
$$$$

  -OEChem-01062216073D

 28 27  0     1  0  0  0  0  0999 V2000
   -3.0393   -2.8317    1.4800 H   0  0  0  0  0  0  0  0  0  0  0  0
   -3.0958   -1.8442    1.0136 C   0  0  0  0  0  0  0  0  0  0  0  0
   -3.6248   -1.1667    1.6885 H   0  0  0  0  0  0  0  0  0  0  0  0
   -3.6552   -1.9272    0.0787 H   0  0  0  0  0  0  0  0  0  0  0  0
   -1.7014   -1.3148    0.7386 C   0  0  0  0  0  0  0  0  0  0  0  0
   -0.7212   -1.9881    1.0199 O   0  0  0  0  0  0  0  0  0  0  0  0
   -1.5402   -0.0618    0.1834 N   0  0  0  0  0  0  0  0  0  0  0  0
   -2.3692    0.5267    0.1974 H   0  0  0  0  0  0  0  0  0  0  0  0
   -0.2421    0.6284    0.2218 C   0  0  1  0  0  0  0  0  0  0  0  0
    0.5585   -0.0716   -0.0399 H   0  0  0  0  0  0  0  0  0  0  0  0
   -0.2453    1.7695   -0.8087 C   0  0  0  0  0  0  0  0  0  0  0  0
   -1.0999    2.4290   -0.6176 H   0  0  0  0  0  0  0  0  0  0  0  0
    0.6639    2.3689   -0.6876 H   0  0  0  0  0  0  0  0  0  0  0  0
   -0.3042    1.2328   -2.2550 C   0  0  0  0  0  0  0  0  0  0  0  0
    0.5663    0.5975   -2.4401 H   0  0  0  0  0  0  0  0  0  0  0  0
   -1.1975    0.6161   -2.3843 H   0  0  0  0  0  0  0  0  0  0  0  0
   -0.3337    2.3264   -3.3236 C   0  0  0  0  0  0  0  0  0  0  0  0
   -0.4392    3.4971   -2.9972 O   0  0  0  0  0  0  0  0  0  0  0  0
   -0.2412    1.9194   -4.6100 O   0  0  0  0  0  0  0  0  0  0  0  0
   -0.2780    2.7264   -5.1460 H   0  0  0  0  0  0  0  0  0  0  0  0
    0.0522    1.1847    1.6319 C   0  0  0  0  0  0  0  0  0  0  0  0
   -0.8109    1.8174    2.2295 O   0  0  0  0  0  0  0  0  0  0  0  0
    1.2986    1.0210    2.2066 N   0  0  0  0  0  0  0  0  0  0  0  0
    1.9305    0.3673    1.7529 H   0  0  0  0  0  0  0  0  0  0  0  0
    1.6053    1.4610    3.5623 C   0  0  0  0  0  0  0  0  0  0  0  0
    0.9653    0.9456    4.2863 H   0  0  0  0  0  0  0  0  0  0  0  0
    2.6497    1.2418    3.8042 H   0  0  0  0  0  0  0  0  0  0  0  0
    1.4489    2.5405    3.6597 H   0  0  0  0  0  0  0  0  0  0  0  0
  1  2  1  0  0  0  0
  2  3  1  0  0  0  0
  2  4  1  0  0  0  0
  2  5  1  0  0  0  0
  5  6  2  0  0  0  0
  5  7  1  0  0  0  0
  7  8  1  0  0  0  0
  7  9  1  0  0  0  0
  9 10  1  0  0  0  0
  9 11  1  0  0  0  0
  9 21  1  0  0  0  0
 11 12  1  0  0  0  0
 11 13  1  0  0  0  0
 11 14  1  0  0  0  0
 14 15  1  0  0  0  0
 14 16  1  0  0  0  0
 14 17  1  0  0  0  0
 17 18  2  0  0  0  0
 17 19  1  0  0  0  0
 19 20  1  0  0  0  0
 21 22  2  0  0  0  0
 21 23  1  0  0  0  0
 23 24  1  0  0  0  0
 23 25  1  0  0  0  0
 25 26  1  0  0  0  0
 25 27  1  0  0  0  0
 25 28  1  0  0  0  0
M  END
$$$$

  -OEChem-01062216073D

 28 27  0     1  0  0  0  0  0999 V2000
   -3.0385   -2.8367    1.4764 H   0  0  0  0  0  0  0  0  0  0  0  0
   -3.0983   -1.8402    1.0301 C   0  0  0  0  0  0  0  0  0  0  0  0
   -3.5931   -1.1680    1.7355 H   0  0  0  0  0  0  0  0  0  0  0  0
   -3.6908   -1.8985    0.1141 H   0  0  0  0  0  0  0  0  0  0  0  0
   -1.7072   -1.3243    0.7162 C   0  0  0  0  0  0  0  0  0  0  0  0
   -0.7277   -2.0135    0.9576 O   0  0  0  0  0  0  0  0  0  0  0  0
   -1.5501   -0.0695    0.1637 N   0  0  0  0  0  0  0  0  0  0  0  0
   -2.3768    0.5200    0.2134 H   0  0  0  0  0  0  0  0  0  0  0  0
   -0.2528    0.6230    0.2183 C   0  0  1  0  0  0  0  0  0  0  0  0
    0.5514   -0.0755   -0.0368 H   0  0  0  0  0  0  0  0  0  0  0  0
   -0.2530    1.7656   -0.8099 C   0  0  0  0  0  0  0  0  0  0  0  0
   -1.1129    2.4196   -0.6242 H   0  0  0  0  0  0  0  0  0  0  0  0
    0.6517    2.3702   -0.6817 H   0  0  0  0  0  0  0  0  0  0  0  0
   -0.2981    1.2306   -2.2575 C   0  0  0  0  0  0  0  0  0  0  0  0
    0.5766    0.5992   -2.4366 H   0  0  0  0  0  0  0  0  0  0  0  0
   -1.1875    0.6102   -2.3953 H   0  0  0  0  0  0  0  0  0  0  0  0
   -0.3239    2.3259   -3.3242 C   0  0  0  0  0  0  0  0  0  0  0  0
   -0.4371    3.4955   -2.9958 O   0  0  0  0  0  0  0  0  0  0  0  0
   -0.2187    1.9219   -4.6104 O   0  0  0  0  0  0  0  0  0  0  0  0
   -0.2552    2.7292   -5.1458 H   0  0  0  0  0  0  0  0  0  0  0  0
    0.0342    1.1805    1.6307 C   0  0  0  0  0  0  0  0  0  0  0  0
   -0.8874    1.5988    2.3228 O   0  0  0  0  0  0  0  0  0  0  0  0
    1.3332    1.2969    2.0902 N   0  0  0  0  0  0  0  0  0  0  0  0
    2.0626    0.8522    1.5406 H   0  0  0  0  0  0  0  0  0  0  0  0
    1.6589    1.7827    3.4259 C   0  0  0  0  0  0  0  0  0  0  0  0
    1.2158    1.1334    4.1885 H   0  0  0  0  0  0  0  0  0  0  0  0
    2.7434    1.7967    3.5702 H   0  0  0  0  0  0  0  0  0  0  0  0
    1.2796    2.8003    3.5669 H   0  0  0  0  0  0  0  0  0  0  0  0
  1  2  1  0  0  0  0
  2  3  1  0  0  0  0
  2  4  1  0  0  0  0
  2  5  1  0  0  0  0
  5  6  2  0  0  0  0
  5  7  1  0  0  0  0
  7  8  1  0  0  0  0
  7  9  1  0  0  0  0
  9 10  1  0  0  0  0
  9 11  1  0  0  0  0
  9 21  1  0  0  0  0
 11 12  1  0  0  0  0
 11 13  1  0  0  0  0
 11 14  1  0  0  0  0
 14 15  1  0  0  0  0
 14 16  1  0  0  0  0
 14 17  1  0  0  0  0
 17 18  2  0  0  0  0
 17 19  1  0  0  0  0
 19 20  1  0  0  0  0
 21 22  2  0  0  0  0
 21 23  1  0  0  0  0
 23 24  1  0  0  0  0
 23 25  1  0  0  0  0
 25 26  1  0  0  0  0
 25 27  1  0  0  0  0
 25 28  1  0  0  0  0
M  END
$$$$

  -OEChem-01062216073D

 28 27  0     1  0  0  0  0  0999 V2000
   -3.0457   -2.8466    1.4516 H   0  0  0  0  0  0  0  0  0  0  0  0
   -3.1031   -1.8389    1.0310 C   0  0  0  0  0  0  0  0  0  0  0  0
   -3.5751   -1.1787    1.7629 H   0  0  0  0  0  0  0  0  0  0  0  0
   -3.7152   -1.8681    0.1266 H   0  0  0  0  0  0  0  0  0  0  0  0
   -1.7130   -1.3306    0.7007 C   0  0  0  0  0  0  0  0  0  0  0  0
   -0.7362   -2.0331    0.9129 O   0  0  0  0  0  0  0  0  0  0  0  0
   -1.5568   -0.0732    0.1528 N   0  0  0  0  0  0  0  0  0  0  0  0
   -2.3827    0.5151    0.2215 H   0  0  0  0  0  0  0  0  0  0  0  0
   -0.2597    0.6201    0.2221 C   0  0  1  0  0  0  0  0  0  0  0  0
    0.5482   -0.0764   -0.0270 H   0  0  0  0  0  0  0  0  0  0  0  0
   -0.2598    1.7625   -0.8075 C   0  0  0  0  0  0  0  0  0  0  0  0
   -1.1247    2.4115   -0.6274 H   0  0  0  0  0  0  0  0  0  0  0  0
    0.6404    2.3735   -0.6774 H   0  0  0  0  0  0  0  0  0  0  0  0
   -0.2936    1.2260   -2.2549 C   0  0  0  0  0  0  0  0  0  0  0  0
    0.5843    0.5977   -2.4288 H   0  0  0  0  0  0  0  0  0  0  0  0
   -1.1799    0.6022   -2.3979 H   0  0  0  0  0  0  0  0  0  0  0  0
   -0.3188    2.3206   -3.3219 C   0  0  0  0  0  0  0  0  0  0  0  0
   -0.4398    3.4896   -2.9942 O   0  0  0  0  0  0  0  0  0  0  0  0
   -0.2045    1.9169   -4.6073 O   0  0  0  0  0  0  0  0  0  0  0  0
   -0.2436    2.7232   -5.1440 H   0  0  0  0  0  0  0  0  0  0  0  0
    0.0238    1.1773    1.6374 C   0  0  0  0  0  0  0  0  0  0  0  0
   -0.8990    1.3802    2.4191 O   0  0  0  0  0  0  0  0  0  0  0  0
    1.2998    1.5799    1.9881 N   0  0  0  0  0  0  0  0  0  0  0  0
    2.0550    1.3529    1.3484 H   0  0  0  0  0  0  0  0  0  0  0  0
    1.6295    2.1161    3.3034 C   0  0  0  0  0  0  0  0  0  0  0  0
    1.4032    1.3815    4.0835 H   0  0  0  0  0  0  0  0  0  0  0  0
    2.6946    2.3614    3.3570 H   0  0  0  0  0  0  0  0  0  0  0  0
    1.0555    3.0276    3.5007 H   0  0  0  0  0  0  0  0  0  0  0  0
  1  2  1  0  0  0  0
  2  3  1  0  0  0  0
  2  4  1  0  0  0  0
  2  5  1  0  0  0  0
  5  6  2  0  0  0  0
  5  7  1  0  0  0  0
  7  8  1  0  0  0  0
  7  9  1  0  0  0  0
  9 10  1  0  0  0  0
  9 11  1  0  0  0  0
  9 21  1  0  0  0  0
 11 12  1  0  0  0  0
 11 13  1  0  0  0  0
 11 14  1  0  0  0  0
 14 15  1  0  0  0  0
 14 16  1  0  0  0  0
 14 17  1  0  0  0  0
 17 18  2  0  0  0  0
 17 19  1  0  0  0  0
 19 20  1  0  0  0  0
 21 22  2  0  0  0  0
 21 23  1  0  0  0  0
 23 24  1  0  0  0  0
 23 25  1  0  0  0  0
 25 26  1  0  0  0  0
 25 27  1  0  0  0  0
 25 28  1  0  0  0  0
M  END
$$$$

  -OEChem-01062216073D

 28 27  0     1  0  0  0  0  0999 V2000
   -2.9999   -2.8811    1.4224 H   0  0  0  0  0  0  0  0  0  0  0  0
   -3.0739   -1.8542    1.0537 C   0  0  0  0  0  0  0  0  0  0  0  0
   -3.4701   -1.2225    1.8526 H   0  0  0  0  0  0  0  0  0  0  0  0
   -3.7591   -1.8321    0.2033 H   0  0  0  0  0  0  0  0  0  0  0  0
   -1.7063   -1.3514    0.6337 C   0  0  0  0  0  0  0  0  0  0  0  0
   -0.7315   -2.0847    0.7068 O   0  0  0  0  0  0  0  0  0  0  0  0
   -1.5673   -0.0769    0.1177 N   0  0  0  0  0  0  0  0  0  0  0  0
   -2.3950    0.4996    0.2328 H   0  0  0  0  0  0  0  0  0  0  0  0
   -0.2740    0.6223    0.2255 C   0  0  1  0  0  0  0  0  0  0  0  0
    0.4973    0.0236   -0.2709 H   0  0  0  0  0  0  0  0  0  0  0  0
   -0.4031    1.9731   -0.5037 C   0  0  0  0  0  0  0  0  0  0  0  0
   -1.2528    2.5275   -0.0889 H   0  0  0  0  0  0  0  0  0  0  0  0
    0.4948    2.5758   -0.3317 H   0  0  0  0  0  0  0  0  0  0  0  0
   -0.5834    1.7872   -2.0261 C   0  0  0  0  0  0  0  0  0  0  0  0
    0.2821    1.2549   -2.4303 H   0  0  0  0  0  0  0  0  0  0  0  0
   -1.4686    1.1770   -2.2242 H   0  0  0  0  0  0  0  0  0  0  0  0
   -0.7402    3.0986   -2.7968 C   0  0  0  0  0  0  0  0  0  0  0  0
   -0.8439    4.1525   -2.1909 O   0  0  0  0  0  0  0  0  0  0  0  0
   -0.7607    3.0113   -4.1462 O   0  0  0  0  0  0  0  0  0  0  0  0
   -0.8727    3.9180   -4.4707 H   0  0  0  0  0  0  0  0  0  0  0  0
    0.1941    0.8350    1.6916 C   0  0  0  0  0  0  0  0  0  0  0  0
   -0.5766    0.6532    2.6281 O   0  0  0  0  0  0  0  0  0  0  0  0
    1.3936    1.4740    1.9540 N   0  0  0  0  0  0  0  0  0  0  0  0
    2.0299    1.6135    1.1754 H   0  0  0  0  0  0  0  0  0  0  0  0
    1.8547    1.7848    3.3025 C   0  0  0  0  0  0  0  0  0  0  0  0
    1.9398    0.8701    3.8990 H   0  0  0  0  0  0  0  0  0  0  0  0
    2.8366    2.2662    3.2655 H   0  0  0  0  0  0  0  0  0  0  0  0
    1.1552    2.4655    3.7996 H   0  0  0  0  0  0  0  0  0  0  0  0
  1  2  1  0  0  0  0
  2  3  1  0  0  0  0
  2  4  1  0  0  0  0
  2  5  1  0  0  0  0
  5  6  2  0  0  0  0
  5  7  1  0  0  0  0
  7  8  1  0  0  0  0
  7  9  1  0  0  0  0
  9 10  1  0  0  0  0
  9 11  1  0  0  0  0
  9 21  1  0  0  0  0
 11 12  1  0  0  0  0
 11 13  1  0  0  0  0
 11 14  1  0  0  0  0
 14 15  1  0  0  0  0
 14 16  1  0  0  0  0
 14 17  1  0  0  0  0
 17 18  2  0  0  0  0
 17 19  1  0  0  0  0
 19 20  1  0  0  0  0
 21 22  2  0  0  0  0
 21 23  1  0  0  0  0
 23 24  1  0  0  0  0
 23 25  1  0  0  0  0
 25 26  1  0  0  0  0
 25 27  1  0  0  0  0
 25 28  1  0  0  0  0
M  END
$$$$

  -OEChem-01062216073D

 28 27  0     1  0  0  0  0  0999 V2000
   -3.0033   -2.8814    1.3946 H   0  0  0  0  0  0  0  0  0  0  0  0
   -3.0708   -1.8413    1.0639 C   0  0  0  0  0  0  0  0  0  0  0  0
   -3.4296   -1.2317    1.8968 H   0  0  0  0  0  0  0  0  0  0  0  0
   -3.7829   -1.7780    0.2381 H   0  0  0  0  0  0  0  0  0  0  0  0
   -1.7084   -1.3476    0.6167 C   0  0  0  0  0  0  0  0  0  0  0  0
   -0.7458   -2.1001    0.6288 O   0  0  0  0  0  0  0  0  0  0  0  0
   -1.5666   -0.0665    0.1171 N   0  0  0  0  0  0  0  0  0  0  0  0
   -2.3928    0.5091    0.2456 H   0  0  0  0  0  0  0  0  0  0  0  0
   -0.2720    0.6315    0.2315 C   0  0  1  0  0  0  0  0  0  0  0  0
    0.4989    0.0331   -0.2667 H   0  0  0  0  0  0  0  0  0  0  0  0
   -0.4097    1.9762   -0.5120 C   0  0  0  0  0  0  0  0  0  0  0  0
   -1.2634    2.5288   -0.1036 H   0  0  0  0  0  0  0  0  0  0  0  0
    0.4831    2.5885   -0.3517 H   0  0  0  0  0  0  0  0  0  0  0  0
   -0.5842    1.7772   -2.0338 C   0  0  0  0  0  0  0  0  0  0  0  0
    0.2858    1.2477   -2.4318 H   0  0  0  0  0  0  0  0  0  0  0  0
   -1.4644    1.1594   -2.2309 H   0  0  0  0  0  0  0  0  0  0  0  0
   -0.7484    3.0837   -2.8118 C   0  0  0  0  0  0  0  0  0  0  0  0
   -0.8614    4.1393   -2.2101 O   0  0  0  0  0  0  0  0  0  0  0  0
   -0.7595    2.9917   -4.1607 O   0  0  0  0  0  0  0  0  0  0  0  0
   -0.8730    3.8967   -4.4892 H   0  0  0  0  0  0  0  0  0  0  0  0
    0.2104    0.8346    1.6992 C   0  0  0  0  0  0  0  0  0  0  0  0
   -0.4495    0.4217    2.6462 O   0  0  0  0  0  0  0  0  0  0  0  0
    1.2328    1.7241    1.9864 N   0  0  0  0  0  0  0  0  0  0  0  0
    1.7702    2.0901    1.2070 H   0  0  0  0  0  0  0  0  0  0  0  0
    1.6480    2.0607    3.3439 C   0  0  0  0  0  0  0  0  0  0  0  0
    1.9641    1.1608    3.8823 H   0  0  0  0  0  0  0  0  0  0  0  0
    2.4874    2.7623    3.3205 H   0  0  0  0  0  0  0  0  0  0  0  0
    0.8233    2.5281    3.8925 H   0  0  0  0  0  0  0  0  0  0  0  0
  1  2  1  0  0  0  0
  2  3  1  0  0  0  0
  2  4  1  0  0  0  0
  2  5  1  0  0  0  0
  5  6  2  0  0  0  0
  5  7  1  0  0  0  0
  7  8  1  0  0  0  0
  7  9  1  0  0  0  0
  9 10  1  0  0  0  0
  9 11  1  0  0  0  0
  9 21  1  0  0  0  0
 11 12  1  0  0  0  0
 11 13  1  0  0  0  0
 11 14  1  0  0  0  0
 14 15  1  0  0  0  0
 14 16  1  0  0  0  0
 14 17  1  0  0  0  0
 17 18  2  0  0  0  0
 17 19  1  0  0  0  0
 19 20  1  0  0  0  0
 21 22  2  0  0  0  0
 21 23  1  0  0  0  0
 23 24  1  0  0  0  0
 23 25  1  0  0  0  0
 25 26  1  0  0  0  0
 25 27  1  0  0  0  0
 25 28  1  0  0  0  0
M  END
$$$$

  -OEChem-01062216073D

 28 27  0     1  0  0  0  0  0999 V2000
   -3.0081   -2.8793    1.3639 H   0  0  0  0  0  0  0  0  0  0  0  0
   -3.0675   -1.8274    1.0711 C   0  0  0  0  0  0  0  0  0  0  0  0
   -3.3967   -1.2416    1.9328 H   0  0  0  0  0  0  0  0  0  0  0  0
   -3.7978   -1.7255    0.2652 H   0  0  0  0  0  0  0  0  0  0  0  0
   -1.7084   -1.3386    0.6086 C   0  0  0  0  0  0  0  0  0  0  0  0
   -0.7602   -2.1072    0.5649 O   0  0  0  0  0  0  0  0  0  0  0  0
   -1.5643   -0.0517    0.1242 N   0  0  0  0  0  0  0  0  0  0  0  0
   -2.3925    0.5202    0.2533 H   0  0  0  0  0  0  0  0  0  0  0  0
   -0.2725    0.6535    0.2395 C   0  0  1  0  0  0  0  0  0  0  0  0
    0.4996    0.0562   -0.2581 H   0  0  0  0  0  0  0  0  0  0  0  0
   -0.4174    1.9881   -0.5225 C   0  0  0  0  0  0  0  0  0  0  0  0
   -1.2739    2.5432   -0.1233 H   0  0  0  0  0  0  0  0  0  0  0  0
    0.4742    2.6049   -0.3756 H   0  0  0  0  0  0  0  0  0  0  0  0
   -0.5835    1.7673   -2.0423 C   0  0  0  0  0  0  0  0  0  0  0  0
    0.2924    1.2394   -2.4298 H   0  0  0  0  0  0  0  0  0  0  0  0
   -1.4580    1.1402   -2.2353 H   0  0  0  0  0  0  0  0  0  0  0  0
   -0.7544    3.0627   -2.8369 C   0  0  0  0  0  0  0  0  0  0  0  0
   -0.8780    4.1244   -2.2479 O   0  0  0  0  0  0  0  0  0  0  0  0
   -0.7608    2.9544   -4.1845 O   0  0  0  0  0  0  0  0  0  0  0  0
   -0.8793    3.8543   -4.5249 H   0  0  0  0  0  0  0  0  0  0  0  0
    0.2232    0.8519    1.7072 C   0  0  0  0  0  0  0  0  0  0  0  0
   -0.2543    0.2124    2.6360 O   0  0  0  0  0  0  0  0  0  0  0  0
    1.0079    1.9414    2.0515 N   0  0  0  0  0  0  0  0  0  0  0  0
    1.3826    2.5088    1.2983 H   0  0  0  0  0  0  0  0  0  0  0  0
    1.3847    2.2637    3.4241 C   0  0  0  0  0  0  0  0  0  0  0  0
    1.9359    1.4320    3.8757 H   0  0  0  0  0  0  0  0  0  0  0  0
    2.0231    3.1522    3.4433 H   0  0  0  0  0  0  0  0  0  0  0  0
    0.4943    2.4654    4.0290 H   0  0  0  0  0  0  0  0  0  0  0  0
  1  2  1  0  0  0  0
  2  3  1  0  0  0  0
  2  4  1  0  0  0  0
  2  5  1  0  0  0  0
  5  6  2  0  0  0  0
  5  7  1  0  0  0  0
  7  8  1  0  0  0  0
  7  9  1  0  0  0  0
  9 10  1  0  0  0  0
  9 11  1  0  0  0  0
  9 21  1  0  0  0  0
 11 12  1  0  0  0  0
 11 13  1  0  0  0  0
 11 14  1  0  0  0  0
 14 15  1  0  0  0  0
 14 16  1  0  0  0  0
 14 17  1  0  0  0  0
 17 18  2  0  0  0  0
 17 19  1  0  0  0  0
 19 20  1  0  0  0  0
 21 22  2  0  0  0  0
 21 23  1  0  0  0  0
 23 24  1  0  0  0  0
 23 25  1  0  0  0  0
 25 26  1  0  0  0  0
 25 27  1  0  0  0  0
 25 28  1  0  0  0  0
M  END
$$$$

  -OEChem-01062216073D

 28 27  0     1  0  0  0  0  0999 V2000
   -2.9970   -2.8741    1.3822 H   0  0  0  0  0  0  0  0  0  0  0  0
   -3.0614   -1.8217    1.0918 C   0  0  0  0  0  0  0  0  0  0  0  0
   -3.3764   -1.2380    1.9601 H   0  0  0  0  0  0  0  0  0  0  0  0
   -3.8051   -1.7188    0.2983 H   0  0  0  0  0  0  0  0  0  0  0  0
   -1.7099   -1.3328    0.6070 C   0  0  0  0  0  0  0  0  0  0  0  0
   -0.7739   -2.1107    0.5140 O   0  0  0  0  0  0  0  0  0  0  0  0
   -1.5722   -0.0425    0.1301 N   0  0  0  0  0  0  0  0  0  0  0  0
   -2.4073    0.5206    0.2515 H   0  0  0  0  0  0  0  0  0  0  0  0
   -0.2888    0.6788    0.2455 C   0  0  1  0  0  0  0  0  0  0  0  0
    0.4893    0.0822   -0.2440 H   0  0  0  0  0  0  0  0  0  0  0  0
   -0.4282    2.0038   -0.5334 C   0  0  0  0  0  0  0  0  0  0  0  0
   -1.2897    2.5632   -0.1514 H   0  0  0  0  0  0  0  0  0  0  0  0
    0.4644    2.6195   -0.3844 H   0  0  0  0  0  0  0  0  0  0  0  0
   -0.5750    1.7652   -2.0521 C   0  0  0  0  0  0  0  0  0  0  0  0
    0.3074    1.2358   -2.4228 H   0  0  0  0  0  0  0  0  0  0  0  0
   -1.4449    1.1325   -2.2485 H   0  0  0  0  0  0  0  0  0  0  0  0
   -0.7399    3.0510   -2.8638 C   0  0  0  0  0  0  0  0  0  0  0  0
   -0.8737    4.1188   -2.2876 O   0  0  0  0  0  0  0  0  0  0  0  0
   -0.7325    2.9273   -4.2102 O   0  0  0  0  0  0  0  0  0  0  0  0
   -0.8498    3.8224   -4.5634 H   0  0  0  0  0  0  0  0  0  0  0  0
    0.2079    0.8799    1.7128 C   0  0  0  0  0  0  0  0  0  0  0  0
    0.0079    0.0435    2.5824 O   0  0  0  0  0  0  0  0  0  0  0  0
    0.7048    2.1021    2.1392 N   0  0  0  0  0  0  0  0  0  0  0  0
    0.8246    2.8318    1.4442 H   0  0  0  0  0  0  0  0  0  0  0  0
    1.0846    2.3821    3.5201 C   0  0  0  0  0  0  0  0  0  0  0  0
    1.8539    1.6788    3.8561 H   0  0  0  0  0  0  0  0  0  0  0  0
    1.4845    3.3971    3.6048 H   0  0  0  0  0  0  0  0  0  0  0  0
    0.2161    2.2962    4.1817 H   0  0  0  0  0  0  0  0  0  0  0  0
  1  2  1  0  0  0  0
  2  3  1  0  0  0  0
  2  4  1  0  0  0  0
  2  5  1  0  0  0  0
  5  6  2  0  0  0  0
  5  7  1  0  0  0  0
  7  8  1  0  0  0  0
  7  9  1  0  0  0  0
  9 10  1  0  0  0  0
  9 11  1  0  0  0  0
  9 21  1  0  0  0  0
 11 12  1  0  0  0  0
 11 13  1  0  0  0  0
 11 14  1  0  0  0  0
 14 15  1  0  0  0  0
 14 16  1  0  0  0  0
 14 17  1  0  0  0  0
 17 18  2  0  0  0  0
 17 19  1  0  0  0  0
 19 20  1  0  0  0  0
 21 22  2  0  0  0  0
 21 23  1  0  0  0  0
 23 24  1  0  0  0  0
 23 25  1  0  0  0  0
 25 26  1  0  0  0  0
 25 27  1  0  0  0  0
 25 28  1  0  0  0  0
M  END
$$$$

  -OEChem-01062216073D

 28 27  0     1  0  0  0  0  0999 V2000
   -3.0099   -2.8661    1.3966 H   0  0  0  0  0  0  0  0  0  0  0  0
   -3.0769   -1.8236    1.0729 C   0  0  0  0  0  0  0  0  0  0  0  0
   -3.4342   -1.2194    1.9101 H   0  0  0  0  0  0  0  0  0  0  0  0
   -3.7903   -1.7549    0.2484 H   0  0  0  0  0  0  0  0  0  0  0  0
   -1.7143   -1.3307    0.6249 C   0  0  0  0  0  0  0  0  0  0  0  0
   -0.7800   -2.1104    0.5464 O   0  0  0  0  0  0  0  0  0  0  0  0
   -1.5734   -0.0422    0.1447 N   0  0  0  0  0  0  0  0  0  0  0  0
   -2.4157    0.5166    0.2318 H   0  0  0  0  0  0  0  0  0  0  0  0
   -0.2964    0.6898    0.2573 C   0  0  1  0  0  0  0  0  0  0  0  0
    0.4868    0.0930   -0.2243 H   0  0  0  0  0  0  0  0  0  0  0  0
   -0.4325    2.0100   -0.5275 C   0  0  0  0  0  0  0  0  0  0  0  0
   -1.2983    2.5699   -0.1564 H   0  0  0  0  0  0  0  0  0  0  0  0
    0.4605    2.6245   -0.3690 H   0  0  0  0  0  0  0  0  0  0  0  0
   -0.5698    1.7633   -2.0456 C   0  0  0  0  0  0  0  0  0  0  0  0
    0.3160    1.2339   -2.4079 H   0  0  0  0  0  0  0  0  0  0  0  0
   -1.4372    1.1279   -2.2437 H   0  0  0  0  0  0  0  0  0  0  0  0
   -0.7314    3.0445   -2.8644 C   0  0  0  0  0  0  0  0  0  0  0  0
   -0.8701    4.1146   -2.2935 O   0  0  0  0  0  0  0  0  0  0  0  0
   -0.7155    2.9148   -4.2102 O   0  0  0  0  0  0  0  0  0  0  0  0
   -0.8270    3.8086   -4.5686 H   0  0  0  0  0  0  0  0  0  0  0  0
    0.1921    0.9000    1.7226 C   0  0  0  0  0  0  0  0  0  0  0  0
    0.3096   -0.0312    2.5042 O   0  0  0  0  0  0  0  0  0  0  0  0
    0.3823    2.1743    2.2348 N   0  0  0  0  0  0  0  0  0  0  0  0
    0.2537    2.9603    1.6054 H   0  0  0  0  0  0  0  0  0  0  0  0
    0.7729    2.4372    3.6160 C   0  0  0  0  0  0  0  0  0  0  0  0
    1.7291    1.9535    3.8425 H   0  0  0  0  0  0  0  0  0  0  0  0
    0.8828    3.5133    3.7812 H   0  0  0  0  0  0  0  0  0  0  0  0
    0.0137    2.0571    4.3077 H   0  0  0  0  0  0  0  0  0  0  0  0
  1  2  1  0  0  0  0
  2  3  1  0  0  0  0
  2  4  1  0  0  0  0
  2  5  1  0  0  0  0
  5  6  2  0  0  0  0
  5  7  1  0  0  0  0
  7  8  1  0  0  0  0
  7  9  1  0  0  0  0
  9 10  1  0  0  0  0
  9 11  1  0  0  0  0
  9 21  1  0  0  0  0
 11 12  1  0  0  0  0
 11 13  1  0  0  0  0
 11 14  1  0  0  0  0
 14 15  1  0  0  0  0
 14 16  1  0  0  0  0
 14 17  1  0  0  0  0
 17 18  2  0  0  0  0
 17 19  1  0  0  0  0
 19 20  1  0  0  0  0
 21 22  2  0  0  0  0
 21 23  1  0  0  0  0
 23 24  1  0  0  0  0
 23 25  1  0  0  0  0
 25 26  1  0  0  0  0
 25 27  1  0  0  0  0
 25 28  1  0  0  0  0
M  END
$$$$

  -OEChem-01062216073D

 28 27  0     1  0  0  0  0  0999 V2000
   -3.0769   -2.8696    1.3640 H   0  0  0  0  0  0  0  0  0  0  0  0
   -3.1299   -1.8438    0.9881 C   0  0  0  0  0  0  0  0  0  0  0  0
   -3.5866   -1.2135    1.7547 H   0  0  0  0  0  0  0  0  0  0  0  0
   -3.7534   -1.8289    0.0910 H   0  0  0  0  0  0  0  0  0  0  0  0
   -1.7377   -1.3374    0.6618 C   0  0  0  0  0  0  0  0  0  0  0  0
   -0.7899   -2.1001    0.7128 O   0  0  0  0  0  0  0  0  0  0  0  0
   -1.5752   -0.0545    0.1744 N   0  0  0  0  0  0  0  0  0  0  0  0
   -2.4253    0.4991    0.1655 H   0  0  0  0  0  0  0  0  0  0  0  0
   -0.3028    0.6850    0.2856 C   0  0  1  0  0  0  0  0  0  0  0  0
    0.4857    0.0880   -0.1876 H   0  0  0  0  0  0  0  0  0  0  0  0
   -0.4362    2.0032   -0.5011 C   0  0  0  0  0  0  0  0  0  0  0  0
   -1.3073    2.5604   -0.1392 H   0  0  0  0  0  0  0  0  0  0  0  0
    0.4536    2.6197   -0.3282 H   0  0  0  0  0  0  0  0  0  0  0  0
   -0.5665    1.7573   -2.0199 C   0  0  0  0  0  0  0  0  0  0  0  0
    0.3222    1.2295   -2.3782 H   0  0  0  0  0  0  0  0  0  0  0  0
   -1.4320    1.1212   -2.2226 H   0  0  0  0  0  0  0  0  0  0  0  0
   -0.7253    3.0394   -2.8380 C   0  0  0  0  0  0  0  0  0  0  0  0
   -0.8675    4.1088   -2.2666 O   0  0  0  0  0  0  0  0  0  0  0  0
   -0.7094    2.9104   -4.1838 O   0  0  0  0  0  0  0  0  0  0  0  0
   -0.8186    3.8048   -4.5415 H   0  0  0  0  0  0  0  0  0  0  0  0
    0.1718    0.9119    1.7489 C   0  0  0  0  0  0  0  0  0  0  0  0
    0.6575    0.0105    2.4133 O   0  0  0  0  0  0  0  0  0  0  0  0
    0.0569    2.1567    2.3477 N   0  0  0  0  0  0  0  0  0  0  0  0
   -0.3213    2.9157    1.7900 H   0  0  0  0  0  0  0  0  0  0  0  0
    0.5019    2.4367    3.7089 C   0  0  0  0  0  0  0  0  0  0  0  0
    1.5819    2.2794    3.7987 H   0  0  0  0  0  0  0  0  0  0  0  0
    0.2799    3.4746    3.9747 H   0  0  0  0  0  0  0  0  0  0  0  0
   -0.0094    1.7814    4.4222 H   0  0  0  0  0  0  0  0  0  0  0  0
  1  2  1  0  0  0  0
  2  3  1  0  0  0  0
  2  4  1  0  0  0  0
  2  5  1  0  0  0  0
  5  6  2  0  0  0  0
  5  7  1  0  0  0  0
  7  8  1  0  0  0  0
  7  9  1  0  0  0  0
  9 10  1  0  0  0  0
  9 11  1  0  0  0  0
  9 21  1  0  0  0  0
 11 12  1  0  0  0  0
 11 13  1  0  0  0  0
 11 14  1  0  0  0  0
 14 15  1  0  0  0  0
 14 16  1  0  0  0  0
 14 17  1  0  0  0  0
 17 18  2  0  0  0  0
 17 19  1  0  0  0  0
 19 20  1  0  0  0  0
 21 22  2  0  0  0  0
 21 23  1  0  0  0  0
 23 24  1  0  0  0  0
 23 25  1  0  0  0  0
 25 26  1  0  0  0  0
 25 27  1  0  0  0  0
 25 28  1  0  0  0  0
M  END
$$$$

  -OEChem-01062216073D

 28 27  0     1  0  0  0  0  0999 V2000
   -3.1876   -2.9044    1.2460 H   0  0  0  0  0  0  0  0  0  0  0  0
   -3.2023   -1.9012    0.8101 C   0  0  0  0  0  0  0  0  0  0  0  0
   -3.8236   -1.2564    1.4359 H   0  0  0  0  0  0  0  0  0  0  0  0
   -3.6374   -1.9585   -0.1906 H   0  0  0  0  0  0  0  0  0  0  0  0
   -1.7923   -1.3469    0.7315 C   0  0  0  0  0  0  0  0  0  0  0  0
   -0.8510   -2.0485    1.0488 O   0  0  0  0  0  0  0  0  0  0  0  0
   -1.5897   -0.0722    0.2390 N   0  0  0  0  0  0  0  0  0  0  0  0
   -2.4278    0.4542    0.0160 H   0  0  0  0  0  0  0  0  0  0  0  0
   -0.3145    0.6635    0.3362 C   0  0  1  0  0  0  0  0  0  0  0  0
    0.4664    0.0594   -0.1409 H   0  0  0  0  0  0  0  0  0  0  0  0
   -0.4422    1.9838   -0.4456 C   0  0  0  0  0  0  0  0  0  0  0  0
   -1.3054    2.5484   -0.0770 H   0  0  0  0  0  0  0  0  0  0  0  0
    0.4537    2.5915   -0.2708 H   0  0  0  0  0  0  0  0  0  0  0  0
   -0.5858    1.7454   -1.9641 C   0  0  0  0  0  0  0  0  0  0  0  0
    0.2973    1.2138   -2.3304 H   0  0  0  0  0  0  0  0  0  0  0  0
   -1.4568    1.1165   -2.1649 H   0  0  0  0  0  0  0  0  0  0  0  0
   -0.7396    3.0326   -2.7755 C   0  0  0  0  0  0  0  0  0  0  0  0
   -0.8685    4.1011   -2.1996 O   0  0  0  0  0  0  0  0  0  0  0  0
   -0.7345    2.9082   -4.1217 O   0  0  0  0  0  0  0  0  0  0  0  0
   -0.8318    3.8059   -4.4747 H   0  0  0  0  0  0  0  0  0  0  0  0
    0.1707    0.9066    1.7898 C   0  0  0  0  0  0  0  0  0  0  0  0
    1.0306    0.1996    2.2921 O   0  0  0  0  0  0  0  0  0  0  0  0
   -0.2101    2.0481    2.4767 N   0  0  0  0  0  0  0  0  0  0  0  0
   -0.8754    2.6681    2.0274 H   0  0  0  0  0  0  0  0  0  0  0  0
    0.3102    2.4038    3.7919 C   0  0  0  0  0  0  0  0  0  0  0  0
    1.3942    2.5536    3.7471 H   0  0  0  0  0  0  0  0  0  0  0  0
   -0.1523    3.3306    4.1445 H   0  0  0  0  0  0  0  0  0  0  0  0
    0.0941    1.6118    4.5170 H   0  0  0  0  0  0  0  0  0  0  0  0
  1  2  1  0  0  0  0
  2  3  1  0  0  0  0
  2  4  1  0  0  0  0
  2  5  1  0  0  0  0
  5  6  2  0  0  0  0
  5  7  1  0  0  0  0
  7  8  1  0  0  0  0
  7  9  1  0  0  0  0
  9 10  1  0  0  0  0
  9 11  1  0  0  0  0
  9 21  1  0  0  0  0
 11 12  1  0  0  0  0
 11 13  1  0  0  0  0
 11 14  1  0  0  0  0
 14 15  1  0  0  0  0
 14 16  1  0  0  0  0
 14 17  1  0  0  0  0
 17 18  2  0  0  0  0
 17 19  1  0  0  0  0
 19 20  1  0  0  0  0
 21 22  2  0  0  0  0
 21 23  1  0  0  0  0
 23 24  1  0  0  0  0
 23 25  1  0  0  0  0
 25 26  1  0  0  0  0
 25 27  1  0  0  0  0
 25 28  1  0  0  0  0
M  END
$$$$

  -OEChem-01062216073D

 28 27  0     1  0  0  0  0  0999 V2000
   -3.2251   -2.9380    1.1354 H   0  0  0  0  0  0  0  0  0  0  0  0
   -3.2218   -1.9358    0.6972 C   0  0  0  0  0  0  0  0  0  0  0  0
   -3.9441   -1.3160    1.2335 H   0  0  0  0  0  0  0  0  0  0  0  0
   -3.5206   -2.0100   -0.3512 H   0  0  0  0  0  0  0  0  0  0  0  0
   -1.8364   -1.3262    0.8008 C   0  0  0  0  0  0  0  0  0  0  0  0
   -0.9343   -1.9595    1.3153 O   0  0  0  0  0  0  0  0  0  0  0  0
   -1.6091   -0.0625    0.2925 N   0  0  0  0  0  0  0  0  0  0  0  0
   -2.3977    0.4002   -0.1479 H   0  0  0  0  0  0  0  0  0  0  0  0
   -0.3203    0.6519    0.3610 C   0  0  1  0  0  0  0  0  0  0  0  0
    0.4411    0.0317   -0.1265 H   0  0  0  0  0  0  0  0  0  0  0  0
   -0.4347    1.9752   -0.4155 C   0  0  0  0  0  0  0  0  0  0  0  0
   -1.2767    2.5584   -0.0275 H   0  0  0  0  0  0  0  0  0  0  0  0
    0.4768    2.5634   -0.2548 H   0  0  0  0  0  0  0  0  0  0  0  0
   -0.6128    1.7409   -1.9311 C   0  0  0  0  0  0  0  0  0  0  0  0
    0.2519    1.1906   -2.3135 H   0  0  0  0  0  0  0  0  0  0  0  0
   -1.5005    1.1310   -2.1152 H   0  0  0  0  0  0  0  0  0  0  0  0
   -0.7552    3.0299   -2.7420 C   0  0  0  0  0  0  0  0  0  0  0  0
   -0.8508    4.1024   -2.1680 O   0  0  0  0  0  0  0  0  0  0  0  0
   -0.7813    2.9012   -4.0874 O   0  0  0  0  0  0  0  0  0  0  0  0
   -0.8651    3.8003   -4.4404 H   0  0  0  0  0  0  0  0  0  0  0  0
    0.1919    0.9025    1.8003 C   0  0  0  0  0  0  0  0  0  0  0  0
    1.2607    0.4327    2.1635 O   0  0  0  0  0  0  0  0  0  0  0  0
   -0.3932    1.8807    2.5862 N   0  0  0  0  0  0  0  0  0  0  0  0
   -1.2737    2.2698    2.2668 H   0  0  0  0  0  0  0  0  0  0  0  0
    0.1082    2.2510    3.9043 C   0  0  0  0  0  0  0  0  0  0  0  0
    1.1330    2.6303    3.8320 H   0  0  0  0  0  0  0  0  0  0  0  0
   -0.5186    3.0332    4.3425 H   0  0  0  0  0  0  0  0  0  0  0  0
    0.1004    1.3842    4.5736 H   0  0  0  0  0  0  0  0  0  0  0  0
  1  2  1  0  0  0  0
  2  3  1  0  0  0  0
  2  4  1  0  0  0  0
  2  5  1  0  0  0  0
  5  6  2  0  0  0  0
  5  7  1  0  0  0  0
  7  8  1  0  0  0  0
  7  9  1  0  0  0  0
  9 10  1  0  0  0  0
  9 11  1  0  0  0  0
  9 21  1  0  0  0  0
 11 12  1  0  0  0  0
 11 13  1  0  0  0  0
 11 14  1  0  0  0  0
 14 15  1  0  0  0  0
 14 16  1  0  0  0  0
 14 17  1  0  0  0  0
 17 18  2  0  0  0  0
 17 19  1  0  0  0  0
 19 20  1  0  0  0  0
 21 22  2  0  0  0  0
 21 23  1  0  0  0  0
 23 24  1  0  0  0  0
 23 25  1  0  0  0  0
 25 26  1  0  0  0  0
 25 27  1  0  0  0  0
 25 28  1  0  0  0  0
M  END
$$$$

  -OEChem-01062216073D

 28 27  0     1  0  0  0  0  0999 V2000
   -3.2264   -2.9537    1.0990 H   0  0  0  0  0  0  0  0  0  0  0  0
   -3.2217   -1.9561    0.6499 C   0  0  0  0  0  0  0  0  0  0  0  0
   -3.9943   -1.3511    1.1301 H   0  0  0  0  0  0  0  0  0  0  0  0
   -3.4493   -2.0501   -0.4147 H   0  0  0  0  0  0  0  0  0  0  0  0
   -1.8632   -1.3071    0.8364 C   0  0  0  0  0  0  0  0  0  0  0  0
   -0.9875   -1.8977    1.4405 O   0  0  0  0  0  0  0  0  0  0  0  0
   -1.6279   -0.0510    0.3130 N   0  0  0  0  0  0  0  0  0  0  0  0
   -2.3766    0.3644   -0.2321 H   0  0  0  0  0  0  0  0  0  0  0  0
   -0.3275    0.6443    0.3657 C   0  0  1  0  0  0  0  0  0  0  0  0
    0.4206    0.0122   -0.1268 H   0  0  0  0  0  0  0  0  0  0  0  0
   -0.4290    1.9713   -0.4051 C   0  0  0  0  0  0  0  0  0  0  0  0
   -1.2545    2.5681   -0.0020 H   0  0  0  0  0  0  0  0  0  0  0  0
    0.4946    2.5429   -0.2538 H   0  0  0  0  0  0  0  0  0  0  0  0
   -0.6295    1.7437   -1.9191 C   0  0  0  0  0  0  0  0  0  0  0  0
    0.2221    1.1806   -2.3122 H   0  0  0  0  0  0  0  0  0  0  0  0
   -1.5289    1.1489   -2.0943 H   0  0  0  0  0  0  0  0  0  0  0  0
   -0.7603    3.0357   -2.7270 C   0  0  0  0  0  0  0  0  0  0  0  0
   -0.8309    4.1095   -2.1525 O   0  0  0  0  0  0  0  0  0  0  0  0
   -0.8068    2.9071   -4.0721 O   0  0  0  0  0  0  0  0  0  0  0  0
   -0.8790    3.8078   -4.4238 H   0  0  0  0  0  0  0  0  0  0  0  0
    0.2025    0.9005    1.7955 C   0  0  0  0  0  0  0  0  0  0  0  0
    1.3731    0.6654    2.0616 O   0  0  0  0  0  0  0  0  0  0  0  0
   -0.5394    1.6614    2.6818 N   0  0  0  0  0  0  0  0  0  0  0  0
   -1.5175    1.8032    2.4540 H   0  0  0  0  0  0  0  0  0  0  0  0
   -0.0691    2.0038    4.0187 C   0  0  0  0  0  0  0  0  0  0  0  0
    0.8620    2.5779    3.9630 H   0  0  0  0  0  0  0  0  0  0  0  0
   -0.8160    2.6105    4.5396 H   0  0  0  0  0  0  0  0  0  0  0  0
    0.1117    1.0960    4.6041 H   0  0  0  0  0  0  0  0  0  0  0  0
  1  2  1  0  0  0  0
  2  3  1  0  0  0  0
  2  4  1  0  0  0  0
  2  5  1  0  0  0  0
  5  6  2  0  0  0  0
  5  7  1  0  0  0  0
  7  8  1  0  0  0  0
  7  9  1  0  0  0  0
  9 10  1  0  0  0  0
  9 11  1  0  0  0  0
  9 21  1  0  0  0  0
 11 12  1  0  0  0  0
 11 13  1  0  0  0  0
 11 14  1  0  0  0  0
 14 15  1  0  0  0  0
 14 16  1  0  0  0  0
 14 17  1  0  0  0  0
 17 18  2  0  0  0  0
 17 19  1  0  0  0  0
 19 20  1  0  0  0  0
 21 22  2  0  0  0  0
 21 23  1  0  0  0  0
 23 24  1  0  0  0  0
 23 25  1  0  0  0  0
 25 26  1  0  0  0  0
 25 27  1  0  0  0  0
 25 28  1  0  0  0  0
M  END
$$$$

  -OEChem-01062216073D

 28 27  0     1  0  0  0  0  0999 V2000
   -3.2304   -2.9458    1.0999 H   0  0  0  0  0  0  0  0  0  0  0  0
   -3.2211   -1.9516    0.6438 C   0  0  0  0  0  0  0  0  0  0  0  0
   -4.0018   -1.3446    1.1083 H   0  0  0  0  0  0  0  0  0  0  0  0
   -3.4334   -2.0531   -0.4231 H   0  0  0  0  0  0  0  0  0  0  0  0
   -1.8667   -1.2986    0.8441 C   0  0  0  0  0  0  0  0  0  0  0  0
   -1.0037   -1.8728    1.4819 O   0  0  0  0  0  0  0  0  0  0  0  0
   -1.6250   -0.0481    0.3107 N   0  0  0  0  0  0  0  0  0  0  0  0
   -2.3565    0.3494   -0.2703 H   0  0  0  0  0  0  0  0  0  0  0  0
   -0.3200    0.6400    0.3607 C   0  0  1  0  0  0  0  0  0  0  0  0
    0.4269    0.0061   -0.1308 H   0  0  0  0  0  0  0  0  0  0  0  0
   -0.4231    1.9689   -0.4065 C   0  0  0  0  0  0  0  0  0  0  0  0
   -1.2445    2.5658    0.0052 H   0  0  0  0  0  0  0  0  0  0  0  0
    0.5024    2.5389   -0.2595 H   0  0  0  0  0  0  0  0  0  0  0  0
   -0.6329    1.7464   -1.9203 C   0  0  0  0  0  0  0  0  0  0  0  0
    0.2159    1.1839   -2.3198 H   0  0  0  0  0  0  0  0  0  0  0  0
   -1.5340    1.1537   -2.0928 H   0  0  0  0  0  0  0  0  0  0  0  0
   -0.7657    3.0405   -2.7243 C   0  0  0  0  0  0  0  0  0  0  0  0
   -0.8310    4.1134   -2.1477 O   0  0  0  0  0  0  0  0  0  0  0  0
   -0.8229    2.9142   -4.0693 O   0  0  0  0  0  0  0  0  0  0  0  0
   -0.8963    3.8160   -4.4181 H   0  0  0  0  0  0  0  0  0  0  0  0
    0.2104    0.9050    1.7880 C   0  0  0  0  0  0  0  0  0  0  0  0
    1.4162    0.9016    1.9958 O   0  0  0  0  0  0  0  0  0  0  0  0
   -0.6381    1.4016    2.7609 N   0  0  0  0  0  0  0  0  0  0  0  0
   -1.6313    1.3048    2.5790 H   0  0  0  0  0  0  0  0  0  0  0  0
   -0.1971    1.6822    4.1216 C   0  0  0  0  0  0  0  0  0  0  0  0
    0.6059    2.4271    4.1196 H   0  0  0  0  0  0  0  0  0  0  0  0
   -1.0279    2.0746    4.7156 H   0  0  0  0  0  0  0  0  0  0  0  0
    0.1713    0.7681    4.5995 H   0  0  0  0  0  0  0  0  0  0  0  0
  1  2  1  0  0  0  0
  2  3  1  0  0  0  0
  2  4  1  0  0  0  0
  2  5  1  0  0  0  0
  5  6  2  0  0  0  0
  5  7  1  0  0  0  0
  7  8  1  0  0  0  0
  7  9  1  0  0  0  0
  9 10  1  0  0  0  0
  9 11  1  0  0  0  0
  9 21  1  0  0  0  0
 11 12  1  0  0  0  0
 11 13  1  0  0  0  0
 11 14  1  0  0  0  0
 14 15  1  0  0  0  0
 14 16  1  0  0  0  0
 14 17  1  0  0  0  0
 17 18  2  0  0  0  0
 17 19  1  0  0  0  0
 19 20  1  0  0  0  0
 21 22  2  0  0  0  0
 21 23  1  0  0  0  0
 23 24  1  0  0  0  0
 23 25  1  0  0  0  0
 25 26  1  0  0  0  0
 25 27  1  0  0  0  0
 25 28  1  0  0  0  0
M  END
$$$$

  -OEChem-01062216073D

 28 27  0     1  0  0  0  0  0999 V2000
   -3.2442   -2.9497    1.0614 H   0  0  0  0  0  0  0  0  0  0  0  0
   -3.2307   -1.9552    0.6061 C   0  0  0  0  0  0  0  0  0  0  0  0
   -4.0249   -1.3527    1.0531 H   0  0  0  0  0  0  0  0  0  0  0  0
   -3.4183   -2.0578   -0.4655 H   0  0  0  0  0  0  0  0  0  0  0  0
   -1.8850   -1.2946    0.8367 C   0  0  0  0  0  0  0  0  0  0  0  0
   -1.0361   -1.8573    1.5034 O   0  0  0  0  0  0  0  0  0  0  0  0
   -1.6351   -0.0444    0.3072 N   0  0  0  0  0  0  0  0  0  0  0  0
   -2.3607    0.3571   -0.2788 H   0  0  0  0  0  0  0  0  0  0  0  0
   -0.3286    0.6425    0.3683 C   0  0  1  0  0  0  0  0  0  0  0  0
    0.4206    0.0089   -0.1196 H   0  0  0  0  0  0  0  0  0  0  0  0
   -0.4343    1.9698   -0.4027 C   0  0  0  0  0  0  0  0  0  0  0  0
   -1.2598    2.5633    0.0056 H   0  0  0  0  0  0  0  0  0  0  0  0
    0.4872    2.5458   -0.2540 H   0  0  0  0  0  0  0  0  0  0  0  0
   -0.6355    1.7443   -1.9172 C   0  0  0  0  0  0  0  0  0  0  0  0
    0.2176    1.1846   -2.3112 H   0  0  0  0  0  0  0  0  0  0  0  0
   -1.5334    1.1478   -2.0934 H   0  0  0  0  0  0  0  0  0  0  0  0
   -0.7705    3.0361   -2.7249 C   0  0  0  0  0  0  0  0  0  0  0  0
   -0.8437    4.1104   -2.1522 O   0  0  0  0  0  0  0  0  0  0  0  0
   -0.8171    2.9058   -4.0700 O   0  0  0  0  0  0  0  0  0  0  0  0
   -0.8905    3.8068   -4.4210 H   0  0  0  0  0  0  0  0  0  0  0  0
    0.2067    0.9146    1.7943 C   0  0  0  0  0  0  0  0  0  0  0  0
    1.3984    1.1428    1.9555 O   0  0  0  0  0  0  0  0  0  0  0  0
   -0.6664    1.1184    2.8470 N   0  0  0  0  0  0  0  0  0  0  0  0
   -1.6119    0.7808    2.7023 H   0  0  0  0  0  0  0  0  0  0  0  0
   -0.2089    1.3461    4.2120 C   0  0  0  0  0  0  0  0  0  0  0  0
    0.4239    2.2387    4.2612 H   0  0  0  0  0  0  0  0  0  0  0  0
   -1.0640    1.4945    4.8781 H   0  0  0  0  0  0  0  0  0  0  0  0
    0.3671    0.4863    4.5700 H   0  0  0  0  0  0  0  0  0  0  0  0
  1  2  1  0  0  0  0
  2  3  1  0  0  0  0
  2  4  1  0  0  0  0
  2  5  1  0  0  0  0
  5  6  2  0  0  0  0
  5  7  1  0  0  0  0
  7  8  1  0  0  0  0
  7  9  1  0  0  0  0
  9 10  1  0  0  0  0
  9 11  1  0  0  0  0
  9 21  1  0  0  0  0
 11 12  1  0  0  0  0
 11 13  1  0  0  0  0
 11 14  1  0  0  0  0
 14 15  1  0  0  0  0
 14 16  1  0  0  0  0
 14 17  1  0  0  0  0
 17 18  2  0  0  0  0
 17 19  1  0  0  0  0
 19 20  1  0  0  0  0
 21 22  2  0  0  0  0
 21 23  1  0  0  0  0
 23 24  1  0  0  0  0
 23 25  1  0  0  0  0
 25 26  1  0  0  0  0
 25 27  1  0  0  0  0
 25 28  1  0  0  0  0
M  END
$$$$

  -OEChem-01062216073D

 28 27  0     1  0  0  0  0  0999 V2000
   -3.2780   -2.9514    0.9890 H   0  0  0  0  0  0  0  0  0  0  0  0
   -3.2549   -1.9490    0.5516 C   0  0  0  0  0  0  0  0  0  0  0  0
   -4.0548   -1.3522    0.9965 H   0  0  0  0  0  0  0  0  0  0  0  0
   -3.4261   -2.0324   -0.5244 H   0  0  0  0  0  0  0  0  0  0  0  0
   -1.9110   -1.2962    0.8144 C   0  0  0  0  0  0  0  0  0  0  0  0
   -1.0852   -1.8587    1.5100 O   0  0  0  0  0  0  0  0  0  0  0  0
   -1.6435   -0.0428    0.3029 N   0  0  0  0  0  0  0  0  0  0  0  0
   -2.3653    0.3748   -0.2768 H   0  0  0  0  0  0  0  0  0  0  0  0
   -0.3381    0.6470    0.3842 C   0  0  1  0  0  0  0  0  0  0  0  0
    0.4161    0.0179   -0.1013 H   0  0  0  0  0  0  0  0  0  0  0  0
   -0.4520    1.9718   -0.3941 C   0  0  0  0  0  0  0  0  0  0  0  0
   -1.2882    2.5568    0.0048 H   0  0  0  0  0  0  0  0  0  0  0  0
    0.4596    2.5621   -0.2423 H   0  0  0  0  0  0  0  0  0  0  0  0
   -0.6353    1.7379   -1.9102 C   0  0  0  0  0  0  0  0  0  0  0  0
    0.2287    1.1875   -2.2934 H   0  0  0  0  0  0  0  0  0  0  0  0
   -1.5239    1.1298   -2.0941 H   0  0  0  0  0  0  0  0  0  0  0  0
   -0.7774    3.0249   -2.7240 C   0  0  0  0  0  0  0  0  0  0  0  0
   -0.8692    4.1007   -2.1570 O   0  0  0  0  0  0  0  0  0  0  0  0
   -0.8061    2.8885   -4.0690 O   0  0  0  0  0  0  0  0  0  0  0  0
   -0.8840    3.7875   -4.4241 H   0  0  0  0  0  0  0  0  0  0  0  0
    0.2011    0.9199    1.8120 C   0  0  0  0  0  0  0  0  0  0  0  0
    1.3288    1.3772    1.9487 O   0  0  0  0  0  0  0  0  0  0  0  0
   -0.6190    0.8203    2.9206 N   0  0  0  0  0  0  0  0  0  0  0  0
   -1.4287    0.2207    2.7920 H   0  0  0  0  0  0  0  0  0  0  0  0
   -0.1206    1.0156    4.2765 C   0  0  0  0  0  0  0  0  0  0  0  0
    0.3007    2.0202    4.3894 H   0  0  0  0  0  0  0  0  0  0  0  0
   -0.9345    0.9017    4.9989 H   0  0  0  0  0  0  0  0  0  0  0  0
    0.6569    0.2800    4.5080 H   0  0  0  0  0  0  0  0  0  0  0  0
  1  2  1  0  0  0  0
  2  3  1  0  0  0  0
  2  4  1  0  0  0  0
  2  5  1  0  0  0  0
  5  6  2  0  0  0  0
  5  7  1  0  0  0  0
  7  8  1  0  0  0  0
  7  9  1  0  0  0  0
  9 10  1  0  0  0  0
  9 11  1  0  0  0  0
  9 21  1  0  0  0  0
 11 12  1  0  0  0  0
 11 13  1  0  0  0  0
 11 14  1  0  0  0  0
 14 15  1  0  0  0  0
 14 16  1  0  0  0  0
 14 17  1  0  0  0  0
 17 18  2  0  0  0  0
 17 19  1  0  0  0  0
 19 20  1  0  0  0  0
 21 22  2  0  0  0  0
 21 23  1  0  0  0  0
 23 24  1  0  0  0  0
 23 25  1  0  0  0  0
 25 26  1  0  0  0  0
 25 27  1  0  0  0  0
 25 28  1  0  0  0  0
M  END
$$$$

  -OEChem-01062216073D

 28 27  0     1  0  0  0  0  0999 V2000
   -3.3230   -2.9317    0.9560 H   0  0  0  0  0  0  0  0  0  0  0  0
   -3.2818   -1.9249    0.5307 C   0  0  0  0  0  0  0  0  0  0  0  0
   -4.0576   -1.3133    0.9978 H   0  0  0  0  0  0  0  0  0  0  0  0
   -3.4754   -1.9900   -0.5427 H   0  0  0  0  0  0  0  0  0  0  0  0
   -1.9172   -1.3100    0.7767 C   0  0  0  0  0  0  0  0  0  0  0  0
   -1.0917   -1.9055    1.4461 O   0  0  0  0  0  0  0  0  0  0  0  0
   -1.6330   -0.0504    0.2907 N   0  0  0  0  0  0  0  0  0  0  0  0
   -2.3718    0.4087   -0.2337 H   0  0  0  0  0  0  0  0  0  0  0  0
   -0.3311    0.6454    0.3923 C   0  0  1  0  0  0  0  0  0  0  0  0
    0.4296    0.0251   -0.0937 H   0  0  0  0  0  0  0  0  0  0  0  0
   -0.4605    1.9698   -0.3893 C   0  0  0  0  0  0  0  0  0  0  0  0
   -1.3074    2.5430    0.0042 H   0  0  0  0  0  0  0  0  0  0  0  0
    0.4402    2.5761   -0.2370 H   0  0  0  0  0  0  0  0  0  0  0  0
   -0.6291    1.7330   -1.9072 C   0  0  0  0  0  0  0  0  0  0  0  0
    0.2464    1.1966   -2.2841 H   0  0  0  0  0  0  0  0  0  0  0  0
   -1.5063    1.1108   -2.0978 H   0  0  0  0  0  0  0  0  0  0  0  0
   -0.7857    3.0175   -2.7227 C   0  0  0  0  0  0  0  0  0  0  0  0
   -0.8988    4.0920   -2.1571 O   0  0  0  0  0  0  0  0  0  0  0  0
   -0.8043    2.8801   -4.0678 O   0  0  0  0  0  0  0  0  0  0  0  0
   -0.8957    3.7775   -4.4236 H   0  0  0  0  0  0  0  0  0  0  0  0
    0.2051    0.9089    1.8275 C   0  0  0  0  0  0  0  0  0  0  0  0
    1.2195    1.5784    1.9785 O   0  0  0  0  0  0  0  0  0  0  0  0
   -0.4964    0.5123    2.9508 N   0  0  0  0  0  0  0  0  0  0  0  0
   -1.1174   -0.2785    2.7876 H   0  0  0  0  0  0  0  0  0  0  0  0
    0.0231    0.6965    4.3003 C   0  0  0  0  0  0  0  0  0  0  0  0
    0.1969    1.7584    4.5034 H   0  0  0  0  0  0  0  0  0  0  0  0
   -0.6941    0.3197    5.0355 H   0  0  0  0  0  0  0  0  0  0  0  0
    0.9665    0.1547    4.4251 H   0  0  0  0  0  0  0  0  0  0  0  0
  1  2  1  0  0  0  0
  2  3  1  0  0  0  0
  2  4  1  0  0  0  0
  2  5  1  0  0  0  0
  5  6  2  0  0  0  0
  5  7  1  0  0  0  0
  7  8  1  0  0  0  0
  7  9  1  0  0  0  0
  9 10  1  0  0  0  0
  9 11  1  0  0  0  0
  9 21  1  0  0  0  0
 11 12  1  0  0  0  0
 11 13  1  0  0  0  0
 11 14  1  0  0  0  0
 14 15  1  0  0  0  0
 14 16  1  0  0  0  0
 14 17  1  0  0  0  0
 17 18  2  0  0  0  0
 17 19  1  0  0  0  0
 19 20  1  0  0  0  0
 21 22  2  0  0  0  0
 21 23  1  0  0  0  0
 23 24  1  0  0  0  0
 23 25  1  0  0  0  0
 25 26  1  0  0  0  0
 25 27  1  0  0  0  0
 25 28  1  0  0  0  0
M  END
$$$$

  -OEChem-01062216073D

 28 27  0     1  0  0  0  0  0999 V2000
   -3.3411   -2.9114    0.9801 H   0  0  0  0  0  0  0  0  0  0  0  0
   -3.2948   -1.9016    0.5621 C   0  0  0  0  0  0  0  0  0  0  0  0
   -4.0255   -1.2738    1.0780 H   0  0  0  0  0  0  0  0  0  0  0  0
   -3.5498   -1.9499   -0.4994 H   0  0  0  0  0  0  0  0  0  0  0  0
   -1.9018   -1.3268    0.7354 C   0  0  0  0  0  0  0  0  0  0  0  0
   -1.0396   -1.9779    1.3004 O   0  0  0  0  0  0  0  0  0  0  0  0
   -1.6221   -0.0563    0.2756 N   0  0  0  0  0  0  0  0  0  0  0  0
   -2.3990    0.4518   -0.1368 H   0  0  0  0  0  0  0  0  0  0  0  0
   -0.3293    0.6548    0.3936 C   0  0  1  0  0  0  0  0  0  0  0  0
    0.4400    0.0451   -0.0918 H   0  0  0  0  0  0  0  0  0  0  0  0
   -0.4698    1.9770   -0.3931 C   0  0  0  0  0  0  0  0  0  0  0  0
   -1.3284    2.5394   -0.0096 H   0  0  0  0  0  0  0  0  0  0  0  0
    0.4200    2.5978   -0.2374 H   0  0  0  0  0  0  0  0  0  0  0  0
   -0.6185    1.7330   -1.9117 C   0  0  0  0  0  0  0  0  0  0  0  0
    0.2682    1.2075   -2.2776 H   0  0  0  0  0  0  0  0  0  0  0  0
   -1.4853    1.0981   -2.1088 H   0  0  0  0  0  0  0  0  0  0  0  0
   -0.7849    3.0125   -2.7329 C   0  0  0  0  0  0  0  0  0  0  0  0
   -0.9198    4.0870   -2.1721 O   0  0  0  0  0  0  0  0  0  0  0  0
   -0.7813    2.8717   -4.0778 O   0  0  0  0  0  0  0  0  0  0  0  0
   -0.8784    3.7670   -4.4370 H   0  0  0  0  0  0  0  0  0  0  0  0
    0.2002    0.9032    1.8375 C   0  0  0  0  0  0  0  0  0  0  0  0
    1.0531    1.7590    2.0372 O   0  0  0  0  0  0  0  0  0  0  0  0
   -0.3157    0.2359    2.9325 N   0  0  0  0  0  0  0  0  0  0  0  0
   -0.7811   -0.6434    2.7041 H   0  0  0  0  0  0  0  0  0  0  0  0
    0.2244    0.3910    4.2778 C   0  0  0  0  0  0  0  0  0  0  0  0
    0.1596    1.4357    4.5996 H   0  0  0  0  0  0  0  0  0  0  0  0
   -0.3432   -0.2217    4.9846 H   0  0  0  0  0  0  0  0  0  0  0  0
    1.2732    0.0775    4.3090 H   0  0  0  0  0  0  0  0  0  0  0  0
  1  2  1  0  0  0  0
  2  3  1  0  0  0  0
  2  4  1  0  0  0  0
  2  5  1  0  0  0  0
  5  6  2  0  0  0  0
  5  7  1  0  0  0  0
  7  8  1  0  0  0  0
  7  9  1  0  0  0  0
  9 10  1  0  0  0  0
  9 11  1  0  0  0  0
  9 21  1  0  0  0  0
 11 12  1  0  0  0  0
 11 13  1  0  0  0  0
 11 14  1  0  0  0  0
 14 15  1  0  0  0  0
 14 16  1  0  0  0  0
 14 17  1  0  0  0  0
 17 18  2  0  0  0  0
 17 19  1  0  0  0  0
 19 20  1  0  0  0  0
 21 22  2  0  0  0  0
 21 23  1  0  0  0  0
 23 24  1  0  0  0  0
 23 25  1  0  0  0  0
 25 26  1  0  0  0  0
 25 27  1  0  0  0  0
 25 28  1  0  0  0  0
M  END
$$$$

  -OEChem-01062216073D

 28 27  0     1  0  0  0  0  0999 V2000
   -3.3283   -2.8895    1.0556 H   0  0  0  0  0  0  0  0  0  0  0  0
   -3.2879   -1.8831    0.6295 C   0  0  0  0  0  0  0  0  0  0  0  0
   -3.9651   -1.2359    1.1923 H   0  0  0  0  0  0  0  0  0  0  0  0
   -3.6182   -1.9292   -0.4111 H   0  0  0  0  0  0  0  0  0  0  0  0
   -1.8730   -1.3412    0.7006 C   0  0  0  0  0  0  0  0  0  0  0  0
   -0.9757   -2.0362    1.1484 O   0  0  0  0  0  0  0  0  0  0  0  0
   -1.6071   -0.0614    0.2577 N   0  0  0  0  0  0  0  0  0  0  0  0
   -2.4128    0.4787   -0.0445 H   0  0  0  0  0  0  0  0  0  0  0  0
   -0.3217    0.6607    0.3847 C   0  0  1  0  0  0  0  0  0  0  0  0
    0.4542    0.0604   -0.1021 H   0  0  0  0  0  0  0  0  0  0  0  0
   -0.4683    1.9829   -0.4022 C   0  0  0  0  0  0  0  0  0  0  0  0
   -1.3330    2.5389   -0.0237 H   0  0  0  0  0  0  0  0  0  0  0  0
    0.4164    2.6097   -0.2420 H   0  0  0  0  0  0  0  0  0  0  0  0
   -0.6049    1.7385   -1.9220 C   0  0  0  0  0  0  0  0  0  0  0  0
    0.2877    1.2198   -2.2830 H   0  0  0  0  0  0  0  0  0  0  0  0
   -1.4656    1.0964   -2.1239 H   0  0  0  0  0  0  0  0  0  0  0  0
   -0.7770    3.0165   -2.7445 C   0  0  0  0  0  0  0  0  0  0  0  0
   -0.9249    4.0899   -2.1847 O   0  0  0  0  0  0  0  0  0  0  0  0
   -0.7662    2.8754   -4.0895 O   0  0  0  0  0  0  0  0  0  0  0  0
   -0.8748    3.7693   -4.4489 H   0  0  0  0  0  0  0  0  0  0  0  0
    0.1976    0.8910    1.8373 C   0  0  0  0  0  0  0  0  0  0  0  0
    0.8411    1.8954    2.1146 O   0  0  0  0  0  0  0  0  0  0  0  0
   -0.0851    0.0103    2.8643 N   0  0  0  0  0  0  0  0  0  0  0  0
   -0.4265   -0.9059    2.5668 H   0  0  0  0  0  0  0  0  0  0  0  0
    0.4631    0.1417    4.2087 C   0  0  0  0  0  0  0  0  0  0  0  0
    0.1699    1.0998    4.6507 H   0  0  0  0  0  0  0  0  0  0  0  0
    0.0866   -0.6618    4.8490 H   0  0  0  0  0  0  0  0  0  0  0  0
    1.5564    0.0844    4.1844 H   0  0  0  0  0  0  0  0  0  0  0  0
  1  2  1  0  0  0  0
  2  3  1  0  0  0  0
  2  4  1  0  0  0  0
  2  5  1  0  0  0  0
  5  6  2  0  0  0  0
  5  7  1  0  0  0  0
  7  8  1  0  0  0  0
  7  9  1  0  0  0  0
  9 10  1  0  0  0  0
  9 11  1  0  0  0  0
  9 21  1  0  0  0  0
 11 12  1  0  0  0  0
 11 13  1  0  0  0  0
 11 14  1  0  0  0  0
 14 15  1  0  0  0  0
 14 16  1  0  0  0  0
 14 17  1  0  0  0  0
 17 18  2  0  0  0  0
 17 19  1  0  0  0  0
 19 20  1  0  0  0  0
 21 22  2  0  0  0  0
 21 23  1  0  0  0  0
 23 24  1  0  0  0  0
 23 25  1  0  0  0  0
 25 26  1  0  0  0  0
 25 27  1  0  0  0  0
 25 28  1  0  0  0  0
M  END
$$$$

  -OEChem-01062216073D

 28 27  0     1  0  0  0  0  0999 V2000
   -3.2931   -2.8880    1.1054 H   0  0  0  0  0  0  0  0  0  0  0  0
   -3.2671   -1.8737    0.6969 C   0  0  0  0  0  0  0  0  0  0  0  0
   -3.9024   -1.2313    1.3116 H   0  0  0  0  0  0  0  0  0  0  0  0
   -3.6592   -1.8955   -0.3229 H   0  0  0  0  0  0  0  0  0  0  0  0
   -1.8447   -1.3471    0.6938 C   0  0  0  0  0  0  0  0  0  0  0  0
   -0.9274   -2.0655    1.0579 O   0  0  0  0  0  0  0  0  0  0  0  0
   -1.5916   -0.0645    0.2509 N   0  0  0  0  0  0  0  0  0  0  0  0
   -2.4112    0.4912    0.0239 H   0  0  0  0  0  0  0  0  0  0  0  0
   -0.3059    0.6574    0.3669 C   0  0  1  0  0  0  0  0  0  0  0  0
    0.4667    0.0600   -0.1284 H   0  0  0  0  0  0  0  0  0  0  0  0
   -0.4526    1.9832   -0.4125 C   0  0  0  0  0  0  0  0  0  0  0  0
   -1.3108    2.5433   -0.0246 H   0  0  0  0  0  0  0  0  0  0  0  0
    0.4380    2.6025   -0.2542 H   0  0  0  0  0  0  0  0  0  0  0  0
   -0.6016    1.7443   -1.9318 C   0  0  0  0  0  0  0  0  0  0  0  0
    0.2867    1.2237   -2.3008 H   0  0  0  0  0  0  0  0  0  0  0  0
   -1.4661    1.1057   -2.1283 H   0  0  0  0  0  0  0  0  0  0  0  0
   -0.7747    3.0250   -2.7497 C   0  0  0  0  0  0  0  0  0  0  0  0
   -0.9141    4.0974   -2.1861 O   0  0  0  0  0  0  0  0  0  0  0  0
   -0.7722    2.8880   -4.0951 O   0  0  0  0  0  0  0  0  0  0  0  0
   -0.8816    3.7831   -4.4514 H   0  0  0  0  0  0  0  0  0  0  0  0
    0.2146    0.8737    1.8202 C   0  0  0  0  0  0  0  0  0  0  0  0
    0.6298    1.9677    2.1816 O   0  0  0  0  0  0  0  0  0  0  0  0
    0.1989   -0.1433    2.7546 N   0  0  0  0  0  0  0  0  0  0  0  0
   -0.0648   -1.0686    2.4075 H   0  0  0  0  0  0  0  0  0  0  0  0
    0.7301   -0.0181    4.1057 C   0  0  0  0  0  0  0  0  0  0  0  0
    0.2118    0.7786    4.6492 H   0  0  0  0  0  0  0  0  0  0  0  0
    0.5920   -0.9553    4.6533 H   0  0  0  0  0  0  0  0  0  0  0  0
    1.8000    0.2130    4.0764 H   0  0  0  0  0  0  0  0  0  0  0  0
  1  2  1  0  0  0  0
  2  3  1  0  0  0  0
  2  4  1  0  0  0  0
  2  5  1  0  0  0  0
  5  6  2  0  0  0  0
  5  7  1  0  0  0  0
  7  8  1  0  0  0  0
  7  9  1  0  0  0  0
  9 10  1  0  0  0  0
  9 11  1  0  0  0  0
  9 21  1  0  0  0  0
 11 12  1  0  0  0  0
 11 13  1  0  0  0  0
 11 14  1  0  0  0  0
 14 15  1  0  0  0  0
 14 16  1  0  0  0  0
 14 17  1  0  0  0  0
 17 18  2  0  0  0  0
 17 19  1  0  0  0  0
 19 20  1  0  0  0  0
 21 22  2  0  0  0  0
 21 23  1  0  0  0  0
 23 24  1  0  0  0  0
 23 25  1  0  0  0  0
 25 26  1  0  0  0  0
 25 27  1  0  0  0  0
 25 28  1  0  0  0  0
M  END
$$$$

  -OEChem-01062216073D

 28 27  0     1  0  0  0  0  0999 V2000
   -3.2220   -2.8883    1.1836 H   0  0  0  0  0  0  0  0  0  0  0  0
   -3.2200   -1.8672    0.7915 C   0  0  0  0  0  0  0  0  0  0  0  0
   -3.8127   -1.2345    1.4567 H   0  0  0  0  0  0  0  0  0  0  0  0
   -3.6774   -1.8711   -0.2009 H   0  0  0  0  0  0  0  0  0  0  0  0
   -1.7992   -1.3429    0.7061 C   0  0  0  0  0  0  0  0  0  0  0  0
   -0.8633   -2.0650    1.0130 O   0  0  0  0  0  0  0  0  0  0  0  0
   -1.5671   -0.0617    0.2472 N   0  0  0  0  0  0  0  0  0  0  0  0
   -2.3953    0.5028    0.0799 H   0  0  0  0  0  0  0  0  0  0  0  0
   -0.2767    0.6527    0.3324 C   0  0  1  0  0  0  0  0  0  0  0  0
    0.4842    0.0524   -0.1776 H   0  0  0  0  0  0  0  0  0  0  0  0
   -0.4202    1.9834   -0.4360 C   0  0  0  0  0  0  0  0  0  0  0  0
   -1.2646    2.5513   -0.0294 H   0  0  0  0  0  0  0  0  0  0  0  0
    0.4816    2.5885   -0.2851 H   0  0  0  0  0  0  0  0  0  0  0  0
   -0.6029    1.7557   -1.9528 C   0  0  0  0  0  0  0  0  0  0  0  0
    0.2685    1.2228   -2.3435 H   0  0  0  0  0  0  0  0  0  0  0  0
   -1.4818    1.1320   -2.1342 H   0  0  0  0  0  0  0  0  0  0  0  0
   -0.7740    3.0437   -2.7592 C   0  0  0  0  0  0  0  0  0  0  0  0
   -0.8866    4.1149   -2.1873 O   0  0  0  0  0  0  0  0  0  0  0  0
   -0.8002    2.9140   -4.1049 O   0  0  0  0  0  0  0  0  0  0  0  0
   -0.9048    3.8125   -4.4537 H   0  0  0  0  0  0  0  0  0  0  0  0
    0.2568    0.8594    1.7796 C   0  0  0  0  0  0  0  0  0  0  0  0
    0.4317    1.9839    2.2326 O   0  0  0  0  0  0  0  0  0  0  0  0
    0.5248   -0.2183    2.6003 N   0  0  0  0  0  0  0  0  0  0  0  0
    0.2897   -1.1415    2.2262 H   0  0  0  0  0  0  0  0  0  0  0  0
    0.9743   -0.1025    3.9815 C   0  0  0  0  0  0  0  0  0  0  0  0
    0.2217    0.4123    4.5876 H   0  0  0  0  0  0  0  0  0  0  0  0
    1.1430   -1.0960    4.4078 H   0  0  0  0  0  0  0  0  0  0  0  0
    1.9131    0.4591    4.0325 H   0  0  0  0  0  0  0  0  0  0  0  0
  1  2  1  0  0  0  0
  2  3  1  0  0  0  0
  2  4  1  0  0  0  0
  2  5  1  0  0  0  0
  5  6  2  0  0  0  0
  5  7  1  0  0  0  0
  7  8  1  0  0  0  0
  7  9  1  0  0  0  0
  9 10  1  0  0  0  0
  9 11  1  0  0  0  0
  9 21  1  0  0  0  0
 11 12  1  0  0  0  0
 11 13  1  0  0  0  0
 11 14  1  0  0  0  0
 14 15  1  0  0  0  0
 14 16  1  0  0  0  0
 14 17  1  0  0  0  0
 17 18  2  0  0  0  0
 17 19  1  0  0  0  0
 19 20  1  0  0  0  0
 21 22  2  0  0  0  0
 21 23  1  0  0  0  0
 23 24  1  0  0  0  0
 23 25  1  0  0  0  0
 25 26  1  0  0  0  0
 25 27  1  0  0  0  0
 25 28  1  0  0  0  0
M  END
$$$$

  -OEChem-01062216073D

 28 27  0     1  0  0  0  0  0999 V2000
   -3.1374   -2.8741    1.2893 H   0  0  0  0  0  0  0  0  0  0  0  0
   -3.1573   -1.8640    0.8704 C   0  0  0  0  0  0  0  0  0  0  0  0
   -3.7338   -1.2185    1.5376 H   0  0  0  0  0  0  0  0  0  0  0  0
   -3.6461   -1.8975   -0.1064 H   0  0  0  0  0  0  0  0  0  0  0  0
   -1.7452   -1.3304    0.7249 C   0  0  0  0  0  0  0  0  0  0  0  0
   -0.7902   -2.0357    1.0140 O   0  0  0  0  0  0  0  0  0  0  0  0
   -1.5406   -0.0543    0.2397 N   0  0  0  0  0  0  0  0  0  0  0  0
   -2.3752    0.5127    0.1187 H   0  0  0  0  0  0  0  0  0  0  0  0
   -0.2490    0.6555    0.3013 C   0  0  1  0  0  0  0  0  0  0  0  0
    0.5082    0.0556   -0.2146 H   0  0  0  0  0  0  0  0  0  0  0  0
   -0.3952    1.9895   -0.4586 C   0  0  0  0  0  0  0  0  0  0  0  0
   -1.2320    2.5593   -0.0390 H   0  0  0  0  0  0  0  0  0  0  0  0
    0.5112    2.5889   -0.3132 H   0  0  0  0  0  0  0  0  0  0  0  0
   -0.6045    1.7693   -1.9733 C   0  0  0  0  0  0  0  0  0  0  0  0
    0.2560    1.2308   -2.3804 H   0  0  0  0  0  0  0  0  0  0  0  0
   -1.4909    1.1527   -2.1413 H   0  0  0  0  0  0  0  0  0  0  0  0
   -0.7794    3.0616   -2.7726 C   0  0  0  0  0  0  0  0  0  0  0  0
   -0.8749    4.1312   -2.1947 O   0  0  0  0  0  0  0  0  0  0  0  0
   -0.8283    2.9383   -4.1183 O   0  0  0  0  0  0  0  0  0  0  0  0
   -0.9356    3.8389   -4.4610 H   0  0  0  0  0  0  0  0  0  0  0  0
    0.2756    0.8623    1.7478 C   0  0  0  0  0  0  0  0  0  0  0  0
    0.2218    1.9602    2.2883 O   0  0  0  0  0  0  0  0  0  0  0  0
    0.8172   -0.1976    2.4480 N   0  0  0  0  0  0  0  0  0  0  0  0
    0.6341   -1.1219    2.0484 H   0  0  0  0  0  0  0  0  0  0  0  0
    1.2195   -0.1098    3.8459 C   0  0  0  0  0  0  0  0  0  0  0  0
    0.3563    0.1201    4.4791 H   0  0  0  0  0  0  0  0  0  0  0  0
    1.6493   -1.0607    4.1748 H   0  0  0  0  0  0  0  0  0  0  0  0
    1.9739    0.6726    3.9798 H   0  0  0  0  0  0  0  0  0  0  0  0
  1  2  1  0  0  0  0
  2  3  1  0  0  0  0
  2  4  1  0  0  0  0
  2  5  1  0  0  0  0
  5  6  2  0  0  0  0
  5  7  1  0  0  0  0
  7  8  1  0  0  0  0
  7  9  1  0  0  0  0
  9 10  1  0  0  0  0
  9 11  1  0  0  0  0
  9 21  1  0  0  0  0
 11 12  1  0  0  0  0
 11 13  1  0  0  0  0
 11 14  1  0  0  0  0
 14 15  1  0  0  0  0
 14 16  1  0  0  0  0
 14 17  1  0  0  0  0
 17 18  2  0  0  0  0
 17 19  1  0  0  0  0
 19 20  1  0  0  0  0
 21 22  2  0  0  0  0
 21 23  1  0  0  0  0
 23 24  1  0  0  0  0
 23 25  1  0  0  0  0
 25 26  1  0  0  0  0
 25 27  1  0  0  0  0
 25 28  1  0  0  0  0
M  END
$$$$

  -OEChem-01062216073D

 28 27  0     1  0  0  0  0  0999 V2000
   -3.0534   -2.8703    1.3860 H   0  0  0  0  0  0  0  0  0  0  0  0
   -3.1038   -1.8757    0.9342 C   0  0  0  0  0  0  0  0  0  0  0  0
   -3.6747   -1.2185    1.5947 H   0  0  0  0  0  0  0  0  0  0  0  0
   -3.6171   -1.9511   -0.0275 H   0  0  0  0  0  0  0  0  0  0  0  0
   -1.7066   -1.3214    0.7335 C   0  0  0  0  0  0  0  0  0  0  0  0
   -0.7286   -2.0011    1.0104 O   0  0  0  0  0  0  0  0  0  0  0  0
   -1.5359   -0.0501    0.2223 N   0  0  0  0  0  0  0  0  0  0  0  0
   -2.3766    0.5161    0.1477 H   0  0  0  0  0  0  0  0  0  0  0  0
   -0.2458    0.6584    0.2728 C   0  0  1  0  0  0  0  0  0  0  0  0
    0.5125    0.0599   -0.2432 H   0  0  0  0  0  0  0  0  0  0  0  0
   -0.3847    1.9975   -0.4770 C   0  0  0  0  0  0  0  0  0  0  0  0
   -1.2167    2.5701   -0.0509 H   0  0  0  0  0  0  0  0  0  0  0  0
    0.5261    2.5888   -0.3285 H   0  0  0  0  0  0  0  0  0  0  0  0
   -0.6045    1.7871   -1.9910 C   0  0  0  0  0  0  0  0  0  0  0  0
    0.2489    1.2438   -2.4060 H   0  0  0  0  0  0  0  0  0  0  0  0
   -1.4971    1.1788   -2.1564 H   0  0  0  0  0  0  0  0  0  0  0  0
   -0.7728    3.0845   -2.7827 C   0  0  0  0  0  0  0  0  0  0  0  0
   -0.8557    4.1524   -2.1996 O   0  0  0  0  0  0  0  0  0  0  0  0
   -0.8279    2.9670   -4.1288 O   0  0  0  0  0  0  0  0  0  0  0  0
   -0.9284    3.8697   -4.4681 H   0  0  0  0  0  0  0  0  0  0  0  0
    0.2557    0.8667    1.7238 C   0  0  0  0  0  0  0  0  0  0  0  0
   -0.0222    1.8853    2.3449 O   0  0  0  0  0  0  0  0  0  0  0  0
    1.0542   -0.0926    2.3147 N   0  0  0  0  0  0  0  0  0  0  0  0
    0.9961   -1.0163    1.8816 H   0  0  0  0  0  0  0  0  0  0  0  0
    1.4710   -0.0155    3.7090 C   0  0  0  0  0  0  0  0  0  0  0  0
    0.5991   -0.0330    4.3711 H   0  0  0  0  0  0  0  0  0  0  0  0
    2.1147   -0.8647    3.9581 H   0  0  0  0  0  0  0  0  0  0  0  0
    2.0329    0.9068    3.8909 H   0  0  0  0  0  0  0  0  0  0  0  0
  1  2  1  0  0  0  0
  2  3  1  0  0  0  0
  2  4  1  0  0  0  0
  2  5  1  0  0  0  0
  5  6  2  0  0  0  0
  5  7  1  0  0  0  0
  7  8  1  0  0  0  0
  7  9  1  0  0  0  0
  9 10  1  0  0  0  0
  9 11  1  0  0  0  0
  9 21  1  0  0  0  0
 11 12  1  0  0  0  0
 11 13  1  0  0  0  0
 11 14  1  0  0  0  0
 14 15  1  0  0  0  0
 14 16  1  0  0  0  0
 14 17  1  0  0  0  0
 17 18  2  0  0  0  0
 17 19  1  0  0  0  0
 19 20  1  0  0  0  0
 21 22  2  0  0  0  0
 21 23  1  0  0  0  0
 23 24  1  0  0  0  0
 23 25  1  0  0  0  0
 25 26  1  0  0  0  0
 25 27  1  0  0  0  0
 25 28  1  0  0  0  0
M  END
$$$$

  -OEChem-01062216073D

 28 27  0     1  0  0  0  0  0999 V2000
   -3.0014   -2.8652    1.4365 H   0  0  0  0  0  0  0  0  0  0  0  0
   -3.0703   -1.8724    0.9831 C   0  0  0  0  0  0  0  0  0  0  0  0
   -3.6162   -1.2130    1.6624 H   0  0  0  0  0  0  0  0  0  0  0  0
   -3.6200   -1.9519    0.0421 H   0  0  0  0  0  0  0  0  0  0  0  0
   -1.6825   -1.3174    0.7271 C   0  0  0  0  0  0  0  0  0  0  0  0
   -0.6924   -1.9889    0.9798 O   0  0  0  0  0  0  0  0  0  0  0  0
   -1.5328   -0.0511    0.1979 N   0  0  0  0  0  0  0  0  0  0  0  0
   -2.3734    0.5197    0.1765 H   0  0  0  0  0  0  0  0  0  0  0  0
   -0.2430    0.6547    0.2451 C   0  0  1  0  0  0  0  0  0  0  0  0
    0.5161    0.0565   -0.2700 H   0  0  0  0  0  0  0  0  0  0  0  0
   -0.3778    1.9981   -0.4949 C   0  0  0  0  0  0  0  0  0  0  0  0
   -1.2072    2.5707   -0.0635 H   0  0  0  0  0  0  0  0  0  0  0  0
    0.5356    2.5850   -0.3444 H   0  0  0  0  0  0  0  0  0  0  0  0
   -0.6037    1.7974   -2.0093 C   0  0  0  0  0  0  0  0  0  0  0  0
    0.2453    1.2521   -2.4310 H   0  0  0  0  0  0  0  0  0  0  0  0
   -1.5001    1.1942   -2.1743 H   0  0  0  0  0  0  0  0  0  0  0  0
   -0.7686    3.1003   -2.7927 C   0  0  0  0  0  0  0  0  0  0  0  0
   -0.8441    4.1648   -2.2021 O   0  0  0  0  0  0  0  0  0  0  0  0
   -0.8309    2.9922   -4.1392 O   0  0  0  0  0  0  0  0  0  0  0  0
   -0.9334    3.8971   -4.4717 H   0  0  0  0  0  0  0  0  0  0  0  0
    0.2408    0.8667    1.6994 C   0  0  0  0  0  0  0  0  0  0  0  0
   -0.2545    1.7456    2.3947 O   0  0  0  0  0  0  0  0  0  0  0  0
    1.2648    0.0892    2.2045 N   0  0  0  0  0  0  0  0  0  0  0  0
    1.4196   -0.7876    1.7092 H   0  0  0  0  0  0  0  0  0  0  0  0
    1.6868    0.1680    3.5974 C   0  0  0  0  0  0  0  0  0  0  0  0
    0.8632   -0.1104    4.2631 H   0  0  0  0  0  0  0  0  0  0  0  0
    2.5252   -0.5118    3.7770 H   0  0  0  0  0  0  0  0  0  0  0  0
    2.0103    1.1849    3.8438 H   0  0  0  0  0  0  0  0  0  0  0  0
  1  2  1  0  0  0  0
  2  3  1  0  0  0  0
  2  4  1  0  0  0  0
  2  5  1  0  0  0  0
  5  6  2  0  0  0  0
  5  7  1  0  0  0  0
  7  8  1  0  0  0  0
  7  9  1  0  0  0  0
  9 10  1  0  0  0  0
  9 11  1  0  0  0  0
  9 21  1  0  0  0  0
 11 12  1  0  0  0  0
 11 13  1  0  0  0  0
 11 14  1  0  0  0  0
 14 15  1  0  0  0  0
 14 16  1  0  0  0  0
 14 17  1  0  0  0  0
 17 18  2  0  0  0  0
 17 19  1  0  0  0  0
 19 20  1  0  0  0  0
 21 22  2  0  0  0  0
 21 23  1  0  0  0  0
 23 24  1  0  0  0  0
 23 25  1  0  0  0  0
 25 26  1  0  0  0  0
 25 27  1  0  0  0  0
 25 28  1  0  0  0  0
M  END
$$$$

  -OEChem-01062216073D

 28 27  0     1  0  0  0  0  0999 V2000
   -2.9778   -2.8627    1.4591 H   0  0  0  0  0  0  0  0  0  0  0  0
   -3.0557   -1.8639    1.0209 C   0  0  0  0  0  0  0  0  0  0  0  0
   -3.5675   -1.2085    1.7300 H   0  0  0  0  0  0  0  0  0  0  0  0
   -3.6438   -1.9271    0.1023 H   0  0  0  0  0  0  0  0  0  0  0  0
   -1.6740   -1.3181    0.7157 C   0  0  0  0  0  0  0  0  0  0  0  0
   -0.6801   -1.9944    0.9380 O   0  0  0  0  0  0  0  0  0  0  0  0
   -1.5343   -0.0556    0.1747 N   0  0  0  0  0  0  0  0  0  0  0  0
   -2.3717    0.5194    0.1994 H   0  0  0  0  0  0  0  0  0  0  0  0
   -0.2446    0.6500    0.2236 C   0  0  1  0  0  0  0  0  0  0  0  0
    0.5146    0.0493   -0.2881 H   0  0  0  0  0  0  0  0  0  0  0  0
   -0.3771    1.9962   -0.5097 C   0  0  0  0  0  0  0  0  0  0  0  0
   -1.2057    2.5674   -0.0751 H   0  0  0  0  0  0  0  0  0  0  0  0
    0.5374    2.5808   -0.3577 H   0  0  0  0  0  0  0  0  0  0  0  0
   -0.6034    1.8021   -2.0248 C   0  0  0  0  0  0  0  0  0  0  0  0
    0.2443    1.2567   -2.4486 H   0  0  0  0  0  0  0  0  0  0  0  0
   -1.5009    1.2007   -2.1916 H   0  0  0  0  0  0  0  0  0  0  0  0
   -0.7664    3.1084   -2.8033 C   0  0  0  0  0  0  0  0  0  0  0  0
   -0.8402    4.1702   -2.2077 O   0  0  0  0  0  0  0  0  0  0  0  0
   -0.8273    3.0067   -4.1505 O   0  0  0  0  0  0  0  0  0  0  0  0
   -0.9309    3.9128   -4.4795 H   0  0  0  0  0  0  0  0  0  0  0  0
    0.2294    0.8709    1.6791 C   0  0  0  0  0  0  0  0  0  0  0  0
   -0.4431    1.5555    2.4412 O   0  0  0  0  0  0  0  0  0  0  0  0
    1.4285    0.3395    2.1144 N   0  0  0  0  0  0  0  0  0  0  0  0
    1.8177   -0.4014    1.5368 H   0  0  0  0  0  0  0  0  0  0  0  0
    1.8562    0.4193    3.5058 C   0  0  0  0  0  0  0  0  0  0  0  0
    1.1474   -0.1056    4.1548 H   0  0  0  0  0  0  0  0  0  0  0  0
    2.8423   -0.0396    3.6248 H   0  0  0  0  0  0  0  0  0  0  0  0
    1.9226    1.4637    3.8287 H   0  0  0  0  0  0  0  0  0  0  0  0
  1  2  1  0  0  0  0
  2  3  1  0  0  0  0
  2  4  1  0  0  0  0
  2  5  1  0  0  0  0
  5  6  2  0  0  0  0
  5  7  1  0  0  0  0
  7  8  1  0  0  0  0
  7  9  1  0  0  0  0
  9 10  1  0  0  0  0
  9 11  1  0  0  0  0
  9 21  1  0  0  0  0
 11 12  1  0  0  0  0
 11 13  1  0  0  0  0
 11 14  1  0  0  0  0
 14 15  1  0  0  0  0
 14 16  1  0  0  0  0
 14 17  1  0  0  0  0
 17 18  2  0  0  0  0
 17 19  1  0  0  0  0
 19 20  1  0  0  0  0
 21 22  2  0  0  0  0
 21 23  1  0  0  0  0
 23 24  1  0  0  0  0
 23 25  1  0  0  0  0
 25 26  1  0  0  0  0
 25 27  1  0  0  0  0
 25 28  1  0  0  0  0
M  END
$$$$

  -OEChem-01062216073D

 28 27  0     1  0  0  0  0  0999 V2000
   -2.9768   -2.8610    1.4780 H   0  0  0  0  0  0  0  0  0  0  0  0
   -3.0581   -1.8633    1.0379 C   0  0  0  0  0  0  0  0  0  0  0  0
   -3.5472   -1.2012    1.7567 H   0  0  0  0  0  0  0  0  0  0  0  0
   -3.6684   -1.9247    0.1339 H   0  0  0  0  0  0  0  0  0  0  0  0
   -1.6801   -1.3286    0.6983 C   0  0  0  0  0  0  0  0  0  0  0  0
   -0.6873   -2.0146    0.8921 O   0  0  0  0  0  0  0  0  0  0  0  0
   -1.5455   -0.0668    0.1543 N   0  0  0  0  0  0  0  0  0  0  0  0
   -2.3804    0.5096    0.2108 H   0  0  0  0  0  0  0  0  0  0  0  0
   -0.2567    0.6403    0.2152 C   0  0  1  0  0  0  0  0  0  0  0  0
    0.5059    0.0380   -0.2898 H   0  0  0  0  0  0  0  0  0  0  0  0
   -0.3838    1.9888   -0.5126 C   0  0  0  0  0  0  0  0  0  0  0  0
   -1.2169    2.5560   -0.0816 H   0  0  0  0  0  0  0  0  0  0  0  0
    0.5283    2.5744   -0.3512 H   0  0  0  0  0  0  0  0  0  0  0  0
   -0.5988    1.8019   -2.0300 C   0  0  0  0  0  0  0  0  0  0  0  0
    0.2514    1.2579   -2.4506 H   0  0  0  0  0  0  0  0  0  0  0  0
   -1.4953    1.2019   -2.2059 H   0  0  0  0  0  0  0  0  0  0  0  0
   -0.7557    3.1126   -2.8022 C   0  0  0  0  0  0  0  0  0  0  0  0
   -0.8337    4.1709   -2.2007 O   0  0  0  0  0  0  0  0  0  0  0  0
   -0.8068    3.0188   -4.1503 O   0  0  0  0  0  0  0  0  0  0  0  0
   -0.9115    3.9263   -4.4752 H   0  0  0  0  0  0  0  0  0  0  0  0
    0.2085    0.8671    1.6726 C   0  0  0  0  0  0  0  0  0  0  0  0
   -0.5710    1.3403    2.4919 O   0  0  0  0  0  0  0  0  0  0  0  0
    1.5174    0.6189    2.0413 N   0  0  0  0  0  0  0  0  0  0  0  0
    2.0771    0.0756    1.3904 H   0  0  0  0  0  0  0  0  0  0  0  0
    1.9794    0.7400    3.4188 C   0  0  0  0  0  0  0  0  0  0  0  0
    1.4338    0.0467    4.0678 H   0  0  0  0  0  0  0  0  0  0  0  0
    3.0468    0.5077    3.4816 H   0  0  0  0  0  0  0  0  0  0  0  0
    1.8274    1.7603    3.7867 H   0  0  0  0  0  0  0  0  0  0  0  0
  1  2  1  0  0  0  0
  2  3  1  0  0  0  0
  2  4  1  0  0  0  0
  2  5  1  0  0  0  0
  5  6  2  0  0  0  0
  5  7  1  0  0  0  0
  7  8  1  0  0  0  0
  7  9  1  0  0  0  0
  9 10  1  0  0  0  0
  9 11  1  0  0  0  0
  9 21  1  0  0  0  0
 11 12  1  0  0  0  0
 11 13  1  0  0  0  0
 11 14  1  0  0  0  0
 14 15  1  0  0  0  0
 14 16  1  0  0  0  0
 14 17  1  0  0  0  0
 17 18  2  0  0  0  0
 17 19  1  0  0  0  0
 19 20  1  0  0  0  0
 21 22  2  0  0  0  0
 21 23  1  0  0  0  0
 23 24  1  0  0  0  0
 23 25  1  0  0  0  0
 25 26  1  0  0  0  0
 25 27  1  0  0  0  0
 25 28  1  0  0  0  0
M  END
$$$$

  -OEChem-01062216073D

 28 27  0     1  0  0  0  0  0999 V2000
   -2.9855   -2.8672    1.4689 H   0  0  0  0  0  0  0  0  0  0  0  0
   -3.0665   -1.8634    1.0425 C   0  0  0  0  0  0  0  0  0  0  0  0
   -3.5313   -1.2052    1.7808 H   0  0  0  0  0  0  0  0  0  0  0  0
   -3.6984   -1.9071    0.1523 H   0  0  0  0  0  0  0  0  0  0  0  0
   -1.6911   -1.3387    0.6781 C   0  0  0  0  0  0  0  0  0  0  0  0
   -0.7020   -2.0385    0.8378 O   0  0  0  0  0  0  0  0  0  0  0  0
   -1.5564   -0.0746    0.1387 N   0  0  0  0  0  0  0  0  0  0  0  0
   -2.3886    0.5026    0.2195 H   0  0  0  0  0  0  0  0  0  0  0  0
   -0.2667    0.6310    0.2158 C   0  0  1  0  0  0  0  0  0  0  0  0
    0.4995    0.0290   -0.2843 H   0  0  0  0  0  0  0  0  0  0  0  0
   -0.3908    1.9820   -0.5079 C   0  0  0  0  0  0  0  0  0  0  0  0
   -1.2278    2.5468   -0.0808 H   0  0  0  0  0  0  0  0  0  0  0  0
    0.5189    2.5690   -0.3394 H   0  0  0  0  0  0  0  0  0  0  0  0
   -0.5931    1.7988   -2.0276 C   0  0  0  0  0  0  0  0  0  0  0  0
    0.2614    1.2572   -2.4429 H   0  0  0  0  0  0  0  0  0  0  0  0
   -1.4875    1.1979   -2.2123 H   0  0  0  0  0  0  0  0  0  0  0  0
   -0.7468    3.1108   -2.7979 C   0  0  0  0  0  0  0  0  0  0  0  0
   -0.8320    4.1674   -2.1942 O   0  0  0  0  0  0  0  0  0  0  0  0
   -0.7876    3.0201   -4.1466 O   0  0  0  0  0  0  0  0  0  0  0  0
   -0.8931    3.9276   -4.4709 H   0  0  0  0  0  0  0  0  0  0  0  0
    0.1946    0.8576    1.6757 C   0  0  0  0  0  0  0  0  0  0  0  0
   -0.6315    1.1166    2.5442 O   0  0  0  0  0  0  0  0  0  0  0  0
    1.5408    0.9094    1.9873 N   0  0  0  0  0  0  0  0  0  0  0  0
    2.1928    0.5912    1.2767 H   0  0  0  0  0  0  0  0  0  0  0  0
    2.0267    1.0951    3.3494 C   0  0  0  0  0  0  0  0  0  0  0  0
    1.6774    0.2817    3.9944 H   0  0  0  0  0  0  0  0  0  0  0  0
    3.1207    1.1038    3.3637 H   0  0  0  0  0  0  0  0  0  0  0  0
    1.6695    2.0465    3.7576 H   0  0  0  0  0  0  0  0  0  0  0  0
  1  2  1  0  0  0  0
  2  3  1  0  0  0  0
  2  4  1  0  0  0  0
  2  5  1  0  0  0  0
  5  6  2  0  0  0  0
  5  7  1  0  0  0  0
  7  8  1  0  0  0  0
  7  9  1  0  0  0  0
  9 10  1  0  0  0  0
  9 11  1  0  0  0  0
  9 21  1  0  0  0  0
 11 12  1  0  0  0  0
 11 13  1  0  0  0  0
 11 14  1  0  0  0  0
 14 15  1  0  0  0  0
 14 16  1  0  0  0  0
 14 17  1  0  0  0  0
 17 18  2  0  0  0  0
 17 19  1  0  0  0  0
 19 20  1  0  0  0  0
 21 22  2  0  0  0  0
 21 23  1  0  0  0  0
 23 24  1  0  0  0  0
 23 25  1  0  0  0  0
 25 26  1  0  0  0  0
 25 27  1  0  0  0  0
 25 28  1  0  0  0  0
M  END
$$$$

  -OEChem-01062216073D

 28 27  0     1  0  0  0  0  0999 V2000
   -2.9942   -2.8768    1.4456 H   0  0  0  0  0  0  0  0  0  0  0  0
   -3.0725   -1.8607    1.0491 C   0  0  0  0  0  0  0  0  0  0  0  0
   -3.5019   -1.2155    1.8195 H   0  0  0  0  0  0  0  0  0  0  0  0
   -3.7326   -1.8705    0.1787 H   0  0  0  0  0  0  0  0  0  0  0  0
   -1.7006   -1.3479    0.6558 C   0  0  0  0  0  0  0  0  0  0  0  0
   -0.7174   -2.0634    0.7774 O   0  0  0  0  0  0  0  0  0  0  0  0
   -1.5641   -0.0798    0.1251 N   0  0  0  0  0  0  0  0  0  0  0  0
   -2.3943    0.4970    0.2229 H   0  0  0  0  0  0  0  0  0  0  0  0
   -0.2730    0.6231    0.2197 C   0  0  1  0  0  0  0  0  0  0  0  0
    0.4969    0.0224   -0.2762 H   0  0  0  0  0  0  0  0  0  0  0  0
   -0.3983    1.9741   -0.5050 C   0  0  0  0  0  0  0  0  0  0  0  0
   -1.2429    2.5323   -0.0852 H   0  0  0  0  0  0  0  0  0  0  0  0
    0.5049    2.5690   -0.3300 H   0  0  0  0  0  0  0  0  0  0  0  0
   -0.5872    1.7924   -2.0269 C   0  0  0  0  0  0  0  0  0  0  0  0
    0.2729    1.2555   -2.4367 H   0  0  0  0  0  0  0  0  0  0  0  0
   -1.4769    1.1874   -2.2210 H   0  0  0  0  0  0  0  0  0  0  0  0
   -0.7409    3.1064   -2.7938 C   0  0  0  0  0  0  0  0  0  0  0  0
   -0.8360    4.1598   -2.1857 O   0  0  0  0  0  0  0  0  0  0  0  0
   -0.7669    3.0219   -4.1431 O   0  0  0  0  0  0  0  0  0  0  0  0
   -0.8730    3.9303   -4.4645 H   0  0  0  0  0  0  0  0  0  0  0  0
    0.1880    0.8465    1.6827 C   0  0  0  0  0  0  0  0  0  0  0  0
   -0.6345    0.8876    2.5915 O   0  0  0  0  0  0  0  0  0  0  0  0
    1.4974    1.2007    1.9554 N   0  0  0  0  0  0  0  0  0  0  0  0
    2.1717    1.1126    1.2015 H   0  0  0  0  0  0  0  0  0  0  0  0
    1.9847    1.4540    3.3065 C   0  0  0  0  0  0  0  0  0  0  0  0
    1.8493    0.5673    3.9349 H   0  0  0  0  0  0  0  0  0  0  0  0
    3.0498    1.7038    3.2850 H   0  0  0  0  0  0  0  0  0  0  0  0
    1.4433    2.2918    3.7586 H   0  0  0  0  0  0  0  0  0  0  0  0
  1  2  1  0  0  0  0
  2  3  1  0  0  0  0
  2  4  1  0  0  0  0
  2  5  1  0  0  0  0
  5  6  2  0  0  0  0
  5  7  1  0  0  0  0
  7  8  1  0  0  0  0
  7  9  1  0  0  0  0
  9 10  1  0  0  0  0
  9 11  1  0  0  0  0
  9 21  1  0  0  0  0
 11 12  1  0  0  0  0
 11 13  1  0  0  0  0
 11 14  1  0  0  0  0
 14 15  1  0  0  0  0
 14 16  1  0  0  0  0
 14 17  1  0  0  0  0
 17 18  2  0  0  0  0
 17 19  1  0  0  0  0
 19 20  1  0  0  0  0
 21 22  2  0  0  0  0
 21 23  1  0  0  0  0
 23 24  1  0  0  0  0
 23 25  1  0  0  0  0
 25 26  1  0  0  0  0
 25 27  1  0  0  0  0
 25 28  1  0  0  0  0
M  END
$$$$

  -OEChem-01062216073D

 28 27  0     1  0  0  0  0  0999 V2000
   -3.0434   -2.9051    1.3221 H   0  0  0  0  0  0  0  0  0  0  0  0
   -3.0958   -1.8599    1.0047 C   0  0  0  0  0  0  0  0  0  0  0  0
   -3.4609   -1.2576    1.8401 H   0  0  0  0  0  0  0  0  0  0  0  0
   -3.7943   -1.7788    0.1688 H   0  0  0  0  0  0  0  0  0  0  0  0
   -1.7220   -1.3749    0.5841 C   0  0  0  0  0  0  0  0  0  0  0  0
   -0.7757   -2.1475    0.5598 O   0  0  0  0  0  0  0  0  0  0  0  0
   -1.5575   -0.0891    0.1042 N   0  0  0  0  0  0  0  0  0  0  0  0
   -2.3833    0.4892    0.2205 H   0  0  0  0  0  0  0  0  0  0  0  0
   -0.2650    0.6098    0.2476 C   0  0  1  0  0  0  0  0  0  0  0  0
    0.4423    0.1678   -0.4618 H   0  0  0  0  0  0  0  0  0  0  0  0
   -0.4971    2.0881   -0.1235 C   0  0  0  0  0  0  0  0  0  0  0  0
   -1.3045    2.4935    0.4973 H   0  0  0  0  0  0  0  0  0  0  0  0
    0.4033    2.6728    0.0931 H   0  0  0  0  0  0  0  0  0  0  0  0
   -0.8385    2.2580   -1.6209 C   0  0  0  0  0  0  0  0  0  0  0  0
   -0.0120    1.8740   -2.2252 H   0  0  0  0  0  0  0  0  0  0  0  0
   -1.7282    1.6739   -1.8699 H   0  0  0  0  0  0  0  0  0  0  0  0
   -1.1018    3.7059   -2.0375 C   0  0  0  0  0  0  0  0  0  0  0  0
   -1.1580    4.5825   -1.1908 O   0  0  0  0  0  0  0  0  0  0  0  0
   -1.2662    3.9372   -3.3596 O   0  0  0  0  0  0  0  0  0  0  0  0
   -1.4261    4.8896   -3.4462 H   0  0  0  0  0  0  0  0  0  0  0  0
    0.4000    0.5038    1.6515 C   0  0  0  0  0  0  0  0  0  0  0  0
   -0.2538    0.1683    2.6332 O   0  0  0  0  0  0  0  0  0  0  0  0
    1.6179    1.1209    1.8847 N   0  0  0  0  0  0  0  0  0  0  0  0
    2.1547    1.4169    1.0756 H   0  0  0  0  0  0  0  0  0  0  0  0
    2.2419    1.1866    3.2019 C   0  0  0  0  0  0  0  0  0  0  0  0
    2.3859    0.1797    3.6085 H   0  0  0  0  0  0  0  0  0  0  0  0
    3.2189    1.6751    3.1346 H   0  0  0  0  0  0  0  0  0  0  0  0
    1.6163    1.7598    3.8944 H   0  0  0  0  0  0  0  0  0  0  0  0
  1  2  1  0  0  0  0
  2  3  1  0  0  0  0
  2  4  1  0  0  0  0
  2  5  1  0  0  0  0
  5  6  2  0  0  0  0
  5  7  1  0  0  0  0
  7  8  1  0  0  0  0
  7  9  1  0  0  0  0
  9 10  1  0  0  0  0
  9 11  1  0  0  0  0
  9 21  1  0  0  0  0
 11 12  1  0  0  0  0
 11 13  1  0  0  0  0
 11 14  1  0  0  0  0
 14 15  1  0  0  0  0
 14 16  1  0  0  0  0
 14 17  1  0  0  0  0
 17 18  2  0  0  0  0
 17 19  1  0  0  0  0
 19 20  1  0  0  0  0
 21 22  2  0  0  0  0
 21 23  1  0  0  0  0
 23 24  1  0  0  0  0
 23 25  1  0  0  0  0
 25 26  1  0  0  0  0
 25 27  1  0  0  0  0
 25 28  1  0  0  0  0
M  END
$$$$

  -OEChem-01062216073D

 28 27  0     1  0  0  0  0  0999 V2000
   -3.0463   -2.9017    1.3022 H   0  0  0  0  0  0  0  0  0  0  0  0
   -3.0889   -1.8452    1.0230 C   0  0  0  0  0  0  0  0  0  0  0  0
   -3.4053   -1.2653    1.8935 H   0  0  0  0  0  0  0  0  0  0  0  0
   -3.8199   -1.7203    0.2209 H   0  0  0  0  0  0  0  0  0  0  0  0
   -1.7234   -1.3741    0.5612 C   0  0  0  0  0  0  0  0  0  0  0  0
   -0.7987   -2.1660    0.4605 O   0  0  0  0  0  0  0  0  0  0  0  0
   -1.5527   -0.0811    0.1028 N   0  0  0  0  0  0  0  0  0  0  0  0
   -2.3757    0.4966    0.2376 H   0  0  0  0  0  0  0  0  0  0  0  0
   -0.2595    0.6177    0.2557 C   0  0  1  0  0  0  0  0  0  0  0  0
    0.4479    0.1792   -0.4559 H   0  0  0  0  0  0  0  0  0  0  0  0
   -0.5050    2.0930   -0.1290 C   0  0  0  0  0  0  0  0  0  0  0  0
   -1.3193    2.4950    0.4846 H   0  0  0  0  0  0  0  0  0  0  0  0
    0.3857    2.6932    0.0801 H   0  0  0  0  0  0  0  0  0  0  0  0
   -0.8381    2.2505   -1.6297 C   0  0  0  0  0  0  0  0  0  0  0  0
   -0.0044    1.8710   -2.2271 H   0  0  0  0  0  0  0  0  0  0  0  0
   -1.7211    1.6571   -1.8814 H   0  0  0  0  0  0  0  0  0  0  0  0
   -1.1126    3.6941   -2.0540 C   0  0  0  0  0  0  0  0  0  0  0  0
   -1.1825    4.5728   -1.2105 O   0  0  0  0  0  0  0  0  0  0  0  0
   -1.2665    3.9199   -3.3782 O   0  0  0  0  0  0  0  0  0  0  0  0
   -1.4326    4.8706   -3.4703 H   0  0  0  0  0  0  0  0  0  0  0  0
    0.4237    0.5044    1.6563 C   0  0  0  0  0  0  0  0  0  0  0  0
   -0.1229   -0.0681    2.5918 O   0  0  0  0  0  0  0  0  0  0  0  0
    1.4633    1.3580    1.9907 N   0  0  0  0  0  0  0  0  0  0  0  0
    1.9039    1.8766    1.2376 H   0  0  0  0  0  0  0  0  0  0  0  0
    2.0396    1.4430    3.3288 C   0  0  0  0  0  0  0  0  0  0  0  0
    2.4108    0.4636    3.6492 H   0  0  0  0  0  0  0  0  0  0  0  0
    2.8758    2.1488    3.3370 H   0  0  0  0  0  0  0  0  0  0  0  0
    1.2896    1.7882    4.0483 H   0  0  0  0  0  0  0  0  0  0  0  0
  1  2  1  0  0  0  0
  2  3  1  0  0  0  0
  2  4  1  0  0  0  0
  2  5  1  0  0  0  0
  5  6  2  0  0  0  0
  5  7  1  0  0  0  0
  7  8  1  0  0  0  0
  7  9  1  0  0  0  0
  9 10  1  0  0  0  0
  9 11  1  0  0  0  0
  9 21  1  0  0  0  0
 11 12  1  0  0  0  0
 11 13  1  0  0  0  0
 11 14  1  0  0  0  0
 14 15  1  0  0  0  0
 14 16  1  0  0  0  0
 14 17  1  0  0  0  0
 17 18  2  0  0  0  0
 17 19  1  0  0  0  0
 19 20  1  0  0  0  0
 21 22  2  0  0  0  0
 21 23  1  0  0  0  0
 23 24  1  0  0  0  0
 23 25  1  0  0  0  0
 25 26  1  0  0  0  0
 25 27  1  0  0  0  0
 25 28  1  0  0  0  0
M  END
$$$$

  -OEChem-01062216073D

 28 27  0     1  0  0  0  0  0999 V2000
   -3.0333   -2.8859    1.3125 H   0  0  0  0  0  0  0  0  0  0  0  0
   -3.0746   -1.8257    1.0479 C   0  0  0  0  0  0  0  0  0  0  0  0
   -3.3540   -1.2543    1.9364 H   0  0  0  0  0  0  0  0  0  0  0  0
   -3.8322   -1.6835    0.2740 H   0  0  0  0  0  0  0  0  0  0  0  0
   -1.7209   -1.3634    0.5445 C   0  0  0  0  0  0  0  0  0  0  0  0
   -0.8240   -2.1708    0.3601 O   0  0  0  0  0  0  0  0  0  0  0  0
   -1.5484   -0.0635    0.1082 N   0  0  0  0  0  0  0  0  0  0  0  0
   -2.3743    0.5077    0.2509 H   0  0  0  0  0  0  0  0  0  0  0  0
   -0.2617    0.6478    0.2706 C   0  0  1  0  0  0  0  0  0  0  0  0
    0.4513    0.2128   -0.4378 H   0  0  0  0  0  0  0  0  0  0  0  0
   -0.5210    2.1152   -0.1394 C   0  0  0  0  0  0  0  0  0  0  0  0
   -1.3451    2.5195    0.4596 H   0  0  0  0  0  0  0  0  0  0  0  0
    0.3624    2.7283    0.0609 H   0  0  0  0  0  0  0  0  0  0  0  0
   -0.8366    2.2449   -1.6468 C   0  0  0  0  0  0  0  0  0  0  0  0
    0.0092    1.8667   -2.2279 H   0  0  0  0  0  0  0  0  0  0  0  0
   -1.7087    1.6367   -1.9014 H   0  0  0  0  0  0  0  0  0  0  0  0
   -1.1237    3.6784   -2.0956 C   0  0  0  0  0  0  0  0  0  0  0  0
   -1.2153    4.5675   -1.2649 O   0  0  0  0  0  0  0  0  0  0  0  0
   -1.2694    3.8831   -3.4240 O   0  0  0  0  0  0  0  0  0  0  0  0
   -1.4495    4.8296   -3.5319 H   0  0  0  0  0  0  0  0  0  0  0  0
    0.4347    0.5334    1.6694 C   0  0  0  0  0  0  0  0  0  0  0  0
    0.0931   -0.2922    2.5056 O   0  0  0  0  0  0  0  0  0  0  0  0
    1.2361    1.5615    2.1433 N   0  0  0  0  0  0  0  0  0  0  0  0
    1.5049    2.2880    1.4881 H   0  0  0  0  0  0  0  0  0  0  0  0
    1.7917    1.5995    3.4927 C   0  0  0  0  0  0  0  0  0  0  0  0
    2.4043    0.7111    3.6803 H   0  0  0  0  0  0  0  0  0  0  0  0
    2.4209    2.4856    3.6188 H   0  0  0  0  0  0  0  0  0  0  0  0
    0.9891    1.6375    4.2372 H   0  0  0  0  0  0  0  0  0  0  0  0
  1  2  1  0  0  0  0
  2  3  1  0  0  0  0
  2  4  1  0  0  0  0
  2  5  1  0  0  0  0
  5  6  2  0  0  0  0
  5  7  1  0  0  0  0
  7  8  1  0  0  0  0
  7  9  1  0  0  0  0
  9 10  1  0  0  0  0
  9 11  1  0  0  0  0
  9 21  1  0  0  0  0
 11 12  1  0  0  0  0
 11 13  1  0  0  0  0
 11 14  1  0  0  0  0
 14 15  1  0  0  0  0
 14 16  1  0  0  0  0
 14 17  1  0  0  0  0
 17 18  2  0  0  0  0
 17 19  1  0  0  0  0
 19 20  1  0  0  0  0
 21 22  2  0  0  0  0
 21 23  1  0  0  0  0
 23 24  1  0  0  0  0
 23 25  1  0  0  0  0
 25 26  1  0  0  0  0
 25 27  1  0  0  0  0
 25 28  1  0  0  0  0
M  END
$$$$

  -OEChem-01062216073D

 28 27  0     1  0  0  0  0  0999 V2000
   -3.0251   -2.8749    1.3402 H   0  0  0  0  0  0  0  0  0  0  0  0
   -3.0702   -1.8173    1.0653 C   0  0  0  0  0  0  0  0  0  0  0  0
   -3.3470   -1.2381    1.9493 H   0  0  0  0  0  0  0  0  0  0  0  0
   -3.8315   -1.6845    0.2932 H   0  0  0  0  0  0  0  0  0  0  0  0
   -1.7194   -1.3583    0.5499 C   0  0  0  0  0  0  0  0  0  0  0  0
   -0.8445   -2.1761    0.3196 O   0  0  0  0  0  0  0  0  0  0  0  0
   -1.5490   -0.0558    0.1209 N   0  0  0  0  0  0  0  0  0  0  0  0
   -2.3823    0.5076    0.2518 H   0  0  0  0  0  0  0  0  0  0  0  0
   -0.2736    0.6753    0.2862 C   0  0  1  0  0  0  0  0  0  0  0  0
    0.4483    0.2386   -0.4128 H   0  0  0  0  0  0  0  0  0  0  0  0
   -0.5338    2.1351   -0.1469 C   0  0  0  0  0  0  0  0  0  0  0  0
   -1.3652    2.5473    0.4363 H   0  0  0  0  0  0  0  0  0  0  0  0
    0.3506    2.7483    0.0518 H   0  0  0  0  0  0  0  0  0  0  0  0
   -0.8302    2.2432   -1.6595 C   0  0  0  0  0  0  0  0  0  0  0  0
    0.0258    1.8622   -2.2239 H   0  0  0  0  0  0  0  0  0  0  0  0
   -1.6952    1.6265   -1.9175 H   0  0  0  0  0  0  0  0  0  0  0  0
   -1.1177    3.6699   -2.1303 C   0  0  0  0  0  0  0  0  0  0  0  0
   -1.2236    4.5683   -1.3108 O   0  0  0  0  0  0  0  0  0  0  0  0
   -1.2478    3.8580   -3.4630 O   0  0  0  0  0  0  0  0  0  0  0  0
   -1.4272    4.8027   -3.5861 H   0  0  0  0  0  0  0  0  0  0  0  0
    0.4202    0.5692    1.6863 C   0  0  0  0  0  0  0  0  0  0  0  0
    0.3968   -0.4482    2.3620 O   0  0  0  0  0  0  0  0  0  0  0  0
    0.9395    1.6942    2.3101 N   0  0  0  0  0  0  0  0  0  0  0  0
    0.9244    2.5687    1.7961 H   0  0  0  0  0  0  0  0  0  0  0  0
    1.5108    1.6838    3.6534 C   0  0  0  0  0  0  0  0  0  0  0  0
    2.3485    0.9803    3.7085 H   0  0  0  0  0  0  0  0  0  0  0  0
    1.8792    2.6799    3.9163 H   0  0  0  0  0  0  0  0  0  0  0  0
    0.7551    1.3895    4.3895 H   0  0  0  0  0  0  0  0  0  0  0  0
  1  2  1  0  0  0  0
  2  3  1  0  0  0  0
  2  4  1  0  0  0  0
  2  5  1  0  0  0  0
  5  6  2  0  0  0  0
  5  7  1  0  0  0  0
  7  8  1  0  0  0  0
  7  9  1  0  0  0  0
  9 10  1  0  0  0  0
  9 11  1  0  0  0  0
  9 21  1  0  0  0  0
 11 12  1  0  0  0  0
 11 13  1  0  0  0  0
 11 14  1  0  0  0  0
 14 15  1  0  0  0  0
 14 16  1  0  0  0  0
 14 17  1  0  0  0  0
 17 18  2  0  0  0  0
 17 19  1  0  0  0  0
 19 20  1  0  0  0  0
 21 22  2  0  0  0  0
 21 23  1  0  0  0  0
 23 24  1  0  0  0  0
 23 25  1  0  0  0  0
 25 26  1  0  0  0  0
 25 27  1  0  0  0  0
 25 28  1  0  0  0  0
M  END
$$$$

  -OEChem-01062216073D

 28 27  0     1  0  0  0  0  0999 V2000
   -3.0780   -2.8637    1.3399 H   0  0  0  0  0  0  0  0  0  0  0  0
   -3.1141   -1.8188    1.0185 C   0  0  0  0  0  0  0  0  0  0  0  0
   -3.4626   -1.2082    1.8546 H   0  0  0  0  0  0  0  0  0  0  0  0
   -3.8184   -1.7287    0.1881 H   0  0  0  0  0  0  0  0  0  0  0  0
   -1.7349   -1.3616    0.5829 C   0  0  0  0  0  0  0  0  0  0  0  0
   -0.8462   -2.1809    0.4374 O   0  0  0  0  0  0  0  0  0  0  0  0
   -1.5527   -0.0634    0.1462 N   0  0  0  0  0  0  0  0  0  0  0  0
   -2.3956    0.4971    0.2089 H   0  0  0  0  0  0  0  0  0  0  0  0
   -0.2866    0.6820    0.3110 C   0  0  1  0  0  0  0  0  0  0  0  0
    0.4456    0.2425   -0.3758 H   0  0  0  0  0  0  0  0  0  0  0  0
   -0.5396    2.1378   -0.1329 C   0  0  0  0  0  0  0  0  0  0  0  0
   -1.3777    2.5545    0.4369 H   0  0  0  0  0  0  0  0  0  0  0  0
    0.3474    2.7455    0.0777 H   0  0  0  0  0  0  0  0  0  0  0  0
   -0.8219    2.2382   -1.6478 C   0  0  0  0  0  0  0  0  0  0  0  0
    0.0390    1.8531   -2.2021 H   0  0  0  0  0  0  0  0  0  0  0  0
   -1.6854    1.6214   -1.9103 H   0  0  0  0  0  0  0  0  0  0  0  0
   -1.1019    3.6631   -2.1275 C   0  0  0  0  0  0  0  0  0  0  0  0
   -1.2133    4.5654   -1.3128 O   0  0  0  0  0  0  0  0  0  0  0  0
   -1.2175    3.8459   -3.4621 O   0  0  0  0  0  0  0  0  0  0  0  0
   -1.3883    4.7914   -3.5911 H   0  0  0  0  0  0  0  0  0  0  0  0
    0.3878    0.5916    1.7163 C   0  0  0  0  0  0  0  0  0  0  0  0
    0.7515   -0.4657    2.2045 O   0  0  0  0  0  0  0  0  0  0  0  0
    0.6068    1.7326    2.4736 N   0  0  0  0  0  0  0  0  0  0  0  0
    0.3119    2.6218    2.0834 H   0  0  0  0  0  0  0  0  0  0  0  0
    1.2405    1.7188    3.7880 C   0  0  0  0  0  0  0  0  0  0  0  0
    2.2634    1.3341    3.7164 H   0  0  0  0  0  0  0  0  0  0  0  0
    1.2802    2.7316    4.2001 H   0  0  0  0  0  0  0  0  0  0  0  0
    0.6744    1.0865    4.4803 H   0  0  0  0  0  0  0  0  0  0  0  0
  1  2  1  0  0  0  0
  2  3  1  0  0  0  0
  2  4  1  0  0  0  0
  2  5  1  0  0  0  0
  5  6  2  0  0  0  0
  5  7  1  0  0  0  0
  7  8  1  0  0  0  0
  7  9  1  0  0  0  0
  9 10  1  0  0  0  0
  9 11  1  0  0  0  0
  9 21  1  0  0  0  0
 11 12  1  0  0  0  0
 11 13  1  0  0  0  0
 11 14  1  0  0  0  0
 14 15  1  0  0  0  0
 14 16  1  0  0  0  0
 14 17  1  0  0  0  0
 17 18  2  0  0  0  0
 17 19  1  0  0  0  0
 19 20  1  0  0  0  0
 21 22  2  0  0  0  0
 21 23  1  0  0  0  0
 23 24  1  0  0  0  0
 23 25  1  0  0  0  0
 25 26  1  0  0  0  0
 25 27  1  0  0  0  0
 25 28  1  0  0  0  0
M  END
$$$$

  -OEChem-01062216073D

 28 27  0     1  0  0  0  0  0999 V2000
   -3.3091   -2.8787    1.1221 H   0  0  0  0  0  0  0  0  0  0  0  0
   -3.2665   -1.8651    0.7131 C   0  0  0  0  0  0  0  0  0  0  0  0
   -3.9027   -1.2161    1.3195 H   0  0  0  0  0  0  0  0  0  0  0  0
   -3.6443   -1.8835   -0.3118 H   0  0  0  0  0  0  0  0  0  0  0  0
   -1.8370   -1.3565    0.7292 C   0  0  0  0  0  0  0  0  0  0  0  0
   -0.9460   -2.1044    1.0782 O   0  0  0  0  0  0  0  0  0  0  0  0
   -1.5757   -0.0776    0.2750 N   0  0  0  0  0  0  0  0  0  0  0  0
   -2.3923    0.4552   -0.0047 H   0  0  0  0  0  0  0  0  0  0  0  0
   -0.2993    0.6578    0.4016 C   0  0  1  0  0  0  0  0  0  0  0  0
    0.4165    0.1974   -0.2889 H   0  0  0  0  0  0  0  0  0  0  0  0
   -0.5396    2.1102   -0.0568 C   0  0  0  0  0  0  0  0  0  0  0  0
   -1.3629    2.5450    0.5208 H   0  0  0  0  0  0  0  0  0  0  0  0
    0.3601    2.7047    0.1414 H   0  0  0  0  0  0  0  0  0  0  0  0
   -0.8501    2.2003   -1.5671 C   0  0  0  0  0  0  0  0  0  0  0  0
   -0.0045    1.7987   -2.1331 H   0  0  0  0  0  0  0  0  0  0  0  0
   -1.7268    1.5945   -1.8088 H   0  0  0  0  0  0  0  0  0  0  0  0
   -1.1181    3.6252   -2.0547 C   0  0  0  0  0  0  0  0  0  0  0  0
   -1.2000    4.5372   -1.2478 O   0  0  0  0  0  0  0  0  0  0  0  0
   -1.2648    3.7950   -3.3878 O   0  0  0  0  0  0  0  0  0  0  0  0
   -1.4204    4.7425   -3.5228 H   0  0  0  0  0  0  0  0  0  0  0  0
    0.3941    0.6002    1.7939 C   0  0  0  0  0  0  0  0  0  0  0  0
    1.2103   -0.2716    2.0503 O   0  0  0  0  0  0  0  0  0  0  0  0
    0.3585    1.6925    2.6474 N   0  0  0  0  0  0  0  0  0  0  0  0
   -0.2676    2.4547    2.4098 H   0  0  0  0  0  0  0  0  0  0  0  0
    1.1270    1.7715    3.8850 C   0  0  0  0  0  0  0  0  0  0  0  0
    2.2007    1.7325    3.6728 H   0  0  0  0  0  0  0  0  0  0  0  0
    0.9117    2.7093    4.4060 H   0  0  0  0  0  0  0  0  0  0  0  0
    0.8696    0.9395    4.5492 H   0  0  0  0  0  0  0  0  0  0  0  0
  1  2  1  0  0  0  0
  2  3  1  0  0  0  0
  2  4  1  0  0  0  0
  2  5  1  0  0  0  0
  5  6  2  0  0  0  0
  5  7  1  0  0  0  0
  7  8  1  0  0  0  0
  7  9  1  0  0  0  0
  9 10  1  0  0  0  0
  9 11  1  0  0  0  0
  9 21  1  0  0  0  0
 11 12  1  0  0  0  0
 11 13  1  0  0  0  0
 11 14  1  0  0  0  0
 14 15  1  0  0  0  0
 14 16  1  0  0  0  0
 14 17  1  0  0  0  0
 17 18  2  0  0  0  0
 17 19  1  0  0  0  0
 19 20  1  0  0  0  0
 21 22  2  0  0  0  0
 21 23  1  0  0  0  0
 23 24  1  0  0  0  0
 23 25  1  0  0  0  0
 25 26  1  0  0  0  0
 25 27  1  0  0  0  0
 25 28  1  0  0  0  0
M  END
$$$$

  -OEChem-01062216073D

 28 27  0     1  0  0  0  0  0999 V2000
   -3.3231   -2.9163    1.0373 H   0  0  0  0  0  0  0  0  0  0  0  0
   -3.2767   -1.9037    0.6258 C   0  0  0  0  0  0  0  0  0  0  0  0
   -4.0067   -1.2794    1.1460 H   0  0  0  0  0  0  0  0  0  0  0  0
   -3.5304   -1.9453   -0.4361 H   0  0  0  0  0  0  0  0  0  0  0  0
   -1.8832   -1.3315    0.8059 C   0  0  0  0  0  0  0  0  0  0  0  0
   -1.0322   -2.0000    1.3588 O   0  0  0  0  0  0  0  0  0  0  0  0
   -1.6093   -0.0654    0.3238 N   0  0  0  0  0  0  0  0  0  0  0  0
   -2.3750    0.4021   -0.1496 H   0  0  0  0  0  0  0  0  0  0  0  0
   -0.3181    0.6474    0.4139 C   0  0  1  0  0  0  0  0  0  0  0  0
    0.3741    0.1684   -0.2878 H   0  0  0  0  0  0  0  0  0  0  0  0
   -0.5299    2.1045   -0.0398 C   0  0  0  0  0  0  0  0  0  0  0  0
   -1.3298    2.5605    0.5538 H   0  0  0  0  0  0  0  0  0  0  0  0
    0.3883    2.6748    0.1454 H   0  0  0  0  0  0  0  0  0  0  0  0
   -0.8733    2.2017   -1.5422 C   0  0  0  0  0  0  0  0  0  0  0  0
   -0.0520    1.7771   -2.1267 H   0  0  0  0  0  0  0  0  0  0  0  0
   -1.7714    1.6201   -1.7624 H   0  0  0  0  0  0  0  0  0  0  0  0
   -1.1145    3.6321   -2.0272 C   0  0  0  0  0  0  0  0  0  0  0  0
   -1.1537    4.5488   -1.2229 O   0  0  0  0  0  0  0  0  0  0  0  0
   -1.2877    3.8006   -3.3573 O   0  0  0  0  0  0  0  0  0  0  0  0
   -1.4170    4.7520   -3.4924 H   0  0  0  0  0  0  0  0  0  0  0  0
    0.3952    0.5950    1.7919 C   0  0  0  0  0  0  0  0  0  0  0  0
    1.3979   -0.0915    1.9309 O   0  0  0  0  0  0  0  0  0  0  0  0
    0.1432    1.5611    2.7524 N   0  0  0  0  0  0  0  0  0  0  0  0
   -0.6749    2.1462    2.6212 H   0  0  0  0  0  0  0  0  0  0  0  0
    0.8848    1.6550    4.0046 C   0  0  0  0  0  0  0  0  0  0  0  0
    1.9445    1.8499    3.8086 H   0  0  0  0  0  0  0  0  0  0  0  0
    0.4919    2.4715    4.6180 H   0  0  0  0  0  0  0  0  0  0  0  0
    0.7977    0.7221    4.5717 H   0  0  0  0  0  0  0  0  0  0  0  0
  1  2  1  0  0  0  0
  2  3  1  0  0  0  0
  2  4  1  0  0  0  0
  2  5  1  0  0  0  0
  5  6  2  0  0  0  0
  5  7  1  0  0  0  0
  7  8  1  0  0  0  0
  7  9  1  0  0  0  0
  9 10  1  0  0  0  0
  9 11  1  0  0  0  0
  9 21  1  0  0  0  0
 11 12  1  0  0  0  0
 11 13  1  0  0  0  0
 11 14  1  0  0  0  0
 14 15  1  0  0  0  0
 14 16  1  0  0  0  0
 14 17  1  0  0  0  0
 17 18  2  0  0  0  0
 17 19  1  0  0  0  0
 19 20  1  0  0  0  0
 21 22  2  0  0  0  0
 21 23  1  0  0  0  0
 23 24  1  0  0  0  0
 23 25  1  0  0  0  0
 25 26  1  0  0  0  0
 25 27  1  0  0  0  0
 25 28  1  0  0  0  0
M  END
$$$$

  -OEChem-01062216073D

 28 27  0     1  0  0  0  0  0999 V2000
   -3.3134   -2.9253    1.0380 H   0  0  0  0  0  0  0  0  0  0  0  0
   -3.2693   -1.9193    0.6106 C   0  0  0  0  0  0  0  0  0  0  0  0
   -4.0311   -1.3004    1.0902 H   0  0  0  0  0  0  0  0  0  0  0  0
   -3.4803   -1.9837   -0.4595 H   0  0  0  0  0  0  0  0  0  0  0  0
   -1.8947   -1.3171    0.8335 C   0  0  0  0  0  0  0  0  0  0  0  0
   -1.0560   -1.9498    1.4458 O   0  0  0  0  0  0  0  0  0  0  0  0
   -1.6212   -0.0582    0.3328 N   0  0  0  0  0  0  0  0  0  0  0  0
   -2.3634    0.3760   -0.2059 H   0  0  0  0  0  0  0  0  0  0  0  0
   -0.3219    0.6415    0.4036 C   0  0  1  0  0  0  0  0  0  0  0  0
    0.3583    0.1539   -0.3037 H   0  0  0  0  0  0  0  0  0  0  0  0
   -0.5180    2.1027   -0.0404 C   0  0  0  0  0  0  0  0  0  0  0  0
   -1.3004    2.5693    0.5682 H   0  0  0  0  0  0  0  0  0  0  0  0
    0.4115    2.6577    0.1352 H   0  0  0  0  0  0  0  0  0  0  0  0
   -0.8823    2.2102   -1.5372 C   0  0  0  0  0  0  0  0  0  0  0  0
   -0.0754    1.7756   -2.1344 H   0  0  0  0  0  0  0  0  0  0  0  0
   -1.7918    1.6423   -1.7459 H   0  0  0  0  0  0  0  0  0  0  0  0
   -1.1098    3.6450   -2.0162 C   0  0  0  0  0  0  0  0  0  0  0  0
   -1.1239    4.5614   -1.2111 O   0  0  0  0  0  0  0  0  0  0  0  0
   -1.3038    3.8168   -3.3432 O   0  0  0  0  0  0  0  0  0  0  0  0
   -1.4215    4.7703   -3.4747 H   0  0  0  0  0  0  0  0  0  0  0  0
    0.3994    0.5928    1.7743 C   0  0  0  0  0  0  0  0  0  0  0  0
    1.5222    0.1120    1.8480 O   0  0  0  0  0  0  0  0  0  0  0  0
   -0.0514    1.3695    2.8280 N   0  0  0  0  0  0  0  0  0  0  0  0
   -0.9982    1.7275    2.7603 H   0  0  0  0  0  0  0  0  0  0  0  0
    0.6354    1.4347    4.1125 C   0  0  0  0  0  0  0  0  0  0  0  0
    1.6515    1.8230    3.9848 H   0  0  0  0  0  0  0  0  0  0  0  0
    0.0977    2.0977    4.7968 H   0  0  0  0  0  0  0  0  0  0  0  0
    0.6936    0.4393    4.5656 H   0  0  0  0  0  0  0  0  0  0  0  0
  1  2  1  0  0  0  0
  2  3  1  0  0  0  0
  2  4  1  0  0  0  0
  2  5  1  0  0  0  0
  5  6  2  0  0  0  0
  5  7  1  0  0  0  0
  7  8  1  0  0  0  0
  7  9  1  0  0  0  0
  9 10  1  0  0  0  0
  9 11  1  0  0  0  0
  9 21  1  0  0  0  0
 11 12  1  0  0  0  0
 11 13  1  0  0  0  0
 11 14  1  0  0  0  0
 14 15  1  0  0  0  0
 14 16  1  0  0  0  0
 14 17  1  0  0  0  0
 17 18  2  0  0  0  0
 17 19  1  0  0  0  0
 19 20  1  0  0  0  0
 21 22  2  0  0  0  0
 21 23  1  0  0  0  0
 23 24  1  0  0  0  0
 23 25  1  0  0  0  0
 25 26  1  0  0  0  0
 25 27  1  0  0  0  0
 25 28  1  0  0  0  0
M  END
$$$$

  -OEChem-01062216073D

 28 27  0     1  0  0  0  0  0999 V2000
   -3.3115   -2.9265    1.0448 H   0  0  0  0  0  0  0  0  0  0  0  0
   -3.2681   -1.9254    0.6059 C   0  0  0  0  0  0  0  0  0  0  0  0
   -4.0426   -1.3065    1.0650 H   0  0  0  0  0  0  0  0  0  0  0  0
   -3.4612   -2.0044   -0.4666 H   0  0  0  0  0  0  0  0  0  0  0  0
   -1.9018   -1.3101    0.8436 C   0  0  0  0  0  0  0  0  0  0  0  0
   -1.0688   -1.9258    1.4816 O   0  0  0  0  0  0  0  0  0  0  0  0
   -1.6254   -0.0571    0.3301 N   0  0  0  0  0  0  0  0  0  0  0  0
   -2.3552    0.3619   -0.2373 H   0  0  0  0  0  0  0  0  0  0  0  0
   -0.3205    0.6343    0.3925 C   0  0  1  0  0  0  0  0  0  0  0  0
    0.3552    0.1430   -0.3167 H   0  0  0  0  0  0  0  0  0  0  0  0
   -0.5096    2.0986   -0.0416 C   0  0  0  0  0  0  0  0  0  0  0  0
   -1.2818    2.5670    0.5787 H   0  0  0  0  0  0  0  0  0  0  0  0
    0.4253    2.6459    0.1293 H   0  0  0  0  0  0  0  0  0  0  0  0
   -0.8865    2.2161   -1.5346 C   0  0  0  0  0  0  0  0  0  0  0  0
   -0.0879    1.7782   -2.1406 H   0  0  0  0  0  0  0  0  0  0  0  0
   -1.8019    1.6562   -1.7379 H   0  0  0  0  0  0  0  0  0  0  0  0
   -1.1081    3.6542   -2.0054 C   0  0  0  0  0  0  0  0  0  0  0  0
   -1.1090    4.5682   -1.1977 O   0  0  0  0  0  0  0  0  0  0  0  0
   -1.3115    3.8318   -3.3300 O   0  0  0  0  0  0  0  0  0  0  0  0
   -1.4218    4.7868   -3.4566 H   0  0  0  0  0  0  0  0  0  0  0  0
    0.4031    0.5928    1.7600 C   0  0  0  0  0  0  0  0  0  0  0  0
    1.6006    0.3430    1.7992 O   0  0  0  0  0  0  0  0  0  0  0  0
   -0.2044    1.1276    2.8819 N   0  0  0  0  0  0  0  0  0  0  0  0
   -1.2111    1.2424    2.8344 H   0  0  0  0  0  0  0  0  0  0  0  0
    0.4419    1.1514    4.1881 C   0  0  0  0  0  0  0  0  0  0  0  0
    1.3723    1.7276    4.1457 H   0  0  0  0  0  0  0  0  0  0  0  0
   -0.2163    1.6165    4.9279 H   0  0  0  0  0  0  0  0  0  0  0  0
    0.6728    0.1330    4.5186 H   0  0  0  0  0  0  0  0  0  0  0  0
  1  2  1  0  0  0  0
  2  3  1  0  0  0  0
  2  4  1  0  0  0  0
  2  5  1  0  0  0  0
  5  6  2  0  0  0  0
  5  7  1  0  0  0  0
  7  8  1  0  0  0  0
  7  9  1  0  0  0  0
  9 10  1  0  0  0  0
  9 11  1  0  0  0  0
  9 21  1  0  0  0  0
 11 12  1  0  0  0  0
 11 13  1  0  0  0  0
 11 14  1  0  0  0  0
 14 15  1  0  0  0  0
 14 16  1  0  0  0  0
 14 17  1  0  0  0  0
 17 18  2  0  0  0  0
 17 19  1  0  0  0  0
 19 20  1  0  0  0  0
 21 22  2  0  0  0  0
 21 23  1  0  0  0  0
 23 24  1  0  0  0  0
 23 25  1  0  0  0  0
 25 26  1  0  0  0  0
 25 27  1  0  0  0  0
 25 28  1  0  0  0  0
M  END
$$$$

  -OEChem-01062216073D

 28 27  0     1  0  0  0  0  0999 V2000
   -3.3245   -2.9190    1.0415 H   0  0  0  0  0  0  0  0  0  0  0  0
   -3.2755   -1.9203    0.5976 C   0  0  0  0  0  0  0  0  0  0  0  0
   -4.0492   -1.2958    1.0505 H   0  0  0  0  0  0  0  0  0  0  0  0
   -3.4649   -2.0041   -0.4753 H   0  0  0  0  0  0  0  0  0  0  0  0
   -1.9076   -1.3093    0.8364 C   0  0  0  0  0  0  0  0  0  0  0  0
   -1.0800   -1.9209    1.4859 O   0  0  0  0  0  0  0  0  0  0  0  0
   -1.6235   -0.0599    0.3187 N   0  0  0  0  0  0  0  0  0  0  0  0
   -2.3497    0.3628   -0.2509 H   0  0  0  0  0  0  0  0  0  0  0  0
   -0.3171    0.6298    0.3875 C   0  0  1  0  0  0  0  0  0  0  0  0
    0.3632    0.1401   -0.3179 H   0  0  0  0  0  0  0  0  0  0  0  0
   -0.5101    2.0946   -0.0426 C   0  0  0  0  0  0  0  0  0  0  0  0
   -1.2831    2.5581    0.5805 H   0  0  0  0  0  0  0  0  0  0  0  0
    0.4231    2.6448    0.1304 H   0  0  0  0  0  0  0  0  0  0  0  0
   -0.8851    2.2174   -1.5359 C   0  0  0  0  0  0  0  0  0  0  0  0
   -0.0839    1.7852   -2.1424 H   0  0  0  0  0  0  0  0  0  0  0  0
   -1.7988    1.6559   -1.7433 H   0  0  0  0  0  0  0  0  0  0  0  0
   -1.1103    3.6568   -2.0016 C   0  0  0  0  0  0  0  0  0  0  0  0
   -1.1151    4.5680   -1.1909 O   0  0  0  0  0  0  0  0  0  0  0  0
   -1.3145    3.8382   -3.3259 O   0  0  0  0  0  0  0  0  0  0  0  0
   -1.4280    4.7934   -3.4487 H   0  0  0  0  0  0  0  0  0  0  0  0
    0.4030    0.6004    1.7570 C   0  0  0  0  0  0  0  0  0  0  0  0
    1.6266    0.5890    1.7892 O   0  0  0  0  0  0  0  0  0  0  0  0
   -0.2999    0.8527    2.9210 N   0  0  0  0  0  0  0  0  0  0  0  0
   -1.3034    0.7162    2.8639 H   0  0  0  0  0  0  0  0  0  0  0  0
    0.3308    0.8209    4.2345 C   0  0  0  0  0  0  0  0  0  0  0  0
    1.1386    1.5584    4.2910 H   0  0  0  0  0  0  0  0  0  0  0  0
   -0.4022    1.0547    5.0122 H   0  0  0  0  0  0  0  0  0  0  0  0
    0.7460   -0.1727    4.4344 H   0  0  0  0  0  0  0  0  0  0  0  0
  1  2  1  0  0  0  0
  2  3  1  0  0  0  0
  2  4  1  0  0  0  0
  2  5  1  0  0  0  0
  5  6  2  0  0  0  0
  5  7  1  0  0  0  0
  7  8  1  0  0  0  0
  7  9  1  0  0  0  0
  9 10  1  0  0  0  0
  9 11  1  0  0  0  0
  9 21  1  0  0  0  0
 11 12  1  0  0  0  0
 11 13  1  0  0  0  0
 11 14  1  0  0  0  0
 14 15  1  0  0  0  0
 14 16  1  0  0  0  0
 14 17  1  0  0  0  0
 17 18  2  0  0  0  0
 17 19  1  0  0  0  0
 19 20  1  0  0  0  0
 21 22  2  0  0  0  0
 21 23  1  0  0  0  0
 23 24  1  0  0  0  0
 23 25  1  0  0  0  0
 25 26  1  0  0  0  0
 25 27  1  0  0  0  0
 25 28  1  0  0  0  0
M  END
$$$$

  -OEChem-01062216073D

 28 27  0     1  0  0  0  0  0999 V2000
   -3.3704   -2.9110    0.9841 H   0  0  0  0  0  0  0  0  0  0  0  0
   -3.3072   -1.9079    0.5521 C   0  0  0  0  0  0  0  0  0  0  0  0
   -4.0760   -1.2794    1.0081 H   0  0  0  0  0  0  0  0  0  0  0  0
   -3.4919   -1.9774   -0.5227 H   0  0  0  0  0  0  0  0  0  0  0  0
   -1.9341   -1.3153    0.8062 C   0  0  0  0  0  0  0  0  0  0  0  0
   -1.1214   -1.9365    1.4657 O   0  0  0  0  0  0  0  0  0  0  0  0
   -1.6307   -0.0641    0.3059 N   0  0  0  0  0  0  0  0  0  0  0  0
   -2.3546    0.3799   -0.2508 H   0  0  0  0  0  0  0  0  0  0  0  0
   -0.3251    0.6267    0.4005 C   0  0  1  0  0  0  0  0  0  0  0  0
    0.3645    0.1428   -0.2995 H   0  0  0  0  0  0  0  0  0  0  0  0
   -0.5280    2.0911   -0.0312 C   0  0  0  0  0  0  0  0  0  0  0  0
   -1.3144    2.5452    0.5819 H   0  0  0  0  0  0  0  0  0  0  0  0
    0.3951    2.6537    0.1537 H   0  0  0  0  0  0  0  0  0  0  0  0
   -0.8817    2.2110   -1.5300 C   0  0  0  0  0  0  0  0  0  0  0  0
   -0.0659    1.7888   -2.1238 H   0  0  0  0  0  0  0  0  0  0  0  0
   -1.7852    1.6389   -1.7520 H   0  0  0  0  0  0  0  0  0  0  0  0
   -1.1162    3.6475   -1.9999 C   0  0  0  0  0  0  0  0  0  0  0  0
   -1.1439    4.5592   -1.1903 O   0  0  0  0  0  0  0  0  0  0  0  0
   -1.2973    3.8263   -3.3281 O   0  0  0  0  0  0  0  0  0  0  0  0
   -1.4150    4.7806   -3.4535 H   0  0  0  0  0  0  0  0  0  0  0  0
    0.3959    0.6054    1.7722 C   0  0  0  0  0  0  0  0  0  0  0  0
    1.5962    0.8447    1.8128 O   0  0  0  0  0  0  0  0  0  0  0  0
   -0.3184    0.5479    2.9547 N   0  0  0  0  0  0  0  0  0  0  0  0
   -1.2373    0.1246    2.8698 H   0  0  0  0  0  0  0  0  0  0  0  0
    0.3390    0.4901    4.2542 C   0  0  0  0  0  0  0  0  0  0  0  0
    0.9723    1.3707    4.4045 H   0  0  0  0  0  0  0  0  0  0  0  0
   -0.4070    0.4634    5.0541 H   0  0  0  0  0  0  0  0  0  0  0  0
    0.9618   -0.4078    4.3274 H   0  0  0  0  0  0  0  0  0  0  0  0
  1  2  1  0  0  0  0
  2  3  1  0  0  0  0
  2  4  1  0  0  0  0
  2  5  1  0  0  0  0
  5  6  2  0  0  0  0
  5  7  1  0  0  0  0
  7  8  1  0  0  0  0
  7  9  1  0  0  0  0
  9 10  1  0  0  0  0
  9 11  1  0  0  0  0
  9 21  1  0  0  0  0
 11 12  1  0  0  0  0
 11 13  1  0  0  0  0
 11 14  1  0  0  0  0
 14 15  1  0  0  0  0
 14 16  1  0  0  0  0
 14 17  1  0  0  0  0
 17 18  2  0  0  0  0
 17 19  1  0  0  0  0
 19 20  1  0  0  0  0
 21 22  2  0  0  0  0
 21 23  1  0  0  0  0
 23 24  1  0  0  0  0
 23 25  1  0  0  0  0
 25 26  1  0  0  0  0
 25 27  1  0  0  0  0
 25 28  1  0  0  0  0
M  END
$$$$

  -OEChem-01062216073D

 28 27  0     1  0  0  0  0  0999 V2000
   -3.4419   -2.8914    0.9102 H   0  0  0  0  0  0  0  0  0  0  0  0
   -3.3543   -1.8809    0.5002 C   0  0  0  0  0  0  0  0  0  0  0  0
   -4.1043   -1.2430    0.9743 H   0  0  0  0  0  0  0  0  0  0  0  0
   -3.5463   -1.9214   -0.5748 H   0  0  0  0  0  0  0  0  0  0  0  0
   -1.9648   -1.3301    0.7591 C   0  0  0  0  0  0  0  0  0  0  0  0
   -1.1639   -1.9887    1.3975 O   0  0  0  0  0  0  0  0  0  0  0  0
   -1.6322   -0.0757    0.2878 N   0  0  0  0  0  0  0  0  0  0  0  0
   -2.3618    0.4089   -0.2257 H   0  0  0  0  0  0  0  0  0  0  0  0
   -0.3265    0.6132    0.4132 C   0  0  1  0  0  0  0  0  0  0  0  0
    0.3719    0.1383   -0.2840 H   0  0  0  0  0  0  0  0  0  0  0  0
   -0.5441    2.0777   -0.0197 C   0  0  0  0  0  0  0  0  0  0  0  0
   -1.3462    2.5182    0.5833 H   0  0  0  0  0  0  0  0  0  0  0  0
    0.3657    2.6571    0.1779 H   0  0  0  0  0  0  0  0  0  0  0  0
   -0.8757    2.1989   -1.5242 C   0  0  0  0  0  0  0  0  0  0  0  0
   -0.0446    1.7909   -2.1066 H   0  0  0  0  0  0  0  0  0  0  0  0
   -1.7672    1.6157   -1.7645 H   0  0  0  0  0  0  0  0  0  0  0  0
   -1.1229    3.6346   -1.9909 C   0  0  0  0  0  0  0  0  0  0  0  0
   -1.1764    4.5420   -1.1779 O   0  0  0  0  0  0  0  0  0  0  0  0
   -1.2877    3.8171   -3.3205 O   0  0  0  0  0  0  0  0  0  0  0  0
   -1.4196    4.7700   -3.4422 H   0  0  0  0  0  0  0  0  0  0  0  0
    0.3954    0.5899    1.7897 C   0  0  0  0  0  0  0  0  0  0  0  0
    1.5258    1.0549    1.8683 O   0  0  0  0  0  0  0  0  0  0  0  0
   -0.2526    0.2258    2.9554 N   0  0  0  0  0  0  0  0  0  0  0  0
   -1.0137   -0.4343    2.8070 H   0  0  0  0  0  0  0  0  0  0  0  0
    0.4331    0.1789    4.2412 C   0  0  0  0  0  0  0  0  0  0  0  0
    0.8366    1.1641    4.4977 H   0  0  0  0  0  0  0  0  0  0  0  0
   -0.2638   -0.1218    5.0293 H   0  0  0  0  0  0  0  0  0  0  0  0
    1.2572   -0.5418    4.2107 H   0  0  0  0  0  0  0  0  0  0  0  0
  1  2  1  0  0  0  0
  2  3  1  0  0  0  0
  2  4  1  0  0  0  0
  2  5  1  0  0  0  0
  5  6  2  0  0  0  0
  5  7  1  0  0  0  0
  7  8  1  0  0  0  0
  7  9  1  0  0  0  0
  9 10  1  0  0  0  0
  9 11  1  0  0  0  0
  9 21  1  0  0  0  0
 11 12  1  0  0  0  0
 11 13  1  0  0  0  0
 11 14  1  0  0  0  0
 14 15  1  0  0  0  0
 14 16  1  0  0  0  0
 14 17  1  0  0  0  0
 17 18  2  0  0  0  0
 17 19  1  0  0  0  0
 19 20  1  0  0  0  0
 21 22  2  0  0  0  0
 21 23  1  0  0  0  0
 23 24  1  0  0  0  0
 23 25  1  0  0  0  0
 25 26  1  0  0  0  0
 25 27  1  0  0  0  0
 25 28  1  0  0  0  0
M  END
$$$$

  -OEChem-01062216073D

 28 27  0     1  0  0  0  0  0999 V2000
   -3.4852   -2.8595    0.9060 H   0  0  0  0  0  0  0  0  0  0  0  0
   -3.3817   -1.8474    0.5042 C   0  0  0  0  0  0  0  0  0  0  0  0
   -4.0841   -1.1902    1.0229 H   0  0  0  0  0  0  0  0  0  0  0  0
   -3.6280   -1.8663   -0.5604 H   0  0  0  0  0  0  0  0  0  0  0  0
   -1.9622   -1.3495    0.6997 C   0  0  0  0  0  0  0  0  0  0  0  0
   -1.1385   -2.0709    1.2339 O   0  0  0  0  0  0  0  0  0  0  0  0
   -1.6204   -0.0854    0.2620 N   0  0  0  0  0  0  0  0  0  0  0  0
   -2.3770    0.4490   -0.1542 H   0  0  0  0  0  0  0  0  0  0  0  0
   -0.3223    0.6132    0.4200 C   0  0  1  0  0  0  0  0  0  0  0  0
    0.3899    0.1519   -0.2720 H   0  0  0  0  0  0  0  0  0  0  0  0
   -0.5599    2.0764   -0.0159 C   0  0  0  0  0  0  0  0  0  0  0  0
   -1.3803    2.5014    0.5729 H   0  0  0  0  0  0  0  0  0  0  0  0
    0.3333    2.6760    0.1948 H   0  0  0  0  0  0  0  0  0  0  0  0
   -0.8646    2.1935   -1.5267 C   0  0  0  0  0  0  0  0  0  0  0  0
   -0.0149    1.8022   -2.0935 H   0  0  0  0  0  0  0  0  0  0  0  0
   -1.7401    1.5938   -1.7849 H   0  0  0  0  0  0  0  0  0  0  0  0
   -1.1301    3.6248   -1.9965 C   0  0  0  0  0  0  0  0  0  0  0  0
   -1.2167    4.5298   -1.1836 O   0  0  0  0  0  0  0  0  0  0  0  0
   -1.2734    3.8064   -3.3286 O   0  0  0  0  0  0  0  0  0  0  0  0
   -1.4216    4.7568   -3.4514 H   0  0  0  0  0  0  0  0  0  0  0  0
    0.3910    0.5811    1.8056 C   0  0  0  0  0  0  0  0  0  0  0  0
    1.4149    1.2357    1.9595 O   0  0  0  0  0  0  0  0  0  0  0  0
   -0.1294   -0.0726    2.9067 N   0  0  0  0  0  0  0  0  0  0  0  0
   -0.7549   -0.8432    2.6701 H   0  0  0  0  0  0  0  0  0  0  0  0
    0.5777   -0.1480    4.1796 C   0  0  0  0  0  0  0  0  0  0  0  0
    0.7608    0.8559    4.5771 H   0  0  0  0  0  0  0  0  0  0  0  0
   -0.0193   -0.7024    4.9099 H   0  0  0  0  0  0  0  0  0  0  0  0
    1.5385   -0.6585    4.0549 H   0  0  0  0  0  0  0  0  0  0  0  0
  1  2  1  0  0  0  0
  2  3  1  0  0  0  0
  2  4  1  0  0  0  0
  2  5  1  0  0  0  0
  5  6  2  0  0  0  0
  5  7  1  0  0  0  0
  7  8  1  0  0  0  0
  7  9  1  0  0  0  0
  9 10  1  0  0  0  0
  9 11  1  0  0  0  0
  9 21  1  0  0  0  0
 11 12  1  0  0  0  0
 11 13  1  0  0  0  0
 11 14  1  0  0  0  0
 14 15  1  0  0  0  0
 14 16  1  0  0  0  0
 14 17  1  0  0  0  0
 17 18  2  0  0  0  0
 17 19  1  0  0  0  0
 19 20  1  0  0  0  0
 21 22  2  0  0  0  0
 21 23  1  0  0  0  0
 23 24  1  0  0  0  0
 23 25  1  0  0  0  0
 25 26  1  0  0  0  0
 25 27  1  0  0  0  0
 25 28  1  0  0  0  0
M  END
$$$$

  -OEChem-01062216073D

 28 27  0     1  0  0  0  0  0999 V2000
   -3.4946   -2.8404    0.9208 H   0  0  0  0  0  0  0  0  0  0  0  0
   -3.3913   -1.8233    0.5321 C   0  0  0  0  0  0  0  0  0  0  0  0
   -4.0464   -1.1615    1.1040 H   0  0  0  0  0  0  0  0  0  0  0  0
   -3.7006   -1.8150   -0.5160 H   0  0  0  0  0  0  0  0  0  0  0  0
   -1.9511   -1.3614    0.6510 C   0  0  0  0  0  0  0  0  0  0  0  0
   -1.1022   -2.1352    1.0589 O   0  0  0  0  0  0  0  0  0  0  0  0
   -1.6126   -0.0861    0.2445 N   0  0  0  0  0  0  0  0  0  0  0  0
   -2.3939    0.4828   -0.0679 H   0  0  0  0  0  0  0  0  0  0  0  0
   -0.3220    0.6216    0.4273 C   0  0  1  0  0  0  0  0  0  0  0  0
    0.4000    0.1720   -0.2621 H   0  0  0  0  0  0  0  0  0  0  0  0
   -0.5730    2.0831   -0.0133 C   0  0  0  0  0  0  0  0  0  0  0  0
   -1.4060    2.4997    0.5636 H   0  0  0  0  0  0  0  0  0  0  0  0
    0.3089    2.6963    0.2046 H   0  0  0  0  0  0  0  0  0  0  0  0
   -0.8548    2.1926   -1.5297 C   0  0  0  0  0  0  0  0  0  0  0  0
    0.0095    1.8120   -2.0815 H   0  0  0  0  0  0  0  0  0  0  0  0
   -1.7168    1.5789   -1.8007 H   0  0  0  0  0  0  0  0  0  0  0  0
   -1.1333    3.6181   -2.0094 C   0  0  0  0  0  0  0  0  0  0  0  0
   -1.2467    4.5249   -1.2018 O   0  0  0  0  0  0  0  0  0  0  0  0
   -1.2548    3.7929   -3.3447 O   0  0  0  0  0  0  0  0  0  0  0  0
   -1.4151    4.7405   -3.4733 H   0  0  0  0  0  0  0  0  0  0  0  0
    0.3845    0.5708    1.8202 C   0  0  0  0  0  0  0  0  0  0  0  0
    1.2631    1.3846    2.0771 O   0  0  0  0  0  0  0  0  0  0  0  0
    0.0486   -0.3282    2.8148 N   0  0  0  0  0  0  0  0  0  0  0  0
   -0.4693   -1.1471    2.4921 H   0  0  0  0  0  0  0  0  0  0  0  0
    0.7833   -0.4392    4.0696 C   0  0  0  0  0  0  0  0  0  0  0  0
    0.7559    0.5092    4.6164 H   0  0  0  0  0  0  0  0  0  0  0  0
    0.3359   -1.2129    4.7009 H   0  0  0  0  0  0  0  0  0  0  0  0
    1.8283   -0.7066    3.8798 H   0  0  0  0  0  0  0  0  0  0  0  0
  1  2  1  0  0  0  0
  2  3  1  0  0  0  0
  2  4  1  0  0  0  0
  2  5  1  0  0  0  0
  5  6  2  0  0  0  0
  5  7  1  0  0  0  0
  7  8  1  0  0  0  0
  7  9  1  0  0  0  0
  9 10  1  0  0  0  0
  9 11  1  0  0  0  0
  9 21  1  0  0  0  0
 11 12  1  0  0  0  0
 11 13  1  0  0  0  0
 11 14  1  0  0  0  0
 14 15  1  0  0  0  0
 14 16  1  0  0  0  0
 14 17  1  0  0  0  0
 17 18  2  0  0  0  0
 17 19  1  0  0  0  0
 19 20  1  0  0  0  0
 21 22  2  0  0  0  0
 21 23  1  0  0  0  0
 23 24  1  0  0  0  0
 23 25  1  0  0  0  0
 25 26  1  0  0  0  0
 25 27  1  0  0  0  0
 25 28  1  0  0  0  0
M  END
$$$$

  -OEChem-01062216073D

 28 27  0     1  0  0  0  0  0999 V2000
   -3.5277   -2.7895    1.0003 H   0  0  0  0  0  0  0  0  0  0  0  0
   -3.4260   -1.7556    0.6583 C   0  0  0  0  0  0  0  0  0  0  0  0
   -3.9911   -1.1061    1.3316 H   0  0  0  0  0  0  0  0  0  0  0  0
   -3.8424   -1.6763   -0.3490 H   0  0  0  0  0  0  0  0  0  0  0  0
   -1.9648   -1.3488    0.6485 C   0  0  0  0  0  0  0  0  0  0  0  0
   -1.1072   -2.1720    0.9207 O   0  0  0  0  0  0  0  0  0  0  0  0
   -1.6203   -0.0739    0.2461 N   0  0  0  0  0  0  0  0  0  0  0  0
   -2.4119    0.5286    0.0406 H   0  0  0  0  0  0  0  0  0  0  0  0
   -0.3156    0.6119    0.4066 C   0  0  1  0  0  0  0  0  0  0  0  0
    0.3852    0.1506   -0.2968 H   0  0  0  0  0  0  0  0  0  0  0  0
   -0.5488    2.0767   -0.0359 C   0  0  0  0  0  0  0  0  0  0  0  0
   -1.3646    2.5110    0.5524 H   0  0  0  0  0  0  0  0  0  0  0  0
    0.3479    2.6749    0.1627 H   0  0  0  0  0  0  0  0  0  0  0  0
   -0.8519    2.1832   -1.5482 C   0  0  0  0  0  0  0  0  0  0  0  0
   -0.0027    1.7857   -2.1113 H   0  0  0  0  0  0  0  0  0  0  0  0
   -1.7282    1.5822   -1.8021 H   0  0  0  0  0  0  0  0  0  0  0  0
   -1.1141    3.6103   -2.0319 C   0  0  0  0  0  0  0  0  0  0  0  0
   -1.2002    4.5237   -1.2285 O   0  0  0  0  0  0  0  0  0  0  0  0
   -1.2546    3.7788   -3.3662 O   0  0  0  0  0  0  0  0  0  0  0  0
   -1.4038    4.7278   -3.4981 H   0  0  0  0  0  0  0  0  0  0  0  0
    0.4120    0.5290    1.7889 C   0  0  0  0  0  0  0  0  0  0  0  0
    1.1199    1.4563    2.1620 O   0  0  0  0  0  0  0  0  0  0  0  0
    0.2927   -0.5445    2.6506 N   0  0  0  0  0  0  0  0  0  0  0  0
   -0.1492   -1.3790    2.2597 H   0  0  0  0  0  0  0  0  0  0  0  0
    1.0441   -0.6743    3.8934 C   0  0  0  0  0  0  0  0  0  0  0  0
    0.8314    0.1677    4.5606 H   0  0  0  0  0  0  0  0  0  0  0  0
    0.7654   -1.5993    4.4072 H   0  0  0  0  0  0  0  0  0  0  0  0
    2.1197   -0.7003    3.6898 H   0  0  0  0  0  0  0  0  0  0  0  0
  1  2  1  0  0  0  0
  2  3  1  0  0  0  0
  2  4  1  0  0  0  0
  2  5  1  0  0  0  0
  5  6  2  0  0  0  0
  5  7  1  0  0  0  0
  7  8  1  0  0  0  0
  7  9  1  0  0  0  0
  9 10  1  0  0  0  0
  9 11  1  0  0  0  0
  9 21  1  0  0  0  0
 11 12  1  0  0  0  0
 11 13  1  0  0  0  0
 11 14  1  0  0  0  0
 14 15  1  0  0  0  0
 14 16  1  0  0  0  0
 14 17  1  0  0  0  0
 17 18  2  0  0  0  0
 17 19  1  0  0  0  0
 19 20  1  0  0  0  0
 21 22  2  0  0  0  0
 21 23  1  0  0  0  0
 23 24  1  0  0  0  0
 23 25  1  0  0  0  0
 25 26  1  0  0  0  0
 25 27  1  0  0  0  0
 25 28  1  0  0  0  0
M  END
$$$$

  -OEChem-01062216073D

 28 27  0     1  0  0  0  0  0999 V2000
   -3.4089   -2.8485    1.0148 H   0  0  0  0  0  0  0  0  0  0  0  0
   -3.3398   -1.8095    0.6804 C   0  0  0  0  0  0  0  0  0  0  0  0
   -3.8868   -1.1776    1.3844 H   0  0  0  0  0  0  0  0  0  0  0  0
   -3.8000   -1.7264   -0.3073 H   0  0  0  0  0  0  0  0  0  0  0  0
   -1.8877   -1.3766    0.6132 C   0  0  0  0  0  0  0  0  0  0  0  0
   -1.0046   -2.1942    0.8117 O   0  0  0  0  0  0  0  0  0  0  0  0
   -1.5829   -0.0877    0.2235 N   0  0  0  0  0  0  0  0  0  0  0  0
   -2.3947    0.5052    0.0784 H   0  0  0  0  0  0  0  0  0  0  0  0
   -0.2941    0.6247    0.3883 C   0  0  1  0  0  0  0  0  0  0  0  0
    0.4160    0.1852   -0.3196 H   0  0  0  0  0  0  0  0  0  0  0  0
   -0.5464    2.0898   -0.0392 C   0  0  0  0  0  0  0  0  0  0  0  0
   -1.3681    2.5077    0.5528 H   0  0  0  0  0  0  0  0  0  0  0  0
    0.3438    2.6948    0.1685 H   0  0  0  0  0  0  0  0  0  0  0  0
   -0.8493    2.2066   -1.5506 C   0  0  0  0  0  0  0  0  0  0  0  0
    0.0045    1.8246   -2.1171 H   0  0  0  0  0  0  0  0  0  0  0  0
   -1.7179    1.5965   -1.8095 H   0  0  0  0  0  0  0  0  0  0  0  0
   -1.1304    3.6344   -2.0217 C   0  0  0  0  0  0  0  0  0  0  0  0
   -1.2297    4.5389   -1.2099 O   0  0  0  0  0  0  0  0  0  0  0  0
   -1.2705    3.8139   -3.3547 O   0  0  0  0  0  0  0  0  0  0  0  0
   -1.4342    4.7617   -3.4776 H   0  0  0  0  0  0  0  0  0  0  0  0
    0.4248    0.5270    1.7733 C   0  0  0  0  0  0  0  0  0  0  0  0
    0.8836    1.5310    2.3038 O   0  0  0  0  0  0  0  0  0  0  0  0
    0.5660   -0.6599    2.4645 N   0  0  0  0  0  0  0  0  0  0  0  0
    0.2014   -1.4993    2.0080 H   0  0  0  0  0  0  0  0  0  0  0  0
    1.2403   -0.7884    3.7501 C   0  0  0  0  0  0  0  0  0  0  0  0
    0.7471   -0.1679    4.5054 H   0  0  0  0  0  0  0  0  0  0  0  0
    1.2141   -1.8290    4.0873 H   0  0  0  0  0  0  0  0  0  0  0  0
    2.2868   -0.4775    3.6660 H   0  0  0  0  0  0  0  0  0  0  0  0
  1  2  1  0  0  0  0
  2  3  1  0  0  0  0
  2  4  1  0  0  0  0
  2  5  1  0  0  0  0
  5  6  2  0  0  0  0
  5  7  1  0  0  0  0
  7  8  1  0  0  0  0
  7  9  1  0  0  0  0
  9 10  1  0  0  0  0
  9 11  1  0  0  0  0
  9 21  1  0  0  0  0
 11 12  1  0  0  0  0
 11 13  1  0  0  0  0
 11 14  1  0  0  0  0
 14 15  1  0  0  0  0
 14 16  1  0  0  0  0
 14 17  1  0  0  0  0
 17 18  2  0  0  0  0
 17 19  1  0  0  0  0
 19 20  1  0  0  0  0
 21 22  2  0  0  0  0
 21 23  1  0  0  0  0
 23 24  1  0  0  0  0
 23 25  1  0  0  0  0
 25 26  1  0  0  0  0
 25 27  1  0  0  0  0
 25 28  1  0  0  0  0
M  END
$$$$

  -OEChem-01062216073D

 28 27  0     1  0  0  0  0  0999 V2000
   -3.3202   -2.8495    1.1346 H   0  0  0  0  0  0  0  0  0  0  0  0
   -3.2775   -1.8174    0.7748 C   0  0  0  0  0  0  0  0  0  0  0  0
   -3.7988   -1.1754    1.4891 H   0  0  0  0  0  0  0  0  0  0  0  0
   -3.7826   -1.7608   -0.1926 H   0  0  0  0  0  0  0  0  0  0  0  0
   -1.8343   -1.3722    0.6333 C   0  0  0  0  0  0  0  0  0  0  0  0
   -0.9340   -2.1799    0.7944 O   0  0  0  0  0  0  0  0  0  0  0  0
   -1.5588   -0.0833    0.2216 N   0  0  0  0  0  0  0  0  0  0  0  0
   -2.3790    0.5085    0.1251 H   0  0  0  0  0  0  0  0  0  0  0  0
   -0.2672    0.6288    0.3493 C   0  0  1  0  0  0  0  0  0  0  0  0
    0.4276    0.1889   -0.3735 H   0  0  0  0  0  0  0  0  0  0  0  0
   -0.5150    2.0964   -0.0656 C   0  0  0  0  0  0  0  0  0  0  0  0
   -1.3186    2.5194    0.5479 H   0  0  0  0  0  0  0  0  0  0  0  0
    0.3875    2.6880    0.1281 H   0  0  0  0  0  0  0  0  0  0  0  0
   -0.8562    2.2217   -1.5678 C   0  0  0  0  0  0  0  0  0  0  0  0
   -0.0231    1.8313   -2.1590 H   0  0  0  0  0  0  0  0  0  0  0  0
   -1.7387    1.6222   -1.8036 H   0  0  0  0  0  0  0  0  0  0  0  0
   -1.1344    3.6541   -2.0258 C   0  0  0  0  0  0  0  0  0  0  0  0
   -1.2027    4.5566   -1.2085 O   0  0  0  0  0  0  0  0  0  0  0  0
   -1.3009    3.8412   -3.3546 O   0  0  0  0  0  0  0  0  0  0  0  0
   -1.4553    4.7915   -3.4696 H   0  0  0  0  0  0  0  0  0  0  0  0
    0.4660    0.5232    1.7227 C   0  0  0  0  0  0  0  0  0  0  0  0
    0.6994    1.5288    2.3822 O   0  0  0  0  0  0  0  0  0  0  0  0
    0.8667   -0.6893    2.2477 N   0  0  0  0  0  0  0  0  0  0  0  0
    0.5251   -1.5211    1.7591 H   0  0  0  0  0  0  0  0  0  0  0  0
    1.4604   -0.8470    3.5692 C   0  0  0  0  0  0  0  0  0  0  0  0
    0.7608   -0.5202    4.3453 H   0  0  0  0  0  0  0  0  0  0  0  0
    1.7097   -1.8975    3.7467 H   0  0  0  0  0  0  0  0  0  0  0  0
    2.3790   -0.2564    3.6502 H   0  0  0  0  0  0  0  0  0  0  0  0
  1  2  1  0  0  0  0
  2  3  1  0  0  0  0
  2  4  1  0  0  0  0
  2  5  1  0  0  0  0
  5  6  2  0  0  0  0
  5  7  1  0  0  0  0
  7  8  1  0  0  0  0
  7  9  1  0  0  0  0
  9 10  1  0  0  0  0
  9 11  1  0  0  0  0
  9 21  1  0  0  0  0
 11 12  1  0  0  0  0
 11 13  1  0  0  0  0
 11 14  1  0  0  0  0
 14 15  1  0  0  0  0
 14 16  1  0  0  0  0
 14 17  1  0  0  0  0
 17 18  2  0  0  0  0
 17 19  1  0  0  0  0
 19 20  1  0  0  0  0
 21 22  2  0  0  0  0
 21 23  1  0  0  0  0
 23 24  1  0  0  0  0
 23 25  1  0  0  0  0
 25 26  1  0  0  0  0
 25 27  1  0  0  0  0
 25 28  1  0  0  0  0
M  END
$$$$

  -OEChem-01062216073D

 28 27  0     1  0  0  0  0  0999 V2000
   -3.2018   -2.8683    1.2329 H   0  0  0  0  0  0  0  0  0  0  0  0
   -3.1988   -1.8412    0.8570 C   0  0  0  0  0  0  0  0  0  0  0  0
   -3.7059   -1.2008    1.5829 H   0  0  0  0  0  0  0  0  0  0  0  0
   -3.7439   -1.8113   -0.0896 H   0  0  0  0  0  0  0  0  0  0  0  0
   -1.7739   -1.3645    0.6500 C   0  0  0  0  0  0  0  0  0  0  0  0
   -0.8444   -2.1424    0.7976 O   0  0  0  0  0  0  0  0  0  0  0  0
   -1.5417   -0.0775    0.2067 N   0  0  0  0  0  0  0  0  0  0  0  0
   -2.3717    0.5059    0.1525 H   0  0  0  0  0  0  0  0  0  0  0  0
   -0.2542    0.6399    0.3157 C   0  0  1  0  0  0  0  0  0  0  0  0
    0.4411    0.2016   -0.4078 H   0  0  0  0  0  0  0  0  0  0  0  0
   -0.4962    2.1093   -0.0894 C   0  0  0  0  0  0  0  0  0  0  0  0
   -1.2928    2.5332    0.5327 H   0  0  0  0  0  0  0  0  0  0  0  0
    0.4119    2.6923    0.1045 H   0  0  0  0  0  0  0  0  0  0  0  0
   -0.8541    2.2432   -1.5864 C   0  0  0  0  0  0  0  0  0  0  0  0
   -0.0304    1.8496   -2.1886 H   0  0  0  0  0  0  0  0  0  0  0  0
   -1.7432    1.6500   -1.8132 H   0  0  0  0  0  0  0  0  0  0  0  0
   -1.1277    3.6791   -2.0361 C   0  0  0  0  0  0  0  0  0  0  0  0
   -1.1799    4.5791   -1.2150 O   0  0  0  0  0  0  0  0  0  0  0  0
   -1.3103    3.8719   -3.3619 O   0  0  0  0  0  0  0  0  0  0  0  0
   -1.4630    4.8232   -3.4714 H   0  0  0  0  0  0  0  0  0  0  0  0
    0.4579    0.5334    1.6952 C   0  0  0  0  0  0  0  0  0  0  0  0
    0.4737    1.4869    2.4642 O   0  0  0  0  0  0  0  0  0  0  0  0
    1.1063   -0.6262    2.0722 N   0  0  0  0  0  0  0  0  0  0  0  0
    0.8311   -1.4581    1.5435 H   0  0  0  0  0  0  0  0  0  0  0  0
    1.6829   -0.8168    3.3970 C   0  0  0  0  0  0  0  0  0  0  0  0
    0.9023   -0.7782    4.1638 H   0  0  0  0  0  0  0  0  0  0  0  0
    2.1805   -1.7896    3.4546 H   0  0  0  0  0  0  0  0  0  0  0  0
    2.4240   -0.0388    3.6089 H   0  0  0  0  0  0  0  0  0  0  0  0
  1  2  1  0  0  0  0
  2  3  1  0  0  0  0
  2  4  1  0  0  0  0
  2  5  1  0  0  0  0
  5  6  2  0  0  0  0
  5  7  1  0  0  0  0
  7  8  1  0  0  0  0
  7  9  1  0  0  0  0
  9 10  1  0  0  0  0
  9 11  1  0  0  0  0
  9 21  1  0  0  0  0
 11 12  1  0  0  0  0
 11 13  1  0  0  0  0
 11 14  1  0  0  0  0
 14 15  1  0  0  0  0
 14 16  1  0  0  0  0
 14 17  1  0  0  0  0
 17 18  2  0  0  0  0
 17 19  1  0  0  0  0
 19 20  1  0  0  0  0
 21 22  2  0  0  0  0
 21 23  1  0  0  0  0
 23 24  1  0  0  0  0
 23 25  1  0  0  0  0
 25 26  1  0  0  0  0
 25 27  1  0  0  0  0
 25 28  1  0  0  0  0
M  END
$$$$

  -OEChem-01062216073D

 28 27  0     1  0  0  0  0  0999 V2000
   -3.1084   -2.8770    1.3049 H   0  0  0  0  0  0  0  0  0  0  0  0
   -3.1375   -1.8595    0.9048 C   0  0  0  0  0  0  0  0  0  0  0  0
   -3.6469   -1.2140    1.6244 H   0  0  0  0  0  0  0  0  0  0  0  0
   -3.6991   -1.8655   -0.0325 H   0  0  0  0  0  0  0  0  0  0  0  0
   -1.7290   -1.3528    0.6616 C   0  0  0  0  0  0  0  0  0  0  0  0
   -0.7733   -2.0982    0.8163 O   0  0  0  0  0  0  0  0  0  0  0  0
   -1.5339   -0.0698    0.1897 N   0  0  0  0  0  0  0  0  0  0  0  0
   -2.3705    0.5057    0.1599 H   0  0  0  0  0  0  0  0  0  0  0  0
   -0.2491    0.6483    0.2900 C   0  0  1  0  0  0  0  0  0  0  0  0
    0.4496    0.2117   -0.4311 H   0  0  0  0  0  0  0  0  0  0  0  0
   -0.4869    2.1193   -0.1052 C   0  0  0  0  0  0  0  0  0  0  0  0
   -1.2806    2.5418    0.5216 H   0  0  0  0  0  0  0  0  0  0  0  0
    0.4241    2.6968    0.0909 H   0  0  0  0  0  0  0  0  0  0  0  0
   -0.8543    2.2606   -1.5989 C   0  0  0  0  0  0  0  0  0  0  0  0
   -0.0360    1.8668   -2.2077 H   0  0  0  0  0  0  0  0  0  0  0  0
   -1.7471    1.6712   -1.8219 H   0  0  0  0  0  0  0  0  0  0  0  0
   -1.1251    3.6992   -2.0415 C   0  0  0  0  0  0  0  0  0  0  0  0
   -1.1681    4.5961   -1.2164 O   0  0  0  0  0  0  0  0  0  0  0  0
   -1.3165    3.8979   -3.3653 O   0  0  0  0  0  0  0  0  0  0  0  0
   -1.4710    4.8494   -3.4695 H   0  0  0  0  0  0  0  0  0  0  0  0
    0.4353    0.5406    1.6795 C   0  0  0  0  0  0  0  0  0  0  0  0
    0.2463    1.3972    2.5348 O   0  0  0  0  0  0  0  0  0  0  0  0
    1.3171   -0.4901    1.9407 N   0  0  0  0  0  0  0  0  0  0  0  0
    1.1721   -1.3162    1.3576 H   0  0  0  0  0  0  0  0  0  0  0  0
    1.9135   -0.6902    3.2556 C   0  0  0  0  0  0  0  0  0  0  0  0
    1.1376   -0.8876    4.0026 H   0  0  0  0  0  0  0  0  0  0  0  0
    2.5997   -1.5421    3.2323 H   0  0  0  0  0  0  0  0  0  0  0  0
    2.4778    0.1974    3.5604 H   0  0  0  0  0  0  0  0  0  0  0  0
  1  2  1  0  0  0  0
  2  3  1  0  0  0  0
  2  4  1  0  0  0  0
  2  5  1  0  0  0  0
  5  6  2  0  0  0  0
  5  7  1  0  0  0  0
  7  8  1  0  0  0  0
  7  9  1  0  0  0  0
  9 10  1  0  0  0  0
  9 11  1  0  0  0  0
  9 21  1  0  0  0  0
 11 12  1  0  0  0  0
 11 13  1  0  0  0  0
 11 14  1  0  0  0  0
 14 15  1  0  0  0  0
 14 16  1  0  0  0  0
 14 17  1  0  0  0  0
 17 18  2  0  0  0  0
 17 19  1  0  0  0  0
 19 20  1  0  0  0  0
 21 22  2  0  0  0  0
 21 23  1  0  0  0  0
 23 24  1  0  0  0  0
 23 25  1  0  0  0  0
 25 26  1  0  0  0  0
 25 27  1  0  0  0  0
 25 28  1  0  0  0  0
M  END
$$$$

  -OEChem-01062216073D

 28 27  0     1  0  0  0  0  0999 V2000
   -3.0182   -2.8806    1.3926 H   0  0  0  0  0  0  0  0  0  0  0  0
   -3.0830   -1.8743    0.9691 C   0  0  0  0  0  0  0  0  0  0  0  0
   -3.5759   -1.2207    1.6930 H   0  0  0  0  0  0  0  0  0  0  0  0
   -3.6813   -1.9132    0.0557 H   0  0  0  0  0  0  0  0  0  0  0  0
   -1.6948   -1.3489    0.6580 C   0  0  0  0  0  0  0  0  0  0  0  0
   -0.7192   -2.0730    0.7912 O   0  0  0  0  0  0  0  0  0  0  0  0
   -1.5353   -0.0695    0.1625 N   0  0  0  0  0  0  0  0  0  0  0  0
   -2.3752    0.5015    0.1841 H   0  0  0  0  0  0  0  0  0  0  0  0
   -0.2532    0.6514    0.2555 C   0  0  1  0  0  0  0  0  0  0  0  0
    0.4459    0.2136   -0.4643 H   0  0  0  0  0  0  0  0  0  0  0  0
   -0.4818    2.1256   -0.1280 C   0  0  0  0  0  0  0  0  0  0  0  0
   -1.2706    2.5488    0.5046 H   0  0  0  0  0  0  0  0  0  0  0  0
    0.4334    2.6953    0.0696 H   0  0  0  0  0  0  0  0  0  0  0  0
   -0.8564    2.2800   -1.6184 C   0  0  0  0  0  0  0  0  0  0  0  0
   -0.0461    1.8825   -2.2358 H   0  0  0  0  0  0  0  0  0  0  0  0
   -1.7558    1.6996   -1.8384 H   0  0  0  0  0  0  0  0  0  0  0  0
   -1.1181    3.7241   -2.0491 C   0  0  0  0  0  0  0  0  0  0  0  0
   -1.1491    4.6152   -1.2172 O   0  0  0  0  0  0  0  0  0  0  0  0
   -1.3115    3.9347   -3.3708 O   0  0  0  0  0  0  0  0  0  0  0  0
   -1.4581    4.8882   -3.4675 H   0  0  0  0  0  0  0  0  0  0  0  0
    0.4119    0.5453    1.6519 C   0  0  0  0  0  0  0  0  0  0  0  0
    0.0085    1.2384    2.5784 O   0  0  0  0  0  0  0  0  0  0  0  0
    1.5039   -0.2798    1.8422 N   0  0  0  0  0  0  0  0  0  0  0  0
    1.5856   -1.0352    1.1643 H   0  0  0  0  0  0  0  0  0  0  0  0
    2.0949   -0.4883    3.1584 C   0  0  0  0  0  0  0  0  0  0  0  0
    1.3661   -0.9428    3.8379 H   0  0  0  0  0  0  0  0  0  0  0  0
    2.9612   -1.1521    3.0820 H   0  0  0  0  0  0  0  0  0  0  0  0
    2.4288    0.4634    3.5852 H   0  0  0  0  0  0  0  0  0  0  0  0
  1  2  1  0  0  0  0
  2  3  1  0  0  0  0
  2  4  1  0  0  0  0
  2  5  1  0  0  0  0
  5  6  2  0  0  0  0
  5  7  1  0  0  0  0
  7  8  1  0  0  0  0
  7  9  1  0  0  0  0
  9 10  1  0  0  0  0
  9 11  1  0  0  0  0
  9 21  1  0  0  0  0
 11 12  1  0  0  0  0
 11 13  1  0  0  0  0
 11 14  1  0  0  0  0
 14 15  1  0  0  0  0
 14 16  1  0  0  0  0
 14 17  1  0  0  0  0
 17 18  2  0  0  0  0
 17 19  1  0  0  0  0
 19 20  1  0  0  0  0
 21 22  2  0  0  0  0
 21 23  1  0  0  0  0
 23 24  1  0  0  0  0
 23 25  1  0  0  0  0
 25 26  1  0  0  0  0
 25 27  1  0  0  0  0
 25 28  1  0  0  0  0
M  END
$$$$

  -OEChem-01062216073D

 28 27  0     1  0  0  0  0  0999 V2000
   -2.9919   -2.8773    1.4208 H   0  0  0  0  0  0  0  0  0  0  0  0
   -3.0652   -1.8709    0.9995 C   0  0  0  0  0  0  0  0  0  0  0  0
   -3.5348   -1.2155    1.7371 H   0  0  0  0  0  0  0  0  0  0  0  0
   -3.6888   -1.9079    0.1033 H   0  0  0  0  0  0  0  0  0  0  0  0
   -1.6845   -1.3493    0.6509 C   0  0  0  0  0  0  0  0  0  0  0  0
   -0.7056   -2.0714    0.7685 O   0  0  0  0  0  0  0  0  0  0  0  0
   -1.5371   -0.0735    0.1423 N   0  0  0  0  0  0  0  0  0  0  0  0
   -2.3766    0.4959    0.1916 H   0  0  0  0  0  0  0  0  0  0  0  0
   -0.2561    0.6485    0.2362 C   0  0  1  0  0  0  0  0  0  0  0  0
    0.4443    0.2089   -0.4809 H   0  0  0  0  0  0  0  0  0  0  0  0
   -0.4826    2.1236   -0.1398 C   0  0  0  0  0  0  0  0  0  0  0  0
   -1.2709    2.5437    0.4957 H   0  0  0  0  0  0  0  0  0  0  0  0
    0.4334    2.6915    0.0598 H   0  0  0  0  0  0  0  0  0  0  0  0
   -0.8584    2.2843   -1.6290 C   0  0  0  0  0  0  0  0  0  0  0  0
   -0.0500    1.8878   -2.2493 H   0  0  0  0  0  0  0  0  0  0  0  0
   -1.7594    1.7065   -1.8498 H   0  0  0  0  0  0  0  0  0  0  0  0
   -1.1184    3.7303   -2.0530 C   0  0  0  0  0  0  0  0  0  0  0  0
   -1.1471    4.6174   -1.2166 O   0  0  0  0  0  0  0  0  0  0  0  0
   -1.3106    3.9478   -3.3737 O   0  0  0  0  0  0  0  0  0  0  0  0
   -1.4558    4.9020   -3.4661 H   0  0  0  0  0  0  0  0  0  0  0  0
    0.3988    0.5507    1.6368 C   0  0  0  0  0  0  0  0  0  0  0  0
   -0.1675    1.0417    2.6065 O   0  0  0  0  0  0  0  0  0  0  0  0
    1.6519   -0.0123    1.7903 N   0  0  0  0  0  0  0  0  0  0  0  0
    1.9651   -0.6039    1.0256 H   0  0  0  0  0  0  0  0  0  0  0  0
    2.2551   -0.2159    3.1017 C   0  0  0  0  0  0  0  0  0  0  0  0
    1.6383   -0.8900    3.7055 H   0  0  0  0  0  0  0  0  0  0  0  0
    3.2510   -0.6566    2.9959 H   0  0  0  0  0  0  0  0  0  0  0  0
    2.3561    0.7378    3.6306 H   0  0  0  0  0  0  0  0  0  0  0  0
  1  2  1  0  0  0  0
  2  3  1  0  0  0  0
  2  4  1  0  0  0  0
  2  5  1  0  0  0  0
  5  6  2  0  0  0  0
  5  7  1  0  0  0  0
  7  8  1  0  0  0  0
  7  9  1  0  0  0  0
  9 10  1  0  0  0  0
  9 11  1  0  0  0  0
  9 21  1  0  0  0  0
 11 12  1  0  0  0  0
 11 13  1  0  0  0  0
 11 14  1  0  0  0  0
 14 15  1  0  0  0  0
 14 16  1  0  0  0  0
 14 17  1  0  0  0  0
 17 18  2  0  0  0  0
 17 19  1  0  0  0  0
 19 20  1  0  0  0  0
 21 22  2  0  0  0  0
 21 23  1  0  0  0  0
 23 24  1  0  0  0  0
 23 25  1  0  0  0  0
 25 26  1  0  0  0  0
 25 27  1  0  0  0  0
 25 28  1  0  0  0  0
M  END
$$$$

  -OEChem-01062216073D

 28 27  0     1  0  0  0  0  0999 V2000
   -2.9874   -2.8826    1.4220 H   0  0  0  0  0  0  0  0  0  0  0  0
   -3.0639   -1.8710    1.0136 C   0  0  0  0  0  0  0  0  0  0  0  0
   -3.5133   -1.2213    1.7686 H   0  0  0  0  0  0  0  0  0  0  0  0
   -3.7069   -1.8940    0.1307 H   0  0  0  0  0  0  0  0  0  0  0  0
   -1.6879   -1.3534    0.6408 C   0  0  0  0  0  0  0  0  0  0  0  0
   -0.7101   -2.0804    0.7360 O   0  0  0  0  0  0  0  0  0  0  0  0
   -1.5446   -0.0791    0.1264 N   0  0  0  0  0  0  0  0  0  0  0  0
   -2.3819    0.4910    0.1968 H   0  0  0  0  0  0  0  0  0  0  0  0
   -0.2627    0.6412    0.2277 C   0  0  1  0  0  0  0  0  0  0  0  0
    0.4400    0.1978   -0.4849 H   0  0  0  0  0  0  0  0  0  0  0  0
   -0.4853    2.1174   -0.1432 C   0  0  0  0  0  0  0  0  0  0  0  0
   -1.2749    2.5358    0.4919 H   0  0  0  0  0  0  0  0  0  0  0  0
    0.4310    2.6835    0.0603 H   0  0  0  0  0  0  0  0  0  0  0  0
   -0.8554    2.2836   -1.6331 C   0  0  0  0  0  0  0  0  0  0  0  0
   -0.0453    1.8881   -2.2518 H   0  0  0  0  0  0  0  0  0  0  0  0
   -1.7564    1.7075   -1.8590 H   0  0  0  0  0  0  0  0  0  0  0  0
   -1.1118    3.7314   -2.0532 C   0  0  0  0  0  0  0  0  0  0  0  0
   -1.1421    4.6155   -1.2136 O   0  0  0  0  0  0  0  0  0  0  0  0
   -1.3013    3.9533   -3.3737 O   0  0  0  0  0  0  0  0  0  0  0  0
   -1.4498    4.9072   -3.4636 H   0  0  0  0  0  0  0  0  0  0  0  0
    0.3847    0.5486    1.6321 C   0  0  0  0  0  0  0  0  0  0  0  0
   -0.2789    0.8321    2.6233 O   0  0  0  0  0  0  0  0  0  0  0  0
    1.7336    0.2787    1.7714 N   0  0  0  0  0  0  0  0  0  0  0  0
    2.2055   -0.1032    0.9572 H   0  0  0  0  0  0  0  0  0  0  0  0
    2.3644    0.1149    3.0755 C   0  0  0  0  0  0  0  0  0  0  0  0
    1.9088   -0.7202    3.6186 H   0  0  0  0  0  0  0  0  0  0  0  0
    3.4325   -0.0899    2.9566 H   0  0  0  0  0  0  0  0  0  0  0  0
    2.2532    1.0262    3.6728 H   0  0  0  0  0  0  0  0  0  0  0  0
  1  2  1  0  0  0  0
  2  3  1  0  0  0  0
  2  4  1  0  0  0  0
  2  5  1  0  0  0  0
  5  6  2  0  0  0  0
  5  7  1  0  0  0  0
  7  8  1  0  0  0  0
  7  9  1  0  0  0  0
  9 10  1  0  0  0  0
  9 11  1  0  0  0  0
  9 21  1  0  0  0  0
 11 12  1  0  0  0  0
 11 13  1  0  0  0  0
 11 14  1  0  0  0  0
 14 15  1  0  0  0  0
 14 16  1  0  0  0  0
 14 17  1  0  0  0  0
 17 18  2  0  0  0  0
 17 19  1  0  0  0  0
 19 20  1  0  0  0  0
 21 22  2  0  0  0  0
 21 23  1  0  0  0  0
 23 24  1  0  0  0  0
 23 25  1  0  0  0  0
 25 26  1  0  0  0  0
 25 27  1  0  0  0  0
 25 28  1  0  0  0  0
M  END
$$$$

  -OEChem-01062216073D

 28 27  0     1  0  0  0  0  0999 V2000
   -3.0000   -2.8930    1.3938 H   0  0  0  0  0  0  0  0  0  0  0  0
   -3.0716   -1.8686    1.0179 C   0  0  0  0  0  0  0  0  0  0  0  0
   -3.4859   -1.2343    1.8054 H   0  0  0  0  0  0  0  0  0  0  0  0
   -3.7410   -1.8544    0.1548 H   0  0  0  0  0  0  0  0  0  0  0  0
   -1.6986   -1.3628    0.6196 C   0  0  0  0  0  0  0  0  0  0  0  0
   -0.7273   -2.1018    0.6813 O   0  0  0  0  0  0  0  0  0  0  0  0
   -1.5531   -0.0866    0.1102 N   0  0  0  0  0  0  0  0  0  0  0  0
   -2.3872    0.4852    0.1999 H   0  0  0  0  0  0  0  0  0  0  0  0
   -0.2693    0.6285    0.2279 C   0  0  1  0  0  0  0  0  0  0  0  0
    0.4378    0.1844   -0.4799 H   0  0  0  0  0  0  0  0  0  0  0  0
   -0.4906    2.1056   -0.1389 C   0  0  0  0  0  0  0  0  0  0  0  0
   -1.2868    2.5196    0.4908 H   0  0  0  0  0  0  0  0  0  0  0  0
    0.4223    2.6736    0.0741 H   0  0  0  0  0  0  0  0  0  0  0  0
   -0.8481    2.2768   -1.6314 C   0  0  0  0  0  0  0  0  0  0  0  0
   -0.0330    1.8836   -2.2451 H   0  0  0  0  0  0  0  0  0  0  0  0
   -1.7469    1.7010   -1.8666 H   0  0  0  0  0  0  0  0  0  0  0  0
   -1.1026    3.7259   -2.0479 C   0  0  0  0  0  0  0  0  0  0  0  0
   -1.1409    4.6059   -1.2042 O   0  0  0  0  0  0  0  0  0  0  0  0
   -1.2819    3.9537   -3.3686 O   0  0  0  0  0  0  0  0  0  0  0  0
   -1.4326    4.9075   -3.4554 H   0  0  0  0  0  0  0  0  0  0  0  0
    0.3743    0.5352    1.6352 C   0  0  0  0  0  0  0  0  0  0  0  0
   -0.3316    0.6150    2.6348 O   0  0  0  0  0  0  0  0  0  0  0  0
    1.7493    0.5723    1.7807 N   0  0  0  0  0  0  0  0  0  0  0  0
    2.3055    0.4158    0.9459 H   0  0  0  0  0  0  0  0  0  0  0  0
    2.4038    0.4839    3.0809 C   0  0  0  0  0  0  0  0  0  0  0  0
    2.1410   -0.4560    3.5782 H   0  0  0  0  0  0  0  0  0  0  0  0
    3.4908    0.5211    2.9614 H   0  0  0  0  0  0  0  0  0  0  0  0
    2.0994    1.3180    3.7223 H   0  0  0  0  0  0  0  0  0  0  0  0
  1  2  1  0  0  0  0
  2  3  1  0  0  0  0
  2  4  1  0  0  0  0
  2  5  1  0  0  0  0
  5  6  2  0  0  0  0
  5  7  1  0  0  0  0
  7  8  1  0  0  0  0
  7  9  1  0  0  0  0
  9 10  1  0  0  0  0
  9 11  1  0  0  0  0
  9 21  1  0  0  0  0
 11 12  1  0  0  0  0
 11 13  1  0  0  0  0
 11 14  1  0  0  0  0
 14 15  1  0  0  0  0
 14 16  1  0  0  0  0
 14 17  1  0  0  0  0
 17 18  2  0  0  0  0
 17 19  1  0  0  0  0
 19 20  1  0  0  0  0
 21 22  2  0  0  0  0
 21 23  1  0  0  0  0
 23 24  1  0  0  0  0
 23 25  1  0  0  0  0
 25 26  1  0  0  0  0
 25 27  1  0  0  0  0
 25 28  1  0  0  0  0
M  END
$$$$

  -OEChem-01062216073D

 28 27  0     1  0  0  0  0  0999 V2000
   -3.0146   -2.8967    1.3839 H   0  0  0  0  0  0  0  0  0  0  0  0
   -3.0806   -1.8666    1.0230 C   0  0  0  0  0  0  0  0  0  0  0  0
   -3.4614   -1.2361    1.8303 H   0  0  0  0  0  0  0  0  0  0  0  0
   -3.7745   -1.8307    0.1801 H   0  0  0  0  0  0  0  0  0  0  0  0
   -1.7114   -1.3767    0.5927 C   0  0  0  0  0  0  0  0  0  0  0  0
   -0.7510   -2.1321    0.6109 O   0  0  0  0  0  0  0  0  0  0  0  0
   -1.5594   -0.0963    0.0952 N   0  0  0  0  0  0  0  0  0  0  0  0
   -2.3895    0.4778    0.2027 H   0  0  0  0  0  0  0  0  0  0  0  0
   -0.2717    0.6108    0.2300 C   0  0  1  0  0  0  0  0  0  0  0  0
    0.4381    0.1687   -0.4766 H   0  0  0  0  0  0  0  0  0  0  0  0
   -0.4939    2.0903   -0.1325 C   0  0  0  0  0  0  0  0  0  0  0  0
   -1.2963    2.4987    0.4928 H   0  0  0  0  0  0  0  0  0  0  0  0
    0.4138    2.6627    0.0888 H   0  0  0  0  0  0  0  0  0  0  0  0
   -0.8401    2.2700   -1.6271 C   0  0  0  0  0  0  0  0  0  0  0  0
   -0.0191    1.8827   -2.2368 H   0  0  0  0  0  0  0  0  0  0  0  0
   -1.7355    1.6937   -1.8742 H   0  0  0  0  0  0  0  0  0  0  0  0
   -1.0942    3.7216   -2.0355 C   0  0  0  0  0  0  0  0  0  0  0  0
   -1.1408    4.5953   -1.1854 O   0  0  0  0  0  0  0  0  0  0  0  0
   -1.2596    3.9596   -3.3563 O   0  0  0  0  0  0  0  0  0  0  0  0
   -1.4098    4.9140   -3.4380 H   0  0  0  0  0  0  0  0  0  0  0  0
    0.3752    0.5116    1.6380 C   0  0  0  0  0  0  0  0  0  0  0  0
   -0.3285    0.3872    2.6349 O   0  0  0  0  0  0  0  0  0  0  0  0
    1.7054    0.8509    1.8134 N   0  0  0  0  0  0  0  0  0  0  0  0
    2.2817    0.9228    0.9807 H   0  0  0  0  0  0  0  0  0  0  0  0
    2.3562    0.8589    3.1185 C   0  0  0  0  0  0  0  0  0  0  0  0
    2.2953   -0.1313    3.5825 H   0  0  0  0  0  0  0  0  0  0  0  0
    3.4115    1.1283    3.0142 H   0  0  0  0  0  0  0  0  0  0  0  0
    1.8782    1.5883    3.7811 H   0  0  0  0  0  0  0  0  0  0  0  0
  1  2  1  0  0  0  0
  2  3  1  0  0  0  0
  2  4  1  0  0  0  0
  2  5  1  0  0  0  0
  5  6  2  0  0  0  0
  5  7  1  0  0  0  0
  7  8  1  0  0  0  0
  7  9  1  0  0  0  0
  9 10  1  0  0  0  0
  9 11  1  0  0  0  0
  9 21  1  0  0  0  0
 11 12  1  0  0  0  0
 11 13  1  0  0  0  0
 11 14  1  0  0  0  0
 14 15  1  0  0  0  0
 14 16  1  0  0  0  0
 14 17  1  0  0  0  0
 17 18  2  0  0  0  0
 17 19  1  0  0  0  0
 19 20  1  0  0  0  0
 21 22  2  0  0  0  0
 21 23  1  0  0  0  0
 23 24  1  0  0  0  0
 23 25  1  0  0  0  0
 25 26  1  0  0  0  0
 25 27  1  0  0  0  0
 25 28  1  0  0  0  0
M  END
$$$$

  -OEChem-01062216073D

 28 27  0     1  0  0  0  0  0999 V2000
   -3.1243   -2.8828    1.2512 H   0  0  0  0  0  0  0  0  0  0  0  0
   -3.1299   -1.8193    0.9960 C   0  0  0  0  0  0  0  0  0  0  0  0
   -3.3939   -1.2470    1.8886 H   0  0  0  0  0  0  0  0  0  0  0  0
   -3.8793   -1.6449    0.2206 H   0  0  0  0  0  0  0  0  0  0  0  0
   -1.7595   -1.3970    0.5025 C   0  0  0  0  0  0  0  0  0  0  0  0
   -0.8816   -2.2294    0.3355 O   0  0  0  0  0  0  0  0  0  0  0  0
   -1.5452   -0.1039    0.0641 N   0  0  0  0  0  0  0  0  0  0  0  0
   -2.3573    0.4897    0.1958 H   0  0  0  0  0  0  0  0  0  0  0  0
   -0.2451    0.5778    0.2463 C   0  0  1  0  0  0  0  0  0  0  0  0
    0.3771    0.3422   -0.6229 H   0  0  0  0  0  0  0  0  0  0  0  0
   -0.5345    2.0934    0.2695 C   0  0  0  0  0  0  0  0  0  0  0  0
   -1.2764    2.3061    1.0481 H   0  0  0  0  0  0  0  0  0  0  0  0
    0.3747    2.6446    0.5314 H   0  0  0  0  0  0  0  0  0  0  0  0
   -1.0325    2.6085   -1.0999 C   0  0  0  0  0  0  0  0  0  0  0  0
   -0.2680    2.4147   -1.8575 H   0  0  0  0  0  0  0  0  0  0  0  0
   -1.9358    2.0703   -1.3980 H   0  0  0  0  0  0  0  0  0  0  0  0
   -1.3556    4.1035   -1.1198 C   0  0  0  0  0  0  0  0  0  0  0  0
   -1.3339    4.7449   -0.0826 O   0  0  0  0  0  0  0  0  0  0  0  0
   -1.6557    4.6437   -2.3223 O   0  0  0  0  0  0  0  0  0  0  0  0
   -1.8311    5.5828   -2.1565 H   0  0  0  0  0  0  0  0  0  0  0  0
    0.6027    0.1826    1.4940 C   0  0  0  0  0  0  0  0  0  0  0  0
    0.0764   -0.3205    2.4803 O   0  0  0  0  0  0  0  0  0  0  0  0
    1.8306    0.7910    1.6995 N   0  0  0  0  0  0  0  0  0  0  0  0
    2.2592    1.2593    0.9077 H   0  0  0  0  0  0  0  0  0  0  0  0
    2.6004    0.6503    2.9311 C   0  0  0  0  0  0  0  0  0  0  0  0
    2.7886   -0.4069    3.1465 H   0  0  0  0  0  0  0  0  0  0  0  0
    3.5637    1.1606    2.8370 H   0  0  0  0  0  0  0  0  0  0  0  0
    2.0573    1.0900    3.7744 H   0  0  0  0  0  0  0  0  0  0  0  0
  1  2  1  0  0  0  0
  2  3  1  0  0  0  0
  2  4  1  0  0  0  0
  2  5  1  0  0  0  0
  5  6  2  0  0  0  0
  5  7  1  0  0  0  0
  7  8  1  0  0  0  0
  7  9  1  0  0  0  0
  9 10  1  0  0  0  0
  9 11  1  0  0  0  0
  9 21  1  0  0  0  0
 11 12  1  0  0  0  0
 11 13  1  0  0  0  0
 11 14  1  0  0  0  0
 14 15  1  0  0  0  0
 14 16  1  0  0  0  0
 14 17  1  0  0  0  0
 17 18  2  0  0  0  0
 17 19  1  0  0  0  0
 19 20  1  0  0  0  0
 21 22  2  0  0  0  0
 21 23  1  0  0  0  0
 23 24  1  0  0  0  0
 23 25  1  0  0  0  0
 25 26  1  0  0  0  0
 25 27  1  0  0  0  0
 25 28  1  0  0  0  0
M  END
$$$$

  -OEChem-01062216073D

 28 27  0     1  0  0  0  0  0999 V2000
   -3.1378   -2.8727    1.2186 H   0  0  0  0  0  0  0  0  0  0  0  0
   -3.1240   -1.7994    1.0094 C   0  0  0  0  0  0  0  0  0  0  0  0
   -3.3434   -1.2601    1.9339 H   0  0  0  0  0  0  0  0  0  0  0  0
   -3.8937   -1.5739    0.2679 H   0  0  0  0  0  0  0  0  0  0  0  0
   -1.7600   -1.3903    0.4876 C   0  0  0  0  0  0  0  0  0  0  0  0
   -0.9187   -2.2385    0.2360 O   0  0  0  0  0  0  0  0  0  0  0  0
   -1.5333   -0.0908    0.0758 N   0  0  0  0  0  0  0  0  0  0  0  0
   -2.3421    0.5024    0.2259 H   0  0  0  0  0  0  0  0  0  0  0  0
   -0.2333    0.5919    0.2672 C   0  0  1  0  0  0  0  0  0  0  0  0
    0.3878    0.3600   -0.6038 H   0  0  0  0  0  0  0  0  0  0  0  0
   -0.5462    2.1061    0.2705 C   0  0  0  0  0  0  0  0  0  0  0  0
   -1.2988    2.3169    1.0392 H   0  0  0  0  0  0  0  0  0  0  0  0
    0.3482    2.6811    0.5281 H   0  0  0  0  0  0  0  0  0  0  0  0
   -1.0360    2.5993   -1.1104 C   0  0  0  0  0  0  0  0  0  0  0  0
   -0.2603    2.4094   -1.8575 H   0  0  0  0  0  0  0  0  0  0  0  0
   -1.9280    2.0456   -1.4144 H   0  0  0  0  0  0  0  0  0  0  0  0
   -1.3803    4.0891   -1.1478 C   0  0  0  0  0  0  0  0  0  0  0  0
   -1.3793    4.7391   -0.1154 O   0  0  0  0  0  0  0  0  0  0  0  0
   -1.6745    4.6150   -2.3581 O   0  0  0  0  0  0  0  0  0  0  0  0
   -1.8656    5.5530   -2.2033 H   0  0  0  0  0  0  0  0  0  0  0  0
    0.6397    0.1969    1.5053 C   0  0  0  0  0  0  0  0  0  0  0  0
    0.2269   -0.5571    2.3772 O   0  0  0  0  0  0  0  0  0  0  0  0
    1.6971    1.0102    1.8847 N   0  0  0  0  0  0  0  0  0  0  0  0
    2.0264    1.6942    1.2113 H   0  0  0  0  0  0  0  0  0  0  0  0
    2.4298    0.8558    3.1379 C   0  0  0  0  0  0  0  0  0  0  0  0
    2.8427   -0.1554    3.2187 H   0  0  0  0  0  0  0  0  0  0  0  0
    3.2566    1.5710    3.1841 H   0  0  0  0  0  0  0  0  0  0  0  0
    1.7692    1.0361    3.9926 H   0  0  0  0  0  0  0  0  0  0  0  0
  1  2  1  0  0  0  0
  2  3  1  0  0  0  0
  2  4  1  0  0  0  0
  2  5  1  0  0  0  0
  5  6  2  0  0  0  0
  5  7  1  0  0  0  0
  7  8  1  0  0  0  0
  7  9  1  0  0  0  0
  9 10  1  0  0  0  0
  9 11  1  0  0  0  0
  9 21  1  0  0  0  0
 11 12  1  0  0  0  0
 11 13  1  0  0  0  0
 11 14  1  0  0  0  0
 14 15  1  0  0  0  0
 14 16  1  0  0  0  0
 14 17  1  0  0  0  0
 17 18  2  0  0  0  0
 17 19  1  0  0  0  0
 19 20  1  0  0  0  0
 21 22  2  0  0  0  0
 21 23  1  0  0  0  0
 23 24  1  0  0  0  0
 23 25  1  0  0  0  0
 25 26  1  0  0  0  0
 25 27  1  0  0  0  0
 25 28  1  0  0  0  0
M  END
$$$$

  -OEChem-01062216073D

 28 27  0     1  0  0  0  0  0999 V2000
   -3.1192   -2.8450    1.2581 H   0  0  0  0  0  0  0  0  0  0  0  0
   -3.1055   -1.7749    1.0327 C   0  0  0  0  0  0  0  0  0  0  0  0
   -3.3046   -1.2212    1.9533 H   0  0  0  0  0  0  0  0  0  0  0  0
   -3.8884   -1.5567    0.3029 H   0  0  0  0  0  0  0  0  0  0  0  0
   -1.7507   -1.3803    0.4768 C   0  0  0  0  0  0  0  0  0  0  0  0
   -0.9545   -2.2413    0.1410 O   0  0  0  0  0  0  0  0  0  0  0  0
   -1.5175   -0.0759    0.0869 N   0  0  0  0  0  0  0  0  0  0  0  0
   -2.3318    0.5101    0.2342 H   0  0  0  0  0  0  0  0  0  0  0  0
   -0.2287    0.6252    0.2942 C   0  0  1  0  0  0  0  0  0  0  0  0
    0.4044    0.3970   -0.5693 H   0  0  0  0  0  0  0  0  0  0  0  0
   -0.5688    2.1345    0.2668 C   0  0  0  0  0  0  0  0  0  0  0  0
   -1.3363    2.3475    1.0199 H   0  0  0  0  0  0  0  0  0  0  0  0
    0.3120    2.7313    0.5197 H   0  0  0  0  0  0  0  0  0  0  0  0
   -1.0400    2.5968   -1.1313 C   0  0  0  0  0  0  0  0  0  0  0  0
   -0.2469    2.4091   -1.8607 H   0  0  0  0  0  0  0  0  0  0  0  0
   -1.9164    2.0230   -1.4437 H   0  0  0  0  0  0  0  0  0  0  0  0
   -1.4096    4.0796   -1.1979 C   0  0  0  0  0  0  0  0  0  0  0  0
   -1.4397    4.7439   -0.1749 O   0  0  0  0  0  0  0  0  0  0  0  0
   -1.6937    4.5816   -2.4204 O   0  0  0  0  0  0  0  0  0  0  0  0
   -1.9060    5.5177   -2.2841 H   0  0  0  0  0  0  0  0  0  0  0  0
    0.6521    0.2404    1.5352 C   0  0  0  0  0  0  0  0  0  0  0  0
    0.4695   -0.7703    2.1971 O   0  0  0  0  0  0  0  0  0  0  0  0
    1.4802    1.1833    2.1274 N   0  0  0  0  0  0  0  0  0  0  0  0
    1.6325    2.0538    1.6294 H   0  0  0  0  0  0  0  0  0  0  0  0
    2.2150    0.9547    3.3685 C   0  0  0  0  0  0  0  0  0  0  0  0
    2.8780    0.0887    3.2680 H   0  0  0  0  0  0  0  0  0  0  0  0
    2.8245    1.8293    3.6148 H   0  0  0  0  0  0  0  0  0  0  0  0
    1.5217    0.7732    4.1967 H   0  0  0  0  0  0  0  0  0  0  0  0
  1  2  1  0  0  0  0
  2  3  1  0  0  0  0
  2  4  1  0  0  0  0
  2  5  1  0  0  0  0
  5  6  2  0  0  0  0
  5  7  1  0  0  0  0
  7  8  1  0  0  0  0
  7  9  1  0  0  0  0
  9 10  1  0  0  0  0
  9 11  1  0  0  0  0
  9 21  1  0  0  0  0
 11 12  1  0  0  0  0
 11 13  1  0  0  0  0
 11 14  1  0  0  0  0
 14 15  1  0  0  0  0
 14 16  1  0  0  0  0
 14 17  1  0  0  0  0
 17 18  2  0  0  0  0
 17 19  1  0  0  0  0
 19 20  1  0  0  0  0
 21 22  2  0  0  0  0
 21 23  1  0  0  0  0
 23 24  1  0  0  0  0
 23 25  1  0  0  0  0
 25 26  1  0  0  0  0
 25 27  1  0  0  0  0
 25 28  1  0  0  0  0
M  END
$$$$

  -OEChem-01062216073D

 28 27  0     1  0  0  0  0  0999 V2000
   -3.1078   -2.8377    1.2859 H   0  0  0  0  0  0  0  0  0  0  0  0
   -3.0935   -1.7672    1.0621 C   0  0  0  0  0  0  0  0  0  0  0  0
   -3.2760   -1.2150    1.9870 H   0  0  0  0  0  0  0  0  0  0  0  0
   -3.8880   -1.5453    0.3460 H   0  0  0  0  0  0  0  0  0  0  0  0
   -1.7463   -1.3766    0.4848 C   0  0  0  0  0  0  0  0  0  0  0  0
   -0.9683   -2.2443    0.1306 O   0  0  0  0  0  0  0  0  0  0  0  0
   -1.5204   -0.0698    0.0982 N   0  0  0  0  0  0  0  0  0  0  0  0
   -2.3462    0.5053    0.2242 H   0  0  0  0  0  0  0  0  0  0  0  0
   -0.2483    0.6562    0.3201 C   0  0  1  0  0  0  0  0  0  0  0  0
    0.4048    0.4221   -0.5275 H   0  0  0  0  0  0  0  0  0  0  0  0
   -0.5865    2.1630    0.2609 C   0  0  0  0  0  0  0  0  0  0  0  0
   -1.3680    2.3922    0.9945 H   0  0  0  0  0  0  0  0  0  0  0  0
    0.2969    2.7566    0.5164 H   0  0  0  0  0  0  0  0  0  0  0  0
   -1.0268    2.6026   -1.1539 C   0  0  0  0  0  0  0  0  0  0  0  0
   -0.2176    2.4034   -1.8624 H   0  0  0  0  0  0  0  0  0  0  0  0
   -1.8958    2.0231   -1.4759 H   0  0  0  0  0  0  0  0  0  0  0  0
   -1.3935    4.0845   -1.2501 C   0  0  0  0  0  0  0  0  0  0  0  0
   -1.4443    4.7626   -0.2366 O   0  0  0  0  0  0  0  0  0  0  0  0
   -1.6544    4.5692   -2.4848 O   0  0  0  0  0  0  0  0  0  0  0  0
   -1.8686    5.5075   -2.3673 H   0  0  0  0  0  0  0  0  0  0  0  0
    0.6108    0.2797    1.5756 C   0  0  0  0  0  0  0  0  0  0  0  0
    0.7981   -0.8695    1.9392 O   0  0  0  0  0  0  0  0  0  0  0  0
    1.1658    1.2633    2.3818 N   0  0  0  0  0  0  0  0  0  0  0  0
    1.0100    2.2316    2.1223 H   0  0  0  0  0  0  0  0  0  0  0  0
    1.9535    0.9800    3.5776 C   0  0  0  0  0  0  0  0  0  0  0  0
    2.8426    0.3948    3.3201 H   0  0  0  0  0  0  0  0  0  0  0  0
    2.2785    1.9131    4.0477 H   0  0  0  0  0  0  0  0  0  0  0  0
    1.3595    0.4159    4.3044 H   0  0  0  0  0  0  0  0  0  0  0  0
  1  2  1  0  0  0  0
  2  3  1  0  0  0  0
  2  4  1  0  0  0  0
  2  5  1  0  0  0  0
  5  6  2  0  0  0  0
  5  7  1  0  0  0  0
  7  8  1  0  0  0  0
  7  9  1  0  0  0  0
  9 10  1  0  0  0  0
  9 11  1  0  0  0  0
  9 21  1  0  0  0  0
 11 12  1  0  0  0  0
 11 13  1  0  0  0  0
 11 14  1  0  0  0  0
 14 15  1  0  0  0  0
 14 16  1  0  0  0  0
 14 17  1  0  0  0  0
 17 18  2  0  0  0  0
 17 19  1  0  0  0  0
 19 20  1  0  0  0  0
 21 22  2  0  0  0  0
 21 23  1  0  0  0  0
 23 24  1  0  0  0  0
 23 25  1  0  0  0  0
 25 26  1  0  0  0  0
 25 27  1  0  0  0  0
 25 28  1  0  0  0  0
M  END
$$$$

  -OEChem-01062216073D

 28 27  0     1  0  0  0  0  0999 V2000
   -3.4650   -2.8517    0.9310 H   0  0  0  0  0  0  0  0  0  0  0  0
   -3.3247   -1.8623    0.4861 C   0  0  0  0  0  0  0  0  0  0  0  0
   -4.1532   -1.2191    0.7918 H   0  0  0  0  0  0  0  0  0  0  0  0
   -3.3311   -1.9646   -0.6016 H   0  0  0  0  0  0  0  0  0  0  0  0
   -2.0068   -1.2654    0.9446 C   0  0  0  0  0  0  0  0  0  0  0  0
   -1.3637   -1.8565    1.7883 O   0  0  0  0  0  0  0  0  0  0  0  0
   -1.6420   -0.0236    0.4541 N   0  0  0  0  0  0  0  0  0  0  0  0
   -2.2926    0.3503   -0.2279 H   0  0  0  0  0  0  0  0  0  0  0  0
   -0.3176    0.6401    0.5136 C   0  0  1  0  0  0  0  0  0  0  0  0
    0.2522    0.3167   -0.3641 H   0  0  0  0  0  0  0  0  0  0  0  0
   -0.5726    2.1584    0.3874 C   0  0  0  0  0  0  0  0  0  0  0  0
   -1.2744    2.4740    1.1680 H   0  0  0  0  0  0  0  0  0  0  0  0
    0.3664    2.7033    0.5382 H   0  0  0  0  0  0  0  0  0  0  0  0
   -1.1154    2.5497   -1.0053 C   0  0  0  0  0  0  0  0  0  0  0  0
   -0.3885    2.2616   -1.7702 H   0  0  0  0  0  0  0  0  0  0  0  0
   -2.0458    2.0165   -1.2124 H   0  0  0  0  0  0  0  0  0  0  0  0
   -1.4006    4.0451   -1.1555 C   0  0  0  0  0  0  0  0  0  0  0  0
   -1.3178    4.7816   -0.1864 O   0  0  0  0  0  0  0  0  0  0  0  0
   -1.7517    4.4732   -2.3888 O   0  0  0  0  0  0  0  0  0  0  0  0
   -1.8924    5.4296   -2.3105 H   0  0  0  0  0  0  0  0  0  0  0  0
    0.6148    0.3137    1.7192 C   0  0  0  0  0  0  0  0  0  0  0  0
    1.3145   -0.6886    1.6621 O   0  0  0  0  0  0  0  0  0  0  0  0
    1.0409    1.3014    2.5951 N   0  0  0  0  0  0  0  0  0  0  0  0
    0.4793    2.1451    2.6456 H   0  0  0  0  0  0  0  0  0  0  0  0
    2.0474    1.0722    3.6263 C   0  0  0  0  0  0  0  0  0  0  0  0
    3.0122    0.8236    3.1717 H   0  0  0  0  0  0  0  0  0  0  0  0
    2.1758    1.9710    4.2370 H   0  0  0  0  0  0  0  0  0  0  0  0
    1.7438    0.2481    4.2811 H   0  0  0  0  0  0  0  0  0  0  0  0
  1  2  1  0  0  0  0
  2  3  1  0  0  0  0
  2  4  1  0  0  0  0
  2  5  1  0  0  0  0
  5  6  2  0  0  0  0
  5  7  1  0  0  0  0
  7  8  1  0  0  0  0
  7  9  1  0  0  0  0
  9 10  1  0  0  0  0
  9 11  1  0  0  0  0
  9 21  1  0  0  0  0
 11 12  1  0  0  0  0
 11 13  1  0  0  0  0
 11 14  1  0  0  0  0
 14 15  1  0  0  0  0
 14 16  1  0  0  0  0
 14 17  1  0  0  0  0
 17 18  2  0  0  0  0
 17 19  1  0  0  0  0
 19 20  1  0  0  0  0
 21 22  2  0  0  0  0
 21 23  1  0  0  0  0
 23 24  1  0  0  0  0
 23 25  1  0  0  0  0
 25 26  1  0  0  0  0
 25 27  1  0  0  0  0
 25 28  1  0  0  0  0
M  END
$$$$

  -OEChem-01062216073D

 28 27  0     1  0  0  0  0  0999 V2000
   -3.4319   -2.8779    0.9430 H   0  0  0  0  0  0  0  0  0  0  0  0
   -3.3252   -1.8734    0.5232 C   0  0  0  0  0  0  0  0  0  0  0  0
   -4.1323   -1.2447    0.9067 H   0  0  0  0  0  0  0  0  0  0  0  0
   -3.4062   -1.9389   -0.5643 H   0  0  0  0  0  0  0  0  0  0  0  0
   -1.9808   -1.2857    0.9104 C   0  0  0  0  0  0  0  0  0  0  0  0
   -1.2746   -1.9007    1.6846 O   0  0  0  0  0  0  0  0  0  0  0  0
   -1.6380   -0.0386    0.4183 N   0  0  0  0  0  0  0  0  0  0  0  0
   -2.3140    0.3549   -0.2274 H   0  0  0  0  0  0  0  0  0  0  0  0
   -0.3195    0.6334    0.4819 C   0  0  1  0  0  0  0  0  0  0  0  0
    0.2525    0.3150   -0.3966 H   0  0  0  0  0  0  0  0  0  0  0  0
   -0.5654    2.1528    0.3708 C   0  0  0  0  0  0  0  0  0  0  0  0
   -1.2696    2.4645    1.1505 H   0  0  0  0  0  0  0  0  0  0  0  0
    0.3779    2.6862    0.5381 H   0  0  0  0  0  0  0  0  0  0  0  0
   -1.1053    2.5613   -1.0174 C   0  0  0  0  0  0  0  0  0  0  0  0
   -0.3781    2.2779   -1.7838 H   0  0  0  0  0  0  0  0  0  0  0  0
   -2.0373    2.0336   -1.2311 H   0  0  0  0  0  0  0  0  0  0  0  0
   -1.3819    4.0596   -1.1525 C   0  0  0  0  0  0  0  0  0  0  0  0
   -1.2954    4.7859   -0.1761 O   0  0  0  0  0  0  0  0  0  0  0  0
   -1.7272    4.5026   -2.3822 O   0  0  0  0  0  0  0  0  0  0  0  0
   -1.8597    5.4592   -2.2942 H   0  0  0  0  0  0  0  0  0  0  0  0
    0.6027    0.3053    1.6911 C   0  0  0  0  0  0  0  0  0  0  0  0
    1.4544   -0.5643    1.5615 O   0  0  0  0  0  0  0  0  0  0  0  0
    0.7706    1.2031    2.7339 N   0  0  0  0  0  0  0  0  0  0  0  0
    0.0552    1.9136    2.8477 H   0  0  0  0  0  0  0  0  0  0  0  0
    1.7230    0.9906    3.8178 C   0  0  0  0  0  0  0  0  0  0  0  0
    2.7466    0.9640    3.4294 H   0  0  0  0  0  0  0  0  0  0  0  0
    1.6529    1.8021    4.5483 H   0  0  0  0  0  0  0  0  0  0  0  0
    1.5157    0.0441    4.3288 H   0  0  0  0  0  0  0  0  0  0  0  0
  1  2  1  0  0  0  0
  2  3  1  0  0  0  0
  2  4  1  0  0  0  0
  2  5  1  0  0  0  0
  5  6  2  0  0  0  0
  5  7  1  0  0  0  0
  7  8  1  0  0  0  0
  7  9  1  0  0  0  0
  9 10  1  0  0  0  0
  9 11  1  0  0  0  0
  9 21  1  0  0  0  0
 11 12  1  0  0  0  0
 11 13  1  0  0  0  0
 11 14  1  0  0  0  0
 14 15  1  0  0  0  0
 14 16  1  0  0  0  0
 14 17  1  0  0  0  0
 17 18  2  0  0  0  0
 17 19  1  0  0  0  0
 19 20  1  0  0  0  0
 21 22  2  0  0  0  0
 21 23  1  0  0  0  0
 23 24  1  0  0  0  0
 23 25  1  0  0  0  0
 25 26  1  0  0  0  0
 25 27  1  0  0  0  0
 25 28  1  0  0  0  0
M  END
$$$$

  -OEChem-01062216073D

 28 27  0     1  0  0  0  0  0999 V2000
   -3.4136   -2.8844    0.9822 H   0  0  0  0  0  0  0  0  0  0  0  0
   -3.3171   -1.8854    0.5470 C   0  0  0  0  0  0  0  0  0  0  0  0
   -4.1148   -1.2516    0.9416 H   0  0  0  0  0  0  0  0  0  0  0  0
   -3.4240   -1.9647   -0.5374 H   0  0  0  0  0  0  0  0  0  0  0  0
   -1.9639   -1.2933    0.8942 C   0  0  0  0  0  0  0  0  0  0  0  0
   -1.2217   -1.9133    1.6309 O   0  0  0  0  0  0  0  0  0  0  0  0
   -1.6358   -0.0455    0.3940 N   0  0  0  0  0  0  0  0  0  0  0  0
   -2.3258    0.3553   -0.2324 H   0  0  0  0  0  0  0  0  0  0  0  0
   -0.3196    0.6295    0.4543 C   0  0  1  0  0  0  0  0  0  0  0  0
    0.2513    0.3139   -0.4258 H   0  0  0  0  0  0  0  0  0  0  0  0
   -0.5558    2.1496    0.3576 C   0  0  0  0  0  0  0  0  0  0  0  0
   -1.2548    2.4597    1.1424 H   0  0  0  0  0  0  0  0  0  0  0  0
    0.3925    2.6724    0.5309 H   0  0  0  0  0  0  0  0  0  0  0  0
   -1.1007    2.5732   -1.0241 C   0  0  0  0  0  0  0  0  0  0  0  0
   -0.3793    2.2916   -1.7967 H   0  0  0  0  0  0  0  0  0  0  0  0
   -2.0372    2.0530   -1.2369 H   0  0  0  0  0  0  0  0  0  0  0  0
   -1.3686    4.0744   -1.1454 C   0  0  0  0  0  0  0  0  0  0  0  0
   -1.2724    4.7925   -0.1640 O   0  0  0  0  0  0  0  0  0  0  0  0
   -1.7215    4.5288   -2.3688 O   0  0  0  0  0  0  0  0  0  0  0  0
   -1.8449    5.4858   -2.2725 H   0  0  0  0  0  0  0  0  0  0  0  0
    0.5977    0.3043    1.6645 C   0  0  0  0  0  0  0  0  0  0  0  0
    1.5849   -0.3972    1.4861 O   0  0  0  0  0  0  0  0  0  0  0  0
    0.5288    1.0463    2.8321 N   0  0  0  0  0  0  0  0  0  0  0  0
   -0.3226    1.5767    2.9842 H   0  0  0  0  0  0  0  0  0  0  0  0
    1.4200    0.8174    3.9632 C   0  0  0  0  0  0  0  0  0  0  0  0
    2.4616    0.9905    3.6726 H   0  0  0  0  0  0  0  0  0  0  0  0
    1.1741    1.4986    4.7833 H   0  0  0  0  0  0  0  0  0  0  0  0
    1.3215   -0.2121    4.3242 H   0  0  0  0  0  0  0  0  0  0  0  0
  1  2  1  0  0  0  0
  2  3  1  0  0  0  0
  2  4  1  0  0  0  0
  2  5  1  0  0  0  0
  5  6  2  0  0  0  0
  5  7  1  0  0  0  0
  7  8  1  0  0  0  0
  7  9  1  0  0  0  0
  9 10  1  0  0  0  0
  9 11  1  0  0  0  0
  9 21  1  0  0  0  0
 11 12  1  0  0  0  0
 11 13  1  0  0  0  0
 11 14  1  0  0  0  0
 14 15  1  0  0  0  0
 14 16  1  0  0  0  0
 14 17  1  0  0  0  0
 17 18  2  0  0  0  0
 17 19  1  0  0  0  0
 19 20  1  0  0  0  0
 21 22  2  0  0  0  0
 21 23  1  0  0  0  0
 23 24  1  0  0  0  0
 23 25  1  0  0  0  0
 25 26  1  0  0  0  0
 25 27  1  0  0  0  0
 25 28  1  0  0  0  0
M  END
$$$$

  -OEChem-01062216073D

 28 27  0     1  0  0  0  0  0999 V2000
   -3.4016   -2.8875    0.9906 H   0  0  0  0  0  0  0  0  0  0  0  0
   -3.3150   -1.8835    0.5650 C   0  0  0  0  0  0  0  0  0  0  0  0
   -4.0990   -1.2524    0.9904 H   0  0  0  0  0  0  0  0  0  0  0  0
   -3.4544   -1.9492   -0.5168 H   0  0  0  0  0  0  0  0  0  0  0  0
   -1.9504   -1.2988    0.8784 C   0  0  0  0  0  0  0  0  0  0  0  0
   -1.1875   -1.9251    1.5890 O   0  0  0  0  0  0  0  0  0  0  0  0
   -1.6264   -0.0527    0.3722 N   0  0  0  0  0  0  0  0  0  0  0  0
   -2.3248    0.3549   -0.2405 H   0  0  0  0  0  0  0  0  0  0  0  0
   -0.3114    0.6248    0.4316 C   0  0  1  0  0  0  0  0  0  0  0  0
    0.2606    0.3132   -0.4493 H   0  0  0  0  0  0  0  0  0  0  0  0
   -0.5444    2.1457    0.3506 C   0  0  0  0  0  0  0  0  0  0  0  0
   -1.2374    2.4512    1.1424 H   0  0  0  0  0  0  0  0  0  0  0  0
    0.4063    2.6638    0.5261 H   0  0  0  0  0  0  0  0  0  0  0  0
   -1.0954    2.5802   -1.0253 C   0  0  0  0  0  0  0  0  0  0  0  0
   -0.3784    2.3021   -1.8034 H   0  0  0  0  0  0  0  0  0  0  0  0
   -2.0336    2.0623   -1.2362 H   0  0  0  0  0  0  0  0  0  0  0  0
   -1.3627    4.0821   -1.1377 C   0  0  0  0  0  0  0  0  0  0  0  0
   -1.2617    4.7958   -0.1536 O   0  0  0  0  0  0  0  0  0  0  0  0
   -1.7218    4.5424   -2.3572 O   0  0  0  0  0  0  0  0  0  0  0  0
   -1.8446    5.4990   -2.2551 H   0  0  0  0  0  0  0  0  0  0  0  0
    0.5994    0.3051    1.6447 C   0  0  0  0  0  0  0  0  0  0  0  0
    1.7036   -0.1852    1.4471 O   0  0  0  0  0  0  0  0  0  0  0  0
    0.3199    0.8348    2.8924 N   0  0  0  0  0  0  0  0  0  0  0  0
   -0.6368    1.1367    3.0441 H   0  0  0  0  0  0  0  0  0  0  0  0
    1.1574    0.5737    4.0564 C   0  0  0  0  0  0  0  0  0  0  0  0
    2.1756    0.9402    3.8878 H   0  0  0  0  0  0  0  0  0  0  0  0
    0.7512    1.0811    4.9364 H   0  0  0  0  0  0  0  0  0  0  0  0
    1.1996   -0.5011    4.2629 H   0  0  0  0  0  0  0  0  0  0  0  0
  1  2  1  0  0  0  0
  2  3  1  0  0  0  0
  2  4  1  0  0  0  0
  2  5  1  0  0  0  0
  5  6  2  0  0  0  0
  5  7  1  0  0  0  0
  7  8  1  0  0  0  0
  7  9  1  0  0  0  0
  9 10  1  0  0  0  0
  9 11  1  0  0  0  0
  9 21  1  0  0  0  0
 11 12  1  0  0  0  0
 11 13  1  0  0  0  0
 11 14  1  0  0  0  0
 14 15  1  0  0  0  0
 14 16  1  0  0  0  0
 14 17  1  0  0  0  0
 17 18  2  0  0  0  0
 17 19  1  0  0  0  0
 19 20  1  0  0  0  0
 21 22  2  0  0  0  0
 21 23  1  0  0  0  0
 23 24  1  0  0  0  0
 23 25  1  0  0  0  0
 25 26  1  0  0  0  0
 25 27  1  0  0  0  0
 25 28  1  0  0  0  0
M  END
$$$$

  -OEChem-01062216073D

 28 27  0     1  0  0  0  0  0999 V2000
   -3.4128   -2.8823    0.9920 H   0  0  0  0  0  0  0  0  0  0  0  0
   -3.3255   -1.8784    0.5664 C   0  0  0  0  0  0  0  0  0  0  0  0
   -4.0996   -1.2429    1.0032 H   0  0  0  0  0  0  0  0  0  0  0  0
   -3.4800   -1.9417   -0.5135 H   0  0  0  0  0  0  0  0  0  0  0  0
   -1.9528   -1.3037    0.8621 C   0  0  0  0  0  0  0  0  0  0  0  0
   -1.1817   -1.9376    1.5574 O   0  0  0  0  0  0  0  0  0  0  0  0
   -1.6235   -0.0604    0.3531 N   0  0  0  0  0  0  0  0  0  0  0  0
   -2.3268    0.3597   -0.2460 H   0  0  0  0  0  0  0  0  0  0  0  0
   -0.3087    0.6176    0.4189 C   0  0  1  0  0  0  0  0  0  0  0  0
    0.2685    0.3089   -0.4595 H   0  0  0  0  0  0  0  0  0  0  0  0
   -0.5407    2.1381    0.3491 C   0  0  0  0  0  0  0  0  0  0  0  0
   -1.2314    2.4384    1.1452 H   0  0  0  0  0  0  0  0  0  0  0  0
    0.4105    2.6541    0.5283 H   0  0  0  0  0  0  0  0  0  0  0  0
   -1.0902    2.5821   -1.0243 C   0  0  0  0  0  0  0  0  0  0  0  0
   -0.3720    2.3096   -1.8031 H   0  0  0  0  0  0  0  0  0  0  0  0
   -2.0278    2.0655   -1.2400 H   0  0  0  0  0  0  0  0  0  0  0  0
   -1.3575    4.0845   -1.1280 C   0  0  0  0  0  0  0  0  0  0  0  0
   -1.2581    4.7932   -0.1404 O   0  0  0  0  0  0  0  0  0  0  0  0
   -1.7170    4.5506   -2.3452 O   0  0  0  0  0  0  0  0  0  0  0  0
   -1.8398    5.5065   -2.2378 H   0  0  0  0  0  0  0  0  0  0  0  0
    0.5969    0.3087    1.6370 C   0  0  0  0  0  0  0  0  0  0  0  0
    1.7817    0.0633    1.4501 O   0  0  0  0  0  0  0  0  0  0  0  0
    0.1589    0.5792    2.9211 N   0  0  0  0  0  0  0  0  0  0  0  0
   -0.8483    0.6221    3.0364 H   0  0  0  0  0  0  0  0  0  0  0  0
    0.9720    0.2845    4.0943 C   0  0  0  0  0  0  0  0  0  0  0  0
    1.9165    0.8378    4.0569 H   0  0  0  0  0  0  0  0  0  0  0  0
    0.4406    0.5740    5.0057 H   0  0  0  0  0  0  0  0  0  0  0  0
    1.1931   -0.7869    4.1454 H   0  0  0  0  0  0  0  0  0  0  0  0
  1  2  1  0  0  0  0
  2  3  1  0  0  0  0
  2  4  1  0  0  0  0
  2  5  1  0  0  0  0
  5  6  2  0  0  0  0
  5  7  1  0  0  0  0
  7  8  1  0  0  0  0
  7  9  1  0  0  0  0
  9 10  1  0  0  0  0
  9 11  1  0  0  0  0
  9 21  1  0  0  0  0
 11 12  1  0  0  0  0
 11 13  1  0  0  0  0
 11 14  1  0  0  0  0
 14 15  1  0  0  0  0
 14 16  1  0  0  0  0
 14 17  1  0  0  0  0
 17 18  2  0  0  0  0
 17 19  1  0  0  0  0
 19 20  1  0  0  0  0
 21 22  2  0  0  0  0
 21 23  1  0  0  0  0
 23 24  1  0  0  0  0
 23 25  1  0  0  0  0
 25 26  1  0  0  0  0
 25 27  1  0  0  0  0
 25 28  1  0  0  0  0
M  END
$$$$

  -OEChem-01062216073D

 28 27  0     1  0  0  0  0  0999 V2000
   -3.4727   -2.8674    0.9414 H   0  0  0  0  0  0  0  0  0  0  0  0
   -3.3671   -1.8606    0.5270 C   0  0  0  0  0  0  0  0  0  0  0  0
   -4.1307   -1.2164    0.9695 H   0  0  0  0  0  0  0  0  0  0  0  0
   -3.5217   -1.9095   -0.5536 H   0  0  0  0  0  0  0  0  0  0  0  0
   -1.9853   -1.3126    0.8302 C   0  0  0  0  0  0  0  0  0  0  0  0
   -1.2220   -1.9673    1.5151 O   0  0  0  0  0  0  0  0  0  0  0  0
   -1.6335   -0.0703    0.3364 N   0  0  0  0  0  0  0  0  0  0  0  0
   -2.3354    0.3761   -0.2454 H   0  0  0  0  0  0  0  0  0  0  0  0
   -0.3166    0.6033    0.4263 C   0  0  1  0  0  0  0  0  0  0  0  0
    0.2699    0.2990   -0.4473 H   0  0  0  0  0  0  0  0  0  0  0  0
   -0.5530    2.1238    0.3620 C   0  0  0  0  0  0  0  0  0  0  0  0
   -1.2554    2.4158    1.1510 H   0  0  0  0  0  0  0  0  0  0  0  0
    0.3928    2.6441    0.5575 H   0  0  0  0  0  0  0  0  0  0  0  0
   -1.0838    2.5734   -1.0172 C   0  0  0  0  0  0  0  0  0  0  0  0
   -0.3520    2.3083   -1.7859 H   0  0  0  0  0  0  0  0  0  0  0  0
   -2.0157    2.0542   -1.2504 H   0  0  0  0  0  0  0  0  0  0  0  0
   -1.3557    4.0751   -1.1187 C   0  0  0  0  0  0  0  0  0  0  0  0
   -1.2743    4.7804   -0.1272 O   0  0  0  0  0  0  0  0  0  0  0  0
   -1.6965    4.5452   -2.3399 O   0  0  0  0  0  0  0  0  0  0  0  0
   -1.8216    5.5006   -2.2307 H   0  0  0  0  0  0  0  0  0  0  0  0
    0.5895    0.3050    1.6478 C   0  0  0  0  0  0  0  0  0  0  0  0
    1.8044    0.3304    1.4966 O   0  0  0  0  0  0  0  0  0  0  0  0
    0.0702    0.2785    2.9293 N   0  0  0  0  0  0  0  0  0  0  0  0
   -0.9094    0.0137    2.9757 H   0  0  0  0  0  0  0  0  0  0  0  0
    0.9029   -0.0104    4.0901 C   0  0  0  0  0  0  0  0  0  0  0  0
    1.7088    0.7259    4.1785 H   0  0  0  0  0  0  0  0  0  0  0  0
    0.3030    0.0265    5.0043 H   0  0  0  0  0  0  0  0  0  0  0  0
    1.3453   -1.0084    4.0029 H   0  0  0  0  0  0  0  0  0  0  0  0
  1  2  1  0  0  0  0
  2  3  1  0  0  0  0
  2  4  1  0  0  0  0
  2  5  1  0  0  0  0
  5  6  2  0  0  0  0
  5  7  1  0  0  0  0
  7  8  1  0  0  0  0
  7  9  1  0  0  0  0
  9 10  1  0  0  0  0
  9 11  1  0  0  0  0
  9 21  1  0  0  0  0
 11 12  1  0  0  0  0
 11 13  1  0  0  0  0
 11 14  1  0  0  0  0
 14 15  1  0  0  0  0
 14 16  1  0  0  0  0
 14 17  1  0  0  0  0
 17 18  2  0  0  0  0
 17 19  1  0  0  0  0
 19 20  1  0  0  0  0
 21 22  2  0  0  0  0
 21 23  1  0  0  0  0
 23 24  1  0  0  0  0
 23 25  1  0  0  0  0
 25 26  1  0  0  0  0
 25 27  1  0  0  0  0
 25 28  1  0  0  0  0
M  END
$$$$

  -OEChem-01062216073D

 28 27  0     1  0  0  0  0  0999 V2000
   -3.5672   -2.8318    0.8702 H   0  0  0  0  0  0  0  0  0  0  0  0
   -3.4300   -1.8206    0.4763 C   0  0  0  0  0  0  0  0  0  0  0  0
   -4.1646   -1.1593    0.9422 H   0  0  0  0  0  0  0  0  0  0  0  0
   -3.5992   -1.8399   -0.6030 H   0  0  0  0  0  0  0  0  0  0  0  0
   -2.0256   -1.3292    0.7732 C   0  0  0  0  0  0  0  0  0  0  0  0
   -1.2714   -2.0330    1.4189 O   0  0  0  0  0  0  0  0  0  0  0  0
   -1.6392   -0.0862    0.3098 N   0  0  0  0  0  0  0  0  0  0  0  0
   -2.3467    0.4096   -0.2231 H   0  0  0  0  0  0  0  0  0  0  0  0
   -0.3205    0.5812    0.4357 C   0  0  1  0  0  0  0  0  0  0  0  0
    0.2790    0.2872   -0.4325 H   0  0  0  0  0  0  0  0  0  0  0  0
   -0.5713    2.1012    0.3769 C   0  0  0  0  0  0  0  0  0  0  0  0
   -1.2925    2.3793    1.1539 H   0  0  0  0  0  0  0  0  0  0  0  0
    0.3631    2.6326    0.5953 H   0  0  0  0  0  0  0  0  0  0  0  0
   -1.0759    2.5572   -1.0105 C   0  0  0  0  0  0  0  0  0  0  0  0
   -0.3237    2.3060   -1.7640 H   0  0  0  0  0  0  0  0  0  0  0  0
   -1.9967    2.0312   -1.2704 H   0  0  0  0  0  0  0  0  0  0  0  0
   -1.3607    4.0567   -1.1062 C   0  0  0  0  0  0  0  0  0  0  0  0
   -1.3089    4.7553   -0.1081 O   0  0  0  0  0  0  0  0  0  0  0  0
   -1.6771    4.5327   -2.3315 O   0  0  0  0  0  0  0  0  0  0  0  0
   -1.8133    5.4860   -2.2181 H   0  0  0  0  0  0  0  0  0  0  0  0
    0.5864    0.2888    1.6622 C   0  0  0  0  0  0  0  0  0  0  0  0
    1.7771    0.5637    1.5786 O   0  0  0  0  0  0  0  0  0  0  0  0
    0.0674   -0.0472    2.8986 N   0  0  0  0  0  0  0  0  0  0  0  0
   -0.8042   -0.5713    2.8400 H   0  0  0  0  0  0  0  0  0  0  0  0
    0.9249   -0.3074    4.0486 C   0  0  0  0  0  0  0  0  0  0  0  0
    1.5349    0.5721    4.2805 H   0  0  0  0  0  0  0  0  0  0  0  0
    0.3172   -0.5441    4.9270 H   0  0  0  0  0  0  0  0  0  0  0  0
    1.5897   -1.1537    3.8460 H   0  0  0  0  0  0  0  0  0  0  0  0
  1  2  1  0  0  0  0
  2  3  1  0  0  0  0
  2  4  1  0  0  0  0
  2  5  1  0  0  0  0
  5  6  2  0  0  0  0
  5  7  1  0  0  0  0
  7  8  1  0  0  0  0
  7  9  1  0  0  0  0
  9 10  1  0  0  0  0
  9 11  1  0  0  0  0
  9 21  1  0  0  0  0
 11 12  1  0  0  0  0
 11 13  1  0  0  0  0
 11 14  1  0  0  0  0
 14 15  1  0  0  0  0
 14 16  1  0  0  0  0
 14 17  1  0  0  0  0
 17 18  2  0  0  0  0
 17 19  1  0  0  0  0
 19 20  1  0  0  0  0
 21 22  2  0  0  0  0
 21 23  1  0  0  0  0
 23 24  1  0  0  0  0
 23 25  1  0  0  0  0
 25 26  1  0  0  0  0
 25 27  1  0  0  0  0
 25 28  1  0  0  0  0
M  END
$$$$

  -OEChem-01062216073D

 28 27  0     1  0  0  0  0  0999 V2000
   -3.6312   -2.7778    0.8801 H   0  0  0  0  0  0  0  0  0  0  0  0
   -3.4686   -1.7721    0.4820 C   0  0  0  0  0  0  0  0  0  0  0  0
   -4.1413   -1.0796    0.9938 H   0  0  0  0  0  0  0  0  0  0  0  0
   -3.7021   -1.7757   -0.5854 H   0  0  0  0  0  0  0  0  0  0  0  0
   -2.0271   -1.3511    0.6960 C   0  0  0  0  0  0  0  0  0  0  0  0
   -1.2528   -2.1289    1.2227 O   0  0  0  0  0  0  0  0  0  0  0  0
   -1.6223   -0.1020    0.2667 N   0  0  0  0  0  0  0  0  0  0  0  0
   -2.3539    0.4521   -0.1669 H   0  0  0  0  0  0  0  0  0  0  0  0
   -0.3102    0.5714    0.4367 C   0  0  1  0  0  0  0  0  0  0  0  0
    0.3112    0.2925   -0.4207 H   0  0  0  0  0  0  0  0  0  0  0  0
   -0.5904    2.0890    0.3785 C   0  0  0  0  0  0  0  0  0  0  0  0
   -1.3385    2.3475    1.1365 H   0  0  0  0  0  0  0  0  0  0  0  0
    0.3239    2.6420    0.6251 H   0  0  0  0  0  0  0  0  0  0  0  0
   -1.0637    2.5476   -1.0196 C   0  0  0  0  0  0  0  0  0  0  0  0
   -0.2852    2.3180   -1.7530 H   0  0  0  0  0  0  0  0  0  0  0  0
   -1.9658    2.0066   -1.3128 H   0  0  0  0  0  0  0  0  0  0  0  0
   -1.3742    4.0430   -1.1088 C   0  0  0  0  0  0  0  0  0  0  0  0
   -1.3641    4.7320   -0.1026 O   0  0  0  0  0  0  0  0  0  0  0  0
   -1.6690    4.5255   -2.3370 O   0  0  0  0  0  0  0  0  0  0  0  0
   -1.8283    5.4745   -2.2167 H   0  0  0  0  0  0  0  0  0  0  0  0
    0.5845    0.2829    1.6783 C   0  0  0  0  0  0  0  0  0  0  0  0
    1.7163    0.7513    1.6956 O   0  0  0  0  0  0  0  0  0  0  0  0
    0.1243   -0.3487    2.8179 N   0  0  0  0  0  0  0  0  0  0  0  0
   -0.6491   -0.9909    2.6443 H   0  0  0  0  0  0  0  0  0  0  0  0
    0.9913   -0.6401    3.9530 C   0  0  0  0  0  0  0  0  0  0  0  0
    1.4165    0.2837    4.3591 H   0  0  0  0  0  0  0  0  0  0  0  0
    0.4204   -1.1327    4.7456 H   0  0  0  0  0  0  0  0  0  0  0  0
    1.8096   -1.3018    3.6504 H   0  0  0  0  0  0  0  0  0  0  0  0
  1  2  1  0  0  0  0
  2  3  1  0  0  0  0
  2  4  1  0  0  0  0
  2  5  1  0  0  0  0
  5  6  2  0  0  0  0
  5  7  1  0  0  0  0
  7  8  1  0  0  0  0
  7  9  1  0  0  0  0
  9 10  1  0  0  0  0
  9 11  1  0  0  0  0
  9 21  1  0  0  0  0
 11 12  1  0  0  0  0
 11 13  1  0  0  0  0
 11 14  1  0  0  0  0
 14 15  1  0  0  0  0
 14 16  1  0  0  0  0
 14 17  1  0  0  0  0
 17 18  2  0  0  0  0
 17 19  1  0  0  0  0
 19 20  1  0  0  0  0
 21 22  2  0  0  0  0
 21 23  1  0  0  0  0
 23 24  1  0  0  0  0
 23 25  1  0  0  0  0
 25 26  1  0  0  0  0
 25 27  1  0  0  0  0
 25 28  1  0  0  0  0
M  END
$$$$

  -OEChem-01062216073D

 28 27  0     1  0  0  0  0  0999 V2000
   -3.6797   -2.7320    0.8779 H   0  0  0  0  0  0  0  0  0  0  0  0
   -3.4993   -1.7257    0.4890 C   0  0  0  0  0  0  0  0  0  0  0  0
   -4.1161   -1.0181    1.0486 H   0  0  0  0  0  0  0  0  0  0  0  0
   -3.7896   -1.6994   -0.5642 H   0  0  0  0  0  0  0  0  0  0  0  0
   -2.0331   -1.3633    0.6319 C   0  0  0  0  0  0  0  0  0  0  0  0
   -1.2485   -2.2048    1.0311 O   0  0  0  0  0  0  0  0  0  0  0  0
   -1.6145   -0.1068    0.2397 N   0  0  0  0  0  0  0  0  0  0  0  0
   -2.3629    0.4897   -0.0991 H   0  0  0  0  0  0  0  0  0  0  0  0
   -0.3062    0.5663    0.4444 C   0  0  1  0  0  0  0  0  0  0  0  0
    0.3290    0.3009   -0.4069 H   0  0  0  0  0  0  0  0  0  0  0  0
   -0.6084    2.0824    0.3858 C   0  0  0  0  0  0  0  0  0  0  0  0
   -1.3757    2.3275    1.1287 H   0  0  0  0  0  0  0  0  0  0  0  0
    0.2892    2.6529    0.6508 H   0  0  0  0  0  0  0  0  0  0  0  0
   -1.0566    2.5388   -1.0221 C   0  0  0  0  0  0  0  0  0  0  0  0
   -0.2569    2.3246   -1.7369 H   0  0  0  0  0  0  0  0  0  0  0  0
   -1.9424    1.9843   -1.3393 H   0  0  0  0  0  0  0  0  0  0  0  0
   -1.3882    4.0294   -1.1146 C   0  0  0  0  0  0  0  0  0  0  0  0
   -1.4121    4.7152   -0.1065 O   0  0  0  0  0  0  0  0  0  0  0  0
   -1.6600    4.5116   -2.3482 O   0  0  0  0  0  0  0  0  0  0  0  0
   -1.8342    5.4582   -2.2298 H   0  0  0  0  0  0  0  0  0  0  0  0
    0.5823    0.2657    1.6931 C   0  0  0  0  0  0  0  0  0  0  0  0
    1.6263    0.8928    1.8267 O   0  0  0  0  0  0  0  0  0  0  0  0
    0.2477   -0.6250    2.6952 N   0  0  0  0  0  0  0  0  0  0  0  0
   -0.4429   -1.3270    2.4261 H   0  0  0  0  0  0  0  0  0  0  0  0
    1.1394   -0.9441    3.8040 C   0  0  0  0  0  0  0  0  0  0  0  0
    1.3756   -0.0423    4.3787 H   0  0  0  0  0  0  0  0  0  0  0  0
    0.6624   -1.6641    4.4757 H   0  0  0  0  0  0  0  0  0  0  0  0
    2.0727   -1.3804    3.4327 H   0  0  0  0  0  0  0  0  0  0  0  0
  1  2  1  0  0  0  0
  2  3  1  0  0  0  0
  2  4  1  0  0  0  0
  2  5  1  0  0  0  0
  5  6  2  0  0  0  0
  5  7  1  0  0  0  0
  7  8  1  0  0  0  0
  7  9  1  0  0  0  0
  9 10  1  0  0  0  0
  9 11  1  0  0  0  0
  9 21  1  0  0  0  0
 11 12  1  0  0  0  0
 11 13  1  0  0  0  0
 11 14  1  0  0  0  0
 14 15  1  0  0  0  0
 14 16  1  0  0  0  0
 14 17  1  0  0  0  0
 17 18  2  0  0  0  0
 17 19  1  0  0  0  0
 19 20  1  0  0  0  0
 21 22  2  0  0  0  0
 21 23  1  0  0  0  0
 23 24  1  0  0  0  0
 23 25  1  0  0  0  0
 25 26  1  0  0  0  0
 25 27  1  0  0  0  0
 25 28  1  0  0  0  0
M  END
$$$$

  -OEChem-01062216073D

 28 27  0     1  0  0  0  0  0999 V2000
   -3.7265   -2.6765    1.0064 H   0  0  0  0  0  0  0  0  0  0  0  0
   -3.5438   -1.6655    0.6307 C   0  0  0  0  0  0  0  0  0  0  0  0
   -4.0855   -0.9551    1.2601 H   0  0  0  0  0  0  0  0  0  0  0  0
   -3.9210   -1.5977   -0.3927 H   0  0  0  0  0  0  0  0  0  0  0  0
   -2.0587   -1.3564    0.6570 C   0  0  0  0  0  0  0  0  0  0  0  0
   -1.2720   -2.2448    0.9318 O   0  0  0  0  0  0  0  0  0  0  0  0
   -1.6295   -0.1059    0.2574 N   0  0  0  0  0  0  0  0  0  0  0  0
   -2.3884    0.5199    0.0058 H   0  0  0  0  0  0  0  0  0  0  0  0
   -0.3100    0.5535    0.4374 C   0  0  1  0  0  0  0  0  0  0  0  0
    0.3082    0.2701   -0.4204 H   0  0  0  0  0  0  0  0  0  0  0  0
   -0.6044    2.0721    0.3500 C   0  0  0  0  0  0  0  0  0  0  0  0
   -1.3611    2.3388    1.0963 H   0  0  0  0  0  0  0  0  0  0  0  0
    0.2978    2.6467    0.5882 H   0  0  0  0  0  0  0  0  0  0  0  0
   -1.0630    2.4995   -1.0639 C   0  0  0  0  0  0  0  0  0  0  0  0
   -0.2717    2.2641   -1.7814 H   0  0  0  0  0  0  0  0  0  0  0  0
   -1.9549    1.9435   -1.3604 H   0  0  0  0  0  0  0  0  0  0  0  0
   -1.3875    3.9893   -1.1878 C   0  0  0  0  0  0  0  0  0  0  0  0
   -1.3990    4.6985   -0.1957 O   0  0  0  0  0  0  0  0  0  0  0  0
   -1.6649    4.4450   -2.4303 O   0  0  0  0  0  0  0  0  0  0  0  0
   -1.8304    5.3954   -2.3325 H   0  0  0  0  0  0  0  0  0  0  0  0
    0.5996    0.2450    1.6735 C   0  0  0  0  0  0  0  0  0  0  0  0
    1.5353    0.9968    1.9186 O   0  0  0  0  0  0  0  0  0  0  0  0
    0.4369   -0.8307    2.5246 N   0  0  0  0  0  0  0  0  0  0  0  0
   -0.1915   -1.5637    2.1924 H   0  0  0  0  0  0  0  0  0  0  0  0
    1.3699   -1.1602    3.5957 C   0  0  0  0  0  0  0  0  0  0  0  0
    1.4576   -0.3261    4.3000 H   0  0  0  0  0  0  0  0  0  0  0  0
    1.0170   -2.0380    4.1451 H   0  0  0  0  0  0  0  0  0  0  0  0
    2.3610   -1.3813    3.1859 H   0  0  0  0  0  0  0  0  0  0  0  0
  1  2  1  0  0  0  0
  2  3  1  0  0  0  0
  2  4  1  0  0  0  0
  2  5  1  0  0  0  0
  5  6  2  0  0  0  0
  5  7  1  0  0  0  0
  7  8  1  0  0  0  0
  7  9  1  0  0  0  0
  9 10  1  0  0  0  0
  9 11  1  0  0  0  0
  9 21  1  0  0  0  0
 11 12  1  0  0  0  0
 11 13  1  0  0  0  0
 11 14  1  0  0  0  0
 14 15  1  0  0  0  0
 14 16  1  0  0  0  0
 14 17  1  0  0  0  0
 17 18  2  0  0  0  0
 17 19  1  0  0  0  0
 19 20  1  0  0  0  0
 21 22  2  0  0  0  0
 21 23  1  0  0  0  0
 23 24  1  0  0  0  0
 23 25  1  0  0  0  0
 25 26  1  0  0  0  0
 25 27  1  0  0  0  0
 25 28  1  0  0  0  0
M  END
$$$$

  -OEChem-01062216073D

 28 27  0     1  0  0  0  0  0999 V2000
   -3.1515   -2.8303    1.4749 H   0  0  0  0  0  0  0  0  0  0  0  0
   -3.1159   -1.7934    1.1289 C   0  0  0  0  0  0  0  0  0  0  0  0
   -3.4493   -1.1419    1.9400 H   0  0  0  0  0  0  0  0  0  0  0  0
   -3.7932   -1.6827    0.2786 H   0  0  0  0  0  0  0  0  0  0  0  0
   -1.7026   -1.4295    0.7152 C   0  0  0  0  0  0  0  0  0  0  0  0
   -0.8668   -2.3072    0.6119 O   0  0  0  0  0  0  0  0  0  0  0  0
   -1.4348   -0.1464    0.2868 N   0  0  0  0  0  0  0  0  0  0  0  0
   -2.2461    0.4629    0.3098 H   0  0  0  0  0  0  0  0  0  0  0  0
   -0.1293    0.5560    0.2527 C   0  0  1  0  0  0  0  0  0  0  0  0
    0.3253    0.3160   -0.7141 H   0  0  0  0  0  0  0  0  0  0  0  0
   -0.4857    2.0629    0.2685 C   0  0  0  0  0  0  0  0  0  0  0  0
   -1.1068    2.2815    1.1440 H   0  0  0  0  0  0  0  0  0  0  0  0
    0.4251    2.6656    0.3626 H   0  0  0  0  0  0  0  0  0  0  0  0
   -1.2023    2.5066   -1.0281 C   0  0  0  0  0  0  0  0  0  0  0  0
   -0.5435    2.3200   -1.8811 H   0  0  0  0  0  0  0  0  0  0  0  0
   -2.1126    1.9222   -1.1799 H   0  0  0  0  0  0  0  0  0  0  0  0
   -1.5949    3.9848   -1.0456 C   0  0  0  0  0  0  0  0  0  0  0  0
   -1.4539    4.6664   -0.0440 O   0  0  0  0  0  0  0  0  0  0  0  0
   -2.1052    4.4615   -2.2036 O   0  0  0  0  0  0  0  0  0  0  0  0
   -2.2848    5.4014   -2.0474 H   0  0  0  0  0  0  0  0  0  0  0  0
    1.0225    0.2714    1.2781 C   0  0  0  0  0  0  0  0  0  0  0  0
    2.0046    0.9978    1.2638 O   0  0  0  0  0  0  0  0  0  0  0  0
    1.3361   -0.8837    1.9520 N   0  0  0  0  0  0  0  0  0  0  0  0
    2.3331   -0.8979    2.1493 H   0  0  0  0  0  0  0  0  0  0  0  0
    0.5065   -1.3366    3.0617 C   0  0  0  0  0  0  0  0  0  0  0  0
   -0.4595   -0.8230    3.0796 H   0  0  0  0  0  0  0  0  0  0  0  0
    0.3303   -2.4145    2.9863 H   0  0  0  0  0  0  0  0  0  0  0  0
    1.0122   -1.1332    4.0108 H   0  0  0  0  0  0  0  0  0  0  0  0
  1  2  1  0  0  0  0
  2  3  1  0  0  0  0
  2  4  1  0  0  0  0
  2  5  1  0  0  0  0
  5  6  2  0  0  0  0
  5  7  1  0  0  0  0
  7  8  1  0  0  0  0
  7  9  1  0  0  0  0
  9 10  1  0  0  0  0
  9 11  1  0  0  0  0
  9 21  1  0  0  0  0
 11 12  1  0  0  0  0
 11 13  1  0  0  0  0
 11 14  1  0  0  0  0
 14 15  1  0  0  0  0
 14 16  1  0  0  0  0
 14 17  1  0  0  0  0
 17 18  2  0  0  0  0
 17 19  1  0  0  0  0
 19 20  1  0  0  0  0
 21 22  2  0  0  0  0
 21 23  1  0  0  0  0
 23 24  1  0  0  0  0
 23 25  1  0  0  0  0
 25 26  1  0  0  0  0
 25 27  1  0  0  0  0
 25 28  1  0  0  0  0
M  END
$$$$

  -OEChem-01062216073D

 28 27  0     1  0  0  0  0  0999 V2000
   -3.5633   -2.7552    0.9828 H   0  0  0  0  0  0  0  0  0  0  0  0
   -3.4326   -1.7104    0.6866 C   0  0  0  0  0  0  0  0  0  0  0  0
   -3.8984   -1.0722    1.4414 H   0  0  0  0  0  0  0  0  0  0  0  0
   -3.9300   -1.5522   -0.2734 H   0  0  0  0  0  0  0  0  0  0  0  0
   -1.9565   -1.3813    0.5667 C   0  0  0  0  0  0  0  0  0  0  0  0
   -1.1386   -2.2800    0.6560 O   0  0  0  0  0  0  0  0  0  0  0  0
   -1.5818   -0.0989    0.2153 N   0  0  0  0  0  0  0  0  0  0  0  0
   -2.3716    0.5300    0.1054 H   0  0  0  0  0  0  0  0  0  0  0  0
   -0.2752    0.5821    0.4004 C   0  0  1  0  0  0  0  0  0  0  0  0
    0.3371    0.3369   -0.4730 H   0  0  0  0  0  0  0  0  0  0  0  0
   -0.5820    2.0997    0.3540 C   0  0  0  0  0  0  0  0  0  0  0  0
   -1.3318    2.3447    1.1148 H   0  0  0  0  0  0  0  0  0  0  0  0
    0.3220    2.6709    0.5941 H   0  0  0  0  0  0  0  0  0  0  0  0
   -1.0555    2.5552   -1.0461 C   0  0  0  0  0  0  0  0  0  0  0  0
   -0.2693    2.3424   -1.7761 H   0  0  0  0  0  0  0  0  0  0  0  0
   -1.9453    1.9970   -1.3461 H   0  0  0  0  0  0  0  0  0  0  0  0
   -1.3939    4.0444   -1.1347 C   0  0  0  0  0  0  0  0  0  0  0  0
   -1.4037    4.7313   -0.1273 O   0  0  0  0  0  0  0  0  0  0  0  0
   -1.6817    4.5261   -2.3650 O   0  0  0  0  0  0  0  0  0  0  0  0
   -1.8575    5.4720   -2.2434 H   0  0  0  0  0  0  0  0  0  0  0  0
    0.6412    0.2055    1.6136 C   0  0  0  0  0  0  0  0  0  0  0  0
    1.1837    1.0863    2.2697 O   0  0  0  0  0  0  0  0  0  0  0  0
    0.9013   -1.0935    2.0021 N   0  0  0  0  0  0  0  0  0  0  0  0
    0.3910   -1.8271    1.5051 H   0  0  0  0  0  0  0  0  0  0  0  0
    1.7175   -1.4613    3.1525 C   0  0  0  0  0  0  0  0  0  0  0  0
    1.2744   -1.0751    4.0762 H   0  0  0  0  0  0  0  0  0  0  0  0
    1.7883   -2.5504    3.2306 H   0  0  0  0  0  0  0  0  0  0  0  0
    2.7299   -1.0567    3.0501 H   0  0  0  0  0  0  0  0  0  0  0  0
  1  2  1  0  0  0  0
  2  3  1  0  0  0  0
  2  4  1  0  0  0  0
  2  5  1  0  0  0  0
  5  6  2  0  0  0  0
  5  7  1  0  0  0  0
  7  8  1  0  0  0  0
  7  9  1  0  0  0  0
  9 10  1  0  0  0  0
  9 11  1  0  0  0  0
  9 21  1  0  0  0  0
 11 12  1  0  0  0  0
 11 13  1  0  0  0  0
 11 14  1  0  0  0  0
 14 15  1  0  0  0  0
 14 16  1  0  0  0  0
 14 17  1  0  0  0  0
 17 18  2  0  0  0  0
 17 19  1  0  0  0  0
 19 20  1  0  0  0  0
 21 22  2  0  0  0  0
 21 23  1  0  0  0  0
 23 24  1  0  0  0  0
 23 25  1  0  0  0  0
 25 26  1  0  0  0  0
 25 27  1  0  0  0  0
 25 28  1  0  0  0  0
M  END
$$$$

  -OEChem-01062216073D

 28 27  0     1  0  0  0  0  0999 V2000
   -3.4448   -2.7924    1.0678 H   0  0  0  0  0  0  0  0  0  0  0  0
   -3.3509   -1.7430    0.7742 C   0  0  0  0  0  0  0  0  0  0  0  0
   -3.7930   -1.1203    1.5561 H   0  0  0  0  0  0  0  0  0  0  0  0
   -3.8975   -1.5886   -0.1594 H   0  0  0  0  0  0  0  0  0  0  0  0
   -1.8898   -1.3807    0.5865 C   0  0  0  0  0  0  0  0  0  0  0  0
   -1.0438   -2.2557    0.6519 O   0  0  0  0  0  0  0  0  0  0  0  0
   -1.5583   -0.0940    0.2088 N   0  0  0  0  0  0  0  0  0  0  0  0
   -2.3616    0.5237    0.1421 H   0  0  0  0  0  0  0  0  0  0  0  0
   -0.2560    0.5984    0.3640 C   0  0  1  0  0  0  0  0  0  0  0  0
    0.3455    0.3556   -0.5177 H   0  0  0  0  0  0  0  0  0  0  0  0
   -0.5560    2.1153    0.3280 C   0  0  0  0  0  0  0  0  0  0  0  0
   -1.2888    2.3612    1.1047 H   0  0  0  0  0  0  0  0  0  0  0  0
    0.3581    2.6765    0.5551 H   0  0  0  0  0  0  0  0  0  0  0  0
   -1.0588    2.5748   -1.0596 C   0  0  0  0  0  0  0  0  0  0  0  0
   -0.2903    2.3593   -1.8075 H   0  0  0  0  0  0  0  0  0  0  0  0
   -1.9576    2.0200   -1.3387 H   0  0  0  0  0  0  0  0  0  0  0  0
   -1.3925    4.0654   -1.1393 C   0  0  0  0  0  0  0  0  0  0  0  0
   -1.3767    4.7520   -0.1318 O   0  0  0  0  0  0  0  0  0  0  0  0
   -1.7058    4.5484   -2.3628 O   0  0  0  0  0  0  0  0  0  0  0  0
   -1.8771    5.4945   -2.2366 H   0  0  0  0  0  0  0  0  0  0  0  0
    0.6607    0.2158    1.5702 C   0  0  0  0  0  0  0  0  0  0  0  0
    0.9945    1.0652    2.3878 O   0  0  0  0  0  0  0  0  0  0  0  0
    1.1445   -1.0643    1.7542 N   0  0  0  0  0  0  0  0  0  0  0  0
    0.6703   -1.7894    1.2097 H   0  0  0  0  0  0  0  0  0  0  0  0
    1.9056   -1.4748    2.9278 C   0  0  0  0  0  0  0  0  0  0  0  0
    1.2917   -1.3912    3.8305 H   0  0  0  0  0  0  0  0  0  0  0  0
    2.2291   -2.5146    2.8208 H   0  0  0  0  0  0  0  0  0  0  0  0
    2.7963   -0.8490    3.0473 H   0  0  0  0  0  0  0  0  0  0  0  0
  1  2  1  0  0  0  0
  2  3  1  0  0  0  0
  2  4  1  0  0  0  0
  2  5  1  0  0  0  0
  5  6  2  0  0  0  0
  5  7  1  0  0  0  0
  7  8  1  0  0  0  0
  7  9  1  0  0  0  0
  9 10  1  0  0  0  0
  9 11  1  0  0  0  0
  9 21  1  0  0  0  0
 11 12  1  0  0  0  0
 11 13  1  0  0  0  0
 11 14  1  0  0  0  0
 14 15  1  0  0  0  0
 14 16  1  0  0  0  0
 14 17  1  0  0  0  0
 17 18  2  0  0  0  0
 17 19  1  0  0  0  0
 19 20  1  0  0  0  0
 21 22  2  0  0  0  0
 21 23  1  0  0  0  0
 23 24  1  0  0  0  0
 23 25  1  0  0  0  0
 25 26  1  0  0  0  0
 25 27  1  0  0  0  0
 25 28  1  0  0  0  0
M  END
$$$$

  -OEChem-01062216073D

 28 27  0     1  0  0  0  0  0999 V2000
   -3.3175   -2.8183    1.1781 H   0  0  0  0  0  0  0  0  0  0  0  0
   -3.2691   -1.7842    0.8253 C   0  0  0  0  0  0  0  0  0  0  0  0
   -3.7322   -1.1372    1.5742 H   0  0  0  0  0  0  0  0  0  0  0  0
   -3.8264   -1.7047   -0.1112 H   0  0  0  0  0  0  0  0  0  0  0  0
   -1.8254   -1.3736    0.6063 C   0  0  0  0  0  0  0  0  0  0  0  0
   -0.9427   -2.2124    0.6788 O   0  0  0  0  0  0  0  0  0  0  0  0
   -1.5417   -0.0857    0.1953 N   0  0  0  0  0  0  0  0  0  0  0  0
   -2.3572    0.5180    0.1528 H   0  0  0  0  0  0  0  0  0  0  0  0
   -0.2456    0.6158    0.3357 C   0  0  1  0  0  0  0  0  0  0  0  0
    0.3589    0.3755   -0.5445 H   0  0  0  0  0  0  0  0  0  0  0  0
   -0.5405    2.1319    0.3098 C   0  0  0  0  0  0  0  0  0  0  0  0
   -1.2663    2.3758    1.0940 H   0  0  0  0  0  0  0  0  0  0  0  0
    0.3792    2.6843    0.5362 H   0  0  0  0  0  0  0  0  0  0  0  0
   -1.0589    2.5988   -1.0693 C   0  0  0  0  0  0  0  0  0  0  0  0
   -0.3023    2.3826   -1.8288 H   0  0  0  0  0  0  0  0  0  0  0  0
   -1.9637    2.0484   -1.3371 H   0  0  0  0  0  0  0  0  0  0  0  0
   -1.3886    4.0908   -1.1394 C   0  0  0  0  0  0  0  0  0  0  0  0
   -1.3578    4.7736   -0.1297 O   0  0  0  0  0  0  0  0  0  0  0  0
   -1.7160    4.5793   -2.3570 O   0  0  0  0  0  0  0  0  0  0  0  0
   -1.8842    5.5251   -2.2250 H   0  0  0  0  0  0  0  0  0  0  0  0
    0.6462    0.2291    1.5540 C   0  0  0  0  0  0  0  0  0  0  0  0
    0.7895    1.0056    2.4911 O   0  0  0  0  0  0  0  0  0  0  0  0
    1.3494   -0.9598    1.5738 N   0  0  0  0  0  0  0  0  0  0  0  0
    0.9483   -1.6844    0.9740 H   0  0  0  0  0  0  0  0  0  0  0  0
    2.1105   -1.3993    2.7369 C   0  0  0  0  0  0  0  0  0  0  0  0
    1.4469   -1.5447    3.5957 H   0  0  0  0  0  0  0  0  0  0  0  0
    2.6140   -2.3466    2.5212 H   0  0  0  0  0  0  0  0  0  0  0  0
    2.8722   -0.6582    3.0016 H   0  0  0  0  0  0  0  0  0  0  0  0
  1  2  1  0  0  0  0
  2  3  1  0  0  0  0
  2  4  1  0  0  0  0
  2  5  1  0  0  0  0
  5  6  2  0  0  0  0
  5  7  1  0  0  0  0
  7  8  1  0  0  0  0
  7  9  1  0  0  0  0
  9 10  1  0  0  0  0
  9 11  1  0  0  0  0
  9 21  1  0  0  0  0
 11 12  1  0  0  0  0
 11 13  1  0  0  0  0
 11 14  1  0  0  0  0
 14 15  1  0  0  0  0
 14 16  1  0  0  0  0
 14 17  1  0  0  0  0
 17 18  2  0  0  0  0
 17 19  1  0  0  0  0
 19 20  1  0  0  0  0
 21 22  2  0  0  0  0
 21 23  1  0  0  0  0
 23 24  1  0  0  0  0
 23 25  1  0  0  0  0
 25 26  1  0  0  0  0
 25 27  1  0  0  0  0
 25 28  1  0  0  0  0
M  END
$$$$

  -OEChem-01062216073D

 28 27  0     1  0  0  0  0  0999 V2000
   -3.1980   -2.8493    1.2381 H   0  0  0  0  0  0  0  0  0  0  0  0
   -3.1920   -1.8157    0.8803 C   0  0  0  0  0  0  0  0  0  0  0  0
   -3.6446   -1.1786    1.6442 H   0  0  0  0  0  0  0  0  0  0  0  0
   -3.7861   -1.7554   -0.0347 H   0  0  0  0  0  0  0  0  0  0  0  0
   -1.7694   -1.3664    0.6066 C   0  0  0  0  0  0  0  0  0  0  0  0
   -0.8533   -2.1707    0.6720 O   0  0  0  0  0  0  0  0  0  0  0  0
   -1.5325   -0.0782    0.1673 N   0  0  0  0  0  0  0  0  0  0  0  0
   -2.3580    0.5131    0.1590 H   0  0  0  0  0  0  0  0  0  0  0  0
   -0.2432    0.6308    0.3052 C   0  0  1  0  0  0  0  0  0  0  0  0
    0.3691    0.3946   -0.5708 H   0  0  0  0  0  0  0  0  0  0  0  0
   -0.5333    2.1458    0.2922 C   0  0  0  0  0  0  0  0  0  0  0  0
   -1.2581    2.3856    1.0790 H   0  0  0  0  0  0  0  0  0  0  0  0
    0.3886    2.6918    0.5245 H   0  0  0  0  0  0  0  0  0  0  0  0
   -1.0566    2.6208   -1.0820 C   0  0  0  0  0  0  0  0  0  0  0  0
   -0.3036    2.4071   -1.8456 H   0  0  0  0  0  0  0  0  0  0  0  0
   -1.9633    2.0725   -1.3484 H   0  0  0  0  0  0  0  0  0  0  0  0
   -1.3835    4.1136   -1.1433 C   0  0  0  0  0  0  0  0  0  0  0  0
   -1.3467    4.7910   -0.1302 O   0  0  0  0  0  0  0  0  0  0  0  0
   -1.7156    4.6093   -2.3568 O   0  0  0  0  0  0  0  0  0  0  0  0
   -1.8857    5.5539   -2.2182 H   0  0  0  0  0  0  0  0  0  0  0  0
    0.6160    0.2383    1.5399 C   0  0  0  0  0  0  0  0  0  0  0  0
    0.5479    0.8903    2.5754 O   0  0  0  0  0  0  0  0  0  0  0  0
    1.5364   -0.7885    1.4499 N   0  0  0  0  0  0  0  0  0  0  0  0
    1.2982   -1.4885    0.7472 H   0  0  0  0  0  0  0  0  0  0  0  0
    2.3026   -1.2405    2.6048 C   0  0  0  0  0  0  0  0  0  0  0  0
    1.6332   -1.6294    3.3791 H   0  0  0  0  0  0  0  0  0  0  0  0
    2.9942   -2.0357    2.3106 H   0  0  0  0  0  0  0  0  0  0  0  0
    2.8875   -0.4160    3.0261 H   0  0  0  0  0  0  0  0  0  0  0  0
  1  2  1  0  0  0  0
  2  3  1  0  0  0  0
  2  4  1  0  0  0  0
  2  5  1  0  0  0  0
  5  6  2  0  0  0  0
  5  7  1  0  0  0  0
  7  8  1  0  0  0  0
  7  9  1  0  0  0  0
  9 10  1  0  0  0  0
  9 11  1  0  0  0  0
  9 21  1  0  0  0  0
 11 12  1  0  0  0  0
 11 13  1  0  0  0  0
 11 14  1  0  0  0  0
 14 15  1  0  0  0  0
 14 16  1  0  0  0  0
 14 17  1  0  0  0  0
 17 18  2  0  0  0  0
 17 19  1  0  0  0  0
 19 20  1  0  0  0  0
 21 22  2  0  0  0  0
 21 23  1  0  0  0  0
 23 24  1  0  0  0  0
 23 25  1  0  0  0  0
 25 26  1  0  0  0  0
 25 27  1  0  0  0  0
 25 28  1  0  0  0  0
M  END
$$$$

  -OEChem-01062216073D

 28 27  0     1  0  0  0  0  0999 V2000
   -3.1122   -2.8689    1.2836 H   0  0  0  0  0  0  0  0  0  0  0  0
   -3.1354   -1.8332    0.9332 C   0  0  0  0  0  0  0  0  0  0  0  0
   -3.5640   -1.2069    1.7195 H   0  0  0  0  0  0  0  0  0  0  0  0
   -3.7675   -1.7761    0.0438 H   0  0  0  0  0  0  0  0  0  0  0  0
   -1.7316   -1.3622    0.6050 C   0  0  0  0  0  0  0  0  0  0  0  0
   -0.7972   -2.1470    0.6531 O   0  0  0  0  0  0  0  0  0  0  0  0
   -1.5293   -0.0761    0.1418 N   0  0  0  0  0  0  0  0  0  0  0  0
   -2.3605    0.5063    0.1716 H   0  0  0  0  0  0  0  0  0  0  0  0
   -0.2446    0.6399    0.2740 C   0  0  1  0  0  0  0  0  0  0  0  0
    0.3694    0.4040   -0.6007 H   0  0  0  0  0  0  0  0  0  0  0  0
   -0.5288    2.1543    0.2709 C   0  0  0  0  0  0  0  0  0  0  0  0
   -1.2504    2.3907    1.0616 H   0  0  0  0  0  0  0  0  0  0  0  0
    0.3961    2.6949    0.5040 H   0  0  0  0  0  0  0  0  0  0  0  0
   -1.0595    2.6375   -1.0973 C   0  0  0  0  0  0  0  0  0  0  0  0
   -0.3131    2.4243   -1.8674 H   0  0  0  0  0  0  0  0  0  0  0  0
   -1.9699    2.0931   -1.3592 H   0  0  0  0  0  0  0  0  0  0  0  0
   -1.3811    4.1318   -1.1486 C   0  0  0  0  0  0  0  0  0  0  0  0
   -1.3346    4.8036   -0.1322 O   0  0  0  0  0  0  0  0  0  0  0  0
   -1.7210    4.6347   -2.3569 O   0  0  0  0  0  0  0  0  0  0  0  0
   -1.8895    5.5786   -2.2120 H   0  0  0  0  0  0  0  0  0  0  0  0
    0.5974    0.2508    1.5187 C   0  0  0  0  0  0  0  0  0  0  0  0
    0.3219    0.7230    2.6155 O   0  0  0  0  0  0  0  0  0  0  0  0
    1.7165   -0.5492    1.3835 N   0  0  0  0  0  0  0  0  0  0  0  0
    1.7214   -1.1344    0.5515 H   0  0  0  0  0  0  0  0  0  0  0  0
    2.4685   -1.0208    2.5400 C   0  0  0  0  0  0  0  0  0  0  0  0
    1.8379   -1.6544    3.1727 H   0  0  0  0  0  0  0  0  0  0  0  0
    3.3346   -1.6052    2.2147 H   0  0  0  0  0  0  0  0  0  0  0  0
    2.8291   -0.1756    3.1358 H   0  0  0  0  0  0  0  0  0  0  0  0
  1  2  1  0  0  0  0
  2  3  1  0  0  0  0
  2  4  1  0  0  0  0
  2  5  1  0  0  0  0
  5  6  2  0  0  0  0
  5  7  1  0  0  0  0
  7  8  1  0  0  0  0
  7  9  1  0  0  0  0
  9 10  1  0  0  0  0
  9 11  1  0  0  0  0
  9 21  1  0  0  0  0
 11 12  1  0  0  0  0
 11 13  1  0  0  0  0
 11 14  1  0  0  0  0
 14 15  1  0  0  0  0
 14 16  1  0  0  0  0
 14 17  1  0  0  0  0
 17 18  2  0  0  0  0
 17 19  1  0  0  0  0
 19 20  1  0  0  0  0
 21 22  2  0  0  0  0
 21 23  1  0  0  0  0
 23 24  1  0  0  0  0
 23 25  1  0  0  0  0
 25 26  1  0  0  0  0
 25 27  1  0  0  0  0
 25 28  1  0  0  0  0
M  END
$$$$

  -OEChem-01062216073D

 28 27  0     1  0  0  0  0  0999 V2000
   -3.0735   -2.8622    1.3469 H   0  0  0  0  0  0  0  0  0  0  0  0
   -3.1149   -1.8412    0.9574 C   0  0  0  0  0  0  0  0  0  0  0  0
   -3.5437   -1.1915    1.7243 H   0  0  0  0  0  0  0  0  0  0  0  0
   -3.7566   -1.8256    0.0732 H   0  0  0  0  0  0  0  0  0  0  0  0
   -1.7209   -1.3643    0.5969 C   0  0  0  0  0  0  0  0  0  0  0  0
   -0.7818   -2.1449    0.6237 O   0  0  0  0  0  0  0  0  0  0  0  0
   -1.5341   -0.0789    0.1239 N   0  0  0  0  0  0  0  0  0  0  0  0
   -2.3668    0.4994    0.1761 H   0  0  0  0  0  0  0  0  0  0  0  0
   -0.2516    0.6393    0.2588 C   0  0  1  0  0  0  0  0  0  0  0  0
    0.3631    0.4017   -0.6148 H   0  0  0  0  0  0  0  0  0  0  0  0
   -0.5314    2.1536    0.2641 C   0  0  0  0  0  0  0  0  0  0  0  0
   -1.2524    2.3873    1.0564 H   0  0  0  0  0  0  0  0  0  0  0  0
    0.3946    2.6912    0.4992 H   0  0  0  0  0  0  0  0  0  0  0  0
   -1.0614    2.6436   -1.1016 C   0  0  0  0  0  0  0  0  0  0  0  0
   -0.3169    2.4300   -1.8735 H   0  0  0  0  0  0  0  0  0  0  0  0
   -1.9743    2.1031   -1.3634 H   0  0  0  0  0  0  0  0  0  0  0  0
   -1.3795    4.1386   -1.1484 C   0  0  0  0  0  0  0  0  0  0  0  0
   -1.3310    4.8068   -0.1295 O   0  0  0  0  0  0  0  0  0  0  0  0
   -1.7138    4.6474   -2.3558 O   0  0  0  0  0  0  0  0  0  0  0  0
   -1.8797    5.5913   -2.2082 H   0  0  0  0  0  0  0  0  0  0  0  0
    0.5814    0.2539    1.5094 C   0  0  0  0  0  0  0  0  0  0  0  0
    0.1572    0.5272    2.6266 O   0  0  0  0  0  0  0  0  0  0  0  0
    1.8519   -0.2747    1.3737 N   0  0  0  0  0  0  0  0  0  0  0  0
    2.0676   -0.6769    0.4662 H   0  0  0  0  0  0  0  0  0  0  0  0
    2.6249   -0.7318    2.5221 C   0  0  0  0  0  0  0  0  0  0  0  0
    2.0987   -1.5417    3.0386 H   0  0  0  0  0  0  0  0  0  0  0  0
    3.6017   -1.1032    2.1976 H   0  0  0  0  0  0  0  0  0  0  0  0
    2.7871    0.0892    3.2286 H   0  0  0  0  0  0  0  0  0  0  0  0
  1  2  1  0  0  0  0
  2  3  1  0  0  0  0
  2  4  1  0  0  0  0
  2  5  1  0  0  0  0
  5  6  2  0  0  0  0
  5  7  1  0  0  0  0
  7  8  1  0  0  0  0
  7  9  1  0  0  0  0
  9 10  1  0  0  0  0
  9 11  1  0  0  0  0
  9 21  1  0  0  0  0
 11 12  1  0  0  0  0
 11 13  1  0  0  0  0
 11 14  1  0  0  0  0
 14 15  1  0  0  0  0
 14 16  1  0  0  0  0
 14 17  1  0  0  0  0
 17 18  2  0  0  0  0
 17 19  1  0  0  0  0
 19 20  1  0  0  0  0
 21 22  2  0  0  0  0
 21 23  1  0  0  0  0
 23 24  1  0  0  0  0
 23 25  1  0  0  0  0
 25 26  1  0  0  0  0
 25 27  1  0  0  0  0
 25 28  1  0  0  0  0
M  END
$$$$

  -OEChem-01062216073D

 28 27  0     1  0  0  0  0  0999 V2000
   -3.0855   -2.8769    1.3156 H   0  0  0  0  0  0  0  0  0  0  0  0
   -3.1212   -1.8412    0.9662 C   0  0  0  0  0  0  0  0  0  0  0  0
   -3.5168   -1.2143    1.7692 H   0  0  0  0  0  0  0  0  0  0  0  0
   -3.7873   -1.7828    0.1021 H   0  0  0  0  0  0  0  0  0  0  0  0
   -1.7303   -1.3733    0.5832 C   0  0  0  0  0  0  0  0  0  0  0  0
   -0.7970   -2.1613    0.5856 O   0  0  0  0  0  0  0  0  0  0  0  0
   -1.5425   -0.0901    0.1046 N   0  0  0  0  0  0  0  0  0  0  0  0
   -2.3718    0.4912    0.1742 H   0  0  0  0  0  0  0  0  0  0  0  0
   -0.2570    0.6222    0.2472 C   0  0  1  0  0  0  0  0  0  0  0  0
    0.3605    0.3796   -0.6229 H   0  0  0  0  0  0  0  0  0  0  0  0
   -0.5323    2.1365    0.2587 C   0  0  0  0  0  0  0  0  0  0  0  0
   -1.2545    2.3676    1.0506 H   0  0  0  0  0  0  0  0  0  0  0  0
    0.3944    2.6704    0.4988 H   0  0  0  0  0  0  0  0  0  0  0  0
   -1.0569    2.6373   -1.1052 C   0  0  0  0  0  0  0  0  0  0  0  0
   -0.3115    2.4274   -1.8772 H   0  0  0  0  0  0  0  0  0  0  0  0
   -1.9710    2.1018   -1.3733 H   0  0  0  0  0  0  0  0  0  0  0  0
   -1.3689    4.1342   -1.1403 C   0  0  0  0  0  0  0  0  0  0  0  0
   -1.3200    4.7933   -0.1154 O   0  0  0  0  0  0  0  0  0  0  0  0
   -1.6990    4.6549   -2.3438 O   0  0  0  0  0  0  0  0  0  0  0  0
   -1.8643    5.5976   -2.1881 H   0  0  0  0  0  0  0  0  0  0  0  0
    0.5699    0.2420    1.5034 C   0  0  0  0  0  0  0  0  0  0  0  0
    0.0561    0.3309    2.6131 O   0  0  0  0  0  0  0  0  0  0  0  0
    1.9292    0.0052    1.4064 N   0  0  0  0  0  0  0  0  0  0  0  0
    2.2892   -0.1974    0.4789 H   0  0  0  0  0  0  0  0  0  0  0  0
    2.7378   -0.3755    2.5586 C   0  0  0  0  0  0  0  0  0  0  0  0
    2.3774   -1.3184    2.9837 H   0  0  0  0  0  0  0  0  0  0  0  0
    3.7831   -0.5050    2.2620 H   0  0  0  0  0  0  0  0  0  0  0  0
    2.6940    0.3990    3.3318 H   0  0  0  0  0  0  0  0  0  0  0  0
  1  2  1  0  0  0  0
  2  3  1  0  0  0  0
  2  4  1  0  0  0  0
  2  5  1  0  0  0  0
  5  6  2  0  0  0  0
  5  7  1  0  0  0  0
  7  8  1  0  0  0  0
  7  9  1  0  0  0  0
  9 10  1  0  0  0  0
  9 11  1  0  0  0  0
  9 21  1  0  0  0  0
 11 12  1  0  0  0  0
 11 13  1  0  0  0  0
 11 14  1  0  0  0  0
 14 15  1  0  0  0  0
 14 16  1  0  0  0  0
 14 17  1  0  0  0  0
 17 18  2  0  0  0  0
 17 19  1  0  0  0  0
 19 20  1  0  0  0  0
 21 22  2  0  0  0  0
 21 23  1  0  0  0  0
 23 24  1  0  0  0  0
 23 25  1  0  0  0  0
 25 26  1  0  0  0  0
 25 27  1  0  0  0  0
 25 28  1  0  0  0  0
M  END
$$$$

  -OEChem-01062216073D

 28 27  0     1  0  0  0  0  0999 V2000
   -3.0940   -2.8879    1.2908 H   0  0  0  0  0  0  0  0  0  0  0  0
   -3.1225   -1.8402    0.9787 C   0  0  0  0  0  0  0  0  0  0  0  0
   -3.4688   -1.2339    1.8192 H   0  0  0  0  0  0  0  0  0  0  0  0
   -3.8238   -1.7376    0.1474 H   0  0  0  0  0  0  0  0  0  0  0  0
   -1.7398   -1.3856    0.5528 C   0  0  0  0  0  0  0  0  0  0  0  0
   -0.8166   -2.1843    0.5096 O   0  0  0  0  0  0  0  0  0  0  0  0
   -1.5494   -0.1000    0.0815 N   0  0  0  0  0  0  0  0  0  0  0  0
   -2.3746    0.4834    0.1735 H   0  0  0  0  0  0  0  0  0  0  0  0
   -0.2610    0.6044    0.2408 C   0  0  1  0  0  0  0  0  0  0  0  0
    0.3610    0.3631   -0.6263 H   0  0  0  0  0  0  0  0  0  0  0  0
   -0.5344    2.1188    0.2614 C   0  0  0  0  0  0  0  0  0  0  0  0
   -1.2635    2.3439    1.0485 H   0  0  0  0  0  0  0  0  0  0  0  0
    0.3896    2.6517    0.5130 H   0  0  0  0  0  0  0  0  0  0  0  0
   -1.0465    2.6295   -1.1034 C   0  0  0  0  0  0  0  0  0  0  0  0
   -0.2942    2.4240   -1.8696 H   0  0  0  0  0  0  0  0  0  0  0  0
   -1.9584    2.0965   -1.3839 H   0  0  0  0  0  0  0  0  0  0  0  0
   -1.3568    4.1268   -1.1311 C   0  0  0  0  0  0  0  0  0  0  0  0
   -1.3161    4.7782   -0.1009 O   0  0  0  0  0  0  0  0  0  0  0  0
   -1.6736    4.6567   -2.3340 O   0  0  0  0  0  0  0  0  0  0  0  0
   -1.8401    5.5983   -2.1736 H   0  0  0  0  0  0  0  0  0  0  0  0
    0.5626    0.2211    1.4994 C   0  0  0  0  0  0  0  0  0  0  0  0
    0.0012    0.1205    2.5851 O   0  0  0  0  0  0  0  0  0  0  0  0
    1.9445    0.2859    1.4723 N   0  0  0  0  0  0  0  0  0  0  0  0
    2.3879    0.3031    0.5594 H   0  0  0  0  0  0  0  0  0  0  0  0
    2.7680   -0.0040    2.6404 C   0  0  0  0  0  0  0  0  0  0  0  0
    2.5884   -1.0260    2.9905 H   0  0  0  0  0  0  0  0  0  0  0  0
    3.8287    0.0960    2.3909 H   0  0  0  0  0  0  0  0  0  0  0  0
    2.5394    0.6923    3.4542 H   0  0  0  0  0  0  0  0  0  0  0  0
  1  2  1  0  0  0  0
  2  3  1  0  0  0  0
  2  4  1  0  0  0  0
  2  5  1  0  0  0  0
  5  6  2  0  0  0  0
  5  7  1  0  0  0  0
  7  8  1  0  0  0  0
  7  9  1  0  0  0  0
  9 10  1  0  0  0  0
  9 11  1  0  0  0  0
  9 21  1  0  0  0  0
 11 12  1  0  0  0  0
 11 13  1  0  0  0  0
 11 14  1  0  0  0  0
 14 15  1  0  0  0  0
 14 16  1  0  0  0  0
 14 17  1  0  0  0  0
 17 18  2  0  0  0  0
 17 19  1  0  0  0  0
 19 20  1  0  0  0  0
 21 22  2  0  0  0  0
 21 23  1  0  0  0  0
 23 24  1  0  0  0  0
 23 25  1  0  0  0  0
 25 26  1  0  0  0  0
 25 27  1  0  0  0  0
 25 28  1  0  0  0  0
M  END
$$$$

  -OEChem-01062216073D

 28 27  0     1  0  0  0  0  0999 V2000
   -3.1117   -2.8820    1.2916 H   0  0  0  0  0  0  0  0  0  0  0  0
   -3.1357   -1.8356    0.9747 C   0  0  0  0  0  0  0  0  0  0  0  0
   -3.4682   -1.2227    1.8160 H   0  0  0  0  0  0  0  0  0  0  0  0
   -3.8445   -1.7317    0.1501 H   0  0  0  0  0  0  0  0  0  0  0  0
   -1.7537   -1.3946    0.5328 C   0  0  0  0  0  0  0  0  0  0  0  0
   -0.8477   -2.2092    0.4428 O   0  0  0  0  0  0  0  0  0  0  0  0
   -1.5514   -0.1064    0.0737 N   0  0  0  0  0  0  0  0  0  0  0  0
   -2.3705    0.4828    0.1805 H   0  0  0  0  0  0  0  0  0  0  0  0
   -0.2563    0.5853    0.2432 C   0  0  1  0  0  0  0  0  0  0  0  0
    0.3656    0.3450   -0.6247 H   0  0  0  0  0  0  0  0  0  0  0  0
   -0.5322    2.1005    0.2689 C   0  0  0  0  0  0  0  0  0  0  0  0
   -1.2655    2.3204    1.0535 H   0  0  0  0  0  0  0  0  0  0  0  0
    0.3879    2.6371    0.5262 H   0  0  0  0  0  0  0  0  0  0  0  0
   -1.0381    2.6179   -1.0962 C   0  0  0  0  0  0  0  0  0  0  0  0
   -0.2821    2.4167   -1.8605 H   0  0  0  0  0  0  0  0  0  0  0  0
   -1.9485    2.0862   -1.3843 H   0  0  0  0  0  0  0  0  0  0  0  0
   -1.3494    4.1153   -1.1164 C   0  0  0  0  0  0  0  0  0  0  0  0
   -1.3140    4.7600   -0.0817 O   0  0  0  0  0  0  0  0  0  0  0  0
   -1.6594    4.6531   -2.3177 O   0  0  0  0  0  0  0  0  0  0  0  0
   -1.8265    5.5939   -2.1528 H   0  0  0  0  0  0  0  0  0  0  0  0
    0.5767    0.1975    1.4975 C   0  0  0  0  0  0  0  0  0  0  0  0
    0.0118   -0.0877    2.5480 O   0  0  0  0  0  0  0  0  0  0  0  0
    1.9141    0.5496    1.5663 N   0  0  0  0  0  0  0  0  0  0  0  0
    2.3788    0.7862    0.6956 H   0  0  0  0  0  0  0  0  0  0  0  0
    2.7265    0.3562    2.7626 C   0  0  0  0  0  0  0  0  0  0  0  0
    2.7305   -0.6989    3.0564 H   0  0  0  0  0  0  0  0  0  0  0  0
    3.7587    0.6669    2.5741 H   0  0  0  0  0  0  0  0  0  0  0  0
    2.3336    0.9513    3.5939 H   0  0  0  0  0  0  0  0  0  0  0  0
  1  2  1  0  0  0  0
  2  3  1  0  0  0  0
  2  4  1  0  0  0  0
  2  5  1  0  0  0  0
  5  6  2  0  0  0  0
  5  7  1  0  0  0  0
  7  8  1  0  0  0  0
  7  9  1  0  0  0  0
  9 10  1  0  0  0  0
  9 11  1  0  0  0  0
  9 21  1  0  0  0  0
 11 12  1  0  0  0  0
 11 13  1  0  0  0  0
 11 14  1  0  0  0  0
 14 15  1  0  0  0  0
 14 16  1  0  0  0  0
 14 17  1  0  0  0  0
 17 18  2  0  0  0  0
 17 19  1  0  0  0  0
 19 20  1  0  0  0  0
 21 22  2  0  0  0  0
 21 23  1  0  0  0  0
 23 24  1  0  0  0  0
 23 25  1  0  0  0  0
 25 26  1  0  0  0  0
 25 27  1  0  0  0  0
 25 28  1  0  0  0  0
M  END
$$$$

  -OEChem-01062216073D

 28 27  0     1  0  0  0  0  0999 V2000
   -3.2348   -2.8068    1.2292 H   0  0  0  0  0  0  0  0  0  0  0  0
   -3.1798   -1.7376    1.0063 C   0  0  0  0  0  0  0  0  0  0  0  0
   -3.3487   -1.1792    1.9300 H   0  0  0  0  0  0  0  0  0  0  0  0
   -3.9597   -1.4857    0.2841 H   0  0  0  0  0  0  0  0  0  0  0  0
   -1.8144   -1.3955    0.4419 C   0  0  0  0  0  0  0  0  0  0  0  0
   -1.0381   -2.2861    0.1356 O   0  0  0  0  0  0  0  0  0  0  0  0
   -1.5356   -0.1046    0.0355 N   0  0  0  0  0  0  0  0  0  0  0  0
   -2.3259    0.5137    0.1811 H   0  0  0  0  0  0  0  0  0  0  0  0
   -0.2205    0.5463    0.2400 C   0  0  1  0  0  0  0  0  0  0  0  0
    0.2957    0.5422   -0.7247 H   0  0  0  0  0  0  0  0  0  0  0  0
   -0.5212    2.0049    0.6498 C   0  0  0  0  0  0  0  0  0  0  0  0
   -1.1789    2.0028    1.5270 H   0  0  0  0  0  0  0  0  0  0  0  0
    0.4034    2.5119    0.9443 H   0  0  0  0  0  0  0  0  0  0  0  0
   -1.1649    2.8118   -0.5012 C   0  0  0  0  0  0  0  0  0  0  0  0
   -0.4816    2.8289   -1.3550 H   0  0  0  0  0  0  0  0  0  0  0  0
   -2.0899    2.3312   -0.8290 H   0  0  0  0  0  0  0  0  0  0  0  0
   -1.5013    4.2572   -0.1310 C   0  0  0  0  0  0  0  0  0  0  0  0
   -1.3769    4.6362    1.0215 O   0  0  0  0  0  0  0  0  0  0  0  0
   -1.9328    5.0543   -1.1338 O   0  0  0  0  0  0  0  0  0  0  0  0
   -2.0985    5.9214   -0.7323 H   0  0  0  0  0  0  0  0  0  0  0  0
    0.7913   -0.0807    1.2504 C   0  0  0  0  0  0  0  0  0  0  0  0
    0.4076   -0.7693    2.1879 O   0  0  0  0  0  0  0  0  0  0  0  0
    2.0234    0.5298    1.4293 N   0  0  0  0  0  0  0  0  0  0  0  0
    2.3391    1.1661    0.7045 H   0  0  0  0  0  0  0  0  0  0  0  0
    2.9454    0.1867    2.5078 C   0  0  0  0  0  0  0  0  0  0  0  0
    3.1697   -0.8854    2.4944 H   0  0  0  0  0  0  0  0  0  0  0  0
    3.8843    0.7367    2.3936 H   0  0  0  0  0  0  0  0  0  0  0  0
    2.5106    0.4434    3.4796 H   0  0  0  0  0  0  0  0  0  0  0  0
  1  2  1  0  0  0  0
  2  3  1  0  0  0  0
  2  4  1  0  0  0  0
  2  5  1  0  0  0  0
  5  6  2  0  0  0  0
  5  7  1  0  0  0  0
  7  8  1  0  0  0  0
  7  9  1  0  0  0  0
  9 10  1  0  0  0  0
  9 11  1  0  0  0  0
  9 21  1  0  0  0  0
 11 12  1  0  0  0  0
 11 13  1  0  0  0  0
 11 14  1  0  0  0  0
 14 15  1  0  0  0  0
 14 16  1  0  0  0  0
 14 17  1  0  0  0  0
 17 18  2  0  0  0  0
 17 19  1  0  0  0  0
 19 20  1  0  0  0  0
 21 22  2  0  0  0  0
 21 23  1  0  0  0  0
 23 24  1  0  0  0  0
 23 25  1  0  0  0  0
 25 26  1  0  0  0  0
 25 27  1  0  0  0  0
 25 28  1  0  0  0  0
M  END
$$$$

  -OEChem-01062216073D

 28 27  0     1  0  0  0  0  0999 V2000
   -3.1771   -2.7641    1.3300 H   0  0  0  0  0  0  0  0  0  0  0  0
   -3.1430   -1.7084    1.0467 C   0  0  0  0  0  0  0  0  0  0  0  0
   -3.2815   -1.1019    1.9449 H   0  0  0  0  0  0  0  0  0  0  0  0
   -3.9533   -1.5028    0.3434 H   0  0  0  0  0  0  0  0  0  0  0  0
   -1.8050   -1.3874    0.4092 C   0  0  0  0  0  0  0  0  0  0  0  0
   -1.0982   -2.2879   -0.0119 O   0  0  0  0  0  0  0  0  0  0  0  0
   -1.5123   -0.0913    0.0332 N   0  0  0  0  0  0  0  0  0  0  0  0
   -2.2999    0.5246    0.2009 H   0  0  0  0  0  0  0  0  0  0  0  0
   -0.2010    0.5640    0.2573 C   0  0  1  0  0  0  0  0  0  0  0  0
    0.3224    0.5676   -0.7040 H   0  0  0  0  0  0  0  0  0  0  0  0
   -0.5395    2.0225    0.6502 C   0  0  0  0  0  0  0  0  0  0  0  0
   -1.2148    2.0147    1.5139 H   0  0  0  0  0  0  0  0  0  0  0  0
    0.3639    2.5592    0.9544 H   0  0  0  0  0  0  0  0  0  0  0  0
   -1.1727    2.8102   -0.5206 C   0  0  0  0  0  0  0  0  0  0  0  0
   -0.4712    2.8354   -1.3593 H   0  0  0  0  0  0  0  0  0  0  0  0
   -2.0814    2.3114   -0.8668 H   0  0  0  0  0  0  0  0  0  0  0  0
   -1.5441    4.2513   -0.1660 C   0  0  0  0  0  0  0  0  0  0  0  0
   -1.4512    4.6362    0.9877 O   0  0  0  0  0  0  0  0  0  0  0  0
   -1.9697    5.0364   -1.1810 O   0  0  0  0  0  0  0  0  0  0  0  0
   -2.1632    5.9017   -0.7881 H   0  0  0  0  0  0  0  0  0  0  0  0
    0.8285   -0.0566    1.2631 C   0  0  0  0  0  0  0  0  0  0  0  0
    0.5615   -1.0118    1.9782 O   0  0  0  0  0  0  0  0  0  0  0  0
    1.9045    0.7061    1.6938 N   0  0  0  0  0  0  0  0  0  0  0  0
    2.1224    1.5469    1.1694 H   0  0  0  0  0  0  0  0  0  0  0  0
    2.7953    0.3131    2.7820 C   0  0  0  0  0  0  0  0  0  0  0  0
    3.2440   -0.6646    2.5760 H   0  0  0  0  0  0  0  0  0  0  0  0
    3.6004    1.0453    2.8958 H   0  0  0  0  0  0  0  0  0  0  0  0
    2.2447    0.2561    3.7269 H   0  0  0  0  0  0  0  0  0  0  0  0
  1  2  1  0  0  0  0
  2  3  1  0  0  0  0
  2  4  1  0  0  0  0
  2  5  1  0  0  0  0
  5  6  2  0  0  0  0
  5  7  1  0  0  0  0
  7  8  1  0  0  0  0
  7  9  1  0  0  0  0
  9 10  1  0  0  0  0
  9 11  1  0  0  0  0
  9 21  1  0  0  0  0
 11 12  1  0  0  0  0
 11 13  1  0  0  0  0
 11 14  1  0  0  0  0
 14 15  1  0  0  0  0
 14 16  1  0  0  0  0
 14 17  1  0  0  0  0
 17 18  2  0  0  0  0
 17 19  1  0  0  0  0
 19 20  1  0  0  0  0
 21 22  2  0  0  0  0
 21 23  1  0  0  0  0
 23 24  1  0  0  0  0
 23 25  1  0  0  0  0
 25 26  1  0  0  0  0
 25 27  1  0  0  0  0
 25 28  1  0  0  0  0
M  END
$$$$

  -OEChem-01062216073D

 28 27  0     1  0  0  0  0  0999 V2000
   -3.2597   -2.9200    1.0801 H   0  0  0  0  0  0  0  0  0  0  0  0
   -3.1171   -2.0037    0.5000 C   0  0  0  0  0  0  0  0  0  0  0  0
   -4.0730   -1.4801    0.4251 H   0  0  0  0  0  0  0  0  0  0  0  0
   -2.7748   -2.2748   -0.5014 H   0  0  0  0  0  0  0  0  0  0  0  0
   -2.0889   -1.1171    1.1765 C   0  0  0  0  0  0  0  0  0  0  0  0
   -1.7851   -1.3364    2.3360 O   0  0  0  0  0  0  0  0  0  0  0  0
   -1.7421    0.0867    0.5916 N   0  0  0  0  0  0  0  0  0  0  0  0
   -2.2768    0.2572   -0.2532 H   0  0  0  0  0  0  0  0  0  0  0  0
   -0.3731    0.6572    0.5510 C   0  0  1  0  0  0  0  0  0  0  0  0
    0.0285    0.5065   -0.4560 H   0  0  0  0  0  0  0  0  0  0  0  0
   -0.5451    2.1751    0.7912 C   0  0  0  0  0  0  0  0  0  0  0  0
   -1.0882    2.3288    1.7315 H   0  0  0  0  0  0  0  0  0  0  0  0
    0.4312    2.6593    0.8866 H   0  0  0  0  0  0  0  0  0  0  0  0
   -1.2837    2.8723   -0.3728 C   0  0  0  0  0  0  0  0  0  0  0  0
   -0.7163    2.7336   -1.2975 H   0  0  0  0  0  0  0  0  0  0  0  0
   -2.2696    2.4229   -0.5134 H   0  0  0  0  0  0  0  0  0  0  0  0
   -1.4921    4.3725   -0.1590 C   0  0  0  0  0  0  0  0  0  0  0  0
   -1.2031    4.8833    0.9105 O   0  0  0  0  0  0  0  0  0  0  0  0
   -2.0049    5.0654   -1.2006 O   0  0  0  0  0  0  0  0  0  0  0  0
   -2.0779    5.9842   -0.8991 H   0  0  0  0  0  0  0  0  0  0  0  0
    0.7092    0.0461    1.4947 C   0  0  0  0  0  0  0  0  0  0  0  0
    0.9468   -1.1516    1.3982 O   0  0  0  0  0  0  0  0  0  0  0  0
    1.7500    0.8146    1.9949 N   0  0  0  0  0  0  0  0  0  0  0  0
    1.5788    1.8103    2.0869 H   0  0  0  0  0  0  0  0  0  0  0  0
    2.8921    0.2456    2.7038 C   0  0  0  0  0  0  0  0  0  0  0  0
    3.4660   -0.4114    2.0417 H   0  0  0  0  0  0  0  0  0  0  0  0
    3.5542    1.0421    3.0561 H   0  0  0  0  0  0  0  0  0  0  0  0
    2.5555   -0.3340    3.5702 H   0  0  0  0  0  0  0  0  0  0  0  0
  1  2  1  0  0  0  0
  2  3  1  0  0  0  0
  2  4  1  0  0  0  0
  2  5  1  0  0  0  0
  5  6  2  0  0  0  0
  5  7  1  0  0  0  0
  7  8  1  0  0  0  0
  7  9  1  0  0  0  0
  9 10  1  0  0  0  0
  9 11  1  0  0  0  0
  9 21  1  0  0  0  0
 11 12  1  0  0  0  0
 11 13  1  0  0  0  0
 11 14  1  0  0  0  0
 14 15  1  0  0  0  0
 14 16  1  0  0  0  0
 14 17  1  0  0  0  0
 17 18  2  0  0  0  0
 17 19  1  0  0  0  0
 19 20  1  0  0  0  0
 21 22  2  0  0  0  0
 21 23  1  0  0  0  0
 23 24  1  0  0  0  0
 23 25  1  0  0  0  0
 25 26  1  0  0  0  0
 25 27  1  0  0  0  0
 25 28  1  0  0  0  0
M  END
$$$$

  -OEChem-01062216073D

 28 27  0     1  0  0  0  0  0999 V2000
   -3.3219   -2.8946    1.0803 H   0  0  0  0  0  0  0  0  0  0  0  0
   -3.1750   -1.9709    0.5133 C   0  0  0  0  0  0  0  0  0  0  0  0
   -4.1088   -1.4037    0.5143 H   0  0  0  0  0  0  0  0  0  0  0  0
   -2.9121   -2.2307   -0.5150 H   0  0  0  0  0  0  0  0  0  0  0  0
   -2.0649   -1.1475    1.1388 C   0  0  0  0  0  0  0  0  0  0  0  0
   -1.6487   -1.4536    2.2420 O   0  0  0  0  0  0  0  0  0  0  0  0
   -1.7235    0.0648    0.5662 N   0  0  0  0  0  0  0  0  0  0  0  0
   -2.2858    0.2713   -0.2523 H   0  0  0  0  0  0  0  0  0  0  0  0
   -0.3636    0.6552    0.5311 C   0  0  1  0  0  0  0  0  0  0  0  0
    0.0427    0.5097   -0.4748 H   0  0  0  0  0  0  0  0  0  0  0  0
   -0.5418    2.1712    0.7703 C   0  0  0  0  0  0  0  0  0  0  0  0
   -1.0866    2.3251    1.7094 H   0  0  0  0  0  0  0  0  0  0  0  0
    0.4368    2.6528    0.8658 H   0  0  0  0  0  0  0  0  0  0  0  0
   -1.2805    2.8665   -0.3947 C   0  0  0  0  0  0  0  0  0  0  0  0
   -0.7113    2.7304   -1.3186 H   0  0  0  0  0  0  0  0  0  0  0  0
   -2.2646    2.4137   -0.5372 H   0  0  0  0  0  0  0  0  0  0  0  0
   -1.4939    4.3657   -0.1793 C   0  0  0  0  0  0  0  0  0  0  0  0
   -1.2082    4.8754    0.8917 O   0  0  0  0  0  0  0  0  0  0  0  0
   -2.0096    5.0585   -1.2195 O   0  0  0  0  0  0  0  0  0  0  0  0
   -2.0849    5.9766   -0.9163 H   0  0  0  0  0  0  0  0  0  0  0  0
    0.7141    0.0438    1.4766 C   0  0  0  0  0  0  0  0  0  0  0  0
    1.1004   -1.0933    1.2340 O   0  0  0  0  0  0  0  0  0  0  0  0
    1.5624    0.8323    2.2390 N   0  0  0  0  0  0  0  0  0  0  0  0
    1.2323    1.7641    2.4693 H   0  0  0  0  0  0  0  0  0  0  0  0
    2.6678    0.2809    3.0153 C   0  0  0  0  0  0  0  0  0  0  0  0
    3.4011   -0.1946    2.3554 H   0  0  0  0  0  0  0  0  0  0  0  0
    3.1719    1.0753    3.5737 H   0  0  0  0  0  0  0  0  0  0  0  0
    2.3003   -0.4652    3.7281 H   0  0  0  0  0  0  0  0  0  0  0  0
  1  2  1  0  0  0  0
  2  3  1  0  0  0  0
  2  4  1  0  0  0  0
  2  5  1  0  0  0  0
  5  6  2  0  0  0  0
  5  7  1  0  0  0  0
  7  8  1  0  0  0  0
  7  9  1  0  0  0  0
  9 10  1  0  0  0  0
  9 11  1  0  0  0  0
  9 21  1  0  0  0  0
 11 12  1  0  0  0  0
 11 13  1  0  0  0  0
 11 14  1  0  0  0  0
 14 15  1  0  0  0  0
 14 16  1  0  0  0  0
 14 17  1  0  0  0  0
 17 18  2  0  0  0  0
 17 19  1  0  0  0  0
 19 20  1  0  0  0  0
 21 22  2  0  0  0  0
 21 23  1  0  0  0  0
 23 24  1  0  0  0  0
 23 25  1  0  0  0  0
 25 26  1  0  0  0  0
 25 27  1  0  0  0  0
 25 28  1  0  0  0  0
M  END
$$$$

  -OEChem-01062216073D

 28 27  0     1  0  0  0  0  0999 V2000
   -3.3586   -2.8952    1.0346 H   0  0  0  0  0  0  0  0  0  0  0  0
   -3.2443   -1.9319    0.5289 C   0  0  0  0  0  0  0  0  0  0  0  0
   -4.1497   -1.3410    0.6855 H   0  0  0  0  0  0  0  0  0  0  0  0
   -3.1132   -2.1130   -0.5405 H   0  0  0  0  0  0  0  0  0  0  0  0
   -2.0401   -1.1928    1.0815 C   0  0  0  0  0  0  0  0  0  0  0  0
   -1.5127   -1.6045    2.0988 O   0  0  0  0  0  0  0  0  0  0  0  0
   -1.6968    0.0292    0.5291 N   0  0  0  0  0  0  0  0  0  0  0  0
   -2.2931    0.2888   -0.2494 H   0  0  0  0  0  0  0  0  0  0  0  0
   -0.3475    0.6435    0.5123 C   0  0  1  0  0  0  0  0  0  0  0  0
    0.0689    0.5089   -0.4916 H   0  0  0  0  0  0  0  0  0  0  0  0
   -0.5375    2.1560    0.7581 C   0  0  0  0  0  0  0  0  0  0  0  0
   -1.0939    2.3021    1.6914 H   0  0  0  0  0  0  0  0  0  0  0  0
    0.4409    2.6370    0.8695 H   0  0  0  0  0  0  0  0  0  0  0  0
   -1.2692    2.8531   -0.4096 C   0  0  0  0  0  0  0  0  0  0  0  0
   -0.6891    2.7260   -1.3281 H   0  0  0  0  0  0  0  0  0  0  0  0
   -2.2481    2.3936   -0.5651 H   0  0  0  0  0  0  0  0  0  0  0  0
   -1.4949    4.3498   -0.1885 C   0  0  0  0  0  0  0  0  0  0  0  0
   -1.2234    4.8558    0.8879 O   0  0  0  0  0  0  0  0  0  0  0  0
   -2.0059    5.0444   -1.2300 O   0  0  0  0  0  0  0  0  0  0  0  0
   -2.0846    5.9617   -0.9255 H   0  0  0  0  0  0  0  0  0  0  0  0
    0.7298    0.0432    1.4618 C   0  0  0  0  0  0  0  0  0  0  0  0
    1.2865   -0.9893    1.1090 O   0  0  0  0  0  0  0  0  0  0  0  0
    1.3443    0.7915    2.4533 N   0  0  0  0  0  0  0  0  0  0  0  0
    0.8401    1.6092    2.7812 H   0  0  0  0  0  0  0  0  0  0  0  0
    2.4156    0.2591    3.2876 C   0  0  0  0  0  0  0  0  0  0  0  0
    3.2885    0.0072    2.6761 H   0  0  0  0  0  0  0  0  0  0  0  0
    2.7199    1.0005    4.0324 H   0  0  0  0  0  0  0  0  0  0  0  0
    2.0808   -0.6427    3.8116 H   0  0  0  0  0  0  0  0  0  0  0  0
  1  2  1  0  0  0  0
  2  3  1  0  0  0  0
  2  4  1  0  0  0  0
  2  5  1  0  0  0  0
  5  6  2  0  0  0  0
  5  7  1  0  0  0  0
  7  8  1  0  0  0  0
  7  9  1  0  0  0  0
  9 10  1  0  0  0  0
  9 11  1  0  0  0  0
  9 21  1  0  0  0  0
 11 12  1  0  0  0  0
 11 13  1  0  0  0  0
 11 14  1  0  0  0  0
 14 15  1  0  0  0  0
 14 16  1  0  0  0  0
 14 17  1  0  0  0  0
 17 18  2  0  0  0  0
 17 19  1  0  0  0  0
 19 20  1  0  0  0  0
 21 22  2  0  0  0  0
 21 23  1  0  0  0  0
 23 24  1  0  0  0  0
 23 25  1  0  0  0  0
 25 26  1  0  0  0  0
 25 27  1  0  0  0  0
 25 28  1  0  0  0  0
M  END
$$$$

  -OEChem-01062216073D

 28 27  0     1  0  0  0  0  0999 V2000
   -3.4044   -2.8709    1.0334 H   0  0  0  0  0  0  0  0  0  0  0  0
   -3.2852   -1.8998    0.5441 C   0  0  0  0  0  0  0  0  0  0  0  0
   -4.1524   -1.2782    0.7791 H   0  0  0  0  0  0  0  0  0  0  0  0
   -3.2372   -2.0566   -0.5361 H   0  0  0  0  0  0  0  0  0  0  0  0
   -2.0155   -1.2243    1.0269 C   0  0  0  0  0  0  0  0  0  0  0  0
   -1.4066   -1.7153    1.9593 O   0  0  0  0  0  0  0  0  0  0  0  0
   -1.6695    0.0025    0.4871 N   0  0  0  0  0  0  0  0  0  0  0  0
   -2.2944    0.3077   -0.2516 H   0  0  0  0  0  0  0  0  0  0  0  0
   -0.3283    0.6330    0.4865 C   0  0  1  0  0  0  0  0  0  0  0  0
    0.0966    0.5105   -0.5156 H   0  0  0  0  0  0  0  0  0  0  0  0
   -0.5306    2.1403    0.7460 C   0  0  0  0  0  0  0  0  0  0  0  0
   -1.0978    2.2739    1.6744 H   0  0  0  0  0  0  0  0  0  0  0  0
    0.4459    2.6212    0.8771 H   0  0  0  0  0  0  0  0  0  0  0  0
   -1.2592    2.8447   -0.4194 C   0  0  0  0  0  0  0  0  0  0  0  0
   -0.6703    2.7327   -1.3342 H   0  0  0  0  0  0  0  0  0  0  0  0
   -2.2330    2.3796   -0.5892 H   0  0  0  0  0  0  0  0  0  0  0  0
   -1.4972    4.3373   -0.1842 C   0  0  0  0  0  0  0  0  0  0  0  0
   -1.2369    4.8337    0.8994 O   0  0  0  0  0  0  0  0  0  0  0  0
   -2.0106    5.0381   -1.2203 O   0  0  0  0  0  0  0  0  0  0  0  0
   -2.0973    5.9520   -0.9073 H   0  0  0  0  0  0  0  0  0  0  0  0
    0.7477    0.0463    1.4427 C   0  0  0  0  0  0  0  0  0  0  0  0
    1.4705   -0.8464    1.0178 O   0  0  0  0  0  0  0  0  0  0  0  0
    1.1183    0.6863    2.6140 N   0  0  0  0  0  0  0  0  0  0  0  0
    0.4524    1.3526    2.9916 H   0  0  0  0  0  0  0  0  0  0  0  0
    2.1369    0.1469    3.5068 C   0  0  0  0  0  0  0  0  0  0  0  0
    3.1050    0.0949    2.9974 H   0  0  0  0  0  0  0  0  0  0  0  0
    2.2456    0.7864    4.3878 H   0  0  0  0  0  0  0  0  0  0  0  0
    1.8593   -0.8593    3.8391 H   0  0  0  0  0  0  0  0  0  0  0  0
  1  2  1  0  0  0  0
  2  3  1  0  0  0  0
  2  4  1  0  0  0  0
  2  5  1  0  0  0  0
  5  6  2  0  0  0  0
  5  7  1  0  0  0  0
  7  8  1  0  0  0  0
  7  9  1  0  0  0  0
  9 10  1  0  0  0  0
  9 11  1  0  0  0  0
  9 21  1  0  0  0  0
 11 12  1  0  0  0  0
 11 13  1  0  0  0  0
 11 14  1  0  0  0  0
 14 15  1  0  0  0  0
 14 16  1  0  0  0  0
 14 17  1  0  0  0  0
 17 18  2  0  0  0  0
 17 19  1  0  0  0  0
 19 20  1  0  0  0  0
 21 22  2  0  0  0  0
 21 23  1  0  0  0  0
 23 24  1  0  0  0  0
 23 25  1  0  0  0  0
 25 26  1  0  0  0  0
 25 27  1  0  0  0  0
 25 28  1  0  0  0  0
M  END
$$$$

  -OEChem-01062216073D

 28 27  0     1  0  0  0  0  0999 V2000
   -3.4201   -2.8786    0.9960 H   0  0  0  0  0  0  0  0  0  0  0  0
   -3.3189   -1.8835    0.5535 C   0  0  0  0  0  0  0  0  0  0  0  0
   -4.1533   -1.2625    0.8880 H   0  0  0  0  0  0  0  0  0  0  0  0
   -3.3562   -1.9802   -0.5342 H   0  0  0  0  0  0  0  0  0  0  0  0
   -2.0037   -1.2559    0.9759 C   0  0  0  0  0  0  0  0  0  0  0  0
   -1.3371   -1.8084    1.8312 O   0  0  0  0  0  0  0  0  0  0  0  0
   -1.6553   -0.0242    0.4488 N   0  0  0  0  0  0  0  0  0  0  0  0
   -2.3070    0.3260   -0.2457 H   0  0  0  0  0  0  0  0  0  0  0  0
   -0.3208    0.6200    0.4682 C   0  0  1  0  0  0  0  0  0  0  0  0
    0.1131    0.5074   -0.5314 H   0  0  0  0  0  0  0  0  0  0  0  0
   -0.5265    2.1235    0.7407 C   0  0  0  0  0  0  0  0  0  0  0  0
   -1.1032    2.2488    1.6639 H   0  0  0  0  0  0  0  0  0  0  0  0
    0.4497    2.5999    0.8910 H   0  0  0  0  0  0  0  0  0  0  0  0
   -1.2452    2.8388   -0.4237 C   0  0  0  0  0  0  0  0  0  0  0  0
   -0.6475    2.7359   -1.3340 H   0  0  0  0  0  0  0  0  0  0  0  0
   -2.2167    2.3748   -0.6071 H   0  0  0  0  0  0  0  0  0  0  0  0
   -1.4863    4.3288   -0.1757 C   0  0  0  0  0  0  0  0  0  0  0  0
   -1.2362    4.8150    0.9148 O   0  0  0  0  0  0  0  0  0  0  0  0
   -1.9897    5.0399   -1.2095 O   0  0  0  0  0  0  0  0  0  0  0  0
   -2.0757    5.9509   -0.8882 H   0  0  0  0  0  0  0  0  0  0  0  0
    0.7519    0.0468    1.4331 C   0  0  0  0  0  0  0  0  0  0  0  0
    1.6439   -0.6507    0.9666 O   0  0  0  0  0  0  0  0  0  0  0  0
    0.8797    0.5143    2.7300 N   0  0  0  0  0  0  0  0  0  0  0  0
    0.0557    0.9600    3.1207 H   0  0  0  0  0  0  0  0  0  0  0  0
    1.8735   -0.0202    3.6525 C   0  0  0  0  0  0  0  0  0  0  0  0
    2.8844    0.1334    3.2600 H   0  0  0  0  0  0  0  0  0  0  0  0
    1.8008    0.4841    4.6207 H   0  0  0  0  0  0  0  0  0  0  0  0
    1.7138   -1.0929    3.8053 H   0  0  0  0  0  0  0  0  0  0  0  0
  1  2  1  0  0  0  0
  2  3  1  0  0  0  0
  2  4  1  0  0  0  0
  2  5  1  0  0  0  0
  5  6  2  0  0  0  0
  5  7  1  0  0  0  0
  7  8  1  0  0  0  0
  7  9  1  0  0  0  0
  9 10  1  0  0  0  0
  9 11  1  0  0  0  0
  9 21  1  0  0  0  0
 11 12  1  0  0  0  0
 11 13  1  0  0  0  0
 11 14  1  0  0  0  0
 14 15  1  0  0  0  0
 14 16  1  0  0  0  0
 14 17  1  0  0  0  0
 17 18  2  0  0  0  0
 17 19  1  0  0  0  0
 19 20  1  0  0  0  0
 21 22  2  0  0  0  0
 21 23  1  0  0  0  0
 23 24  1  0  0  0  0
 23 25  1  0  0  0  0
 25 26  1  0  0  0  0
 25 27  1  0  0  0  0
 25 28  1  0  0  0  0
M  END
$$$$

  -OEChem-01062216073D

 28 27  0     1  0  0  0  0  0999 V2000
   -3.4553   -2.8627    0.9851 H   0  0  0  0  0  0  0  0  0  0  0  0
   -3.3483   -1.8611    0.5586 C   0  0  0  0  0  0  0  0  0  0  0  0
   -4.1521   -1.2277    0.9415 H   0  0  0  0  0  0  0  0  0  0  0  0
   -3.4347   -1.9336   -0.5282 H   0  0  0  0  0  0  0  0  0  0  0  0
   -2.0009   -1.2741    0.9358 C   0  0  0  0  0  0  0  0  0  0  0  0
   -1.3042   -1.8681    1.7375 O   0  0  0  0  0  0  0  0  0  0  0  0
   -1.6422   -0.0427    0.4157 N   0  0  0  0  0  0  0  0  0  0  0  0
   -2.3083    0.3398   -0.2476 H   0  0  0  0  0  0  0  0  0  0  0  0
   -0.3110    0.6081    0.4514 C   0  0  1  0  0  0  0  0  0  0  0  0
    0.1323    0.5035   -0.5449 H   0  0  0  0  0  0  0  0  0  0  0  0
   -0.5215    2.1075    0.7384 C   0  0  0  0  0  0  0  0  0  0  0  0
   -1.1019    2.2229    1.6609 H   0  0  0  0  0  0  0  0  0  0  0  0
    0.4535    2.5829    0.9006 H   0  0  0  0  0  0  0  0  0  0  0  0
   -1.2345    2.8329   -0.4236 C   0  0  0  0  0  0  0  0  0  0  0  0
   -0.6298    2.7409   -1.3304 H   0  0  0  0  0  0  0  0  0  0  0  0
   -2.2033    2.3677   -0.6186 H   0  0  0  0  0  0  0  0  0  0  0  0
   -1.4822    4.3199   -0.1644 C   0  0  0  0  0  0  0  0  0  0  0  0
   -1.2417    4.7987    0.9313 O   0  0  0  0  0  0  0  0  0  0  0  0
   -1.9822    5.0365   -1.1961 O   0  0  0  0  0  0  0  0  0  0  0  0
   -2.0731    5.9449   -0.8689 H   0  0  0  0  0  0  0  0  0  0  0  0
    0.7571    0.0489    1.4270 C   0  0  0  0  0  0  0  0  0  0  0  0
    1.7923   -0.4137    0.9644 O   0  0  0  0  0  0  0  0  0  0  0  0
    0.6745    0.2906    2.7869 N   0  0  0  0  0  0  0  0  0  0  0  0
   -0.2604    0.4849    3.1318 H   0  0  0  0  0  0  0  0  0  0  0  0
    1.6448   -0.2566    3.7266 C   0  0  0  0  0  0  0  0  0  0  0  0
    2.6532    0.0981    3.4890 H   0  0  0  0  0  0  0  0  0  0  0  0
    1.4021    0.0571    4.7463 H   0  0  0  0  0  0  0  0  0  0  0  0
    1.6379   -1.3511    3.6877 H   0  0  0  0  0  0  0  0  0  0  0  0
  1  2  1  0  0  0  0
  2  3  1  0  0  0  0
  2  4  1  0  0  0  0
  2  5  1  0  0  0  0
  5  6  2  0  0  0  0
  5  7  1  0  0  0  0
  7  8  1  0  0  0  0
  7  9  1  0  0  0  0
  9 10  1  0  0  0  0
  9 11  1  0  0  0  0
  9 21  1  0  0  0  0
 11 12  1  0  0  0  0
 11 13  1  0  0  0  0
 11 14  1  0  0  0  0
 14 15  1  0  0  0  0
 14 16  1  0  0  0  0
 14 17  1  0  0  0  0
 17 18  2  0  0  0  0
 17 19  1  0  0  0  0
 19 20  1  0  0  0  0
 21 22  2  0  0  0  0
 21 23  1  0  0  0  0
 23 24  1  0  0  0  0
 23 25  1  0  0  0  0
 25 26  1  0  0  0  0
 25 27  1  0  0  0  0
 25 28  1  0  0  0  0
M  END
$$$$

  -OEChem-01062216073D

 28 27  0     1  0  0  0  0  0999 V2000
   -3.5406   -2.8302    0.9507 H   0  0  0  0  0  0  0  0  0  0  0  0
   -3.4049   -1.8292    0.5309 C   0  0  0  0  0  0  0  0  0  0  0  0
   -4.1810   -1.1719    0.9303 H   0  0  0  0  0  0  0  0  0  0  0  0
   -3.5089   -1.8887   -0.5553 H   0  0  0  0  0  0  0  0  0  0  0  0
   -2.0329   -1.2919    0.8922 C   0  0  0  0  0  0  0  0  0  0  0  0
   -1.3292   -1.9320    1.6507 O   0  0  0  0  0  0  0  0  0  0  0  0
   -1.6470   -0.0629    0.3884 N   0  0  0  0  0  0  0  0  0  0  0  0
   -2.3215    0.3621   -0.2399 H   0  0  0  0  0  0  0  0  0  0  0  0
   -0.3140    0.5841    0.4489 C   0  0  1  0  0  0  0  0  0  0  0  0
    0.1400    0.4858   -0.5433 H   0  0  0  0  0  0  0  0  0  0  0  0
   -0.5268    2.0800    0.7480 C   0  0  0  0  0  0  0  0  0  0  0  0
   -1.1171    2.1856    1.6653 H   0  0  0  0  0  0  0  0  0  0  0  0
    0.4465    2.5531    0.9278 H   0  0  0  0  0  0  0  0  0  0  0  0
   -1.2228    2.8171   -0.4172 C   0  0  0  0  0  0  0  0  0  0  0  0
   -0.6050    2.7324   -1.3160 H   0  0  0  0  0  0  0  0  0  0  0  0
   -2.1891    2.3550   -0.6307 H   0  0  0  0  0  0  0  0  0  0  0  0
   -1.4735    4.3017   -0.1487 C   0  0  0  0  0  0  0  0  0  0  0  0
   -1.2489    4.7714    0.9543 O   0  0  0  0  0  0  0  0  0  0  0  0
   -1.9593    5.0270   -1.1812 O   0  0  0  0  0  0  0  0  0  0  0  0
   -2.0513    5.9331   -0.8483 H   0  0  0  0  0  0  0  0  0  0  0  0
    0.7534    0.0387    1.4329 C   0  0  0  0  0  0  0  0  0  0  0  0
    1.8922   -0.1400    1.0192 O   0  0  0  0  0  0  0  0  0  0  0  0
    0.5182    0.0102    2.7956 N   0  0  0  0  0  0  0  0  0  0  0  0
   -0.4617   -0.1009    3.0427 H   0  0  0  0  0  0  0  0  0  0  0  0
    1.5080   -0.5019    3.7348 C   0  0  0  0  0  0  0  0  0  0  0  0
    2.4383    0.0720    3.6655 H   0  0  0  0  0  0  0  0  0  0  0  0
    1.1324   -0.4233    4.7593 H   0  0  0  0  0  0  0  0  0  0  0  0
    1.7263   -1.5541    3.5233 H   0  0  0  0  0  0  0  0  0  0  0  0
  1  2  1  0  0  0  0
  2  3  1  0  0  0  0
  2  4  1  0  0  0  0
  2  5  1  0  0  0  0
  5  6  2  0  0  0  0
  5  7  1  0  0  0  0
  7  8  1  0  0  0  0
  7  9  1  0  0  0  0
  9 10  1  0  0  0  0
  9 11  1  0  0  0  0
  9 21  1  0  0  0  0
 11 12  1  0  0  0  0
 11 13  1  0  0  0  0
 11 14  1  0  0  0  0
 14 15  1  0  0  0  0
 14 16  1  0  0  0  0
 14 17  1  0  0  0  0
 17 18  2  0  0  0  0
 17 19  1  0  0  0  0
 19 20  1  0  0  0  0
 21 22  2  0  0  0  0
 21 23  1  0  0  0  0
 23 24  1  0  0  0  0
 23 25  1  0  0  0  0
 25 26  1  0  0  0  0
 25 27  1  0  0  0  0
 25 28  1  0  0  0  0
M  END
$$$$

  -OEChem-01062216073D

 28 27  0     1  0  0  0  0  0999 V2000
   -3.6570   -2.7780    0.9079 H   0  0  0  0  0  0  0  0  0  0  0  0
   -3.4828   -1.7793    0.4968 C   0  0  0  0  0  0  0  0  0  0  0  0
   -4.2169   -1.0911    0.9229 H   0  0  0  0  0  0  0  0  0  0  0  0
   -3.6156   -1.8194   -0.5872 H   0  0  0  0  0  0  0  0  0  0  0  0
   -2.0781   -1.3134    0.8311 C   0  0  0  0  0  0  0  0  0  0  0  0
   -1.3751   -2.0182    1.5305 O   0  0  0  0  0  0  0  0  0  0  0  0
   -1.6526   -0.0880    0.3521 N   0  0  0  0  0  0  0  0  0  0  0  0
   -2.3334    0.3919   -0.2281 H   0  0  0  0  0  0  0  0  0  0  0  0
   -0.3163    0.5519    0.4466 C   0  0  1  0  0  0  0  0  0  0  0  0
    0.1529    0.4616   -0.5391 H   0  0  0  0  0  0  0  0  0  0  0  0
   -0.5403    2.0449    0.7560 C   0  0  0  0  0  0  0  0  0  0  0  0
   -1.1478    2.1379    1.6635 H   0  0  0  0  0  0  0  0  0  0  0  0
    0.4268    2.5203    0.9608 H   0  0  0  0  0  0  0  0  0  0  0  0
   -1.2124    2.7964   -0.4145 C   0  0  0  0  0  0  0  0  0  0  0  0
   -0.5742    2.7253   -1.3000 H   0  0  0  0  0  0  0  0  0  0  0  0
   -2.1727    2.3362   -0.6560 H   0  0  0  0  0  0  0  0  0  0  0  0
   -1.4709    4.2774   -0.1310 C   0  0  0  0  0  0  0  0  0  0  0  0
   -1.2706    4.7326    0.9826 O   0  0  0  0  0  0  0  0  0  0  0  0
   -1.9352    5.0166   -1.1638 O   0  0  0  0  0  0  0  0  0  0  0  0
   -2.0340    5.9181   -0.8202 H   0  0  0  0  0  0  0  0  0  0  0  0
    0.7531    0.0240    1.4411 C   0  0  0  0  0  0  0  0  0  0  0  0
    1.9316    0.1189    1.1211 O   0  0  0  0  0  0  0  0  0  0  0  0
    0.4412   -0.2968    2.7490 N   0  0  0  0  0  0  0  0  0  0  0  0
   -0.4999   -0.6742    2.8545 H   0  0  0  0  0  0  0  0  0  0  0  0
    1.4522   -0.7647    3.6892 C   0  0  0  0  0  0  0  0  0  0  0  0
    2.2368   -0.0114    3.8172 H   0  0  0  0  0  0  0  0  0  0  0  0
    0.9984   -0.9563    4.6661 H   0  0  0  0  0  0  0  0  0  0  0  0
    1.9097   -1.6924    3.3292 H   0  0  0  0  0  0  0  0  0  0  0  0
  1  2  1  0  0  0  0
  2  3  1  0  0  0  0
  2  4  1  0  0  0  0
  2  5  1  0  0  0  0
  5  6  2  0  0  0  0
  5  7  1  0  0  0  0
  7  8  1  0  0  0  0
  7  9  1  0  0  0  0
  9 10  1  0  0  0  0
  9 11  1  0  0  0  0
  9 21  1  0  0  0  0
 11 12  1  0  0  0  0
 11 13  1  0  0  0  0
 11 14  1  0  0  0  0
 14 15  1  0  0  0  0
 14 16  1  0  0  0  0
 14 17  1  0  0  0  0
 17 18  2  0  0  0  0
 17 19  1  0  0  0  0
 19 20  1  0  0  0  0
 21 22  2  0  0  0  0
 21 23  1  0  0  0  0
 23 24  1  0  0  0  0
 23 25  1  0  0  0  0
 25 26  1  0  0  0  0
 25 27  1  0  0  0  0
 25 28  1  0  0  0  0
M  END
$$$$

  -OEChem-01062216073D

 28 27  0     1  0  0  0  0  0999 V2000
   -3.7681   -2.7001    0.8676 H   0  0  0  0  0  0  0  0  0  0  0  0
   -3.5526   -1.7001    0.4798 C   0  0  0  0  0  0  0  0  0  0  0  0
   -4.2188   -0.9838    0.9671 H   0  0  0  0  0  0  0  0  0  0  0  0
   -3.7441   -1.6931   -0.5961 H   0  0  0  0  0  0  0  0  0  0  0  0
   -2.1059   -1.3324    0.7520 C   0  0  0  0  0  0  0  0  0  0  0  0
   -1.3963   -2.1288    1.3371 O   0  0  0  0  0  0  0  0  0  0  0  0
   -1.6424   -0.1068    0.3117 N   0  0  0  0  0  0  0  0  0  0  0  0
   -2.3386    0.4421   -0.1824 H   0  0  0  0  0  0  0  0  0  0  0  0
   -0.3070    0.5297    0.4515 C   0  0  1  0  0  0  0  0  0  0  0  0
    0.1841    0.4532   -0.5243 H   0  0  0  0  0  0  0  0  0  0  0  0
   -0.5613    2.0184    0.7673 C   0  0  0  0  0  0  0  0  0  0  0  0
   -1.1987    2.0946    1.6556 H   0  0  0  0  0  0  0  0  0  0  0  0
    0.3901    2.5088    1.0074 H   0  0  0  0  0  0  0  0  0  0  0  0
   -1.2048    2.7720   -0.4182 C   0  0  0  0  0  0  0  0  0  0  0  0
   -0.5360    2.7174   -1.2820 H   0  0  0  0  0  0  0  0  0  0  0  0
   -2.1500    2.3028   -0.6979 H   0  0  0  0  0  0  0  0  0  0  0  0
   -1.4929    4.2467   -0.1317 C   0  0  0  0  0  0  0  0  0  0  0  0
   -1.3361    4.6953    0.9914 O   0  0  0  0  0  0  0  0  0  0  0  0
   -1.9336    4.9875   -1.1734 O   0  0  0  0  0  0  0  0  0  0  0  0
   -2.0514    5.8858   -0.8274 H   0  0  0  0  0  0  0  0  0  0  0  0
    0.7606    0.0155    1.4595 C   0  0  0  0  0  0  0  0  0  0  0  0
    1.9285    0.3241    1.2554 O   0  0  0  0  0  0  0  0  0  0  0  0
    0.4462   -0.5984    2.6565 N   0  0  0  0  0  0  0  0  0  0  0  0
   -0.4394   -1.1058    2.6365 H   0  0  0  0  0  0  0  0  0  0  0  0
    1.4682   -1.0722    3.5817 C   0  0  0  0  0  0  0  0  0  0  0  0
    2.1035   -0.2430    3.9105 H   0  0  0  0  0  0  0  0  0  0  0  0
    0.9996   -1.5164    4.4649 H   0  0  0  0  0  0  0  0  0  0  0  0
    2.0974   -1.8298    3.1029 H   0  0  0  0  0  0  0  0  0  0  0  0
  1  2  1  0  0  0  0
  2  3  1  0  0  0  0
  2  4  1  0  0  0  0
  2  5  1  0  0  0  0
  5  6  2  0  0  0  0
  5  7  1  0  0  0  0
  7  8  1  0  0  0  0
  7  9  1  0  0  0  0
  9 10  1  0  0  0  0
  9 11  1  0  0  0  0
  9 21  1  0  0  0  0
 11 12  1  0  0  0  0
 11 13  1  0  0  0  0
 11 14  1  0  0  0  0
 14 15  1  0  0  0  0
 14 16  1  0  0  0  0
 14 17  1  0  0  0  0
 17 18  2  0  0  0  0
 17 19  1  0  0  0  0
 19 20  1  0  0  0  0
 21 22  2  0  0  0  0
 21 23  1  0  0  0  0
 23 24  1  0  0  0  0
 23 25  1  0  0  0  0
 25 26  1  0  0  0  0
 25 27  1  0  0  0  0
 25 28  1  0  0  0  0
M  END
$$$$

  -OEChem-01062216073D

 28 27  0     1  0  0  0  0  0999 V2000
   -3.8465   -2.6234    0.8817 H   0  0  0  0  0  0  0  0  0  0  0  0
   -3.6014   -1.6315    0.4910 C   0  0  0  0  0  0  0  0  0  0  0  0
   -4.2001   -0.8883    1.0232 H   0  0  0  0  0  0  0  0  0  0  0  0
   -3.8534   -1.6010   -0.5718 H   0  0  0  0  0  0  0  0  0  0  0  0
   -2.1243   -1.3431    0.6820 C   0  0  0  0  0  0  0  0  0  0  0  0
   -1.4103   -2.2182    1.1342 O   0  0  0  0  0  0  0  0  0  0  0  0
   -1.6350   -0.1152    0.2776 N   0  0  0  0  0  0  0  0  0  0  0  0
   -2.3453    0.4893   -0.1227 H   0  0  0  0  0  0  0  0  0  0  0  0
   -0.3004    0.5162    0.4562 C   0  0  1  0  0  0  0  0  0  0  0  0
    0.2096    0.4509   -0.5106 H   0  0  0  0  0  0  0  0  0  0  0  0
   -0.5808    2.0029    0.7727 C   0  0  0  0  0  0  0  0  0  0  0  0
   -1.2433    2.0671    1.6433 H   0  0  0  0  0  0  0  0  0  0  0  0
    0.3552    2.5069    1.0421 H   0  0  0  0  0  0  0  0  0  0  0  0
   -1.1980    2.7583   -0.4268 C   0  0  0  0  0  0  0  0  0  0  0  0
   -0.5029    2.7175   -1.2704 H   0  0  0  0  0  0  0  0  0  0  0  0
   -2.1291    2.2816   -0.7393 H   0  0  0  0  0  0  0  0  0  0  0  0
   -1.5102    4.2280   -0.1393 C   0  0  0  0  0  0  0  0  0  0  0  0
   -1.3907    4.6701    0.9909 O   0  0  0  0  0  0  0  0  0  0  0  0
   -1.9330    4.9704   -1.1873 O   0  0  0  0  0  0  0  0  0  0  0  0
   -2.0753    5.8638   -0.8380 H   0  0  0  0  0  0  0  0  0  0  0  0
    0.7623    0.0020    1.4753 C   0  0  0  0  0  0  0  0  0  0  0  0
    1.8909    0.4732    1.4011 O   0  0  0  0  0  0  0  0  0  0  0  0
    0.5042   -0.8739    2.5114 N   0  0  0  0  0  0  0  0  0  0  0  0
   -0.3303   -1.4482    2.3845 H   0  0  0  0  0  0  0  0  0  0  0  0
    1.5427   -1.3785    3.4015 C   0  0  0  0  0  0  0  0  0  0  0  0
    2.0333   -0.5523    3.9265 H   0  0  0  0  0  0  0  0  0  0  0  0
    1.1055   -2.0486    4.1481 H   0  0  0  0  0  0  0  0  0  0  0  0
    2.2969   -1.9341    2.8345 H   0  0  0  0  0  0  0  0  0  0  0  0
  1  2  1  0  0  0  0
  2  3  1  0  0  0  0
  2  4  1  0  0  0  0
  2  5  1  0  0  0  0
  5  6  2  0  0  0  0
  5  7  1  0  0  0  0
  7  8  1  0  0  0  0
  7  9  1  0  0  0  0
  9 10  1  0  0  0  0
  9 11  1  0  0  0  0
  9 21  1  0  0  0  0
 11 12  1  0  0  0  0
 11 13  1  0  0  0  0
 11 14  1  0  0  0  0
 14 15  1  0  0  0  0
 14 16  1  0  0  0  0
 14 17  1  0  0  0  0
 17 18  2  0  0  0  0
 17 19  1  0  0  0  0
 19 20  1  0  0  0  0
 21 22  2  0  0  0  0
 21 23  1  0  0  0  0
 23 24  1  0  0  0  0
 23 25  1  0  0  0  0
 25 26  1  0  0  0  0
 25 27  1  0  0  0  0
 25 28  1  0  0  0  0
M  END
$$$$

  -OEChem-01062216073D

 28 27  0     1  0  0  0  0  0999 V2000
   -3.4042   -2.7712    1.0976 H   0  0  0  0  0  0  0  0  0  0  0  0
   -3.2646   -1.7518    0.7266 C   0  0  0  0  0  0  0  0  0  0  0  0
   -3.8063   -1.0648    1.3811 H   0  0  0  0  0  0  0  0  0  0  0  0
   -3.6755   -1.6850   -0.2837 H   0  0  0  0  0  0  0  0  0  0  0  0
   -1.7890   -1.4000    0.7115 C   0  0  0  0  0  0  0  0  0  0  0  0
   -0.9696   -2.2881    0.8426 O   0  0  0  0  0  0  0  0  0  0  0  0
   -1.4066   -0.1407    0.2979 N   0  0  0  0  0  0  0  0  0  0  0  0
   -2.2043    0.4258    0.0296 H   0  0  0  0  0  0  0  0  0  0  0  0
   -0.2318    0.6612    0.7221 C   0  0  1  0  0  0  0  0  0  0  0  0
    0.5006    0.5915   -0.0884 H   0  0  0  0  0  0  0  0  0  0  0  0
   -0.7529    2.1189    0.7899 C   0  0  0  0  0  0  0  0  0  0  0  0
   -1.6155    2.1652    1.4641 H   0  0  0  0  0  0  0  0  0  0  0  0
    0.0167    2.7774    1.2077 H   0  0  0  0  0  0  0  0  0  0  0  0
   -1.1240    2.6749   -0.6048 C   0  0  0  0  0  0  0  0  0  0  0  0
   -0.2354    2.6605   -1.2423 H   0  0  0  0  0  0  0  0  0  0  0  0
   -1.8803    2.0457   -1.0787 H   0  0  0  0  0  0  0  0  0  0  0  0
   -1.6660    4.1050   -0.5785 C   0  0  0  0  0  0  0  0  0  0  0  0
   -1.8923    4.6542    0.4866 O   0  0  0  0  0  0  0  0  0  0  0  0
   -1.8830    4.6905   -1.7777 O   0  0  0  0  0  0  0  0  0  0  0  0
   -2.2105    5.5818   -1.5817 H   0  0  0  0  0  0  0  0  0  0  0  0
    0.6077    0.3257    2.0022 C   0  0  0  0  0  0  0  0  0  0  0  0
    1.3665    1.1637    2.4661 O   0  0  0  0  0  0  0  0  0  0  0  0
    0.4220   -0.6969    2.8997 N   0  0  0  0  0  0  0  0  0  0  0  0
    0.5731   -0.3263    3.8338 H   0  0  0  0  0  0  0  0  0  0  0  0
    1.2186   -1.9011    2.6845 C   0  0  0  0  0  0  0  0  0  0  0  0
    2.1491   -1.8437    3.2582 H   0  0  0  0  0  0  0  0  0  0  0  0
    0.6605   -2.7846    3.0099 H   0  0  0  0  0  0  0  0  0  0  0  0
    1.4786   -2.0294    1.6279 H   0  0  0  0  0  0  0  0  0  0  0  0
  1  2  1  0  0  0  0
  2  3  1  0  0  0  0
  2  4  1  0  0  0  0
  2  5  1  0  0  0  0
  5  6  2  0  0  0  0
  5  7  1  0  0  0  0
  7  8  1  0  0  0  0
  7  9  1  0  0  0  0
  9 10  1  0  0  0  0
  9 11  1  0  0  0  0
  9 21  1  0  0  0  0
 11 12  1  0  0  0  0
 11 13  1  0  0  0  0
 11 14  1  0  0  0  0
 14 15  1  0  0  0  0
 14 16  1  0  0  0  0
 14 17  1  0  0  0  0
 17 18  2  0  0  0  0
 17 19  1  0  0  0  0
 19 20  1  0  0  0  0
 21 22  2  0  0  0  0
 21 23  1  0  0  0  0
 23 24  1  0  0  0  0
 23 25  1  0  0  0  0
 25 26  1  0  0  0  0
 25 27  1  0  0  0  0
 25 28  1  0  0  0  0
M  END
$$$$

  -OEChem-01062216073D

 28 27  0     1  0  0  0  0  0999 V2000
   -3.2136   -2.8668    1.4056 H   0  0  0  0  0  0  0  0  0  0  0  0
   -3.1560   -1.8360    1.0444 C   0  0  0  0  0  0  0  0  0  0  0  0
   -3.4959   -1.1670    1.8386 H   0  0  0  0  0  0  0  0  0  0  0  0
   -3.8143   -1.7290    0.1788 H   0  0  0  0  0  0  0  0  0  0  0  0
   -1.7292   -1.4988    0.6547 C   0  0  0  0  0  0  0  0  0  0  0  0
   -0.9181   -2.3983    0.5551 O   0  0  0  0  0  0  0  0  0  0  0  0
   -1.4404   -0.2181    0.2308 N   0  0  0  0  0  0  0  0  0  0  0  0
   -2.2573    0.3832    0.2199 H   0  0  0  0  0  0  0  0  0  0  0  0
   -0.1469    0.5109    0.2184 C   0  0  1  0  0  0  0  0  0  0  0  0
    0.1912    0.5077   -0.8230 H   0  0  0  0  0  0  0  0  0  0  0  0
   -0.5022    1.9617    0.6226 C   0  0  0  0  0  0  0  0  0  0  0  0
   -1.0221    1.9516    1.5871 H   0  0  0  0  0  0  0  0  0  0  0  0
    0.4150    2.5469    0.7581 H   0  0  0  0  0  0  0  0  0  0  0  0
   -1.3613    2.6801   -0.4442 C   0  0  0  0  0  0  0  0  0  0  0  0
   -0.8032    2.7183   -1.3843 H   0  0  0  0  0  0  0  0  0  0  0  0
   -2.2844    2.1267   -0.6294 H   0  0  0  0  0  0  0  0  0  0  0  0
   -1.7502    4.1100   -0.0637 C   0  0  0  0  0  0  0  0  0  0  0  0
   -1.4942    4.5374    1.0497 O   0  0  0  0  0  0  0  0  0  0  0  0
   -2.3899    4.8345   -1.0093 O   0  0  0  0  0  0  0  0  0  0  0  0
   -2.5481    5.7059   -0.6146 H   0  0  0  0  0  0  0  0  0  0  0  0
    1.1326    0.0803    1.0125 C   0  0  0  0  0  0  0  0  0  0  0  0
    2.1550    0.7231    0.8269 O   0  0  0  0  0  0  0  0  0  0  0  0
    1.4454   -1.1072    1.6265 N   0  0  0  0  0  0  0  0  0  0  0  0
    2.4548   -1.2118    1.6807 H   0  0  0  0  0  0  0  0  0  0  0  0
    0.7302   -1.5214    2.8276 C   0  0  0  0  0  0  0  0  0  0  0  0
    1.3334   -1.3037    3.7146 H   0  0  0  0  0  0  0  0  0  0  0  0
   -0.2241   -0.9954    2.9302 H   0  0  0  0  0  0  0  0  0  0  0  0
    0.5334   -2.5979    2.7969 H   0  0  0  0  0  0  0  0  0  0  0  0
  1  2  1  0  0  0  0
  2  3  1  0  0  0  0
  2  4  1  0  0  0  0
  2  5  1  0  0  0  0
  5  6  2  0  0  0  0
  5  7  1  0  0  0  0
  7  8  1  0  0  0  0
  7  9  1  0  0  0  0
  9 10  1  0  0  0  0
  9 11  1  0  0  0  0
  9 21  1  0  0  0  0
 11 12  1  0  0  0  0
 11 13  1  0  0  0  0
 11 14  1  0  0  0  0
 14 15  1  0  0  0  0
 14 16  1  0  0  0  0
 14 17  1  0  0  0  0
 17 18  2  0  0  0  0
 17 19  1  0  0  0  0
 19 20  1  0  0  0  0
 21 22  2  0  0  0  0
 21 23  1  0  0  0  0
 23 24  1  0  0  0  0
 23 25  1  0  0  0  0
 25 26  1  0  0  0  0
 25 27  1  0  0  0  0
 25 28  1  0  0  0  0
M  END
$$$$

  -OEChem-01062216073D

 28 27  0     1  0  0  0  0  0999 V2000
   -3.3481   -2.7556    1.4232 H   0  0  0  0  0  0  0  0  0  0  0  0
   -3.2373   -1.7034    1.1453 C   0  0  0  0  0  0  0  0  0  0  0  0
   -3.4604   -1.0854    2.0183 H   0  0  0  0  0  0  0  0  0  0  0  0
   -3.9512   -1.4732    0.3506 H   0  0  0  0  0  0  0  0  0  0  0  0
   -1.8230   -1.4349    0.6663 C   0  0  0  0  0  0  0  0  0  0  0  0
   -1.0761   -2.3759    0.4870 O   0  0  0  0  0  0  0  0  0  0  0  0
   -1.4932   -0.1589    0.2586 N   0  0  0  0  0  0  0  0  0  0  0  0
   -2.2788    0.4801    0.3207 H   0  0  0  0  0  0  0  0  0  0  0  0
   -0.1723    0.5167    0.1908 C   0  0  1  0  0  0  0  0  0  0  0  0
    0.1124    0.5183   -0.8662 H   0  0  0  0  0  0  0  0  0  0  0  0
   -0.4617    1.9755    0.6268 C   0  0  0  0  0  0  0  0  0  0  0  0
   -0.9373    1.9708    1.6140 H   0  0  0  0  0  0  0  0  0  0  0  0
    0.4753    2.5351    0.7258 H   0  0  0  0  0  0  0  0  0  0  0  0
   -1.3447    2.7316   -0.3940 C   0  0  0  0  0  0  0  0  0  0  0  0
   -0.8269    2.7628   -1.3571 H   0  0  0  0  0  0  0  0  0  0  0  0
   -2.2919    2.2091   -0.5442 H   0  0  0  0  0  0  0  0  0  0  0  0
   -1.6722    4.1690    0.0142 C   0  0  0  0  0  0  0  0  0  0  0  0
   -1.3547    4.5790    1.1181 O   0  0  0  0  0  0  0  0  0  0  0  0
   -2.3319    4.9198   -0.8965 O   0  0  0  0  0  0  0  0  0  0  0  0
   -2.4474    5.7917   -0.4879 H   0  0  0  0  0  0  0  0  0  0  0  0
    1.1270    0.0068    0.9050 C   0  0  0  0  0  0  0  0  0  0  0  0
    2.1247    0.7106    0.8534 O   0  0  0  0  0  0  0  0  0  0  0  0
    1.5089   -1.2729    1.2183 N   0  0  0  0  0  0  0  0  0  0  0  0
    2.5177   -1.3484    1.1221 H   0  0  0  0  0  0  0  0  0  0  0  0
    1.0078   -1.8680    2.4515 C   0  0  0  0  0  0  0  0  0  0  0  0
    0.0696   -1.4035    2.7710 H   0  0  0  0  0  0  0  0  0  0  0  0
    0.8324   -2.9389    2.3072 H   0  0  0  0  0  0  0  0  0  0  0  0
    1.7407   -1.7397    3.2542 H   0  0  0  0  0  0  0  0  0  0  0  0
  1  2  1  0  0  0  0
  2  3  1  0  0  0  0
  2  4  1  0  0  0  0
  2  5  1  0  0  0  0
  5  6  2  0  0  0  0
  5  7  1  0  0  0  0
  7  8  1  0  0  0  0
  7  9  1  0  0  0  0
  9 10  1  0  0  0  0
  9 11  1  0  0  0  0
  9 21  1  0  0  0  0
 11 12  1  0  0  0  0
 11 13  1  0  0  0  0
 11 14  1  0  0  0  0
 14 15  1  0  0  0  0
 14 16  1  0  0  0  0
 14 17  1  0  0  0  0
 17 18  2  0  0  0  0
 17 19  1  0  0  0  0
 19 20  1  0  0  0  0
 21 22  2  0  0  0  0
 21 23  1  0  0  0  0
 23 24  1  0  0  0  0
 23 25  1  0  0  0  0
 25 26  1  0  0  0  0
 25 27  1  0  0  0  0
 25 28  1  0  0  0  0
M  END
$$$$

  -OEChem-01062216073D

 28 27  0     1  0  0  0  0  0999 V2000
   -3.7630   -2.6065    1.0197 H   0  0  0  0  0  0  0  0  0  0  0  0
   -3.5484   -1.5873    0.6851 C   0  0  0  0  0  0  0  0  0  0  0  0
   -4.0067   -0.8861    1.3868 H   0  0  0  0  0  0  0  0  0  0  0  0
   -3.9875   -1.4423   -0.3050 H   0  0  0  0  0  0  0  0  0  0  0  0
   -2.0494   -1.3593    0.6264 C   0  0  0  0  0  0  0  0  0  0  0  0
   -1.3073   -2.3083    0.7953 O   0  0  0  0  0  0  0  0  0  0  0  0
   -1.5905   -0.1052    0.2684 N   0  0  0  0  0  0  0  0  0  0  0  0
   -2.3459    0.5524    0.1035 H   0  0  0  0  0  0  0  0  0  0  0  0
   -0.2520    0.5286    0.4053 C   0  0  1  0  0  0  0  0  0  0  0  0
    0.2145    0.4915   -0.5839 H   0  0  0  0  0  0  0  0  0  0  0  0
   -0.5454    2.0145    0.7384 C   0  0  0  0  0  0  0  0  0  0  0  0
   -1.1728    2.0687    1.6353 H   0  0  0  0  0  0  0  0  0  0  0  0
    0.3885    2.5412    0.9655 H   0  0  0  0  0  0  0  0  0  0  0  0
   -1.2117    2.7618   -0.4413 C   0  0  0  0  0  0  0  0  0  0  0  0
   -0.5416    2.7341   -1.3052 H   0  0  0  0  0  0  0  0  0  0  0  0
   -2.1432    2.2699   -0.7284 H   0  0  0  0  0  0  0  0  0  0  0  0
   -1.5398    4.2261   -0.1441 C   0  0  0  0  0  0  0  0  0  0  0  0
   -1.3943    4.6714    0.9814 O   0  0  0  0  0  0  0  0  0  0  0  0
   -2.0036    4.9613   -1.1798 O   0  0  0  0  0  0  0  0  0  0  0  0
   -2.1515    5.8519   -0.8255 H   0  0  0  0  0  0  0  0  0  0  0  0
    0.8531   -0.0676    1.3431 C   0  0  0  0  0  0  0  0  0  0  0  0
    1.5440    0.6778    2.0276 O   0  0  0  0  0  0  0  0  0  0  0  0
    1.1654   -1.4113    1.3974 N   0  0  0  0  0  0  0  0  0  0  0  0
    0.4712   -2.0392    0.9863 H   0  0  0  0  0  0  0  0  0  0  0  0
    2.1396   -1.9779    2.3226 C   0  0  0  0  0  0  0  0  0  0  0  0
    1.8350   -1.7967    3.3586 H   0  0  0  0  0  0  0  0  0  0  0  0
    2.2209   -3.0580    2.1683 H   0  0  0  0  0  0  0  0  0  0  0  0
    3.1267   -1.5319    2.1616 H   0  0  0  0  0  0  0  0  0  0  0  0
  1  2  1  0  0  0  0
  2  3  1  0  0  0  0
  2  4  1  0  0  0  0
  2  5  1  0  0  0  0
  5  6  2  0  0  0  0
  5  7  1  0  0  0  0
  7  8  1  0  0  0  0
  7  9  1  0  0  0  0
  9 10  1  0  0  0  0
  9 11  1  0  0  0  0
  9 21  1  0  0  0  0
 11 12  1  0  0  0  0
 11 13  1  0  0  0  0
 11 14  1  0  0  0  0
 14 15  1  0  0  0  0
 14 16  1  0  0  0  0
 14 17  1  0  0  0  0
 17 18  2  0  0  0  0
 17 19  1  0  0  0  0
 19 20  1  0  0  0  0
 21 22  2  0  0  0  0
 21 23  1  0  0  0  0
 23 24  1  0  0  0  0
 23 25  1  0  0  0  0
 25 26  1  0  0  0  0
 25 27  1  0  0  0  0
 25 28  1  0  0  0  0
M  END
$$$$

  -OEChem-01062216073D

 28 27  0     1  0  0  0  0  0999 V2000
   -3.5956   -2.6866    1.1003 H   0  0  0  0  0  0  0  0  0  0  0  0
   -3.4437   -1.6563    0.7655 C   0  0  0  0  0  0  0  0  0  0  0  0
   -3.8848   -0.9809    1.5027 H   0  0  0  0  0  0  0  0  0  0  0  0
   -3.9491   -1.5199   -0.1937 H   0  0  0  0  0  0  0  0  0  0  0  0
   -1.9619   -1.3664    0.6179 C   0  0  0  0  0  0  0  0  0  0  0  0
   -1.1685   -2.2841    0.7201 O   0  0  0  0  0  0  0  0  0  0  0  0
   -1.5672   -0.0957    0.2430 N   0  0  0  0  0  0  0  0  0  0  0  0
   -2.3469    0.5459    0.1389 H   0  0  0  0  0  0  0  0  0  0  0  0
   -0.2426    0.5614    0.3802 C   0  0  1  0  0  0  0  0  0  0  0  0
    0.2315    0.5317   -0.6058 H   0  0  0  0  0  0  0  0  0  0  0  0
   -0.5326    2.0431    0.7208 C   0  0  0  0  0  0  0  0  0  0  0  0
   -1.1568    2.0943    1.6202 H   0  0  0  0  0  0  0  0  0  0  0  0
    0.4066    2.5610    0.9480 H   0  0  0  0  0  0  0  0  0  0  0  0
   -1.2051    2.7919   -0.4531 C   0  0  0  0  0  0  0  0  0  0  0  0
   -0.5412    2.7648   -1.3218 H   0  0  0  0  0  0  0  0  0  0  0  0
   -2.1382    2.2990   -0.7336 H   0  0  0  0  0  0  0  0  0  0  0  0
   -1.5321    4.2555   -0.1523 C   0  0  0  0  0  0  0  0  0  0  0  0
   -1.3810    4.6995    0.9730 O   0  0  0  0  0  0  0  0  0  0  0  0
   -1.9966    4.9931   -1.1862 O   0  0  0  0  0  0  0  0  0  0  0  0
   -2.1403    5.8839   -0.8310 H   0  0  0  0  0  0  0  0  0  0  0  0
    0.8391   -0.0477    1.3302 C   0  0  0  0  0  0  0  0  0  0  0  0
    1.3440    0.6329    2.2156 O   0  0  0  0  0  0  0  0  0  0  0  0
    1.3343   -1.3244    1.1501 N   0  0  0  0  0  0  0  0  0  0  0  0
    0.6986   -1.9478    0.6470 H   0  0  0  0  0  0  0  0  0  0  0  0
    2.2805   -1.9390    2.0735 C   0  0  0  0  0  0  0  0  0  0  0  0
    1.8387   -2.0268    3.0716 H   0  0  0  0  0  0  0  0  0  0  0  0
    2.5517   -2.9397    1.7238 H   0  0  0  0  0  0  0  0  0  0  0  0
    3.1948   -1.3402    2.1435 H   0  0  0  0  0  0  0  0  0  0  0  0
  1  2  1  0  0  0  0
  2  3  1  0  0  0  0
  2  4  1  0  0  0  0
  2  5  1  0  0  0  0
  5  6  2  0  0  0  0
  5  7  1  0  0  0  0
  7  8  1  0  0  0  0
  7  9  1  0  0  0  0
  9 10  1  0  0  0  0
  9 11  1  0  0  0  0
  9 21  1  0  0  0  0
 11 12  1  0  0  0  0
 11 13  1  0  0  0  0
 11 14  1  0  0  0  0
 14 15  1  0  0  0  0
 14 16  1  0  0  0  0
 14 17  1  0  0  0  0
 17 18  2  0  0  0  0
 17 19  1  0  0  0  0
 19 20  1  0  0  0  0
 21 22  2  0  0  0  0
 21 23  1  0  0  0  0
 23 24  1  0  0  0  0
 23 25  1  0  0  0  0
 25 26  1  0  0  0  0
 25 27  1  0  0  0  0
 25 28  1  0  0  0  0
M  END
$$$$

  -OEChem-01062216073D

 28 27  0     1  0  0  0  0  0999 V2000
   -3.4399   -2.7437    1.1757 H   0  0  0  0  0  0  0  0  0  0  0  0
   -3.3452   -1.7140    0.8191 C   0  0  0  0  0  0  0  0  0  0  0  0
   -3.7860   -1.0451    1.5624 H   0  0  0  0  0  0  0  0  0  0  0  0
   -3.8920   -1.6152   -0.1218 H   0  0  0  0  0  0  0  0  0  0  0  0
   -1.8839   -1.3656    0.6093 C   0  0  0  0  0  0  0  0  0  0  0  0
   -1.0450   -2.2474    0.6725 O   0  0  0  0  0  0  0  0  0  0  0  0
   -1.5488   -0.0856    0.2093 N   0  0  0  0  0  0  0  0  0  0  0  0
   -2.3467    0.5392    0.1503 H   0  0  0  0  0  0  0  0  0  0  0  0
   -0.2361    0.5878    0.3527 C   0  0  1  0  0  0  0  0  0  0  0  0
    0.2533    0.5645   -0.6261 H   0  0  0  0  0  0  0  0  0  0  0  0
   -0.5243    2.0652    0.7046 C   0  0  0  0  0  0  0  0  0  0  0  0
   -1.1509    2.1097    1.6028 H   0  0  0  0  0  0  0  0  0  0  0  0
    0.4178    2.5739    0.9413 H   0  0  0  0  0  0  0  0  0  0  0  0
   -1.1984    2.8217   -0.4630 C   0  0  0  0  0  0  0  0  0  0  0  0
   -0.5368    2.7993   -1.3335 H   0  0  0  0  0  0  0  0  0  0  0  0
   -2.1318    2.3287   -0.7433 H   0  0  0  0  0  0  0  0  0  0  0  0
   -1.5253    4.2837   -0.1533 C   0  0  0  0  0  0  0  0  0  0  0  0
   -1.3723    4.7212    0.9743 O   0  0  0  0  0  0  0  0  0  0  0  0
   -1.9941    5.0265   -1.1814 O   0  0  0  0  0  0  0  0  0  0  0  0
   -2.1434    5.9136   -0.8190 H   0  0  0  0  0  0  0  0  0  0  0  0
    0.8085   -0.0347    1.3278 C   0  0  0  0  0  0  0  0  0  0  0  0
    1.1181    0.5425    2.3638 O   0  0  0  0  0  0  0  0  0  0  0  0
    1.5013   -1.1782    0.9785 N   0  0  0  0  0  0  0  0  0  0  0  0
    0.9726   -1.7922    0.3570 H   0  0  0  0  0  0  0  0  0  0  0  0
    2.4455   -1.8167    1.8878 C   0  0  0  0  0  0  0  0  0  0  0  0
    1.9366   -2.1427    2.8011 H   0  0  0  0  0  0  0  0  0  0  0  0
    2.8965   -2.6913    1.4094 H   0  0  0  0  0  0  0  0  0  0  0  0
    3.2474   -1.1222    2.1596 H   0  0  0  0  0  0  0  0  0  0  0  0
  1  2  1  0  0  0  0
  2  3  1  0  0  0  0
  2  4  1  0  0  0  0
  2  5  1  0  0  0  0
  5  6  2  0  0  0  0
  5  7  1  0  0  0  0
  7  8  1  0  0  0  0
  7  9  1  0  0  0  0
  9 10  1  0  0  0  0
  9 11  1  0  0  0  0
  9 21  1  0  0  0  0
 11 12  1  0  0  0  0
 11 13  1  0  0  0  0
 11 14  1  0  0  0  0
 14 15  1  0  0  0  0
 14 16  1  0  0  0  0
 14 17  1  0  0  0  0
 17 18  2  0  0  0  0
 17 19  1  0  0  0  0
 19 20  1  0  0  0  0
 21 22  2  0  0  0  0
 21 23  1  0  0  0  0
 23 24  1  0  0  0  0
 23 25  1  0  0  0  0
 25 26  1  0  0  0  0
 25 27  1  0  0  0  0
 25 28  1  0  0  0  0
M  END
$$$$

  -OEChem-01062216073D

 28 27  0     1  0  0  0  0  0999 V2000
   -3.3010   -2.7955    1.2178 H   0  0  0  0  0  0  0  0  0  0  0  0
   -3.2548   -1.7557    0.8818 C   0  0  0  0  0  0  0  0  0  0  0  0
   -3.6626   -1.1160    1.6683 H   0  0  0  0  0  0  0  0  0  0  0  0
   -3.8629   -1.6491   -0.0197 H   0  0  0  0  0  0  0  0  0  0  0  0
   -1.8185   -1.3647    0.5898 C   0  0  0  0  0  0  0  0  0  0  0  0
   -0.9471   -2.2180    0.6050 O   0  0  0  0  0  0  0  0  0  0  0  0
   -1.5375   -0.0783    0.1685 N   0  0  0  0  0  0  0  0  0  0  0  0
   -2.3490    0.5314    0.1655 H   0  0  0  0  0  0  0  0  0  0  0  0
   -0.2359    0.6097    0.3192 C   0  0  1  0  0  0  0  0  0  0  0  0
    0.2638    0.5946   -0.6543 H   0  0  0  0  0  0  0  0  0  0  0  0
   -0.5222    2.0819    0.6835 C   0  0  0  0  0  0  0  0  0  0  0  0
   -1.1517    2.1180    1.5803 H   0  0  0  0  0  0  0  0  0  0  0  0
    0.4212    2.5831    0.9299 H   0  0  0  0  0  0  0  0  0  0  0  0
   -1.1976    2.8465   -0.4775 C   0  0  0  0  0  0  0  0  0  0  0  0
   -0.5366    2.8311   -1.3487 H   0  0  0  0  0  0  0  0  0  0  0  0
   -2.1308    2.3540   -0.7602 H   0  0  0  0  0  0  0  0  0  0  0  0
   -1.5241    4.3060   -0.1574 C   0  0  0  0  0  0  0  0  0  0  0  0
   -1.3696    4.7350    0.9732 O   0  0  0  0  0  0  0  0  0  0  0  0
   -1.9928    5.0569   -1.1795 O   0  0  0  0  0  0  0  0  0  0  0  0
   -2.1426    5.9411   -0.8104 H   0  0  0  0  0  0  0  0  0  0  0  0
    0.7812   -0.0188    1.3136 C   0  0  0  0  0  0  0  0  0  0  0  0
    0.8663    0.4003    2.4623 O   0  0  0  0  0  0  0  0  0  0  0  0
    1.6876   -0.9650    0.8725 N   0  0  0  0  0  0  0  0  0  0  0  0
    1.3665   -1.4984    0.0672 H   0  0  0  0  0  0  0  0  0  0  0  0
    2.6025   -1.6348    1.7888 C   0  0  0  0  0  0  0  0  0  0  0  0
    2.0429   -2.2091    2.5346 H   0  0  0  0  0  0  0  0  0  0  0  0
    3.2538   -2.3202    1.2380 H   0  0  0  0  0  0  0  0  0  0  0  0
    3.2328   -0.9044    2.3069 H   0  0  0  0  0  0  0  0  0  0  0  0
  1  2  1  0  0  0  0
  2  3  1  0  0  0  0
  2  4  1  0  0  0  0
  2  5  1  0  0  0  0
  5  6  2  0  0  0  0
  5  7  1  0  0  0  0
  7  8  1  0  0  0  0
  7  9  1  0  0  0  0
  9 10  1  0  0  0  0
  9 11  1  0  0  0  0
  9 21  1  0  0  0  0
 11 12  1  0  0  0  0
 11 13  1  0  0  0  0
 11 14  1  0  0  0  0
 14 15  1  0  0  0  0
 14 16  1  0  0  0  0
 14 17  1  0  0  0  0
 17 18  2  0  0  0  0
 17 19  1  0  0  0  0
 19 20  1  0  0  0  0
 21 22  2  0  0  0  0
 21 23  1  0  0  0  0
 23 24  1  0  0  0  0
 23 25  1  0  0  0  0
 25 26  1  0  0  0  0
 25 27  1  0  0  0  0
 25 28  1  0  0  0  0
M  END
$$$$

  -OEChem-01062216073D

 28 27  0     1  0  0  0  0  0999 V2000
   -3.2320   -2.8170    1.2405 H   0  0  0  0  0  0  0  0  0  0  0  0
   -3.2070   -1.7722    0.9184 C   0  0  0  0  0  0  0  0  0  0  0  0
   -3.5914   -1.1472    1.7281 H   0  0  0  0  0  0  0  0  0  0  0  0
   -3.8480   -1.6583    0.0409 H   0  0  0  0  0  0  0  0  0  0  0  0
   -1.7854   -1.3642    0.5816 C   0  0  0  0  0  0  0  0  0  0  0  0
   -0.9012   -2.2052    0.5744 O   0  0  0  0  0  0  0  0  0  0  0  0
   -1.5322   -0.0781    0.1409 N   0  0  0  0  0  0  0  0  0  0  0  0
   -2.3496    0.5230    0.1644 H   0  0  0  0  0  0  0  0  0  0  0  0
   -0.2360    0.6181    0.2911 C   0  0  1  0  0  0  0  0  0  0  0  0
    0.2658    0.6046   -0.6811 H   0  0  0  0  0  0  0  0  0  0  0  0
   -0.5209    2.0868    0.6648 C   0  0  0  0  0  0  0  0  0  0  0  0
   -1.1486    2.1175    1.5633 H   0  0  0  0  0  0  0  0  0  0  0  0
    0.4236    2.5855    0.9123 H   0  0  0  0  0  0  0  0  0  0  0  0
   -1.2022    2.8577   -0.4882 C   0  0  0  0  0  0  0  0  0  0  0  0
   -0.5464    2.8474   -1.3634 H   0  0  0  0  0  0  0  0  0  0  0  0
   -2.1370    2.3667   -0.7683 H   0  0  0  0  0  0  0  0  0  0  0  0
   -1.5271    4.3152   -0.1566 C   0  0  0  0  0  0  0  0  0  0  0  0
   -1.3666    4.7367    0.9760 O   0  0  0  0  0  0  0  0  0  0  0  0
   -1.9998    5.0732   -1.1716 O   0  0  0  0  0  0  0  0  0  0  0  0
   -2.1506    5.9539   -0.7946 H   0  0  0  0  0  0  0  0  0  0  0  0
    0.7674   -0.0064    1.2990 C   0  0  0  0  0  0  0  0  0  0  0  0
    0.6596    0.2314    2.4966 O   0  0  0  0  0  0  0  0  0  0  0  0
    1.8663   -0.7122    0.8445 N   0  0  0  0  0  0  0  0  0  0  0  0
    1.7754   -1.0923   -0.0932 H   0  0  0  0  0  0  0  0  0  0  0  0
    2.7738   -1.3926    1.7608 C   0  0  0  0  0  0  0  0  0  0  0  0
    2.2392   -2.1664    2.3221 H   0  0  0  0  0  0  0  0  0  0  0  0
    3.5884   -1.8659    1.2044 H   0  0  0  0  0  0  0  0  0  0  0  0
    3.2110   -0.6817    2.4699 H   0  0  0  0  0  0  0  0  0  0  0  0
  1  2  1  0  0  0  0
  2  3  1  0  0  0  0
  2  4  1  0  0  0  0
  2  5  1  0  0  0  0
  5  6  2  0  0  0  0
  5  7  1  0  0  0  0
  7  8  1  0  0  0  0
  7  9  1  0  0  0  0
  9 10  1  0  0  0  0
  9 11  1  0  0  0  0
  9 21  1  0  0  0  0
 11 12  1  0  0  0  0
 11 13  1  0  0  0  0
 11 14  1  0  0  0  0
 14 15  1  0  0  0  0
 14 16  1  0  0  0  0
 14 17  1  0  0  0  0
 17 18  2  0  0  0  0
 17 19  1  0  0  0  0
 19 20  1  0  0  0  0
 21 22  2  0  0  0  0
 21 23  1  0  0  0  0
 23 24  1  0  0  0  0
 23 25  1  0  0  0  0
 25 26  1  0  0  0  0
 25 27  1  0  0  0  0
 25 28  1  0  0  0  0
M  END
$$$$

  -OEChem-01062216073D

 28 27  0     1  0  0  0  0  0999 V2000
   -3.1995   -2.8205    1.2752 H   0  0  0  0  0  0  0  0  0  0  0  0
   -3.1880   -1.7791    0.9413 C   0  0  0  0  0  0  0  0  0  0  0  0
   -3.5514   -1.1471    1.7553 H   0  0  0  0  0  0  0  0  0  0  0  0
   -3.8539   -1.6763    0.0813 H   0  0  0  0  0  0  0  0  0  0  0  0
   -1.7782   -1.3700    0.5598 C   0  0  0  0  0  0  0  0  0  0  0  0
   -0.8958   -2.2120    0.5101 O   0  0  0  0  0  0  0  0  0  0  0  0
   -1.5373   -0.0837    0.1120 N   0  0  0  0  0  0  0  0  0  0  0  0
   -2.3550    0.5151    0.1630 H   0  0  0  0  0  0  0  0  0  0  0  0
   -0.2426    0.6123    0.2711 C   0  0  1  0  0  0  0  0  0  0  0  0
    0.2637    0.5983   -0.6986 H   0  0  0  0  0  0  0  0  0  0  0  0
   -0.5232    2.0776    0.6551 C   0  0  0  0  0  0  0  0  0  0  0  0
   -1.1523    2.1029    1.5528 H   0  0  0  0  0  0  0  0  0  0  0  0
    0.4223    2.5713    0.9083 H   0  0  0  0  0  0  0  0  0  0  0  0
   -1.2000    2.8588   -0.4933 C   0  0  0  0  0  0  0  0  0  0  0  0
   -0.5434    2.8520   -1.3678 H   0  0  0  0  0  0  0  0  0  0  0  0
   -2.1361    2.3729   -0.7780 H   0  0  0  0  0  0  0  0  0  0  0  0
   -1.5206    4.3147   -0.1512 C   0  0  0  0  0  0  0  0  0  0  0  0
   -1.3603    4.7261    0.9852 O   0  0  0  0  0  0  0  0  0  0  0  0
   -1.9889    5.0829   -1.1605 O   0  0  0  0  0  0  0  0  0  0  0  0
   -2.1386    5.9610   -0.7769 H   0  0  0  0  0  0  0  0  0  0  0  0
    0.7502   -0.0101    1.2888 C   0  0  0  0  0  0  0  0  0  0  0  0
    0.4997    0.0441    2.4878 O   0  0  0  0  0  0  0  0  0  0  0  0
    1.9973   -0.4446    0.8780 N   0  0  0  0  0  0  0  0  0  0  0  0
    2.0957   -0.6409   -0.1133 H   0  0  0  0  0  0  0  0  0  0  0  0
    2.9318   -1.0834    1.7968 C   0  0  0  0  0  0  0  0  0  0  0  0
    2.4965   -2.0018    2.2053 H   0  0  0  0  0  0  0  0  0  0  0  0
    3.8598   -1.3392    1.2768 H   0  0  0  0  0  0  0  0  0  0  0  0
    3.1765   -0.4108    2.6258 H   0  0  0  0  0  0  0  0  0  0  0  0
  1  2  1  0  0  0  0
  2  3  1  0  0  0  0
  2  4  1  0  0  0  0
  2  5  1  0  0  0  0
  5  6  2  0  0  0  0
  5  7  1  0  0  0  0
  7  8  1  0  0  0  0
  7  9  1  0  0  0  0
  9 10  1  0  0  0  0
  9 11  1  0  0  0  0
  9 21  1  0  0  0  0
 11 12  1  0  0  0  0
 11 13  1  0  0  0  0
 11 14  1  0  0  0  0
 14 15  1  0  0  0  0
 14 16  1  0  0  0  0
 14 17  1  0  0  0  0
 17 18  2  0  0  0  0
 17 19  1  0  0  0  0
 19 20  1  0  0  0  0
 21 22  2  0  0  0  0
 21 23  1  0  0  0  0
 23 24  1  0  0  0  0
 23 25  1  0  0  0  0
 25 26  1  0  0  0  0
 25 27  1  0  0  0  0
 25 28  1  0  0  0  0
M  END
$$$$

  -OEChem-01062216073D

 28 27  0     1  0  0  0  0  0999 V2000
   -3.1950   -2.8342    1.2518 H   0  0  0  0  0  0  0  0  0  0  0  0
   -3.1793   -1.7797    0.9619 C   0  0  0  0  0  0  0  0  0  0  0  0
   -3.4881   -1.1766    1.8193 H   0  0  0  0  0  0  0  0  0  0  0  0
   -3.8852   -1.6286    0.1420 H   0  0  0  0  0  0  0  0  0  0  0  0
   -1.7822   -1.3797    0.5280 C   0  0  0  0  0  0  0  0  0  0  0  0
   -0.9109   -2.2285    0.4251 O   0  0  0  0  0  0  0  0  0  0  0  0
   -1.5440   -0.0928    0.0814 N   0  0  0  0  0  0  0  0  0  0  0  0
   -2.3587    0.5068    0.1588 H   0  0  0  0  0  0  0  0  0  0  0  0
   -0.2480    0.5979    0.2552 C   0  0  1  0  0  0  0  0  0  0  0  0
    0.2645    0.5842   -0.7112 H   0  0  0  0  0  0  0  0  0  0  0  0
   -0.5266    2.0606    0.6481 C   0  0  0  0  0  0  0  0  0  0  0  0
   -1.1629    2.0797    1.5407 H   0  0  0  0  0  0  0  0  0  0  0  0
    0.4178    2.5501    0.9129 H   0  0  0  0  0  0  0  0  0  0  0  0
   -1.1927    2.8532   -0.4988 C   0  0  0  0  0  0  0  0  0  0  0  0
   -0.5307    2.8512   -1.3692 H   0  0  0  0  0  0  0  0  0  0  0  0
   -2.1285    2.3724   -0.7933 H   0  0  0  0  0  0  0  0  0  0  0  0
   -1.5108    4.3075   -0.1472 C   0  0  0  0  0  0  0  0  0  0  0  0
   -1.3567    4.7086    0.9939 O   0  0  0  0  0  0  0  0  0  0  0  0
   -1.9679    5.0864   -1.1536 O   0  0  0  0  0  0  0  0  0  0  0  0
   -2.1177    5.9615   -0.7635 H   0  0  0  0  0  0  0  0  0  0  0  0
    0.7374   -0.0244    1.2806 C   0  0  0  0  0  0  0  0  0  0  0  0
    0.3911   -0.1480    2.4504 O   0  0  0  0  0  0  0  0  0  0  0  0
    2.0758   -0.1740    0.9639 N   0  0  0  0  0  0  0  0  0  0  0  0
    2.3140   -0.1647   -0.0227 H   0  0  0  0  0  0  0  0  0  0  0  0
    3.0388   -0.7407    1.9013 C   0  0  0  0  0  0  0  0  0  0  0  0
    2.7480   -1.7599    2.1778 H   0  0  0  0  0  0  0  0  0  0  0  0
    4.0342   -0.7742    1.4481 H   0  0  0  0  0  0  0  0  0  0  0  0
    3.0953   -0.1321    2.8101 H   0  0  0  0  0  0  0  0  0  0  0  0
  1  2  1  0  0  0  0
  2  3  1  0  0  0  0
  2  4  1  0  0  0  0
  2  5  1  0  0  0  0
  5  6  2  0  0  0  0
  5  7  1  0  0  0  0
  7  8  1  0  0  0  0
  7  9  1  0  0  0  0
  9 10  1  0  0  0  0
  9 11  1  0  0  0  0
  9 21  1  0  0  0  0
 11 12  1  0  0  0  0
 11 13  1  0  0  0  0
 11 14  1  0  0  0  0
 14 15  1  0  0  0  0
 14 16  1  0  0  0  0
 14 17  1  0  0  0  0
 17 18  2  0  0  0  0
 17 19  1  0  0  0  0
 19 20  1  0  0  0  0
 21 22  2  0  0  0  0
 21 23  1  0  0  0  0
 23 24  1  0  0  0  0
 23 25  1  0  0  0  0
 25 26  1  0  0  0  0
 25 27  1  0  0  0  0
 25 28  1  0  0  0  0
M  END
$$$$

  -OEChem-01062216073D

 28 27  0     1  0  0  0  0  0999 V2000
   -3.2141   -2.8276    1.2550 H   0  0  0  0  0  0  0  0  0  0  0  0
   -3.1921   -1.7729    0.9663 C   0  0  0  0  0  0  0  0  0  0  0  0
   -3.4753   -1.1676    1.8308 H   0  0  0  0  0  0  0  0  0  0  0  0
   -3.9130   -1.6115    0.1615 H   0  0  0  0  0  0  0  0  0  0  0  0
   -1.7993   -1.3901    0.5034 C   0  0  0  0  0  0  0  0  0  0  0  0
   -0.9487   -2.2525    0.3507 O   0  0  0  0  0  0  0  0  0  0  0  0
   -1.5503   -0.1037    0.0622 N   0  0  0  0  0  0  0  0  0  0  0  0
   -2.3572    0.5031    0.1608 H   0  0  0  0  0  0  0  0  0  0  0  0
   -0.2475    0.5728    0.2449 C   0  0  1  0  0  0  0  0  0  0  0  0
    0.2671    0.5582   -0.7203 H   0  0  0  0  0  0  0  0  0  0  0  0
   -0.5228    2.0336    0.6478 C   0  0  0  0  0  0  0  0  0  0  0  0
   -1.1623    2.0472    1.5382 H   0  0  0  0  0  0  0  0  0  0  0  0
    0.4213    2.5194    0.9205 H   0  0  0  0  0  0  0  0  0  0  0  0
   -1.1809    2.8381   -0.4955 C   0  0  0  0  0  0  0  0  0  0  0  0
   -0.5149    2.8415   -1.3628 H   0  0  0  0  0  0  0  0  0  0  0  0
   -2.1169    2.3631   -0.7992 H   0  0  0  0  0  0  0  0  0  0  0  0
   -1.4945    4.2905   -0.1320 C   0  0  0  0  0  0  0  0  0  0  0  0
   -1.3432    4.6802    1.0135 O   0  0  0  0  0  0  0  0  0  0  0  0
   -1.9410    5.0815   -1.1336 O   0  0  0  0  0  0  0  0  0  0  0  0
   -2.0882    5.9541   -0.7369 H   0  0  0  0  0  0  0  0  0  0  0  0
    0.7395   -0.0512    1.2696 C   0  0  0  0  0  0  0  0  0  0  0  0
    0.3436   -0.3399    2.3937 O   0  0  0  0  0  0  0  0  0  0  0  0
    2.1043    0.0789    1.0780 N   0  0  0  0  0  0  0  0  0  0  0  0
    2.4218    0.2936    0.1382 H   0  0  0  0  0  0  0  0  0  0  0  0
    3.0846   -0.3781    2.0568 C   0  0  0  0  0  0  0  0  0  0  0  0
    2.9611   -1.4491    2.2507 H   0  0  0  0  0  0  0  0  0  0  0  0
    4.0996   -0.2077    1.6851 H   0  0  0  0  0  0  0  0  0  0  0  0
    2.9676    0.1657    3.0002 H   0  0  0  0  0  0  0  0  0  0  0  0
  1  2  1  0  0  0  0
  2  3  1  0  0  0  0
  2  4  1  0  0  0  0
  2  5  1  0  0  0  0
  5  6  2  0  0  0  0
  5  7  1  0  0  0  0
  7  8  1  0  0  0  0
  7  9  1  0  0  0  0
  9 10  1  0  0  0  0
  9 11  1  0  0  0  0
  9 21  1  0  0  0  0
 11 12  1  0  0  0  0
 11 13  1  0  0  0  0
 11 14  1  0  0  0  0
 14 15  1  0  0  0  0
 14 16  1  0  0  0  0
 14 17  1  0  0  0  0
 17 18  2  0  0  0  0
 17 19  1  0  0  0  0
 19 20  1  0  0  0  0
 21 22  2  0  0  0  0
 21 23  1  0  0  0  0
 23 24  1  0  0  0  0
 23 25  1  0  0  0  0
 25 26  1  0  0  0  0
 25 27  1  0  0  0  0
 25 28  1  0  0  0  0
M  END
$$$$

  -OEChem-01062216073D

 28 27  0     1  0  0  0  0  0999 V2000
   -3.2350   -2.8156    1.2483 H   0  0  0  0  0  0  0  0  0  0  0  0
   -3.1980   -1.7563    0.9789 C   0  0  0  0  0  0  0  0  0  0  0  0
   -3.4361   -1.1621    1.8645 H   0  0  0  0  0  0  0  0  0  0  0  0
   -3.9419   -1.5621    0.2029 H   0  0  0  0  0  0  0  0  0  0  0  0
   -1.8135   -1.3965    0.4756 C   0  0  0  0  0  0  0  0  0  0  0  0
   -0.9938   -2.2750    0.2600 O   0  0  0  0  0  0  0  0  0  0  0  0
   -1.5478   -0.1097    0.0466 N   0  0  0  0  0  0  0  0  0  0  0  0
   -2.3454    0.5056    0.1640 H   0  0  0  0  0  0  0  0  0  0  0  0
   -0.2371    0.5504    0.2382 C   0  0  1  0  0  0  0  0  0  0  0  0
    0.2784    0.5393   -0.7268 H   0  0  0  0  0  0  0  0  0  0  0  0
   -0.5162    2.0095    0.6496 C   0  0  0  0  0  0  0  0  0  0  0  0
   -1.1622    2.0155    1.5353 H   0  0  0  0  0  0  0  0  0  0  0  0
    0.4229    2.4986    0.9321 H   0  0  0  0  0  0  0  0  0  0  0  0
   -1.1673    2.8216   -0.4928 C   0  0  0  0  0  0  0  0  0  0  0  0
   -0.4961    2.8308   -1.3561 H   0  0  0  0  0  0  0  0  0  0  0  0
   -2.1016    2.3494   -0.8059 H   0  0  0  0  0  0  0  0  0  0  0  0
   -1.4842    4.2712   -0.1212 C   0  0  0  0  0  0  0  0  0  0  0  0
   -1.3405    4.6521    1.0282 O   0  0  0  0  0  0  0  0  0  0  0  0
   -1.9257    5.0689   -1.1195 O   0  0  0  0  0  0  0  0  0  0  0  0
   -2.0789    5.9380   -0.7174 H   0  0  0  0  0  0  0  0  0  0  0  0
    0.7575   -0.0763    1.2576 C   0  0  0  0  0  0  0  0  0  0  0  0
    0.3458   -0.5455    2.3127 O   0  0  0  0  0  0  0  0  0  0  0  0
    2.0860    0.3147    1.2276 N   0  0  0  0  0  0  0  0  0  0  0  0
    2.4280    0.7383    0.3713 H   0  0  0  0  0  0  0  0  0  0  0  0
    3.0498   -0.0523    2.2596 C   0  0  0  0  0  0  0  0  0  0  0  0
    3.1004   -1.1411    2.3671 H   0  0  0  0  0  0  0  0  0  0  0  0
    4.0457    0.3157    1.9957 H   0  0  0  0  0  0  0  0  0  0  0  0
    2.7648    0.3839    3.2230 H   0  0  0  0  0  0  0  0  0  0  0  0
  1  2  1  0  0  0  0
  2  3  1  0  0  0  0
  2  4  1  0  0  0  0
  2  5  1  0  0  0  0
  5  6  2  0  0  0  0
  5  7  1  0  0  0  0
  7  8  1  0  0  0  0
  7  9  1  0  0  0  0
  9 10  1  0  0  0  0
  9 11  1  0  0  0  0
  9 21  1  0  0  0  0
 11 12  1  0  0  0  0
 11 13  1  0  0  0  0
 11 14  1  0  0  0  0
 14 15  1  0  0  0  0
 14 16  1  0  0  0  0
 14 17  1  0  0  0  0
 17 18  2  0  0  0  0
 17 19  1  0  0  0  0
 19 20  1  0  0  0  0
 21 22  2  0  0  0  0
 21 23  1  0  0  0  0
 23 24  1  0  0  0  0
 23 25  1  0  0  0  0
 25 26  1  0  0  0  0
 25 27  1  0  0  0  0
 25 28  1  0  0  0  0
M  END
$$$$

  -OEChem-01062216073D

 28 27  0     1  0  0  0  0  0999 V2000
   -3.2505   -2.9406    1.1518 H   0  0  0  0  0  0  0  0  0  0  0  0
   -3.0871   -2.0531    0.5339 C   0  0  0  0  0  0  0  0  0  0  0  0
   -4.0411   -1.5406    0.3901 H   0  0  0  0  0  0  0  0  0  0  0  0
   -2.6975   -2.3705   -0.4361 H   0  0  0  0  0  0  0  0  0  0  0  0
   -2.0948   -1.1269    1.2108 C   0  0  0  0  0  0  0  0  0  0  0  0
   -1.8477   -1.2732    2.3958 O   0  0  0  0  0  0  0  0  0  0  0  0
   -1.7347    0.0577    0.5977 N   0  0  0  0  0  0  0  0  0  0  0  0
   -2.2534    0.1988   -0.2621 H   0  0  0  0  0  0  0  0  0  0  0  0
   -0.3546    0.6013    0.5475 C   0  0  1  0  0  0  0  0  0  0  0  0
   -0.0706    0.6939   -0.5051 H   0  0  0  0  0  0  0  0  0  0  0  0
   -0.4489    2.0127    1.1708 C   0  0  0  0  0  0  0  0  0  0  0  0
   -0.8991    1.9272    2.1677 H   0  0  0  0  0  0  0  0  0  0  0  0
    0.5479    2.4440    1.3019 H   0  0  0  0  0  0  0  0  0  0  0  0
   -1.2777    2.9833    0.2995 C   0  0  0  0  0  0  0  0  0  0  0  0
   -0.8145    3.0729   -0.6868 H   0  0  0  0  0  0  0  0  0  0  0  0
   -2.2875    2.5888    0.1615 H   0  0  0  0  0  0  0  0  0  0  0  0
   -1.4139    4.3861    0.8932 C   0  0  0  0  0  0  0  0  0  0  0  0
   -1.0024    4.6184    2.0175 O   0  0  0  0  0  0  0  0  0  0  0  0
   -1.9995    5.3186    0.1081 O   0  0  0  0  0  0  0  0  0  0  0  0
   -2.0154    6.1340    0.6328 H   0  0  0  0  0  0  0  0  0  0  0  0
    0.8283   -0.1770    1.2060 C   0  0  0  0  0  0  0  0  0  0  0  0
    0.8072   -1.3951    1.3167 O   0  0  0  0  0  0  0  0  0  0  0  0
    2.1005    0.3719    1.1402 N   0  0  0  0  0  0  0  0  0  0  0  0
    2.1687    1.3703    0.9735 H   0  0  0  0  0  0  0  0  0  0  0  0
    3.3137   -0.3571    1.4988 C   0  0  0  0  0  0  0  0  0  0  0  0
    3.4683   -1.2032    0.8207 H   0  0  0  0  0  0  0  0  0  0  0  0
    4.1853    0.3009    1.4323 H   0  0  0  0  0  0  0  0  0  0  0  0
    3.2440   -0.7362    2.5241 H   0  0  0  0  0  0  0  0  0  0  0  0
  1  2  1  0  0  0  0
  2  3  1  0  0  0  0
  2  4  1  0  0  0  0
  2  5  1  0  0  0  0
  5  6  2  0  0  0  0
  5  7  1  0  0  0  0
  7  8  1  0  0  0  0
  7  9  1  0  0  0  0
  9 10  1  0  0  0  0
  9 11  1  0  0  0  0
  9 21  1  0  0  0  0
 11 12  1  0  0  0  0
 11 13  1  0  0  0  0
 11 14  1  0  0  0  0
 14 15  1  0  0  0  0
 14 16  1  0  0  0  0
 14 17  1  0  0  0  0
 17 18  2  0  0  0  0
 17 19  1  0  0  0  0
 19 20  1  0  0  0  0
 21 22  2  0  0  0  0
 21 23  1  0  0  0  0
 23 24  1  0  0  0  0
 23 25  1  0  0  0  0
 25 26  1  0  0  0  0
 25 27  1  0  0  0  0
 25 28  1  0  0  0  0
M  END
$$$$

  -OEChem-01062216073D

 28 27  0     1  0  0  0  0  0999 V2000
   -3.2492   -2.9189    1.1816 H   0  0  0  0  0  0  0  0  0  0  0  0
   -3.0965   -2.0300    0.5630 C   0  0  0  0  0  0  0  0  0  0  0  0
   -4.0468   -1.5004    0.4635 H   0  0  0  0  0  0  0  0  0  0  0  0
   -2.7547   -2.3474   -0.4249 H   0  0  0  0  0  0  0  0  0  0  0  0
   -2.0593   -1.1260    1.2013 C   0  0  0  0  0  0  0  0  0  0  0  0
   -1.7166   -1.3214    2.3557 O   0  0  0  0  0  0  0  0  0  0  0  0
   -1.7246    0.0693    0.5929 N   0  0  0  0  0  0  0  0  0  0  0  0
   -2.2637    0.2222   -0.2526 H   0  0  0  0  0  0  0  0  0  0  0  0
   -0.3513    0.6282    0.5333 C   0  0  1  0  0  0  0  0  0  0  0  0
   -0.0653    0.7220   -0.5187 H   0  0  0  0  0  0  0  0  0  0  0  0
   -0.4559    2.0420    1.1505 C   0  0  0  0  0  0  0  0  0  0  0  0
   -0.8945    1.9598    2.1526 H   0  0  0  0  0  0  0  0  0  0  0  0
    0.5363    2.4879    1.2618 H   0  0  0  0  0  0  0  0  0  0  0  0
   -1.2999    2.9987    0.2786 C   0  0  0  0  0  0  0  0  0  0  0  0
   -0.8426    3.0878   -0.7105 H   0  0  0  0  0  0  0  0  0  0  0  0
   -2.3061    2.5929    0.1476 H   0  0  0  0  0  0  0  0  0  0  0  0
   -1.4469    4.4032    0.8660 C   0  0  0  0  0  0  0  0  0  0  0  0
   -1.0305    4.6443    1.9868 O   0  0  0  0  0  0  0  0  0  0  0  0
   -2.0515    5.3249    0.0828 O   0  0  0  0  0  0  0  0  0  0  0  0
   -2.0721    6.1428    0.6034 H   0  0  0  0  0  0  0  0  0  0  0  0
    0.8141   -0.1794    1.1874 C   0  0  0  0  0  0  0  0  0  0  0  0
    0.8667   -1.3922    1.0222 O   0  0  0  0  0  0  0  0  0  0  0  0
    2.0357    0.4280    1.4384 N   0  0  0  0  0  0  0  0  0  0  0  0
    2.0376    1.4370    1.5429 H   0  0  0  0  0  0  0  0  0  0  0  0
    3.2294   -0.3103    1.8406 C   0  0  0  0  0  0  0  0  0  0  0  0
    3.5547   -0.9809    1.0383 H   0  0  0  0  0  0  0  0  0  0  0  0
    4.0466    0.3826    2.0634 H   0  0  0  0  0  0  0  0  0  0  0  0
    3.0274   -0.9065    2.7370 H   0  0  0  0  0  0  0  0  0  0  0  0
  1  2  1  0  0  0  0
  2  3  1  0  0  0  0
  2  4  1  0  0  0  0
  2  5  1  0  0  0  0
  5  6  2  0  0  0  0
  5  7  1  0  0  0  0
  7  8  1  0  0  0  0
  7  9  1  0  0  0  0
  9 10  1  0  0  0  0
  9 11  1  0  0  0  0
  9 21  1  0  0  0  0
 11 12  1  0  0  0  0
 11 13  1  0  0  0  0
 11 14  1  0  0  0  0
 14 15  1  0  0  0  0
 14 16  1  0  0  0  0
 14 17  1  0  0  0  0
 17 18  2  0  0  0  0
 17 19  1  0  0  0  0
 19 20  1  0  0  0  0
 21 22  2  0  0  0  0
 21 23  1  0  0  0  0
 23 24  1  0  0  0  0
 23 25  1  0  0  0  0
 25 26  1  0  0  0  0
 25 27  1  0  0  0  0
 25 28  1  0  0  0  0
M  END
$$$$

  -OEChem-01062216073D

 28 27  0     1  0  0  0  0  0999 V2000
   -3.2298   -2.9260    1.1681 H   0  0  0  0  0  0  0  0  0  0  0  0
   -3.1149   -2.0114    0.5795 C   0  0  0  0  0  0  0  0  0  0  0  0
   -4.0648   -1.4718    0.5759 H   0  0  0  0  0  0  0  0  0  0  0  0
   -2.8524   -2.2863   -0.4447 H   0  0  0  0  0  0  0  0  0  0  0  0
   -2.0248   -1.1427    1.1774 C   0  0  0  0  0  0  0  0  0  0  0  0
   -1.5993   -1.3945    2.2926 O   0  0  0  0  0  0  0  0  0  0  0  0
   -1.7107    0.0648    0.5805 N   0  0  0  0  0  0  0  0  0  0  0  0
   -2.2736    0.2391   -0.2451 H   0  0  0  0  0  0  0  0  0  0  0  0
   -0.3477    0.6461    0.5174 C   0  0  1  0  0  0  0  0  0  0  0  0
   -0.0629    0.7421   -0.5348 H   0  0  0  0  0  0  0  0  0  0  0  0
   -0.4587    2.0610    1.1295 C   0  0  0  0  0  0  0  0  0  0  0  0
   -0.8859    1.9827    2.1366 H   0  0  0  0  0  0  0  0  0  0  0  0
    0.5327    2.5141    1.2216 H   0  0  0  0  0  0  0  0  0  0  0  0
   -1.3147    3.0077    0.2592 C   0  0  0  0  0  0  0  0  0  0  0  0
   -0.8643    3.0962   -0.7333 H   0  0  0  0  0  0  0  0  0  0  0  0
   -2.3189    2.5943    0.1363 H   0  0  0  0  0  0  0  0  0  0  0  0
   -1.4671    4.4128    0.8438 C   0  0  0  0  0  0  0  0  0  0  0  0
   -1.0449    4.6592    1.9615 O   0  0  0  0  0  0  0  0  0  0  0  0
   -2.0868    5.3273    0.0640 O   0  0  0  0  0  0  0  0  0  0  0  0
   -2.1090    6.1466    0.5822 H   0  0  0  0  0  0  0  0  0  0  0  0
    0.8108   -0.1742    1.1643 C   0  0  0  0  0  0  0  0  0  0  0  0
    0.9641   -1.3353    0.8024 O   0  0  0  0  0  0  0  0  0  0  0  0
    1.9225    0.4413    1.7188 N   0  0  0  0  0  0  0  0  0  0  0  0
    1.7998    1.3937    2.0468 H   0  0  0  0  0  0  0  0  0  0  0  0
    3.0858   -0.3037    2.1897 C   0  0  0  0  0  0  0  0  0  0  0  0
    3.5747   -0.8194    1.3564 H   0  0  0  0  0  0  0  0  0  0  0  0
    3.8114    0.3756    2.6470 H   0  0  0  0  0  0  0  0  0  0  0  0
    2.7874   -1.0469    2.9370 H   0  0  0  0  0  0  0  0  0  0  0  0
  1  2  1  0  0  0  0
  2  3  1  0  0  0  0
  2  4  1  0  0  0  0
  2  5  1  0  0  0  0
  5  6  2  0  0  0  0
  5  7  1  0  0  0  0
  7  8  1  0  0  0  0
  7  9  1  0  0  0  0
  9 10  1  0  0  0  0
  9 11  1  0  0  0  0
  9 21  1  0  0  0  0
 11 12  1  0  0  0  0
 11 13  1  0  0  0  0
 11 14  1  0  0  0  0
 14 15  1  0  0  0  0
 14 16  1  0  0  0  0
 14 17  1  0  0  0  0
 17 18  2  0  0  0  0
 17 19  1  0  0  0  0
 19 20  1  0  0  0  0
 21 22  2  0  0  0  0
 21 23  1  0  0  0  0
 23 24  1  0  0  0  0
 23 25  1  0  0  0  0
 25 26  1  0  0  0  0
 25 27  1  0  0  0  0
 25 28  1  0  0  0  0
M  END
$$$$

  -OEChem-01062216073D

 28 27  0     1  0  0  0  0  0999 V2000
   -3.2451   -2.9233    1.1585 H   0  0  0  0  0  0  0  0  0  0  0  0
   -3.1419   -1.9953    0.5889 C   0  0  0  0  0  0  0  0  0  0  0  0
   -4.0807   -1.4395    0.6457 H   0  0  0  0  0  0  0  0  0  0  0  0
   -2.9345   -2.2466   -0.4540 H   0  0  0  0  0  0  0  0  0  0  0  0
   -2.0084   -1.1611    1.1543 C   0  0  0  0  0  0  0  0  0  0  0  0
   -1.5167   -1.4664    2.2279 O   0  0  0  0  0  0  0  0  0  0  0  0
   -1.7037    0.0543    0.5675 N   0  0  0  0  0  0  0  0  0  0  0  0
   -2.2860    0.2516   -0.2395 H   0  0  0  0  0  0  0  0  0  0  0  0
   -0.3483    0.6513    0.5069 C   0  0  1  0  0  0  0  0  0  0  0  0
   -0.0640    0.7503   -0.5455 H   0  0  0  0  0  0  0  0  0  0  0  0
   -0.4608    2.0654    1.1170 C   0  0  0  0  0  0  0  0  0  0  0  0
   -0.8847    1.9882    2.1254 H   0  0  0  0  0  0  0  0  0  0  0  0
    0.5335    2.5161    1.2027 H   0  0  0  0  0  0  0  0  0  0  0  0
   -1.3207    3.0091    0.2481 C   0  0  0  0  0  0  0  0  0  0  0  0
   -0.8724    3.0985   -0.7453 H   0  0  0  0  0  0  0  0  0  0  0  0
   -2.3237    2.5926    0.1271 H   0  0  0  0  0  0  0  0  0  0  0  0
   -1.4743    4.4139    0.8323 C   0  0  0  0  0  0  0  0  0  0  0  0
   -1.0497    4.6613    1.9490 O   0  0  0  0  0  0  0  0  0  0  0  0
   -2.0953    5.3277    0.0529 O   0  0  0  0  0  0  0  0  0  0  0  0
   -2.1129    6.1489    0.5682 H   0  0  0  0  0  0  0  0  0  0  0  0
    0.8091   -0.1695    1.1496 C   0  0  0  0  0  0  0  0  0  0  0  0
    1.0807   -1.2542    0.6475 O   0  0  0  0  0  0  0  0  0  0  0  0
    1.7632    0.4054    1.9740 N   0  0  0  0  0  0  0  0  0  0  0  0
    1.4948    1.2630    2.4462 H   0  0  0  0  0  0  0  0  0  0  0  0
    2.8995   -0.3429    2.4999 C   0  0  0  0  0  0  0  0  0  0  0  0
    3.5344   -0.7024    1.6832 H   0  0  0  0  0  0  0  0  0  0  0  0
    3.5054    0.2954    3.1499 H   0  0  0  0  0  0  0  0  0  0  0  0
    2.5540   -1.2039    3.0822 H   0  0  0  0  0  0  0  0  0  0  0  0
  1  2  1  0  0  0  0
  2  3  1  0  0  0  0
  2  4  1  0  0  0  0
  2  5  1  0  0  0  0
  5  6  2  0  0  0  0
  5  7  1  0  0  0  0
  7  8  1  0  0  0  0
  7  9  1  0  0  0  0
  9 10  1  0  0  0  0
  9 11  1  0  0  0  0
  9 21  1  0  0  0  0
 11 12  1  0  0  0  0
 11 13  1  0  0  0  0
 11 14  1  0  0  0  0
 14 15  1  0  0  0  0
 14 16  1  0  0  0  0
 14 17  1  0  0  0  0
 17 18  2  0  0  0  0
 17 19  1  0  0  0  0
 19 20  1  0  0  0  0
 21 22  2  0  0  0  0
 21 23  1  0  0  0  0
 23 24  1  0  0  0  0
 23 25  1  0  0  0  0
 25 26  1  0  0  0  0
 25 27  1  0  0  0  0
 25 28  1  0  0  0  0
M  END
$$$$

  -OEChem-01062216073D

 28 27  0     1  0  0  0  0  0999 V2000
   -3.2582   -2.9247    1.1436 H   0  0  0  0  0  0  0  0  0  0  0  0
   -3.1726   -1.9797    0.5992 C   0  0  0  0  0  0  0  0  0  0  0  0
   -4.0963   -1.4113    0.7312 H   0  0  0  0  0  0  0  0  0  0  0  0
   -3.0335   -2.1997   -0.4620 H   0  0  0  0  0  0  0  0  0  0  0  0
   -1.9924   -1.1830    1.1226 C   0  0  0  0  0  0  0  0  0  0  0  0
   -1.4396   -1.5421    2.1484 O   0  0  0  0  0  0  0  0  0  0  0  0
   -1.6914    0.0386    0.5455 N   0  0  0  0  0  0  0  0  0  0  0  0
   -2.2953    0.2638   -0.2382 H   0  0  0  0  0  0  0  0  0  0  0  0
   -0.3432    0.6513    0.4888 C   0  0  1  0  0  0  0  0  0  0  0  0
   -0.0611    0.7563   -0.5637 H   0  0  0  0  0  0  0  0  0  0  0  0
   -0.4577    2.0625    1.1029 C   0  0  0  0  0  0  0  0  0  0  0  0
   -0.8813    1.9829    2.1112 H   0  0  0  0  0  0  0  0  0  0  0  0
    0.5395    2.5081    1.1902 H   0  0  0  0  0  0  0  0  0  0  0  0
   -1.3218    3.0078    0.2401 C   0  0  0  0  0  0  0  0  0  0  0  0
   -0.8752    3.1021   -0.7537 H   0  0  0  0  0  0  0  0  0  0  0  0
   -2.3241    2.5895    0.1190 H   0  0  0  0  0  0  0  0  0  0  0  0
   -1.4762    4.4102    0.8307 C   0  0  0  0  0  0  0  0  0  0  0  0
   -1.0489    4.6535    1.9473 O   0  0  0  0  0  0  0  0  0  0  0  0
   -2.1009    5.3266    0.0572 O   0  0  0  0  0  0  0  0  0  0  0  0
   -2.1155    6.1461    0.5753 H   0  0  0  0  0  0  0  0  0  0  0  0
    0.8205   -0.1598    1.1278 C   0  0  0  0  0  0  0  0  0  0  0  0
    1.2264   -1.1444    0.5217 O   0  0  0  0  0  0  0  0  0  0  0  0
    1.5830    0.3249    2.1778 N   0  0  0  0  0  0  0  0  0  0  0  0
    1.1620    1.0632    2.7331 H   0  0  0  0  0  0  0  0  0  0  0  0
    2.6701   -0.4453    2.7705 C   0  0  0  0  0  0  0  0  0  0  0  0
    3.4513   -0.6417    2.0284 H   0  0  0  0  0  0  0  0  0  0  0  0
    3.1169    0.1083    3.6018 H   0  0  0  0  0  0  0  0  0  0  0  0
    2.2971   -1.4026    3.1507 H   0  0  0  0  0  0  0  0  0  0  0  0
  1  2  1  0  0  0  0
  2  3  1  0  0  0  0
  2  4  1  0  0  0  0
  2  5  1  0  0  0  0
  5  6  2  0  0  0  0
  5  7  1  0  0  0  0
  7  8  1  0  0  0  0
  7  9  1  0  0  0  0
  9 10  1  0  0  0  0
  9 11  1  0  0  0  0
  9 21  1  0  0  0  0
 11 12  1  0  0  0  0
 11 13  1  0  0  0  0
 11 14  1  0  0  0  0
 14 15  1  0  0  0  0
 14 16  1  0  0  0  0
 14 17  1  0  0  0  0
 17 18  2  0  0  0  0
 17 19  1  0  0  0  0
 19 20  1  0  0  0  0
 21 22  2  0  0  0  0
 21 23  1  0  0  0  0
 23 24  1  0  0  0  0
 23 25  1  0  0  0  0
 25 26  1  0  0  0  0
 25 27  1  0  0  0  0
 25 28  1  0  0  0  0
M  END
$$$$

  -OEChem-01062216073D

 28 27  0     1  0  0  0  0  0999 V2000
   -3.3082   -2.9106    1.1170 H   0  0  0  0  0  0  0  0  0  0  0  0
   -3.2218   -1.9510    0.5992 C   0  0  0  0  0  0  0  0  0  0  0  0
   -4.1189   -1.3604    0.7995 H   0  0  0  0  0  0  0  0  0  0  0  0
   -3.1470   -2.1391   -0.4745 H   0  0  0  0  0  0  0  0  0  0  0  0
   -1.9908   -1.2075    1.0826 C   0  0  0  0  0  0  0  0  0  0  0  0
   -1.3874   -1.6277    2.0547 O   0  0  0  0  0  0  0  0  0  0  0  0
   -1.6781    0.0166    0.5172 N   0  0  0  0  0  0  0  0  0  0  0  0
   -2.2987    0.2784   -0.2420 H   0  0  0  0  0  0  0  0  0  0  0  0
   -0.3339    0.6390    0.4776 C   0  0  1  0  0  0  0  0  0  0  0  0
   -0.0457    0.7505   -0.5730 H   0  0  0  0  0  0  0  0  0  0  0  0
   -0.4555    2.0461    1.0980 C   0  0  0  0  0  0  0  0  0  0  0  0
   -0.8905    1.9614    2.1005 H   0  0  0  0  0  0  0  0  0  0  0  0
    0.5430    2.4865    1.2017 H   0  0  0  0  0  0  0  0  0  0  0  0
   -1.3137    2.9959    0.2348 C   0  0  0  0  0  0  0  0  0  0  0  0
   -0.8580    3.0976   -0.7543 H   0  0  0  0  0  0  0  0  0  0  0  0
   -2.3142    2.5773    0.1022 H   0  0  0  0  0  0  0  0  0  0  0  0
   -1.4747    4.3946    0.8326 C   0  0  0  0  0  0  0  0  0  0  0  0
   -1.0569    4.6319    1.9541 O   0  0  0  0  0  0  0  0  0  0  0  0
   -2.0936    5.3148    0.0589 O   0  0  0  0  0  0  0  0  0  0  0  0
   -2.1104    6.1322    0.5805 H   0  0  0  0  0  0  0  0  0  0  0  0
    0.8352   -0.1551    1.1236 C   0  0  0  0  0  0  0  0  0  0  0  0
    1.4064   -0.9945    0.4382 O   0  0  0  0  0  0  0  0  0  0  0  0
    1.3784    0.1906    2.3495 N   0  0  0  0  0  0  0  0  0  0  0  0
    0.7854    0.7546    2.9507 H   0  0  0  0  0  0  0  0  0  0  0  0
    2.4398   -0.5899    2.9738 C   0  0  0  0  0  0  0  0  0  0  0  0
    3.3294   -0.6085    2.3354 H   0  0  0  0  0  0  0  0  0  0  0  0
    2.7170   -0.1498    3.9364 H   0  0  0  0  0  0  0  0  0  0  0  0
    2.1067   -1.6193    3.1447 H   0  0  0  0  0  0  0  0  0  0  0  0
  1  2  1  0  0  0  0
  2  3  1  0  0  0  0
  2  4  1  0  0  0  0
  2  5  1  0  0  0  0
  5  6  2  0  0  0  0
  5  7  1  0  0  0  0
  7  8  1  0  0  0  0
  7  9  1  0  0  0  0
  9 10  1  0  0  0  0
  9 11  1  0  0  0  0
  9 21  1  0  0  0  0
 11 12  1  0  0  0  0
 11 13  1  0  0  0  0
 11 14  1  0  0  0  0
 14 15  1  0  0  0  0
 14 16  1  0  0  0  0
 14 17  1  0  0  0  0
 17 18  2  0  0  0  0
 17 19  1  0  0  0  0
 19 20  1  0  0  0  0
 21 22  2  0  0  0  0
 21 23  1  0  0  0  0
 23 24  1  0  0  0  0
 23 25  1  0  0  0  0
 25 26  1  0  0  0  0
 25 27  1  0  0  0  0
 25 28  1  0  0  0  0
M  END
$$$$

  -OEChem-01062216073D

 28 27  0     1  0  0  0  0  0999 V2000
   -3.3767   -2.8913    1.0674 H   0  0  0  0  0  0  0  0  0  0  0  0
   -3.2861   -1.9097    0.5932 C   0  0  0  0  0  0  0  0  0  0  0  0
   -4.1491   -1.3013    0.8740 H   0  0  0  0  0  0  0  0  0  0  0  0
   -3.2793   -2.0453   -0.4910 H   0  0  0  0  0  0  0  0  0  0  0  0
   -2.0052   -1.2304    1.0402 C   0  0  0  0  0  0  0  0  0  0  0  0
   -1.3685   -1.7126    1.9601 O   0  0  0  0  0  0  0  0  0  0  0  0
   -1.6667   -0.0083    0.4862 N   0  0  0  0  0  0  0  0  0  0  0  0
   -2.3034    0.3000   -0.2418 H   0  0  0  0  0  0  0  0  0  0  0  0
   -0.3235    0.6172    0.4676 C   0  0  1  0  0  0  0  0  0  0  0  0
   -0.0262    0.7356   -0.5798 H   0  0  0  0  0  0  0  0  0  0  0  0
   -0.4515    2.0185    1.0970 C   0  0  0  0  0  0  0  0  0  0  0  0
   -0.8976    1.9275    2.0941 H   0  0  0  0  0  0  0  0  0  0  0  0
    0.5479    2.4531    1.2181 H   0  0  0  0  0  0  0  0  0  0  0  0
   -1.2998    2.9750    0.2315 C   0  0  0  0  0  0  0  0  0  0  0  0
   -0.8325    3.0834   -0.7512 H   0  0  0  0  0  0  0  0  0  0  0  0
   -2.2988    2.5574    0.0840 H   0  0  0  0  0  0  0  0  0  0  0  0
   -1.4679    4.3693    0.8374 C   0  0  0  0  0  0  0  0  0  0  0  0
   -1.0631    4.5991    1.9649 O   0  0  0  0  0  0  0  0  0  0  0  0
   -2.0815    5.2937    0.0647 O   0  0  0  0  0  0  0  0  0  0  0  0
   -2.1018    6.1079    0.5910 H   0  0  0  0  0  0  0  0  0  0  0  0
    0.8480   -0.1591    1.1274 C   0  0  0  0  0  0  0  0  0  0  0  0
    1.6043   -0.7948    0.4036 O   0  0  0  0  0  0  0  0  0  0  0  0
    1.1659   -0.0004    2.4651 N   0  0  0  0  0  0  0  0  0  0  0  0
    0.4037    0.3278    3.0510 H   0  0  0  0  0  0  0  0  0  0  0  0
    2.2276   -0.7692    3.1026 C   0  0  0  0  0  0  0  0  0  0  0  0
    3.1870   -0.5826    2.6086 H   0  0  0  0  0  0  0  0  0  0  0  0
    2.3218   -0.4830    4.1545 H   0  0  0  0  0  0  0  0  0  0  0  0
    2.0072   -1.8408    3.0511 H   0  0  0  0  0  0  0  0  0  0  0  0
  1  2  1  0  0  0  0
  2  3  1  0  0  0  0
  2  4  1  0  0  0  0
  2  5  1  0  0  0  0
  5  6  2  0  0  0  0
  5  7  1  0  0  0  0
  7  8  1  0  0  0  0
  7  9  1  0  0  0  0
  9 10  1  0  0  0  0
  9 11  1  0  0  0  0
  9 21  1  0  0  0  0
 11 12  1  0  0  0  0
 11 13  1  0  0  0  0
 11 14  1  0  0  0  0
 14 15  1  0  0  0  0
 14 16  1  0  0  0  0
 14 17  1  0  0  0  0
 17 18  2  0  0  0  0
 17 19  1  0  0  0  0
 19 20  1  0  0  0  0
 21 22  2  0  0  0  0
 21 23  1  0  0  0  0
 23 24  1  0  0  0  0
 23 25  1  0  0  0  0
 25 26  1  0  0  0  0
 25 27  1  0  0  0  0
 25 28  1  0  0  0  0
M  END
$$$$

  -OEChem-01062216073D

 28 27  0     1  0  0  0  0  0999 V2000
   -3.4916   -2.8470    1.0276 H   0  0  0  0  0  0  0  0  0  0  0  0
   -3.3692   -1.8575    0.5777 C   0  0  0  0  0  0  0  0  0  0  0  0
   -4.1894   -1.2162    0.9092 H   0  0  0  0  0  0  0  0  0  0  0  0
   -3.4113   -1.9607   -0.5093 H   0  0  0  0  0  0  0  0  0  0  0  0
   -2.0393   -1.2556    0.9920 C   0  0  0  0  0  0  0  0  0  0  0  0
   -1.3834   -1.8078    1.8567 O   0  0  0  0  0  0  0  0  0  0  0  0
   -1.6635   -0.0368    0.4562 N   0  0  0  0  0  0  0  0  0  0  0  0
   -2.3132    0.3277   -0.2335 H   0  0  0  0  0  0  0  0  0  0  0  0
   -0.3186    0.5874    0.4639 C   0  0  1  0  0  0  0  0  0  0  0  0
   -0.0106    0.7129   -0.5798 H   0  0  0  0  0  0  0  0  0  0  0  0
   -0.4513    1.9831    1.1031 C   0  0  0  0  0  0  0  0  0  0  0  0
   -0.9095    1.8855    2.0940 H   0  0  0  0  0  0  0  0  0  0  0  0
    0.5480    2.4126    1.2428 H   0  0  0  0  0  0  0  0  0  0  0  0
   -1.2843    2.9490    0.2324 C   0  0  0  0  0  0  0  0  0  0  0  0
   -0.8017    3.0632   -0.7424 H   0  0  0  0  0  0  0  0  0  0  0  0
   -2.2817    2.5355    0.0663 H   0  0  0  0  0  0  0  0  0  0  0  0
   -1.4587    4.3398    0.8450 C   0  0  0  0  0  0  0  0  0  0  0  0
   -1.0710    4.5618    1.9800 O   0  0  0  0  0  0  0  0  0  0  0  0
   -2.0633    5.2691    0.0706 O   0  0  0  0  0  0  0  0  0  0  0  0
   -2.0897    6.0798    0.6022 H   0  0  0  0  0  0  0  0  0  0  0  0
    0.8579   -0.1687    1.1371 C   0  0  0  0  0  0  0  0  0  0  0  0
    1.7922   -0.5356    0.4355 O   0  0  0  0  0  0  0  0  0  0  0  0
    0.9739   -0.2443    2.5134 N   0  0  0  0  0  0  0  0  0  0  0  0
    0.0818   -0.2159    3.0018 H   0  0  0  0  0  0  0  0  0  0  0  0
    2.0615   -0.9737    3.1533 C   0  0  0  0  0  0  0  0  0  0  0  0
    3.0308   -0.5645    2.8492 H   0  0  0  0  0  0  0  0  0  0  0  0
    1.9810   -0.8923    4.2414 H   0  0  0  0  0  0  0  0  0  0  0  0
    2.0240   -2.0332    2.8788 H   0  0  0  0  0  0  0  0  0  0  0  0
  1  2  1  0  0  0  0
  2  3  1  0  0  0  0
  2  4  1  0  0  0  0
  2  5  1  0  0  0  0
  5  6  2  0  0  0  0
  5  7  1  0  0  0  0
  7  8  1  0  0  0  0
  7  9  1  0  0  0  0
  9 10  1  0  0  0  0
  9 11  1  0  0  0  0
  9 21  1  0  0  0  0
 11 12  1  0  0  0  0
 11 13  1  0  0  0  0
 11 14  1  0  0  0  0
 14 15  1  0  0  0  0
 14 16  1  0  0  0  0
 14 17  1  0  0  0  0
 17 18  2  0  0  0  0
 17 19  1  0  0  0  0
 19 20  1  0  0  0  0
 21 22  2  0  0  0  0
 21 23  1  0  0  0  0
 23 24  1  0  0  0  0
 23 25  1  0  0  0  0
 25 26  1  0  0  0  0
 25 27  1  0  0  0  0
 25 28  1  0  0  0  0
M  END
$$$$

  -OEChem-01062216073D

 28 27  0     1  0  0  0  0  0999 V2000
   -3.6448   -2.7791    0.9745 H   0  0  0  0  0  0  0  0  0  0  0  0
   -3.4745   -1.7857    0.5495 C   0  0  0  0  0  0  0  0  0  0  0  0
   -4.2405   -1.1048    0.9289 H   0  0  0  0  0  0  0  0  0  0  0  0
   -3.5600   -1.8515   -0.5379 H   0  0  0  0  0  0  0  0  0  0  0  0
   -2.0957   -1.2814    0.9329 C   0  0  0  0  0  0  0  0  0  0  0  0
   -1.4361   -1.9198    1.7321 O   0  0  0  0  0  0  0  0  0  0  0  0
   -1.6680   -0.0695    0.4218 N   0  0  0  0  0  0  0  0  0  0  0  0
   -2.3294    0.3651   -0.2143 H   0  0  0  0  0  0  0  0  0  0  0  0
   -0.3179    0.5465    0.4602 C   0  0  1  0  0  0  0  0  0  0  0  0
    0.0027    0.6788   -0.5788 H   0  0  0  0  0  0  0  0  0  0  0  0
   -0.4597    1.9356    1.1106 C   0  0  0  0  0  0  0  0  0  0  0  0
   -0.9350    1.8275    2.0924 H   0  0  0  0  0  0  0  0  0  0  0  0
    0.5376    2.3620    1.2739 H   0  0  0  0  0  0  0  0  0  0  0  0
   -1.2724    2.9131    0.2338 C   0  0  0  0  0  0  0  0  0  0  0  0
   -0.7696    3.0361   -0.7297 H   0  0  0  0  0  0  0  0  0  0  0  0
   -2.2678    2.5056    0.0432 H   0  0  0  0  0  0  0  0  0  0  0  0
   -1.4546    4.2977    0.8579 C   0  0  0  0  0  0  0  0  0  0  0  0
   -1.0892    4.5075    2.0026 O   0  0  0  0  0  0  0  0  0  0  0  0
   -2.0394    5.2369    0.0804 O   0  0  0  0  0  0  0  0  0  0  0  0
   -2.0694    6.0431    0.6184 H   0  0  0  0  0  0  0  0  0  0  0  0
    0.8682   -0.1842    1.1460 C   0  0  0  0  0  0  0  0  0  0  0  0
    1.9273   -0.2621    0.5357 O   0  0  0  0  0  0  0  0  0  0  0  0
    0.8405   -0.5250    2.4851 N   0  0  0  0  0  0  0  0  0  0  0  0
   -0.0952   -0.7583    2.8184 H   0  0  0  0  0  0  0  0  0  0  0  0
    1.9612   -1.1928    3.1346 C   0  0  0  0  0  0  0  0  0  0  0  0
    2.8685   -0.5845    3.0579 H   0  0  0  0  0  0  0  0  0  0  0  0
    1.7425   -1.3495    4.1950 H   0  0  0  0  0  0  0  0  0  0  0  0
    2.1490   -2.1661    2.6695 H   0  0  0  0  0  0  0  0  0  0  0  0
  1  2  1  0  0  0  0
  2  3  1  0  0  0  0
  2  4  1  0  0  0  0
  2  5  1  0  0  0  0
  5  6  2  0  0  0  0
  5  7  1  0  0  0  0
  7  8  1  0  0  0  0
  7  9  1  0  0  0  0
  9 10  1  0  0  0  0
  9 11  1  0  0  0  0
  9 21  1  0  0  0  0
 11 12  1  0  0  0  0
 11 13  1  0  0  0  0
 11 14  1  0  0  0  0
 14 15  1  0  0  0  0
 14 16  1  0  0  0  0
 14 17  1  0  0  0  0
 17 18  2  0  0  0  0
 17 19  1  0  0  0  0
 19 20  1  0  0  0  0
 21 22  2  0  0  0  0
 21 23  1  0  0  0  0
 23 24  1  0  0  0  0
 23 25  1  0  0  0  0
 25 26  1  0  0  0  0
 25 27  1  0  0  0  0
 25 28  1  0  0  0  0
M  END
$$$$

  -OEChem-01062216073D

 28 27  0     1  0  0  0  0  0999 V2000
   -3.8007   -2.6773    0.9447 H   0  0  0  0  0  0  0  0  0  0  0  0
   -3.5730   -1.6883    0.5364 C   0  0  0  0  0  0  0  0  0  0  0  0
   -4.2629   -0.9614    0.9720 H   0  0  0  0  0  0  0  0  0  0  0  0
   -3.7176   -1.7159   -0.5464 H   0  0  0  0  0  0  0  0  0  0  0  0
   -2.1413   -1.3035    0.8604 C   0  0  0  0  0  0  0  0  0  0  0  0
   -1.4788   -2.0503    1.5552 O   0  0  0  0  0  0  0  0  0  0  0  0
   -1.6608   -0.0981    0.3818 N   0  0  0  0  0  0  0  0  0  0  0  0
   -2.3331    0.4118   -0.1827 H   0  0  0  0  0  0  0  0  0  0  0  0
   -0.3075    0.5118    0.4600 C   0  0  1  0  0  0  0  0  0  0  0  0
    0.0324    0.6521   -0.5718 H   0  0  0  0  0  0  0  0  0  0  0  0
   -0.4771    1.8955    1.1181 C   0  0  0  0  0  0  0  0  0  0  0  0
   -0.9782    1.7755    2.0856 H   0  0  0  0  0  0  0  0  0  0  0  0
    0.5118    2.3276    1.3146 H   0  0  0  0  0  0  0  0  0  0  0  0
   -1.2677    2.8790    0.2270 C   0  0  0  0  0  0  0  0  0  0  0  0
   -0.7341    3.0151   -0.7180 H   0  0  0  0  0  0  0  0  0  0  0  0
   -2.2546    2.4704   -0.0003 H   0  0  0  0  0  0  0  0  0  0  0  0
   -1.4763    4.2565    0.8582 C   0  0  0  0  0  0  0  0  0  0  0  0
   -1.1474    4.4570    2.0153 O   0  0  0  0  0  0  0  0  0  0  0  0
   -2.0447    5.1992    0.0727 O   0  0  0  0  0  0  0  0  0  0  0  0
   -2.0950    6.0009    0.6161 H   0  0  0  0  0  0  0  0  0  0  0  0
    0.8880   -0.1898    1.1641 C   0  0  0  0  0  0  0  0  0  0  0  0
    2.0023   -0.0313    0.6809 O   0  0  0  0  0  0  0  0  0  0  0  0
    0.7879   -0.8046    2.3969 N   0  0  0  0  0  0  0  0  0  0  0  0
   -0.1436   -1.1737    2.5964 H   0  0  0  0  0  0  0  0  0  0  0  0
    1.9202   -1.4644    3.0347 C   0  0  0  0  0  0  0  0  0  0  0  0
    2.7398   -0.7556    3.1925 H   0  0  0  0  0  0  0  0  0  0  0  0
    1.6220   -1.8664    4.0077 H   0  0  0  0  0  0  0  0  0  0  0  0
    2.2823   -2.2899    2.4131 H   0  0  0  0  0  0  0  0  0  0  0  0
  1  2  1  0  0  0  0
  2  3  1  0  0  0  0
  2  4  1  0  0  0  0
  2  5  1  0  0  0  0
  5  6  2  0  0  0  0
  5  7  1  0  0  0  0
  7  8  1  0  0  0  0
  7  9  1  0  0  0  0
  9 10  1  0  0  0  0
  9 11  1  0  0  0  0
  9 21  1  0  0  0  0
 11 12  1  0  0  0  0
 11 13  1  0  0  0  0
 11 14  1  0  0  0  0
 14 15  1  0  0  0  0
 14 16  1  0  0  0  0
 14 17  1  0  0  0  0
 17 18  2  0  0  0  0
 17 19  1  0  0  0  0
 19 20  1  0  0  0  0
 21 22  2  0  0  0  0
 21 23  1  0  0  0  0
 23 24  1  0  0  0  0
 23 25  1  0  0  0  0
 25 26  1  0  0  0  0
 25 27  1  0  0  0  0
 25 28  1  0  0  0  0
M  END
$$$$

  -OEChem-01062216073D

 28 27  0     1  0  0  0  0  0999 V2000
   -3.9417   -2.5718    0.9374 H   0  0  0  0  0  0  0  0  0  0  0  0
   -3.6622   -1.5952    0.5316 C   0  0  0  0  0  0  0  0  0  0  0  0
   -4.2852   -0.8300    1.0010 H   0  0  0  0  0  0  0  0  0  0  0  0
   -3.8474   -1.5976   -0.5452 H   0  0  0  0  0  0  0  0  0  0  0  0
   -2.1969   -1.3119    0.8053 C   0  0  0  0  0  0  0  0  0  0  0  0
   -1.5474   -2.1447    1.4074 O   0  0  0  0  0  0  0  0  0  0  0  0
   -1.6699   -0.1152    0.3550 N   0  0  0  0  0  0  0  0  0  0  0  0
   -2.3452    0.4543   -0.1453 H   0  0  0  0  0  0  0  0  0  0  0  0
   -0.3094    0.4777    0.4594 C   0  0  1  0  0  0  0  0  0  0  0  0
    0.0424    0.6238   -0.5674 H   0  0  0  0  0  0  0  0  0  0  0  0
   -0.4946    1.8587    1.1232 C   0  0  0  0  0  0  0  0  0  0  0  0
   -1.0167    1.7317    2.0786 H   0  0  0  0  0  0  0  0  0  0  0  0
    0.4879    2.2931    1.3454 H   0  0  0  0  0  0  0  0  0  0  0  0
   -1.2646    2.8501    0.2221 C   0  0  0  0  0  0  0  0  0  0  0  0
   -0.7089    2.9935   -0.7090 H   0  0  0  0  0  0  0  0  0  0  0  0
   -2.2465    2.4458   -0.0322 H   0  0  0  0  0  0  0  0  0  0  0  0
   -1.4865    4.2226    0.8595 C   0  0  0  0  0  0  0  0  0  0  0  0
   -1.1838    4.4140    2.0253 O   0  0  0  0  0  0  0  0  0  0  0  0
   -2.0385    5.1710    0.0692 O   0  0  0  0  0  0  0  0  0  0  0  0
   -2.1008    5.9680    0.6180 H   0  0  0  0  0  0  0  0  0  0  0  0
    0.8943   -0.2107    1.1686 C   0  0  0  0  0  0  0  0  0  0  0  0
    2.0173    0.1321    0.8188 O   0  0  0  0  0  0  0  0  0  0  0  0
    0.7926   -1.0780    2.2375 N   0  0  0  0  0  0  0  0  0  0  0  0
   -0.1210   -1.5224    2.3458 H   0  0  0  0  0  0  0  0  0  0  0  0
    1.9450   -1.7286    2.8484 C   0  0  0  0  0  0  0  0  0  0  0  0
    2.6486   -0.9821    3.2313 H   0  0  0  0  0  0  0  0  0  0  0  0
    1.6231   -2.3574    3.6840 H   0  0  0  0  0  0  0  0  0  0  0  0
    2.4621   -2.3590    2.1176 H   0  0  0  0  0  0  0  0  0  0  0  0
  1  2  1  0  0  0  0
  2  3  1  0  0  0  0
  2  4  1  0  0  0  0
  2  5  1  0  0  0  0
  5  6  2  0  0  0  0
  5  7  1  0  0  0  0
  7  8  1  0  0  0  0
  7  9  1  0  0  0  0
  9 10  1  0  0  0  0
  9 11  1  0  0  0  0
  9 21  1  0  0  0  0
 11 12  1  0  0  0  0
 11 13  1  0  0  0  0
 11 14  1  0  0  0  0
 14 15  1  0  0  0  0
 14 16  1  0  0  0  0
 14 17  1  0  0  0  0
 17 18  2  0  0  0  0
 17 19  1  0  0  0  0
 19 20  1  0  0  0  0
 21 22  2  0  0  0  0
 21 23  1  0  0  0  0
 23 24  1  0  0  0  0
 23 25  1  0  0  0  0
 25 26  1  0  0  0  0
 25 27  1  0  0  0  0
 25 28  1  0  0  0  0
M  END
$$$$

  -OEChem-01062216073D

 28 27  0     1  0  0  0  0  0999 V2000
   -3.9292   -2.6263    1.0091 H   0  0  0  0  0  0  0  0  0  0  0  0
   -3.6595   -1.6406    0.6186 C   0  0  0  0  0  0  0  0  0  0  0  0
   -4.2748   -0.8866    1.1156 H   0  0  0  0  0  0  0  0  0  0  0  0
   -3.8656   -1.6213   -0.4543 H   0  0  0  0  0  0  0  0  0  0  0  0
   -2.1896   -1.3593    0.8708 C   0  0  0  0  0  0  0  0  0  0  0  0
   -1.5413   -2.1862    1.4813 O   0  0  0  0  0  0  0  0  0  0  0  0
   -1.6625   -0.1784    0.3799 N   0  0  0  0  0  0  0  0  0  0  0  0
   -2.3475    0.3754   -0.1244 H   0  0  0  0  0  0  0  0  0  0  0  0
   -0.3110    0.4422    0.4610 C   0  0  1  0  0  0  0  0  0  0  0  0
    0.0380    0.5524   -0.5711 H   0  0  0  0  0  0  0  0  0  0  0  0
   -0.5463    1.8471    1.0617 C   0  0  0  0  0  0  0  0  0  0  0  0
   -1.0737    1.7449    2.0171 H   0  0  0  0  0  0  0  0  0  0  0  0
    0.4170    2.3259    1.2747 H   0  0  0  0  0  0  0  0  0  0  0  0
   -1.3374    2.7755    0.1119 C   0  0  0  0  0  0  0  0  0  0  0  0
   -0.7770    2.8962   -0.8195 H   0  0  0  0  0  0  0  0  0  0  0  0
   -2.3044    2.3323   -0.1342 H   0  0  0  0  0  0  0  0  0  0  0  0
   -1.6069    4.1667    0.6883 C   0  0  0  0  0  0  0  0  0  0  0  0
   -1.3216    4.4166    1.8472 O   0  0  0  0  0  0  0  0  0  0  0  0
   -2.1796    5.0635   -0.1461 O   0  0  0  0  0  0  0  0  0  0  0  0
   -2.2707    5.8810    0.3677 H   0  0  0  0  0  0  0  0  0  0  0  0
    0.9212   -0.1743    1.1943 C   0  0  0  0  0  0  0  0  0  0  0  0
    2.0155    0.3194    0.9483 O   0  0  0  0  0  0  0  0  0  0  0  0
    0.8943   -1.2085    2.1068 N   0  0  0  0  0  0  0  0  0  0  0  0
    0.0092   -1.7106    2.1915 H   0  0  0  0  0  0  0  0  0  0  0  0
    2.0859   -1.7961    2.7057 C   0  0  0  0  0  0  0  0  0  0  0  0
    2.6484   -1.0394    3.2623 H   0  0  0  0  0  0  0  0  0  0  0  0
    1.8036   -2.5944    3.3987 H   0  0  0  0  0  0  0  0  0  0  0  0
    2.7342   -2.2205    1.9321 H   0  0  0  0  0  0  0  0  0  0  0  0
  1  2  1  0  0  0  0
  2  3  1  0  0  0  0
  2  4  1  0  0  0  0
  2  5  1  0  0  0  0
  5  6  2  0  0  0  0
  5  7  1  0  0  0  0
  7  8  1  0  0  0  0
  7  9  1  0  0  0  0
  9 10  1  0  0  0  0
  9 11  1  0  0  0  0
  9 21  1  0  0  0  0
 11 12  1  0  0  0  0
 11 13  1  0  0  0  0
 11 14  1  0  0  0  0
 14 15  1  0  0  0  0
 14 16  1  0  0  0  0
 14 17  1  0  0  0  0
 17 18  2  0  0  0  0
 17 19  1  0  0  0  0
 19 20  1  0  0  0  0
 21 22  2  0  0  0  0
 21 23  1  0  0  0  0
 23 24  1  0  0  0  0
 23 25  1  0  0  0  0
 25 26  1  0  0  0  0
 25 27  1  0  0  0  0
 25 28  1  0  0  0  0
M  END
$$$$

  -OEChem-01062216073D

 28 27  0     1  0  0  0  0  0999 V2000
   -3.4292   -2.8515    1.2943 H   0  0  0  0  0  0  0  0  0  0  0  0
   -3.2962   -1.8006    1.0214 C   0  0  0  0  0  0  0  0  0  0  0  0
   -3.6110   -1.1772    1.8618 H   0  0  0  0  0  0  0  0  0  0  0  0
   -3.9264   -1.5813    0.1559 H   0  0  0  0  0  0  0  0  0  0  0  0
   -1.8414   -1.5258    0.6881 C   0  0  0  0  0  0  0  0  0  0  0  0
   -1.0622   -2.4566    0.6863 O   0  0  0  0  0  0  0  0  0  0  0  0
   -1.5021   -0.2649    0.2375 N   0  0  0  0  0  0  0  0  0  0  0  0
   -2.3094    0.3430    0.1519 H   0  0  0  0  0  0  0  0  0  0  0  0
   -0.1985    0.4474    0.1715 C   0  0  1  0  0  0  0  0  0  0  0  0
   -0.0336    0.6644   -0.8892 H   0  0  0  0  0  0  0  0  0  0  0  0
   -0.4255    1.7783    0.9237 C   0  0  0  0  0  0  0  0  0  0  0  0
   -0.7885    1.5628    1.9351 H   0  0  0  0  0  0  0  0  0  0  0  0
    0.5276    2.3106    1.0290 H   0  0  0  0  0  0  0  0  0  0  0  0
   -1.4111    2.7182    0.1914 C   0  0  0  0  0  0  0  0  0  0  0  0
   -1.0090    2.9563   -0.7978 H   0  0  0  0  0  0  0  0  0  0  0  0
   -2.3754    2.2260    0.0492 H   0  0  0  0  0  0  0  0  0  0  0  0
   -1.6717    4.0336    0.9276 C   0  0  0  0  0  0  0  0  0  0  0  0
   -1.2235    4.2064    2.0487 O   0  0  0  0  0  0  0  0  0  0  0  0
   -2.4205    4.9517    0.2762 O   0  0  0  0  0  0  0  0  0  0  0  0
   -2.4772    5.7172    0.8690 H   0  0  0  0  0  0  0  0  0  0  0  0
    1.1859   -0.1098    0.6389 C   0  0  0  0  0  0  0  0  0  0  0  0
    2.1842    0.4601    0.2244 O   0  0  0  0  0  0  0  0  0  0  0  0
    1.5271   -1.3152    1.1986 N   0  0  0  0  0  0  0  0  0  0  0  0
    2.5153   -1.5017    1.0535 H   0  0  0  0  0  0  0  0  0  0  0  0
    1.0297   -1.6609    2.5249 C   0  0  0  0  0  0  0  0  0  0  0  0
    1.7674   -1.3870    3.2857 H   0  0  0  0  0  0  0  0  0  0  0  0
    0.0955   -1.1378    2.7526 H   0  0  0  0  0  0  0  0  0  0  0  0
    0.8462   -2.7382    2.5882 H   0  0  0  0  0  0  0  0  0  0  0  0
  1  2  1  0  0  0  0
  2  3  1  0  0  0  0
  2  4  1  0  0  0  0
  2  5  1  0  0  0  0
  5  6  2  0  0  0  0
  5  7  1  0  0  0  0
  7  8  1  0  0  0  0
  7  9  1  0  0  0  0
  9 10  1  0  0  0  0
  9 11  1  0  0  0  0
  9 21  1  0  0  0  0
 11 12  1  0  0  0  0
 11 13  1  0  0  0  0
 11 14  1  0  0  0  0
 14 15  1  0  0  0  0
 14 16  1  0  0  0  0
 14 17  1  0  0  0  0
 17 18  2  0  0  0  0
 17 19  1  0  0  0  0
 19 20  1  0  0  0  0
 21 22  2  0  0  0  0
 21 23  1  0  0  0  0
 23 24  1  0  0  0  0
 23 25  1  0  0  0  0
 25 26  1  0  0  0  0
 25 27  1  0  0  0  0
 25 28  1  0  0  0  0
M  END
$$$$

  -OEChem-01062216073D

 28 27  0     1  0  0  0  0  0999 V2000
   -3.6541   -2.6707    1.5472 H   0  0  0  0  0  0  0  0  0  0  0  0
   -3.4943   -1.6594    1.1619 C   0  0  0  0  0  0  0  0  0  0  0  0
   -3.8404   -0.9419    1.9097 H   0  0  0  0  0  0  0  0  0  0  0  0
   -4.0804   -1.5366    0.2478 H   0  0  0  0  0  0  0  0  0  0  0  0
   -2.0220   -1.4357    0.8686 C   0  0  0  0  0  0  0  0  0  0  0  0
   -1.2646   -2.3703    1.0149 O   0  0  0  0  0  0  0  0  0  0  0  0
   -1.6450   -0.1972    0.3840 N   0  0  0  0  0  0  0  0  0  0  0  0
   -2.4365    0.4245    0.2583 H   0  0  0  0  0  0  0  0  0  0  0  0
   -0.3248    0.4381    0.1235 C   0  0  1  0  0  0  0  0  0  0  0  0
   -0.3108    0.6648   -0.9473 H   0  0  0  0  0  0  0  0  0  0  0  0
   -0.3713    1.7681    0.9150 C   0  0  0  0  0  0  0  0  0  0  0  0
   -0.5949    1.5519    1.9659 H   0  0  0  0  0  0  0  0  0  0  0  0
    0.6106    2.2556    0.8890 H   0  0  0  0  0  0  0  0  0  0  0  0
   -1.4047    2.7668    0.3436 C   0  0  0  0  0  0  0  0  0  0  0  0
   -1.1411    3.0003   -0.6920 H   0  0  0  0  0  0  0  0  0  0  0  0
   -2.4031    2.3248    0.3429 H   0  0  0  0  0  0  0  0  0  0  0  0
   -1.4899    4.0819    1.1203 C   0  0  0  0  0  0  0  0  0  0  0  0
   -0.8760    4.2175    2.1654 O   0  0  0  0  0  0  0  0  0  0  0  0
   -2.2813    5.0431    0.5925 O   0  0  0  0  0  0  0  0  0  0  0  0
   -2.2162    5.8000    1.1953 H   0  0  0  0  0  0  0  0  0  0  0  0
    1.0838   -0.2018    0.3605 C   0  0  0  0  0  0  0  0  0  0  0  0
    2.0502    0.4097   -0.0718 O   0  0  0  0  0  0  0  0  0  0  0  0
    1.4383   -1.5073    0.5808 N   0  0  0  0  0  0  0  0  0  0  0  0
    2.3229   -1.6913    0.1164 H   0  0  0  0  0  0  0  0  0  0  0  0
    1.4177   -1.9839    1.9592 C   0  0  0  0  0  0  0  0  0  0  0  0
    0.6468   -1.4752    2.5478 H   0  0  0  0  0  0  0  0  0  0  0  0
    1.2134   -3.0591    1.9811 H   0  0  0  0  0  0  0  0  0  0  0  0
    2.3864   -1.8018    2.4354 H   0  0  0  0  0  0  0  0  0  0  0  0
  1  2  1  0  0  0  0
  2  3  1  0  0  0  0
  2  4  1  0  0  0  0
  2  5  1  0  0  0  0
  5  6  2  0  0  0  0
  5  7  1  0  0  0  0
  7  8  1  0  0  0  0
  7  9  1  0  0  0  0
  9 10  1  0  0  0  0
  9 11  1  0  0  0  0
  9 21  1  0  0  0  0
 11 12  1  0  0  0  0
 11 13  1  0  0  0  0
 11 14  1  0  0  0  0
 14 15  1  0  0  0  0
 14 16  1  0  0  0  0
 14 17  1  0  0  0  0
 17 18  2  0  0  0  0
 17 19  1  0  0  0  0
 19 20  1  0  0  0  0
 21 22  2  0  0  0  0
 21 23  1  0  0  0  0
 23 24  1  0  0  0  0
 23 25  1  0  0  0  0
 25 26  1  0  0  0  0
 25 27  1  0  0  0  0
 25 28  1  0  0  0  0
M  END
$$$$

  -OEChem-01062216073D

 28 27  0     1  0  0  0  0  0999 V2000
   -3.9479   -2.5241    1.0258 H   0  0  0  0  0  0  0  0  0  0  0  0
   -3.6641   -1.5506    0.6152 C   0  0  0  0  0  0  0  0  0  0  0  0
   -4.2521   -0.7764    1.1141 H   0  0  0  0  0  0  0  0  0  0  0  0
   -3.8924   -1.5413   -0.4533 H   0  0  0  0  0  0  0  0  0  0  0  0
   -2.1831   -1.2996    0.8327 C   0  0  0  0  0  0  0  0  0  0  0  0
   -1.5274   -2.1576    1.3902 O   0  0  0  0  0  0  0  0  0  0  0  0
   -1.6573   -0.0970    0.3951 N   0  0  0  0  0  0  0  0  0  0  0  0
   -2.3543    0.5022   -0.0354 H   0  0  0  0  0  0  0  0  0  0  0  0
   -0.2828    0.4766    0.4211 C   0  0  1  0  0  0  0  0  0  0  0  0
    0.0087    0.6373   -0.6214 H   0  0  0  0  0  0  0  0  0  0  0  0
   -0.4600    1.8612    1.0990 C   0  0  0  0  0  0  0  0  0  0  0  0
   -0.9340    1.7240    2.0776 H   0  0  0  0  0  0  0  0  0  0  0  0
    0.5147    2.3283    1.2774 H   0  0  0  0  0  0  0  0  0  0  0  0
   -1.2833    2.8437    0.2336 C   0  0  0  0  0  0  0  0  0  0  0  0
   -0.7701    2.9972   -0.7200 H   0  0  0  0  0  0  0  0  0  0  0  0
   -2.2702    2.4286    0.0202 H   0  0  0  0  0  0  0  0  0  0  0  0
   -1.4976    4.2121    0.8828 C   0  0  0  0  0  0  0  0  0  0  0  0
   -1.1486    4.4085    2.0344 O   0  0  0  0  0  0  0  0  0  0  0  0
   -2.0959    5.1525    0.1173 O   0  0  0  0  0  0  0  0  0  0  0  0
   -2.1446    5.9481    0.6699 H   0  0  0  0  0  0  0  0  0  0  0  0
    0.9562   -0.2732    1.0189 C   0  0  0  0  0  0  0  0  0  0  0  0
    1.9468    0.3723    1.3412 O   0  0  0  0  0  0  0  0  0  0  0  0
    1.0958   -1.6469    1.0302 N   0  0  0  0  0  0  0  0  0  0  0  0
    0.2204   -2.1685    0.9635 H   0  0  0  0  0  0  0  0  0  0  0  0
    2.2505   -2.3320    1.5995 C   0  0  0  0  0  0  0  0  0  0  0  0
    2.3601   -2.0836    2.6603 H   0  0  0  0  0  0  0  0  0  0  0  0
    2.1271   -3.4153    1.5074 H   0  0  0  0  0  0  0  0  0  0  0  0
    3.1667   -2.0440    1.0731 H   0  0  0  0  0  0  0  0  0  0  0  0
  1  2  1  0  0  0  0
  2  3  1  0  0  0  0
  2  4  1  0  0  0  0
  2  5  1  0  0  0  0
  5  6  2  0  0  0  0
  5  7  1  0  0  0  0
  7  8  1  0  0  0  0
  7  9  1  0  0  0  0
  9 10  1  0  0  0  0
  9 11  1  0  0  0  0
  9 21  1  0  0  0  0
 11 12  1  0  0  0  0
 11 13  1  0  0  0  0
 11 14  1  0  0  0  0
 14 15  1  0  0  0  0
 14 16  1  0  0  0  0
 14 17  1  0  0  0  0
 17 18  2  0  0  0  0
 17 19  1  0  0  0  0
 19 20  1  0  0  0  0
 21 22  2  0  0  0  0
 21 23  1  0  0  0  0
 23 24  1  0  0  0  0
 23 25  1  0  0  0  0
 25 26  1  0  0  0  0
 25 27  1  0  0  0  0
 25 28  1  0  0  0  0
M  END
$$$$

  -OEChem-01062216073D

 28 27  0     1  0  0  0  0  0999 V2000
   -3.8249   -2.5644    1.1156 H   0  0  0  0  0  0  0  0  0  0  0  0
   -3.5856   -1.5784    0.7065 C   0  0  0  0  0  0  0  0  0  0  0  0
   -4.1266   -0.8218    1.2804 H   0  0  0  0  0  0  0  0  0  0  0  0
   -3.9144   -1.5413   -0.3351 H   0  0  0  0  0  0  0  0  0  0  0  0
   -2.0919   -1.3230    0.7895 C   0  0  0  0  0  0  0  0  0  0  0  0
   -1.3710   -2.2143    1.1945 O   0  0  0  0  0  0  0  0  0  0  0  0
   -1.6139   -0.0960    0.3654 N   0  0  0  0  0  0  0  0  0  0  0  0
   -2.3473    0.5295    0.0477 H   0  0  0  0  0  0  0  0  0  0  0  0
   -0.2539    0.5065    0.4091 C   0  0  1  0  0  0  0  0  0  0  0  0
    0.0491    0.6782   -0.6282 H   0  0  0  0  0  0  0  0  0  0  0  0
   -0.4490    1.8864    1.0893 C   0  0  0  0  0  0  0  0  0  0  0  0
   -0.9238    1.7430    2.0665 H   0  0  0  0  0  0  0  0  0  0  0  0
    0.5221    2.3615    1.2684 H   0  0  0  0  0  0  0  0  0  0  0  0
   -1.2781    2.8606    0.2202 C   0  0  0  0  0  0  0  0  0  0  0  0
   -0.7616    3.0202   -0.7305 H   0  0  0  0  0  0  0  0  0  0  0  0
   -2.2586    2.4340    0.0003 H   0  0  0  0  0  0  0  0  0  0  0  0
   -1.5128    4.2265    0.8677 C   0  0  0  0  0  0  0  0  0  0  0  0
   -1.1737    4.4271    2.0213 O   0  0  0  0  0  0  0  0  0  0  0  0
   -2.1183    5.1593    0.0984 O   0  0  0  0  0  0  0  0  0  0  0  0
   -2.1807    5.9547    0.6499 H   0  0  0  0  0  0  0  0  0  0  0  0
    0.9687   -0.2607    1.0145 C   0  0  0  0  0  0  0  0  0  0  0  0
    1.8434    0.3496    1.6183 O   0  0  0  0  0  0  0  0  0  0  0  0
    1.2215   -1.5878    0.7245 N   0  0  0  0  0  0  0  0  0  0  0  0
    0.3805   -2.1282    0.5136 H   0  0  0  0  0  0  0  0  0  0  0  0
    2.3512   -2.3142    1.2931 C   0  0  0  0  0  0  0  0  0  0  0  0
    2.2876   -2.3263    2.3863 H   0  0  0  0  0  0  0  0  0  0  0  0
    2.3536   -3.3475    0.9335 H   0  0  0  0  0  0  0  0  0  0  0  0
    3.2968   -1.8463    0.9997 H   0  0  0  0  0  0  0  0  0  0  0  0
  1  2  1  0  0  0  0
  2  3  1  0  0  0  0
  2  4  1  0  0  0  0
  2  5  1  0  0  0  0
  5  6  2  0  0  0  0
  5  7  1  0  0  0  0
  7  8  1  0  0  0  0
  7  9  1  0  0  0  0
  9 10  1  0  0  0  0
  9 11  1  0  0  0  0
  9 21  1  0  0  0  0
 11 12  1  0  0  0  0
 11 13  1  0  0  0  0
 11 14  1  0  0  0  0
 14 15  1  0  0  0  0
 14 16  1  0  0  0  0
 14 17  1  0  0  0  0
 17 18  2  0  0  0  0
 17 19  1  0  0  0  0
 19 20  1  0  0  0  0
 21 22  2  0  0  0  0
 21 23  1  0  0  0  0
 23 24  1  0  0  0  0
 23 25  1  0  0  0  0
 25 26  1  0  0  0  0
 25 27  1  0  0  0  0
 25 28  1  0  0  0  0
M  END
$$$$

  -OEChem-01062216073D

 28 27  0     1  0  0  0  0  0999 V2000
   -3.6641   -2.6293    1.1821 H   0  0  0  0  0  0  0  0  0  0  0  0
   -3.4861   -1.6235    0.7903 C   0  0  0  0  0  0  0  0  0  0  0  0
   -3.9716   -0.9009    1.4508 H   0  0  0  0  0  0  0  0  0  0  0  0
   -3.9274   -1.5512   -0.2068 H   0  0  0  0  0  0  0  0  0  0  0  0
   -1.9964   -1.3438    0.7213 C   0  0  0  0  0  0  0  0  0  0  0  0
   -1.2181   -2.2491    0.9558 O   0  0  0  0  0  0  0  0  0  0  0  0
   -1.5773   -0.0927    0.3060 N   0  0  0  0  0  0  0  0  0  0  0  0
   -2.3427    0.5451    0.1127 H   0  0  0  0  0  0  0  0  0  0  0  0
   -0.2349    0.5385    0.3861 C   0  0  1  0  0  0  0  0  0  0  0  0
    0.0950    0.7250   -0.6403 H   0  0  0  0  0  0  0  0  0  0  0  0
   -0.4472    1.9089    1.0749 C   0  0  0  0  0  0  0  0  0  0  0  0
   -0.9344    1.7546    2.0444 H   0  0  0  0  0  0  0  0  0  0  0  0
    0.5229    2.3809    1.2701 H   0  0  0  0  0  0  0  0  0  0  0  0
   -1.2701    2.8848    0.2022 C   0  0  0  0  0  0  0  0  0  0  0  0
   -0.7418    3.0557   -0.7400 H   0  0  0  0  0  0  0  0  0  0  0  0
   -2.2441    2.4522   -0.0352 H   0  0  0  0  0  0  0  0  0  0  0  0
   -1.5228    4.2439    0.8572 C   0  0  0  0  0  0  0  0  0  0  0  0
   -1.2010    4.4370    2.0170 O   0  0  0  0  0  0  0  0  0  0  0  0
   -2.1244    5.1789    0.0875 O   0  0  0  0  0  0  0  0  0  0  0  0
   -2.2026    5.9682    0.6458 H   0  0  0  0  0  0  0  0  0  0  0  0
    0.9574   -0.2451    1.0213 C   0  0  0  0  0  0  0  0  0  0  0  0
    1.6572    0.2674    1.8873 O   0  0  0  0  0  0  0  0  0  0  0  0
    1.3730   -1.4493    0.4849 N   0  0  0  0  0  0  0  0  0  0  0  0
    0.6069   -1.9863    0.0770 H   0  0  0  0  0  0  0  0  0  0  0  0
    2.4724   -2.2129    1.0636 C   0  0  0  0  0  0  0  0  0  0  0  0
    2.2433   -2.4891    2.0982 H   0  0  0  0  0  0  0  0  0  0  0  0
    2.6395   -3.1280    0.4876 H   0  0  0  0  0  0  0  0  0  0  0  0
    3.3971   -1.6262    1.0520 H   0  0  0  0  0  0  0  0  0  0  0  0
  1  2  1  0  0  0  0
  2  3  1  0  0  0  0
  2  4  1  0  0  0  0
  2  5  1  0  0  0  0
  5  6  2  0  0  0  0
  5  7  1  0  0  0  0
  7  8  1  0  0  0  0
  7  9  1  0  0  0  0
  9 10  1  0  0  0  0
  9 11  1  0  0  0  0
  9 21  1  0  0  0  0
 11 12  1  0  0  0  0
 11 13  1  0  0  0  0
 11 14  1  0  0  0  0
 14 15  1  0  0  0  0
 14 16  1  0  0  0  0
 14 17  1  0  0  0  0
 17 18  2  0  0  0  0
 17 19  1  0  0  0  0
 19 20  1  0  0  0  0
 21 22  2  0  0  0  0
 21 23  1  0  0  0  0
 23 24  1  0  0  0  0
 23 25  1  0  0  0  0
 25 26  1  0  0  0  0
 25 27  1  0  0  0  0
 25 28  1  0  0  0  0
M  END
$$$$

  -OEChem-01062216073D

 28 27  0     1  0  0  0  0  0999 V2000
   -3.5087   -2.6934    1.2116 H   0  0  0  0  0  0  0  0  0  0  0  0
   -3.3859   -1.6652    0.8588 C   0  0  0  0  0  0  0  0  0  0  0  0
   -3.8163   -0.9877    1.6002 H   0  0  0  0  0  0  0  0  0  0  0  0
   -3.9223   -1.5509   -0.0861 H   0  0  0  0  0  0  0  0  0  0  0  0
   -1.9145   -1.3514    0.6639 C   0  0  0  0  0  0  0  0  0  0  0  0
   -1.0977   -2.2476    0.7759 O   0  0  0  0  0  0  0  0  0  0  0  0
   -1.5524   -0.0838    0.2452 N   0  0  0  0  0  0  0  0  0  0  0  0
   -2.3390    0.5505    0.1527 H   0  0  0  0  0  0  0  0  0  0  0  0
   -0.2246    0.5676    0.3552 C   0  0  1  0  0  0  0  0  0  0  0  0
    0.1278    0.7685   -0.6611 H   0  0  0  0  0  0  0  0  0  0  0  0
   -0.4497    1.9267    1.0572 C   0  0  0  0  0  0  0  0  0  0  0  0
   -0.9492    1.7594    2.0185 H   0  0  0  0  0  0  0  0  0  0  0  0
    0.5199    2.3912    1.2722 H   0  0  0  0  0  0  0  0  0  0  0  0
   -1.2678    2.9080    0.1866 C   0  0  0  0  0  0  0  0  0  0  0  0
   -0.7290    3.0925   -0.7470 H   0  0  0  0  0  0  0  0  0  0  0  0
   -2.2357    2.4716   -0.0683 H   0  0  0  0  0  0  0  0  0  0  0  0
   -1.5348    4.2588    0.8528 C   0  0  0  0  0  0  0  0  0  0  0  0
   -1.2270    4.4414    2.0180 O   0  0  0  0  0  0  0  0  0  0  0  0
   -2.1304    5.1996    0.0856 O   0  0  0  0  0  0  0  0  0  0  0  0
   -2.2176    5.9829    0.6508 H   0  0  0  0  0  0  0  0  0  0  0  0
    0.9386   -0.2286    1.0190 C   0  0  0  0  0  0  0  0  0  0  0  0
    1.4299    0.1391    2.0802 O   0  0  0  0  0  0  0  0  0  0  0  0
    1.5560   -1.2512    0.3221 N   0  0  0  0  0  0  0  0  0  0  0  0
    0.9384   -1.7222   -0.3357 H   0  0  0  0  0  0  0  0  0  0  0  0
    2.6141   -2.0551    0.9224 C   0  0  0  0  0  0  0  0  0  0  0  0
    2.2393   -2.5799    1.8076 H   0  0  0  0  0  0  0  0  0  0  0  0
    2.9767   -2.7975    0.2052 H   0  0  0  0  0  0  0  0  0  0  0  0
    3.4580   -1.4230    1.2183 H   0  0  0  0  0  0  0  0  0  0  0  0
  1  2  1  0  0  0  0
  2  3  1  0  0  0  0
  2  4  1  0  0  0  0
  2  5  1  0  0  0  0
  5  6  2  0  0  0  0
  5  7  1  0  0  0  0
  7  8  1  0  0  0  0
  7  9  1  0  0  0  0
  9 10  1  0  0  0  0
  9 11  1  0  0  0  0
  9 21  1  0  0  0  0
 11 12  1  0  0  0  0
 11 13  1  0  0  0  0
 11 14  1  0  0  0  0
 14 15  1  0  0  0  0
 14 16  1  0  0  0  0
 14 17  1  0  0  0  0
 17 18  2  0  0  0  0
 17 19  1  0  0  0  0
 19 20  1  0  0  0  0
 21 22  2  0  0  0  0
 21 23  1  0  0  0  0
 23 24  1  0  0  0  0
 23 25  1  0  0  0  0
 25 26  1  0  0  0  0
 25 27  1  0  0  0  0
 25 28  1  0  0  0  0
M  END
$$$$

  -OEChem-01062216073D

 28 27  0     1  0  0  0  0  0999 V2000
   -3.4083   -2.7281    1.2419 H   0  0  0  0  0  0  0  0  0  0  0  0
   -3.3195   -1.6923    0.9015 C   0  0  0  0  0  0  0  0  0  0  0  0
   -3.7169   -1.0342    1.6780 H   0  0  0  0  0  0  0  0  0  0  0  0
   -3.9090   -1.5689   -0.0102 H   0  0  0  0  0  0  0  0  0  0  0  0
   -1.8656   -1.3545    0.6303 C   0  0  0  0  0  0  0  0  0  0  0  0
   -1.0312   -2.2416    0.6697 O   0  0  0  0  0  0  0  0  0  0  0  0
   -1.5416   -0.0793    0.2022 N   0  0  0  0  0  0  0  0  0  0  0  0
   -2.3389    0.5470    0.1655 H   0  0  0  0  0  0  0  0  0  0  0  0
   -0.2236    0.5849    0.3284 C   0  0  1  0  0  0  0  0  0  0  0  0
    0.1400    0.7953   -0.6820 H   0  0  0  0  0  0  0  0  0  0  0  0
   -0.4509    1.9356    1.0417 C   0  0  0  0  0  0  0  0  0  0  0  0
   -0.9562    1.7593    1.9985 H   0  0  0  0  0  0  0  0  0  0  0  0
    0.5197    2.3931    1.2677 H   0  0  0  0  0  0  0  0  0  0  0  0
   -1.2680    2.9227    0.1774 C   0  0  0  0  0  0  0  0  0  0  0  0
   -0.7285    3.1142   -0.7543 H   0  0  0  0  0  0  0  0  0  0  0  0
   -2.2349    2.4862   -0.0815 H   0  0  0  0  0  0  0  0  0  0  0  0
   -1.5390    4.2680    0.8530 C   0  0  0  0  0  0  0  0  0  0  0  0
   -1.2342    4.4419    2.0203 O   0  0  0  0  0  0  0  0  0  0  0  0
   -2.1357    5.2128    0.0919 O   0  0  0  0  0  0  0  0  0  0  0  0
   -2.2306    5.9904    0.6637 H   0  0  0  0  0  0  0  0  0  0  0  0
    0.9206   -0.2153    1.0130 C   0  0  0  0  0  0  0  0  0  0  0  0
    1.1994   -0.0221    2.1910 O   0  0  0  0  0  0  0  0  0  0  0  0
    1.7504   -1.0155    0.2488 N   0  0  0  0  0  0  0  0  0  0  0  0
    1.3366   -1.3490   -0.6172 H   0  0  0  0  0  0  0  0  0  0  0  0
    2.7885   -1.8406    0.8552 C   0  0  0  0  0  0  0  0  0  0  0  0
    2.3439   -2.5708    1.5397 H   0  0  0  0  0  0  0  0  0  0  0  0
    3.3419   -2.3809    0.0815 H   0  0  0  0  0  0  0  0  0  0  0  0
    3.4969   -1.2201    1.4140 H   0  0  0  0  0  0  0  0  0  0  0  0
  1  2  1  0  0  0  0
  2  3  1  0  0  0  0
  2  4  1  0  0  0  0
  2  5  1  0  0  0  0
  5  6  2  0  0  0  0
  5  7  1  0  0  0  0
  7  8  1  0  0  0  0
  7  9  1  0  0  0  0
  9 10  1  0  0  0  0
  9 11  1  0  0  0  0
  9 21  1  0  0  0  0
 11 12  1  0  0  0  0
 11 13  1  0  0  0  0
 11 14  1  0  0  0  0
 14 15  1  0  0  0  0
 14 16  1  0  0  0  0
 14 17  1  0  0  0  0
 17 18  2  0  0  0  0
 17 19  1  0  0  0  0
 19 20  1  0  0  0  0
 21 22  2  0  0  0  0
 21 23  1  0  0  0  0
 23 24  1  0  0  0  0
 23 25  1  0  0  0  0
 25 26  1  0  0  0  0
 25 27  1  0  0  0  0
 25 28  1  0  0  0  0
M  END
$$$$

  -OEChem-01062216073D

 28 27  0     1  0  0  0  0  0999 V2000
   -3.3554   -2.7390    1.2724 H   0  0  0  0  0  0  0  0  0  0  0  0
   -3.2861   -1.7012    0.9339 C   0  0  0  0  0  0  0  0  0  0  0  0
   -3.6452   -1.0484    1.7333 H   0  0  0  0  0  0  0  0  0  0  0  0
   -3.9207   -1.5743    0.0535 H   0  0  0  0  0  0  0  0  0  0  0  0
   -1.8481   -1.3589    0.5930 C   0  0  0  0  0  0  0  0  0  0  0  0
   -1.0139   -2.2474    0.5612 O   0  0  0  0  0  0  0  0  0  0  0  0
   -1.5439   -0.0799    0.1616 N   0  0  0  0  0  0  0  0  0  0  0  0
   -2.3438    0.5441    0.1745 H   0  0  0  0  0  0  0  0  0  0  0  0
   -0.2297    0.5863    0.3049 C   0  0  1  0  0  0  0  0  0  0  0  0
    0.1420    0.8029   -0.7009 H   0  0  0  0  0  0  0  0  0  0  0  0
   -0.4578    1.9292    1.0292 C   0  0  0  0  0  0  0  0  0  0  0  0
   -0.9713    1.7446    1.9804 H   0  0  0  0  0  0  0  0  0  0  0  0
    0.5129    2.3798    1.2680 H   0  0  0  0  0  0  0  0  0  0  0  0
   -1.2680    2.9252    0.1689 C   0  0  0  0  0  0  0  0  0  0  0  0
   -0.7225    3.1248   -0.7576 H   0  0  0  0  0  0  0  0  0  0  0  0
   -2.2338    2.4921   -0.1004 H   0  0  0  0  0  0  0  0  0  0  0  0
   -1.5400    4.2647    0.8555 C   0  0  0  0  0  0  0  0  0  0  0  0
   -1.2414    4.4267    2.0262 O   0  0  0  0  0  0  0  0  0  0  0  0
   -2.1268    5.2196    0.0991 O   0  0  0  0  0  0  0  0  0  0  0  0
   -2.2225    5.9922    0.6775 H   0  0  0  0  0  0  0  0  0  0  0  0
    0.9030   -0.2148    1.0044 C   0  0  0  0  0  0  0  0  0  0  0  0
    0.9996   -0.2024    2.2264 O   0  0  0  0  0  0  0  0  0  0  0  0
    1.9289   -0.7636    0.2560 N   0  0  0  0  0  0  0  0  0  0  0  0
    1.7207   -0.9227   -0.7248 H   0  0  0  0  0  0  0  0  0  0  0  0
    2.9809   -1.5676    0.8665 C   0  0  0  0  0  0  0  0  0  0  0  0
    2.5528   -2.4512    1.3517 H   0  0  0  0  0  0  0  0  0  0  0  0
    3.6937   -1.8992    0.1057 H   0  0  0  0  0  0  0  0  0  0  0  0
    3.5257   -0.9839    1.6159 H   0  0  0  0  0  0  0  0  0  0  0  0
  1  2  1  0  0  0  0
  2  3  1  0  0  0  0
  2  4  1  0  0  0  0
  2  5  1  0  0  0  0
  5  6  2  0  0  0  0
  5  7  1  0  0  0  0
  7  8  1  0  0  0  0
  7  9  1  0  0  0  0
  9 10  1  0  0  0  0
  9 11  1  0  0  0  0
  9 21  1  0  0  0  0
 11 12  1  0  0  0  0
 11 13  1  0  0  0  0
 11 14  1  0  0  0  0
 14 15  1  0  0  0  0
 14 16  1  0  0  0  0
 14 17  1  0  0  0  0
 17 18  2  0  0  0  0
 17 19  1  0  0  0  0
 19 20  1  0  0  0  0
 21 22  2  0  0  0  0
 21 23  1  0  0  0  0
 23 24  1  0  0  0  0
 23 25  1  0  0  0  0
 25 26  1  0  0  0  0
 25 27  1  0  0  0  0
 25 28  1  0  0  0  0
M  END
$$$$

  -OEChem-01062216073D

 28 27  0     1  0  0  0  0  0999 V2000
   -3.3338   -2.7440    1.2830 H   0  0  0  0  0  0  0  0  0  0  0  0
   -3.2710   -1.7008    0.9604 C   0  0  0  0  0  0  0  0  0  0  0  0
   -3.5825   -1.0596    1.7886 H   0  0  0  0  0  0  0  0  0  0  0  0
   -3.9471   -1.5510    0.1152 H   0  0  0  0  0  0  0  0  0  0  0  0
   -1.8483   -1.3666    0.5548 C   0  0  0  0  0  0  0  0  0  0  0  0
   -1.0275   -2.2626    0.4526 O   0  0  0  0  0  0  0  0  0  0  0  0
   -1.5515   -0.0871    0.1207 N   0  0  0  0  0  0  0  0  0  0  0  0
   -2.3488    0.5378    0.1700 H   0  0  0  0  0  0  0  0  0  0  0  0
   -0.2372    0.5750    0.2785 C   0  0  1  0  0  0  0  0  0  0  0  0
    0.1418    0.7931   -0.7241 H   0  0  0  0  0  0  0  0  0  0  0  0
   -0.4625    1.9119    1.0135 C   0  0  0  0  0  0  0  0  0  0  0  0
   -0.9821    1.7204    1.9599 H   0  0  0  0  0  0  0  0  0  0  0  0
    0.5091    2.3549    1.2621 H   0  0  0  0  0  0  0  0  0  0  0  0
   -1.2638    2.9207    0.1599 C   0  0  0  0  0  0  0  0  0  0  0  0
   -0.7146    3.1265   -0.7630 H   0  0  0  0  0  0  0  0  0  0  0  0
   -2.2312    2.4953   -0.1163 H   0  0  0  0  0  0  0  0  0  0  0  0
   -1.5314    4.2544    0.8595 C   0  0  0  0  0  0  0  0  0  0  0  0
   -1.2362    4.4011    2.0331 O   0  0  0  0  0  0  0  0  0  0  0  0
   -2.1096    5.2215    0.1120 O   0  0  0  0  0  0  0  0  0  0  0  0
   -2.2056    5.9874    0.6993 H   0  0  0  0  0  0  0  0  0  0  0  0
    0.8864   -0.2264    0.9911 C   0  0  0  0  0  0  0  0  0  0  0  0
    0.8400   -0.3843    2.2060 O   0  0  0  0  0  0  0  0  0  0  0  0
    2.0668   -0.5129    0.3284 N   0  0  0  0  0  0  0  0  0  0  0  0
    2.0310   -0.4929   -0.6857 H   0  0  0  0  0  0  0  0  0  0  0  0
    3.1533   -1.2502    0.9632 C   0  0  0  0  0  0  0  0  0  0  0  0
    2.8119   -2.2445    1.2707 H   0  0  0  0  0  0  0  0  0  0  0  0
    3.9886   -1.3693    0.2665 H   0  0  0  0  0  0  0  0  0  0  0  0
    3.5167   -0.7144    1.8467 H   0  0  0  0  0  0  0  0  0  0  0  0
  1  2  1  0  0  0  0
  2  3  1  0  0  0  0
  2  4  1  0  0  0  0
  2  5  1  0  0  0  0
  5  6  2  0  0  0  0
  5  7  1  0  0  0  0
  7  8  1  0  0  0  0
  7  9  1  0  0  0  0
  9 10  1  0  0  0  0
  9 11  1  0  0  0  0
  9 21  1  0  0  0  0
 11 12  1  0  0  0  0
 11 13  1  0  0  0  0
 11 14  1  0  0  0  0
 14 15  1  0  0  0  0
 14 16  1  0  0  0  0
 14 17  1  0  0  0  0
 17 18  2  0  0  0  0
 17 19  1  0  0  0  0
 19 20  1  0  0  0  0
 21 22  2  0  0  0  0
 21 23  1  0  0  0  0
 23 24  1  0  0  0  0
 23 25  1  0  0  0  0
 25 26  1  0  0  0  0
 25 27  1  0  0  0  0
 25 28  1  0  0  0  0
M  END
$$$$

  -OEChem-01062216073D

 28 27  0     1  0  0  0  0  0999 V2000
   -3.3161   -2.7417    1.3056 H   0  0  0  0  0  0  0  0  0  0  0  0
   -3.2587   -1.6968    0.9875 C   0  0  0  0  0  0  0  0  0  0  0  0
   -3.5201   -1.0590    1.8352 H   0  0  0  0  0  0  0  0  0  0  0  0
   -3.9751   -1.5333    0.1791 H   0  0  0  0  0  0  0  0  0  0  0  0
   -1.8551   -1.3740    0.5121 C   0  0  0  0  0  0  0  0  0  0  0  0
   -1.0590   -2.2791    0.3260 O   0  0  0  0  0  0  0  0  0  0  0  0
   -1.5596   -0.0933    0.0817 N   0  0  0  0  0  0  0  0  0  0  0  0
   -2.3516    0.5345    0.1668 H   0  0  0  0  0  0  0  0  0  0  0  0
   -0.2424    0.5594    0.2549 C   0  0  1  0  0  0  0  0  0  0  0  0
    0.1437    0.7794   -0.7445 H   0  0  0  0  0  0  0  0  0  0  0  0
   -0.4625    1.8891    1.0022 C   0  0  0  0  0  0  0  0  0  0  0  0
   -0.9890    1.6907    1.9435 H   0  0  0  0  0  0  0  0  0  0  0  0
    0.5101    2.3238    1.2614 H   0  0  0  0  0  0  0  0  0  0  0  0
   -1.2518    2.9111    0.1536 C   0  0  0  0  0  0  0  0  0  0  0  0
   -0.6963    3.1218   -0.7645 H   0  0  0  0  0  0  0  0  0  0  0  0
   -2.2200    2.4944   -0.1328 H   0  0  0  0  0  0  0  0  0  0  0  0
   -1.5149    4.2397    0.8646 C   0  0  0  0  0  0  0  0  0  0  0  0
   -1.2255    4.3726    2.0414 O   0  0  0  0  0  0  0  0  0  0  0  0
   -2.0838    5.2174    0.1240 O   0  0  0  0  0  0  0  0  0  0  0  0
   -2.1824    5.9768    0.7193 H   0  0  0  0  0  0  0  0  0  0  0  0
    0.8747   -0.2450    0.9742 C   0  0  0  0  0  0  0  0  0  0  0  0
    0.7231   -0.5701    2.1466 O   0  0  0  0  0  0  0  0  0  0  0  0
    2.1566   -0.2671    0.4527 N   0  0  0  0  0  0  0  0  0  0  0  0
    2.2556   -0.0483   -0.5332 H   0  0  0  0  0  0  0  0  0  0  0  0
    3.2675   -0.9240    1.1323 C   0  0  0  0  0  0  0  0  0  0  0  0
    3.0463   -1.9853    1.2889 H   0  0  0  0  0  0  0  0  0  0  0  0
    4.1793   -0.8446    0.5328 H   0  0  0  0  0  0  0  0  0  0  0  0
    3.4535   -0.4561    2.1049 H   0  0  0  0  0  0  0  0  0  0  0  0
  1  2  1  0  0  0  0
  2  3  1  0  0  0  0
  2  4  1  0  0  0  0
  2  5  1  0  0  0  0
  5  6  2  0  0  0  0
  5  7  1  0  0  0  0
  7  8  1  0  0  0  0
  7  9  1  0  0  0  0
  9 10  1  0  0  0  0
  9 11  1  0  0  0  0
  9 21  1  0  0  0  0
 11 12  1  0  0  0  0
 11 13  1  0  0  0  0
 11 14  1  0  0  0  0
 14 15  1  0  0  0  0
 14 16  1  0  0  0  0
 14 17  1  0  0  0  0
 17 18  2  0  0  0  0
 17 19  1  0  0  0  0
 19 20  1  0  0  0  0
 21 22  2  0  0  0  0
 21 23  1  0  0  0  0
 23 24  1  0  0  0  0
 23 25  1  0  0  0  0
 25 26  1  0  0  0  0
 25 27  1  0  0  0  0
 25 28  1  0  0  0  0
M  END
$$$$

  -OEChem-01062216073D

 28 27  0     1  0  0  0  0  0999 V2000
   -3.3161   -2.7355    1.3037 H   0  0  0  0  0  0  0  0  0  0  0  0
   -3.2487   -1.6828    1.0152 C   0  0  0  0  0  0  0  0  0  0  0  0
   -3.4452   -1.0662    1.8957 H   0  0  0  0  0  0  0  0  0  0  0  0
   -4.0039   -1.4755    0.2534 H   0  0  0  0  0  0  0  0  0  0  0  0
   -1.8651   -1.3807    0.4729 C   0  0  0  0  0  0  0  0  0  0  0  0
   -1.1050   -2.2976    0.2097 O   0  0  0  0  0  0  0  0  0  0  0  0
   -1.5613   -0.1011    0.0471 N   0  0  0  0  0  0  0  0  0  0  0  0
   -2.3446    0.5324    0.1623 H   0  0  0  0  0  0  0  0  0  0  0  0
   -0.2385    0.5383    0.2312 C   0  0  1  0  0  0  0  0  0  0  0  0
    0.1528    0.7611   -0.7657 H   0  0  0  0  0  0  0  0  0  0  0  0
   -0.4594    1.8619    0.9892 C   0  0  0  0  0  0  0  0  0  0  0  0
   -0.9929    1.6557    1.9247 H   0  0  0  0  0  0  0  0  0  0  0  0
    0.5117    2.2921    1.2607 H   0  0  0  0  0  0  0  0  0  0  0  0
   -1.2393    2.8956    0.1453 C   0  0  0  0  0  0  0  0  0  0  0  0
   -0.6767    3.1136   -0.7667 H   0  0  0  0  0  0  0  0  0  0  0  0
   -2.2071    2.4861   -0.1527 H   0  0  0  0  0  0  0  0  0  0  0  0
   -1.5016    4.2175    0.8691 C   0  0  0  0  0  0  0  0  0  0  0  0
   -1.2189    4.3356    2.0492 O   0  0  0  0  0  0  0  0  0  0  0  0
   -2.0601    5.2066    0.1358 O   0  0  0  0  0  0  0  0  0  0  0  0
   -2.1595    5.9598    0.7387 H   0  0  0  0  0  0  0  0  0  0  0  0
    0.8778   -0.2659    0.9539 C   0  0  0  0  0  0  0  0  0  0  0  0
    0.6578   -0.7518    2.0576 O   0  0  0  0  0  0  0  0  0  0  0  0
    2.2023   -0.0383    0.6194 N   0  0  0  0  0  0  0  0  0  0  0  0
    2.3879    0.3721   -0.2899 H   0  0  0  0  0  0  0  0  0  0  0  0
    3.3171   -0.6108    1.3666 C   0  0  0  0  0  0  0  0  0  0  0  0
    3.2391   -1.7030    1.3931 H   0  0  0  0  0  0  0  0  0  0  0  0
    4.2675   -0.3424    0.8955 H   0  0  0  0  0  0  0  0  0  0  0  0
    3.3235   -0.2336    2.3947 H   0  0  0  0  0  0  0  0  0  0  0  0
  1  2  1  0  0  0  0
  2  3  1  0  0  0  0
  2  4  1  0  0  0  0
  2  5  1  0  0  0  0
  5  6  2  0  0  0  0
  5  7  1  0  0  0  0
  7  8  1  0  0  0  0
  7  9  1  0  0  0  0
  9 10  1  0  0  0  0
  9 11  1  0  0  0  0
  9 21  1  0  0  0  0
 11 12  1  0  0  0  0
 11 13  1  0  0  0  0
 11 14  1  0  0  0  0
 14 15  1  0  0  0  0
 14 16  1  0  0  0  0
 14 17  1  0  0  0  0
 17 18  2  0  0  0  0
 17 19  1  0  0  0  0
 19 20  1  0  0  0  0
 21 22  2  0  0  0  0
 21 23  1  0  0  0  0
 23 24  1  0  0  0  0
 23 25  1  0  0  0  0
 25 26  1  0  0  0  0
 25 27  1  0  0  0  0
 25 28  1  0  0  0  0
M  END
$$$$

  -OEChem-01062216073D

 28 27  0     1  0  0  0  0  0999 V2000
   -3.3197   -2.7198    1.3090 H   0  0  0  0  0  0  0  0  0  0  0  0
   -3.2375   -1.6625    1.0422 C   0  0  0  0  0  0  0  0  0  0  0  0
   -3.3742   -1.0628    1.9452 H   0  0  0  0  0  0  0  0  0  0  0  0
   -4.0225   -1.4165    0.3233 H   0  0  0  0  0  0  0  0  0  0  0  0
   -1.8734   -1.3849    0.4404 C   0  0  0  0  0  0  0  0  0  0  0  0
   -1.1639   -2.3143    0.0932 O   0  0  0  0  0  0  0  0  0  0  0  0
   -1.5539   -0.1069    0.0235 N   0  0  0  0  0  0  0  0  0  0  0  0
   -2.3267    0.5339    0.1644 H   0  0  0  0  0  0  0  0  0  0  0  0
   -0.2244    0.5185    0.2140 C   0  0  1  0  0  0  0  0  0  0  0  0
    0.1696    0.7435   -0.7815 H   0  0  0  0  0  0  0  0  0  0  0  0
   -0.4540    1.8378    0.9798 C   0  0  0  0  0  0  0  0  0  0  0  0
   -0.9947    1.6231    1.9094 H   0  0  0  0  0  0  0  0  0  0  0  0
    0.5114    2.2727    1.2626 H   0  0  0  0  0  0  0  0  0  0  0  0
   -1.2284    2.8770    0.1374 C   0  0  0  0  0  0  0  0  0  0  0  0
   -0.6588    3.1024   -0.7685 H   0  0  0  0  0  0  0  0  0  0  0  0
   -2.1936    2.4695   -0.1714 H   0  0  0  0  0  0  0  0  0  0  0  0
   -1.4979    4.1929    0.8694 C   0  0  0  0  0  0  0  0  0  0  0  0
   -1.2245    4.3009    2.0527 O   0  0  0  0  0  0  0  0  0  0  0  0
   -2.0495    5.1881    0.1395 O   0  0  0  0  0  0  0  0  0  0  0  0
   -2.1550    5.9362    0.7476 H   0  0  0  0  0  0  0  0  0  0  0  0
    0.9000   -0.2820    0.9341 C   0  0  0  0  0  0  0  0  0  0  0  0
    0.6455   -0.9442    1.9330 O   0  0  0  0  0  0  0  0  0  0  0  0
    2.2071    0.1658    0.8248 N   0  0  0  0  0  0  0  0  0  0  0  0
    2.4305    0.7682    0.0394 H   0  0  0  0  0  0  0  0  0  0  0  0
    3.2993   -0.3410    1.6496 C   0  0  0  0  0  0  0  0  0  0  0  0
    3.3839   -1.4283    1.5476 H   0  0  0  0  0  0  0  0  0  0  0  0
    4.2478    0.1095    1.3419 H   0  0  0  0  0  0  0  0  0  0  0  0
    3.1279   -0.0984    2.7037 H   0  0  0  0  0  0  0  0  0  0  0  0
  1  2  1  0  0  0  0
  2  3  1  0  0  0  0
  2  4  1  0  0  0  0
  2  5  1  0  0  0  0
  5  6  2  0  0  0  0
  5  7  1  0  0  0  0
  7  8  1  0  0  0  0
  7  9  1  0  0  0  0
  9 10  1  0  0  0  0
  9 11  1  0  0  0  0
  9 21  1  0  0  0  0
 11 12  1  0  0  0  0
 11 13  1  0  0  0  0
 11 14  1  0  0  0  0
 14 15  1  0  0  0  0
 14 16  1  0  0  0  0
 14 17  1  0  0  0  0
 17 18  2  0  0  0  0
 17 19  1  0  0  0  0
 19 20  1  0  0  0  0
 21 22  2  0  0  0  0
 21 23  1  0  0  0  0
 23 24  1  0  0  0  0
 23 25  1  0  0  0  0
 25 26  1  0  0  0  0
 25 27  1  0  0  0  0
 25 28  1  0  0  0  0
M  END
$$$$

  -OEChem-01062216073D

 28 27  0     1  0  0  0  0  0999 V2000
   -3.2361   -2.9332    1.2303 H   0  0  0  0  0  0  0  0  0  0  0  0
   -3.1001   -2.0508    0.5987 C   0  0  0  0  0  0  0  0  0  0  0  0
   -4.0459   -1.5073    0.5409 H   0  0  0  0  0  0  0  0  0  0  0  0
   -2.8105   -2.3791   -0.4022 H   0  0  0  0  0  0  0  0  0  0  0  0
   -2.0205   -1.1582    1.1800 C   0  0  0  0  0  0  0  0  0  0  0  0
   -1.5941   -1.3728    2.3031 O   0  0  0  0  0  0  0  0  0  0  0  0
   -1.7055    0.0367    0.5599 N   0  0  0  0  0  0  0  0  0  0  0  0
   -2.2542    0.1846   -0.2804 H   0  0  0  0  0  0  0  0  0  0  0  0
   -0.3343    0.5985    0.4982 C   0  0  1  0  0  0  0  0  0  0  0  0
   -0.1572    0.9457   -0.5240 H   0  0  0  0  0  0  0  0  0  0  0  0
   -0.3280    1.8161    1.4491 C   0  0  0  0  0  0  0  0  0  0  0  0
   -0.6657    1.4917    2.4412 H   0  0  0  0  0  0  0  0  0  0  0  0
    0.6872    2.2077    1.5634 H   0  0  0  0  0  0  0  0  0  0  0  0
   -1.2283    2.9612    0.9354 C   0  0  0  0  0  0  0  0  0  0  0  0
   -0.8763    3.2884   -0.0465 H   0  0  0  0  0  0  0  0  0  0  0  0
   -2.2543    2.6021    0.8214 H   0  0  0  0  0  0  0  0  0  0  0  0
   -1.2689    4.1793    1.8592 C   0  0  0  0  0  0  0  0  0  0  0  0
   -0.7299    4.1378    2.9526 O   0  0  0  0  0  0  0  0  0  0  0  0
   -1.9211    5.2684    1.3931 O   0  0  0  0  0  0  0  0  0  0  0  0
   -1.8641    5.9317    2.0981 H   0  0  0  0  0  0  0  0  0  0  0  0
    0.8778   -0.3285    0.8259 C   0  0  0  0  0  0  0  0  0  0  0  0
    0.8102   -1.5379    0.6439 O   0  0  0  0  0  0  0  0  0  0  0  0
    2.1587    0.2004    0.7737 N   0  0  0  0  0  0  0  0  0  0  0  0
    2.2489    1.2073    0.8590 H   0  0  0  0  0  0  0  0  0  0  0  0
    3.3691   -0.6129    0.8429 C   0  0  0  0  0  0  0  0  0  0  0  0
    3.4453   -1.2641   -0.0341 H   0  0  0  0  0  0  0  0  0  0  0  0
    4.2548    0.0287    0.8742 H   0  0  0  0  0  0  0  0  0  0  0  0
    3.3617   -1.2357    1.7439 H   0  0  0  0  0  0  0  0  0  0  0  0
  1  2  1  0  0  0  0
  2  3  1  0  0  0  0
  2  4  1  0  0  0  0
  2  5  1  0  0  0  0
  5  6  2  0  0  0  0
  5  7  1  0  0  0  0
  7  8  1  0  0  0  0
  7  9  1  0  0  0  0
  9 10  1  0  0  0  0
  9 11  1  0  0  0  0
  9 21  1  0  0  0  0
 11 12  1  0  0  0  0
 11 13  1  0  0  0  0
 11 14  1  0  0  0  0
 14 15  1  0  0  0  0
 14 16  1  0  0  0  0
 14 17  1  0  0  0  0
 17 18  2  0  0  0  0
 17 19  1  0  0  0  0
 19 20  1  0  0  0  0
 21 22  2  0  0  0  0
 21 23  1  0  0  0  0
 23 24  1  0  0  0  0
 23 25  1  0  0  0  0
 25 26  1  0  0  0  0
 25 27  1  0  0  0  0
 25 28  1  0  0  0  0
M  END
$$$$

  -OEChem-01062216073D

 28 27  0     1  0  0  0  0  0999 V2000
   -3.2054   -2.9268    1.2469 H   0  0  0  0  0  0  0  0  0  0  0  0
   -3.0837   -2.0425    0.6151 C   0  0  0  0  0  0  0  0  0  0  0  0
   -4.0287   -1.4952    0.5865 H   0  0  0  0  0  0  0  0  0  0  0  0
   -2.8242   -2.3681   -0.3951 H   0  0  0  0  0  0  0  0  0  0  0  0
   -1.9842   -1.1566    1.1689 C   0  0  0  0  0  0  0  0  0  0  0  0
   -1.4927   -1.4064    2.2581 O   0  0  0  0  0  0  0  0  0  0  0  0
   -1.6954    0.0499    0.5571 N   0  0  0  0  0  0  0  0  0  0  0  0
   -2.2600    0.2061   -0.2713 H   0  0  0  0  0  0  0  0  0  0  0  0
   -0.3322    0.6293    0.4906 C   0  0  1  0  0  0  0  0  0  0  0  0
   -0.1546    0.9791   -0.5308 H   0  0  0  0  0  0  0  0  0  0  0  0
   -0.3381    1.8487    1.4402 C   0  0  0  0  0  0  0  0  0  0  0  0
   -0.6640    1.5220    2.4354 H   0  0  0  0  0  0  0  0  0  0  0  0
    0.6701    2.2596    1.5428 H   0  0  0  0  0  0  0  0  0  0  0  0
   -1.2550    2.9810    0.9275 C   0  0  0  0  0  0  0  0  0  0  0  0
   -0.9092    3.3114   -0.0556 H   0  0  0  0  0  0  0  0  0  0  0  0
   -2.2768    2.6094    0.8158 H   0  0  0  0  0  0  0  0  0  0  0  0
   -1.3071    4.1991    1.8509 C   0  0  0  0  0  0  0  0  0  0  0  0
   -0.7629    4.1638    2.9421 O   0  0  0  0  0  0  0  0  0  0  0  0
   -1.9772    5.2792    1.3891 O   0  0  0  0  0  0  0  0  0  0  0  0
   -1.9251    5.9433    2.0938 H   0  0  0  0  0  0  0  0  0  0  0  0
    0.8652   -0.3201    0.8070 C   0  0  0  0  0  0  0  0  0  0  0  0
    0.8387   -1.4720    0.3877 O   0  0  0  0  0  0  0  0  0  0  0  0
    2.1246    0.1935    1.0754 N   0  0  0  0  0  0  0  0  0  0  0  0
    2.1700    1.1473    1.4182 H   0  0  0  0  0  0  0  0  0  0  0  0
    3.3172   -0.6398    1.1909 C   0  0  0  0  0  0  0  0  0  0  0  0
    3.5415   -1.1234    0.2342 H   0  0  0  0  0  0  0  0  0  0  0  0
    4.1789   -0.0299    1.4789 H   0  0  0  0  0  0  0  0  0  0  0  0
    3.1718   -1.4147    1.9512 H   0  0  0  0  0  0  0  0  0  0  0  0
  1  2  1  0  0  0  0
  2  3  1  0  0  0  0
  2  4  1  0  0  0  0
  2  5  1  0  0  0  0
  5  6  2  0  0  0  0
  5  7  1  0  0  0  0
  7  8  1  0  0  0  0
  7  9  1  0  0  0  0
  9 10  1  0  0  0  0
  9 11  1  0  0  0  0
  9 21  1  0  0  0  0
 11 12  1  0  0  0  0
 11 13  1  0  0  0  0
 11 14  1  0  0  0  0
 14 15  1  0  0  0  0
 14 16  1  0  0  0  0
 14 17  1  0  0  0  0
 17 18  2  0  0  0  0
 17 19  1  0  0  0  0
 19 20  1  0  0  0  0
 21 22  2  0  0  0  0
 21 23  1  0  0  0  0
 23 24  1  0  0  0  0
 23 25  1  0  0  0  0
 25 26  1  0  0  0  0
 25 27  1  0  0  0  0
 25 28  1  0  0  0  0
M  END
$$$$

  -OEChem-01062216073D

 28 27  0     1  0  0  0  0  0999 V2000
   -3.1420   -2.9598    1.2068 H   0  0  0  0  0  0  0  0  0  0  0  0
   -3.0852   -2.0306    0.6329 C   0  0  0  0  0  0  0  0  0  0  0  0
   -4.0344   -1.4981    0.7269 H   0  0  0  0  0  0  0  0  0  0  0  0
   -2.9129   -2.2789   -0.4171 H   0  0  0  0  0  0  0  0  0  0  0  0
   -1.9512   -1.1682    1.1526 C   0  0  0  0  0  0  0  0  0  0  0  0
   -1.4000   -1.4603    2.2021 O   0  0  0  0  0  0  0  0  0  0  0  0
   -1.6831    0.0496    0.5531 N   0  0  0  0  0  0  0  0  0  0  0  0
   -2.2695    0.2242   -0.2564 H   0  0  0  0  0  0  0  0  0  0  0  0
   -0.3301    0.6506    0.4822 C   0  0  1  0  0  0  0  0  0  0  0  0
   -0.1586    1.0023   -0.5396 H   0  0  0  0  0  0  0  0  0  0  0  0
   -0.3404    1.8720    1.4280 C   0  0  0  0  0  0  0  0  0  0  0  0
   -0.6516    1.5468    2.4283 H   0  0  0  0  0  0  0  0  0  0  0  0
    0.6649    2.2953    1.5123 H   0  0  0  0  0  0  0  0  0  0  0  0
   -1.2728    2.9925    0.9184 C   0  0  0  0  0  0  0  0  0  0  0  0
   -0.9381    3.3228   -0.0687 H   0  0  0  0  0  0  0  0  0  0  0  0
   -2.2913    2.6093    0.8161 H   0  0  0  0  0  0  0  0  0  0  0  0
   -1.3311    4.2136    1.8375 C   0  0  0  0  0  0  0  0  0  0  0  0
   -0.7784    4.1877    2.9247 O   0  0  0  0  0  0  0  0  0  0  0  0
   -2.0152    5.2852    1.3764 O   0  0  0  0  0  0  0  0  0  0  0  0
   -1.9630    5.9542    2.0762 H   0  0  0  0  0  0  0  0  0  0  0  0
    0.8630   -0.3064    0.7837 C   0  0  0  0  0  0  0  0  0  0  0  0
    0.9076   -1.3781    0.1894 O   0  0  0  0  0  0  0  0  0  0  0  0
    2.0446    0.1461    1.3489 N   0  0  0  0  0  0  0  0  0  0  0  0
    1.9900    1.0018    1.8918 H   0  0  0  0  0  0  0  0  0  0  0  0
    3.2070   -0.7150    1.5380 C   0  0  0  0  0  0  0  0  0  0  0  0
    3.5860   -1.0660    0.5723 H   0  0  0  0  0  0  0  0  0  0  0  0
    4.0074   -0.1655    2.0426 H   0  0  0  0  0  0  0  0  0  0  0  0
    2.9436   -1.5843    2.1501 H   0  0  0  0  0  0  0  0  0  0  0  0
  1  2  1  0  0  0  0
  2  3  1  0  0  0  0
  2  4  1  0  0  0  0
  2  5  1  0  0  0  0
  5  6  2  0  0  0  0
  5  7  1  0  0  0  0
  7  8  1  0  0  0  0
  7  9  1  0  0  0  0
  9 10  1  0  0  0  0
  9 11  1  0  0  0  0
  9 21  1  0  0  0  0
 11 12  1  0  0  0  0
 11 13  1  0  0  0  0
 11 14  1  0  0  0  0
 14 15  1  0  0  0  0
 14 16  1  0  0  0  0
 14 17  1  0  0  0  0
 17 18  2  0  0  0  0
 17 19  1  0  0  0  0
 19 20  1  0  0  0  0
 21 22  2  0  0  0  0
 21 23  1  0  0  0  0
 23 24  1  0  0  0  0
 23 25  1  0  0  0  0
 25 26  1  0  0  0  0
 25 27  1  0  0  0  0
 25 28  1  0  0  0  0
M  END
$$$$

  -OEChem-01062216073D

 28 27  0     1  0  0  0  0  0999 V2000
   -3.1482   -2.9554    1.2097 H   0  0  0  0  0  0  0  0  0  0  0  0
   -3.0901   -2.0242    0.6390 C   0  0  0  0  0  0  0  0  0  0  0  0
   -4.0291   -1.4783    0.7564 H   0  0  0  0  0  0  0  0  0  0  0  0
   -2.9451   -2.2696   -0.4159 H   0  0  0  0  0  0  0  0  0  0  0  0
   -1.9320   -1.1804    1.1364 C   0  0  0  0  0  0  0  0  0  0  0  0
   -1.3398   -1.5071    2.1526 O   0  0  0  0  0  0  0  0  0  0  0  0
   -1.6750    0.0446    0.5464 N   0  0  0  0  0  0  0  0  0  0  0  0
   -2.2774    0.2346   -0.2479 H   0  0  0  0  0  0  0  0  0  0  0  0
   -0.3305    0.6628    0.4753 C   0  0  1  0  0  0  0  0  0  0  0  0
   -0.1638    1.0161   -0.5470 H   0  0  0  0  0  0  0  0  0  0  0  0
   -0.3412    1.8852    1.4180 C   0  0  0  0  0  0  0  0  0  0  0  0
   -0.6439    1.5616    2.4213 H   0  0  0  0  0  0  0  0  0  0  0  0
    0.6653    2.3103    1.4903 H   0  0  0  0  0  0  0  0  0  0  0  0
   -1.2825    3.0002    0.9133 C   0  0  0  0  0  0  0  0  0  0  0  0
   -0.9565    3.3308   -0.0766 H   0  0  0  0  0  0  0  0  0  0  0  0
   -2.2998    2.6117    0.8191 H   0  0  0  0  0  0  0  0  0  0  0  0
   -1.3394    4.2214    1.8322 C   0  0  0  0  0  0  0  0  0  0  0  0
   -0.7785    4.1983    2.9155 O   0  0  0  0  0  0  0  0  0  0  0  0
   -2.0346    5.2884    1.3773 O   0  0  0  0  0  0  0  0  0  0  0  0
   -1.9785    5.9585    2.0759 H   0  0  0  0  0  0  0  0  0  0  0  0
    0.8638   -0.2920    0.7688 C   0  0  0  0  0  0  0  0  0  0  0  0
    1.0035   -1.2692    0.0418 O   0  0  0  0  0  0  0  0  0  0  0  0
    1.9187    0.0588    1.5953 N   0  0  0  0  0  0  0  0  0  0  0  0
    1.7345    0.7952    2.2698 H   0  0  0  0  0  0  0  0  0  0  0  0
    3.0436   -0.8350    1.8455 C   0  0  0  0  0  0  0  0  0  0  0  0
    3.5744   -1.0542    0.9129 H   0  0  0  0  0  0  0  0  0  0  0  0
    3.7486   -0.3708    2.5416 H   0  0  0  0  0  0  0  0  0  0  0  0
    2.6942   -1.7771    2.2815 H   0  0  0  0  0  0  0  0  0  0  0  0
  1  2  1  0  0  0  0
  2  3  1  0  0  0  0
  2  4  1  0  0  0  0
  2  5  1  0  0  0  0
  5  6  2  0  0  0  0
  5  7  1  0  0  0  0
  7  8  1  0  0  0  0
  7  9  1  0  0  0  0
  9 10  1  0  0  0  0
  9 11  1  0  0  0  0
  9 21  1  0  0  0  0
 11 12  1  0  0  0  0
 11 13  1  0  0  0  0
 11 14  1  0  0  0  0
 14 15  1  0  0  0  0
 14 16  1  0  0  0  0
 14 17  1  0  0  0  0
 17 18  2  0  0  0  0
 17 19  1  0  0  0  0
 19 20  1  0  0  0  0
 21 22  2  0  0  0  0
 21 23  1  0  0  0  0
 23 24  1  0  0  0  0
 23 25  1  0  0  0  0
 25 26  1  0  0  0  0
 25 27  1  0  0  0  0
 25 28  1  0  0  0  0
M  END
$$$$

  -OEChem-01062216073D

 28 27  0     1  0  0  0  0  0999 V2000
   -3.1569   -2.9579    1.1842 H   0  0  0  0  0  0  0  0  0  0  0  0
   -3.1141   -2.0087    0.6428 C   0  0  0  0  0  0  0  0  0  0  0  0
   -4.0401   -1.4575    0.8235 H   0  0  0  0  0  0  0  0  0  0  0  0
   -3.0231   -2.2196   -0.4253 H   0  0  0  0  0  0  0  0  0  0  0  0
   -1.9239   -1.1942    1.1129 C   0  0  0  0  0  0  0  0  0  0  0  0
   -1.2971   -1.5568    2.0953 O   0  0  0  0  0  0  0  0  0  0  0  0
   -1.6652    0.0342    0.5306 N   0  0  0  0  0  0  0  0  0  0  0  0
   -2.2825    0.2472   -0.2466 H   0  0  0  0  0  0  0  0  0  0  0  0
   -0.3260    0.6631    0.4663 C   0  0  1  0  0  0  0  0  0  0  0  0
   -0.1606    1.0202   -0.5551 H   0  0  0  0  0  0  0  0  0  0  0  0
   -0.3398    1.8832    1.4097 C   0  0  0  0  0  0  0  0  0  0  0  0
   -0.6431    1.5587    2.4122 H   0  0  0  0  0  0  0  0  0  0  0  0
    0.6693    2.3040    1.4823 H   0  0  0  0  0  0  0  0  0  0  0  0
   -1.2835    2.9969    0.9079 C   0  0  0  0  0  0  0  0  0  0  0  0
   -0.9577    3.3309   -0.0810 H   0  0  0  0  0  0  0  0  0  0  0  0
   -2.2997    2.6063    0.8118 H   0  0  0  0  0  0  0  0  0  0  0  0
   -1.3422    4.2156    1.8299 C   0  0  0  0  0  0  0  0  0  0  0  0
   -0.7806    4.1903    2.9128 O   0  0  0  0  0  0  0  0  0  0  0  0
   -2.0368    5.2839    1.3770 O   0  0  0  0  0  0  0  0  0  0  0  0
   -1.9751    5.9549    2.0741 H   0  0  0  0  0  0  0  0  0  0  0  0
    0.8740   -0.2813    0.7609 C   0  0  0  0  0  0  0  0  0  0  0  0
    1.1366   -1.1441   -0.0687 O   0  0  0  0  0  0  0  0  0  0  0  0
    1.7599   -0.0675    1.8035 N   0  0  0  0  0  0  0  0  0  0  0  0
    1.4249    0.5297    2.5536 H   0  0  0  0  0  0  0  0  0  0  0  0
    2.8462   -0.9935    2.1008 C   0  0  0  0  0  0  0  0  0  0  0  0
    3.5265   -1.0753    1.2464 H   0  0  0  0  0  0  0  0  0  0  0  0
    3.4190   -0.6405    2.9635 H   0  0  0  0  0  0  0  0  0  0  0  0
    2.4483   -1.9877    2.3308 H   0  0  0  0  0  0  0  0  0  0  0  0
  1  2  1  0  0  0  0
  2  3  1  0  0  0  0
  2  4  1  0  0  0  0
  2  5  1  0  0  0  0
  5  6  2  0  0  0  0
  5  7  1  0  0  0  0
  7  8  1  0  0  0  0
  7  9  1  0  0  0  0
  9 10  1  0  0  0  0
  9 11  1  0  0  0  0
  9 21  1  0  0  0  0
 11 12  1  0  0  0  0
 11 13  1  0  0  0  0
 11 14  1  0  0  0  0
 14 15  1  0  0  0  0
 14 16  1  0  0  0  0
 14 17  1  0  0  0  0
 17 18  2  0  0  0  0
 17 19  1  0  0  0  0
 19 20  1  0  0  0  0
 21 22  2  0  0  0  0
 21 23  1  0  0  0  0
 23 24  1  0  0  0  0
 23 25  1  0  0  0  0
 25 26  1  0  0  0  0
 25 27  1  0  0  0  0
 25 28  1  0  0  0  0
M  END
$$$$

  -OEChem-01062216073D

 28 27  0     1  0  0  0  0  0999 V2000
   -3.2129   -2.9328    1.1873 H   0  0  0  0  0  0  0  0  0  0  0  0
   -3.1489   -1.9870    0.6419 C   0  0  0  0  0  0  0  0  0  0  0  0
   -4.0573   -1.4094    0.8289 H   0  0  0  0  0  0  0  0  0  0  0  0
   -3.0749   -2.2042   -0.4264 H   0  0  0  0  0  0  0  0  0  0  0  0
   -1.9317   -1.2041    1.0965 C   0  0  0  0  0  0  0  0  0  0  0  0
   -1.2856   -1.5989    2.0533 O   0  0  0  0  0  0  0  0  0  0  0  0
   -1.6593    0.0231    0.5192 N   0  0  0  0  0  0  0  0  0  0  0  0
   -2.2862    0.2606   -0.2431 H   0  0  0  0  0  0  0  0  0  0  0  0
   -0.3212    0.6541    0.4631 C   0  0  1  0  0  0  0  0  0  0  0  0
   -0.1547    1.0134   -0.5576 H   0  0  0  0  0  0  0  0  0  0  0  0
   -0.3366    1.8720    1.4084 C   0  0  0  0  0  0  0  0  0  0  0  0
   -0.6467    1.5481    2.4089 H   0  0  0  0  0  0  0  0  0  0  0  0
    0.6760    2.2841    1.4881 H   0  0  0  0  0  0  0  0  0  0  0  0
   -1.2772    2.9879    0.9054 C   0  0  0  0  0  0  0  0  0  0  0  0
   -0.9465    3.3233   -0.0813 H   0  0  0  0  0  0  0  0  0  0  0  0
   -2.2935    2.5988    0.8044 H   0  0  0  0  0  0  0  0  0  0  0  0
   -1.3390    4.2059    1.8283 C   0  0  0  0  0  0  0  0  0  0  0  0
   -0.7821    4.1797    2.9136 O   0  0  0  0  0  0  0  0  0  0  0  0
   -2.0343    5.2736    1.3750 O   0  0  0  0  0  0  0  0  0  0  0  0
   -1.9750    5.9440    2.0730 H   0  0  0  0  0  0  0  0  0  0  0  0
    0.8856   -0.2768    0.7638 C   0  0  0  0  0  0  0  0  0  0  0  0
    1.3013   -0.9870   -0.1436 O   0  0  0  0  0  0  0  0  0  0  0  0
    1.5772   -0.2370    1.9622 N   0  0  0  0  0  0  0  0  0  0  0  0
    1.0701    0.1740    2.7408 H   0  0  0  0  0  0  0  0  0  0  0  0
    2.6384   -1.1873    2.2713 C   0  0  0  0  0  0  0  0  0  0  0  0
    3.4439   -1.1183    1.5325 H   0  0  0  0  0  0  0  0  0  0  0  0
    3.0594   -0.9763    3.2588 H   0  0  0  0  0  0  0  0  0  0  0  0
    2.2464   -2.2100    2.2712 H   0  0  0  0  0  0  0  0  0  0  0  0
  1  2  1  0  0  0  0
  2  3  1  0  0  0  0
  2  4  1  0  0  0  0
  2  5  1  0  0  0  0
  5  6  2  0  0  0  0
  5  7  1  0  0  0  0
  7  8  1  0  0  0  0
  7  9  1  0  0  0  0
  9 10  1  0  0  0  0
  9 11  1  0  0  0  0
  9 21  1  0  0  0  0
 11 12  1  0  0  0  0
 11 13  1  0  0  0  0
 11 14  1  0  0  0  0
 14 15  1  0  0  0  0
 14 16  1  0  0  0  0
 14 17  1  0  0  0  0
 17 18  2  0  0  0  0
 17 19  1  0  0  0  0
 19 20  1  0  0  0  0
 21 22  2  0  0  0  0
 21 23  1  0  0  0  0
 23 24  1  0  0  0  0
 23 25  1  0  0  0  0
 25 26  1  0  0  0  0
 25 27  1  0  0  0  0
 25 28  1  0  0  0  0
M  END
$$$$

  -OEChem-01062216073D

 28 27  0     1  0  0  0  0  0999 V2000
   -3.3191   -2.8933    1.1773 H   0  0  0  0  0  0  0  0  0  0  0  0
   -3.2263   -1.9463    0.6381 C   0  0  0  0  0  0  0  0  0  0  0  0
   -4.1043   -1.3320    0.8516 H   0  0  0  0  0  0  0  0  0  0  0  0
   -3.1868   -2.1565   -0.4334 H   0  0  0  0  0  0  0  0  0  0  0  0
   -1.9665   -1.2206    1.0708 C   0  0  0  0  0  0  0  0  0  0  0  0
   -1.3112   -1.6604    2.0006 O   0  0  0  0  0  0  0  0  0  0  0  0
   -1.6591    0.0011    0.5005 N   0  0  0  0  0  0  0  0  0  0  0  0
   -2.2956    0.2798   -0.2402 H   0  0  0  0  0  0  0  0  0  0  0  0
   -0.3176    0.6269    0.4602 C   0  0  1  0  0  0  0  0  0  0  0  0
   -0.1448    0.9894   -0.5587 H   0  0  0  0  0  0  0  0  0  0  0  0
   -0.3347    1.8412    1.4094 C   0  0  0  0  0  0  0  0  0  0  0  0
   -0.6561    1.5168    2.4057 H   0  0  0  0  0  0  0  0  0  0  0  0
    0.6811    2.2431    1.5025 H   0  0  0  0  0  0  0  0  0  0  0  0
   -1.2645    2.9643    0.9021 C   0  0  0  0  0  0  0  0  0  0  0  0
   -0.9224    3.3012   -0.0803 H   0  0  0  0  0  0  0  0  0  0  0  0
   -2.2819    2.5814    0.7903 H   0  0  0  0  0  0  0  0  0  0  0  0
   -1.3281    4.1796    1.8284 C   0  0  0  0  0  0  0  0  0  0  0  0
   -0.7816    4.1476    2.9187 O   0  0  0  0  0  0  0  0  0  0  0  0
   -2.0136    5.2521    1.3714 O   0  0  0  0  0  0  0  0  0  0  0  0
   -1.9539    5.9215    2.0705 H   0  0  0  0  0  0  0  0  0  0  0  0
    0.8985   -0.2858    0.7756 C   0  0  0  0  0  0  0  0  0  0  0  0
    1.5071   -0.7832   -0.1635 O   0  0  0  0  0  0  0  0  0  0  0  0
    1.3813   -0.4496    2.0618 N   0  0  0  0  0  0  0  0  0  0  0  0
    0.6882   -0.2878    2.7889 H   0  0  0  0  0  0  0  0  0  0  0  0
    2.4621   -1.3795    2.3645 C   0  0  0  0  0  0  0  0  0  0  0  0
    3.3655   -1.1153    1.8048 H   0  0  0  0  0  0  0  0  0  0  0  0
    2.6985   -1.3483    3.4323 H   0  0  0  0  0  0  0  0  0  0  0  0
    2.1707   -2.4020    2.1018 H   0  0  0  0  0  0  0  0  0  0  0  0
  1  2  1  0  0  0  0
  2  3  1  0  0  0  0
  2  4  1  0  0  0  0
  2  5  1  0  0  0  0
  5  6  2  0  0  0  0
  5  7  1  0  0  0  0
  7  8  1  0  0  0  0
  7  9  1  0  0  0  0
  9 10  1  0  0  0  0
  9 11  1  0  0  0  0
  9 21  1  0  0  0  0
 11 12  1  0  0  0  0
 11 13  1  0  0  0  0
 11 14  1  0  0  0  0
 14 15  1  0  0  0  0
 14 16  1  0  0  0  0
 14 17  1  0  0  0  0
 17 18  2  0  0  0  0
 17 19  1  0  0  0  0
 19 20  1  0  0  0  0
 21 22  2  0  0  0  0
 21 23  1  0  0  0  0
 23 24  1  0  0  0  0
 23 25  1  0  0  0  0
 25 26  1  0  0  0  0
 25 27  1  0  0  0  0
 25 28  1  0  0  0  0
M  END
$$$$

  -OEChem-01062216073D

 28 27  0     1  0  0  0  0  0999 V2000
   -3.4629   -2.8577    1.0897 H   0  0  0  0  0  0  0  0  0  0  0  0
   -3.3534   -1.8746    0.6229 C   0  0  0  0  0  0  0  0  0  0  0  0
   -4.1863   -1.2408    0.9371 H   0  0  0  0  0  0  0  0  0  0  0  0
   -3.3860   -1.9980   -0.4623 H   0  0  0  0  0  0  0  0  0  0  0  0
   -2.0369   -1.2436    1.0351 C   0  0  0  0  0  0  0  0  0  0  0  0
   -1.3875   -1.7524    1.9321 O   0  0  0  0  0  0  0  0  0  0  0  0
   -1.6689   -0.0335    0.4770 N   0  0  0  0  0  0  0  0  0  0  0  0
   -2.3140    0.3058   -0.2300 H   0  0  0  0  0  0  0  0  0  0  0  0
   -0.3185    0.5777    0.4561 C   0  0  1  0  0  0  0  0  0  0  0  0
   -0.1376    0.9427   -0.5608 H   0  0  0  0  0  0  0  0  0  0  0  0
   -0.3361    1.7874    1.4103 C   0  0  0  0  0  0  0  0  0  0  0  0
   -0.6716    1.4609    2.4017 H   0  0  0  0  0  0  0  0  0  0  0  0
    0.6828    2.1779    1.5187 H   0  0  0  0  0  0  0  0  0  0  0  0
   -1.2473    2.9226    0.8963 C   0  0  0  0  0  0  0  0  0  0  0  0
   -0.8878    3.2606   -0.0796 H   0  0  0  0  0  0  0  0  0  0  0  0
   -2.2669    2.5515    0.7685 H   0  0  0  0  0  0  0  0  0  0  0  0
   -1.3112    4.1342    1.8270 C   0  0  0  0  0  0  0  0  0  0  0  0
   -0.7805    4.0929    2.9245 O   0  0  0  0  0  0  0  0  0  0  0  0
   -1.9821    5.2140    1.3659 O   0  0  0  0  0  0  0  0  0  0  0  0
   -1.9255    5.8795    2.0689 H   0  0  0  0  0  0  0  0  0  0  0  0
    0.9104   -0.3112    0.7895 C   0  0  0  0  0  0  0  0  0  0  0  0
    1.7144   -0.5462   -0.1038 O   0  0  0  0  0  0  0  0  0  0  0  0
    1.2041   -0.7042    2.0818 N   0  0  0  0  0  0  0  0  0  0  0  0
    0.3763   -0.8007    2.6709 H   0  0  0  0  0  0  0  0  0  0  0  0
    2.3445   -1.5576    2.3905 C   0  0  0  0  0  0  0  0  0  0  0  0
    3.2769   -1.0886    2.0587 H   0  0  0  0  0  0  0  0  0  0  0  0
    2.4093   -1.7229    3.4702 H   0  0  0  0  0  0  0  0  0  0  0  0
    2.2416   -2.5282    1.8942 H   0  0  0  0  0  0  0  0  0  0  0  0
  1  2  1  0  0  0  0
  2  3  1  0  0  0  0
  2  4  1  0  0  0  0
  2  5  1  0  0  0  0
  5  6  2  0  0  0  0
  5  7  1  0  0  0  0
  7  8  1  0  0  0  0
  7  9  1  0  0  0  0
  9 10  1  0  0  0  0
  9 11  1  0  0  0  0
  9 21  1  0  0  0  0
 11 12  1  0  0  0  0
 11 13  1  0  0  0  0
 11 14  1  0  0  0  0
 14 15  1  0  0  0  0
 14 16  1  0  0  0  0
 14 17  1  0  0  0  0
 17 18  2  0  0  0  0
 17 19  1  0  0  0  0
 19 20  1  0  0  0  0
 21 22  2  0  0  0  0
 21 23  1  0  0  0  0
 23 24  1  0  0  0  0
 23 25  1  0  0  0  0
 25 26  1  0  0  0  0
 25 27  1  0  0  0  0
 25 28  1  0  0  0  0
M  END
$$$$

  -OEChem-01062216073D

 28 27  0     1  0  0  0  0  0999 V2000
   -3.6506   -2.7652    1.0625 H   0  0  0  0  0  0  0  0  0  0  0  0
   -3.4769   -1.7863    0.6066 C   0  0  0  0  0  0  0  0  0  0  0  0
   -4.2527   -1.0963    0.9478 H   0  0  0  0  0  0  0  0  0  0  0  0
   -3.5418   -1.8902   -0.4793 H   0  0  0  0  0  0  0  0  0  0  0  0
   -2.1082   -1.2622    0.9982 C   0  0  0  0  0  0  0  0  0  0  0  0
   -1.4712   -1.8558    1.8491 O   0  0  0  0  0  0  0  0  0  0  0  0
   -1.6757   -0.0662    0.4560 N   0  0  0  0  0  0  0  0  0  0  0  0
   -2.3287    0.3390   -0.2078 H   0  0  0  0  0  0  0  0  0  0  0  0
   -0.3169    0.5324    0.4524 C   0  0  1  0  0  0  0  0  0  0  0  0
   -0.1300    0.8994   -0.5624 H   0  0  0  0  0  0  0  0  0  0  0  0
   -0.3448    1.7376    1.4120 C   0  0  0  0  0  0  0  0  0  0  0  0
   -0.6926    1.4064    2.3974 H   0  0  0  0  0  0  0  0  0  0  0  0
    0.6737    2.1251    1.5365 H   0  0  0  0  0  0  0  0  0  0  0  0
   -1.2428    2.8805    0.8908 C   0  0  0  0  0  0  0  0  0  0  0  0
   -0.8652    3.2225   -0.0768 H   0  0  0  0  0  0  0  0  0  0  0  0
   -2.2624    2.5161    0.7440 H   0  0  0  0  0  0  0  0  0  0  0  0
   -1.3157    4.0873    1.8277 C   0  0  0  0  0  0  0  0  0  0  0  0
   -0.8026    4.0380    2.9331 O   0  0  0  0  0  0  0  0  0  0  0  0
   -1.9770    5.1717    1.3632 O   0  0  0  0  0  0  0  0  0  0  0  0
   -1.9264    5.8337    2.0699 H   0  0  0  0  0  0  0  0  0  0  0  0
    0.9335   -0.3225    0.8004 C   0  0  0  0  0  0  0  0  0  0  0  0
    1.8681   -0.3170    0.0092 O   0  0  0  0  0  0  0  0  0  0  0  0
    1.0985   -0.9581    2.0155 N   0  0  0  0  0  0  0  0  0  0  0  0
    0.2191   -1.1899    2.4830 H   0  0  0  0  0  0  0  0  0  0  0  0
    2.2612   -1.7825    2.3182 C   0  0  0  0  0  0  0  0  0  0  0  0
    3.1816   -1.1954    2.2311 H   0  0  0  0  0  0  0  0  0  0  0  0
    2.1945   -2.1660    3.3408 H   0  0  0  0  0  0  0  0  0  0  0  0
    2.3180   -2.6319    1.6298 H   0  0  0  0  0  0  0  0  0  0  0  0
  1  2  1  0  0  0  0
  2  3  1  0  0  0  0
  2  4  1  0  0  0  0
  2  5  1  0  0  0  0
  5  6  2  0  0  0  0
  5  7  1  0  0  0  0
  7  8  1  0  0  0  0
  7  9  1  0  0  0  0
  9 10  1  0  0  0  0
  9 11  1  0  0  0  0
  9 21  1  0  0  0  0
 11 12  1  0  0  0  0
 11 13  1  0  0  0  0
 11 14  1  0  0  0  0
 14 15  1  0  0  0  0
 14 16  1  0  0  0  0
 14 17  1  0  0  0  0
 17 18  2  0  0  0  0
 17 19  1  0  0  0  0
 19 20  1  0  0  0  0
 21 22  2  0  0  0  0
 21 23  1  0  0  0  0
 23 24  1  0  0  0  0
 23 25  1  0  0  0  0
 25 26  1  0  0  0  0
 25 27  1  0  0  0  0
 25 28  1  0  0  0  0
M  END
$$$$

  -OEChem-01062216073D

 28 27  0     1  0  0  0  0  0999 V2000
   -3.8179   -2.6734    1.0322 H   0  0  0  0  0  0  0  0  0  0  0  0
   -3.5880   -1.6974    0.5949 C   0  0  0  0  0  0  0  0  0  0  0  0
   -4.3095   -0.9662    0.9677 H   0  0  0  0  0  0  0  0  0  0  0  0
   -3.6807   -1.7712   -0.4915 H   0  0  0  0  0  0  0  0  0  0  0  0
   -2.1801   -1.2735    0.9694 C   0  0  0  0  0  0  0  0  0  0  0  0
   -1.5627   -1.9453    1.7740 O   0  0  0  0  0  0  0  0  0  0  0  0
   -1.6907   -0.0902    0.4471 N   0  0  0  0  0  0  0  0  0  0  0  0
   -2.3474    0.3754   -0.1720 H   0  0  0  0  0  0  0  0  0  0  0  0
   -0.3225    0.4916    0.4574 C   0  0  1  0  0  0  0  0  0  0  0  0
   -0.1308    0.8592   -0.5566 H   0  0  0  0  0  0  0  0  0  0  0  0
   -0.3584    1.6959    1.4184 C   0  0  0  0  0  0  0  0  0  0  0  0
   -0.7217    1.3644    2.3982 H   0  0  0  0  0  0  0  0  0  0  0  0
    0.6593    2.0795    1.5594 H   0  0  0  0  0  0  0  0  0  0  0  0
   -1.2414    2.8450    0.8842 C   0  0  0  0  0  0  0  0  0  0  0  0
   -0.8463    3.1851   -0.0770 H   0  0  0  0  0  0  0  0  0  0  0  0
   -2.2606    2.4876    0.7205 H   0  0  0  0  0  0  0  0  0  0  0  0
   -1.3232    4.0520    1.8198 C   0  0  0  0  0  0  0  0  0  0  0  0
   -0.8288    4.0005    2.9336 O   0  0  0  0  0  0  0  0  0  0  0  0
   -1.9719    5.1391    1.3442 O   0  0  0  0  0  0  0  0  0  0  0  0
   -1.9278    5.8020    2.0505 H   0  0  0  0  0  0  0  0  0  0  0  0
    0.9454   -0.3394    0.8092 C   0  0  0  0  0  0  0  0  0  0  0  0
    1.9555   -0.1270    0.1500 O   0  0  0  0  0  0  0  0  0  0  0  0
    1.0398   -1.2145    1.8722 N   0  0  0  0  0  0  0  0  0  0  0  0
    0.1461   -1.5216    2.2631 H   0  0  0  0  0  0  0  0  0  0  0  0
    2.2250   -2.0162    2.1479 C   0  0  0  0  0  0  0  0  0  0  0  0
    3.0976   -1.3722    2.2992 H   0  0  0  0  0  0  0  0  0  0  0  0
    2.0745   -2.6095    3.0549 H   0  0  0  0  0  0  0  0  0  0  0  0
    2.4290   -2.6976    1.3155 H   0  0  0  0  0  0  0  0  0  0  0  0
  1  2  1  0  0  0  0
  2  3  1  0  0  0  0
  2  4  1  0  0  0  0
  2  5  1  0  0  0  0
  5  6  2  0  0  0  0
  5  7  1  0  0  0  0
  7  8  1  0  0  0  0
  7  9  1  0  0  0  0
  9 10  1  0  0  0  0
  9 11  1  0  0  0  0
  9 21  1  0  0  0  0
 11 12  1  0  0  0  0
 11 13  1  0  0  0  0
 11 14  1  0  0  0  0
 14 15  1  0  0  0  0
 14 16  1  0  0  0  0
 14 17  1  0  0  0  0
 17 18  2  0  0  0  0
 17 19  1  0  0  0  0
 19 20  1  0  0  0  0
 21 22  2  0  0  0  0
 21 23  1  0  0  0  0
 23 24  1  0  0  0  0
 23 25  1  0  0  0  0
 25 26  1  0  0  0  0
 25 27  1  0  0  0  0
 25 28  1  0  0  0  0
M  END
$$$$

  -OEChem-01062216073D

 28 27  0     1  0  0  0  0  0999 V2000
   -3.9258   -2.6187    1.1729 H   0  0  0  0  0  0  0  0  0  0  0  0
   -3.6782   -1.6596    0.7089 C   0  0  0  0  0  0  0  0  0  0  0  0
   -4.3659   -0.8990    1.0865 H   0  0  0  0  0  0  0  0  0  0  0  0
   -3.8041   -1.7521   -0.3726 H   0  0  0  0  0  0  0  0  0  0  0  0
   -2.2474   -1.2733    1.0346 C   0  0  0  0  0  0  0  0  0  0  0  0
   -1.6274   -1.9577    1.8258 O   0  0  0  0  0  0  0  0  0  0  0  0
   -1.7428   -0.1085    0.4854 N   0  0  0  0  0  0  0  0  0  0  0  0
   -2.4138    0.3715   -0.1068 H   0  0  0  0  0  0  0  0  0  0  0  0
   -0.3646    0.4513    0.4364 C   0  0  1  0  0  0  0  0  0  0  0  0
   -0.2105    0.8046   -0.5887 H   0  0  0  0  0  0  0  0  0  0  0  0
   -0.3620    1.6694    1.3832 C   0  0  0  0  0  0  0  0  0  0  0  0
   -0.6968    1.3529    2.3778 H   0  0  0  0  0  0  0  0  0  0  0  0
    0.6618    2.0486    1.4897 H   0  0  0  0  0  0  0  0  0  0  0  0
   -1.2514    2.8204    0.8623 C   0  0  0  0  0  0  0  0  0  0  0  0
   -0.8819    3.1462   -0.1141 H   0  0  0  0  0  0  0  0  0  0  0  0
   -2.2783    2.4711    0.7335 H   0  0  0  0  0  0  0  0  0  0  0  0
   -1.2941    4.0389    1.7855 C   0  0  0  0  0  0  0  0  0  0  0  0
   -0.7666    3.9964    2.8843 O   0  0  0  0  0  0  0  0  0  0  0  0
   -1.9476    5.1261    1.3165 O   0  0  0  0  0  0  0  0  0  0  0  0
   -1.8754    5.7974    2.0126 H   0  0  0  0  0  0  0  0  0  0  0  0
    0.9236   -0.3704    0.7436 C   0  0  0  0  0  0  0  0  0  0  0  0
    1.9541   -0.0089    0.1888 O   0  0  0  0  0  0  0  0  0  0  0  0
    1.0153   -1.4394    1.6103 N   0  0  0  0  0  0  0  0  0  0  0  0
    0.1367   -1.7814    2.0044 H   0  0  0  0  0  0  0  0  0  0  0  0
    2.2349   -2.2013    1.8458 C   0  0  0  0  0  0  0  0  0  0  0  0
    3.0238   -1.5508    2.2374 H   0  0  0  0  0  0  0  0  0  0  0  0
    2.0475   -2.9943    2.5762 H   0  0  0  0  0  0  0  0  0  0  0  0
    2.5851   -2.6617    0.9162 H   0  0  0  0  0  0  0  0  0  0  0  0
  1  2  1  0  0  0  0
  2  3  1  0  0  0  0
  2  4  1  0  0  0  0
  2  5  1  0  0  0  0
  5  6  2  0  0  0  0
  5  7  1  0  0  0  0
  7  8  1  0  0  0  0
  7  9  1  0  0  0  0
  9 10  1  0  0  0  0
  9 11  1  0  0  0  0
  9 21  1  0  0  0  0
 11 12  1  0  0  0  0
 11 13  1  0  0  0  0
 11 14  1  0  0  0  0
 14 15  1  0  0  0  0
 14 16  1  0  0  0  0
 14 17  1  0  0  0  0
 17 18  2  0  0  0  0
 17 19  1  0  0  0  0
 19 20  1  0  0  0  0
 21 22  2  0  0  0  0
 21 23  1  0  0  0  0
 23 24  1  0  0  0  0
 23 25  1  0  0  0  0
 25 26  1  0  0  0  0
 25 27  1  0  0  0  0
 25 28  1  0  0  0  0
M  END
$$$$

  -OEChem-01062216073D

 28 27  0     1  0  0  0  0  0999 V2000
   -3.2232   -2.9573    1.4475 H   0  0  0  0  0  0  0  0  0  0  0  0
   -3.0674   -2.0727    0.8230 C   0  0  0  0  0  0  0  0  0  0  0  0
   -3.9484   -1.4307    0.8983 H   0  0  0  0  0  0  0  0  0  0  0  0
   -2.9444   -2.3931   -0.2143 H   0  0  0  0  0  0  0  0  0  0  0  0
   -1.8340   -1.3185    1.2832 C   0  0  0  0  0  0  0  0  0  0  0  0
   -1.2644   -1.6819    2.2931 O   0  0  0  0  0  0  0  0  0  0  0  0
   -1.5098   -0.1308    0.6599 N   0  0  0  0  0  0  0  0  0  0  0  0
   -2.1766    0.1294   -0.0598 H   0  0  0  0  0  0  0  0  0  0  0  0
   -0.2093    0.5835    0.5782 C   0  0  1  0  0  0  0  0  0  0  0  0
   -0.0949    0.9099   -0.4599 H   0  0  0  0  0  0  0  0  0  0  0  0
   -0.3963    1.8316    1.4746 C   0  0  0  0  0  0  0  0  0  0  0  0
   -0.7037    1.5079    2.4759 H   0  0  0  0  0  0  0  0  0  0  0  0
    0.5556    2.3632    1.5862 H   0  0  0  0  0  0  0  0  0  0  0  0
   -1.4281    2.8265    0.8967 C   0  0  0  0  0  0  0  0  0  0  0  0
   -1.0910    3.1618   -0.0878 H   0  0  0  0  0  0  0  0  0  0  0  0
   -2.3949    2.3338    0.7718 H   0  0  0  0  0  0  0  0  0  0  0  0
   -1.6552    4.0618    1.7694 C   0  0  0  0  0  0  0  0  0  0  0  0
   -1.1467    4.1376    2.8753 O   0  0  0  0  0  0  0  0  0  0  0  0
   -2.4411    5.0303    1.2461 O   0  0  0  0  0  0  0  0  0  0  0  0
   -2.4742    5.7299    1.9167 H   0  0  0  0  0  0  0  0  0  0  0  0
    1.1841   -0.0472    0.9153 C   0  0  0  0  0  0  0  0  0  0  0  0
    2.1813    0.6368    0.7400 O   0  0  0  0  0  0  0  0  0  0  0  0
    1.5163   -1.2030    1.5786 N   0  0  0  0  0  0  0  0  0  0  0  0
    2.4625   -1.1249    1.9411 H   0  0  0  0  0  0  0  0  0  0  0  0
    1.2210   -2.4986    0.9791 C   0  0  0  0  0  0  0  0  0  0  0  0
    0.8571   -3.1929    1.7433 H   0  0  0  0  0  0  0  0  0  0  0  0
    0.4646   -2.4170    0.1926 H   0  0  0  0  0  0  0  0  0  0  0  0
    2.1281   -2.9178    0.5325 H   0  0  0  0  0  0  0  0  0  0  0  0
  1  2  1  0  0  0  0
  2  3  1  0  0  0  0
  2  4  1  0  0  0  0
  2  5  1  0  0  0  0
  5  6  2  0  0  0  0
  5  7  1  0  0  0  0
  7  8  1  0  0  0  0
  7  9  1  0  0  0  0
  9 10  1  0  0  0  0
  9 11  1  0  0  0  0
  9 21  1  0  0  0  0
 11 12  1  0  0  0  0
 11 13  1  0  0  0  0
 11 14  1  0  0  0  0
 14 15  1  0  0  0  0
 14 16  1  0  0  0  0
 14 17  1  0  0  0  0
 17 18  2  0  0  0  0
 17 19  1  0  0  0  0
 19 20  1  0  0  0  0
 21 22  2  0  0  0  0
 21 23  1  0  0  0  0
 23 24  1  0  0  0  0
 23 25  1  0  0  0  0
 25 26  1  0  0  0  0
 25 27  1  0  0  0  0
 25 28  1  0  0  0  0
M  END
$$$$

  -OEChem-01062216073D

 28 27  0     1  0  0  0  0  0999 V2000
   -3.4479   -2.9691    1.4371 H   0  0  0  0  0  0  0  0  0  0  0  0
   -3.4040   -2.0125    0.9085 C   0  0  0  0  0  0  0  0  0  0  0  0
   -4.2028   -1.3675    1.2822 H   0  0  0  0  0  0  0  0  0  0  0  0
   -3.5584   -2.1946   -0.1577 H   0  0  0  0  0  0  0  0  0  0  0  0
   -2.0560   -1.3533    1.1322 C   0  0  0  0  0  0  0  0  0  0  0  0
   -1.2996   -1.8292    1.9547 O   0  0  0  0  0  0  0  0  0  0  0  0
   -1.8202   -0.1156    0.5696 N   0  0  0  0  0  0  0  0  0  0  0  0
   -2.6239    0.2309    0.0556 H   0  0  0  0  0  0  0  0  0  0  0  0
   -0.5343    0.5061    0.1626 C   0  0  1  0  0  0  0  0  0  0  0  0
   -0.7034    0.9624   -0.8182 H   0  0  0  0  0  0  0  0  0  0  0  0
   -0.2639    1.6254    1.1899 C   0  0  0  0  0  0  0  0  0  0  0  0
   -0.2783    1.1964    2.1988 H   0  0  0  0  0  0  0  0  0  0  0  0
    0.7369    2.0427    1.0263 H   0  0  0  0  0  0  0  0  0  0  0  0
   -1.2884    2.7768    1.0883 C   0  0  0  0  0  0  0  0  0  0  0  0
   -1.2424    3.2131    0.0868 H   0  0  0  0  0  0  0  0  0  0  0  0
   -2.2989    2.3903    1.2409 H   0  0  0  0  0  0  0  0  0  0  0  0
   -1.0670    3.8957    2.1071 C   0  0  0  0  0  0  0  0  0  0  0  0
   -0.2285    3.7718    2.9843 O   0  0  0  0  0  0  0  0  0  0  0  0
   -1.8463    4.9934    1.9741 O   0  0  0  0  0  0  0  0  0  0  0  0
   -1.5788    5.5929    2.6876 H   0  0  0  0  0  0  0  0  0  0  0  0
    0.8012   -0.2827   -0.0117 C   0  0  0  0  0  0  0  0  0  0  0  0
    1.6373    0.2079   -0.7550 O   0  0  0  0  0  0  0  0  0  0  0  0
    1.0483   -1.6215    0.1641 N   0  0  0  0  0  0  0  0  0  0  0  0
    1.6730   -1.9304   -0.5756 H   0  0  0  0  0  0  0  0  0  0  0  0
    1.5243   -2.0367    1.4796 C   0  0  0  0  0  0  0  0  0  0  0  0
    1.2141   -1.3344    2.2612 H   0  0  0  0  0  0  0  0  0  0  0  0
    1.1281   -3.0262    1.7290 H   0  0  0  0  0  0  0  0  0  0  0  0
    2.6177   -2.0868    1.4845 H   0  0  0  0  0  0  0  0  0  0  0  0
  1  2  1  0  0  0  0
  2  3  1  0  0  0  0
  2  4  1  0  0  0  0
  2  5  1  0  0  0  0
  5  6  2  0  0  0  0
  5  7  1  0  0  0  0
  7  8  1  0  0  0  0
  7  9  1  0  0  0  0
  9 10  1  0  0  0  0
  9 11  1  0  0  0  0
  9 21  1  0  0  0  0
 11 12  1  0  0  0  0
 11 13  1  0  0  0  0
 11 14  1  0  0  0  0
 14 15  1  0  0  0  0
 14 16  1  0  0  0  0
 14 17  1  0  0  0  0
 17 18  2  0  0  0  0
 17 19  1  0  0  0  0
 19 20  1  0  0  0  0
 21 22  2  0  0  0  0
 21 23  1  0  0  0  0
 23 24  1  0  0  0  0
 23 25  1  0  0  0  0
 25 26  1  0  0  0  0
 25 27  1  0  0  0  0
 25 28  1  0  0  0  0
M  END
$$$$

  -OEChem-01062216073D

 28 27  0     1  0  0  0  0  0999 V2000
   -3.8913   -2.5837    1.1257 H   0  0  0  0  0  0  0  0  0  0  0  0
   -3.6476   -1.6169    0.6757 C   0  0  0  0  0  0  0  0  0  0  0  0
   -4.2997   -0.8544    1.1087 H   0  0  0  0  0  0  0  0  0  0  0  0
   -3.8297   -1.6757   -0.4002 H   0  0  0  0  0  0  0  0  0  0  0  0
   -2.1950   -1.2671    0.9391 C   0  0  0  0  0  0  0  0  0  0  0  0
   -1.5332   -2.0089    1.6403 O   0  0  0  0  0  0  0  0  0  0  0  0
   -1.7009   -0.0795    0.4323 N   0  0  0  0  0  0  0  0  0  0  0  0
   -2.3924    0.4545   -0.0852 H   0  0  0  0  0  0  0  0  0  0  0  0
   -0.3205    0.4757    0.3888 C   0  0  1  0  0  0  0  0  0  0  0  0
   -0.1643    0.8643   -0.6222 H   0  0  0  0  0  0  0  0  0  0  0  0
   -0.3408    1.6654    1.3805 C   0  0  0  0  0  0  0  0  0  0  0  0
   -0.6778    1.3095    2.3611 H   0  0  0  0  0  0  0  0  0  0  0  0
    0.6708    2.0656    1.5140 H   0  0  0  0  0  0  0  0  0  0  0  0
   -1.2426    2.8221    0.8922 C   0  0  0  0  0  0  0  0  0  0  0  0
   -0.8698    3.1855   -0.0695 H   0  0  0  0  0  0  0  0  0  0  0  0
   -2.2644    2.4659    0.7441 H   0  0  0  0  0  0  0  0  0  0  0  0
   -1.3094    4.0087    1.8548 C   0  0  0  0  0  0  0  0  0  0  0  0
   -0.7901    3.9388    2.9558 O   0  0  0  0  0  0  0  0  0  0  0  0
   -1.9751    5.1010    1.4155 O   0  0  0  0  0  0  0  0  0  0  0  0
   -1.9157    5.7505    2.1330 H   0  0  0  0  0  0  0  0  0  0  0  0
    0.9562   -0.3886    0.6445 C   0  0  0  0  0  0  0  0  0  0  0  0
    2.0421    0.1789    0.6654 O   0  0  0  0  0  0  0  0  0  0  0  0
    0.9782   -1.7696    0.6404 N   0  0  0  0  0  0  0  0  0  0  0  0
    0.0816   -2.2101    0.8504 H   0  0  0  0  0  0  0  0  0  0  0  0
    2.1859   -2.5471    0.8897 C   0  0  0  0  0  0  0  0  0  0  0  0
    2.5967   -2.3120    1.8770 H   0  0  0  0  0  0  0  0  0  0  0  0
    1.9587   -3.6167    0.8537 H   0  0  0  0  0  0  0  0  0  0  0  0
    2.9454   -2.3314    0.1309 H   0  0  0  0  0  0  0  0  0  0  0  0
  1  2  1  0  0  0  0
  2  3  1  0  0  0  0
  2  4  1  0  0  0  0
  2  5  1  0  0  0  0
  5  6  2  0  0  0  0
  5  7  1  0  0  0  0
  7  8  1  0  0  0  0
  7  9  1  0  0  0  0
  9 10  1  0  0  0  0
  9 11  1  0  0  0  0
  9 21  1  0  0  0  0
 11 12  1  0  0  0  0
 11 13  1  0  0  0  0
 11 14  1  0  0  0  0
 14 15  1  0  0  0  0
 14 16  1  0  0  0  0
 14 17  1  0  0  0  0
 17 18  2  0  0  0  0
 17 19  1  0  0  0  0
 19 20  1  0  0  0  0
 21 22  2  0  0  0  0
 21 23  1  0  0  0  0
 23 24  1  0  0  0  0
 23 25  1  0  0  0  0
 25 26  1  0  0  0  0
 25 27  1  0  0  0  0
 25 28  1  0  0  0  0
M  END
$$$$

  -OEChem-01062216073D

 28 27  0     1  0  0  0  0  0999 V2000
   -3.8014   -2.6077    1.1788 H   0  0  0  0  0  0  0  0  0  0  0  0
   -3.5846   -1.6329    0.7321 C   0  0  0  0  0  0  0  0  0  0  0  0
   -4.2107   -0.8794    1.2163 H   0  0  0  0  0  0  0  0  0  0  0  0
   -3.8297   -1.6729   -0.3319 H   0  0  0  0  0  0  0  0  0  0  0  0
   -2.1187   -1.2867    0.9156 C   0  0  0  0  0  0  0  0  0  0  0  0
   -1.4015   -2.0712    1.5071 O   0  0  0  0  0  0  0  0  0  0  0  0
   -1.6561   -0.0802    0.4224 N   0  0  0  0  0  0  0  0  0  0  0  0
   -2.3753    0.4818   -0.0229 H   0  0  0  0  0  0  0  0  0  0  0  0
   -0.2862    0.4996    0.3922 C   0  0  1  0  0  0  0  0  0  0  0  0
   -0.1241    0.8908   -0.6168 H   0  0  0  0  0  0  0  0  0  0  0  0
   -0.3295    1.6914    1.3816 C   0  0  0  0  0  0  0  0  0  0  0  0
   -0.6648    1.3327    2.3616 H   0  0  0  0  0  0  0  0  0  0  0  0
    0.6738    2.1102    1.5179 H   0  0  0  0  0  0  0  0  0  0  0  0
   -1.2448    2.8335    0.8845 C   0  0  0  0  0  0  0  0  0  0  0  0
   -0.8714    3.1999   -0.0758 H   0  0  0  0  0  0  0  0  0  0  0  0
   -2.2602    2.4622    0.7316 H   0  0  0  0  0  0  0  0  0  0  0  0
   -1.3349    4.0215    1.8436 C   0  0  0  0  0  0  0  0  0  0  0  0
   -0.8219    3.9623    2.9480 O   0  0  0  0  0  0  0  0  0  0  0  0
   -2.0148    5.1022    1.3972 O   0  0  0  0  0  0  0  0  0  0  0  0
   -1.9698    5.7546    2.1133 H   0  0  0  0  0  0  0  0  0  0  0  0
    0.9811   -0.3784    0.6486 C   0  0  0  0  0  0  0  0  0  0  0  0
    2.0445    0.1676    0.9183 O   0  0  0  0  0  0  0  0  0  0  0  0
    1.0310   -1.7215    0.3263 N   0  0  0  0  0  0  0  0  0  0  0  0
    0.1294   -2.1927    0.4092 H   0  0  0  0  0  0  0  0  0  0  0  0
    2.2249   -2.5336    0.5311 C   0  0  0  0  0  0  0  0  0  0  0  0
    2.5092   -2.5372    1.5886 H   0  0  0  0  0  0  0  0  0  0  0  0
    2.0364   -3.5648    0.2176 H   0  0  0  0  0  0  0  0  0  0  0  0
    3.0614   -2.1427   -0.0576 H   0  0  0  0  0  0  0  0  0  0  0  0
  1  2  1  0  0  0  0
  2  3  1  0  0  0  0
  2  4  1  0  0  0  0
  2  5  1  0  0  0  0
  5  6  2  0  0  0  0
  5  7  1  0  0  0  0
  7  8  1  0  0  0  0
  7  9  1  0  0  0  0
  9 10  1  0  0  0  0
  9 11  1  0  0  0  0
  9 21  1  0  0  0  0
 11 12  1  0  0  0  0
 11 13  1  0  0  0  0
 11 14  1  0  0  0  0
 14 15  1  0  0  0  0
 14 16  1  0  0  0  0
 14 17  1  0  0  0  0
 17 18  2  0  0  0  0
 17 19  1  0  0  0  0
 19 20  1  0  0  0  0
 21 22  2  0  0  0  0
 21 23  1  0  0  0  0
 23 24  1  0  0  0  0
 23 25  1  0  0  0  0
 25 26  1  0  0  0  0
 25 27  1  0  0  0  0
 25 28  1  0  0  0  0
M  END
$$$$

  -OEChem-01062216073D

 28 27  0     1  0  0  0  0  0999 V2000
   -3.7135   -2.6052    1.2510 H   0  0  0  0  0  0  0  0  0  0  0  0
   -3.5207   -1.6252    0.8046 C   0  0  0  0  0  0  0  0  0  0  0  0
   -4.0785   -0.8705    1.3645 H   0  0  0  0  0  0  0  0  0  0  0  0
   -3.8714   -1.6360   -0.2303 H   0  0  0  0  0  0  0  0  0  0  0  0
   -2.0366   -1.3124    0.8475 C   0  0  0  0  0  0  0  0  0  0  0  0
   -1.2705   -2.1554    1.2739 O   0  0  0  0  0  0  0  0  0  0  0  0
   -1.6052   -0.0856    0.3761 N   0  0  0  0  0  0  0  0  0  0  0  0
   -2.3545    0.5177    0.0514 H   0  0  0  0  0  0  0  0  0  0  0  0
   -0.2479    0.5201    0.3806 C   0  0  1  0  0  0  0  0  0  0  0  0
   -0.0660    0.9215   -0.6209 H   0  0  0  0  0  0  0  0  0  0  0  0
   -0.3259    1.7051    1.3753 C   0  0  0  0  0  0  0  0  0  0  0  0
   -0.6699    1.3365    2.3486 H   0  0  0  0  0  0  0  0  0  0  0  0
    0.6697    2.1370    1.5265 H   0  0  0  0  0  0  0  0  0  0  0  0
   -1.2484    2.8373    0.8688 C   0  0  0  0  0  0  0  0  0  0  0  0
   -0.8634    3.2151   -0.0825 H   0  0  0  0  0  0  0  0  0  0  0  0
   -2.2559    2.4536    0.6950 H   0  0  0  0  0  0  0  0  0  0  0  0
   -1.3718    4.0177    1.8339 C   0  0  0  0  0  0  0  0  0  0  0  0
   -0.8771    3.9579    2.9466 O   0  0  0  0  0  0  0  0  0  0  0  0
   -2.0592    5.0917    1.3837 O   0  0  0  0  0  0  0  0  0  0  0  0
   -2.0354    5.7390    2.1054 H   0  0  0  0  0  0  0  0  0  0  0  0
    1.0053   -0.3707    0.6542 C   0  0  0  0  0  0  0  0  0  0  0  0
    1.9905    0.0967    1.2137 O   0  0  0  0  0  0  0  0  0  0  0  0
    1.1452   -1.6002    0.0371 N   0  0  0  0  0  0  0  0  0  0  0  0
    0.2556   -2.0810   -0.0930 H   0  0  0  0  0  0  0  0  0  0  0  0
    2.3203   -2.4389    0.2434 C   0  0  0  0  0  0  0  0  0  0  0  0
    2.4267   -2.6950    1.3028 H   0  0  0  0  0  0  0  0  0  0  0  0
    2.2277   -3.3652   -0.3314 H   0  0  0  0  0  0  0  0  0  0  0  0
    3.2264   -1.9199   -0.0867 H   0  0  0  0  0  0  0  0  0  0  0  0
  1  2  1  0  0  0  0
  2  3  1  0  0  0  0
  2  4  1  0  0  0  0
  2  5  1  0  0  0  0
  5  6  2  0  0  0  0
  5  7  1  0  0  0  0
  7  8  1  0  0  0  0
  7  9  1  0  0  0  0
  9 10  1  0  0  0  0
  9 11  1  0  0  0  0
  9 21  1  0  0  0  0
 11 12  1  0  0  0  0
 11 13  1  0  0  0  0
 11 14  1  0  0  0  0
 14 15  1  0  0  0  0
 14 16  1  0  0  0  0
 14 17  1  0  0  0  0
 17 18  2  0  0  0  0
 17 19  1  0  0  0  0
 19 20  1  0  0  0  0
 21 22  2  0  0  0  0
 21 23  1  0  0  0  0
 23 24  1  0  0  0  0
 23 25  1  0  0  0  0
 25 26  1  0  0  0  0
 25 27  1  0  0  0  0
 25 28  1  0  0  0  0
M  END
$$$$

  -OEChem-01062216073D

 28 27  0     1  0  0  0  0  0999 V2000
   -3.5871   -2.6472    1.2836 H   0  0  0  0  0  0  0  0  0  0  0  0
   -3.4364   -1.6502    0.8597 C   0  0  0  0  0  0  0  0  0  0  0  0
   -3.9488   -0.9211    1.4920 H   0  0  0  0  0  0  0  0  0  0  0  0
   -3.8711   -1.6249   -0.1424 H   0  0  0  0  0  0  0  0  0  0  0  0
   -1.9552   -1.3293    0.7927 C   0  0  0  0  0  0  0  0  0  0  0  0
   -1.1521   -2.1913    1.0955 O   0  0  0  0  0  0  0  0  0  0  0  0
   -1.5672   -0.0830    0.3335 N   0  0  0  0  0  0  0  0  0  0  0  0
   -2.3408    0.5357    0.1123 H   0  0  0  0  0  0  0  0  0  0  0  0
   -0.2242    0.5485    0.3660 C   0  0  1  0  0  0  0  0  0  0  0  0
   -0.0285    0.9622   -0.6278 H   0  0  0  0  0  0  0  0  0  0  0  0
   -0.3218    1.7248    1.3670 C   0  0  0  0  0  0  0  0  0  0  0  0
   -0.6697    1.3470    2.3353 H   0  0  0  0  0  0  0  0  0  0  0  0
    0.6715    2.1603    1.5263 H   0  0  0  0  0  0  0  0  0  0  0  0
   -1.2517    2.8501    0.8590 C   0  0  0  0  0  0  0  0  0  0  0  0
   -0.8634    3.2371   -0.0872 H   0  0  0  0  0  0  0  0  0  0  0  0
   -2.2531    2.4558    0.6744 H   0  0  0  0  0  0  0  0  0  0  0  0
   -1.3968    4.0246    1.8284 C   0  0  0  0  0  0  0  0  0  0  0  0
   -0.9119    3.9653    2.9451 O   0  0  0  0  0  0  0  0  0  0  0  0
   -2.0915    5.0930    1.3763 O   0  0  0  0  0  0  0  0  0  0  0  0
   -2.0829    5.7370    2.1015 H   0  0  0  0  0  0  0  0  0  0  0  0
    1.0153   -0.3524    0.6536 C   0  0  0  0  0  0  0  0  0  0  0  0
    1.8590   -0.0293    1.4819 O   0  0  0  0  0  0  0  0  0  0  0  0
    1.3032   -1.4048   -0.1967 N   0  0  0  0  0  0  0  0  0  0  0  0
    0.4797   -1.8122   -0.6323 H   0  0  0  0  0  0  0  0  0  0  0  0
    2.4347   -2.2942    0.0390 C   0  0  0  0  0  0  0  0  0  0  0  0
    2.3350   -2.7902    1.0105 H   0  0  0  0  0  0  0  0  0  0  0  0
    2.4805   -3.0612   -0.7398 H   0  0  0  0  0  0  0  0  0  0  0  0
    3.3753   -1.7334    0.0245 H   0  0  0  0  0  0  0  0  0  0  0  0
  1  2  1  0  0  0  0
  2  3  1  0  0  0  0
  2  4  1  0  0  0  0
  2  5  1  0  0  0  0
  5  6  2  0  0  0  0
  5  7  1  0  0  0  0
  7  8  1  0  0  0  0
  7  9  1  0  0  0  0
  9 10  1  0  0  0  0
  9 11  1  0  0  0  0
  9 21  1  0  0  0  0
 11 12  1  0  0  0  0
 11 13  1  0  0  0  0
 11 14  1  0  0  0  0
 14 15  1  0  0  0  0
 14 16  1  0  0  0  0
 14 17  1  0  0  0  0
 17 18  2  0  0  0  0
 17 19  1  0  0  0  0
 19 20  1  0  0  0  0
 21 22  2  0  0  0  0
 21 23  1  0  0  0  0
 23 24  1  0  0  0  0
 23 25  1  0  0  0  0
 25 26  1  0  0  0  0
 25 27  1  0  0  0  0
 25 28  1  0  0  0  0
M  END
$$$$

  -OEChem-01062216073D

 28 27  0     1  0  0  0  0  0999 V2000
   -3.5081   -2.6726    1.3064 H   0  0  0  0  0  0  0  0  0  0  0  0
   -3.3832   -1.6666    0.8954 C   0  0  0  0  0  0  0  0  0  0  0  0
   -3.8614   -0.9520    1.5697 H   0  0  0  0  0  0  0  0  0  0  0  0
   -3.8722   -1.6220   -0.0808 H   0  0  0  0  0  0  0  0  0  0  0  0
   -1.9086   -1.3388    0.7541 C   0  0  0  0  0  0  0  0  0  0  0  0
   -1.0879   -2.2090    0.9777 O   0  0  0  0  0  0  0  0  0  0  0  0
   -1.5496   -0.0830    0.2957 N   0  0  0  0  0  0  0  0  0  0  0  0
   -2.3363    0.5383    0.1379 H   0  0  0  0  0  0  0  0  0  0  0  0
   -0.2161    0.5635    0.3499 C   0  0  1  0  0  0  0  0  0  0  0  0
   -0.0083    0.9858   -0.6378 H   0  0  0  0  0  0  0  0  0  0  0  0
   -0.3238    1.7322    1.3564 C   0  0  0  0  0  0  0  0  0  0  0  0
   -0.6779    1.3473    2.3198 H   0  0  0  0  0  0  0  0  0  0  0  0
    0.6704    2.1630    1.5247 H   0  0  0  0  0  0  0  0  0  0  0  0
   -1.2551    2.8573    0.8504 C   0  0  0  0  0  0  0  0  0  0  0  0
   -0.8636    3.2519   -0.0914 H   0  0  0  0  0  0  0  0  0  0  0  0
   -2.2538    2.4600    0.6578 H   0  0  0  0  0  0  0  0  0  0  0  0
   -1.4097    4.0251    1.8263 C   0  0  0  0  0  0  0  0  0  0  0  0
   -0.9304    3.9601    2.9450 O   0  0  0  0  0  0  0  0  0  0  0  0
   -2.1063    5.0939    1.3780 O   0  0  0  0  0  0  0  0  0  0  0  0
   -2.1040    5.7328    2.1078 H   0  0  0  0  0  0  0  0  0  0  0  0
    1.0135   -0.3398    0.6579 C   0  0  0  0  0  0  0  0  0  0  0  0
    1.6852   -0.1803    1.6708 O   0  0  0  0  0  0  0  0  0  0  0  0
    1.4963   -1.1779   -0.3312 N   0  0  0  0  0  0  0  0  0  0  0  0
    0.8092   -1.4525   -1.0265 H   0  0  0  0  0  0  0  0  0  0  0  0
    2.6078   -2.0901   -0.0885 C   0  0  0  0  0  0  0  0  0  0  0  0
    2.3586   -2.7890    0.7172 H   0  0  0  0  0  0  0  0  0  0  0  0
    2.8288   -2.6659   -0.9922 H   0  0  0  0  0  0  0  0  0  0  0  0
    3.5083   -1.5342    0.1932 H   0  0  0  0  0  0  0  0  0  0  0  0
  1  2  1  0  0  0  0
  2  3  1  0  0  0  0
  2  4  1  0  0  0  0
  2  5  1  0  0  0  0
  5  6  2  0  0  0  0
  5  7  1  0  0  0  0
  7  8  1  0  0  0  0
  7  9  1  0  0  0  0
  9 10  1  0  0  0  0
  9 11  1  0  0  0  0
  9 21  1  0  0  0  0
 11 12  1  0  0  0  0
 11 13  1  0  0  0  0
 11 14  1  0  0  0  0
 14 15  1  0  0  0  0
 14 16  1  0  0  0  0
 14 17  1  0  0  0  0
 17 18  2  0  0  0  0
 17 19  1  0  0  0  0
 19 20  1  0  0  0  0
 21 22  2  0  0  0  0
 21 23  1  0  0  0  0
 23 24  1  0  0  0  0
 23 25  1  0  0  0  0
 25 26  1  0  0  0  0
 25 27  1  0  0  0  0
 25 28  1  0  0  0  0
M  END
$$$$

  -OEChem-01062216073D

 28 27  0     1  0  0  0  0  0999 V2000
   -3.4863   -2.6844    1.3123 H   0  0  0  0  0  0  0  0  0  0  0  0
   -3.3723   -1.6685    0.9229 C   0  0  0  0  0  0  0  0  0  0  0  0
   -3.8126   -0.9692    1.6379 H   0  0  0  0  0  0  0  0  0  0  0  0
   -3.9054   -1.5938   -0.0279 H   0  0  0  0  0  0  0  0  0  0  0  0
   -1.9028   -1.3482    0.7213 C   0  0  0  0  0  0  0  0  0  0  0  0
   -1.0810   -2.2330    0.8732 O   0  0  0  0  0  0  0  0  0  0  0  0
   -1.5538   -0.0893    0.2627 N   0  0  0  0  0  0  0  0  0  0  0  0
   -2.3432    0.5384    0.1522 H   0  0  0  0  0  0  0  0  0  0  0  0
   -0.2229    0.5587    0.3344 C   0  0  1  0  0  0  0  0  0  0  0  0
   -0.0069    0.9862   -0.6490 H   0  0  0  0  0  0  0  0  0  0  0  0
   -0.3307    1.7219    1.3455 C   0  0  0  0  0  0  0  0  0  0  0  0
   -0.6932    1.3333    2.3045 H   0  0  0  0  0  0  0  0  0  0  0  0
    0.6667    2.1418    1.5226 H   0  0  0  0  0  0  0  0  0  0  0  0
   -1.2542    2.8541    0.8420 C   0  0  0  0  0  0  0  0  0  0  0  0
   -0.8568    3.2524   -0.0957 H   0  0  0  0  0  0  0  0  0  0  0  0
   -2.2538    2.4621    0.6429 H   0  0  0  0  0  0  0  0  0  0  0  0
   -1.4079    4.0170    1.8240 C   0  0  0  0  0  0  0  0  0  0  0  0
   -0.9342    3.9434    2.9446 O   0  0  0  0  0  0  0  0  0  0  0  0
   -2.0952    5.0924    1.3772 O   0  0  0  0  0  0  0  0  0  0  0  0
   -2.0947    5.7272    2.1106 H   0  0  0  0  0  0  0  0  0  0  0  0
    1.0019   -0.3432    0.6599 C   0  0  0  0  0  0  0  0  0  0  0  0
    1.5006   -0.3492    1.7797 O   0  0  0  0  0  0  0  0  0  0  0  0
    1.6964   -0.9430   -0.3758 N   0  0  0  0  0  0  0  0  0  0  0  0
    1.1752   -1.0700   -1.2374 H   0  0  0  0  0  0  0  0  0  0  0  0
    2.8357   -1.8204   -0.1334 C   0  0  0  0  0  0  0  0  0  0  0  0
    2.5340   -2.6774    0.4786 H   0  0  0  0  0  0  0  0  0  0  0  0
    3.2354   -2.1933   -1.0810 H   0  0  0  0  0  0  0  0  0  0  0  0
    3.6337   -1.2801    0.3870 H   0  0  0  0  0  0  0  0  0  0  0  0
  1  2  1  0  0  0  0
  2  3  1  0  0  0  0
  2  4  1  0  0  0  0
  2  5  1  0  0  0  0
  5  6  2  0  0  0  0
  5  7  1  0  0  0  0
  7  8  1  0  0  0  0
  7  9  1  0  0  0  0
  9 10  1  0  0  0  0
  9 11  1  0  0  0  0
  9 21  1  0  0  0  0
 11 12  1  0  0  0  0
 11 13  1  0  0  0  0
 11 14  1  0  0  0  0
 14 15  1  0  0  0  0
 14 16  1  0  0  0  0
 14 17  1  0  0  0  0
 17 18  2  0  0  0  0
 17 19  1  0  0  0  0
 19 20  1  0  0  0  0
 21 22  2  0  0  0  0
 21 23  1  0  0  0  0
 23 24  1  0  0  0  0
 23 25  1  0  0  0  0
 25 26  1  0  0  0  0
 25 27  1  0  0  0  0
 25 28  1  0  0  0  0
M  END
$$$$

  -OEChem-01062216073D

 28 27  0     1  0  0  0  0  0999 V2000
   -3.4775   -2.6811    1.3226 H   0  0  0  0  0  0  0  0  0  0  0  0
   -3.3666   -1.6565    0.9557 C   0  0  0  0  0  0  0  0  0  0  0  0
   -3.7510   -0.9708    1.7146 H   0  0  0  0  0  0  0  0  0  0  0  0
   -3.9525   -1.5452    0.0403 H   0  0  0  0  0  0  0  0  0  0  0  0
   -1.9055   -1.3567    0.6779 C   0  0  0  0  0  0  0  0  0  0  0  0
   -1.0956   -2.2632    0.7401 O   0  0  0  0  0  0  0  0  0  0  0  0
   -1.5599   -0.0962    0.2220 N   0  0  0  0  0  0  0  0  0  0  0  0
   -2.3477    0.5403    0.1650 H   0  0  0  0  0  0  0  0  0  0  0  0
   -0.2287    0.5478    0.3128 C   0  0  1  0  0  0  0  0  0  0  0  0
   -0.0049    0.9807   -0.6665 H   0  0  0  0  0  0  0  0  0  0  0  0
   -0.3379    1.7031    1.3317 C   0  0  0  0  0  0  0  0  0  0  0  0
   -0.7122    1.3094    2.2843 H   0  0  0  0  0  0  0  0  0  0  0  0
    0.6612    2.1127    1.5217 H   0  0  0  0  0  0  0  0  0  0  0  0
   -1.2514    2.8444    0.8302 C   0  0  0  0  0  0  0  0  0  0  0  0
   -0.8448    3.2474   -0.1015 H   0  0  0  0  0  0  0  0  0  0  0  0
   -2.2515    2.4595    0.6200 H   0  0  0  0  0  0  0  0  0  0  0  0
   -1.4064    4.0005    1.8199 C   0  0  0  0  0  0  0  0  0  0  0  0
   -0.9413    3.9151    2.9433 O   0  0  0  0  0  0  0  0  0  0  0  0
   -2.0869    5.0821    1.3778 O   0  0  0  0  0  0  0  0  0  0  0  0
   -2.0927    5.7091    2.1178 H   0  0  0  0  0  0  0  0  0  0  0  0
    0.9931   -0.3517    0.6538 C   0  0  0  0  0  0  0  0  0  0  0  0
    1.3293   -0.5264    1.8196 O   0  0  0  0  0  0  0  0  0  0  0  0
    1.8876   -0.6979   -0.3440 N   0  0  0  0  0  0  0  0  0  0  0  0
    1.5366   -0.6554   -1.2951 H   0  0  0  0  0  0  0  0  0  0  0  0
    3.0603   -1.5247   -0.0818 C   0  0  0  0  0  0  0  0  0  0  0  0
    2.7594   -2.4970    0.3228 H   0  0  0  0  0  0  0  0  0  0  0  0
    3.6209   -1.6914   -1.0063 H   0  0  0  0  0  0  0  0  0  0  0  0
    3.7235   -1.0343    0.6385 H   0  0  0  0  0  0  0  0  0  0  0  0
  1  2  1  0  0  0  0
  2  3  1  0  0  0  0
  2  4  1  0  0  0  0
  2  5  1  0  0  0  0
  5  6  2  0  0  0  0
  5  7  1  0  0  0  0
  7  8  1  0  0  0  0
  7  9  1  0  0  0  0
  9 10  1  0  0  0  0
  9 11  1  0  0  0  0
  9 21  1  0  0  0  0
 11 12  1  0  0  0  0
 11 13  1  0  0  0  0
 11 14  1  0  0  0  0
 14 15  1  0  0  0  0
 14 16  1  0  0  0  0
 14 17  1  0  0  0  0
 17 18  2  0  0  0  0
 17 19  1  0  0  0  0
 19 20  1  0  0  0  0
 21 22  2  0  0  0  0
 21 23  1  0  0  0  0
 23 24  1  0  0  0  0
 23 25  1  0  0  0  0
 25 26  1  0  0  0  0
 25 27  1  0  0  0  0
 25 28  1  0  0  0  0
M  END
$$$$

  -OEChem-01062216073D

 28 27  0     1  0  0  0  0  0999 V2000
   -3.4397   -2.6652    1.3709 H   0  0  0  0  0  0  0  0  0  0  0  0
   -3.3434   -1.6371    1.0100 C   0  0  0  0  0  0  0  0  0  0  0  0
   -3.6370   -0.9570    1.8131 H   0  0  0  0  0  0  0  0  0  0  0  0
   -4.0121   -1.4976    0.1575 H   0  0  0  0  0  0  0  0  0  0  0  0
   -1.9098   -1.3631    0.5967 C   0  0  0  0  0  0  0  0  0  0  0  0
   -1.1319   -2.2951    0.5016 O   0  0  0  0  0  0  0  0  0  0  0  0
   -1.5703   -0.0976    0.1520 N   0  0  0  0  0  0  0  0  0  0  0  0
   -2.3510    0.5491    0.1787 H   0  0  0  0  0  0  0  0  0  0  0  0
   -0.2371    0.5354    0.2756 C   0  0  1  0  0  0  0  0  0  0  0  0
    0.0031    0.9773   -0.6954 H   0  0  0  0  0  0  0  0  0  0  0  0
   -0.3511    1.6755    1.3091 C   0  0  0  0  0  0  0  0  0  0  0  0
   -0.7459    1.2705    2.2485 H   0  0  0  0  0  0  0  0  0  0  0  0
    0.6488    2.0711    1.5228 H   0  0  0  0  0  0  0  0  0  0  0  0
   -1.2460    2.8329    0.8117 C   0  0  0  0  0  0  0  0  0  0  0  0
   -0.8209    3.2468   -0.1069 H   0  0  0  0  0  0  0  0  0  0  0  0
   -2.2464    2.4616    0.5795 H   0  0  0  0  0  0  0  0  0  0  0  0
   -1.4039    3.9743    1.8179 C   0  0  0  0  0  0  0  0  0  0  0  0
   -0.9558    3.8653    2.9461 O   0  0  0  0  0  0  0  0  0  0  0  0
   -2.0655    5.0706    1.3839 O   0  0  0  0  0  0  0  0  0  0  0  0
   -2.0765    5.6848    2.1345 H   0  0  0  0  0  0  0  0  0  0  0  0
    0.9758   -0.3681    0.6332 C   0  0  0  0  0  0  0  0  0  0  0  0
    1.1536   -0.7194    1.7940 O   0  0  0  0  0  0  0  0  0  0  0  0
    2.0459   -0.4594   -0.2404 N   0  0  0  0  0  0  0  0  0  0  0  0
    1.8600   -0.2384   -1.2131 H   0  0  0  0  0  0  0  0  0  0  0  0
    3.2499   -1.2190    0.0780 C   0  0  0  0  0  0  0  0  0  0  0  0
    2.9980   -2.2634    0.2917 H   0  0  0  0  0  0  0  0  0  0  0  0
    3.9471   -1.1957   -0.7648 H   0  0  0  0  0  0  0  0  0  0  0  0
    3.7525   -0.7926    0.9526 H   0  0  0  0  0  0  0  0  0  0  0  0
  1  2  1  0  0  0  0
  2  3  1  0  0  0  0
  2  4  1  0  0  0  0
  2  5  1  0  0  0  0
  5  6  2  0  0  0  0
  5  7  1  0  0  0  0
  7  8  1  0  0  0  0
  7  9  1  0  0  0  0
  9 10  1  0  0  0  0
  9 11  1  0  0  0  0
  9 21  1  0  0  0  0
 11 12  1  0  0  0  0
 11 13  1  0  0  0  0
 11 14  1  0  0  0  0
 14 15  1  0  0  0  0
 14 16  1  0  0  0  0
 14 17  1  0  0  0  0
 17 18  2  0  0  0  0
 17 19  1  0  0  0  0
 19 20  1  0  0  0  0
 21 22  2  0  0  0  0
 21 23  1  0  0  0  0
 23 24  1  0  0  0  0
 23 25  1  0  0  0  0
 25 26  1  0  0  0  0
 25 27  1  0  0  0  0
 25 28  1  0  0  0  0
M  END
$$$$

  -OEChem-01062216073D

 28 27  0     1  0  0  0  0  0999 V2000
   -3.4207   -2.6531    1.3934 H   0  0  0  0  0  0  0  0  0  0  0  0
   -3.3221   -1.6163    1.0593 C   0  0  0  0  0  0  0  0  0  0  0  0
   -3.5338   -0.9562    1.9038 H   0  0  0  0  0  0  0  0  0  0  0  0
   -4.0491   -1.4306    0.2653 H   0  0  0  0  0  0  0  0  0  0  0  0
   -1.9161   -1.3667    0.5478 C   0  0  0  0  0  0  0  0  0  0  0  0
   -1.1817   -2.3156    0.3390 O   0  0  0  0  0  0  0  0  0  0  0  0
   -1.5745   -0.1020    0.1045 N   0  0  0  0  0  0  0  0  0  0  0  0
   -2.3466    0.5510    0.1779 H   0  0  0  0  0  0  0  0  0  0  0  0
   -0.2376    0.5204    0.2433 C   0  0  1  0  0  0  0  0  0  0  0  0
    0.0116    0.9651   -0.7243 H   0  0  0  0  0  0  0  0  0  0  0  0
   -0.3527    1.6498    1.2873 C   0  0  0  0  0  0  0  0  0  0  0  0
   -0.7556    1.2376    2.2203 H   0  0  0  0  0  0  0  0  0  0  0  0
    0.6478    2.0383    1.5117 H   0  0  0  0  0  0  0  0  0  0  0  0
   -1.2377    2.8162    0.7929 C   0  0  0  0  0  0  0  0  0  0  0  0
   -0.8032    3.2358   -0.1186 H   0  0  0  0  0  0  0  0  0  0  0  0
   -2.2380    2.4521    0.5487 H   0  0  0  0  0  0  0  0  0  0  0  0
   -1.3991    3.9498    1.8072 C   0  0  0  0  0  0  0  0  0  0  0  0
   -0.9610    3.8285    2.9382 O   0  0  0  0  0  0  0  0  0  0  0  0
   -2.0527    5.0524    1.3773 O   0  0  0  0  0  0  0  0  0  0  0  0
   -2.0693    5.6606    2.1326 H   0  0  0  0  0  0  0  0  0  0  0  0
    0.9717   -0.3828    0.6131 C   0  0  0  0  0  0  0  0  0  0  0  0
    1.0292   -0.8966    1.7242 O   0  0  0  0  0  0  0  0  0  0  0  0
    2.1636   -0.2389   -0.0773 N   0  0  0  0  0  0  0  0  0  0  0  0
    2.1145    0.1734   -1.0031 H   0  0  0  0  0  0  0  0  0  0  0  0
    3.3863   -0.9348    0.3093 C   0  0  0  0  0  0  0  0  0  0  0  0
    3.2199   -2.0172    0.3301 H   0  0  0  0  0  0  0  0  0  0  0  0
    4.1869   -0.7207   -0.4050 H   0  0  0  0  0  0  0  0  0  0  0  0
    3.7146   -0.6103    1.3024 H   0  0  0  0  0  0  0  0  0  0  0  0
  1  2  1  0  0  0  0
  2  3  1  0  0  0  0
  2  4  1  0  0  0  0
  2  5  1  0  0  0  0
  5  6  2  0  0  0  0
  5  7  1  0  0  0  0
  7  8  1  0  0  0  0
  7  9  1  0  0  0  0
  9 10  1  0  0  0  0
  9 11  1  0  0  0  0
  9 21  1  0  0  0  0
 11 12  1  0  0  0  0
 11 13  1  0  0  0  0
 11 14  1  0  0  0  0
 14 15  1  0  0  0  0
 14 16  1  0  0  0  0
 14 17  1  0  0  0  0
 17 18  2  0  0  0  0
 17 19  1  0  0  0  0
 19 20  1  0  0  0  0
 21 22  2  0  0  0  0
 21 23  1  0  0  0  0
 23 24  1  0  0  0  0
 23 25  1  0  0  0  0
 25 26  1  0  0  0  0
 25 27  1  0  0  0  0
 25 28  1  0  0  0  0
M  END
$$$$

  -OEChem-01062216073D

 28 27  0     1  0  0  0  0  0999 V2000
   -3.3860   -2.6410    1.4276 H   0  0  0  0  0  0  0  0  0  0  0  0
   -3.2850   -1.5970    1.1174 C   0  0  0  0  0  0  0  0  0  0  0  0
   -3.4010   -0.9590    1.9967 H   0  0  0  0  0  0  0  0  0  0  0  0
   -4.0719   -1.3643    0.3964 H   0  0  0  0  0  0  0  0  0  0  0  0
   -1.9222   -1.3718    0.4911 C   0  0  0  0  0  0  0  0  0  0  0  0
   -1.2549   -2.3318    0.1485 O   0  0  0  0  0  0  0  0  0  0  0  0
   -1.5773   -0.1073    0.0531 N   0  0  0  0  0  0  0  0  0  0  0  0
   -2.3383    0.5508    0.1772 H   0  0  0  0  0  0  0  0  0  0  0  0
   -0.2360    0.5015    0.2093 C   0  0  1  0  0  0  0  0  0  0  0  0
    0.0243    0.9471   -0.7551 H   0  0  0  0  0  0  0  0  0  0  0  0
   -0.3564    1.6225    1.2614 C   0  0  0  0  0  0  0  0  0  0  0  0
   -0.7730    1.2041    2.1855 H   0  0  0  0  0  0  0  0  0  0  0  0
    0.6424    2.0043    1.5029 H   0  0  0  0  0  0  0  0  0  0  0  0
   -1.2278    2.7995    0.7676 C   0  0  0  0  0  0  0  0  0  0  0  0
   -0.7794    3.2250   -0.1344 H   0  0  0  0  0  0  0  0  0  0  0  0
   -2.2276    2.4459    0.5067 H   0  0  0  0  0  0  0  0  0  0  0  0
   -1.3924    3.9239    1.7914 C   0  0  0  0  0  0  0  0  0  0  0  0
   -0.9675    3.7868    2.9257 O   0  0  0  0  0  0  0  0  0  0  0  0
   -2.0318    5.0366    1.3660 O   0  0  0  0  0  0  0  0  0  0  0  0
   -2.0536    5.6367    2.1276 H   0  0  0  0  0  0  0  0  0  0  0  0
    0.9728   -0.3995    0.5888 C   0  0  0  0  0  0  0  0  0  0  0  0
    0.9339   -1.0825    1.6050 O   0  0  0  0  0  0  0  0  0  0  0  0
    2.2340   -0.0441    0.1386 N   0  0  0  0  0  0  0  0  0  0  0  0
    2.2860    0.5611   -0.6741 H   0  0  0  0  0  0  0  0  0  0  0  0
    3.4582   -0.6797    0.6151 C   0  0  0  0  0  0  0  0  0  0  0  0
    3.4125   -1.7632    0.4608 H   0  0  0  0  0  0  0  0  0  0  0  0
    4.3244   -0.2896    0.0723 H   0  0  0  0  0  0  0  0  0  0  0  0
    3.6020   -0.4822    1.6828 H   0  0  0  0  0  0  0  0  0  0  0  0
  1  2  1  0  0  0  0
  2  3  1  0  0  0  0
  2  4  1  0  0  0  0
  2  5  1  0  0  0  0
  5  6  2  0  0  0  0
  5  7  1  0  0  0  0
  7  8  1  0  0  0  0
  7  9  1  0  0  0  0
  9 10  1  0  0  0  0
  9 11  1  0  0  0  0
  9 21  1  0  0  0  0
 11 12  1  0  0  0  0
 11 13  1  0  0  0  0
 11 14  1  0  0  0  0
 14 15  1  0  0  0  0
 14 16  1  0  0  0  0
 14 17  1  0  0  0  0
 17 18  2  0  0  0  0
 17 19  1  0  0  0  0
 19 20  1  0  0  0  0
 21 22  2  0  0  0  0
 21 23  1  0  0  0  0
 23 24  1  0  0  0  0
 23 25  1  0  0  0  0
 25 26  1  0  0  0  0
 25 27  1  0  0  0  0
 25 28  1  0  0  0  0
M  END
$$$$

  -OEChem-01062216073D

 28 27  0     1  0  0  0  0  0999 V2000
   -3.2464   -2.9531    1.2098 H   0  0  0  0  0  0  0  0  0  0  0  0
   -3.1000   -2.0713    0.5797 C   0  0  0  0  0  0  0  0  0  0  0  0
   -4.0505   -1.5411    0.4863 H   0  0  0  0  0  0  0  0  0  0  0  0
   -2.7706   -2.3993   -0.4090 H   0  0  0  0  0  0  0  0  0  0  0  0
   -2.0544   -1.1624    1.1969 C   0  0  0  0  0  0  0  0  0  0  0  0
   -1.7095   -1.3361    2.3538 O   0  0  0  0  0  0  0  0  0  0  0  0
   -1.7191    0.0239    0.5724 N   0  0  0  0  0  0  0  0  0  0  0  0
   -2.2589    0.1662   -0.2743 H   0  0  0  0  0  0  0  0  0  0  0  0
   -0.3435    0.5750    0.5078 C   0  0  1  0  0  0  0  0  0  0  0  0
   -0.1782    0.9181   -0.5176 H   0  0  0  0  0  0  0  0  0  0  0  0
   -0.3166    1.7941    1.4531 C   0  0  0  0  0  0  0  0  0  0  0  0
   -0.6540    1.4768    2.4478 H   0  0  0  0  0  0  0  0  0  0  0  0
    0.7074    2.1663    1.5614 H   0  0  0  0  0  0  0  0  0  0  0  0
   -1.2045    2.9493    0.9406 C   0  0  0  0  0  0  0  0  0  0  0  0
   -0.8538    3.2685   -0.0444 H   0  0  0  0  0  0  0  0  0  0  0  0
   -2.2358    2.6028    0.8334 H   0  0  0  0  0  0  0  0  0  0  0  0
   -1.2246    4.1710    1.8606 C   0  0  0  0  0  0  0  0  0  0  0  0
   -0.6808    4.1267    2.9513 O   0  0  0  0  0  0  0  0  0  0  0  0
   -1.8617    5.2680    1.3923 O   0  0  0  0  0  0  0  0  0  0  0  0
   -1.7913    5.9325    2.0949 H   0  0  0  0  0  0  0  0  0  0  0  0
    0.8894   -0.3244    0.8344 C   0  0  0  0  0  0  0  0  0  0  0  0
    0.8112   -1.5374    0.9672 O   0  0  0  0  0  0  0  0  0  0  0  0
    2.1399    0.1440    0.4606 N   0  0  0  0  0  0  0  0  0  0  0  0
    2.2295    1.1381    0.2775 H   0  0  0  0  0  0  0  0  0  0  0  0
    3.3526   -0.6677    0.5053 C   0  0  0  0  0  0  0  0  0  0  0  0
    3.2853   -1.4974   -0.2063 H   0  0  0  0  0  0  0  0  0  0  0  0
    4.2248   -0.0603    0.2456 H   0  0  0  0  0  0  0  0  0  0  0  0
    3.5037   -1.0770    1.5100 H   0  0  0  0  0  0  0  0  0  0  0  0
  1  2  1  0  0  0  0
  2  3  1  0  0  0  0
  2  4  1  0  0  0  0
  2  5  1  0  0  0  0
  5  6  2  0  0  0  0
  5  7  1  0  0  0  0
  7  8  1  0  0  0  0
  7  9  1  0  0  0  0
  9 10  1  0  0  0  0
  9 11  1  0  0  0  0
  9 21  1  0  0  0  0
 11 12  1  0  0  0  0
 11 13  1  0  0  0  0
 11 14  1  0  0  0  0
 14 15  1  0  0  0  0
 14 16  1  0  0  0  0
 14 17  1  0  0  0  0
 17 18  2  0  0  0  0
 17 19  1  0  0  0  0
 19 20  1  0  0  0  0
 21 22  2  0  0  0  0
 21 23  1  0  0  0  0
 23 24  1  0  0  0  0
 23 25  1  0  0  0  0
 25 26  1  0  0  0  0
 25 27  1  0  0  0  0
 25 28  1  0  0  0  0
M  END
$$$$

  -OEChem-01062216073D

 28 27  0     1  0  0  0  0  0999 V2000
   -3.1787   -2.9589    1.2280 H   0  0  0  0  0  0  0  0  0  0  0  0
   -3.0892   -2.0547    0.6194 C   0  0  0  0  0  0  0  0  0  0  0  0
   -4.0284   -1.4993    0.6712 H   0  0  0  0  0  0  0  0  0  0  0  0
   -2.8995   -2.3473   -0.4161 H   0  0  0  0  0  0  0  0  0  0  0  0
   -1.9470   -1.1967    1.1288 C   0  0  0  0  0  0  0  0  0  0  0  0
   -1.3677   -1.5035    2.1589 O   0  0  0  0  0  0  0  0  0  0  0  0
   -1.6791    0.0206    0.5275 N   0  0  0  0  0  0  0  0  0  0  0  0
   -2.2567    0.1900   -0.2893 H   0  0  0  0  0  0  0  0  0  0  0  0
   -0.3216    0.6115    0.4712 C   0  0  1  0  0  0  0  0  0  0  0  0
   -0.2465    1.2003   -0.4475 H   0  0  0  0  0  0  0  0  0  0  0  0
   -0.1795    1.5648    1.6786 C   0  0  0  0  0  0  0  0  0  0  0  0
   -0.4024    1.0137    2.6003 H   0  0  0  0  0  0  0  0  0  0  0  0
    0.8499    1.9268    1.7584 H   0  0  0  0  0  0  0  0  0  0  0  0
   -1.1128    2.7887    1.5581 C   0  0  0  0  0  0  0  0  0  0  0  0
   -0.8707    3.3424    0.6472 H   0  0  0  0  0  0  0  0  0  0  0  0
   -2.1507    2.4542    1.4811 H   0  0  0  0  0  0  0  0  0  0  0  0
   -1.0261    3.7533    2.7415 C   0  0  0  0  0  0  0  0  0  0  0  0
   -0.3657    3.4603    3.7243 O   0  0  0  0  0  0  0  0  0  0  0  0
   -1.7021    4.9184    2.6211 O   0  0  0  0  0  0  0  0  0  0  0  0
   -1.5502    5.3976    3.4502 H   0  0  0  0  0  0  0  0  0  0  0  0
    0.8810   -0.3790    0.4223 C   0  0  0  0  0  0  0  0  0  0  0  0
    0.7334   -1.5181   -0.0055 O   0  0  0  0  0  0  0  0  0  0  0  0
    2.1718    0.1235    0.3741 N   0  0  0  0  0  0  0  0  0  0  0  0
    2.3109    1.0777    0.6900 H   0  0  0  0  0  0  0  0  0  0  0  0
    3.3469   -0.7079    0.1356 C   0  0  0  0  0  0  0  0  0  0  0  0
    3.3079   -1.1492   -0.8660 H   0  0  0  0  0  0  0  0  0  0  0  0
    4.2581   -0.1069    0.2122 H   0  0  0  0  0  0  0  0  0  0  0  0
    3.4014   -1.5150    0.8741 H   0  0  0  0  0  0  0  0  0  0  0  0
  1  2  1  0  0  0  0
  2  3  1  0  0  0  0
  2  4  1  0  0  0  0
  2  5  1  0  0  0  0
  5  6  2  0  0  0  0
  5  7  1  0  0  0  0
  7  8  1  0  0  0  0
  7  9  1  0  0  0  0
  9 10  1  0  0  0  0
  9 11  1  0  0  0  0
  9 21  1  0  0  0  0
 11 12  1  0  0  0  0
 11 13  1  0  0  0  0
 11 14  1  0  0  0  0
 14 15  1  0  0  0  0
 14 16  1  0  0  0  0
 14 17  1  0  0  0  0
 17 18  2  0  0  0  0
 17 19  1  0  0  0  0
 19 20  1  0  0  0  0
 21 22  2  0  0  0  0
 21 23  1  0  0  0  0
 23 24  1  0  0  0  0
 23 25  1  0  0  0  0
 25 26  1  0  0  0  0
 25 27  1  0  0  0  0
 25 28  1  0  0  0  0
M  END
$$$$

  -OEChem-01062216073D

 28 27  0     1  0  0  0  0  0999 V2000
   -3.1198   -2.9665    1.2220 H   0  0  0  0  0  0  0  0  0  0  0  0
   -3.0625   -2.0456    0.6351 C   0  0  0  0  0  0  0  0  0  0  0  0
   -4.0024   -1.4992    0.7416 H   0  0  0  0  0  0  0  0  0  0  0  0
   -2.9147   -2.3090   -0.4151 H   0  0  0  0  0  0  0  0  0  0  0  0
   -1.9059   -1.1920    1.1189 C   0  0  0  0  0  0  0  0  0  0  0  0
   -1.2767   -1.5252    2.1114 O   0  0  0  0  0  0  0  0  0  0  0  0
   -1.6634    0.0356    0.5275 N   0  0  0  0  0  0  0  0  0  0  0  0
   -2.2552    0.2107   -0.2781 H   0  0  0  0  0  0  0  0  0  0  0  0
   -0.3153    0.6459    0.4677 C   0  0  1  0  0  0  0  0  0  0  0  0
   -0.2431    1.2381   -0.4495 H   0  0  0  0  0  0  0  0  0  0  0  0
   -0.1861    1.5994    1.6774 C   0  0  0  0  0  0  0  0  0  0  0  0
   -0.3964    1.0431    2.5988 H   0  0  0  0  0  0  0  0  0  0  0  0
    0.8351    1.9839    1.7520 H   0  0  0  0  0  0  0  0  0  0  0  0
   -1.1397    2.8084    1.5598 C   0  0  0  0  0  0  0  0  0  0  0  0
   -0.9087    3.3669    0.6488 H   0  0  0  0  0  0  0  0  0  0  0  0
   -2.1721    2.4569    1.4842 H   0  0  0  0  0  0  0  0  0  0  0  0
   -1.0677    3.7731    2.7441 C   0  0  0  0  0  0  0  0  0  0  0  0
   -0.4012    3.4900    3.7259 O   0  0  0  0  0  0  0  0  0  0  0  0
   -1.7694    4.9236    2.6287 O   0  0  0  0  0  0  0  0  0  0  0  0
   -1.6260    5.4049    3.4581 H   0  0  0  0  0  0  0  0  0  0  0  0
    0.8738   -0.3599    0.4021 C   0  0  0  0  0  0  0  0  0  0  0  0
    0.7407   -1.4021   -0.2307 O   0  0  0  0  0  0  0  0  0  0  0  0
    2.1728    0.0510    0.6546 N   0  0  0  0  0  0  0  0  0  0  0  0
    2.2898    0.8998    1.1982 H   0  0  0  0  0  0  0  0  0  0  0  0
    3.3295   -0.8199    0.4733 C   0  0  0  0  0  0  0  0  0  0  0  0
    3.4308   -1.1102   -0.5777 H   0  0  0  0  0  0  0  0  0  0  0  0
    4.2447   -0.3023    0.7765 H   0  0  0  0  0  0  0  0  0  0  0  0
    3.2254   -1.7259    1.0799 H   0  0  0  0  0  0  0  0  0  0  0  0
  1  2  1  0  0  0  0
  2  3  1  0  0  0  0
  2  4  1  0  0  0  0
  2  5  1  0  0  0  0
  5  6  2  0  0  0  0
  5  7  1  0  0  0  0
  7  8  1  0  0  0  0
  7  9  1  0  0  0  0
  9 10  1  0  0  0  0
  9 11  1  0  0  0  0
  9 21  1  0  0  0  0
 11 12  1  0  0  0  0
 11 13  1  0  0  0  0
 11 14  1  0  0  0  0
 14 15  1  0  0  0  0
 14 16  1  0  0  0  0
 14 17  1  0  0  0  0
 17 18  2  0  0  0  0
 17 19  1  0  0  0  0
 19 20  1  0  0  0  0
 21 22  2  0  0  0  0
 21 23  1  0  0  0  0
 23 24  1  0  0  0  0
 23 25  1  0  0  0  0
 25 26  1  0  0  0  0
 25 27  1  0  0  0  0
 25 28  1  0  0  0  0
M  END
$$$$

  -OEChem-01062216073D

 28 27  0     1  0  0  0  0  0999 V2000
   -3.0730   -2.9791    1.2094 H   0  0  0  0  0  0  0  0  0  0  0  0
   -3.0445   -2.0428    0.6450 C   0  0  0  0  0  0  0  0  0  0  0  0
   -3.9819   -1.5051    0.8048 H   0  0  0  0  0  0  0  0  0  0  0  0
   -2.9398   -2.2777   -0.4170 H   0  0  0  0  0  0  0  0  0  0  0  0
   -1.8736   -1.1948    1.1035 C   0  0  0  0  0  0  0  0  0  0  0  0
   -1.2075   -1.5475    2.0646 O   0  0  0  0  0  0  0  0  0  0  0  0
   -1.6505    0.0414    0.5224 N   0  0  0  0  0  0  0  0  0  0  0  0
   -2.2555    0.2257   -0.2714 H   0  0  0  0  0  0  0  0  0  0  0  0
   -0.3122    0.6712    0.4633 C   0  0  1  0  0  0  0  0  0  0  0  0
   -0.2446    1.2658   -0.4526 H   0  0  0  0  0  0  0  0  0  0  0  0
   -0.1898    1.6254    1.6721 C   0  0  0  0  0  0  0  0  0  0  0  0
   -0.3858    1.0668    2.5953 H   0  0  0  0  0  0  0  0  0  0  0  0
    0.8262    2.0265    1.7349 H   0  0  0  0  0  0  0  0  0  0  0  0
   -1.1585    2.8222    1.5583 C   0  0  0  0  0  0  0  0  0  0  0  0
   -0.9368    3.3841    0.6470 H   0  0  0  0  0  0  0  0  0  0  0  0
   -2.1867    2.4583    1.4858 H   0  0  0  0  0  0  0  0  0  0  0  0
   -1.0929    3.7868    2.7431 C   0  0  0  0  0  0  0  0  0  0  0  0
   -0.4184    3.5094    3.7211 O   0  0  0  0  0  0  0  0  0  0  0  0
   -1.8094    4.9287    2.6336 O   0  0  0  0  0  0  0  0  0  0  0  0
   -1.6645    5.4124    3.4613 H   0  0  0  0  0  0  0  0  0  0  0  0
    0.8720   -0.3375    0.3861 C   0  0  0  0  0  0  0  0  0  0  0  0
    0.7896   -1.2711   -0.4050 O   0  0  0  0  0  0  0  0  0  0  0  0
    2.1202   -0.0543    0.9156 N   0  0  0  0  0  0  0  0  0  0  0  0
    2.1557    0.6599    1.6360 H   0  0  0  0  0  0  0  0  0  0  0  0
    3.2467   -0.9739    0.8021 C   0  0  0  0  0  0  0  0  0  0  0  0
    3.5064   -1.1351   -0.2496 H   0  0  0  0  0  0  0  0  0  0  0  0
    4.1229   -0.5646    1.3140 H   0  0  0  0  0  0  0  0  0  0  0  0
    2.9990   -1.9397    1.2554 H   0  0  0  0  0  0  0  0  0  0  0  0
  1  2  1  0  0  0  0
  2  3  1  0  0  0  0
  2  4  1  0  0  0  0
  2  5  1  0  0  0  0
  5  6  2  0  0  0  0
  5  7  1  0  0  0  0
  7  8  1  0  0  0  0
  7  9  1  0  0  0  0
  9 10  1  0  0  0  0
  9 11  1  0  0  0  0
  9 21  1  0  0  0  0
 11 12  1  0  0  0  0
 11 13  1  0  0  0  0
 11 14  1  0  0  0  0
 14 15  1  0  0  0  0
 14 16  1  0  0  0  0
 14 17  1  0  0  0  0
 17 18  2  0  0  0  0
 17 19  1  0  0  0  0
 19 20  1  0  0  0  0
 21 22  2  0  0  0  0
 21 23  1  0  0  0  0
 23 24  1  0  0  0  0
 23 25  1  0  0  0  0
 25 26  1  0  0  0  0
 25 27  1  0  0  0  0
 25 28  1  0  0  0  0
M  END
$$$$

  -OEChem-01062216073D

 28 27  0     1  0  0  0  0  0999 V2000
   -3.0526   -2.9895    1.1886 H   0  0  0  0  0  0  0  0  0  0  0  0
   -3.0433   -2.0376    0.6500 C   0  0  0  0  0  0  0  0  0  0  0  0
   -3.9746   -1.5055    0.8571 H   0  0  0  0  0  0  0  0  0  0  0  0
   -2.9756   -2.2426   -0.4211 H   0  0  0  0  0  0  0  0  0  0  0  0
   -1.8576   -1.2013    1.0908 C   0  0  0  0  0  0  0  0  0  0  0  0
   -1.1657   -1.5745    2.0256 O   0  0  0  0  0  0  0  0  0  0  0  0
   -1.6415    0.0383    0.5149 N   0  0  0  0  0  0  0  0  0  0  0  0
   -2.2594    0.2357   -0.2661 H   0  0  0  0  0  0  0  0  0  0  0  0
   -0.3103    0.6817    0.4579 C   0  0  1  0  0  0  0  0  0  0  0  0
   -0.2470    1.2761   -0.4587 H   0  0  0  0  0  0  0  0  0  0  0  0
   -0.1901    1.6380    1.6640 C   0  0  0  0  0  0  0  0  0  0  0  0
   -0.3792    1.0796    2.5888 H   0  0  0  0  0  0  0  0  0  0  0  0
    0.8256    2.0431    1.7183 H   0  0  0  0  0  0  0  0  0  0  0  0
   -1.1661    2.8288    1.5547 C   0  0  0  0  0  0  0  0  0  0  0  0
   -0.9516    3.3923    0.6425 H   0  0  0  0  0  0  0  0  0  0  0  0
   -2.1926    2.4593    1.4867 H   0  0  0  0  0  0  0  0  0  0  0  0
   -1.0991    3.7925    2.7404 C   0  0  0  0  0  0  0  0  0  0  0  0
   -0.4179    3.5177    3.7148 O   0  0  0  0  0  0  0  0  0  0  0  0
   -1.8224    4.9304    2.6361 O   0  0  0  0  0  0  0  0  0  0  0  0
   -1.6746    5.4143    3.4631 H   0  0  0  0  0  0  0  0  0  0  0  0
    0.8754   -0.3224    0.3790 C   0  0  0  0  0  0  0  0  0  0  0  0
    0.8739   -1.1434   -0.5314 O   0  0  0  0  0  0  0  0  0  0  0  0
    2.0190   -0.1933    1.1490 N   0  0  0  0  0  0  0  0  0  0  0  0
    1.9361    0.3854    1.9794 H   0  0  0  0  0  0  0  0  0  0  0  0
    3.1100   -1.1589    1.0925 C   0  0  0  0  0  0  0  0  0  0  0  0
    3.5365   -1.1988    0.0846 H   0  0  0  0  0  0  0  0  0  0  0  0
    3.9034   -0.8748    1.7903 H   0  0  0  0  0  0  0  0  0  0  0  0
    2.7509   -2.1578    1.3628 H   0  0  0  0  0  0  0  0  0  0  0  0
  1  2  1  0  0  0  0
  2  3  1  0  0  0  0
  2  4  1  0  0  0  0
  2  5  1  0  0  0  0
  5  6  2  0  0  0  0
  5  7  1  0  0  0  0
  7  8  1  0  0  0  0
  7  9  1  0  0  0  0
  9 10  1  0  0  0  0
  9 11  1  0  0  0  0
  9 21  1  0  0  0  0
 11 12  1  0  0  0  0
 11 13  1  0  0  0  0
 11 14  1  0  0  0  0
 14 15  1  0  0  0  0
 14 16  1  0  0  0  0
 14 17  1  0  0  0  0
 17 18  2  0  0  0  0
 17 19  1  0  0  0  0
 19 20  1  0  0  0  0
 21 22  2  0  0  0  0
 21 23  1  0  0  0  0
 23 24  1  0  0  0  0
 23 25  1  0  0  0  0
 25 26  1  0  0  0  0
 25 27  1  0  0  0  0
 25 28  1  0  0  0  0
M  END
$$$$

  -OEChem-01062216073D

 28 27  0     1  0  0  0  0  0999 V2000
   -3.0755   -2.9782    1.1939 H   0  0  0  0  0  0  0  0  0  0  0  0
   -3.0606   -2.0255    0.6571 C   0  0  0  0  0  0  0  0  0  0  0  0
   -3.9771   -1.4771    0.8870 H   0  0  0  0  0  0  0  0  0  0  0  0
   -3.0223   -2.2291   -0.4158 H   0  0  0  0  0  0  0  0  0  0  0  0
   -1.8503   -1.2115    1.0733 C   0  0  0  0  0  0  0  0  0  0  0  0
   -1.1384   -1.6071    1.9832 O   0  0  0  0  0  0  0  0  0  0  0  0
   -1.6310    0.0299    0.5033 N   0  0  0  0  0  0  0  0  0  0  0  0
   -2.2597    0.2457   -0.2642 H   0  0  0  0  0  0  0  0  0  0  0  0
   -0.3043    0.6815    0.4537 C   0  0  1  0  0  0  0  0  0  0  0  0
   -0.2417    1.2773   -0.4625 H   0  0  0  0  0  0  0  0  0  0  0  0
   -0.1876    1.6377    1.6595 C   0  0  0  0  0  0  0  0  0  0  0  0
   -0.3795    1.0798    2.5838 H   0  0  0  0  0  0  0  0  0  0  0  0
    0.8305    2.0390    1.7140 H   0  0  0  0  0  0  0  0  0  0  0  0
   -1.1661    2.8263    1.5514 C   0  0  0  0  0  0  0  0  0  0  0  0
   -0.9522    3.3913    0.6401 H   0  0  0  0  0  0  0  0  0  0  0  0
   -2.1919    2.4549    1.4823 H   0  0  0  0  0  0  0  0  0  0  0  0
   -1.1010    3.7888    2.7381 C   0  0  0  0  0  0  0  0  0  0  0  0
   -0.4192    3.5144    3.7121 O   0  0  0  0  0  0  0  0  0  0  0  0
   -1.8255    4.9262    2.6343 O   0  0  0  0  0  0  0  0  0  0  0  0
   -1.6747    5.4122    3.4597 H   0  0  0  0  0  0  0  0  0  0  0  0
    0.8881   -0.3123    0.3788 C   0  0  0  0  0  0  0  0  0  0  0  0
    1.0042   -0.9943   -0.6326 O   0  0  0  0  0  0  0  0  0  0  0  0
    1.8807   -0.3640    1.3423 N   0  0  0  0  0  0  0  0  0  0  0  0
    1.6427    0.0498    2.2393 H   0  0  0  0  0  0  0  0  0  0  0  0
    2.9359   -1.3693    1.3148 C   0  0  0  0  0  0  0  0  0  0  0  0
    3.5180   -1.2911    0.3905 H   0  0  0  0  0  0  0  0  0  0  0  0
    3.6147   -1.2280    2.1614 H   0  0  0  0  0  0  0  0  0  0  0  0
    2.5066   -2.3750    1.3766 H   0  0  0  0  0  0  0  0  0  0  0  0
  1  2  1  0  0  0  0
  2  3  1  0  0  0  0
  2  4  1  0  0  0  0
  2  5  1  0  0  0  0
  5  6  2  0  0  0  0
  5  7  1  0  0  0  0
  7  8  1  0  0  0  0
  7  9  1  0  0  0  0
  9 10  1  0  0  0  0
  9 11  1  0  0  0  0
  9 21  1  0  0  0  0
 11 12  1  0  0  0  0
 11 13  1  0  0  0  0
 11 14  1  0  0  0  0
 14 15  1  0  0  0  0
 14 16  1  0  0  0  0
 14 17  1  0  0  0  0
 17 18  2  0  0  0  0
 17 19  1  0  0  0  0
 19 20  1  0  0  0  0
 21 22  2  0  0  0  0
 21 23  1  0  0  0  0
 23 24  1  0  0  0  0
 23 25  1  0  0  0  0
 25 26  1  0  0  0  0
 25 27  1  0  0  0  0
 25 28  1  0  0  0  0
M  END
$$$$

  -OEChem-01062216073D

 28 27  0     1  0  0  0  0  0999 V2000
   -3.1257   -2.9657    1.1817 H   0  0  0  0  0  0  0  0  0  0  0  0
   -3.1029   -2.0039    0.6613 C   0  0  0  0  0  0  0  0  0  0  0  0
   -4.0044   -1.4423    0.9178 H   0  0  0  0  0  0  0  0  0  0  0  0
   -3.0893   -2.1890   -0.4156 H   0  0  0  0  0  0  0  0  0  0  0  0
   -1.8695   -1.2200    1.0675 C   0  0  0  0  0  0  0  0  0  0  0  0
   -1.1522   -1.6395    1.9622 O   0  0  0  0  0  0  0  0  0  0  0  0
   -1.6293    0.0172    0.4982 N   0  0  0  0  0  0  0  0  0  0  0  0
   -2.2670    0.2585   -0.2545 H   0  0  0  0  0  0  0  0  0  0  0  0
   -0.3009    0.6651    0.4548 C   0  0  1  0  0  0  0  0  0  0  0  0
   -0.2364    1.2606   -0.4616 H   0  0  0  0  0  0  0  0  0  0  0  0
   -0.1848    1.6222    1.6586 C   0  0  0  0  0  0  0  0  0  0  0  0
   -0.3857    1.0683    2.5831 H   0  0  0  0  0  0  0  0  0  0  0  0
    0.8379    2.0120    1.7172 H   0  0  0  0  0  0  0  0  0  0  0  0
   -1.1575    2.8146    1.5448 C   0  0  0  0  0  0  0  0  0  0  0  0
   -0.9369    3.3771    0.6336 H   0  0  0  0  0  0  0  0  0  0  0  0
   -2.1846    2.4477    1.4716 H   0  0  0  0  0  0  0  0  0  0  0  0
   -1.0929    3.7787    2.7300 C   0  0  0  0  0  0  0  0  0  0  0  0
   -0.4162    3.5029    3.7071 O   0  0  0  0  0  0  0  0  0  0  0  0
   -1.8133    4.9182    2.6223 O   0  0  0  0  0  0  0  0  0  0  0  0
   -1.6615    5.4051    3.4469 H   0  0  0  0  0  0  0  0  0  0  0  0
    0.8997   -0.3174    0.3916 C   0  0  0  0  0  0  0  0  0  0  0  0
    1.1742   -0.8234   -0.6893 O   0  0  0  0  0  0  0  0  0  0  0  0
    1.7087   -0.5714    1.4851 N   0  0  0  0  0  0  0  0  0  0  0  0
    1.2857   -0.3597    2.3854 H   0  0  0  0  0  0  0  0  0  0  0  0
    2.7557   -1.5849    1.4541 C   0  0  0  0  0  0  0  0  0  0  0  0
    3.4839   -1.3624    0.6670 H   0  0  0  0  0  0  0  0  0  0  0  0
    3.2834   -1.6120    2.4123 H   0  0  0  0  0  0  0  0  0  0  0  0
    2.3240   -2.5736    1.2656 H   0  0  0  0  0  0  0  0  0  0  0  0
  1  2  1  0  0  0  0
  2  3  1  0  0  0  0
  2  4  1  0  0  0  0
  2  5  1  0  0  0  0
  5  6  2  0  0  0  0
  5  7  1  0  0  0  0
  7  8  1  0  0  0  0
  7  9  1  0  0  0  0
  9 10  1  0  0  0  0
  9 11  1  0  0  0  0
  9 21  1  0  0  0  0
 11 12  1  0  0  0  0
 11 13  1  0  0  0  0
 11 14  1  0  0  0  0
 14 15  1  0  0  0  0
 14 16  1  0  0  0  0
 14 17  1  0  0  0  0
 17 18  2  0  0  0  0
 17 19  1  0  0  0  0
 19 20  1  0  0  0  0
 21 22  2  0  0  0  0
 21 23  1  0  0  0  0
 23 24  1  0  0  0  0
 23 25  1  0  0  0  0
 25 26  1  0  0  0  0
 25 27  1  0  0  0  0
 25 28  1  0  0  0  0
M  END
$$$$

  -OEChem-01062216073D

 28 27  0     1  0  0  0  0  0999 V2000
   -3.2296   -2.9320    1.1864 H   0  0  0  0  0  0  0  0  0  0  0  0
   -3.1765   -1.9732    0.6626 C   0  0  0  0  0  0  0  0  0  0  0  0
   -4.0576   -1.3811    0.9213 H   0  0  0  0  0  0  0  0  0  0  0  0
   -3.1745   -2.1623   -0.4137 H   0  0  0  0  0  0  0  0  0  0  0  0
   -1.9162   -1.2296    1.0615 C   0  0  0  0  0  0  0  0  0  0  0  0
   -1.2104   -1.6722    1.9537 O   0  0  0  0  0  0  0  0  0  0  0  0
   -1.6400   -0.0013    0.4901 N   0  0  0  0  0  0  0  0  0  0  0  0
   -2.2832    0.2696   -0.2478 H   0  0  0  0  0  0  0  0  0  0  0  0
   -0.3049    0.6347    0.4520 C   0  0  1  0  0  0  0  0  0  0  0  0
   -0.2367    1.2299   -0.4647 H   0  0  0  0  0  0  0  0  0  0  0  0
   -0.1834    1.5908    1.6553 C   0  0  0  0  0  0  0  0  0  0  0  0
   -0.3928    1.0398    2.5796 H   0  0  0  0  0  0  0  0  0  0  0  0
    0.8445    1.9658    1.7179 H   0  0  0  0  0  0  0  0  0  0  0  0
   -1.1429    2.7936    1.5396 C   0  0  0  0  0  0  0  0  0  0  0  0
   -0.9123    3.3543    0.6297 H   0  0  0  0  0  0  0  0  0  0  0  0
   -2.1734    2.4380    1.4626 H   0  0  0  0  0  0  0  0  0  0  0  0
   -1.0721    3.7570    2.7253 C   0  0  0  0  0  0  0  0  0  0  0  0
   -0.4019    3.4753    3.7050 O   0  0  0  0  0  0  0  0  0  0  0  0
   -1.7827    4.9025    2.6155 O   0  0  0  0  0  0  0  0  0  0  0  0
   -1.6284    5.3888    3.4400 H   0  0  0  0  0  0  0  0  0  0  0  0
    0.9052   -0.3359    0.4051 C   0  0  0  0  0  0  0  0  0  0  0  0
    1.3734   -0.6275   -0.6880 O   0  0  0  0  0  0  0  0  0  0  0  0
    1.5149   -0.8062    1.5535 N   0  0  0  0  0  0  0  0  0  0  0  0
    0.8998   -0.8205    2.3665 H   0  0  0  0  0  0  0  0  0  0  0  0
    2.5917   -1.7872    1.5122 C   0  0  0  0  0  0  0  0  0  0  0  0
    3.4373   -1.4059    0.9306 H   0  0  0  0  0  0  0  0  0  0  0  0
    2.9423   -2.0043    2.5256 H   0  0  0  0  0  0  0  0  0  0  0  0
    2.2428   -2.7200    1.0568 H   0  0  0  0  0  0  0  0  0  0  0  0
  1  2  1  0  0  0  0
  2  3  1  0  0  0  0
  2  4  1  0  0  0  0
  2  5  1  0  0  0  0
  5  6  2  0  0  0  0
  5  7  1  0  0  0  0
  7  8  1  0  0  0  0
  7  9  1  0  0  0  0
  9 10  1  0  0  0  0
  9 11  1  0  0  0  0
  9 21  1  0  0  0  0
 11 12  1  0  0  0  0
 11 13  1  0  0  0  0
 11 14  1  0  0  0  0
 14 15  1  0  0  0  0
 14 16  1  0  0  0  0
 14 17  1  0  0  0  0
 17 18  2  0  0  0  0
 17 19  1  0  0  0  0
 19 20  1  0  0  0  0
 21 22  2  0  0  0  0
 21 23  1  0  0  0  0
 23 24  1  0  0  0  0
 23 25  1  0  0  0  0
 25 26  1  0  0  0  0
 25 27  1  0  0  0  0
 25 28  1  0  0  0  0
M  END
$$$$

  -OEChem-01062216073D

 28 27  0     1  0  0  0  0  0999 V2000
   -3.3848   -2.8819    1.1523 H   0  0  0  0  0  0  0  0  0  0  0  0
   -3.2988   -1.9063    0.6656 C   0  0  0  0  0  0  0  0  0  0  0  0
   -4.1383   -1.2809    0.9790 H   0  0  0  0  0  0  0  0  0  0  0  0
   -3.3435   -2.0505   -0.4167 H   0  0  0  0  0  0  0  0  0  0  0  0
   -1.9884   -1.2446    1.0479 C   0  0  0  0  0  0  0  0  0  0  0  0
   -1.3024   -1.7359    1.9287 O   0  0  0  0  0  0  0  0  0  0  0  0
   -1.6521   -0.0316    0.4767 N   0  0  0  0  0  0  0  0  0  0  0  0
   -2.3058    0.2896   -0.2313 H   0  0  0  0  0  0  0  0  0  0  0  0
   -0.3074    0.5892    0.4409 C   0  0  1  0  0  0  0  0  0  0  0  0
   -0.2365    1.1841   -0.4759 H   0  0  0  0  0  0  0  0  0  0  0  0
   -0.1844    1.5416    1.6461 C   0  0  0  0  0  0  0  0  0  0  0  0
   -0.3998    0.9898    2.5685 H   0  0  0  0  0  0  0  0  0  0  0  0
    0.8469    1.9074    1.7146 H   0  0  0  0  0  0  0  0  0  0  0  0
   -1.1324    2.7539    1.5286 C   0  0  0  0  0  0  0  0  0  0  0  0
   -0.8923    3.3143    0.6210 H   0  0  0  0  0  0  0  0  0  0  0  0
   -2.1660    2.4086    1.4458 H   0  0  0  0  0  0  0  0  0  0  0  0
   -1.0594    3.7142    2.7167 C   0  0  0  0  0  0  0  0  0  0  0  0
   -0.3974    3.4250    3.6998 O   0  0  0  0  0  0  0  0  0  0  0  0
   -1.7623    4.8643    2.6067 O   0  0  0  0  0  0  0  0  0  0  0  0
   -1.6083    5.3468    3.4334 H   0  0  0  0  0  0  0  0  0  0  0  0
    0.9228   -0.3579    0.4132 C   0  0  0  0  0  0  0  0  0  0  0  0
    1.5788   -0.4254   -0.6182 O   0  0  0  0  0  0  0  0  0  0  0  0
    1.3548   -1.0464    1.5307 N   0  0  0  0  0  0  0  0  0  0  0  0
    0.6197   -1.2124    2.2217 H   0  0  0  0  0  0  0  0  0  0  0  0
    2.4705   -1.9829    1.4926 C   0  0  0  0  0  0  0  0  0  0  0  0
    3.3821   -1.4813    1.1509 H   0  0  0  0  0  0  0  0  0  0  0  0
    2.6559   -2.3876    2.4920 H   0  0  0  0  0  0  0  0  0  0  0  0
    2.2503   -2.8143    0.8151 H   0  0  0  0  0  0  0  0  0  0  0  0
  1  2  1  0  0  0  0
  2  3  1  0  0  0  0
  2  4  1  0  0  0  0
  2  5  1  0  0  0  0
  5  6  2  0  0  0  0
  5  7  1  0  0  0  0
  7  8  1  0  0  0  0
  7  9  1  0  0  0  0
  9 10  1  0  0  0  0
  9 11  1  0  0  0  0
  9 21  1  0  0  0  0
 11 12  1  0  0  0  0
 11 13  1  0  0  0  0
 11 14  1  0  0  0  0
 14 15  1  0  0  0  0
 14 16  1  0  0  0  0
 14 17  1  0  0  0  0
 17 18  2  0  0  0  0
 17 19  1  0  0  0  0
 19 20  1  0  0  0  0
 21 22  2  0  0  0  0
 21 23  1  0  0  0  0
 23 24  1  0  0  0  0
 23 25  1  0  0  0  0
 25 26  1  0  0  0  0
 25 27  1  0  0  0  0
 25 28  1  0  0  0  0
M  END
$$$$

  -OEChem-01062216073D

 28 27  0     1  0  0  0  0  0999 V2000
   -3.5434   -2.8142    1.1425 H   0  0  0  0  0  0  0  0  0  0  0  0
   -3.4096   -1.8402    0.6630 C   0  0  0  0  0  0  0  0  0  0  0  0
   -4.2129   -1.1746    0.9883 H   0  0  0  0  0  0  0  0  0  0  0  0
   -3.4699   -1.9727   -0.4199 H   0  0  0  0  0  0  0  0  0  0  0  0
   -2.0631   -1.2519    1.0411 C   0  0  0  0  0  0  0  0  0  0  0  0
   -1.4043   -1.7888    1.9145 O   0  0  0  0  0  0  0  0  0  0  0  0
   -1.6701   -0.0552    0.4716 N   0  0  0  0  0  0  0  0  0  0  0  0
   -2.3281    0.3097   -0.2111 H   0  0  0  0  0  0  0  0  0  0  0  0
   -0.3151    0.5485    0.4349 C   0  0  1  0  0  0  0  0  0  0  0  0
   -0.2449    1.1435   -0.4822 H   0  0  0  0  0  0  0  0  0  0  0  0
   -0.1917    1.4981    1.6418 C   0  0  0  0  0  0  0  0  0  0  0  0
   -0.4146    0.9455    2.5621 H   0  0  0  0  0  0  0  0  0  0  0  0
    0.8417    1.8570    1.7167 H   0  0  0  0  0  0  0  0  0  0  0  0
   -1.1286    2.7190    1.5196 C   0  0  0  0  0  0  0  0  0  0  0  0
   -0.8767    3.2783    0.6144 H   0  0  0  0  0  0  0  0  0  0  0  0
   -2.1647    2.3835    1.4291 H   0  0  0  0  0  0  0  0  0  0  0  0
   -1.0554    3.6773    2.7091 C   0  0  0  0  0  0  0  0  0  0  0  0
   -0.4025    3.3817    3.6962 O   0  0  0  0  0  0  0  0  0  0  0  0
   -1.7490    4.8328    2.5960 O   0  0  0  0  0  0  0  0  0  0  0  0
   -1.5946    5.3136    3.4238 H   0  0  0  0  0  0  0  0  0  0  0  0
    0.9361   -0.3731    0.4195 C   0  0  0  0  0  0  0  0  0  0  0  0
    1.7301   -0.2446   -0.5034 O   0  0  0  0  0  0  0  0  0  0  0  0
    1.2320   -1.2760    1.4212 N   0  0  0  0  0  0  0  0  0  0  0  0
    0.4475   -1.5129    2.0339 H   0  0  0  0  0  0  0  0  0  0  0  0
    2.3657   -2.1895    1.3661 C   0  0  0  0  0  0  0  0  0  0  0  0
    3.3033   -1.6328    1.2654 H   0  0  0  0  0  0  0  0  0  0  0  0
    2.4158   -2.7826    2.2843 H   0  0  0  0  0  0  0  0  0  0  0  0
    2.2670   -2.8716    0.5155 H   0  0  0  0  0  0  0  0  0  0  0  0
  1  2  1  0  0  0  0
  2  3  1  0  0  0  0
  2  4  1  0  0  0  0
  2  5  1  0  0  0  0
  5  6  2  0  0  0  0
  5  7  1  0  0  0  0
  7  8  1  0  0  0  0
  7  9  1  0  0  0  0
  9 10  1  0  0  0  0
  9 11  1  0  0  0  0
  9 21  1  0  0  0  0
 11 12  1  0  0  0  0
 11 13  1  0  0  0  0
 11 14  1  0  0  0  0
 14 15  1  0  0  0  0
 14 16  1  0  0  0  0
 14 17  1  0  0  0  0
 17 18  2  0  0  0  0
 17 19  1  0  0  0  0
 19 20  1  0  0  0  0
 21 22  2  0  0  0  0
 21 23  1  0  0  0  0
 23 24  1  0  0  0  0
 23 25  1  0  0  0  0
 25 26  1  0  0  0  0
 25 27  1  0  0  0  0
 25 28  1  0  0  0  0
M  END
$$$$

  -OEChem-01062216073D

 28 27  0     1  0  0  0  0  0999 V2000
   -3.6822   -2.7515    1.1471 H   0  0  0  0  0  0  0  0  0  0  0  0
   -3.5093   -1.7862    0.6624 C   0  0  0  0  0  0  0  0  0  0  0  0
   -4.2840   -1.0866    0.9858 H   0  0  0  0  0  0  0  0  0  0  0  0
   -3.5776   -1.9220   -0.4197 H   0  0  0  0  0  0  0  0  0  0  0  0
   -2.1390   -1.2519    1.0350 C   0  0  0  0  0  0  0  0  0  0  0  0
   -1.5004   -1.8183    1.9040 O   0  0  0  0  0  0  0  0  0  0  0  0
   -1.7062   -0.0683    0.4672 N   0  0  0  0  0  0  0  0  0  0  0  0
   -2.3643    0.3265   -0.1983 H   0  0  0  0  0  0  0  0  0  0  0  0
   -0.3397    0.5125    0.4208 C   0  0  1  0  0  0  0  0  0  0  0  0
   -0.2727    1.1083   -0.4957 H   0  0  0  0  0  0  0  0  0  0  0  0
   -0.2010    1.4574    1.6299 C   0  0  0  0  0  0  0  0  0  0  0  0
   -0.4276    0.9043    2.5489 H   0  0  0  0  0  0  0  0  0  0  0  0
    0.8369    1.8036    1.7034 H   0  0  0  0  0  0  0  0  0  0  0  0
   -1.1208    2.6919    1.5145 C   0  0  0  0  0  0  0  0  0  0  0  0
   -0.8628    3.2508    0.6108 H   0  0  0  0  0  0  0  0  0  0  0  0
   -2.1621    2.3725    1.4261 H   0  0  0  0  0  0  0  0  0  0  0  0
   -1.0305    3.6446    2.7072 C   0  0  0  0  0  0  0  0  0  0  0  0
   -0.3794    3.3369    3.6918 O   0  0  0  0  0  0  0  0  0  0  0  0
   -1.7073    4.8104    2.5989 O   0  0  0  0  0  0  0  0  0  0  0  0
   -1.5429    5.2869    3.4272 H   0  0  0  0  0  0  0  0  0  0  0  0
    0.9207   -0.3993    0.3990 C   0  0  0  0  0  0  0  0  0  0  0  0
    1.8204   -0.0981   -0.3747 O   0  0  0  0  0  0  0  0  0  0  0  0
    1.1114   -1.4973    1.2125 N   0  0  0  0  0  0  0  0  0  0  0  0
    0.3150   -1.7758    1.7907 H   0  0  0  0  0  0  0  0  0  0  0  0
    2.2845   -2.3595    1.1620 C   0  0  0  0  0  0  0  0  0  0  0  0
    3.1953   -1.7789    1.3416 H   0  0  0  0  0  0  0  0  0  0  0  0
    2.2139   -3.1361    1.9298 H   0  0  0  0  0  0  0  0  0  0  0  0
    2.3616   -2.8439    0.1832 H   0  0  0  0  0  0  0  0  0  0  0  0
  1  2  1  0  0  0  0
  2  3  1  0  0  0  0
  2  4  1  0  0  0  0
  2  5  1  0  0  0  0
  5  6  2  0  0  0  0
  5  7  1  0  0  0  0
  7  8  1  0  0  0  0
  7  9  1  0  0  0  0
  9 10  1  0  0  0  0
  9 11  1  0  0  0  0
  9 21  1  0  0  0  0
 11 12  1  0  0  0  0
 11 13  1  0  0  0  0
 11 14  1  0  0  0  0
 14 15  1  0  0  0  0
 14 16  1  0  0  0  0
 14 17  1  0  0  0  0
 17 18  2  0  0  0  0
 17 19  1  0  0  0  0
 19 20  1  0  0  0  0
 21 22  2  0  0  0  0
 21 23  1  0  0  0  0
 23 24  1  0  0  0  0
 23 25  1  0  0  0  0
 25 26  1  0  0  0  0
 25 27  1  0  0  0  0
 25 28  1  0  0  0  0
M  END
$$$$

  -OEChem-01062216073D

 28 27  0     1  0  0  0  0  0999 V2000
   -3.1317   -3.0049    1.2476 H   0  0  0  0  0  0  0  0  0  0  0  0
   -2.9741   -2.1151    0.6312 C   0  0  0  0  0  0  0  0  0  0  0  0
   -2.8250   -2.4277   -0.4050 H   0  0  0  0  0  0  0  0  0  0  0  0
   -3.8647   -1.4851    0.6918 H   0  0  0  0  0  0  0  0  0  0  0  0
   -1.7604   -1.3484    1.1218 C   0  0  0  0  0  0  0  0  0  0  0  0
   -1.1653   -1.7440    2.1059 O   0  0  0  0  0  0  0  0  0  0  0  0
   -1.4585   -0.1296    0.5496 N   0  0  0  0  0  0  0  0  0  0  0  0
   -2.1073    0.1460   -0.1812 H   0  0  0  0  0  0  0  0  0  0  0  0
   -0.1654    0.5985    0.5513 C   0  0  1  0  0  0  0  0  0  0  0  0
   -0.1342    1.1899   -0.3692 H   0  0  0  0  0  0  0  0  0  0  0  0
   -0.2280    1.5677    1.7537 C   0  0  0  0  0  0  0  0  0  0  0  0
   -0.4426    0.9966    2.6649 H   0  0  0  0  0  0  0  0  0  0  0  0
    0.7473    2.0482    1.8951 H   0  0  0  0  0  0  0  0  0  0  0  0
   -1.2860    2.6758    1.5578 C   0  0  0  0  0  0  0  0  0  0  0  0
   -1.0403    3.2542    0.6631 H   0  0  0  0  0  0  0  0  0  0  0  0
   -2.2709    2.2267    1.4084 H   0  0  0  0  0  0  0  0  0  0  0  0
   -1.3976    3.6445    2.7358 C   0  0  0  0  0  0  0  0  0  0  0  0
   -0.7823    3.4347    3.7678 O   0  0  0  0  0  0  0  0  0  0  0  0
   -2.2075    4.7134    2.5593 O   0  0  0  0  0  0  0  0  0  0  0  0
   -2.1623    5.2143    3.3882 H   0  0  0  0  0  0  0  0  0  0  0  0
    1.2273   -0.1116    0.5881 C   0  0  0  0  0  0  0  0  0  0  0  0
    2.2092    0.5655    0.3241 O   0  0  0  0  0  0  0  0  0  0  0  0
    1.6106   -1.3112    1.1387 N   0  0  0  0  0  0  0  0  0  0  0  0
    2.6015   -1.2769    1.3624 H   0  0  0  0  0  0  0  0  0  0  0  0
    1.1901   -2.5686    0.5329 C   0  0  0  0  0  0  0  0  0  0  0  0
    2.0358   -3.0330    0.0161 H   0  0  0  0  0  0  0  0  0  0  0  0
    0.8343   -3.2600    1.3036 H   0  0  0  0  0  0  0  0  0  0  0  0
    0.3919   -2.4170   -0.1999 H   0  0  0  0  0  0  0  0  0  0  0  0
  1  2  1  0  0  0  0
  2  3  1  0  0  0  0
  2  4  1  0  0  0  0
  2  5  1  0  0  0  0
  5  6  2  0  0  0  0
  5  7  1  0  0  0  0
  7  8  1  0  0  0  0
  7  9  1  0  0  0  0
  9 10  1  0  0  0  0
  9 11  1  0  0  0  0
  9 21  1  0  0  0  0
 11 12  1  0  0  0  0
 11 13  1  0  0  0  0
 11 14  1  0  0  0  0
 14 15  1  0  0  0  0
 14 16  1  0  0  0  0
 14 17  1  0  0  0  0
 17 18  2  0  0  0  0
 17 19  1  0  0  0  0
 19 20  1  0  0  0  0
 21 22  2  0  0  0  0
 21 23  1  0  0  0  0
 23 24  1  0  0  0  0
 23 25  1  0  0  0  0
 25 26  1  0  0  0  0
 25 27  1  0  0  0  0
 25 28  1  0  0  0  0
M  END
$$$$

  -OEChem-01062216073D

 28 27  0     1  0  0  0  0  0999 V2000
   -3.3949   -3.0091    1.1756 H   0  0  0  0  0  0  0  0  0  0  0  0
   -3.3640   -2.0260    0.6969 C   0  0  0  0  0  0  0  0  0  0  0  0
   -4.2055   -1.4305    1.0593 H   0  0  0  0  0  0  0  0  0  0  0  0
   -3.4578   -2.1602   -0.3835 H   0  0  0  0  0  0  0  0  0  0  0  0
   -2.0564   -1.3285    1.0212 C   0  0  0  0  0  0  0  0  0  0  0  0
   -1.3401   -1.7872    1.8897 O   0  0  0  0  0  0  0  0  0  0  0  0
   -1.8127   -0.0798    0.4872 N   0  0  0  0  0  0  0  0  0  0  0  0
   -2.5740    0.2432   -0.1020 H   0  0  0  0  0  0  0  0  0  0  0  0
   -0.5047    0.5529    0.1860 C   0  0  1  0  0  0  0  0  0  0  0  0
   -0.6672    1.2371   -0.6535 H   0  0  0  0  0  0  0  0  0  0  0  0
   -0.1112    1.3839    1.4233 C   0  0  0  0  0  0  0  0  0  0  0  0
   -0.1147    0.7377    2.3088 H   0  0  0  0  0  0  0  0  0  0  0  0
    0.9097    1.7640    1.2984 H   0  0  0  0  0  0  0  0  0  0  0  0
   -1.0541    2.5856    1.6453 C   0  0  0  0  0  0  0  0  0  0  0  0
   -1.0207    3.2384    0.7688 H   0  0  0  0  0  0  0  0  0  0  0  0
   -2.0819    2.2332    1.7623 H   0  0  0  0  0  0  0  0  0  0  0  0
   -0.7093    3.4219    2.8784 C   0  0  0  0  0  0  0  0  0  0  0  0
    0.1551    3.0469    3.6534 O   0  0  0  0  0  0  0  0  0  0  0  0
   -1.4096    4.5669    3.0453 O   0  0  0  0  0  0  0  0  0  0  0  0
   -1.0695    4.9652    3.8611 H   0  0  0  0  0  0  0  0  0  0  0  0
    0.7476   -0.2843   -0.2185 C   0  0  0  0  0  0  0  0  0  0  0  0
    1.4767    0.1924   -1.0742 O   0  0  0  0  0  0  0  0  0  0  0  0
    0.9702   -1.6345   -0.0991 N   0  0  0  0  0  0  0  0  0  0  0  0
    1.5629   -1.9353   -0.8682 H   0  0  0  0  0  0  0  0  0  0  0  0
    1.4223   -2.1449    1.1908 C   0  0  0  0  0  0  0  0  0  0  0  0
    1.2040   -1.4441    2.0038 H   0  0  0  0  0  0  0  0  0  0  0  0
    0.9313   -3.0975    1.4131 H   0  0  0  0  0  0  0  0  0  0  0  0
    2.5043   -2.3082    1.1701 H   0  0  0  0  0  0  0  0  0  0  0  0
  1  2  1  0  0  0  0
  2  3  1  0  0  0  0
  2  4  1  0  0  0  0
  2  5  1  0  0  0  0
  5  6  2  0  0  0  0
  5  7  1  0  0  0  0
  7  8  1  0  0  0  0
  7  9  1  0  0  0  0
  9 10  1  0  0  0  0
  9 11  1  0  0  0  0
  9 21  1  0  0  0  0
 11 12  1  0  0  0  0
 11 13  1  0  0  0  0
 11 14  1  0  0  0  0
 14 15  1  0  0  0  0
 14 16  1  0  0  0  0
 14 17  1  0  0  0  0
 17 18  2  0  0  0  0
 17 19  1  0  0  0  0
 19 20  1  0  0  0  0
 21 22  2  0  0  0  0
 21 23  1  0  0  0  0
 23 24  1  0  0  0  0
 23 25  1  0  0  0  0
 25 26  1  0  0  0  0
 25 27  1  0  0  0  0
 25 28  1  0  0  0  0
M  END
$$$$

  -OEChem-01062216073D

 28 27  0     1  0  0  0  0  0999 V2000
   -3.7814   -2.6509    1.2372 H   0  0  0  0  0  0  0  0  0  0  0  0
   -3.5939   -1.6865    0.7561 C   0  0  0  0  0  0  0  0  0  0  0  0
   -4.2753   -0.9449    1.1800 H   0  0  0  0  0  0  0  0  0  0  0  0
   -3.7917   -1.7845   -0.3141 H   0  0  0  0  0  0  0  0  0  0  0  0
   -2.1563   -1.2588    0.9830 C   0  0  0  0  0  0  0  0  0  0  0  0
   -1.4424   -1.9368    1.6999 O   0  0  0  0  0  0  0  0  0  0  0  0
   -1.7175   -0.0698    0.4316 N   0  0  0  0  0  0  0  0  0  0  0  0
   -2.4242    0.4210   -0.1083 H   0  0  0  0  0  0  0  0  0  0  0  0
   -0.3453    0.4966    0.3557 C   0  0  1  0  0  0  0  0  0  0  0  0
   -0.2939    1.1073   -0.5513 H   0  0  0  0  0  0  0  0  0  0  0  0
   -0.1972    1.4196    1.5862 C   0  0  0  0  0  0  0  0  0  0  0  0
   -0.4131    0.8460    2.4952 H   0  0  0  0  0  0  0  0  0  0  0  0
    0.8379    1.7722    1.6643 H   0  0  0  0  0  0  0  0  0  0  0  0
   -1.1203    2.6558    1.5048 C   0  0  0  0  0  0  0  0  0  0  0  0
   -0.8689    3.2336    0.6112 H   0  0  0  0  0  0  0  0  0  0  0  0
   -2.1623    2.3390    1.4181 H   0  0  0  0  0  0  0  0  0  0  0  0
   -1.0227    3.5854    2.7153 C   0  0  0  0  0  0  0  0  0  0  0  0
   -0.3638    3.2612    3.6890 O   0  0  0  0  0  0  0  0  0  0  0  0
   -1.7055    4.7502    2.6355 O   0  0  0  0  0  0  0  0  0  0  0  0
   -1.5332    5.2123    3.4704 H   0  0  0  0  0  0  0  0  0  0  0  0
    0.9152   -0.4174    0.2733 C   0  0  0  0  0  0  0  0  0  0  0  0
    1.9924    0.1226    0.0525 O   0  0  0  0  0  0  0  0  0  0  0  0
    0.8841   -1.7985    0.2638 N   0  0  0  0  0  0  0  0  0  0  0  0
    0.0479   -2.2075    0.6834 H   0  0  0  0  0  0  0  0  0  0  0  0
    2.0882   -2.6190    0.2138 C   0  0  0  0  0  0  0  0  0  0  0  0
    2.7255   -2.4178    1.0812 H   0  0  0  0  0  0  0  0  0  0  0  0
    1.8212   -3.6802    0.2171 H   0  0  0  0  0  0  0  0  0  0  0  0
    2.6573   -2.4109   -0.6982 H   0  0  0  0  0  0  0  0  0  0  0  0
  1  2  1  0  0  0  0
  2  3  1  0  0  0  0
  2  4  1  0  0  0  0
  2  5  1  0  0  0  0
  5  6  2  0  0  0  0
  5  7  1  0  0  0  0
  7  8  1  0  0  0  0
  7  9  1  0  0  0  0
  9 10  1  0  0  0  0
  9 11  1  0  0  0  0
  9 21  1  0  0  0  0
 11 12  1  0  0  0  0
 11 13  1  0  0  0  0
 11 14  1  0  0  0  0
 14 15  1  0  0  0  0
 14 16  1  0  0  0  0
 14 17  1  0  0  0  0
 17 18  2  0  0  0  0
 17 19  1  0  0  0  0
 19 20  1  0  0  0  0
 21 22  2  0  0  0  0
 21 23  1  0  0  0  0
 23 24  1  0  0  0  0
 23 25  1  0  0  0  0
 25 26  1  0  0  0  0
 25 27  1  0  0  0  0
 25 28  1  0  0  0  0
M  END
$$$$

  -OEChem-01062216073D

 28 27  0     1  0  0  0  0  0999 V2000
   -3.7368   -2.6329    1.2862 H   0  0  0  0  0  0  0  0  0  0  0  0
   -3.5589   -1.6653    0.8079 C   0  0  0  0  0  0  0  0  0  0  0  0
   -4.1914   -0.9154    1.2892 H   0  0  0  0  0  0  0  0  0  0  0  0
   -3.8316   -1.7398   -0.2476 H   0  0  0  0  0  0  0  0  0  0  0  0
   -2.0990   -1.2751    0.9421 C   0  0  0  0  0  0  0  0  0  0  0  0
   -1.3407   -2.0122    1.5452 O   0  0  0  0  0  0  0  0  0  0  0  0
   -1.6762   -0.0730    0.4069 N   0  0  0  0  0  0  0  0  0  0  0  0
   -2.4082    0.4636   -0.0489 H   0  0  0  0  0  0  0  0  0  0  0  0
   -0.3103    0.5099    0.3473 C   0  0  1  0  0  0  0  0  0  0  0  0
   -0.2530    1.1243   -0.5565 H   0  0  0  0  0  0  0  0  0  0  0  0
   -0.1910    1.4306    1.5847 C   0  0  0  0  0  0  0  0  0  0  0  0
   -0.4092    0.8491    2.4880 H   0  0  0  0  0  0  0  0  0  0  0  0
    0.8362    1.8010    1.6790 H   0  0  0  0  0  0  0  0  0  0  0  0
   -1.1299    2.6543    1.4962 C   0  0  0  0  0  0  0  0  0  0  0  0
   -0.8747    3.2394    0.6083 H   0  0  0  0  0  0  0  0  0  0  0  0
   -2.1661    2.3243    1.3948 H   0  0  0  0  0  0  0  0  0  0  0  0
   -1.0609    3.5799    2.7118 C   0  0  0  0  0  0  0  0  0  0  0  0
   -0.4106    3.2606    3.6928 O   0  0  0  0  0  0  0  0  0  0  0  0
   -1.7600    4.7346    2.6283 O   0  0  0  0  0  0  0  0  0  0  0  0
   -1.6042    5.1957    3.4671 H   0  0  0  0  0  0  0  0  0  0  0  0
    0.9474   -0.4087    0.2635 C   0  0  0  0  0  0  0  0  0  0  0  0
    2.0542    0.1170    0.2683 O   0  0  0  0  0  0  0  0  0  0  0  0
    0.8829   -1.7512   -0.0585 N   0  0  0  0  0  0  0  0  0  0  0  0
    0.0142   -2.1997    0.2341 H   0  0  0  0  0  0  0  0  0  0  0  0
    2.0705   -2.5927   -0.1486 C   0  0  0  0  0  0  0  0  0  0  0  0
    2.6010   -2.6111    0.8093 H   0  0  0  0  0  0  0  0  0  0  0  0
    1.7875   -3.6170   -0.4092 H   0  0  0  0  0  0  0  0  0  0  0  0
    2.7500   -2.2172   -0.9208 H   0  0  0  0  0  0  0  0  0  0  0  0
  1  2  1  0  0  0  0
  2  3  1  0  0  0  0
  2  4  1  0  0  0  0
  2  5  1  0  0  0  0
  5  6  2  0  0  0  0
  5  7  1  0  0  0  0
  7  8  1  0  0  0  0
  7  9  1  0  0  0  0
  9 10  1  0  0  0  0
  9 11  1  0  0  0  0
  9 21  1  0  0  0  0
 11 12  1  0  0  0  0
 11 13  1  0  0  0  0
 11 14  1  0  0  0  0
 14 15  1  0  0  0  0
 14 16  1  0  0  0  0
 14 17  1  0  0  0  0
 17 18  2  0  0  0  0
 17 19  1  0  0  0  0
 19 20  1  0  0  0  0
 21 22  2  0  0  0  0
 21 23  1  0  0  0  0
 23 24  1  0  0  0  0
 23 25  1  0  0  0  0
 25 26  1  0  0  0  0
 25 27  1  0  0  0  0
 25 28  1  0  0  0  0
M  END
$$$$

  -OEChem-01062216073D

 28 27  0     1  0  0  0  0  0999 V2000
   -3.6606   -2.6318    1.3331 H   0  0  0  0  0  0  0  0  0  0  0  0
   -3.4996   -1.6597    0.8579 C   0  0  0  0  0  0  0  0  0  0  0  0
   -4.0841   -0.9077    1.3939 H   0  0  0  0  0  0  0  0  0  0  0  0
   -3.8458   -1.7127   -0.1772 H   0  0  0  0  0  0  0  0  0  0  0  0
   -2.0271   -1.2960    0.8952 C   0  0  0  0  0  0  0  0  0  0  0  0
   -1.2317   -2.0862    1.3683 O   0  0  0  0  0  0  0  0  0  0  0  0
   -1.6256   -0.0755    0.3851 N   0  0  0  0  0  0  0  0  0  0  0  0
   -2.3807    0.5046    0.0321 H   0  0  0  0  0  0  0  0  0  0  0  0
   -0.2674    0.5256    0.3548 C   0  0  1  0  0  0  0  0  0  0  0  0
   -0.1978    1.1458   -0.5439 H   0  0  0  0  0  0  0  0  0  0  0  0
   -0.1819    1.4448    1.5970 C   0  0  0  0  0  0  0  0  0  0  0  0
   -0.4084    0.8589    2.4954 H   0  0  0  0  0  0  0  0  0  0  0  0
    0.8372    1.8308    1.7116 H   0  0  0  0  0  0  0  0  0  0  0  0
   -1.1359    2.6559    1.4893 C   0  0  0  0  0  0  0  0  0  0  0  0
   -0.8699    3.2446    0.6070 H   0  0  0  0  0  0  0  0  0  0  0  0
   -2.1653    2.3126    1.3663 H   0  0  0  0  0  0  0  0  0  0  0  0
   -1.1060    3.5836    2.7047 C   0  0  0  0  0  0  0  0  0  0  0  0
   -0.4724    3.2756    3.6998 O   0  0  0  0  0  0  0  0  0  0  0  0
   -1.8203    4.7276    2.6037 O   0  0  0  0  0  0  0  0  0  0  0  0
   -1.6896    5.1932    3.4443 H   0  0  0  0  0  0  0  0  0  0  0  0
    0.9811   -0.4048    0.2716 C   0  0  0  0  0  0  0  0  0  0  0  0
    2.0908    0.0472    0.5278 O   0  0  0  0  0  0  0  0  0  0  0  0
    0.9197   -1.6322   -0.3621 N   0  0  0  0  0  0  0  0  0  0  0  0
    0.0157   -2.0904   -0.2557 H   0  0  0  0  0  0  0  0  0  0  0  0
    2.0871   -2.4963   -0.4933 C   0  0  0  0  0  0  0  0  0  0  0  0
    2.4825   -2.7591    0.4936 H   0  0  0  0  0  0  0  0  0  0  0  0
    1.8167   -3.4185   -1.0164 H   0  0  0  0  0  0  0  0  0  0  0  0
    2.8743   -1.9948   -1.0662 H   0  0  0  0  0  0  0  0  0  0  0  0
  1  2  1  0  0  0  0
  2  3  1  0  0  0  0
  2  4  1  0  0  0  0
  2  5  1  0  0  0  0
  5  6  2  0  0  0  0
  5  7  1  0  0  0  0
  7  8  1  0  0  0  0
  7  9  1  0  0  0  0
  9 10  1  0  0  0  0
  9 11  1  0  0  0  0
  9 21  1  0  0  0  0
 11 12  1  0  0  0  0
 11 13  1  0  0  0  0
 11 14  1  0  0  0  0
 14 15  1  0  0  0  0
 14 16  1  0  0  0  0
 14 17  1  0  0  0  0
 17 18  2  0  0  0  0
 17 19  1  0  0  0  0
 19 20  1  0  0  0  0
 21 22  2  0  0  0  0
 21 23  1  0  0  0  0
 23 24  1  0  0  0  0
 23 25  1  0  0  0  0
 25 26  1  0  0  0  0
 25 27  1  0  0  0  0
 25 28  1  0  0  0  0
M  END
$$$$

  -OEChem-01062216073D

 28 27  0     1  0  0  0  0  0999 V2000
   -3.5398   -2.6805    1.3400 H   0  0  0  0  0  0  0  0  0  0  0  0
   -3.4134   -1.6969    0.8783 C   0  0  0  0  0  0  0  0  0  0  0  0
   -3.9881   -0.9653    1.4514 H   0  0  0  0  0  0  0  0  0  0  0  0
   -3.7998   -1.7357   -0.1431 H   0  0  0  0  0  0  0  0  0  0  0  0
   -1.9466   -1.3097    0.8655 C   0  0  0  0  0  0  0  0  0  0  0  0
   -1.1198   -2.1009    1.2782 O   0  0  0  0  0  0  0  0  0  0  0  0
   -1.5858   -0.0724    0.3634 N   0  0  0  0  0  0  0  0  0  0  0  0
   -2.3634    0.5141    0.0757 H   0  0  0  0  0  0  0  0  0  0  0  0
   -0.2415    0.5563    0.3477 C   0  0  1  0  0  0  0  0  0  0  0  0
   -0.1699    1.1801   -0.5482 H   0  0  0  0  0  0  0  0  0  0  0  0
   -0.1722    1.4740    1.5918 C   0  0  0  0  0  0  0  0  0  0  0  0
   -0.3872    0.8820    2.4890 H   0  0  0  0  0  0  0  0  0  0  0  0
    0.8407    1.8771    1.7039 H   0  0  0  0  0  0  0  0  0  0  0  0
   -1.1442    2.6703    1.4885 C   0  0  0  0  0  0  0  0  0  0  0  0
   -0.8876    3.2657    0.6079 H   0  0  0  0  0  0  0  0  0  0  0  0
   -2.1682    2.3110    1.3651 H   0  0  0  0  0  0  0  0  0  0  0  0
   -1.1274    3.5935    2.7080 C   0  0  0  0  0  0  0  0  0  0  0  0
   -0.4888    3.2912    3.7015 O   0  0  0  0  0  0  0  0  0  0  0  0
   -1.8576    4.7276    2.6118 O   0  0  0  0  0  0  0  0  0  0  0  0
   -1.7331    5.1901    3.4551 H   0  0  0  0  0  0  0  0  0  0  0  0
    0.9976   -0.3847    0.2651 C   0  0  0  0  0  0  0  0  0  0  0  0
    2.0616   -0.0732    0.7868 O   0  0  0  0  0  0  0  0  0  0  0  0
    0.9986   -1.4378   -0.6318 N   0  0  0  0  0  0  0  0  0  0  0  0
    0.0746   -1.8132   -0.8254 H   0  0  0  0  0  0  0  0  0  0  0  0
    2.1287   -2.3519   -0.7469 C   0  0  0  0  0  0  0  0  0  0  0  0
    2.3092   -2.8588    0.2070 H   0  0  0  0  0  0  0  0  0  0  0  0
    1.9255   -3.1088   -1.5102 H   0  0  0  0  0  0  0  0  0  0  0  0
    3.0355   -1.8092   -1.0345 H   0  0  0  0  0  0  0  0  0  0  0  0
  1  2  1  0  0  0  0
  2  3  1  0  0  0  0
  2  4  1  0  0  0  0
  2  5  1  0  0  0  0
  5  6  2  0  0  0  0
  5  7  1  0  0  0  0
  7  8  1  0  0  0  0
  7  9  1  0  0  0  0
  9 10  1  0  0  0  0
  9 11  1  0  0  0  0
  9 21  1  0  0  0  0
 11 12  1  0  0  0  0
 11 13  1  0  0  0  0
 11 14  1  0  0  0  0
 14 15  1  0  0  0  0
 14 16  1  0  0  0  0
 14 17  1  0  0  0  0
 17 18  2  0  0  0  0
 17 19  1  0  0  0  0
 19 20  1  0  0  0  0
 21 22  2  0  0  0  0
 21 23  1  0  0  0  0
 23 24  1  0  0  0  0
 23 25  1  0  0  0  0
 25 26  1  0  0  0  0
 25 27  1  0  0  0  0
 25 28  1  0  0  0  0
M  END
$$$$

  -OEChem-01062216073D

 28 27  0     1  0  0  0  0  0999 V2000
   -3.4664   -2.7046    1.3448 H   0  0  0  0  0  0  0  0  0  0  0  0
   -3.3586   -1.7125    0.8966 C   0  0  0  0  0  0  0  0  0  0  0  0
   -3.9157   -0.9933    1.5018 H   0  0  0  0  0  0  0  0  0  0  0  0
   -3.7784   -1.7352   -0.1119 H   0  0  0  0  0  0  0  0  0  0  0  0
   -1.8942   -1.3200    0.8415 C   0  0  0  0  0  0  0  0  0  0  0  0
   -1.0537   -2.1167    1.2135 O   0  0  0  0  0  0  0  0  0  0  0  0
   -1.5562   -0.0727    0.3463 N   0  0  0  0  0  0  0  0  0  0  0  0
   -2.3460    0.5179    0.1046 H   0  0  0  0  0  0  0  0  0  0  0  0
   -0.2210    0.5724    0.3484 C   0  0  1  0  0  0  0  0  0  0  0  0
   -0.1430    1.2012   -0.5434 H   0  0  0  0  0  0  0  0  0  0  0  0
   -0.1657    1.4870    1.5941 C   0  0  0  0  0  0  0  0  0  0  0  0
   -0.3801    0.8914    2.4891 H   0  0  0  0  0  0  0  0  0  0  0  0
    0.8451    1.8949    1.7094 H   0  0  0  0  0  0  0  0  0  0  0  0
   -1.1482    2.6744    1.4861 C   0  0  0  0  0  0  0  0  0  0  0  0
   -0.8932    3.2726    0.6072 H   0  0  0  0  0  0  0  0  0  0  0  0
   -2.1676    2.3044    1.3566 H   0  0  0  0  0  0  0  0  0  0  0  0
   -1.1492    3.5979    2.7052 C   0  0  0  0  0  0  0  0  0  0  0  0
   -0.5147    3.3025    3.7032 O   0  0  0  0  0  0  0  0  0  0  0  0
   -1.8922    4.7235    2.6039 O   0  0  0  0  0  0  0  0  0  0  0  0
   -1.7809    5.1867    3.4486 H   0  0  0  0  0  0  0  0  0  0  0  0
    1.0117   -0.3747    0.2738 C   0  0  0  0  0  0  0  0  0  0  0  0
    1.9729   -0.2418    1.0222 O   0  0  0  0  0  0  0  0  0  0  0  0
    1.1442   -1.2102   -0.8208 N   0  0  0  0  0  0  0  0  0  0  0  0
    0.2776   -1.4296   -1.3010 H   0  0  0  0  0  0  0  0  0  0  0  0
    2.2484   -2.1545   -0.9440 C   0  0  0  0  0  0  0  0  0  0  0  0
    2.2458   -2.8569   -0.1036 H   0  0  0  0  0  0  0  0  0  0  0  0
    2.1570   -2.7241   -1.8734 H   0  0  0  0  0  0  0  0  0  0  0  0
    3.2074   -1.6258   -0.9579 H   0  0  0  0  0  0  0  0  0  0  0  0
  1  2  1  0  0  0  0
  2  3  1  0  0  0  0
  2  4  1  0  0  0  0
  2  5  1  0  0  0  0
  5  6  2  0  0  0  0
  5  7  1  0  0  0  0
  7  8  1  0  0  0  0
  7  9  1  0  0  0  0
  9 10  1  0  0  0  0
  9 11  1  0  0  0  0
  9 21  1  0  0  0  0
 11 12  1  0  0  0  0
 11 13  1  0  0  0  0
 11 14  1  0  0  0  0
 14 15  1  0  0  0  0
 14 16  1  0  0  0  0
 14 17  1  0  0  0  0
 17 18  2  0  0  0  0
 17 19  1  0  0  0  0
 19 20  1  0  0  0  0
 21 22  2  0  0  0  0
 21 23  1  0  0  0  0
 23 24  1  0  0  0  0
 23 25  1  0  0  0  0
 25 26  1  0  0  0  0
 25 27  1  0  0  0  0
 25 28  1  0  0  0  0
M  END
$$$$

  -OEChem-01062216073D

 28 27  0     1  0  0  0  0  0999 V2000
   -3.4619   -2.7047    1.3593 H   0  0  0  0  0  0  0  0  0  0  0  0
   -3.3559   -1.7147    0.9064 C   0  0  0  0  0  0  0  0  0  0  0  0
   -3.9025   -0.9913    1.5160 H   0  0  0  0  0  0  0  0  0  0  0  0
   -3.7887   -1.7391   -0.0965 H   0  0  0  0  0  0  0  0  0  0  0  0
   -1.8905   -1.3286    0.8317 C   0  0  0  0  0  0  0  0  0  0  0  0
   -1.0494   -2.1355    1.1787 O   0  0  0  0  0  0  0  0  0  0  0  0
   -1.5550   -0.0805    0.3360 N   0  0  0  0  0  0  0  0  0  0  0  0
   -2.3469    0.5144    0.1137 H   0  0  0  0  0  0  0  0  0  0  0  0
   -0.2216    0.5663    0.3473 C   0  0  1  0  0  0  0  0  0  0  0  0
   -0.1397    1.1978   -0.5422 H   0  0  0  0  0  0  0  0  0  0  0  0
   -0.1682    1.4807    1.5924 C   0  0  0  0  0  0  0  0  0  0  0  0
   -0.3867    0.8858    2.4871 H   0  0  0  0  0  0  0  0  0  0  0  0
    0.8451    1.8820    1.7095 H   0  0  0  0  0  0  0  0  0  0  0  0
   -1.1482    2.6696    1.4827 C   0  0  0  0  0  0  0  0  0  0  0  0
   -0.8902    3.2679    0.6047 H   0  0  0  0  0  0  0  0  0  0  0  0
   -2.1680    2.3011    1.3510 H   0  0  0  0  0  0  0  0  0  0  0  0
   -1.1506    3.5931    2.7019 C   0  0  0  0  0  0  0  0  0  0  0  0
   -0.5190    3.2971    3.7014 O   0  0  0  0  0  0  0  0  0  0  0  0
   -1.8884    4.7217    2.5969 O   0  0  0  0  0  0  0  0  0  0  0  0
   -1.7779    5.1850    3.4417 H   0  0  0  0  0  0  0  0  0  0  0  0
    1.0110   -0.3810    0.2843 C   0  0  0  0  0  0  0  0  0  0  0  0
    1.8473   -0.4114    1.1795 O   0  0  0  0  0  0  0  0  0  0  0  0
    1.3258   -0.9815   -0.9219 N   0  0  0  0  0  0  0  0  0  0  0  0
    0.5648   -1.0580   -1.5886 H   0  0  0  0  0  0  0  0  0  0  0  0
    2.4580   -1.8897   -1.0644 C   0  0  0  0  0  0  0  0  0  0  0  0
    2.3512   -2.7425   -0.3854 H   0  0  0  0  0  0  0  0  0  0  0  0
    2.5148   -2.2665   -2.0898 H   0  0  0  0  0  0  0  0  0  0  0  0
    3.3965   -1.3737   -0.8355 H   0  0  0  0  0  0  0  0  0  0  0  0
  1  2  1  0  0  0  0
  2  3  1  0  0  0  0
  2  4  1  0  0  0  0
  2  5  1  0  0  0  0
  5  6  2  0  0  0  0
  5  7  1  0  0  0  0
  7  8  1  0  0  0  0
  7  9  1  0  0  0  0
  9 10  1  0  0  0  0
  9 11  1  0  0  0  0
  9 21  1  0  0  0  0
 11 12  1  0  0  0  0
 11 13  1  0  0  0  0
 11 14  1  0  0  0  0
 14 15  1  0  0  0  0
 14 16  1  0  0  0  0
 14 17  1  0  0  0  0
 17 18  2  0  0  0  0
 17 19  1  0  0  0  0
 19 20  1  0  0  0  0
 21 22  2  0  0  0  0
 21 23  1  0  0  0  0
 23 24  1  0  0  0  0
 23 25  1  0  0  0  0
 25 26  1  0  0  0  0
 25 27  1  0  0  0  0
 25 28  1  0  0  0  0
M  END
$$$$

  -OEChem-01062216073D

 28 27  0     1  0  0  0  0  0999 V2000
   -3.4898   -2.6869    1.3824 H   0  0  0  0  0  0  0  0  0  0  0  0
   -3.3775   -1.6982    0.9283 C   0  0  0  0  0  0  0  0  0  0  0  0
   -3.8937   -0.9660    1.5537 H   0  0  0  0  0  0  0  0  0  0  0  0
   -3.8369   -1.7125   -0.0629 H   0  0  0  0  0  0  0  0  0  0  0  0
   -1.9073   -1.3400    0.8153 C   0  0  0  0  0  0  0  0  0  0  0  0
   -1.0741   -2.1697    1.1237 O   0  0  0  0  0  0  0  0  0  0  0  0
   -1.5637   -0.0945    0.3189 N   0  0  0  0  0  0  0  0  0  0  0  0
   -2.3537    0.5114    0.1229 H   0  0  0  0  0  0  0  0  0  0  0  0
   -0.2286    0.5472    0.3373 C   0  0  1  0  0  0  0  0  0  0  0  0
   -0.1447    1.1804   -0.5505 H   0  0  0  0  0  0  0  0  0  0  0  0
   -0.1736    1.4604    1.5825 C   0  0  0  0  0  0  0  0  0  0  0  0
   -0.3995    0.8660    2.4759 H   0  0  0  0  0  0  0  0  0  0  0  0
    0.8436    1.8516    1.7022 H   0  0  0  0  0  0  0  0  0  0  0  0
   -1.1465    2.6550    1.4727 C   0  0  0  0  0  0  0  0  0  0  0  0
   -0.8847    3.2532    0.5957 H   0  0  0  0  0  0  0  0  0  0  0  0
   -2.1681    2.2919    1.3396 H   0  0  0  0  0  0  0  0  0  0  0  0
   -1.1446    3.5760    2.6938 C   0  0  0  0  0  0  0  0  0  0  0  0
   -0.5161    3.2743    3.6936 O   0  0  0  0  0  0  0  0  0  0  0  0
   -1.8760    4.7087    2.5907 O   0  0  0  0  0  0  0  0  0  0  0  0
   -1.7652    5.1684    3.4375 H   0  0  0  0  0  0  0  0  0  0  0  0
    1.0087   -0.3949    0.2859 C   0  0  0  0  0  0  0  0  0  0  0  0
    1.7064   -0.5895    1.2743 O   0  0  0  0  0  0  0  0  0  0  0  0
    1.5270   -0.7483   -0.9480 N   0  0  0  0  0  0  0  0  0  0  0  0
    0.9008   -0.6639   -1.7417 H   0  0  0  0  0  0  0  0  0  0  0  0
    2.7109   -1.5889   -1.0869 C   0  0  0  0  0  0  0  0  0  0  0  0
    2.5553   -2.5533   -0.5913 H   0  0  0  0  0  0  0  0  0  0  0  0
    2.9241   -1.7721   -2.1442 H   0  0  0  0  0  0  0  0  0  0  0  0
    3.5829   -1.1003   -0.6394 H   0  0  0  0  0  0  0  0  0  0  0  0
  1  2  1  0  0  0  0
  2  3  1  0  0  0  0
  2  4  1  0  0  0  0
  2  5  1  0  0  0  0
  5  6  2  0  0  0  0
  5  7  1  0  0  0  0
  7  8  1  0  0  0  0
  7  9  1  0  0  0  0
  9 10  1  0  0  0  0
  9 11  1  0  0  0  0
  9 21  1  0  0  0  0
 11 12  1  0  0  0  0
 11 13  1  0  0  0  0
 11 14  1  0  0  0  0
 14 15  1  0  0  0  0
 14 16  1  0  0  0  0
 14 17  1  0  0  0  0
 17 18  2  0  0  0  0
 17 19  1  0  0  0  0
 19 20  1  0  0  0  0
 21 22  2  0  0  0  0
 21 23  1  0  0  0  0
 23 24  1  0  0  0  0
 23 25  1  0  0  0  0
 25 26  1  0  0  0  0
 25 27  1  0  0  0  0
 25 28  1  0  0  0  0
M  END
$$$$

  -OEChem-01062216073D

 28 27  0     1  0  0  0  0  0999 V2000
   -3.5327   -2.6632    1.4114 H   0  0  0  0  0  0  0  0  0  0  0  0
   -3.4092   -1.6800    0.9481 C   0  0  0  0  0  0  0  0  0  0  0  0
   -3.8951   -0.9330    1.5803 H   0  0  0  0  0  0  0  0  0  0  0  0
   -3.8910   -1.6901   -0.0324 H   0  0  0  0  0  0  0  0  0  0  0  0
   -1.9345   -1.3546    0.7995 C   0  0  0  0  0  0  0  0  0  0  0  0
   -1.1153   -2.2133    1.0608 O   0  0  0  0  0  0  0  0  0  0  0  0
   -1.5775   -0.1132    0.3027 N   0  0  0  0  0  0  0  0  0  0  0  0
   -2.3630    0.5059    0.1326 H   0  0  0  0  0  0  0  0  0  0  0  0
   -0.2384    0.5202    0.3234 C   0  0  1  0  0  0  0  0  0  0  0  0
   -0.1568    1.1545   -0.5639 H   0  0  0  0  0  0  0  0  0  0  0  0
   -0.1756    1.4314    1.5688 C   0  0  0  0  0  0  0  0  0  0  0  0
   -0.4075    0.8383    2.4615 H   0  0  0  0  0  0  0  0  0  0  0  0
    0.8458    1.8113    1.6895 H   0  0  0  0  0  0  0  0  0  0  0  0
   -1.1393    2.6336    1.4612 C   0  0  0  0  0  0  0  0  0  0  0  0
   -0.8731    3.2307    0.5848 H   0  0  0  0  0  0  0  0  0  0  0  0
   -2.1640    2.2792    1.3282 H   0  0  0  0  0  0  0  0  0  0  0  0
   -1.1293    3.5533    2.6832 C   0  0  0  0  0  0  0  0  0  0  0  0
   -0.5022    3.2456    3.6819 O   0  0  0  0  0  0  0  0  0  0  0  0
   -1.8513    4.6922    2.5816 O   0  0  0  0  0  0  0  0  0  0  0  0
   -1.7373    5.1497    3.4292 H   0  0  0  0  0  0  0  0  0  0  0  0
    1.0066   -0.4126    0.2794 C   0  0  0  0  0  0  0  0  0  0  0  0
    1.5731   -0.7631    1.3077 O   0  0  0  0  0  0  0  0  0  0  0  0
    1.7213   -0.5169   -0.9023 N   0  0  0  0  0  0  0  0  0  0  0  0
    1.2324   -0.2725   -1.7568 H   0  0  0  0  0  0  0  0  0  0  0  0
    2.9656   -1.2713   -1.0060 C   0  0  0  0  0  0  0  0  0  0  0  0
    2.8091   -2.3113   -0.6998 H   0  0  0  0  0  0  0  0  0  0  0  0
    3.3289   -1.2644   -2.0381 H   0  0  0  0  0  0  0  0  0  0  0  0
    3.7364   -0.8287   -0.3661 H   0  0  0  0  0  0  0  0  0  0  0  0
  1  2  1  0  0  0  0
  2  3  1  0  0  0  0
  2  4  1  0  0  0  0
  2  5  1  0  0  0  0
  5  6  2  0  0  0  0
  5  7  1  0  0  0  0
  7  8  1  0  0  0  0
  7  9  1  0  0  0  0
  9 10  1  0  0  0  0
  9 11  1  0  0  0  0
  9 21  1  0  0  0  0
 11 12  1  0  0  0  0
 11 13  1  0  0  0  0
 11 14  1  0  0  0  0
 14 15  1  0  0  0  0
 14 16  1  0  0  0  0
 14 17  1  0  0  0  0
 17 18  2  0  0  0  0
 17 19  1  0  0  0  0
 19 20  1  0  0  0  0
 21 22  2  0  0  0  0
 21 23  1  0  0  0  0
 23 24  1  0  0  0  0
 23 25  1  0  0  0  0
 25 26  1  0  0  0  0
 25 27  1  0  0  0  0
 25 28  1  0  0  0  0
M  END
$$$$

  -OEChem-01062216073D

 28 27  0     1  0  0  0  0  0999 V2000
   -3.5712   -2.6494    1.4076 H   0  0  0  0  0  0  0  0  0  0  0  0
   -3.4344   -1.6529    0.9777 C   0  0  0  0  0  0  0  0  0  0  0  0
   -3.8673   -0.9165    1.6590 H   0  0  0  0  0  0  0  0  0  0  0  0
   -3.9566   -1.6081    0.0190 H   0  0  0  0  0  0  0  0  0  0  0  0
   -1.9571   -1.3696    0.7782 C   0  0  0  0  0  0  0  0  0  0  0  0
   -1.1590   -2.2619    0.9831 O   0  0  0  0  0  0  0  0  0  0  0  0
   -1.5852   -0.1337    0.2788 N   0  0  0  0  0  0  0  0  0  0  0  0
   -2.3657    0.4979    0.1345 H   0  0  0  0  0  0  0  0  0  0  0  0
   -0.2427    0.4934    0.3000 C   0  0  1  0  0  0  0  0  0  0  0  0
   -0.1656    1.1270   -0.5879 H   0  0  0  0  0  0  0  0  0  0  0  0
   -0.1745    1.4012    1.5468 C   0  0  0  0  0  0  0  0  0  0  0  0
   -0.4089    0.8068    2.4383 H   0  0  0  0  0  0  0  0  0  0  0  0
    0.8493    1.7741    1.6679 H   0  0  0  0  0  0  0  0  0  0  0  0
   -1.1323    2.6087    1.4434 C   0  0  0  0  0  0  0  0  0  0  0  0
   -0.8647    3.2069    0.5681 H   0  0  0  0  0  0  0  0  0  0  0  0
   -2.1586    2.2594    1.3113 H   0  0  0  0  0  0  0  0  0  0  0  0
   -1.1165    3.5254    2.6677 C   0  0  0  0  0  0  0  0  0  0  0  0
   -0.4897    3.2114    3.6646 O   0  0  0  0  0  0  0  0  0  0  0  0
   -1.8353    4.6669    2.5714 O   0  0  0  0  0  0  0  0  0  0  0  0
   -1.7210    5.1206    3.4210 H   0  0  0  0  0  0  0  0  0  0  0  0
    1.0132   -0.4251    0.2654 C   0  0  0  0  0  0  0  0  0  0  0  0
    1.4533   -0.9311    1.2902 O   0  0  0  0  0  0  0  0  0  0  0  0
    1.9042   -0.2928   -0.7873 N   0  0  0  0  0  0  0  0  0  0  0  0
    1.5523    0.1240   -1.6424 H   0  0  0  0  0  0  0  0  0  0  0  0
    3.1923   -0.9773   -0.8251 C   0  0  0  0  0  0  0  0  0  0  0  0
    3.0539   -2.0590   -0.7227 H   0  0  0  0  0  0  0  0  0  0  0  0
    3.6994   -0.7812   -1.7746 H   0  0  0  0  0  0  0  0  0  0  0  0
    3.8363   -0.6269   -0.0115 H   0  0  0  0  0  0  0  0  0  0  0  0
  1  2  1  0  0  0  0
  2  3  1  0  0  0  0
  2  4  1  0  0  0  0
  2  5  1  0  0  0  0
  5  6  2  0  0  0  0
  5  7  1  0  0  0  0
  7  8  1  0  0  0  0
  7  9  1  0  0  0  0
  9 10  1  0  0  0  0
  9 11  1  0  0  0  0
  9 21  1  0  0  0  0
 11 12  1  0  0  0  0
 11 13  1  0  0  0  0
 11 14  1  0  0  0  0
 14 15  1  0  0  0  0
 14 16  1  0  0  0  0
 14 17  1  0  0  0  0
 17 18  2  0  0  0  0
 17 19  1  0  0  0  0
 19 20  1  0  0  0  0
 21 22  2  0  0  0  0
 21 23  1  0  0  0  0
 23 24  1  0  0  0  0
 23 25  1  0  0  0  0
 25 26  1  0  0  0  0
 25 27  1  0  0  0  0
 25 28  1  0  0  0  0
M  END
$$$$

  -OEChem-01062216073D

 28 27  0     1  0  0  0  0  0999 V2000
   -3.6120   -2.6109    1.4555 H   0  0  0  0  0  0  0  0  0  0  0  0
   -3.4588   -1.6161    1.0270 C   0  0  0  0  0  0  0  0  0  0  0  0
   -3.8226   -0.8704    1.7379 H   0  0  0  0  0  0  0  0  0  0  0  0
   -4.0320   -1.5401    0.1001 H   0  0  0  0  0  0  0  0  0  0  0  0
   -1.9846   -1.3904    0.7465 C   0  0  0  0  0  0  0  0  0  0  0  0
   -1.2223   -2.3282    0.8603 O   0  0  0  0  0  0  0  0  0  0  0  0
   -1.5920   -0.1606    0.2473 N   0  0  0  0  0  0  0  0  0  0  0  0
   -2.3631    0.4906    0.1476 H   0  0  0  0  0  0  0  0  0  0  0  0
   -0.2432    0.4558    0.2710 C   0  0  1  0  0  0  0  0  0  0  0  0
   -0.1680    1.0874   -0.6184 H   0  0  0  0  0  0  0  0  0  0  0  0
   -0.1741    1.3606    1.5191 C   0  0  0  0  0  0  0  0  0  0  0  0
   -0.4165    0.7654    2.4078 H   0  0  0  0  0  0  0  0  0  0  0  0
    0.8514    1.7266    1.6471 H   0  0  0  0  0  0  0  0  0  0  0  0
   -1.1232    2.5753    1.4150 C   0  0  0  0  0  0  0  0  0  0  0  0
   -0.8488    3.1741    0.5422 H   0  0  0  0  0  0  0  0  0  0  0  0
   -2.1519    2.2344    1.2785 H   0  0  0  0  0  0  0  0  0  0  0  0
   -1.1038    3.4877    2.6425 C   0  0  0  0  0  0  0  0  0  0  0  0
   -0.4818    3.1647    3.6397 O   0  0  0  0  0  0  0  0  0  0  0  0
   -1.8116    4.6359    2.5480 O   0  0  0  0  0  0  0  0  0  0  0  0
   -1.6970    5.0851    3.4000 H   0  0  0  0  0  0  0  0  0  0  0  0
    1.0268   -0.4433    0.2456 C   0  0  0  0  0  0  0  0  0  0  0  0
    1.3492   -1.1131    1.2175 O   0  0  0  0  0  0  0  0  0  0  0  0
    2.0596   -0.0917   -0.6097 N   0  0  0  0  0  0  0  0  0  0  0  0
    1.8323    0.5082   -1.3954 H   0  0  0  0  0  0  0  0  0  0  0  0
    3.3856   -0.6998   -0.5564 C   0  0  0  0  0  0  0  0  0  0  0  0
    3.3143   -1.7857   -0.6795 H   0  0  0  0  0  0  0  0  0  0  0  0
    4.0180   -0.3014   -1.3554 H   0  0  0  0  0  0  0  0  0  0  0  0
    3.8676   -0.4861    0.4036 H   0  0  0  0  0  0  0  0  0  0  0  0
  1  2  1  0  0  0  0
  2  3  1  0  0  0  0
  2  4  1  0  0  0  0
  2  5  1  0  0  0  0
  5  6  2  0  0  0  0
  5  7  1  0  0  0  0
  7  8  1  0  0  0  0
  7  9  1  0  0  0  0
  9 10  1  0  0  0  0
  9 11  1  0  0  0  0
  9 21  1  0  0  0  0
 11 12  1  0  0  0  0
 11 13  1  0  0  0  0
 11 14  1  0  0  0  0
 14 15  1  0  0  0  0
 14 16  1  0  0  0  0
 14 17  1  0  0  0  0
 17 18  2  0  0  0  0
 17 19  1  0  0  0  0
 19 20  1  0  0  0  0
 21 22  2  0  0  0  0
 21 23  1  0  0  0  0
 23 24  1  0  0  0  0
 23 25  1  0  0  0  0
 25 26  1  0  0  0  0
 25 27  1  0  0  0  0
 25 28  1  0  0  0  0
M  END
$$$$

  -OEChem-01062216073D

 28 27  0     1  0  0  0  0  0999 V2000
   -3.1900   -2.9968    1.1818 H   0  0  0  0  0  0  0  0  0  0  0  0
   -3.0852   -2.0911    0.5776 C   0  0  0  0  0  0  0  0  0  0  0  0
   -4.0393   -1.5592    0.5674 H   0  0  0  0  0  0  0  0  0  0  0  0
   -2.8225   -2.3810   -0.4424 H   0  0  0  0  0  0  0  0  0  0  0  0
   -2.0005   -1.2037    1.1579 C   0  0  0  0  0  0  0  0  0  0  0  0
   -1.5572   -1.4402    2.2691 O   0  0  0  0  0  0  0  0  0  0  0  0
   -1.7015    0.0009    0.5478 N   0  0  0  0  0  0  0  0  0  0  0  0
   -2.2654    0.1572   -0.2808 H   0  0  0  0  0  0  0  0  0  0  0  0
   -0.3376    0.5778    0.4791 C   0  0  1  0  0  0  0  0  0  0  0  0
   -0.2870    1.1642   -0.4425 H   0  0  0  0  0  0  0  0  0  0  0  0
   -0.1616    1.5349    1.6746 C   0  0  0  0  0  0  0  0  0  0  0  0
   -0.3789    0.9933    2.6033 H   0  0  0  0  0  0  0  0  0  0  0  0
    0.8791    1.8715    1.7320 H   0  0  0  0  0  0  0  0  0  0  0  0
   -1.0766    2.7728    1.5596 C   0  0  0  0  0  0  0  0  0  0  0  0
   -0.8412    3.3157    0.6406 H   0  0  0  0  0  0  0  0  0  0  0  0
   -2.1204    2.4527    1.5016 H   0  0  0  0  0  0  0  0  0  0  0  0
   -0.9577    3.7457    2.7332 C   0  0  0  0  0  0  0  0  0  0  0  0
   -0.2882    3.4534    3.7096 O   0  0  0  0  0  0  0  0  0  0  0  0
   -1.6188    4.9192    2.6102 O   0  0  0  0  0  0  0  0  0  0  0  0
   -1.4497    5.4029    3.4333 H   0  0  0  0  0  0  0  0  0  0  0  0
    0.8980   -0.3721    0.4320 C   0  0  0  0  0  0  0  0  0  0  0  0
    0.8355   -1.5794    0.6114 O   0  0  0  0  0  0  0  0  0  0  0  0
    2.0256    0.0803   -0.2350 N   0  0  0  0  0  0  0  0  0  0  0  0
    2.0841    1.0732   -0.4363 H   0  0  0  0  0  0  0  0  0  0  0  0
    3.1866   -0.7587   -0.5169 C   0  0  0  0  0  0  0  0  0  0  0  0
    2.9105   -1.5859   -1.1796 H   0  0  0  0  0  0  0  0  0  0  0  0
    3.9690   -0.1710   -1.0065 H   0  0  0  0  0  0  0  0  0  0  0  0
    3.5948   -1.1730    0.4112 H   0  0  0  0  0  0  0  0  0  0  0  0
  1  2  1  0  0  0  0
  2  3  1  0  0  0  0
  2  4  1  0  0  0  0
  2  5  1  0  0  0  0
  5  6  2  0  0  0  0
  5  7  1  0  0  0  0
  7  8  1  0  0  0  0
  7  9  1  0  0  0  0
  9 10  1  0  0  0  0
  9 11  1  0  0  0  0
  9 21  1  0  0  0  0
 11 12  1  0  0  0  0
 11 13  1  0  0  0  0
 11 14  1  0  0  0  0
 14 15  1  0  0  0  0
 14 16  1  0  0  0  0
 14 17  1  0  0  0  0
 17 18  2  0  0  0  0
 17 19  1  0  0  0  0
 19 20  1  0  0  0  0
 21 22  2  0  0  0  0
 21 23  1  0  0  0  0
 23 24  1  0  0  0  0
 23 25  1  0  0  0  0
 25 26  1  0  0  0  0
 25 27  1  0  0  0  0
 25 28  1  0  0  0  0
M  END
$$$$

  -OEChem-01062216073D

 28 27  0     1  0  0  0  0  0999 V2000
   -3.1955   -2.9790    1.2015 H   0  0  0  0  0  0  0  0  0  0  0  0
   -3.1026   -2.0693    0.6016 C   0  0  0  0  0  0  0  0  0  0  0  0
   -4.0482   -1.5237    0.6380 H   0  0  0  0  0  0  0  0  0  0  0  0
   -2.8885   -2.3529   -0.4316 H   0  0  0  0  0  0  0  0  0  0  0  0
   -1.9803   -1.2034    1.1416 C   0  0  0  0  0  0  0  0  0  0  0  0
   -1.4647   -1.4760    2.2137 O   0  0  0  0  0  0  0  0  0  0  0  0
   -1.6914    0.0050    0.5330 N   0  0  0  0  0  0  0  0  0  0  0  0
   -2.2591    0.1667   -0.2921 H   0  0  0  0  0  0  0  0  0  0  0  0
   -0.3289    0.5852    0.4746 C   0  0  1  0  0  0  0  0  0  0  0  0
   -0.2610    1.1709   -0.4467 H   0  0  0  0  0  0  0  0  0  0  0  0
   -0.1695    1.5412    1.6758 C   0  0  0  0  0  0  0  0  0  0  0  0
   -0.3947    0.9964    2.6008 H   0  0  0  0  0  0  0  0  0  0  0  0
    0.8673    1.8857    1.7477 H   0  0  0  0  0  0  0  0  0  0  0  0
   -1.0889    2.7754    1.5555 C   0  0  0  0  0  0  0  0  0  0  0  0
   -0.8474    3.3222    0.6403 H   0  0  0  0  0  0  0  0  0  0  0  0
   -2.1307    2.4507    1.4875 H   0  0  0  0  0  0  0  0  0  0  0  0
   -0.9848    3.7444    2.7340 C   0  0  0  0  0  0  0  0  0  0  0  0
   -0.3227    3.4493    3.7148 O   0  0  0  0  0  0  0  0  0  0  0  0
   -1.6504    4.9153    2.6122 O   0  0  0  0  0  0  0  0  0  0  0  0
   -1.4894    5.3959    3.4388 H   0  0  0  0  0  0  0  0  0  0  0  0
    0.8920   -0.3833    0.4349 C   0  0  0  0  0  0  0  0  0  0  0  0
    0.7638   -1.5901    0.2740 O   0  0  0  0  0  0  0  0  0  0  0  0
    2.1230    0.1400    0.0712 N   0  0  0  0  0  0  0  0  0  0  0  0
    2.2406    1.1457    0.1394 H   0  0  0  0  0  0  0  0  0  0  0  0
    3.2991   -0.6815   -0.1980 C   0  0  0  0  0  0  0  0  0  0  0  0
    3.1350   -1.3087   -1.0805 H   0  0  0  0  0  0  0  0  0  0  0  0
    4.1704   -0.0462   -0.3831 H   0  0  0  0  0  0  0  0  0  0  0  0
    3.5193   -1.3287    0.6577 H   0  0  0  0  0  0  0  0  0  0  0  0
  1  2  1  0  0  0  0
  2  3  1  0  0  0  0
  2  4  1  0  0  0  0
  2  5  1  0  0  0  0
  5  6  2  0  0  0  0
  5  7  1  0  0  0  0
  7  8  1  0  0  0  0
  7  9  1  0  0  0  0
  9 10  1  0  0  0  0
  9 11  1  0  0  0  0
  9 21  1  0  0  0  0
 11 12  1  0  0  0  0
 11 13  1  0  0  0  0
 11 14  1  0  0  0  0
 14 15  1  0  0  0  0
 14 16  1  0  0  0  0
 14 17  1  0  0  0  0
 17 18  2  0  0  0  0
 17 19  1  0  0  0  0
 19 20  1  0  0  0  0
 21 22  2  0  0  0  0
 21 23  1  0  0  0  0
 23 24  1  0  0  0  0
 23 25  1  0  0  0  0
 25 26  1  0  0  0  0
 25 27  1  0  0  0  0
 25 28  1  0  0  0  0
M  END
$$$$

  -OEChem-01062216073D

 28 27  0     1  0  0  0  0  0999 V2000
   -3.1329   -3.0090    1.1256 H   0  0  0  0  0  0  0  0  0  0  0  0
   -3.1003   -2.0461    0.6080 C   0  0  0  0  0  0  0  0  0  0  0  0
   -4.0146   -1.4926    0.8338 H   0  0  0  0  0  0  0  0  0  0  0  0
   -3.0462   -2.2293   -0.4679 H   0  0  0  0  0  0  0  0  0  0  0  0
   -1.8872   -1.2536    1.0568 C   0  0  0  0  0  0  0  0  0  0  0  0
   -1.1824   -1.6860    1.9550 O   0  0  0  0  0  0  0  0  0  0  0  0
   -1.6473   -0.0059    0.5055 N   0  0  0  0  0  0  0  0  0  0  0  0
   -2.2575    0.2132   -0.2753 H   0  0  0  0  0  0  0  0  0  0  0  0
   -0.3055    0.6182    0.4730 C   0  0  1  0  0  0  0  0  0  0  0  0
   -0.3273    1.4142   -0.2770 H   0  0  0  0  0  0  0  0  0  0  0  0
    0.0022    1.2686    1.8419 C   0  0  0  0  0  0  0  0  0  0  0  0
   -0.1045    0.5250    2.6393 H   0  0  0  0  0  0  0  0  0  0  0  0
    1.0378    1.6205    1.8675 H   0  0  0  0  0  0  0  0  0  0  0  0
   -0.9246    2.4715    2.1164 C   0  0  0  0  0  0  0  0  0  0  0  0
   -0.7912    3.2213    1.3321 H   0  0  0  0  0  0  0  0  0  0  0  0
   -1.9670    2.1426    2.0914 H   0  0  0  0  0  0  0  0  0  0  0  0
   -0.6845    3.1455    3.4678 C   0  0  0  0  0  0  0  0  0  0  0  0
    0.0874    2.6502    4.2719 O   0  0  0  0  0  0  0  0  0  0  0  0
   -1.3602    4.2943    3.6974 O   0  0  0  0  0  0  0  0  0  0  0  0
   -1.1046    4.5757    4.5894 H   0  0  0  0  0  0  0  0  0  0  0  0
    0.8457   -0.3286    0.0257 C   0  0  0  0  0  0  0  0  0  0  0  0
    0.6012   -1.3512   -0.6049 O   0  0  0  0  0  0  0  0  0  0  0  0
    2.1448    0.1488   -0.0374 N   0  0  0  0  0  0  0  0  0  0  0  0
    2.3532    0.9982    0.4777 H   0  0  0  0  0  0  0  0  0  0  0  0
    3.2559   -0.6316   -0.5716 C   0  0  0  0  0  0  0  0  0  0  0  0
    3.0885   -0.8643   -1.6285 H   0  0  0  0  0  0  0  0  0  0  0  0
    4.1901   -0.0683   -0.4870 H   0  0  0  0  0  0  0  0  0  0  0  0
    3.3658   -1.5697   -0.0172 H   0  0  0  0  0  0  0  0  0  0  0  0
  1  2  1  0  0  0  0
  2  3  1  0  0  0  0
  2  4  1  0  0  0  0
  2  5  1  0  0  0  0
  5  6  2  0  0  0  0
  5  7  1  0  0  0  0
  7  8  1  0  0  0  0
  7  9  1  0  0  0  0
  9 10  1  0  0  0  0
  9 11  1  0  0  0  0
  9 21  1  0  0  0  0
 11 12  1  0  0  0  0
 11 13  1  0  0  0  0
 11 14  1  0  0  0  0
 14 15  1  0  0  0  0
 14 16  1  0  0  0  0
 14 17  1  0  0  0  0
 17 18  2  0  0  0  0
 17 19  1  0  0  0  0
 19 20  1  0  0  0  0
 21 22  2  0  0  0  0
 21 23  1  0  0  0  0
 23 24  1  0  0  0  0
 23 25  1  0  0  0  0
 25 26  1  0  0  0  0
 25 27  1  0  0  0  0
 25 28  1  0  0  0  0
M  END
$$$$

  -OEChem-01062216073D

 28 27  0     1  0  0  0  0  0999 V2000
   -3.0889   -3.0007    1.1414 H   0  0  0  0  0  0  0  0  0  0  0  0
   -3.0649   -2.0404    0.6186 C   0  0  0  0  0  0  0  0  0  0  0  0
   -3.9762   -1.4866    0.8556 H   0  0  0  0  0  0  0  0  0  0  0  0
   -3.0269   -2.2284   -0.4572 H   0  0  0  0  0  0  0  0  0  0  0  0
   -1.8460   -1.2447    1.0454 C   0  0  0  0  0  0  0  0  0  0  0  0
   -1.1052   -1.6900    1.9081 O   0  0  0  0  0  0  0  0  0  0  0  0
   -1.6283    0.0110    0.5037 N   0  0  0  0  0  0  0  0  0  0  0  0
   -2.2460    0.2314   -0.2711 H   0  0  0  0  0  0  0  0  0  0  0  0
   -0.2962    0.6538    0.4747 C   0  0  1  0  0  0  0  0  0  0  0  0
   -0.3199    1.4528   -0.2722 H   0  0  0  0  0  0  0  0  0  0  0  0
   -0.0037    1.3016    1.8490 C   0  0  0  0  0  0  0  0  0  0  0  0
   -0.0983    0.5521    2.6424 H   0  0  0  0  0  0  0  0  0  0  0  0
    1.0233    1.6772    1.8773 H   0  0  0  0  0  0  0  0  0  0  0  0
   -0.9506    2.4883    2.1264 C   0  0  0  0  0  0  0  0  0  0  0  0
   -0.8246    3.2437    1.3464 H   0  0  0  0  0  0  0  0  0  0  0  0
   -1.9877    2.1437    2.0947 H   0  0  0  0  0  0  0  0  0  0  0  0
   -0.7273    3.1591    3.4823 C   0  0  0  0  0  0  0  0  0  0  0  0
    0.0493    2.6718    4.2871 O   0  0  0  0  0  0  0  0  0  0  0  0
   -1.4270    4.2925    3.7176 O   0  0  0  0  0  0  0  0  0  0  0  0
   -1.1813    4.5731    4.6125 H   0  0  0  0  0  0  0  0  0  0  0  0
    0.8426   -0.3016    0.0144 C   0  0  0  0  0  0  0  0  0  0  0  0
    0.5926   -1.1903   -0.7930 O   0  0  0  0  0  0  0  0  0  0  0  0
    2.1751    0.0171    0.2174 N   0  0  0  0  0  0  0  0  0  0  0  0
    2.3787    0.7199    0.9207 H   0  0  0  0  0  0  0  0  0  0  0  0
    3.2700   -0.8165   -0.2671 C   0  0  0  0  0  0  0  0  0  0  0  0
    3.2493   -0.8812   -1.3602 H   0  0  0  0  0  0  0  0  0  0  0  0
    4.2322   -0.3912    0.0338 H   0  0  0  0  0  0  0  0  0  0  0  0
    3.1930   -1.8277    0.1467 H   0  0  0  0  0  0  0  0  0  0  0  0
  1  2  1  0  0  0  0
  2  3  1  0  0  0  0
  2  4  1  0  0  0  0
  2  5  1  0  0  0  0
  5  6  2  0  0  0  0
  5  7  1  0  0  0  0
  7  8  1  0  0  0  0
  7  9  1  0  0  0  0
  9 10  1  0  0  0  0
  9 11  1  0  0  0  0
  9 21  1  0  0  0  0
 11 12  1  0  0  0  0
 11 13  1  0  0  0  0
 11 14  1  0  0  0  0
 14 15  1  0  0  0  0
 14 16  1  0  0  0  0
 14 17  1  0  0  0  0
 17 18  2  0  0  0  0
 17 19  1  0  0  0  0
 19 20  1  0  0  0  0
 21 22  2  0  0  0  0
 21 23  1  0  0  0  0
 23 24  1  0  0  0  0
 23 25  1  0  0  0  0
 25 26  1  0  0  0  0
 25 27  1  0  0  0  0
 25 28  1  0  0  0  0
M  END
$$$$

  -OEChem-01062216073D

 28 27  0     1  0  0  0  0  0999 V2000
   -3.0419   -3.0130    1.1200 H   0  0  0  0  0  0  0  0  0  0  0  0
   -3.0421   -2.0389    0.6229 C   0  0  0  0  0  0  0  0  0  0  0  0
   -3.9505   -1.5000    0.9016 H   0  0  0  0  0  0  0  0  0  0  0  0
   -3.0352   -2.1977   -0.4582 H   0  0  0  0  0  0  0  0  0  0  0  0
   -1.8190   -1.2430    1.0353 C   0  0  0  0  0  0  0  0  0  0  0  0
   -1.0538   -1.6980    1.8714 O   0  0  0  0  0  0  0  0  0  0  0  0
   -1.6149    0.0173    0.5008 N   0  0  0  0  0  0  0  0  0  0  0  0
   -2.2406    0.2443   -0.2660 H   0  0  0  0  0  0  0  0  0  0  0  0
   -0.2910    0.6746    0.4782 C   0  0  1  0  0  0  0  0  0  0  0  0
   -0.3162    1.4734   -0.2692 H   0  0  0  0  0  0  0  0  0  0  0  0
   -0.0084    1.3258    1.8520 C   0  0  0  0  0  0  0  0  0  0  0  0
   -0.0965    0.5753    2.6455 H   0  0  0  0  0  0  0  0  0  0  0  0
    1.0139    1.7150    1.8779 H   0  0  0  0  0  0  0  0  0  0  0  0
   -0.9674    2.5025    2.1283 C   0  0  0  0  0  0  0  0  0  0  0  0
   -0.8485    3.2598    1.3488 H   0  0  0  0  0  0  0  0  0  0  0  0
   -2.0010    2.1480    2.0958 H   0  0  0  0  0  0  0  0  0  0  0  0
   -0.7501    3.1730    3.4854 C   0  0  0  0  0  0  0  0  0  0  0  0
    0.0311    2.6908    4.2889 O   0  0  0  0  0  0  0  0  0  0  0  0
   -1.4607    4.2986    3.7240 O   0  0  0  0  0  0  0  0  0  0  0  0
   -1.2151    4.5805    4.6186 H   0  0  0  0  0  0  0  0  0  0  0  0
    0.8437   -0.2825    0.0142 C   0  0  0  0  0  0  0  0  0  0  0  0
    0.6313   -1.0286   -0.9357 O   0  0  0  0  0  0  0  0  0  0  0  0
    2.1477   -0.1517    0.4610 N   0  0  0  0  0  0  0  0  0  0  0  0
    2.2833    0.3786    1.3160 H   0  0  0  0  0  0  0  0  0  0  0  0
    3.2204   -1.0364    0.0212 C   0  0  0  0  0  0  0  0  0  0  0  0
    3.3588   -0.9628   -1.0627 H   0  0  0  0  0  0  0  0  0  0  0  0
    4.1615   -0.7615    0.5070 H   0  0  0  0  0  0  0  0  0  0  0  0
    2.9876   -2.0758    0.2768 H   0  0  0  0  0  0  0  0  0  0  0  0
  1  2  1  0  0  0  0
  2  3  1  0  0  0  0
  2  4  1  0  0  0  0
  2  5  1  0  0  0  0
  5  6  2  0  0  0  0
  5  7  1  0  0  0  0
  7  8  1  0  0  0  0
  7  9  1  0  0  0  0
  9 10  1  0  0  0  0
  9 11  1  0  0  0  0
  9 21  1  0  0  0  0
 11 12  1  0  0  0  0
 11 13  1  0  0  0  0
 11 14  1  0  0  0  0
 14 15  1  0  0  0  0
 14 16  1  0  0  0  0
 14 17  1  0  0  0  0
 17 18  2  0  0  0  0
 17 19  1  0  0  0  0
 19 20  1  0  0  0  0
 21 22  2  0  0  0  0
 21 23  1  0  0  0  0
 23 24  1  0  0  0  0
 23 25  1  0  0  0  0
 25 26  1  0  0  0  0
 25 27  1  0  0  0  0
 25 28  1  0  0  0  0
M  END
$$$$

  -OEChem-01062216073D

 28 27  0     1  0  0  0  0  0999 V2000
   -3.0377   -3.0059    1.1258 H   0  0  0  0  0  0  0  0  0  0  0  0
   -3.0395   -2.0292    0.6339 C   0  0  0  0  0  0  0  0  0  0  0  0
   -3.9376   -1.4842    0.9342 H   0  0  0  0  0  0  0  0  0  0  0  0
   -3.0567   -2.1817   -0.4480 H   0  0  0  0  0  0  0  0  0  0  0  0
   -1.8016   -1.2453    1.0245 C   0  0  0  0  0  0  0  0  0  0  0  0
   -1.0175   -1.7138    1.8352 O   0  0  0  0  0  0  0  0  0  0  0  0
   -1.6006    0.0167    0.4942 N   0  0  0  0  0  0  0  0  0  0  0  0
   -2.2372    0.2575   -0.2594 H   0  0  0  0  0  0  0  0  0  0  0  0
   -0.2826    0.6841    0.4771 C   0  0  1  0  0  0  0  0  0  0  0  0
   -0.3096    1.4833   -0.2699 H   0  0  0  0  0  0  0  0  0  0  0  0
   -0.0078    1.3362    1.8509 C   0  0  0  0  0  0  0  0  0  0  0  0
   -0.0926    0.5849    2.6440 H   0  0  0  0  0  0  0  0  0  0  0  0
    1.0134    1.7308    1.8746 H   0  0  0  0  0  0  0  0  0  0  0  0
   -0.9754    2.5059    2.1260 C   0  0  0  0  0  0  0  0  0  0  0  0
   -0.8589    3.2647    1.3474 H   0  0  0  0  0  0  0  0  0  0  0  0
   -2.0067    2.1449    2.0904 H   0  0  0  0  0  0  0  0  0  0  0  0
   -0.7648    3.1762    3.4841 C   0  0  0  0  0  0  0  0  0  0  0  0
    0.0184    2.6975    4.2879 O   0  0  0  0  0  0  0  0  0  0  0  0
   -1.4827    4.2970    3.7234 O   0  0  0  0  0  0  0  0  0  0  0  0
   -1.2372    4.5813    4.6172 H   0  0  0  0  0  0  0  0  0  0  0  0
    0.8545   -0.2686    0.0154 C   0  0  0  0  0  0  0  0  0  0  0  0
    0.7162   -0.8657   -1.0463 O   0  0  0  0  0  0  0  0  0  0  0  0
    2.0729   -0.3456    0.6681 N   0  0  0  0  0  0  0  0  0  0  0  0
    2.0933    0.0134    1.6180 H   0  0  0  0  0  0  0  0  0  0  0  0
    3.1160   -1.2820    0.2666 C   0  0  0  0  0  0  0  0  0  0  0  0
    3.4266   -1.0924   -0.7664 H   0  0  0  0  0  0  0  0  0  0  0  0
    3.9916   -1.1730    0.9136 H   0  0  0  0  0  0  0  0  0  0  0  0
    2.7536   -2.3128    0.3422 H   0  0  0  0  0  0  0  0  0  0  0  0
  1  2  1  0  0  0  0
  2  3  1  0  0  0  0
  2  4  1  0  0  0  0
  2  5  1  0  0  0  0
  5  6  2  0  0  0  0
  5  7  1  0  0  0  0
  7  8  1  0  0  0  0
  7  9  1  0  0  0  0
  9 10  1  0  0  0  0
  9 11  1  0  0  0  0
  9 21  1  0  0  0  0
 11 12  1  0  0  0  0
 11 13  1  0  0  0  0
 11 14  1  0  0  0  0
 14 15  1  0  0  0  0
 14 16  1  0  0  0  0
 14 17  1  0  0  0  0
 17 18  2  0  0  0  0
 17 19  1  0  0  0  0
 19 20  1  0  0  0  0
 21 22  2  0  0  0  0
 21 23  1  0  0  0  0
 23 24  1  0  0  0  0
 23 25  1  0  0  0  0
 25 26  1  0  0  0  0
 25 27  1  0  0  0  0
 25 28  1  0  0  0  0
M  END
$$$$

  -OEChem-01062216073D

 28 27  0     1  0  0  0  0  0999 V2000
   -3.0493   -2.9977    1.1344 H   0  0  0  0  0  0  0  0  0  0  0  0
   -3.0494   -2.0203    0.6436 C   0  0  0  0  0  0  0  0  0  0  0  0
   -3.9380   -1.4679    0.9582 H   0  0  0  0  0  0  0  0  0  0  0  0
   -3.0844   -2.1712   -0.4381 H   0  0  0  0  0  0  0  0  0  0  0  0
   -1.7986   -1.2482    1.0169 C   0  0  0  0  0  0  0  0  0  0  0  0
   -1.0048   -1.7269    1.8124 O   0  0  0  0  0  0  0  0  0  0  0  0
   -1.5918    0.0123    0.4860 N   0  0  0  0  0  0  0  0  0  0  0  0
   -2.2388    0.2701   -0.2534 H   0  0  0  0  0  0  0  0  0  0  0  0
   -0.2758    0.6825    0.4749 C   0  0  1  0  0  0  0  0  0  0  0  0
   -0.3011    1.4811   -0.2731 H   0  0  0  0  0  0  0  0  0  0  0  0
   -0.0047    1.3360    1.8478 C   0  0  0  0  0  0  0  0  0  0  0  0
   -0.0941    0.5861    2.6415 H   0  0  0  0  0  0  0  0  0  0  0  0
    1.0192    1.7256    1.8712 H   0  0  0  0  0  0  0  0  0  0  0  0
   -0.9733    2.5052    2.1212 C   0  0  0  0  0  0  0  0  0  0  0  0
   -0.8559    3.2645    1.3435 H   0  0  0  0  0  0  0  0  0  0  0  0
   -2.0042    2.1439    2.0839 H   0  0  0  0  0  0  0  0  0  0  0  0
   -0.7649    3.1757    3.4796 C   0  0  0  0  0  0  0  0  0  0  0  0
    0.0172    2.6976    4.2848 O   0  0  0  0  0  0  0  0  0  0  0  0
   -1.4852    4.2952    3.7178 O   0  0  0  0  0  0  0  0  0  0  0  0
   -1.2412    4.5804    4.6116 H   0  0  0  0  0  0  0  0  0  0  0  0
    0.8663   -0.2658    0.0232 C   0  0  0  0  0  0  0  0  0  0  0  0
    0.8423   -0.6949   -1.1241 O   0  0  0  0  0  0  0  0  0  0  0  0
    1.9472   -0.5656    0.8334 N   0  0  0  0  0  0  0  0  0  0  0  0
    1.8122   -0.3878    1.8251 H   0  0  0  0  0  0  0  0  0  0  0  0
    2.9626   -1.5376    0.4477 C   0  0  0  0  0  0  0  0  0  0  0  0
    3.4451   -1.2393   -0.4890 H   0  0  0  0  0  0  0  0  0  0  0  0
    3.7318   -1.6077    1.2226 H   0  0  0  0  0  0  0  0  0  0  0  0
    2.5128   -2.5270    0.3128 H   0  0  0  0  0  0  0  0  0  0  0  0
  1  2  1  0  0  0  0
  2  3  1  0  0  0  0
  2  4  1  0  0  0  0
  2  5  1  0  0  0  0
  5  6  2  0  0  0  0
  5  7  1  0  0  0  0
  7  8  1  0  0  0  0
  7  9  1  0  0  0  0
  9 10  1  0  0  0  0
  9 11  1  0  0  0  0
  9 21  1  0  0  0  0
 11 12  1  0  0  0  0
 11 13  1  0  0  0  0
 11 14  1  0  0  0  0
 14 15  1  0  0  0  0
 14 16  1  0  0  0  0
 14 17  1  0  0  0  0
 17 18  2  0  0  0  0
 17 19  1  0  0  0  0
 19 20  1  0  0  0  0
 21 22  2  0  0  0  0
 21 23  1  0  0  0  0
 23 24  1  0  0  0  0
 23 25  1  0  0  0  0
 25 26  1  0  0  0  0
 25 27  1  0  0  0  0
 25 28  1  0  0  0  0
M  END
$$$$

  -OEChem-01062216073D

 28 27  0     1  0  0  0  0  0999 V2000
   -3.1030   -2.9839    1.1344 H   0  0  0  0  0  0  0  0  0  0  0  0
   -3.0989   -1.9963    0.6646 C   0  0  0  0  0  0  0  0  0  0  0  0
   -3.9625   -1.4316    1.0242 H   0  0  0  0  0  0  0  0  0  0  0  0
   -3.1784   -2.1231   -0.4179 H   0  0  0  0  0  0  0  0  0  0  0  0
   -1.8181   -1.2594    1.0076 C   0  0  0  0  0  0  0  0  0  0  0  0
   -1.0211   -1.7584    1.7873 O   0  0  0  0  0  0  0  0  0  0  0  0
   -1.5893   -0.0042    0.4737 N   0  0  0  0  0  0  0  0  0  0  0  0
   -2.2494    0.2840   -0.2426 H   0  0  0  0  0  0  0  0  0  0  0  0
   -0.2706    0.6607    0.4686 C   0  0  1  0  0  0  0  0  0  0  0  0
   -0.2917    1.4579   -0.2817 H   0  0  0  0  0  0  0  0  0  0  0  0
   -0.0019    1.3170    1.8398 C   0  0  0  0  0  0  0  0  0  0  0  0
   -0.1014    0.5702    2.6352 H   0  0  0  0  0  0  0  0  0  0  0  0
    1.0267    1.6941    1.8659 H   0  0  0  0  0  0  0  0  0  0  0  0
   -0.9638    2.4927    2.1088 C   0  0  0  0  0  0  0  0  0  0  0  0
   -0.8380    3.2498    1.3301 H   0  0  0  0  0  0  0  0  0  0  0  0
   -1.9973    2.1390    2.0681 H   0  0  0  0  0  0  0  0  0  0  0  0
   -0.7547    3.1642    3.4667 C   0  0  0  0  0  0  0  0  0  0  0  0
    0.0223    2.6826    4.2748 O   0  0  0  0  0  0  0  0  0  0  0  0
   -1.4721    4.2861    3.7032 O   0  0  0  0  0  0  0  0  0  0  0  0
   -1.2285    4.5716    4.5971 H   0  0  0  0  0  0  0  0  0  0  0  0
    0.8820   -0.2806    0.0343 C   0  0  0  0  0  0  0  0  0  0  0  0
    1.0256   -0.5128   -1.1595 O   0  0  0  0  0  0  0  0  0  0  0  0
    1.7823   -0.8054    0.9436 N   0  0  0  0  0  0  0  0  0  0  0  0
    1.4479   -0.8298    1.9048 H   0  0  0  0  0  0  0  0  0  0  0  0
    2.8026   -1.7718    0.5574 C   0  0  0  0  0  0  0  0  0  0  0  0
    3.4538   -1.3542   -0.2177 H   0  0  0  0  0  0  0  0  0  0  0  0
    3.4215   -2.0325    1.4213 H   0  0  0  0  0  0  0  0  0  0  0  0
    2.3375   -2.6855    0.1727 H   0  0  0  0  0  0  0  0  0  0  0  0
  1  2  1  0  0  0  0
  2  3  1  0  0  0  0
  2  4  1  0  0  0  0
  2  5  1  0  0  0  0
  5  6  2  0  0  0  0
  5  7  1  0  0  0  0
  7  8  1  0  0  0  0
  7  9  1  0  0  0  0
  9 10  1  0  0  0  0
  9 11  1  0  0  0  0
  9 21  1  0  0  0  0
 11 12  1  0  0  0  0
 11 13  1  0  0  0  0
 11 14  1  0  0  0  0
 14 15  1  0  0  0  0
 14 16  1  0  0  0  0
 14 17  1  0  0  0  0
 17 18  2  0  0  0  0
 17 19  1  0  0  0  0
 19 20  1  0  0  0  0
 21 22  2  0  0  0  0
 21 23  1  0  0  0  0
 23 24  1  0  0  0  0
 23 25  1  0  0  0  0
 25 26  1  0  0  0  0
 25 27  1  0  0  0  0
 25 28  1  0  0  0  0
M  END
$$$$

  -OEChem-01062216073D

 28 27  0     1  0  0  0  0  0999 V2000
   -3.1983   -2.9458    1.1617 H   0  0  0  0  0  0  0  0  0  0  0  0
   -3.1627   -1.9642    0.6809 C   0  0  0  0  0  0  0  0  0  0  0  0
   -4.0044   -1.3662    1.0383 H   0  0  0  0  0  0  0  0  0  0  0  0
   -3.2525   -2.1000   -0.3996 H   0  0  0  0  0  0  0  0  0  0  0  0
   -1.8561   -1.2677    1.0098 C   0  0  0  0  0  0  0  0  0  0  0  0
   -1.0724   -1.7868    1.7897 O   0  0  0  0  0  0  0  0  0  0  0  0
   -1.5948   -0.0220    0.4695 N   0  0  0  0  0  0  0  0  0  0  0  0
   -2.2664    0.2965   -0.2231 H   0  0  0  0  0  0  0  0  0  0  0  0
   -0.2707    0.6339    0.4618 C   0  0  1  0  0  0  0  0  0  0  0  0
   -0.2903    1.4303   -0.2895 H   0  0  0  0  0  0  0  0  0  0  0  0
    0.0017    1.2882    1.8323 C   0  0  0  0  0  0  0  0  0  0  0  0
   -0.1013    0.5427    2.6284 H   0  0  0  0  0  0  0  0  0  0  0  0
    1.0339    1.6561    1.8578 H   0  0  0  0  0  0  0  0  0  0  0  0
   -0.9533    2.4698    2.0996 C   0  0  0  0  0  0  0  0  0  0  0  0
   -0.8227    3.2252    1.3200 H   0  0  0  0  0  0  0  0  0  0  0  0
   -1.9887    2.1216    2.0588 H   0  0  0  0  0  0  0  0  0  0  0  0
   -0.7429    3.1422    3.4568 C   0  0  0  0  0  0  0  0  0  0  0  0
    0.0295    2.6586    4.2678 O   0  0  0  0  0  0  0  0  0  0  0  0
   -1.4533    4.2695    3.6885 O   0  0  0  0  0  0  0  0  0  0  0  0
   -1.2055    4.5583    4.5803 H   0  0  0  0  0  0  0  0  0  0  0  0
    0.8941   -0.2991    0.0442 C   0  0  0  0  0  0  0  0  0  0  0  0
    1.2288   -0.3265   -1.1331 O   0  0  0  0  0  0  0  0  0  0  0  0
    1.5984   -1.0449    0.9703 N   0  0  0  0  0  0  0  0  0  0  0  0
    1.0768   -1.2387    1.8262 H   0  0  0  0  0  0  0  0  0  0  0  0
    2.6316   -1.9948    0.5788 C   0  0  0  0  0  0  0  0  0  0  0  0
    3.4222   -1.4906    0.0129 H   0  0  0  0  0  0  0  0  0  0  0  0
    3.0819   -2.4497    1.4663 H   0  0  0  0  0  0  0  0  0  0  0  0
    2.2057   -2.7894   -0.0427 H   0  0  0  0  0  0  0  0  0  0  0  0
  1  2  1  0  0  0  0
  2  3  1  0  0  0  0
  2  4  1  0  0  0  0
  2  5  1  0  0  0  0
  5  6  2  0  0  0  0
  5  7  1  0  0  0  0
  7  8  1  0  0  0  0
  7  9  1  0  0  0  0
  9 10  1  0  0  0  0
  9 11  1  0  0  0  0
  9 21  1  0  0  0  0
 11 12  1  0  0  0  0
 11 13  1  0  0  0  0
 11 14  1  0  0  0  0
 14 15  1  0  0  0  0
 14 16  1  0  0  0  0
 14 17  1  0  0  0  0
 17 18  2  0  0  0  0
 17 19  1  0  0  0  0
 19 20  1  0  0  0  0
 21 22  2  0  0  0  0
 21 23  1  0  0  0  0
 23 24  1  0  0  0  0
 23 25  1  0  0  0  0
 25 26  1  0  0  0  0
 25 27  1  0  0  0  0
 25 28  1  0  0  0  0
M  END
$$$$

  -OEChem-01062216073D

 28 27  0     1  0  0  0  0  0999 V2000
   -3.3275   -2.9013    1.1708 H   0  0  0  0  0  0  0  0  0  0  0  0
   -3.2577   -1.9188    0.6950 C   0  0  0  0  0  0  0  0  0  0  0  0
   -4.0702   -1.2895    1.0664 H   0  0  0  0  0  0  0  0  0  0  0  0
   -3.3665   -2.0443   -0.3850 H   0  0  0  0  0  0  0  0  0  0  0  0
   -1.9198   -1.2781    1.0114 C   0  0  0  0  0  0  0  0  0  0  0  0
   -1.1590   -1.8281    1.7915 O   0  0  0  0  0  0  0  0  0  0  0  0
   -1.6122   -0.0467    0.4631 N   0  0  0  0  0  0  0  0  0  0  0  0
   -2.2950    0.3081   -0.2005 H   0  0  0  0  0  0  0  0  0  0  0  0
   -0.2799    0.5978    0.4461 C   0  0  1  0  0  0  0  0  0  0  0  0
   -0.3024    1.3934   -0.3061 H   0  0  0  0  0  0  0  0  0  0  0  0
   -0.0018    1.2499    1.8157 C   0  0  0  0  0  0  0  0  0  0  0  0
   -0.1084    0.5027    2.6101 H   0  0  0  0  0  0  0  0  0  0  0  0
    1.0338    1.6084    1.8405 H   0  0  0  0  0  0  0  0  0  0  0  0
   -0.9459    2.4397    2.0875 C   0  0  0  0  0  0  0  0  0  0  0  0
   -0.8095    3.1952    1.3089 H   0  0  0  0  0  0  0  0  0  0  0  0
   -1.9844    2.1015    2.0484 H   0  0  0  0  0  0  0  0  0  0  0  0
   -0.7267    3.1083    3.4454 C   0  0  0  0  0  0  0  0  0  0  0  0
    0.0431    2.6171    4.2543 O   0  0  0  0  0  0  0  0  0  0  0  0
   -1.4265    4.2417    3.6797 O   0  0  0  0  0  0  0  0  0  0  0  0
   -1.1727    4.5280    4.5706 H   0  0  0  0  0  0  0  0  0  0  0  0
    0.9068   -0.3169    0.0468 C   0  0  0  0  0  0  0  0  0  0  0  0
    1.4229   -0.1601   -1.0520 O   0  0  0  0  0  0  0  0  0  0  0  0
    1.4278   -1.2635    0.9072 N   0  0  0  0  0  0  0  0  0  0  0  0
    0.7970   -1.5380    1.6647 H   0  0  0  0  0  0  0  0  0  0  0  0
    2.4793   -2.1936    0.5180 C   0  0  0  0  0  0  0  0  0  0  0  0
    3.3697   -1.6491    0.1868 H   0  0  0  0  0  0  0  0  0  0  0  0
    2.7585   -2.8228    1.3686 H   0  0  0  0  0  0  0  0  0  0  0  0
    2.1375   -2.8400   -0.2969 H   0  0  0  0  0  0  0  0  0  0  0  0
  1  2  1  0  0  0  0
  2  3  1  0  0  0  0
  2  4  1  0  0  0  0
  2  5  1  0  0  0  0
  5  6  2  0  0  0  0
  5  7  1  0  0  0  0
  7  8  1  0  0  0  0
  7  9  1  0  0  0  0
  9 10  1  0  0  0  0
  9 11  1  0  0  0  0
  9 21  1  0  0  0  0
 11 12  1  0  0  0  0
 11 13  1  0  0  0  0
 11 14  1  0  0  0  0
 14 15  1  0  0  0  0
 14 16  1  0  0  0  0
 14 17  1  0  0  0  0
 17 18  2  0  0  0  0
 17 19  1  0  0  0  0
 19 20  1  0  0  0  0
 21 22  2  0  0  0  0
 21 23  1  0  0  0  0
 23 24  1  0  0  0  0
 23 25  1  0  0  0  0
 25 26  1  0  0  0  0
 25 27  1  0  0  0  0
 25 28  1  0  0  0  0
M  END
$$$$

  -OEChem-01062216073D

 28 27  0     1  0  0  0  0  0999 V2000
   -3.4611   -2.8455    1.1865 H   0  0  0  0  0  0  0  0  0  0  0  0
   -3.3543   -1.8671    0.7096 C   0  0  0  0  0  0  0  0  0  0  0  0
   -4.1386   -1.2052    1.0848 H   0  0  0  0  0  0  0  0  0  0  0  0
   -3.4736   -1.9885   -0.3698 H   0  0  0  0  0  0  0  0  0  0  0  0
   -1.9897   -1.2809    1.0185 C   0  0  0  0  0  0  0  0  0  0  0  0
   -1.2549   -1.8576    1.8029 O   0  0  0  0  0  0  0  0  0  0  0  0
   -1.6377   -0.0653    0.4620 N   0  0  0  0  0  0  0  0  0  0  0  0
   -2.3251    0.3190   -0.1799 H   0  0  0  0  0  0  0  0  0  0  0  0
   -0.2953    0.5627    0.4315 C   0  0  1  0  0  0  0  0  0  0  0  0
   -0.3194    1.3571   -0.3219 H   0  0  0  0  0  0  0  0  0  0  0  0
   -0.0092    1.2112    1.8004 C   0  0  0  0  0  0  0  0  0  0  0  0
   -0.1200    0.4633    2.5937 H   0  0  0  0  0  0  0  0  0  0  0  0
    1.0296    1.5611    1.8239 H   0  0  0  0  0  0  0  0  0  0  0  0
   -0.9407    2.4105    2.0743 C   0  0  0  0  0  0  0  0  0  0  0  0
   -0.7970    3.1648    1.2957 H   0  0  0  0  0  0  0  0  0  0  0  0
   -1.9828    2.0835    2.0368 H   0  0  0  0  0  0  0  0  0  0  0  0
   -0.7127    3.0759    3.4323 C   0  0  0  0  0  0  0  0  0  0  0  0
    0.0530    2.5768    4.2400 O   0  0  0  0  0  0  0  0  0  0  0  0
   -1.4021    4.2152    3.6688 O   0  0  0  0  0  0  0  0  0  0  0  0
   -1.1438    4.4978    4.5595 H   0  0  0  0  0  0  0  0  0  0  0  0
    0.9075   -0.3383    0.0438 C   0  0  0  0  0  0  0  0  0  0  0  0
    1.5786   -0.0221   -0.9296 O   0  0  0  0  0  0  0  0  0  0  0  0
    1.2675   -1.4634    0.7581 N   0  0  0  0  0  0  0  0  0  0  0  0
    0.5900   -1.7795    1.4572 H   0  0  0  0  0  0  0  0  0  0  0  0
    2.3420   -2.3638    0.3627 C   0  0  0  0  0  0  0  0  0  0  0  0
    3.2892   -1.8197    0.2852 H   0  0  0  0  0  0  0  0  0  0  0  0
    2.4607   -3.1569    1.1071 H   0  0  0  0  0  0  0  0  0  0  0  0
    2.1193   -2.8249   -0.6051 H   0  0  0  0  0  0  0  0  0  0  0  0
  1  2  1  0  0  0  0
  2  3  1  0  0  0  0
  2  4  1  0  0  0  0
  2  5  1  0  0  0  0
  5  6  2  0  0  0  0
  5  7  1  0  0  0  0
  7  8  1  0  0  0  0
  7  9  1  0  0  0  0
  9 10  1  0  0  0  0
  9 11  1  0  0  0  0
  9 21  1  0  0  0  0
 11 12  1  0  0  0  0
 11 13  1  0  0  0  0
 11 14  1  0  0  0  0
 14 15  1  0  0  0  0
 14 16  1  0  0  0  0
 14 17  1  0  0  0  0
 17 18  2  0  0  0  0
 17 19  1  0  0  0  0
 19 20  1  0  0  0  0
 21 22  2  0  0  0  0
 21 23  1  0  0  0  0
 23 24  1  0  0  0  0
 23 25  1  0  0  0  0
 25 26  1  0  0  0  0
 25 27  1  0  0  0  0
 25 28  1  0  0  0  0
M  END
$$$$

  -OEChem-01062216073D

 28 27  0     1  0  0  0  0  0999 V2000
   -3.5877   -2.7886    1.2244 H   0  0  0  0  0  0  0  0  0  0  0  0
   -3.4511   -1.8207    0.7334 C   0  0  0  0  0  0  0  0  0  0  0  0
   -4.2057   -1.1259    1.1099 H   0  0  0  0  0  0  0  0  0  0  0  0
   -3.5893   -1.9516   -0.3426 H   0  0  0  0  0  0  0  0  0  0  0  0
   -2.0620   -1.2809    1.0173 C   0  0  0  0  0  0  0  0  0  0  0  0
   -1.3328   -1.8840    1.7865 O   0  0  0  0  0  0  0  0  0  0  0  0
   -1.6824   -0.0755    0.4567 N   0  0  0  0  0  0  0  0  0  0  0  0
   -2.3778    0.3374   -0.1583 H   0  0  0  0  0  0  0  0  0  0  0  0
   -0.3296    0.5318    0.4043 C   0  0  1  0  0  0  0  0  0  0  0  0
   -0.3576    1.3289   -0.3463 H   0  0  0  0  0  0  0  0  0  0  0  0
   -0.0183    1.1705    1.7722 C   0  0  0  0  0  0  0  0  0  0  0  0
   -0.1279    0.4197    2.5629 H   0  0  0  0  0  0  0  0  0  0  0  0
    1.0250    1.5076    1.7849 H   0  0  0  0  0  0  0  0  0  0  0  0
   -0.9296    2.3816    2.0625 C   0  0  0  0  0  0  0  0  0  0  0  0
   -0.7849    3.1375    1.2858 H   0  0  0  0  0  0  0  0  0  0  0  0
   -1.9767    2.0700    2.0366 H   0  0  0  0  0  0  0  0  0  0  0  0
   -0.6766    3.0382    3.4201 C   0  0  0  0  0  0  0  0  0  0  0  0
    0.0914    2.5258    4.2173 O   0  0  0  0  0  0  0  0  0  0  0  0
   -1.3479    4.1859    3.6682 O   0  0  0  0  0  0  0  0  0  0  0  0
   -1.0746    4.4625    4.5563 H   0  0  0  0  0  0  0  0  0  0  0  0
    0.8742   -0.3644    0.0039 C   0  0  0  0  0  0  0  0  0  0  0  0
    1.6833    0.0868   -0.7962 O   0  0  0  0  0  0  0  0  0  0  0  0
    1.0891   -1.6330    0.5029 N   0  0  0  0  0  0  0  0  0  0  0  0
    0.4026   -1.9792    1.1778 H   0  0  0  0  0  0  0  0  0  0  0  0
    2.2303   -2.4686    0.1544 C   0  0  0  0  0  0  0  0  0  0  0  0
    3.1680   -1.9579    0.3974 H   0  0  0  0  0  0  0  0  0  0  0  0
    2.1939   -3.4081    0.7142 H   0  0  0  0  0  0  0  0  0  0  0  0
    2.2218   -2.7019   -0.9153 H   0  0  0  0  0  0  0  0  0  0  0  0
  1  2  1  0  0  0  0
  2  3  1  0  0  0  0
  2  4  1  0  0  0  0
  2  5  1  0  0  0  0
  5  6  2  0  0  0  0
  5  7  1  0  0  0  0
  7  8  1  0  0  0  0
  7  9  1  0  0  0  0
  9 10  1  0  0  0  0
  9 11  1  0  0  0  0
  9 21  1  0  0  0  0
 11 12  1  0  0  0  0
 11 13  1  0  0  0  0
 11 14  1  0  0  0  0
 14 15  1  0  0  0  0
 14 16  1  0  0  0  0
 14 17  1  0  0  0  0
 17 18  2  0  0  0  0
 17 19  1  0  0  0  0
 19 20  1  0  0  0  0
 21 22  2  0  0  0  0
 21 23  1  0  0  0  0
 23 24  1  0  0  0  0
 23 25  1  0  0  0  0
 25 26  1  0  0  0  0
 25 27  1  0  0  0  0
 25 28  1  0  0  0  0
M  END
$$$$

  -OEChem-01062216073D

 28 27  0     1  0  0  0  0  0999 V2000
   -3.6699   -2.7331    1.1334 H   0  0  0  0  0  0  0  0  0  0  0  0
   -3.5088   -1.7550    0.6710 C   0  0  0  0  0  0  0  0  0  0  0  0
   -4.2320   -1.0477    1.0843 H   0  0  0  0  0  0  0  0  0  0  0  0
   -3.6709   -1.8457   -0.4059 H   0  0  0  0  0  0  0  0  0  0  0  0
   -2.0969   -1.2727    0.9450 C   0  0  0  0  0  0  0  0  0  0  0  0
   -1.3732   -1.9287    1.6748 O   0  0  0  0  0  0  0  0  0  0  0  0
   -1.6851   -0.0647    0.4137 N   0  0  0  0  0  0  0  0  0  0  0  0
   -2.3792    0.3984   -0.1659 H   0  0  0  0  0  0  0  0  0  0  0  0
   -0.3220    0.5231    0.3921 C   0  0  1  0  0  0  0  0  0  0  0  0
   -0.3284    1.3323   -0.3454 H   0  0  0  0  0  0  0  0  0  0  0  0
   -0.0343    1.1347    1.7781 C   0  0  0  0  0  0  0  0  0  0  0  0
   -0.1710    0.3713    2.5526 H   0  0  0  0  0  0  0  0  0  0  0  0
    1.0124    1.4587    1.8217 H   0  0  0  0  0  0  0  0  0  0  0  0
   -0.9371    2.3528    2.0677 C   0  0  0  0  0  0  0  0  0  0  0  0
   -0.7628    3.1194    1.3077 H   0  0  0  0  0  0  0  0  0  0  0  0
   -1.9872    2.0563    2.0106 H   0  0  0  0  0  0  0  0  0  0  0  0
   -0.7090    2.9844    3.4413 C   0  0  0  0  0  0  0  0  0  0  0  0
    0.0331    2.4502    4.2484 O   0  0  0  0  0  0  0  0  0  0  0  0
   -1.3736    4.1354    3.6920 O   0  0  0  0  0  0  0  0  0  0  0  0
   -1.1175    4.3955    4.5903 H   0  0  0  0  0  0  0  0  0  0  0  0
    0.8877   -0.3689   -0.0044 C   0  0  0  0  0  0  0  0  0  0  0  0
    1.8267    0.1701   -0.5758 O   0  0  0  0  0  0  0  0  0  0  0  0
    0.9589   -1.7293    0.2181 N   0  0  0  0  0  0  0  0  0  0  0  0
    0.2344   -2.1196    0.8246 H   0  0  0  0  0  0  0  0  0  0  0  0
    2.1357   -2.5362   -0.0762 C   0  0  0  0  0  0  0  0  0  0  0  0
    2.9975   -2.1809    0.4983 H   0  0  0  0  0  0  0  0  0  0  0  0
    1.9501   -3.5821    0.1866 H   0  0  0  0  0  0  0  0  0  0  0  0
    2.3777   -2.4864   -1.1430 H   0  0  0  0  0  0  0  0  0  0  0  0
  1  2  1  0  0  0  0
  2  3  1  0  0  0  0
  2  4  1  0  0  0  0
  2  5  1  0  0  0  0
  5  6  2  0  0  0  0
  5  7  1  0  0  0  0
  7  8  1  0  0  0  0
  7  9  1  0  0  0  0
  9 10  1  0  0  0  0
  9 11  1  0  0  0  0
  9 21  1  0  0  0  0
 11 12  1  0  0  0  0
 11 13  1  0  0  0  0
 11 14  1  0  0  0  0
 14 15  1  0  0  0  0
 14 16  1  0  0  0  0
 14 17  1  0  0  0  0
 17 18  2  0  0  0  0
 17 19  1  0  0  0  0
 19 20  1  0  0  0  0
 21 22  2  0  0  0  0
 21 23  1  0  0  0  0
 23 24  1  0  0  0  0
 23 25  1  0  0  0  0
 25 26  1  0  0  0  0
 25 27  1  0  0  0  0
 25 28  1  0  0  0  0
M  END
$$$$

  -OEChem-01062216073D

 28 27  0     1  0  0  0  0  0999 V2000
   -3.6764   -2.7054    1.3149 H   0  0  0  0  0  0  0  0  0  0  0  0
   -3.5304   -1.7405    0.8208 C   0  0  0  0  0  0  0  0  0  0  0  0
   -4.2054   -1.0096    1.2728 H   0  0  0  0  0  0  0  0  0  0  0  0
   -3.7763   -1.8483   -0.2384 H   0  0  0  0  0  0  0  0  0  0  0  0
   -2.0921   -1.2844    0.9770 C   0  0  0  0  0  0  0  0  0  0  0  0
   -1.3133   -1.9698    1.6169 O   0  0  0  0  0  0  0  0  0  0  0  0
   -1.7048   -0.0788    0.4231 N   0  0  0  0  0  0  0  0  0  0  0  0
   -2.4369    0.4107   -0.0834 H   0  0  0  0  0  0  0  0  0  0  0  0
   -0.3468    0.5171    0.3523 C   0  0  1  0  0  0  0  0  0  0  0  0
   -0.3799    1.3215   -0.3896 H   0  0  0  0  0  0  0  0  0  0  0  0
   -0.0275    1.1363    1.7294 C   0  0  0  0  0  0  0  0  0  0  0  0
   -0.1369    0.3729    2.5083 H   0  0  0  0  0  0  0  0  0  0  0  0
    1.0168    1.4699    1.7467 H   0  0  0  0  0  0  0  0  0  0  0  0
   -0.9312    2.3481    2.0421 C   0  0  0  0  0  0  0  0  0  0  0  0
   -0.7828    3.1144    1.2763 H   0  0  0  0  0  0  0  0  0  0  0  0
   -1.9805    2.0448    2.0153 H   0  0  0  0  0  0  0  0  0  0  0  0
   -0.6688    2.9832    3.4082 C   0  0  0  0  0  0  0  0  0  0  0  0
    0.0997    2.4557    4.1948 O   0  0  0  0  0  0  0  0  0  0  0  0
   -1.3338    4.1303    3.6759 O   0  0  0  0  0  0  0  0  0  0  0  0
   -1.0531    4.3938    4.5657 H   0  0  0  0  0  0  0  0  0  0  0  0
    0.8590   -0.3669   -0.0751 C   0  0  0  0  0  0  0  0  0  0  0  0
    1.8632    0.2021   -0.4841 O   0  0  0  0  0  0  0  0  0  0  0  0
    0.8332   -1.7471   -0.1164 N   0  0  0  0  0  0  0  0  0  0  0  0
    0.0927   -2.1780    0.4403 H   0  0  0  0  0  0  0  0  0  0  0  0
    2.0031   -2.5531   -0.4410 C   0  0  0  0  0  0  0  0  0  0  0  0
    2.8087   -2.3659    0.2766 H   0  0  0  0  0  0  0  0  0  0  0  0
    1.7487   -3.6167   -0.4082 H   0  0  0  0  0  0  0  0  0  0  0  0
    2.3649   -2.3167   -1.4470 H   0  0  0  0  0  0  0  0  0  0  0  0
  1  2  1  0  0  0  0
  2  3  1  0  0  0  0
  2  4  1  0  0  0  0
  2  5  1  0  0  0  0
  5  6  2  0  0  0  0
  5  7  1  0  0  0  0
  7  8  1  0  0  0  0
  7  9  1  0  0  0  0
  9 10  1  0  0  0  0
  9 11  1  0  0  0  0
  9 21  1  0  0  0  0
 11 12  1  0  0  0  0
 11 13  1  0  0  0  0
 11 14  1  0  0  0  0
 14 15  1  0  0  0  0
 14 16  1  0  0  0  0
 14 17  1  0  0  0  0
 17 18  2  0  0  0  0
 17 19  1  0  0  0  0
 19 20  1  0  0  0  0
 21 22  2  0  0  0  0
 21 23  1  0  0  0  0
 23 24  1  0  0  0  0
 23 25  1  0  0  0  0
 25 26  1  0  0  0  0
 25 27  1  0  0  0  0
 25 28  1  0  0  0  0
M  END
$$$$

  -OEChem-01062216073D

 28 27  0     1  0  0  0  0  0999 V2000
   -3.6455   -2.6816    1.3611 H   0  0  0  0  0  0  0  0  0  0  0  0
   -3.5098   -1.7135    0.8703 C   0  0  0  0  0  0  0  0  0  0  0  0
   -4.1402   -0.9753    1.3720 H   0  0  0  0  0  0  0  0  0  0  0  0
   -3.8221   -1.8016   -0.1732 H   0  0  0  0  0  0  0  0  0  0  0  0
   -2.0555   -1.2888    0.9434 C   0  0  0  0  0  0  0  0  0  0  0  0
   -1.2441   -2.0193    1.4844 O   0  0  0  0  0  0  0  0  0  0  0  0
   -1.6783   -0.0757    0.3993 N   0  0  0  0  0  0  0  0  0  0  0  0
   -2.4305    0.4562   -0.0287 H   0  0  0  0  0  0  0  0  0  0  0  0
   -0.3226    0.5265    0.3402 C   0  0  1  0  0  0  0  0  0  0  0  0
   -0.3501    1.3334   -0.3986 H   0  0  0  0  0  0  0  0  0  0  0  0
   -0.0255    1.1389    1.7269 C   0  0  0  0  0  0  0  0  0  0  0  0
   -0.1395    0.3687    2.4984 H   0  0  0  0  0  0  0  0  0  0  0  0
    1.0155    1.4811    1.7631 H   0  0  0  0  0  0  0  0  0  0  0  0
   -0.9420    2.3427    2.0350 C   0  0  0  0  0  0  0  0  0  0  0  0
   -0.7884    3.1145    1.2757 H   0  0  0  0  0  0  0  0  0  0  0  0
   -1.9887    2.0328    1.9922 H   0  0  0  0  0  0  0  0  0  0  0  0
   -0.7039    2.9719    3.4083 C   0  0  0  0  0  0  0  0  0  0  0  0
    0.0569    2.4459    4.2031 O   0  0  0  0  0  0  0  0  0  0  0  0
   -1.3831    4.1111    3.6733 O   0  0  0  0  0  0  0  0  0  0  0  0
   -1.1161    4.3722    4.5681 H   0  0  0  0  0  0  0  0  0  0  0  0
    0.8830   -0.3583   -0.0892 C   0  0  0  0  0  0  0  0  0  0  0  0
    1.9566    0.1930   -0.2983 O   0  0  0  0  0  0  0  0  0  0  0  0
    0.7632   -1.6940   -0.4222 N   0  0  0  0  0  0  0  0  0  0  0  0
   -0.0251   -2.1623    0.0267 H   0  0  0  0  0  0  0  0  0  0  0  0
    1.9085   -2.5136   -0.7994 C   0  0  0  0  0  0  0  0  0  0  0  0
    2.6406   -2.5473    0.0142 H   0  0  0  0  0  0  0  0  0  0  0  0
    1.5844   -3.5354   -1.0184 H   0  0  0  0  0  0  0  0  0  0  0  0
    2.3939   -2.1080   -1.6934 H   0  0  0  0  0  0  0  0  0  0  0  0
  1  2  1  0  0  0  0
  2  3  1  0  0  0  0
  2  4  1  0  0  0  0
  2  5  1  0  0  0  0
  5  6  2  0  0  0  0
  5  7  1  0  0  0  0
  7  8  1  0  0  0  0
  7  9  1  0  0  0  0
  9 10  1  0  0  0  0
  9 11  1  0  0  0  0
  9 21  1  0  0  0  0
 11 12  1  0  0  0  0
 11 13  1  0  0  0  0
 11 14  1  0  0  0  0
 14 15  1  0  0  0  0
 14 16  1  0  0  0  0
 14 17  1  0  0  0  0
 17 18  2  0  0  0  0
 17 19  1  0  0  0  0
 19 20  1  0  0  0  0
 21 22  2  0  0  0  0
 21 23  1  0  0  0  0
 23 24  1  0  0  0  0
 23 25  1  0  0  0  0
 25 26  1  0  0  0  0
 25 27  1  0  0  0  0
 25 28  1  0  0  0  0
M  END
$$$$

  -OEChem-01062216073D

 28 27  0     1  0  0  0  0  0999 V2000
   -3.5833   -2.6663    1.4060 H   0  0  0  0  0  0  0  0  0  0  0  0
   -3.4637   -1.6915    0.9244 C   0  0  0  0  0  0  0  0  0  0  0  0
   -4.0392   -0.9510    1.4852 H   0  0  0  0  0  0  0  0  0  0  0  0
   -3.8539   -1.7524   -0.0944 H   0  0  0  0  0  0  0  0  0  0  0  0
   -1.9993   -1.2976    0.8971 C   0  0  0  0  0  0  0  0  0  0  0  0
   -1.1607   -2.0710    1.3229 O   0  0  0  0  0  0  0  0  0  0  0  0
   -1.6388   -0.0733    0.3673 N   0  0  0  0  0  0  0  0  0  0  0  0
   -2.4109    0.5025    0.0446 H   0  0  0  0  0  0  0  0  0  0  0  0
   -0.2875    0.5396    0.3292 C   0  0  1  0  0  0  0  0  0  0  0  0
   -0.3062    1.3495   -0.4063 H   0  0  0  0  0  0  0  0  0  0  0  0
   -0.0213    1.1454    1.7264 C   0  0  0  0  0  0  0  0  0  0  0  0
   -0.1410    0.3682    2.4898 H   0  0  0  0  0  0  0  0  0  0  0  0
    1.0143    1.4998    1.7863 H   0  0  0  0  0  0  0  0  0  0  0  0
   -0.9555    2.3386    2.0256 C   0  0  0  0  0  0  0  0  0  0  0  0
   -0.7948    3.1172    1.2749 H   0  0  0  0  0  0  0  0  0  0  0  0
   -1.9985    2.0204    1.9618 H   0  0  0  0  0  0  0  0  0  0  0  0
   -0.7496    2.9609    3.4073 C   0  0  0  0  0  0  0  0  0  0  0  0
    0.0010    2.4373    4.2130 O   0  0  0  0  0  0  0  0  0  0  0  0
   -1.4472    4.0901    3.6676 O   0  0  0  0  0  0  0  0  0  0  0  0
   -1.1994    4.3478    4.5690 H   0  0  0  0  0  0  0  0  0  0  0  0
    0.9142   -0.3514   -0.0994 C   0  0  0  0  0  0  0  0  0  0  0  0
    2.0402    0.1314   -0.0948 O   0  0  0  0  0  0  0  0  0  0  0  0
    0.7323   -1.5717   -0.7227 N   0  0  0  0  0  0  0  0  0  0  0  0
   -0.1185   -2.0496   -0.4283 H   0  0  0  0  0  0  0  0  0  0  0  0
    1.8531   -2.4045   -1.1424 C   0  0  0  0  0  0  0  0  0  0  0  0
    2.4726   -2.6756   -0.2810 H   0  0  0  0  0  0  0  0  0  0  0  0
    1.4854   -3.3229   -1.6097 H   0  0  0  0  0  0  0  0  0  0  0  0
    2.4749   -1.8737   -1.8711 H   0  0  0  0  0  0  0  0  0  0  0  0
  1  2  1  0  0  0  0
  2  3  1  0  0  0  0
  2  4  1  0  0  0  0
  2  5  1  0  0  0  0
  5  6  2  0  0  0  0
  5  7  1  0  0  0  0
  7  8  1  0  0  0  0
  7  9  1  0  0  0  0
  9 10  1  0  0  0  0
  9 11  1  0  0  0  0
  9 21  1  0  0  0  0
 11 12  1  0  0  0  0
 11 13  1  0  0  0  0
 11 14  1  0  0  0  0
 14 15  1  0  0  0  0
 14 16  1  0  0  0  0
 14 17  1  0  0  0  0
 17 18  2  0  0  0  0
 17 19  1  0  0  0  0
 19 20  1  0  0  0  0
 21 22  2  0  0  0  0
 21 23  1  0  0  0  0
 23 24  1  0  0  0  0
 23 25  1  0  0  0  0
 25 26  1  0  0  0  0
 25 27  1  0  0  0  0
 25 28  1  0  0  0  0
M  END
$$$$

  -OEChem-01062216073D

 28 27  0     1  0  0  0  0  0999 V2000
   -3.4798   -2.7005    1.4070 H   0  0  0  0  0  0  0  0  0  0  0  0
   -3.3890   -1.7167    0.9376 C   0  0  0  0  0  0  0  0  0  0  0  0
   -3.9520   -0.9924    1.5313 H   0  0  0  0  0  0  0  0  0  0  0  0
   -3.8153   -1.7657   -0.0673 H   0  0  0  0  0  0  0  0  0  0  0  0
   -1.9307   -1.3054    0.8646 C   0  0  0  0  0  0  0  0  0  0  0  0
   -1.0693   -2.0799    1.2375 O   0  0  0  0  0  0  0  0  0  0  0  0
   -1.6003   -0.0659    0.3492 N   0  0  0  0  0  0  0  0  0  0  0  0
   -2.3877    0.5217    0.0913 H   0  0  0  0  0  0  0  0  0  0  0  0
   -0.2570    0.5631    0.3303 C   0  0  1  0  0  0  0  0  0  0  0  0
   -0.2719    1.3769   -0.4008 H   0  0  0  0  0  0  0  0  0  0  0  0
   -0.0114    1.1660    1.7338 C   0  0  0  0  0  0  0  0  0  0  0  0
   -0.1286    0.3832    2.4920 H   0  0  0  0  0  0  0  0  0  0  0  0
    1.0182    1.5344    1.8069 H   0  0  0  0  0  0  0  0  0  0  0  0
   -0.9626    2.3468    2.0280 C   0  0  0  0  0  0  0  0  0  0  0  0
   -0.8032    3.1305    1.2822 H   0  0  0  0  0  0  0  0  0  0  0  0
   -2.0008    2.0165    1.9520 H   0  0  0  0  0  0  0  0  0  0  0  0
   -0.7787    2.9665    3.4140 C   0  0  0  0  0  0  0  0  0  0  0  0
   -0.0307    2.4499    4.2263 O   0  0  0  0  0  0  0  0  0  0  0  0
   -1.4916    4.0873    3.6691 O   0  0  0  0  0  0  0  0  0  0  0  0
   -1.2561    4.3463    4.5735 H   0  0  0  0  0  0  0  0  0  0  0  0
    0.9339   -0.3382   -0.1059 C   0  0  0  0  0  0  0  0  0  0  0  0
    2.0853    0.0046    0.1337 O   0  0  0  0  0  0  0  0  0  0  0  0
    0.7354   -1.3752   -0.9990 N   0  0  0  0  0  0  0  0  0  0  0  0
   -0.1985   -1.7740   -0.9655 H   0  0  0  0  0  0  0  0  0  0  0  0
    1.8232   -2.2439   -1.4327 C   0  0  0  0  0  0  0  0  0  0  0  0
    2.2670   -2.7595   -0.5743 H   0  0  0  0  0  0  0  0  0  0  0  0
    1.4494   -2.9953   -2.1345 H   0  0  0  0  0  0  0  0  0  0  0  0
    2.6030   -1.6624   -1.9358 H   0  0  0  0  0  0  0  0  0  0  0  0
  1  2  1  0  0  0  0
  2  3  1  0  0  0  0
  2  4  1  0  0  0  0
  2  5  1  0  0  0  0
  5  6  2  0  0  0  0
  5  7  1  0  0  0  0
  7  8  1  0  0  0  0
  7  9  1  0  0  0  0
  9 10  1  0  0  0  0
  9 11  1  0  0  0  0
  9 21  1  0  0  0  0
 11 12  1  0  0  0  0
 11 13  1  0  0  0  0
 11 14  1  0  0  0  0
 14 15  1  0  0  0  0
 14 16  1  0  0  0  0
 14 17  1  0  0  0  0
 17 18  2  0  0  0  0
 17 19  1  0  0  0  0
 19 20  1  0  0  0  0
 21 22  2  0  0  0  0
 21 23  1  0  0  0  0
 23 24  1  0  0  0  0
 23 25  1  0  0  0  0
 25 26  1  0  0  0  0
 25 27  1  0  0  0  0
 25 28  1  0  0  0  0
M  END
$$$$

  -OEChem-01062216073D

 28 27  0     1  0  0  0  0  0999 V2000
   -3.3945   -2.7384    1.3892 H   0  0  0  0  0  0  0  0  0  0  0  0
   -3.3205   -1.7530    0.9197 C   0  0  0  0  0  0  0  0  0  0  0  0
   -3.9009   -1.0399    1.5099 H   0  0  0  0  0  0  0  0  0  0  0  0
   -3.7403   -1.8102   -0.0874 H   0  0  0  0  0  0  0  0  0  0  0  0
   -1.8701   -1.3136    0.8543 C   0  0  0  0  0  0  0  0  0  0  0  0
   -0.9970   -2.0705    1.2352 O   0  0  0  0  0  0  0  0  0  0  0  0
   -1.5648   -0.0636    0.3467 N   0  0  0  0  0  0  0  0  0  0  0  0
   -2.3626    0.5176    0.1073 H   0  0  0  0  0  0  0  0  0  0  0  0
   -0.2309    0.5822    0.3425 C   0  0  1  0  0  0  0  0  0  0  0  0
   -0.2432    1.3972   -0.3873 H   0  0  0  0  0  0  0  0  0  0  0  0
    0.0028    1.1877    1.7469 C   0  0  0  0  0  0  0  0  0  0  0  0
   -0.1072    0.4039    2.5053 H   0  0  0  0  0  0  0  0  0  0  0  0
    1.0277    1.5688    1.8216 H   0  0  0  0  0  0  0  0  0  0  0  0
   -0.9642    2.3572    2.0346 C   0  0  0  0  0  0  0  0  0  0  0  0
   -0.8123    3.1410    1.2875 H   0  0  0  0  0  0  0  0  0  0  0  0
   -1.9975    2.0123    1.9549 H   0  0  0  0  0  0  0  0  0  0  0  0
   -0.7967    2.9826    3.4203 C   0  0  0  0  0  0  0  0  0  0  0  0
   -0.0472    2.4780    4.2386 O   0  0  0  0  0  0  0  0  0  0  0  0
   -1.5270    4.0937    3.6690 O   0  0  0  0  0  0  0  0  0  0  0  0
   -1.3029    4.3554    4.5756 H   0  0  0  0  0  0  0  0  0  0  0  0
    0.9485   -0.3315   -0.0963 C   0  0  0  0  0  0  0  0  0  0  0  0
    2.0752   -0.1825    0.3608 O   0  0  0  0  0  0  0  0  0  0  0  0
    0.7952   -1.1403   -1.2082 N   0  0  0  0  0  0  0  0  0  0  0  0
   -0.1648   -1.3675   -1.4455 H   0  0  0  0  0  0  0  0  0  0  0  0
    1.8472   -2.0374   -1.6715 C   0  0  0  0  0  0  0  0  0  0  0  0
    2.0975   -2.7665   -0.8936 H   0  0  0  0  0  0  0  0  0  0  0  0
    1.5169   -2.5788   -2.5630 H   0  0  0  0  0  0  0  0  0  0  0  0
    2.7496   -1.4724   -1.9280 H   0  0  0  0  0  0  0  0  0  0  0  0
  1  2  1  0  0  0  0
  2  3  1  0  0  0  0
  2  4  1  0  0  0  0
  2  5  1  0  0  0  0
  5  6  2  0  0  0  0
  5  7  1  0  0  0  0
  7  8  1  0  0  0  0
  7  9  1  0  0  0  0
  9 10  1  0  0  0  0
  9 11  1  0  0  0  0
  9 21  1  0  0  0  0
 11 12  1  0  0  0  0
 11 13  1  0  0  0  0
 11 14  1  0  0  0  0
 14 15  1  0  0  0  0
 14 16  1  0  0  0  0
 14 17  1  0  0  0  0
 17 18  2  0  0  0  0
 17 19  1  0  0  0  0
 19 20  1  0  0  0  0
 21 22  2  0  0  0  0
 21 23  1  0  0  0  0
 23 24  1  0  0  0  0
 23 25  1  0  0  0  0
 25 26  1  0  0  0  0
 25 27  1  0  0  0  0
 25 28  1  0  0  0  0
M  END
$$$$

  -OEChem-01062216073D

 28 27  0     1  0  0  0  0  0999 V2000
   -3.3711   -2.7543    1.3745 H   0  0  0  0  0  0  0  0  0  0  0  0
   -3.3011   -1.7640    0.9149 C   0  0  0  0  0  0  0  0  0  0  0  0
   -3.8826   -1.0588    1.5136 H   0  0  0  0  0  0  0  0  0  0  0  0
   -3.7224   -1.8131   -0.0921 H   0  0  0  0  0  0  0  0  0  0  0  0
   -1.8518   -1.3201    0.8510 C   0  0  0  0  0  0  0  0  0  0  0  0
   -0.9787   -2.0733    1.2382 O   0  0  0  0  0  0  0  0  0  0  0  0
   -1.5518   -0.0685    0.3435 N   0  0  0  0  0  0  0  0  0  0  0  0
   -2.3527    0.5096    0.1079 H   0  0  0  0  0  0  0  0  0  0  0  0
   -0.2219    0.5828    0.3468 C   0  0  1  0  0  0  0  0  0  0  0  0
   -0.2312    1.3982   -0.3821 H   0  0  0  0  0  0  0  0  0  0  0  0
    0.0060    1.1914    1.7503 C   0  0  0  0  0  0  0  0  0  0  0  0
   -0.1027    0.4083    2.5097 H   0  0  0  0  0  0  0  0  0  0  0  0
    1.0306    1.5737    1.8243 H   0  0  0  0  0  0  0  0  0  0  0  0
   -0.9652    2.3582    2.0346 C   0  0  0  0  0  0  0  0  0  0  0  0
   -0.8149    3.1419    1.2872 H   0  0  0  0  0  0  0  0  0  0  0  0
   -1.9972    2.0093    1.9537 H   0  0  0  0  0  0  0  0  0  0  0  0
   -0.8023    2.9859    3.4196 C   0  0  0  0  0  0  0  0  0  0  0  0
   -0.0531    2.4855    4.2406 O   0  0  0  0  0  0  0  0  0  0  0  0
   -1.5372    4.0947    3.6644 O   0  0  0  0  0  0  0  0  0  0  0  0
   -1.3176    4.3571    4.5718 H   0  0  0  0  0  0  0  0  0  0  0  0
    0.9545   -0.3370   -0.0856 C   0  0  0  0  0  0  0  0  0  0  0  0
    2.0077   -0.3785    0.5386 O   0  0  0  0  0  0  0  0  0  0  0  0
    0.9233   -0.8997   -1.3491 N   0  0  0  0  0  0  0  0  0  0  0  0
    0.0096   -0.9543   -1.7863 H   0  0  0  0  0  0  0  0  0  0  0  0
    1.9802   -1.7750   -1.8424 C   0  0  0  0  0  0  0  0  0  0  0  0
    2.0808   -2.6537   -1.1965 H   0  0  0  0  0  0  0  0  0  0  0  0
    1.7494   -2.1136   -2.8568 H   0  0  0  0  0  0  0  0  0  0  0  0
    2.9382   -1.2450   -1.8668 H   0  0  0  0  0  0  0  0  0  0  0  0
  1  2  1  0  0  0  0
  2  3  1  0  0  0  0
  2  4  1  0  0  0  0
  2  5  1  0  0  0  0
  5  6  2  0  0  0  0
  5  7  1  0  0  0  0
  7  8  1  0  0  0  0
  7  9  1  0  0  0  0
  9 10  1  0  0  0  0
  9 11  1  0  0  0  0
  9 21  1  0  0  0  0
 11 12  1  0  0  0  0
 11 13  1  0  0  0  0
 11 14  1  0  0  0  0
 14 15  1  0  0  0  0
 14 16  1  0  0  0  0
 14 17  1  0  0  0  0
 17 18  2  0  0  0  0
 17 19  1  0  0  0  0
 19 20  1  0  0  0  0
 21 22  2  0  0  0  0
 21 23  1  0  0  0  0
 23 24  1  0  0  0  0
 23 25  1  0  0  0  0
 25 26  1  0  0  0  0
 25 27  1  0  0  0  0
 25 28  1  0  0  0  0
M  END
$$$$

  -OEChem-01062216073D

 28 27  0     1  0  0  0  0  0999 V2000
   -3.3962   -2.7584    1.3797 H   0  0  0  0  0  0  0  0  0  0  0  0
   -3.3186   -1.7755    0.9058 C   0  0  0  0  0  0  0  0  0  0  0  0
   -3.9115   -1.0615    1.4825 H   0  0  0  0  0  0  0  0  0  0  0  0
   -3.7215   -1.8414   -0.1076 H   0  0  0  0  0  0  0  0  0  0  0  0
   -1.8682   -1.3313    0.8618 C   0  0  0  0  0  0  0  0  0  0  0  0
   -1.0031   -2.0821    1.2695 O   0  0  0  0  0  0  0  0  0  0  0  0
   -1.5620   -0.0826    0.3510 N   0  0  0  0  0  0  0  0  0  0  0  0
   -2.3607    0.4910    0.0990 H   0  0  0  0  0  0  0  0  0  0  0  0
   -0.2313    0.5659    0.3520 C   0  0  1  0  0  0  0  0  0  0  0  0
   -0.2425    1.3809   -0.3776 H   0  0  0  0  0  0  0  0  0  0  0  0
    0.0050    1.1817    1.7504 C   0  0  0  0  0  0  0  0  0  0  0  0
   -0.1048    0.4027    2.5143 H   0  0  0  0  0  0  0  0  0  0  0  0
    1.0330    1.5563    1.8163 H   0  0  0  0  0  0  0  0  0  0  0  0
   -0.9597    2.3538    2.0336 C   0  0  0  0  0  0  0  0  0  0  0  0
   -0.8100    3.1329    1.2815 H   0  0  0  0  0  0  0  0  0  0  0  0
   -1.9933    2.0080    1.9594 H   0  0  0  0  0  0  0  0  0  0  0  0
   -0.7868    2.9878    3.4145 C   0  0  0  0  0  0  0  0  0  0  0  0
   -0.0353    2.4886    4.2341 O   0  0  0  0  0  0  0  0  0  0  0  0
   -1.5109    4.1047    3.6552 O   0  0  0  0  0  0  0  0  0  0  0  0
   -1.2839    4.3717    4.5595 H   0  0  0  0  0  0  0  0  0  0  0  0
    0.9468   -0.3545   -0.0764 C   0  0  0  0  0  0  0  0  0  0  0  0
    1.8988   -0.5771    0.6614 O   0  0  0  0  0  0  0  0  0  0  0  0
    1.0863   -0.6656   -1.4178 N   0  0  0  0  0  0  0  0  0  0  0  0
    0.2622   -0.5493   -1.9977 H   0  0  0  0  0  0  0  0  0  0  0  0
    2.1915   -1.4682   -1.9296 C   0  0  0  0  0  0  0  0  0  0  0  0
    2.1936   -2.4587   -1.4621 H   0  0  0  0  0  0  0  0  0  0  0  0
    2.0988   -1.5947   -3.0125 H   0  0  0  0  0  0  0  0  0  0  0  0
    3.1492   -0.9791   -1.7213 H   0  0  0  0  0  0  0  0  0  0  0  0
  1  2  1  0  0  0  0
  2  3  1  0  0  0  0
  2  4  1  0  0  0  0
  2  5  1  0  0  0  0
  5  6  2  0  0  0  0
  5  7  1  0  0  0  0
  7  8  1  0  0  0  0
  7  9  1  0  0  0  0
  9 10  1  0  0  0  0
  9 11  1  0  0  0  0
  9 21  1  0  0  0  0
 11 12  1  0  0  0  0
 11 13  1  0  0  0  0
 11 14  1  0  0  0  0
 14 15  1  0  0  0  0
 14 16  1  0  0  0  0
 14 17  1  0  0  0  0
 17 18  2  0  0  0  0
 17 19  1  0  0  0  0
 19 20  1  0  0  0  0
 21 22  2  0  0  0  0
 21 23  1  0  0  0  0
 23 24  1  0  0  0  0
 23 25  1  0  0  0  0
 25 26  1  0  0  0  0
 25 27  1  0  0  0  0
 25 28  1  0  0  0  0
M  END
$$$$

  -OEChem-01062216073D

 28 27  0     1  0  0  0  0  0999 V2000
   -3.4268   -2.7599    1.3740 H   0  0  0  0  0  0  0  0  0  0  0  0
   -3.3407   -1.7758    0.9043 C   0  0  0  0  0  0  0  0  0  0  0  0
   -3.9348   -1.0610    1.4786 H   0  0  0  0  0  0  0  0  0  0  0  0
   -3.7355   -1.8364   -0.1125 H   0  0  0  0  0  0  0  0  0  0  0  0
   -1.8882   -1.3383    0.8732 C   0  0  0  0  0  0  0  0  0  0  0  0
   -1.0345   -2.0892    1.3018 O   0  0  0  0  0  0  0  0  0  0  0  0
   -1.5735   -0.0953    0.3539 N   0  0  0  0  0  0  0  0  0  0  0  0
   -2.3685    0.4710    0.0756 H   0  0  0  0  0  0  0  0  0  0  0  0
   -0.2420    0.5510    0.3446 C   0  0  1  0  0  0  0  0  0  0  0  0
   -0.2603    1.3660   -0.3845 H   0  0  0  0  0  0  0  0  0  0  0  0
    0.0054    1.1690    1.7391 C   0  0  0  0  0  0  0  0  0  0  0  0
   -0.1028    0.3918    2.5051 H   0  0  0  0  0  0  0  0  0  0  0  0
    1.0362    1.5374    1.7959 H   0  0  0  0  0  0  0  0  0  0  0  0
   -0.9542    2.3439    2.0282 C   0  0  0  0  0  0  0  0  0  0  0  0
   -0.8098    3.1219    1.2739 H   0  0  0  0  0  0  0  0  0  0  0  0
   -1.9890    1.9996    1.9631 H   0  0  0  0  0  0  0  0  0  0  0  0
   -0.7689    2.9797    3.4069 C   0  0  0  0  0  0  0  0  0  0  0  0
   -0.0123    2.4803    4.2216 O   0  0  0  0  0  0  0  0  0  0  0  0
   -1.4892    4.0980    3.6519 O   0  0  0  0  0  0  0  0  0  0  0  0
   -1.2569    4.3641    4.5551 H   0  0  0  0  0  0  0  0  0  0  0  0
    0.9427   -0.3637   -0.0793 C   0  0  0  0  0  0  0  0  0  0  0  0
    1.7736   -0.7662    0.7250 O   0  0  0  0  0  0  0  0  0  0  0  0
    1.2756   -0.4304   -1.4216 N   0  0  0  0  0  0  0  0  0  0  0  0
    0.5695   -0.1327   -2.0858 H   0  0  0  0  0  0  0  0  0  0  0  0
    2.4336   -1.1674   -1.9158 C   0  0  0  0  0  0  0  0  0  0  0  0
    2.3669   -2.2224   -1.6293 H   0  0  0  0  0  0  0  0  0  0  0  0
    2.4837   -1.1066   -3.0071 H   0  0  0  0  0  0  0  0  0  0  0  0
    3.3587   -0.7489   -1.5050 H   0  0  0  0  0  0  0  0  0  0  0  0
  1  2  1  0  0  0  0
  2  3  1  0  0  0  0
  2  4  1  0  0  0  0
  2  5  1  0  0  0  0
  5  6  2  0  0  0  0
  5  7  1  0  0  0  0
  7  8  1  0  0  0  0
  7  9  1  0  0  0  0
  9 10  1  0  0  0  0
  9 11  1  0  0  0  0
  9 21  1  0  0  0  0
 11 12  1  0  0  0  0
 11 13  1  0  0  0  0
 11 14  1  0  0  0  0
 14 15  1  0  0  0  0
 14 16  1  0  0  0  0
 14 17  1  0  0  0  0
 17 18  2  0  0  0  0
 17 19  1  0  0  0  0
 19 20  1  0  0  0  0
 21 22  2  0  0  0  0
 21 23  1  0  0  0  0
 23 24  1  0  0  0  0
 23 25  1  0  0  0  0
 25 26  1  0  0  0  0
 25 27  1  0  0  0  0
 25 28  1  0  0  0  0
M  END
$$$$

  -OEChem-01062216073D

 28 27  0     1  0  0  0  0  0999 V2000
   -3.4746   -2.7730    1.3556 H   0  0  0  0  0  0  0  0  0  0  0  0
   -3.3712   -1.7984    0.8696 C   0  0  0  0  0  0  0  0  0  0  0  0
   -4.0042   -1.0778    1.3927 H   0  0  0  0  0  0  0  0  0  0  0  0
   -3.7063   -1.8862   -0.1665 H   0  0  0  0  0  0  0  0  0  0  0  0
   -1.9234   -1.3453    0.9112 C   0  0  0  0  0  0  0  0  0  0  0  0
   -1.0945   -2.0696    1.4238 O   0  0  0  0  0  0  0  0  0  0  0  0
   -1.5962   -0.1116    0.3774 N   0  0  0  0  0  0  0  0  0  0  0  0
   -2.3801    0.4234    0.0181 H   0  0  0  0  0  0  0  0  0  0  0  0
   -0.2625    0.5307    0.3430 C   0  0  1  0  0  0  0  0  0  0  0  0
   -0.2971    1.3430   -0.3884 H   0  0  0  0  0  0  0  0  0  0  0  0
    0.0127    1.1552    1.7286 C   0  0  0  0  0  0  0  0  0  0  0  0
   -0.0872    0.3830    2.5011 H   0  0  0  0  0  0  0  0  0  0  0  0
    1.0471    1.5158    1.7655 H   0  0  0  0  0  0  0  0  0  0  0  0
   -0.9369    2.3354    2.0285 C   0  0  0  0  0  0  0  0  0  0  0  0
   -0.8035    3.1081    1.2670 H   0  0  0  0  0  0  0  0  0  0  0  0
   -1.9739    1.9945    1.9837 H   0  0  0  0  0  0  0  0  0  0  0  0
   -0.7244    2.9785    3.3997 C   0  0  0  0  0  0  0  0  0  0  0  0
    0.0452    2.4811    4.2034 O   0  0  0  0  0  0  0  0  0  0  0  0
   -1.4346    4.1020    3.6502 O   0  0  0  0  0  0  0  0  0  0  0  0
   -1.1872    4.3707    4.5486 H   0  0  0  0  0  0  0  0  0  0  0  0
    0.9292   -0.3742   -0.0840 C   0  0  0  0  0  0  0  0  0  0  0  0
    1.6312   -0.9581    0.7305 O   0  0  0  0  0  0  0  0  0  0  0  0
    1.4537   -0.2156   -1.3565 N   0  0  0  0  0  0  0  0  0  0  0  0
    0.8916    0.2853   -2.0361 H   0  0  0  0  0  0  0  0  0  0  0  0
    2.6759   -0.8745   -1.8057 C   0  0  0  0  0  0  0  0  0  0  0  0
    2.5839   -1.9616   -1.7080 H   0  0  0  0  0  0  0  0  0  0  0  0
    2.8715   -0.6366   -2.8556 H   0  0  0  0  0  0  0  0  0  0  0  0
    3.5321   -0.5390   -1.2108 H   0  0  0  0  0  0  0  0  0  0  0  0
  1  2  1  0  0  0  0
  2  3  1  0  0  0  0
  2  4  1  0  0  0  0
  2  5  1  0  0  0  0
  5  6  2  0  0  0  0
  5  7  1  0  0  0  0
  7  8  1  0  0  0  0
  7  9  1  0  0  0  0
  9 10  1  0  0  0  0
  9 11  1  0  0  0  0
  9 21  1  0  0  0  0
 11 12  1  0  0  0  0
 11 13  1  0  0  0  0
 11 14  1  0  0  0  0
 14 15  1  0  0  0  0
 14 16  1  0  0  0  0
 14 17  1  0  0  0  0
 17 18  2  0  0  0  0
 17 19  1  0  0  0  0
 19 20  1  0  0  0  0
 21 22  2  0  0  0  0
 21 23  1  0  0  0  0
 23 24  1  0  0  0  0
 23 25  1  0  0  0  0
 25 26  1  0  0  0  0
 25 27  1  0  0  0  0
 25 28  1  0  0  0  0
M  END
$$$$

  -OEChem-01062216073D

 28 27  0     1  0  0  0  0  0999 V2000
   -3.4033   -2.9005    1.1996 H   0  0  0  0  0  0  0  0  0  0  0  0
   -3.3094   -1.9302    0.7030 C   0  0  0  0  0  0  0  0  0  0  0  0
   -4.1110   -1.2763    1.0550 H   0  0  0  0  0  0  0  0  0  0  0  0
   -3.4114   -2.0775   -0.3747 H   0  0  0  0  0  0  0  0  0  0  0  0
   -1.9595   -1.3126    1.0175 C   0  0  0  0  0  0  0  0  0  0  0  0
   -1.2410   -1.8579    1.8313 O   0  0  0  0  0  0  0  0  0  0  0  0
   -1.6441   -0.0876    0.4556 N   0  0  0  0  0  0  0  0  0  0  0  0
   -2.3556    0.2772   -0.1690 H   0  0  0  0  0  0  0  0  0  0  0  0
   -0.3078    0.5480    0.3796 C   0  0  1  0  0  0  0  0  0  0  0  0
   -0.3688    1.3537   -0.3569 H   0  0  0  0  0  0  0  0  0  0  0  0
    0.0272    1.1839    1.7448 C   0  0  0  0  0  0  0  0  0  0  0  0
   -0.0500    0.4236    2.5311 H   0  0  0  0  0  0  0  0  0  0  0  0
    1.0652    1.5350    1.7382 H   0  0  0  0  0  0  0  0  0  0  0  0
   -0.9010    2.3746    2.0658 C   0  0  0  0  0  0  0  0  0  0  0  0
   -0.7955    3.1373    1.2899 H   0  0  0  0  0  0  0  0  0  0  0  0
   -1.9407    2.0375    2.0670 H   0  0  0  0  0  0  0  0  0  0  0  0
   -0.6299    3.0316    3.4197 C   0  0  0  0  0  0  0  0  0  0  0  0
    0.1669    2.5369    4.1984 O   0  0  0  0  0  0  0  0  0  0  0  0
   -1.3155    4.1676    3.6823 O   0  0  0  0  0  0  0  0  0  0  0  0
   -1.0352    4.4404    4.5696 H   0  0  0  0  0  0  0  0  0  0  0  0
    0.8803   -0.3534   -0.0639 C   0  0  0  0  0  0  0  0  0  0  0  0
    1.3589   -1.2329    0.6345 O   0  0  0  0  0  0  0  0  0  0  0  0
    1.5829   -0.0061   -1.2065 N   0  0  0  0  0  0  0  0  0  0  0  0
    1.2402    0.7751   -1.7553 H   0  0  0  0  0  0  0  0  0  0  0  0
    2.8101   -0.6747   -1.6267 C   0  0  0  0  0  0  0  0  0  0  0  0
    2.6349   -1.7468   -1.7655 H   0  0  0  0  0  0  0  0  0  0  0  0
    3.1643   -0.2578   -2.5742 H   0  0  0  0  0  0  0  0  0  0  0  0
    3.5953   -0.5417   -0.8750 H   0  0  0  0  0  0  0  0  0  0  0  0
  1  2  1  0  0  0  0
  2  3  1  0  0  0  0
  2  4  1  0  0  0  0
  2  5  1  0  0  0  0
  5  6  2  0  0  0  0
  5  7  1  0  0  0  0
  7  8  1  0  0  0  0
  7  9  1  0  0  0  0
  9 10  1  0  0  0  0
  9 11  1  0  0  0  0
  9 21  1  0  0  0  0
 11 12  1  0  0  0  0
 11 13  1  0  0  0  0
 11 14  1  0  0  0  0
 14 15  1  0  0  0  0
 14 16  1  0  0  0  0
 14 17  1  0  0  0  0
 17 18  2  0  0  0  0
 17 19  1  0  0  0  0
 19 20  1  0  0  0  0
 21 22  2  0  0  0  0
 21 23  1  0  0  0  0
 23 24  1  0  0  0  0
 23 25  1  0  0  0  0
 25 26  1  0  0  0  0
 25 27  1  0  0  0  0
 25 28  1  0  0  0  0
M  END
$$$$

  -OEChem-01062216073D

 28 27  0     1  0  0  0  0  0999 V2000
   -3.1697   -3.0377    1.0750 H   0  0  0  0  0  0  0  0  0  0  0  0
   -3.1111   -2.0818    0.5467 C   0  0  0  0  0  0  0  0  0  0  0  0
   -4.0509   -1.5425    0.6857 H   0  0  0  0  0  0  0  0  0  0  0  0
   -2.9623   -2.2800   -0.5174 H   0  0  0  0  0  0  0  0  0  0  0  0
   -1.9553   -1.2608    1.0864 C   0  0  0  0  0  0  0  0  0  0  0  0
   -1.3987   -1.6174    2.1099 O   0  0  0  0  0  0  0  0  0  0  0  0
   -1.6801   -0.0281    0.5190 N   0  0  0  0  0  0  0  0  0  0  0  0
   -2.2863    0.1825   -0.2666 H   0  0  0  0  0  0  0  0  0  0  0  0
   -0.3342    0.5889    0.4586 C   0  0  1  0  0  0  0  0  0  0  0  0
   -0.3883    1.3860   -0.2879 H   0  0  0  0  0  0  0  0  0  0  0  0
    0.0205    1.2393    1.8115 C   0  0  0  0  0  0  0  0  0  0  0  0
   -0.0648    0.4980    2.6139 H   0  0  0  0  0  0  0  0  0  0  0  0
    1.0633    1.5744    1.7948 H   0  0  0  0  0  0  0  0  0  0  0  0
   -0.8848    2.4518    2.1125 C   0  0  0  0  0  0  0  0  0  0  0  0
   -0.7714    3.1987    1.3224 H   0  0  0  0  0  0  0  0  0  0  0  0
   -1.9297    2.1300    2.1227 H   0  0  0  0  0  0  0  0  0  0  0  0
   -0.5970    3.1281    3.4534 C   0  0  0  0  0  0  0  0  0  0  0  0
    0.1939    2.6314    4.2375 O   0  0  0  0  0  0  0  0  0  0  0  0
   -1.2536    4.2858    3.6950 O   0  0  0  0  0  0  0  0  0  0  0  0
   -0.9682    4.5676    4.5777 H   0  0  0  0  0  0  0  0  0  0  0  0
    0.8460   -0.3244    0.0166 C   0  0  0  0  0  0  0  0  0  0  0  0
    0.9107   -1.5191    0.2621 O   0  0  0  0  0  0  0  0  0  0  0  0
    1.7534    0.1751   -0.9035 N   0  0  0  0  0  0  0  0  0  0  0  0
    1.7115    1.1663   -1.1169 H   0  0  0  0  0  0  0  0  0  0  0  0
    2.8507   -0.6136   -1.4550 C   0  0  0  0  0  0  0  0  0  0  0  0
    2.4641   -1.4859   -1.9928 H   0  0  0  0  0  0  0  0  0  0  0  0
    3.4378   -0.0106   -2.1542 H   0  0  0  0  0  0  0  0  0  0  0  0
    3.5137   -0.9596   -0.6548 H   0  0  0  0  0  0  0  0  0  0  0  0
  1  2  1  0  0  0  0
  2  3  1  0  0  0  0
  2  4  1  0  0  0  0
  2  5  1  0  0  0  0
  5  6  2  0  0  0  0
  5  7  1  0  0  0  0
  7  8  1  0  0  0  0
  7  9  1  0  0  0  0
  9 10  1  0  0  0  0
  9 11  1  0  0  0  0
  9 21  1  0  0  0  0
 11 12  1  0  0  0  0
 11 13  1  0  0  0  0
 11 14  1  0  0  0  0
 14 15  1  0  0  0  0
 14 16  1  0  0  0  0
 14 17  1  0  0  0  0
 17 18  2  0  0  0  0
 17 19  1  0  0  0  0
 19 20  1  0  0  0  0
 21 22  2  0  0  0  0
 21 23  1  0  0  0  0
 23 24  1  0  0  0  0
 23 25  1  0  0  0  0
 25 26  1  0  0  0  0
 25 27  1  0  0  0  0
 25 28  1  0  0  0  0
M  END
$$$$

  -OEChem-01062216073D

 28 27  0     1  0  0  0  0  0999 V2000
   -3.1959   -3.0147    1.1261 H   0  0  0  0  0  0  0  0  0  0  0  0
   -3.1139   -2.0785    0.5668 C   0  0  0  0  0  0  0  0  0  0  0  0
   -4.0431   -1.5157    0.6816 H   0  0  0  0  0  0  0  0  0  0  0  0
   -2.9626   -2.3149   -0.4892 H   0  0  0  0  0  0  0  0  0  0  0  0
   -1.9436   -1.2644    1.0852 C   0  0  0  0  0  0  0  0  0  0  0  0
   -1.3442   -1.6405    2.0788 O   0  0  0  0  0  0  0  0  0  0  0  0
   -1.6723   -0.0292    0.5205 N   0  0  0  0  0  0  0  0  0  0  0  0
   -2.2674    0.1778   -0.2747 H   0  0  0  0  0  0  0  0  0  0  0  0
   -0.3220    0.5784    0.4773 C   0  0  1  0  0  0  0  0  0  0  0  0
   -0.3595    1.3699   -0.2764 H   0  0  0  0  0  0  0  0  0  0  0  0
    0.0160    1.2365    1.8316 C   0  0  0  0  0  0  0  0  0  0  0  0
   -0.0893    0.5027    2.6383 H   0  0  0  0  0  0  0  0  0  0  0  0
    1.0608    1.5652    1.8315 H   0  0  0  0  0  0  0  0  0  0  0  0
   -0.8862    2.4571    2.1084 C   0  0  0  0  0  0  0  0  0  0  0  0
   -0.7539    3.1971    1.3148 H   0  0  0  0  0  0  0  0  0  0  0  0
   -1.9336    2.1436    2.1033 H   0  0  0  0  0  0  0  0  0  0  0  0
   -0.6152    3.1413    3.4486 C   0  0  0  0  0  0  0  0  0  0  0  0
    0.1600    2.6441    4.2480 O   0  0  0  0  0  0  0  0  0  0  0  0
   -1.2696    4.3035    3.6735 O   0  0  0  0  0  0  0  0  0  0  0  0
   -0.9981    4.5892    4.5593 H   0  0  0  0  0  0  0  0  0  0  0  0
    0.8557   -0.3430    0.0449 C   0  0  0  0  0  0  0  0  0  0  0  0
    0.7392   -1.5539   -0.0858 O   0  0  0  0  0  0  0  0  0  0  0  0
    1.9345    0.2419   -0.5985 N   0  0  0  0  0  0  0  0  0  0  0  0
    2.0312    1.2497   -0.5281 H   0  0  0  0  0  0  0  0  0  0  0  0
    3.0217   -0.5234   -1.2006 C   0  0  0  0  0  0  0  0  0  0  0  0
    2.6454   -1.1451   -2.0200 H   0  0  0  0  0  0  0  0  0  0  0  0
    3.7835    0.1516   -1.6023 H   0  0  0  0  0  0  0  0  0  0  0  0
    3.4931   -1.1718   -0.4543 H   0  0  0  0  0  0  0  0  0  0  0  0
  1  2  1  0  0  0  0
  2  3  1  0  0  0  0
  2  4  1  0  0  0  0
  2  5  1  0  0  0  0
  5  6  2  0  0  0  0
  5  7  1  0  0  0  0
  7  8  1  0  0  0  0
  7  9  1  0  0  0  0
  9 10  1  0  0  0  0
  9 11  1  0  0  0  0
  9 21  1  0  0  0  0
 11 12  1  0  0  0  0
 11 13  1  0  0  0  0
 11 14  1  0  0  0  0
 14 15  1  0  0  0  0
 14 16  1  0  0  0  0
 14 17  1  0  0  0  0
 17 18  2  0  0  0  0
 17 19  1  0  0  0  0
 19 20  1  0  0  0  0
 21 22  2  0  0  0  0
 21 23  1  0  0  0  0
 23 24  1  0  0  0  0
 23 25  1  0  0  0  0
 25 26  1  0  0  0  0
 25 27  1  0  0  0  0
 25 28  1  0  0  0  0
M  END
$$$$

  -OEChem-01062216073D

 28 27  0     1  0  0  0  0  0999 V2000
   -3.1638   -3.0139    1.1263 H   0  0  0  0  0  0  0  0  0  0  0  0
   -3.1085   -2.0646    0.5860 C   0  0  0  0  0  0  0  0  0  0  0  0
   -4.0339   -1.5088    0.7527 H   0  0  0  0  0  0  0  0  0  0  0  0
   -3.0013   -2.2756   -0.4808 H   0  0  0  0  0  0  0  0  0  0  0  0
   -1.9206   -1.2572    1.0735 C   0  0  0  0  0  0  0  0  0  0  0  0
   -1.2681   -1.6588    2.0235 O   0  0  0  0  0  0  0  0  0  0  0  0
   -1.6639   -0.0172    0.5122 N   0  0  0  0  0  0  0  0  0  0  0  0
   -2.2614    0.1902   -0.2812 H   0  0  0  0  0  0  0  0  0  0  0  0
   -0.3158    0.5944    0.4755 C   0  0  1  0  0  0  0  0  0  0  0  0
   -0.3416    1.3872   -0.2778 H   0  0  0  0  0  0  0  0  0  0  0  0
    0.0093    1.2484    1.8368 C   0  0  0  0  0  0  0  0  0  0  0  0
   -0.0993    0.5112    2.6399 H   0  0  0  0  0  0  0  0  0  0  0  0
    1.0513    1.5839    1.8490 H   0  0  0  0  0  0  0  0  0  0  0  0
   -0.9009    2.4636    2.1120 C   0  0  0  0  0  0  0  0  0  0  0  0
   -0.7653    3.2069    1.3223 H   0  0  0  0  0  0  0  0  0  0  0  0
   -1.9469    2.1459    2.0975 H   0  0  0  0  0  0  0  0  0  0  0  0
   -0.6435    3.1432    3.4575 C   0  0  0  0  0  0  0  0  0  0  0  0
    0.1282    2.6451    4.2599 O   0  0  0  0  0  0  0  0  0  0  0  0
   -1.3042    4.3015    3.6836 O   0  0  0  0  0  0  0  0  0  0  0  0
   -1.0394    4.5854    4.5720 H   0  0  0  0  0  0  0  0  0  0  0  0
    0.8474   -0.3429    0.0399 C   0  0  0  0  0  0  0  0  0  0  0  0
    0.6403   -1.4788   -0.3695 O   0  0  0  0  0  0  0  0  0  0  0  0
    2.0601    0.2264   -0.3126 N   0  0  0  0  0  0  0  0  0  0  0  0
    2.2335    1.1797   -0.0105 H   0  0  0  0  0  0  0  0  0  0  0  0
    3.1630   -0.5342   -0.8911 C   0  0  0  0  0  0  0  0  0  0  0  0
    2.8770   -0.9433   -1.8660 H   0  0  0  0  0  0  0  0  0  0  0  0
    4.0364    0.1103   -1.0301 H   0  0  0  0  0  0  0  0  0  0  0  0
    3.4451   -1.3616   -0.2310 H   0  0  0  0  0  0  0  0  0  0  0  0
  1  2  1  0  0  0  0
  2  3  1  0  0  0  0
  2  4  1  0  0  0  0
  2  5  1  0  0  0  0
  5  6  2  0  0  0  0
  5  7  1  0  0  0  0
  7  8  1  0  0  0  0
  7  9  1  0  0  0  0
  9 10  1  0  0  0  0
  9 11  1  0  0  0  0
  9 21  1  0  0  0  0
 11 12  1  0  0  0  0
 11 13  1  0  0  0  0
 11 14  1  0  0  0  0
 14 15  1  0  0  0  0
 14 16  1  0  0  0  0
 14 17  1  0  0  0  0
 17 18  2  0  0  0  0
 17 19  1  0  0  0  0
 19 20  1  0  0  0  0
 21 22  2  0  0  0  0
 21 23  1  0  0  0  0
 23 24  1  0  0  0  0
 23 25  1  0  0  0  0
 25 26  1  0  0  0  0
 25 27  1  0  0  0  0
 25 28  1  0  0  0  0
M  END
$$$$

  -OEChem-01062216073D

 28 27  0     1  0  0  0  0  0999 V2000
   -3.1815   -3.0173    1.0350 H   0  0  0  0  0  0  0  0  0  0  0  0
   -3.1373   -2.0273    0.5721 C   0  0  0  0  0  0  0  0  0  0  0  0
   -4.0063   -1.4483    0.8933 H   0  0  0  0  0  0  0  0  0  0  0  0
   -3.1656   -2.1470   -0.5138 H   0  0  0  0  0  0  0  0  0  0  0  0
   -1.8597   -1.3175    0.9782 C   0  0  0  0  0  0  0  0  0  0  0  0
   -1.0818   -1.8750    1.7347 O   0  0  0  0  0  0  0  0  0  0  0  0
   -1.6144   -0.0449    0.4905 N   0  0  0  0  0  0  0  0  0  0  0  0
   -2.2520    0.2406   -0.2460 H   0  0  0  0  0  0  0  0  0  0  0  0
   -0.2838    0.6020    0.4923 C   0  0  1  0  0  0  0  0  0  0  0  0
   -0.3891    1.5540   -0.0364 H   0  0  0  0  0  0  0  0  0  0  0  0
    0.2072    0.9358    1.9221 C   0  0  0  0  0  0  0  0  0  0  0  0
    0.2163    0.0386    2.5481 H   0  0  0  0  0  0  0  0  0  0  0  0
    1.2366    1.3045    1.8848 H   0  0  0  0  0  0  0  0  0  0  0  0
   -0.6705    2.0265    2.5696 C   0  0  0  0  0  0  0  0  0  0  0  0
   -0.6368    2.9331    1.9597 H   0  0  0  0  0  0  0  0  0  0  0  0
   -1.7082    1.6838    2.6032 H   0  0  0  0  0  0  0  0  0  0  0  0
   -0.2580    2.3933    3.9954 C   0  0  0  0  0  0  0  0  0  0  0  0
    0.6073    1.7526    4.5687 O   0  0  0  0  0  0  0  0  0  0  0  0
   -0.8936    3.4486    4.5537 O   0  0  0  0  0  0  0  0  0  0  0  0
   -0.5265    3.5342    5.4470 H   0  0  0  0  0  0  0  0  0  0  0  0
    0.7736   -0.1905   -0.3249 C   0  0  0  0  0  0  0  0  0  0  0  0
    0.4252   -1.0616   -1.1141 O   0  0  0  0  0  0  0  0  0  0  0  0
    2.0738    0.2760   -0.4234 N   0  0  0  0  0  0  0  0  0  0  0  0
    2.3659    0.9842    0.2424 H   0  0  0  0  0  0  0  0  0  0  0  0
    3.0915   -0.3733   -1.2425 C   0  0  0  0  0  0  0  0  0  0  0  0
    2.7981   -0.3648   -2.2976 H   0  0  0  0  0  0  0  0  0  0  0  0
    4.0467    0.1515   -1.1468 H   0  0  0  0  0  0  0  0  0  0  0  0
    3.2332   -1.4118   -0.9245 H   0  0  0  0  0  0  0  0  0  0  0  0
  1  2  1  0  0  0  0
  2  3  1  0  0  0  0
  2  4  1  0  0  0  0
  2  5  1  0  0  0  0
  5  6  2  0  0  0  0
  5  7  1  0  0  0  0
  7  8  1  0  0  0  0
  7  9  1  0  0  0  0
  9 10  1  0  0  0  0
  9 11  1  0  0  0  0
  9 21  1  0  0  0  0
 11 12  1  0  0  0  0
 11 13  1  0  0  0  0
 11 14  1  0  0  0  0
 14 15  1  0  0  0  0
 14 16  1  0  0  0  0
 14 17  1  0  0  0  0
 17 18  2  0  0  0  0
 17 19  1  0  0  0  0
 19 20  1  0  0  0  0
 21 22  2  0  0  0  0
 21 23  1  0  0  0  0
 23 24  1  0  0  0  0
 23 25  1  0  0  0  0
 25 26  1  0  0  0  0
 25 27  1  0  0  0  0
 25 28  1  0  0  0  0
M  END
$$$$

  -OEChem-01062216073D

 28 27  0     1  0  0  0  0  0999 V2000
   -3.1411   -3.0201    1.0225 H   0  0  0  0  0  0  0  0  0  0  0  0
   -3.1172   -2.0177    0.5859 C   0  0  0  0  0  0  0  0  0  0  0  0
   -3.9761   -1.4523    0.9548 H   0  0  0  0  0  0  0  0  0  0  0  0
   -3.1857   -2.1071   -0.5011 H   0  0  0  0  0  0  0  0  0  0  0  0
   -1.8287   -1.3130    0.9654 C   0  0  0  0  0  0  0  0  0  0  0  0
   -1.0246   -1.8822    1.6854 O   0  0  0  0  0  0  0  0  0  0  0  0
   -1.5940   -0.0358    0.4866 N   0  0  0  0  0  0  0  0  0  0  0  0
   -2.2356    0.2557   -0.2444 H   0  0  0  0  0  0  0  0  0  0  0  0
   -0.2704    0.6229    0.4991 C   0  0  1  0  0  0  0  0  0  0  0  0
   -0.3741    1.5752   -0.0292 H   0  0  0  0  0  0  0  0  0  0  0  0
    0.2003    0.9575    1.9361 C   0  0  0  0  0  0  0  0  0  0  0  0
    0.2110    0.0580    2.5591 H   0  0  0  0  0  0  0  0  0  0  0  0
    1.2241    1.3418    1.9132 H   0  0  0  0  0  0  0  0  0  0  0  0
   -0.6941    2.0378    2.5782 C   0  0  0  0  0  0  0  0  0  0  0  0
   -0.6601    2.9473    1.9725 H   0  0  0  0  0  0  0  0  0  0  0  0
   -1.7298    1.6878    2.5983 H   0  0  0  0  0  0  0  0  0  0  0  0
   -0.2982    2.4011    4.0101 C   0  0  0  0  0  0  0  0  0  0  0  0
    0.5674    1.7639    4.5874 O   0  0  0  0  0  0  0  0  0  0  0  0
   -0.9495    3.4459    4.5702 O   0  0  0  0  0  0  0  0  0  0  0  0
   -0.5902    3.5300    5.4668 H   0  0  0  0  0  0  0  0  0  0  0  0
    0.7817   -0.1723   -0.3226 C   0  0  0  0  0  0  0  0  0  0  0  0
    0.4152   -0.8670   -1.2644 O   0  0  0  0  0  0  0  0  0  0  0  0
    2.1369    0.0834   -0.1975 N   0  0  0  0  0  0  0  0  0  0  0  0
    2.4348    0.6035    0.6216 H   0  0  0  0  0  0  0  0  0  0  0  0
    3.1505   -0.6050   -0.9890 C   0  0  0  0  0  0  0  0  0  0  0  0
    2.9885   -0.4297   -2.0579 H   0  0  0  0  0  0  0  0  0  0  0  0
    4.1480   -0.2381   -0.7285 H   0  0  0  0  0  0  0  0  0  0  0  0
    3.1164   -1.6832   -0.7997 H   0  0  0  0  0  0  0  0  0  0  0  0
  1  2  1  0  0  0  0
  2  3  1  0  0  0  0
  2  4  1  0  0  0  0
  2  5  1  0  0  0  0
  5  6  2  0  0  0  0
  5  7  1  0  0  0  0
  7  8  1  0  0  0  0
  7  9  1  0  0  0  0
  9 10  1  0  0  0  0
  9 11  1  0  0  0  0
  9 21  1  0  0  0  0
 11 12  1  0  0  0  0
 11 13  1  0  0  0  0
 11 14  1  0  0  0  0
 14 15  1  0  0  0  0
 14 16  1  0  0  0  0
 14 17  1  0  0  0  0
 17 18  2  0  0  0  0
 17 19  1  0  0  0  0
 19 20  1  0  0  0  0
 21 22  2  0  0  0  0
 21 23  1  0  0  0  0
 23 24  1  0  0  0  0
 23 25  1  0  0  0  0
 25 26  1  0  0  0  0
 25 27  1  0  0  0  0
 25 28  1  0  0  0  0
M  END
$$$$

  -OEChem-01062216073D

 28 27  0     1  0  0  0  0  0999 V2000
   -3.1147   -3.0182    1.0290 H   0  0  0  0  0  0  0  0  0  0  0  0
   -3.0986   -2.0147    0.5945 C   0  0  0  0  0  0  0  0  0  0  0  0
   -3.9502   -1.4500    0.9811 H   0  0  0  0  0  0  0  0  0  0  0  0
   -3.1877   -2.1017   -0.4912 H   0  0  0  0  0  0  0  0  0  0  0  0
   -1.8031   -1.3109    0.9516 C   0  0  0  0  0  0  0  0  0  0  0  0
   -0.9760   -1.8875    1.6392 O   0  0  0  0  0  0  0  0  0  0  0  0
   -1.5783   -0.0299    0.4807 N   0  0  0  0  0  0  0  0  0  0  0  0
   -2.2294    0.2731   -0.2377 H   0  0  0  0  0  0  0  0  0  0  0  0
   -0.2616    0.6402    0.5048 C   0  0  1  0  0  0  0  0  0  0  0  0
   -0.3654    1.5928   -0.0231 H   0  0  0  0  0  0  0  0  0  0  0  0
    0.1979    0.9766    1.9446 C   0  0  0  0  0  0  0  0  0  0  0  0
    0.2138    0.0755    2.5654 H   0  0  0  0  0  0  0  0  0  0  0  0
    1.2170    1.3746    1.9235 H   0  0  0  0  0  0  0  0  0  0  0  0
   -0.7089    2.0476    2.5843 C   0  0  0  0  0  0  0  0  0  0  0  0
   -0.6809    2.9587    1.9808 H   0  0  0  0  0  0  0  0  0  0  0  0
   -1.7410    1.6875    2.5992 H   0  0  0  0  0  0  0  0  0  0  0  0
   -0.3230    2.4109    4.0187 C   0  0  0  0  0  0  0  0  0  0  0  0
    0.5453    1.7796    4.5984 O   0  0  0  0  0  0  0  0  0  0  0  0
   -0.9871    3.4476    4.5786 O   0  0  0  0  0  0  0  0  0  0  0  0
   -0.6320    3.5342    5.4766 H   0  0  0  0  0  0  0  0  0  0  0  0
    0.7893   -0.1539   -0.3173 C   0  0  0  0  0  0  0  0  0  0  0  0
    0.4498   -0.6635   -1.3797 O   0  0  0  0  0  0  0  0  0  0  0  0
    2.1361   -0.1381    0.0028 N   0  0  0  0  0  0  0  0  0  0  0  0
    2.3763    0.1711    0.9397 H   0  0  0  0  0  0  0  0  0  0  0  0
    3.1357   -0.8803   -0.7562 C   0  0  0  0  0  0  0  0  0  0  0  0
    3.1457   -0.5528   -1.8013 H   0  0  0  0  0  0  0  0  0  0  0  0
    4.1315   -0.7132   -0.3345 H   0  0  0  0  0  0  0  0  0  0  0  0
    2.9211   -1.9539   -0.7255 H   0  0  0  0  0  0  0  0  0  0  0  0
  1  2  1  0  0  0  0
  2  3  1  0  0  0  0
  2  4  1  0  0  0  0
  2  5  1  0  0  0  0
  5  6  2  0  0  0  0
  5  7  1  0  0  0  0
  7  8  1  0  0  0  0
  7  9  1  0  0  0  0
  9 10  1  0  0  0  0
  9 11  1  0  0  0  0
  9 21  1  0  0  0  0
 11 12  1  0  0  0  0
 11 13  1  0  0  0  0
 11 14  1  0  0  0  0
 14 15  1  0  0  0  0
 14 16  1  0  0  0  0
 14 17  1  0  0  0  0
 17 18  2  0  0  0  0
 17 19  1  0  0  0  0
 19 20  1  0  0  0  0
 21 22  2  0  0  0  0
 21 23  1  0  0  0  0
 23 24  1  0  0  0  0
 23 25  1  0  0  0  0
 25 26  1  0  0  0  0
 25 27  1  0  0  0  0
 25 28  1  0  0  0  0
M  END
$$$$

  -OEChem-01062216073D

 28 27  0     1  0  0  0  0  0999 V2000
   -3.1087   -3.0108    1.0389 H   0  0  0  0  0  0  0  0  0  0  0  0
   -3.0964   -2.0048    0.6101 C   0  0  0  0  0  0  0  0  0  0  0  0
   -3.9357   -1.4372    1.0191 H   0  0  0  0  0  0  0  0  0  0  0  0
   -3.2104   -2.0838   -0.4739 H   0  0  0  0  0  0  0  0  0  0  0  0
   -1.7887   -1.3112    0.9424 C   0  0  0  0  0  0  0  0  0  0  0  0
   -0.9469   -1.8967    1.6045 O   0  0  0  0  0  0  0  0  0  0  0  0
   -1.5635   -0.0305    0.4716 N   0  0  0  0  0  0  0  0  0  0  0  0
   -2.2272    0.2896   -0.2276 H   0  0  0  0  0  0  0  0  0  0  0  0
   -0.2515    0.6464    0.5035 C   0  0  1  0  0  0  0  0  0  0  0  0
   -0.3547    1.5979   -0.0268 H   0  0  0  0  0  0  0  0  0  0  0  0
    0.1968    0.9853    1.9452 C   0  0  0  0  0  0  0  0  0  0  0  0
    0.2113    0.0840    2.5662 H   0  0  0  0  0  0  0  0  0  0  0  0
    1.2158    1.3857    1.9260 H   0  0  0  0  0  0  0  0  0  0  0  0
   -0.7180    2.0515    2.5818 C   0  0  0  0  0  0  0  0  0  0  0  0
   -0.6887    2.9643    1.9805 H   0  0  0  0  0  0  0  0  0  0  0  0
   -1.7494    1.6892    2.5901 H   0  0  0  0  0  0  0  0  0  0  0  0
   -0.3388    2.4129    4.0185 C   0  0  0  0  0  0  0  0  0  0  0  0
    0.5297    1.7830    4.5997 O   0  0  0  0  0  0  0  0  0  0  0  0
   -1.0091    3.4450    4.5790 O   0  0  0  0  0  0  0  0  0  0  0  0
   -0.6550    3.5325    5.4772 H   0  0  0  0  0  0  0  0  0  0  0  0
    0.8035   -0.1475   -0.3098 C   0  0  0  0  0  0  0  0  0  0  0  0
    0.5344   -0.4737   -1.4602 O   0  0  0  0  0  0  0  0  0  0  0  0
    2.0800   -0.3839    0.1697 N   0  0  0  0  0  0  0  0  0  0  0  0
    2.2127   -0.2627    1.1697 H   0  0  0  0  0  0  0  0  0  0  0  0
    3.0616   -1.1734   -0.5642 C   0  0  0  0  0  0  0  0  0  0  0  0
    3.2569   -0.7280   -1.5454 H   0  0  0  0  0  0  0  0  0  0  0  0
    4.0050   -1.2126   -0.0114 H   0  0  0  0  0  0  0  0  0  0  0  0
    2.6995   -2.1969   -0.7076 H   0  0  0  0  0  0  0  0  0  0  0  0
  1  2  1  0  0  0  0
  2  3  1  0  0  0  0
  2  4  1  0  0  0  0
  2  5  1  0  0  0  0
  5  6  2  0  0  0  0
  5  7  1  0  0  0  0
  7  8  1  0  0  0  0
  7  9  1  0  0  0  0
  9 10  1  0  0  0  0
  9 11  1  0  0  0  0
  9 21  1  0  0  0  0
 11 12  1  0  0  0  0
 11 13  1  0  0  0  0
 11 14  1  0  0  0  0
 14 15  1  0  0  0  0
 14 16  1  0  0  0  0
 14 17  1  0  0  0  0
 17 18  2  0  0  0  0
 17 19  1  0  0  0  0
 19 20  1  0  0  0  0
 21 22  2  0  0  0  0
 21 23  1  0  0  0  0
 23 24  1  0  0  0  0
 23 25  1  0  0  0  0
 25 26  1  0  0  0  0
 25 27  1  0  0  0  0
 25 28  1  0  0  0  0
M  END
$$$$

  -OEChem-01062216073D

 28 27  0     1  0  0  0  0  0999 V2000
   -3.1177   -2.9963    1.0634 H   0  0  0  0  0  0  0  0  0  0  0  0
   -3.1029   -1.9915    0.6318 C   0  0  0  0  0  0  0  0  0  0  0  0
   -3.9256   -1.4129    1.0587 H   0  0  0  0  0  0  0  0  0  0  0  0
   -3.2437   -2.0717   -0.4489 H   0  0  0  0  0  0  0  0  0  0  0  0
   -1.7799   -1.3130    0.9320 C   0  0  0  0  0  0  0  0  0  0  0  0
   -0.9259   -1.9089    1.5692 O   0  0  0  0  0  0  0  0  0  0  0  0
   -1.5509   -0.0339    0.4595 N   0  0  0  0  0  0  0  0  0  0  0  0
   -2.2313    0.3104   -0.2119 H   0  0  0  0  0  0  0  0  0  0  0  0
   -0.2410    0.6451    0.4989 C   0  0  1  0  0  0  0  0  0  0  0  0
   -0.3426    1.5963   -0.0327 H   0  0  0  0  0  0  0  0  0  0  0  0
    0.1997    0.9845    1.9417 C   0  0  0  0  0  0  0  0  0  0  0  0
    0.2085    0.0838    2.5634 H   0  0  0  0  0  0  0  0  0  0  0  0
    1.2212    1.3802    1.9235 H   0  0  0  0  0  0  0  0  0  0  0  0
   -0.7188    2.0495    2.5744 C   0  0  0  0  0  0  0  0  0  0  0  0
   -0.6866    2.9623    1.9734 H   0  0  0  0  0  0  0  0  0  0  0  0
   -1.7503    1.6872    2.5778 H   0  0  0  0  0  0  0  0  0  0  0  0
   -0.3466    2.4110    4.0129 C   0  0  0  0  0  0  0  0  0  0  0  0
    0.5199    1.7821    4.5980 O   0  0  0  0  0  0  0  0  0  0  0  0
   -1.0232    3.4402    4.5715 O   0  0  0  0  0  0  0  0  0  0  0  0
   -0.6729    3.5286    5.4711 H   0  0  0  0  0  0  0  0  0  0  0  0
    0.8213   -0.1473   -0.3025 C   0  0  0  0  0  0  0  0  0  0  0  0
    0.6651   -0.2800   -1.5103 O   0  0  0  0  0  0  0  0  0  0  0  0
    1.9707   -0.6396    0.2893 N   0  0  0  0  0  0  0  0  0  0  0  0
    1.9489   -0.7062    1.3037 H   0  0  0  0  0  0  0  0  0  0  0  0
    2.9282   -1.4689   -0.4318 C   0  0  0  0  0  0  0  0  0  0  0  0
    3.3166   -0.9352   -1.3058 H   0  0  0  0  0  0  0  0  0  0  0  0
    3.7714   -1.7239    0.2172 H   0  0  0  0  0  0  0  0  0  0  0  0
    2.4542   -2.3973   -0.7674 H   0  0  0  0  0  0  0  0  0  0  0  0
  1  2  1  0  0  0  0
  2  3  1  0  0  0  0
  2  4  1  0  0  0  0
  2  5  1  0  0  0  0
  5  6  2  0  0  0  0
  5  7  1  0  0  0  0
  7  8  1  0  0  0  0
  7  9  1  0  0  0  0
  9 10  1  0  0  0  0
  9 11  1  0  0  0  0
  9 21  1  0  0  0  0
 11 12  1  0  0  0  0
 11 13  1  0  0  0  0
 11 14  1  0  0  0  0
 14 15  1  0  0  0  0
 14 16  1  0  0  0  0
 14 17  1  0  0  0  0
 17 18  2  0  0  0  0
 17 19  1  0  0  0  0
 19 20  1  0  0  0  0
 21 22  2  0  0  0  0
 21 23  1  0  0  0  0
 23 24  1  0  0  0  0
 23 25  1  0  0  0  0
 25 26  1  0  0  0  0
 25 27  1  0  0  0  0
 25 28  1  0  0  0  0
M  END
$$$$

  -OEChem-01062216073D

 28 27  0     1  0  0  0  0  0999 V2000
   -3.1439   -2.9785    1.0947 H   0  0  0  0  0  0  0  0  0  0  0  0
   -3.1240   -1.9757    0.6584 C   0  0  0  0  0  0  0  0  0  0  0  0
   -3.9274   -1.3830    1.1022 H   0  0  0  0  0  0  0  0  0  0  0  0
   -3.2916   -2.0579   -0.4182 H   0  0  0  0  0  0  0  0  0  0  0  0
   -1.7841   -1.3166    0.9256 C   0  0  0  0  0  0  0  0  0  0  0  0
   -0.9239   -1.9241    1.5445 O   0  0  0  0  0  0  0  0  0  0  0  0
   -1.5443   -0.0417    0.4465 N   0  0  0  0  0  0  0  0  0  0  0  0
   -2.2424    0.3303   -0.1914 H   0  0  0  0  0  0  0  0  0  0  0  0
   -0.2334    0.6349    0.4897 C   0  0  1  0  0  0  0  0  0  0  0  0
   -0.3312    1.5857   -0.0442 H   0  0  0  0  0  0  0  0  0  0  0  0
    0.2040    0.9739    1.9331 C   0  0  0  0  0  0  0  0  0  0  0  0
    0.2063    0.0744    2.5563 H   0  0  0  0  0  0  0  0  0  0  0  0
    1.2294    1.3604    1.9157 H   0  0  0  0  0  0  0  0  0  0  0  0
   -0.7138    2.0413    2.5632 C   0  0  0  0  0  0  0  0  0  0  0  0
   -0.6773    2.9537    1.9616 H   0  0  0  0  0  0  0  0  0  0  0  0
   -1.7462    1.6821    2.5634 H   0  0  0  0  0  0  0  0  0  0  0  0
   -0.3455    2.4033    4.0026 C   0  0  0  0  0  0  0  0  0  0  0  0
    0.5175    1.7733    4.5916 O   0  0  0  0  0  0  0  0  0  0  0  0
   -1.0226    3.4336    4.5583 O   0  0  0  0  0  0  0  0  0  0  0  0
   -0.6732    3.5235    5.4581 H   0  0  0  0  0  0  0  0  0  0  0  0
    0.8370   -0.1589   -0.2960 C   0  0  0  0  0  0  0  0  0  0  0  0
    0.8422   -0.0912   -1.5188 O   0  0  0  0  0  0  0  0  0  0  0  0
    1.8102   -0.8966    0.3519 N   0  0  0  0  0  0  0  0  0  0  0  0
    1.5886   -1.1431    1.3148 H   0  0  0  0  0  0  0  0  0  0  0  0
    2.7555   -1.7408   -0.3672 C   0  0  0  0  0  0  0  0  0  0  0  0
    3.3361   -1.1464   -1.0807 H   0  0  0  0  0  0  0  0  0  0  0  0
    3.4517   -2.2104    0.3342 H   0  0  0  0  0  0  0  0  0  0  0  0
    2.2260   -2.5286   -0.9133 H   0  0  0  0  0  0  0  0  0  0  0  0
  1  2  1  0  0  0  0
  2  3  1  0  0  0  0
  2  4  1  0  0  0  0
  2  5  1  0  0  0  0
  5  6  2  0  0  0  0
  5  7  1  0  0  0  0
  7  8  1  0  0  0  0
  7  9  1  0  0  0  0
  9 10  1  0  0  0  0
  9 11  1  0  0  0  0
  9 21  1  0  0  0  0
 11 12  1  0  0  0  0
 11 13  1  0  0  0  0
 11 14  1  0  0  0  0
 14 15  1  0  0  0  0
 14 16  1  0  0  0  0
 14 17  1  0  0  0  0
 17 18  2  0  0  0  0
 17 19  1  0  0  0  0
 19 20  1  0  0  0  0
 21 22  2  0  0  0  0
 21 23  1  0  0  0  0
 23 24  1  0  0  0  0
 23 25  1  0  0  0  0
 25 26  1  0  0  0  0
 25 27  1  0  0  0  0
 25 28  1  0  0  0  0
M  END
$$$$

  -OEChem-01062216073D

 28 27  0     1  0  0  0  0  0999 V2000
   -3.2067   -2.9518    1.1291 H   0  0  0  0  0  0  0  0  0  0  0  0
   -3.1691   -1.9521    0.6871 C   0  0  0  0  0  0  0  0  0  0  0  0
   -3.9480   -1.3362    1.1430 H   0  0  0  0  0  0  0  0  0  0  0  0
   -3.3597   -2.0349   -0.3857 H   0  0  0  0  0  0  0  0  0  0  0  0
   -1.8081   -1.3264    0.9254 C   0  0  0  0  0  0  0  0  0  0  0  0
   -0.9519   -1.9530    1.5310 O   0  0  0  0  0  0  0  0  0  0  0  0
   -1.5470   -0.0580    0.4401 N   0  0  0  0  0  0  0  0  0  0  0  0
   -2.2644    0.3499   -0.1528 H   0  0  0  0  0  0  0  0  0  0  0  0
   -0.2318    0.6119    0.4806 C   0  0  1  0  0  0  0  0  0  0  0  0
   -0.3281    1.5626   -0.0542 H   0  0  0  0  0  0  0  0  0  0  0  0
    0.2076    0.9501    1.9223 C   0  0  0  0  0  0  0  0  0  0  0  0
    0.2041    0.0510    2.5465 H   0  0  0  0  0  0  0  0  0  0  0  0
    1.2365    1.3275    1.9040 H   0  0  0  0  0  0  0  0  0  0  0  0
   -0.7052    2.0238    2.5494 C   0  0  0  0  0  0  0  0  0  0  0  0
   -0.6618    2.9344    1.9455 H   0  0  0  0  0  0  0  0  0  0  0  0
   -1.7396    1.6709    2.5487 H   0  0  0  0  0  0  0  0  0  0  0  0
   -0.3386    2.3891    3.9883 C   0  0  0  0  0  0  0  0  0  0  0  0
    0.5199    1.7578    4.5821 O   0  0  0  0  0  0  0  0  0  0  0  0
   -1.0125    3.4250    4.5380 O   0  0  0  0  0  0  0  0  0  0  0  0
   -0.6623    3.5195    5.4370 H   0  0  0  0  0  0  0  0  0  0  0  0
    0.8495   -0.1792   -0.2913 C   0  0  0  0  0  0  0  0  0  0  0  0
    1.0510    0.0831   -1.4701 O   0  0  0  0  0  0  0  0  0  0  0  0
    1.6179   -1.1385    0.3394 N   0  0  0  0  0  0  0  0  0  0  0  0
    1.2002   -1.5148    1.1921 H   0  0  0  0  0  0  0  0  0  0  0  0
    2.5691   -1.9748   -0.3808 C   0  0  0  0  0  0  0  0  0  0  0  0
    3.3152   -1.3558   -0.8903 H   0  0  0  0  0  0  0  0  0  0  0  0
    3.0912   -2.6378    0.3157 H   0  0  0  0  0  0  0  0  0  0  0  0
    2.0522   -2.5887   -1.1259 H   0  0  0  0  0  0  0  0  0  0  0  0
  1  2  1  0  0  0  0
  2  3  1  0  0  0  0
  2  4  1  0  0  0  0
  2  5  1  0  0  0  0
  5  6  2  0  0  0  0
  5  7  1  0  0  0  0
  7  8  1  0  0  0  0
  7  9  1  0  0  0  0
  9 10  1  0  0  0  0
  9 11  1  0  0  0  0
  9 21  1  0  0  0  0
 11 12  1  0  0  0  0
 11 13  1  0  0  0  0
 11 14  1  0  0  0  0
 14 15  1  0  0  0  0
 14 16  1  0  0  0  0
 14 17  1  0  0  0  0
 17 18  2  0  0  0  0
 17 19  1  0  0  0  0
 19 20  1  0  0  0  0
 21 22  2  0  0  0  0
 21 23  1  0  0  0  0
 23 24  1  0  0  0  0
 23 25  1  0  0  0  0
 25 26  1  0  0  0  0
 25 27  1  0  0  0  0
 25 28  1  0  0  0  0
M  END
$$$$

  -OEChem-01062216073D

 28 27  0     1  0  0  0  0  0999 V2000
   -3.3250   -2.8901    1.1898 H   0  0  0  0  0  0  0  0  0  0  0  0
   -3.2537   -1.8965    0.7380 C   0  0  0  0  0  0  0  0  0  0  0  0
   -3.9874   -1.2412    1.2136 H   0  0  0  0  0  0  0  0  0  0  0  0
   -3.4833   -1.9778   -0.3272 H   0  0  0  0  0  0  0  0  0  0  0  0
   -1.8573   -1.3345    0.9262 C   0  0  0  0  0  0  0  0  0  0  0  0
   -1.0177   -1.9929    1.5201 O   0  0  0  0  0  0  0  0  0  0  0  0
   -1.5587   -0.0807    0.4247 N   0  0  0  0  0  0  0  0  0  0  0  0
   -2.2926    0.3652   -0.1186 H   0  0  0  0  0  0  0  0  0  0  0  0
   -0.2375    0.5835    0.4511 C   0  0  1  0  0  0  0  0  0  0  0  0
   -0.3343    1.5331   -0.0856 H   0  0  0  0  0  0  0  0  0  0  0  0
    0.2029    0.9159    1.8926 C   0  0  0  0  0  0  0  0  0  0  0  0
    0.1976    0.0133    2.5119 H   0  0  0  0  0  0  0  0  0  0  0  0
    1.2333    1.2895    1.8745 H   0  0  0  0  0  0  0  0  0  0  0  0
   -0.7036    1.9916    2.5253 C   0  0  0  0  0  0  0  0  0  0  0  0
   -0.6573    2.9040    1.9246 H   0  0  0  0  0  0  0  0  0  0  0  0
   -1.7395    1.6428    2.5265 H   0  0  0  0  0  0  0  0  0  0  0  0
   -0.3328    2.3490    3.9651 C   0  0  0  0  0  0  0  0  0  0  0  0
    0.5234    1.7115    4.5555 O   0  0  0  0  0  0  0  0  0  0  0  0
   -1.0044    3.3832    4.5209 O   0  0  0  0  0  0  0  0  0  0  0  0
   -0.6537    3.4712    5.4205 H   0  0  0  0  0  0  0  0  0  0  0  0
    0.8672   -0.1997   -0.2975 C   0  0  0  0  0  0  0  0  0  0  0  0
    1.2613    0.2140   -1.3800 O   0  0  0  0  0  0  0  0  0  0  0  0
    1.4359   -1.3352    0.2453 N   0  0  0  0  0  0  0  0  0  0  0  0
    0.9026   -1.7592    1.0088 H   0  0  0  0  0  0  0  0  0  0  0  0
    2.4019   -2.1597   -0.4681 C   0  0  0  0  0  0  0  0  0  0  0  0
    3.2667   -1.5611   -0.7730 H   0  0  0  0  0  0  0  0  0  0  0  0
    2.7558   -2.9690    0.1778 H   0  0  0  0  0  0  0  0  0  0  0  0
    1.9451   -2.5995   -1.3608 H   0  0  0  0  0  0  0  0  0  0  0  0
  1  2  1  0  0  0  0
  2  3  1  0  0  0  0
  2  4  1  0  0  0  0
  2  5  1  0  0  0  0
  5  6  2  0  0  0  0
  5  7  1  0  0  0  0
  7  8  1  0  0  0  0
  7  9  1  0  0  0  0
  9 10  1  0  0  0  0
  9 11  1  0  0  0  0
  9 21  1  0  0  0  0
 11 12  1  0  0  0  0
 11 13  1  0  0  0  0
 11 14  1  0  0  0  0
 14 15  1  0  0  0  0
 14 16  1  0  0  0  0
 14 17  1  0  0  0  0
 17 18  2  0  0  0  0
 17 19  1  0  0  0  0
 19 20  1  0  0  0  0
 21 22  2  0  0  0  0
 21 23  1  0  0  0  0
 23 24  1  0  0  0  0
 23 25  1  0  0  0  0
 25 26  1  0  0  0  0
 25 27  1  0  0  0  0
 25 28  1  0  0  0  0
M  END
$$$$

  -OEChem-01062216073D

 28 27  0     1  0  0  0  0  0999 V2000
   -3.4097   -2.8672    1.1945 H   0  0  0  0  0  0  0  0  0  0  0  0
   -3.3169   -1.8747    0.7443 C   0  0  0  0  0  0  0  0  0  0  0  0
   -4.0439   -1.2071    1.2128 H   0  0  0  0  0  0  0  0  0  0  0  0
   -3.5375   -1.9522   -0.3231 H   0  0  0  0  0  0  0  0  0  0  0  0
   -1.9131   -1.3371    0.9467 C   0  0  0  0  0  0  0  0  0  0  0  0
   -1.0960   -2.0094    1.5551 O   0  0  0  0  0  0  0  0  0  0  0  0
   -1.5858   -0.0948    0.4341 N   0  0  0  0  0  0  0  0  0  0  0  0
   -2.3180    0.3619   -0.1025 H   0  0  0  0  0  0  0  0  0  0  0  0
   -0.2568    0.5590    0.4433 C   0  0  1  0  0  0  0  0  0  0  0  0
   -0.3554    1.5073   -0.0956 H   0  0  0  0  0  0  0  0  0  0  0  0
    0.1963    0.8918    1.8798 C   0  0  0  0  0  0  0  0  0  0  0  0
    0.1887   -0.0108    2.4996 H   0  0  0  0  0  0  0  0  0  0  0  0
    1.2294    1.2568    1.8536 H   0  0  0  0  0  0  0  0  0  0  0  0
   -0.6959    1.9771    2.5170 C   0  0  0  0  0  0  0  0  0  0  0  0
   -0.6454    2.8875    1.9135 H   0  0  0  0  0  0  0  0  0  0  0  0
   -1.7348    1.6380    2.5267 H   0  0  0  0  0  0  0  0  0  0  0  0
   -0.3117    2.3356    3.9529 C   0  0  0  0  0  0  0  0  0  0  0  0
    0.5432    1.6926    4.5388 O   0  0  0  0  0  0  0  0  0  0  0  0
   -0.9696    3.3774    4.5104 O   0  0  0  0  0  0  0  0  0  0  0  0
   -0.6098    3.4651    5.4063 H   0  0  0  0  0  0  0  0  0  0  0  0
    0.8581   -0.2197   -0.2968 C   0  0  0  0  0  0  0  0  0  0  0  0
    1.4184    0.3090   -1.2477 O   0  0  0  0  0  0  0  0  0  0  0  0
    1.2332   -1.4935    0.0801 N   0  0  0  0  0  0  0  0  0  0  0  0
    0.6534   -1.9362    0.7984 H   0  0  0  0  0  0  0  0  0  0  0  0
    2.2047   -2.3008   -0.6448 C   0  0  0  0  0  0  0  0  0  0  0  0
    3.1640   -1.7772   -0.7139 H   0  0  0  0  0  0  0  0  0  0  0  0
    2.3676   -3.2501   -0.1252 H   0  0  0  0  0  0  0  0  0  0  0  0
    1.8456   -2.5146   -1.6568 H   0  0  0  0  0  0  0  0  0  0  0  0
  1  2  1  0  0  0  0
  2  3  1  0  0  0  0
  2  4  1  0  0  0  0
  2  5  1  0  0  0  0
  5  6  2  0  0  0  0
  5  7  1  0  0  0  0
  7  8  1  0  0  0  0
  7  9  1  0  0  0  0
  9 10  1  0  0  0  0
  9 11  1  0  0  0  0
  9 21  1  0  0  0  0
 11 12  1  0  0  0  0
 11 13  1  0  0  0  0
 11 14  1  0  0  0  0
 14 15  1  0  0  0  0
 14 16  1  0  0  0  0
 14 17  1  0  0  0  0
 17 18  2  0  0  0  0
 17 19  1  0  0  0  0
 19 20  1  0  0  0  0
 21 22  2  0  0  0  0
 21 23  1  0  0  0  0
 23 24  1  0  0  0  0
 23 25  1  0  0  0  0
 25 26  1  0  0  0  0
 25 27  1  0  0  0  0
 25 28  1  0  0  0  0
M  END
$$$$

  -OEChem-01062216073D

 28 27  0     1  0  0  0  0  0999 V2000
   -3.5283   -2.7990    1.2837 H   0  0  0  0  0  0  0  0  0  0  0  0
   -3.4141   -1.8213    0.8065 C   0  0  0  0  0  0  0  0  0  0  0  0
   -4.0954   -1.1152    1.2874 H   0  0  0  0  0  0  0  0  0  0  0  0
   -3.6792   -1.9129   -0.2495 H   0  0  0  0  0  0  0  0  0  0  0  0
   -1.9832   -1.3363    0.9418 C   0  0  0  0  0  0  0  0  0  0  0  0
   -1.1645   -2.0386    1.5118 O   0  0  0  0  0  0  0  0  0  0  0  0
   -1.6373   -0.1038    0.4182 N   0  0  0  0  0  0  0  0  0  0  0  0
   -2.3831    0.3841   -0.0699 H   0  0  0  0  0  0  0  0  0  0  0  0
   -0.2994    0.5347    0.3991 C   0  0  1  0  0  0  0  0  0  0  0  0
   -0.3996    1.4846   -0.1366 H   0  0  0  0  0  0  0  0  0  0  0  0
    0.1775    0.8537    1.8308 C   0  0  0  0  0  0  0  0  0  0  0  0
    0.1717   -0.0541    2.4432 H   0  0  0  0  0  0  0  0  0  0  0  0
    1.2138    1.2091    1.7913 H   0  0  0  0  0  0  0  0  0  0  0  0
   -0.6911    1.9446    2.4903 C   0  0  0  0  0  0  0  0  0  0  0  0
   -0.6399    2.8589    1.8928 H   0  0  0  0  0  0  0  0  0  0  0  0
   -1.7338    1.6184    2.5147 H   0  0  0  0  0  0  0  0  0  0  0  0
   -0.2777    2.2856    3.9226 C   0  0  0  0  0  0  0  0  0  0  0  0
    0.5788    1.6267    4.4884 O   0  0  0  0  0  0  0  0  0  0  0  0
   -0.9128    3.3304    4.5005 O   0  0  0  0  0  0  0  0  0  0  0  0
   -0.5351    3.4066    5.3901 H   0  0  0  0  0  0  0  0  0  0  0  0
    0.8148   -0.2402   -0.3491 C   0  0  0  0  0  0  0  0  0  0  0  0
    1.5493    0.3773   -1.1086 O   0  0  0  0  0  0  0  0  0  0  0  0
    1.0100   -1.5978   -0.1940 N   0  0  0  0  0  0  0  0  0  0  0  0
    0.4159   -2.0641    0.4965 H   0  0  0  0  0  0  0  0  0  0  0  0
    2.0815   -2.3470   -0.8355 C   0  0  0  0  0  0  0  0  0  0  0  0
    3.0577   -1.9428   -0.5481 H   0  0  0  0  0  0  0  0  0  0  0  0
    2.0396   -3.3978   -0.5335 H   0  0  0  0  0  0  0  0  0  0  0  0
    1.9849   -2.2958   -1.9249 H   0  0  0  0  0  0  0  0  0  0  0  0
  1  2  1  0  0  0  0
  2  3  1  0  0  0  0
  2  4  1  0  0  0  0
  2  5  1  0  0  0  0
  5  6  2  0  0  0  0
  5  7  1  0  0  0  0
  7  8  1  0  0  0  0
  7  9  1  0  0  0  0
  9 10  1  0  0  0  0
  9 11  1  0  0  0  0
  9 21  1  0  0  0  0
 11 12  1  0  0  0  0
 11 13  1  0  0  0  0
 11 14  1  0  0  0  0
 14 15  1  0  0  0  0
 14 16  1  0  0  0  0
 14 17  1  0  0  0  0
 17 18  2  0  0  0  0
 17 19  1  0  0  0  0
 19 20  1  0  0  0  0
 21 22  2  0  0  0  0
 21 23  1  0  0  0  0
 23 24  1  0  0  0  0
 23 25  1  0  0  0  0
 25 26  1  0  0  0  0
 25 27  1  0  0  0  0
 25 28  1  0  0  0  0
M  END
$$$$

  -OEChem-01062216073D

 28 27  0     1  0  0  0  0  0999 V2000
   -3.5695   -2.7649    1.3419 H   0  0  0  0  0  0  0  0  0  0  0  0
   -3.4564   -1.7878    0.8635 C   0  0  0  0  0  0  0  0  0  0  0  0
   -4.0953   -1.0687    1.3816 H   0  0  0  0  0  0  0  0  0  0  0  0
   -3.7775   -1.8670   -0.1780 H   0  0  0  0  0  0  0  0  0  0  0  0
   -2.0092   -1.3375    0.9281 C   0  0  0  0  0  0  0  0  0  0  0  0
   -1.1740   -2.0733    1.4271 O   0  0  0  0  0  0  0  0  0  0  0  0
   -1.6607   -0.1057    0.4052 N   0  0  0  0  0  0  0  0  0  0  0  0
   -2.4227    0.4189   -0.0150 H   0  0  0  0  0  0  0  0  0  0  0  0
   -0.3183    0.5241    0.3719 C   0  0  1  0  0  0  0  0  0  0  0  0
   -0.4197    1.4761   -0.1594 H   0  0  0  0  0  0  0  0  0  0  0  0
    0.1661    0.8341    1.8039 C   0  0  0  0  0  0  0  0  0  0  0  0
    0.1547   -0.0776    2.4106 H   0  0  0  0  0  0  0  0  0  0  0  0
    1.2050    1.1823    1.7640 H   0  0  0  0  0  0  0  0  0  0  0  0
   -0.6920    1.9283    2.4735 C   0  0  0  0  0  0  0  0  0  0  0  0
   -0.6344    2.8454    1.8809 H   0  0  0  0  0  0  0  0  0  0  0  0
   -1.7374    1.6112    2.5005 H   0  0  0  0  0  0  0  0  0  0  0  0
   -0.2706    2.2602    3.9059 C   0  0  0  0  0  0  0  0  0  0  0  0
    0.5835    1.5934    4.4658 O   0  0  0  0  0  0  0  0  0  0  0  0
   -0.8978    3.3057    4.4915 O   0  0  0  0  0  0  0  0  0  0  0  0
   -0.5154    3.3760    5.3798 H   0  0  0  0  0  0  0  0  0  0  0  0
    0.7952   -0.2419   -0.3887 C   0  0  0  0  0  0  0  0  0  0  0  0
    1.6684    0.4078   -0.9488 O   0  0  0  0  0  0  0  0  0  0  0  0
    0.8244   -1.6186   -0.4919 N   0  0  0  0  0  0  0  0  0  0  0  0
    0.1961   -2.1171    0.1425 H   0  0  0  0  0  0  0  0  0  0  0  0
    1.9257   -2.3519   -1.1022 C   0  0  0  0  0  0  0  0  0  0  0  0
    2.8602   -2.1549   -0.5665 H   0  0  0  0  0  0  0  0  0  0  0  0
    1.7265   -3.4275   -1.0693 H   0  0  0  0  0  0  0  0  0  0  0  0
    2.0502   -2.0564   -2.1492 H   0  0  0  0  0  0  0  0  0  0  0  0
  1  2  1  0  0  0  0
  2  3  1  0  0  0  0
  2  4  1  0  0  0  0
  2  5  1  0  0  0  0
  5  6  2  0  0  0  0
  5  7  1  0  0  0  0
  7  8  1  0  0  0  0
  7  9  1  0  0  0  0
  9 10  1  0  0  0  0
  9 11  1  0  0  0  0
  9 21  1  0  0  0  0
 11 12  1  0  0  0  0
 11 13  1  0  0  0  0
 11 14  1  0  0  0  0
 14 15  1  0  0  0  0
 14 16  1  0  0  0  0
 14 17  1  0  0  0  0
 17 18  2  0  0  0  0
 17 19  1  0  0  0  0
 19 20  1  0  0  0  0
 21 22  2  0  0  0  0
 21 23  1  0  0  0  0
 23 24  1  0  0  0  0
 23 25  1  0  0  0  0
 25 26  1  0  0  0  0
 25 27  1  0  0  0  0
 25 28  1  0  0  0  0
M  END
$$$$

  -OEChem-01062216073D

 28 27  0     1  0  0  0  0  0999 V2000
   -3.5565   -2.7376    1.3957 H   0  0  0  0  0  0  0  0  0  0  0  0
   -3.4547   -1.7552    0.9255 C   0  0  0  0  0  0  0  0  0  0  0  0
   -4.0428   -1.0317    1.4953 H   0  0  0  0  0  0  0  0  0  0  0  0
   -3.8447   -1.8112   -0.0938 H   0  0  0  0  0  0  0  0  0  0  0  0
   -1.9976   -1.3352    0.9015 C   0  0  0  0  0  0  0  0  0  0  0  0
   -1.1427   -2.1038    1.3076 O   0  0  0  0  0  0  0  0  0  0  0  0
   -1.6565   -0.1010    0.3809 N   0  0  0  0  0  0  0  0  0  0  0  0
   -2.4342    0.4601    0.0456 H   0  0  0  0  0  0  0  0  0  0  0  0
   -0.3133    0.5278    0.3503 C   0  0  1  0  0  0  0  0  0  0  0  0
   -0.4110    1.4814   -0.1784 H   0  0  0  0  0  0  0  0  0  0  0  0
    0.1600    0.8270    1.7892 C   0  0  0  0  0  0  0  0  0  0  0  0
    0.1418   -0.0903    2.3878 H   0  0  0  0  0  0  0  0  0  0  0  0
    1.2000    1.1733    1.7634 H   0  0  0  0  0  0  0  0  0  0  0  0
   -0.7032    1.9167    2.4592 C   0  0  0  0  0  0  0  0  0  0  0  0
   -0.6389    2.8377    1.8733 H   0  0  0  0  0  0  0  0  0  0  0  0
   -1.7490    1.6011    2.4757 H   0  0  0  0  0  0  0  0  0  0  0  0
   -0.2941    2.2382    3.8972 C   0  0  0  0  0  0  0  0  0  0  0  0
    0.5548    1.5675    4.4601 O   0  0  0  0  0  0  0  0  0  0  0  0
   -0.9286    3.2781    4.4848 O   0  0  0  0  0  0  0  0  0  0  0  0
   -0.5544    3.3422    5.3769 H   0  0  0  0  0  0  0  0  0  0  0  0
    0.8040   -0.2331   -0.4110 C   0  0  0  0  0  0  0  0  0  0  0  0
    1.7879    0.3952   -0.7802 O   0  0  0  0  0  0  0  0  0  0  0  0
    0.6876   -1.5597   -0.7774 N   0  0  0  0  0  0  0  0  0  0  0  0
   -0.0001   -2.0864   -0.2356 H   0  0  0  0  0  0  0  0  0  0  0  0
    1.7699   -2.2994   -1.4136 C   0  0  0  0  0  0  0  0  0  0  0  0
    2.6476   -2.3329   -0.7595 H   0  0  0  0  0  0  0  0  0  0  0  0
    1.4527   -3.3254   -1.6232 H   0  0  0  0  0  0  0  0  0  0  0  0
    2.0533   -1.8267   -2.3598 H   0  0  0  0  0  0  0  0  0  0  0  0
  1  2  1  0  0  0  0
  2  3  1  0  0  0  0
  2  4  1  0  0  0  0
  2  5  1  0  0  0  0
  5  6  2  0  0  0  0
  5  7  1  0  0  0  0
  7  8  1  0  0  0  0
  7  9  1  0  0  0  0
  9 10  1  0  0  0  0
  9 11  1  0  0  0  0
  9 21  1  0  0  0  0
 11 12  1  0  0  0  0
 11 13  1  0  0  0  0
 11 14  1  0  0  0  0
 14 15  1  0  0  0  0
 14 16  1  0  0  0  0
 14 17  1  0  0  0  0
 17 18  2  0  0  0  0
 17 19  1  0  0  0  0
 19 20  1  0  0  0  0
 21 22  2  0  0  0  0
 21 23  1  0  0  0  0
 23 24  1  0  0  0  0
 23 25  1  0  0  0  0
 25 26  1  0  0  0  0
 25 27  1  0  0  0  0
 25 28  1  0  0  0  0
M  END
$$$$

  -OEChem-01062216073D

 28 27  0     1  0  0  0  0  0999 V2000
   -3.5097   -2.7222    1.4364 H   0  0  0  0  0  0  0  0  0  0  0  0
   -3.4252   -1.7307    0.9823 C   0  0  0  0  0  0  0  0  0  0  0  0
   -3.9598   -1.0126    1.6086 H   0  0  0  0  0  0  0  0  0  0  0  0
   -3.8875   -1.7566   -0.0076 H   0  0  0  0  0  0  0  0  0  0  0  0
   -1.9661   -1.3323    0.8656 C   0  0  0  0  0  0  0  0  0  0  0  0
   -1.0954   -2.1286    1.1705 O   0  0  0  0  0  0  0  0  0  0  0  0
   -1.6372   -0.0931    0.3504 N   0  0  0  0  0  0  0  0  0  0  0  0
   -2.4257    0.4997    0.1073 H   0  0  0  0  0  0  0  0  0  0  0  0
   -0.2951    0.5385    0.3327 C   0  0  1  0  0  0  0  0  0  0  0  0
   -0.3851    1.4943   -0.1929 H   0  0  0  0  0  0  0  0  0  0  0  0
    0.1569    0.8273    1.7818 C   0  0  0  0  0  0  0  0  0  0  0  0
    0.1337   -0.0959    2.3711 H   0  0  0  0  0  0  0  0  0  0  0  0
    1.1956    1.1783    1.7760 H   0  0  0  0  0  0  0  0  0  0  0  0
   -0.7181    1.9094    2.4490 C   0  0  0  0  0  0  0  0  0  0  0  0
   -0.6473    2.8355    1.8720 H   0  0  0  0  0  0  0  0  0  0  0  0
   -1.7636    1.5922    2.4487 H   0  0  0  0  0  0  0  0  0  0  0  0
   -0.3302    2.2197    3.8954 C   0  0  0  0  0  0  0  0  0  0  0  0
    0.5120    1.5466    4.4652 O   0  0  0  0  0  0  0  0  0  0  0  0
   -0.9772    3.2520    4.4828 O   0  0  0  0  0  0  0  0  0  0  0  0
   -0.6151    3.3099    5.3804 H   0  0  0  0  0  0  0  0  0  0  0  0
    0.8228   -0.2252   -0.4264 C   0  0  0  0  0  0  0  0  0  0  0  0
    1.8956    0.3351   -0.6133 O   0  0  0  0  0  0  0  0  0  0  0  0
    0.5879   -1.4340   -1.0533 N   0  0  0  0  0  0  0  0  0  0  0  0
   -0.1721   -1.9692   -0.6331 H   0  0  0  0  0  0  0  0  0  0  0  0
    1.6420   -2.1775   -1.7324 C   0  0  0  0  0  0  0  0  0  0  0  0
    2.4366   -2.4457   -1.0282 H   0  0  0  0  0  0  0  0  0  0  0  0
    1.2360   -3.0967   -2.1654 H   0  0  0  0  0  0  0  0  0  0  0  0
    2.0751   -1.5789   -2.5406 H   0  0  0  0  0  0  0  0  0  0  0  0
  1  2  1  0  0  0  0
  2  3  1  0  0  0  0
  2  4  1  0  0  0  0
  2  5  1  0  0  0  0
  5  6  2  0  0  0  0
  5  7  1  0  0  0  0
  7  8  1  0  0  0  0
  7  9  1  0  0  0  0
  9 10  1  0  0  0  0
  9 11  1  0  0  0  0
  9 21  1  0  0  0  0
 11 12  1  0  0  0  0
 11 13  1  0  0  0  0
 11 14  1  0  0  0  0
 14 15  1  0  0  0  0
 14 16  1  0  0  0  0
 14 17  1  0  0  0  0
 17 18  2  0  0  0  0
 17 19  1  0  0  0  0
 19 20  1  0  0  0  0
 21 22  2  0  0  0  0
 21 23  1  0  0  0  0
 23 24  1  0  0  0  0
 23 25  1  0  0  0  0
 25 26  1  0  0  0  0
 25 27  1  0  0  0  0
 25 28  1  0  0  0  0
M  END
$$$$

  -OEChem-01062216073D

 28 27  0     1  0  0  0  0  0999 V2000
   -3.4309   -2.7275    1.4664 H   0  0  0  0  0  0  0  0  0  0  0  0
   -3.3688   -1.7380    1.0042 C   0  0  0  0  0  0  0  0  0  0  0  0
   -3.8860   -1.0199    1.6450 H   0  0  0  0  0  0  0  0  0  0  0  0
   -3.8642   -1.7724    0.0309 H   0  0  0  0  0  0  0  0  0  0  0  0
   -1.9172   -1.3322    0.8345 C   0  0  0  0  0  0  0  0  0  0  0  0
   -1.0327   -2.1329    1.0778 O   0  0  0  0  0  0  0  0  0  0  0  0
   -1.6098   -0.0822    0.3323 N   0  0  0  0  0  0  0  0  0  0  0  0
   -2.4057    0.5253    0.1603 H   0  0  0  0  0  0  0  0  0  0  0  0
   -0.2693    0.5518    0.3322 C   0  0  1  0  0  0  0  0  0  0  0  0
   -0.3521    1.5106   -0.1882 H   0  0  0  0  0  0  0  0  0  0  0  0
    0.1627    0.8327    1.7907 C   0  0  0  0  0  0  0  0  0  0  0  0
    0.1333   -0.0946    2.3734 H   0  0  0  0  0  0  0  0  0  0  0  0
    1.1997    1.1872    1.8052 H   0  0  0  0  0  0  0  0  0  0  0  0
   -0.7257    1.9094    2.4501 C   0  0  0  0  0  0  0  0  0  0  0  0
   -0.6477    2.8383    1.8786 H   0  0  0  0  0  0  0  0  0  0  0  0
   -1.7701    1.5897    2.4317 H   0  0  0  0  0  0  0  0  0  0  0  0
   -0.3629    2.2153    3.9039 C   0  0  0  0  0  0  0  0  0  0  0  0
    0.4716    1.5434    4.4859 O   0  0  0  0  0  0  0  0  0  0  0  0
   -1.0208    3.2458    4.4822 O   0  0  0  0  0  0  0  0  0  0  0  0
   -0.6715    3.3051    5.3848 H   0  0  0  0  0  0  0  0  0  0  0  0
    0.8393   -0.2177   -0.4355 C   0  0  0  0  0  0  0  0  0  0  0  0
    1.9866    0.2107   -0.4283 O   0  0  0  0  0  0  0  0  0  0  0  0
    0.5206   -1.2367   -1.3138 N   0  0  0  0  0  0  0  0  0  0  0  0
   -0.3498   -1.7134   -1.0902 H   0  0  0  0  0  0  0  0  0  0  0  0
    1.5411   -1.9924   -2.0304 C   0  0  0  0  0  0  0  0  0  0  0  0
    2.2101   -2.4963   -1.3249 H   0  0  0  0  0  0  0  0  0  0  0  0
    1.0730   -2.7494   -2.6670 H   0  0  0  0  0  0  0  0  0  0  0  0
    2.1359   -1.3284   -2.6666 H   0  0  0  0  0  0  0  0  0  0  0  0
  1  2  1  0  0  0  0
  2  3  1  0  0  0  0
  2  4  1  0  0  0  0
  2  5  1  0  0  0  0
  5  6  2  0  0  0  0
  5  7  1  0  0  0  0
  7  8  1  0  0  0  0
  7  9  1  0  0  0  0
  9 10  1  0  0  0  0
  9 11  1  0  0  0  0
  9 21  1  0  0  0  0
 11 12  1  0  0  0  0
 11 13  1  0  0  0  0
 11 14  1  0  0  0  0
 14 15  1  0  0  0  0
 14 16  1  0  0  0  0
 14 17  1  0  0  0  0
 17 18  2  0  0  0  0
 17 19  1  0  0  0  0
 19 20  1  0  0  0  0
 21 22  2  0  0  0  0
 21 23  1  0  0  0  0
 23 24  1  0  0  0  0
 23 25  1  0  0  0  0
 25 26  1  0  0  0  0
 25 27  1  0  0  0  0
 25 28  1  0  0  0  0
M  END
$$$$

  -OEChem-01062216073D

 28 27  0     1  0  0  0  0  0999 V2000
   -3.3537   -2.7693    1.4237 H   0  0  0  0  0  0  0  0  0  0  0  0
   -3.3076   -1.7705    0.9800 C   0  0  0  0  0  0  0  0  0  0  0  0
   -3.8356   -1.0723    1.6343 H   0  0  0  0  0  0  0  0  0  0  0  0
   -3.8032   -1.7947    0.0063 H   0  0  0  0  0  0  0  0  0  0  0  0
   -1.8625   -1.3389    0.8179 C   0  0  0  0  0  0  0  0  0  0  0  0
   -0.9658   -2.1206    1.0756 O   0  0  0  0  0  0  0  0  0  0  0  0
   -1.5778   -0.0782    0.3266 N   0  0  0  0  0  0  0  0  0  0  0  0
   -2.3822    0.5246    0.1798 H   0  0  0  0  0  0  0  0  0  0  0  0
   -0.2440    0.5680    0.3410 C   0  0  1  0  0  0  0  0  0  0  0  0
   -0.3263    1.5276   -0.1780 H   0  0  0  0  0  0  0  0  0  0  0  0
    0.1760    0.8510    1.8039 C   0  0  0  0  0  0  0  0  0  0  0  0
    0.1538   -0.0774    2.3852 H   0  0  0  0  0  0  0  0  0  0  0  0
    1.2084    1.2180    1.8265 H   0  0  0  0  0  0  0  0  0  0  0  0
   -0.7275    1.9183    2.4585 C   0  0  0  0  0  0  0  0  0  0  0  0
   -0.6564    2.8489    1.8886 H   0  0  0  0  0  0  0  0  0  0  0  0
   -1.7682    1.5871    2.4335 H   0  0  0  0  0  0  0  0  0  0  0  0
   -0.3784    2.2266    3.9153 C   0  0  0  0  0  0  0  0  0  0  0  0
    0.4582    1.5629    4.5032 O   0  0  0  0  0  0  0  0  0  0  0  0
   -1.0526    3.2485    4.4902 O   0  0  0  0  0  0  0  0  0  0  0  0
   -0.7117    3.3075    5.3961 H   0  0  0  0  0  0  0  0  0  0  0  0
    0.8524   -0.2088   -0.4373 C   0  0  0  0  0  0  0  0  0  0  0  0
    2.0390    0.0234   -0.2432 O   0  0  0  0  0  0  0  0  0  0  0  0
    0.5042   -0.9867   -1.5265 N   0  0  0  0  0  0  0  0  0  0  0  0
   -0.4631   -1.2937   -1.5394 H   0  0  0  0  0  0  0  0  0  0  0  0
    1.4832   -1.7672   -2.2734 C   0  0  0  0  0  0  0  0  0  0  0  0
    1.9707   -2.4963   -1.6175 H   0  0  0  0  0  0  0  0  0  0  0  0
    0.9941   -2.3065   -3.0900 H   0  0  0  0  0  0  0  0  0  0  0  0
    2.2492   -1.1133   -2.7038 H   0  0  0  0  0  0  0  0  0  0  0  0
  1  2  1  0  0  0  0
  2  3  1  0  0  0  0
  2  4  1  0  0  0  0
  2  5  1  0  0  0  0
  5  6  2  0  0  0  0
  5  7  1  0  0  0  0
  7  8  1  0  0  0  0
  7  9  1  0  0  0  0
  9 10  1  0  0  0  0
  9 11  1  0  0  0  0
  9 21  1  0  0  0  0
 11 12  1  0  0  0  0
 11 13  1  0  0  0  0
 11 14  1  0  0  0  0
 14 15  1  0  0  0  0
 14 16  1  0  0  0  0
 14 17  1  0  0  0  0
 17 18  2  0  0  0  0
 17 19  1  0  0  0  0
 19 20  1  0  0  0  0
 21 22  2  0  0  0  0
 21 23  1  0  0  0  0
 23 24  1  0  0  0  0
 23 25  1  0  0  0  0
 25 26  1  0  0  0  0
 25 27  1  0  0  0  0
 25 28  1  0  0  0  0
M  END
$$$$

  -OEChem-01062216073D

 28 27  0     1  0  0  0  0  0999 V2000
   -3.3124   -2.7917    1.3913 H   0  0  0  0  0  0  0  0  0  0  0  0
   -3.2710   -1.7874    0.9600 C   0  0  0  0  0  0  0  0  0  0  0  0
   -3.8059   -1.1008    1.6204 H   0  0  0  0  0  0  0  0  0  0  0  0
   -3.7621   -1.8032   -0.0158 H   0  0  0  0  0  0  0  0  0  0  0  0
   -1.8282   -1.3444    0.8087 C   0  0  0  0  0  0  0  0  0  0  0  0
   -0.9290   -2.1159    1.0865 O   0  0  0  0  0  0  0  0  0  0  0  0
   -1.5526   -0.0793    0.3224 N   0  0  0  0  0  0  0  0  0  0  0  0
   -2.3615    0.5182    0.1804 H   0  0  0  0  0  0  0  0  0  0  0  0
   -0.2237    0.5736    0.3490 C   0  0  1  0  0  0  0  0  0  0  0  0
   -0.3032    1.5336   -0.1692 H   0  0  0  0  0  0  0  0  0  0  0  0
    0.1862    0.8588    1.8142 C   0  0  0  0  0  0  0  0  0  0  0  0
    0.1662   -0.0696    2.3955 H   0  0  0  0  0  0  0  0  0  0  0  0
    1.2164    1.2318    1.8417 H   0  0  0  0  0  0  0  0  0  0  0  0
   -0.7278    1.9212    2.4614 C   0  0  0  0  0  0  0  0  0  0  0  0
   -0.6584    2.8514    1.8911 H   0  0  0  0  0  0  0  0  0  0  0  0
   -1.7662    1.5836    2.4291 H   0  0  0  0  0  0  0  0  0  0  0  0
   -0.3913    2.2334    3.9202 C   0  0  0  0  0  0  0  0  0  0  0  0
    0.4449    1.5761    4.5157 O   0  0  0  0  0  0  0  0  0  0  0  0
   -1.0770    3.2517    4.4882 O   0  0  0  0  0  0  0  0  0  0  0  0
   -0.7461    3.3131    5.3977 H   0  0  0  0  0  0  0  0  0  0  0  0
    0.8648   -0.2126   -0.4301 C   0  0  0  0  0  0  0  0  0  0  0  0
    2.0381   -0.2001   -0.0800 O   0  0  0  0  0  0  0  0  0  0  0  0
    0.5589   -0.7220   -1.6792 N   0  0  0  0  0  0  0  0  0  0  0  0
   -0.4302   -0.8337   -1.8753 H   0  0  0  0  0  0  0  0  0  0  0  0
    1.5137   -1.4938   -2.4660 C   0  0  0  0  0  0  0  0  0  0  0  0
    1.8254   -2.3891   -1.9174 H   0  0  0  0  0  0  0  0  0  0  0  0
    1.0609   -1.8052   -3.4120 H   0  0  0  0  0  0  0  0  0  0  0  0
    2.4008   -0.8925   -2.6912 H   0  0  0  0  0  0  0  0  0  0  0  0
  1  2  1  0  0  0  0
  2  3  1  0  0  0  0
  2  4  1  0  0  0  0
  2  5  1  0  0  0  0
  5  6  2  0  0  0  0
  5  7  1  0  0  0  0
  7  8  1  0  0  0  0
  7  9  1  0  0  0  0
  9 10  1  0  0  0  0
  9 11  1  0  0  0  0
  9 21  1  0  0  0  0
 11 12  1  0  0  0  0
 11 13  1  0  0  0  0
 11 14  1  0  0  0  0
 14 15  1  0  0  0  0
 14 16  1  0  0  0  0
 14 17  1  0  0  0  0
 17 18  2  0  0  0  0
 17 19  1  0  0  0  0
 19 20  1  0  0  0  0
 21 22  2  0  0  0  0
 21 23  1  0  0  0  0
 23 24  1  0  0  0  0
 23 25  1  0  0  0  0
 25 26  1  0  0  0  0
 25 27  1  0  0  0  0
 25 28  1  0  0  0  0
M  END
$$$$

  -OEChem-01062216073D

 28 27  0     1  0  0  0  0  0999 V2000
   -3.3175   -2.8031    1.3797 H   0  0  0  0  0  0  0  0  0  0  0  0
   -3.2716   -1.8039    0.9368 C   0  0  0  0  0  0  0  0  0  0  0  0
   -3.8273   -1.1125    1.5748 H   0  0  0  0  0  0  0  0  0  0  0  0
   -3.7378   -1.8360   -0.0508 H   0  0  0  0  0  0  0  0  0  0  0  0
   -1.8279   -1.3537    0.8160 C   0  0  0  0  0  0  0  0  0  0  0  0
   -0.9337   -2.1190    1.1237 O   0  0  0  0  0  0  0  0  0  0  0  0
   -1.5496   -0.0896    0.3284 N   0  0  0  0  0  0  0  0  0  0  0  0
   -2.3591    0.5009    0.1647 H   0  0  0  0  0  0  0  0  0  0  0  0
   -0.2226    0.5657    0.3559 C   0  0  1  0  0  0  0  0  0  0  0  0
   -0.3019    1.5251   -0.1637 H   0  0  0  0  0  0  0  0  0  0  0  0
    0.1889    0.8592    1.8187 C   0  0  0  0  0  0  0  0  0  0  0  0
    0.1718   -0.0667    2.4045 H   0  0  0  0  0  0  0  0  0  0  0  0
    1.2195    1.2320    1.8400 H   0  0  0  0  0  0  0  0  0  0  0  0
   -0.7243    1.9232    2.4646 C   0  0  0  0  0  0  0  0  0  0  0  0
   -0.6593    2.8514    1.8908 H   0  0  0  0  0  0  0  0  0  0  0  0
   -1.7621    1.5828    2.4380 H   0  0  0  0  0  0  0  0  0  0  0  0
   -0.3828    2.2410    3.9211 C   0  0  0  0  0  0  0  0  0  0  0  0
    0.4559    1.5870    4.5166 O   0  0  0  0  0  0  0  0  0  0  0  0
   -1.0631    3.2649    4.4852 O   0  0  0  0  0  0  0  0  0  0  0  0
   -0.7275    3.3309    5.3926 H   0  0  0  0  0  0  0  0  0  0  0  0
    0.8631   -0.2267   -0.4211 C   0  0  0  0  0  0  0  0  0  0  0  0
    1.9768   -0.4290    0.0461 O   0  0  0  0  0  0  0  0  0  0  0  0
    0.6713   -0.4648   -1.7705 N   0  0  0  0  0  0  0  0  0  0  0  0
   -0.2813   -0.3817   -2.1089 H   0  0  0  0  0  0  0  0  0  0  0  0
    1.6425   -1.1827   -2.5882 C   0  0  0  0  0  0  0  0  0  0  0  0
    1.8036   -2.1914   -2.1929 H   0  0  0  0  0  0  0  0  0  0  0  0
    1.2833   -1.2660   -3.6183 H   0  0  0  0  0  0  0  0  0  0  0  0
    2.6008   -0.6525   -2.6001 H   0  0  0  0  0  0  0  0  0  0  0  0
  1  2  1  0  0  0  0
  2  3  1  0  0  0  0
  2  4  1  0  0  0  0
  2  5  1  0  0  0  0
  5  6  2  0  0  0  0
  5  7  1  0  0  0  0
  7  8  1  0  0  0  0
  7  9  1  0  0  0  0
  9 10  1  0  0  0  0
  9 11  1  0  0  0  0
  9 21  1  0  0  0  0
 11 12  1  0  0  0  0
 11 13  1  0  0  0  0
 11 14  1  0  0  0  0
 14 15  1  0  0  0  0
 14 16  1  0  0  0  0
 14 17  1  0  0  0  0
 17 18  2  0  0  0  0
 17 19  1  0  0  0  0
 19 20  1  0  0  0  0
 21 22  2  0  0  0  0
 21 23  1  0  0  0  0
 23 24  1  0  0  0  0
 23 25  1  0  0  0  0
 25 26  1  0  0  0  0
 25 27  1  0  0  0  0
 25 28  1  0  0  0  0
M  END
$$$$

  -OEChem-01062216073D

 28 27  0     1  0  0  0  0  0999 V2000
   -3.3425   -2.8154    1.3620 H   0  0  0  0  0  0  0  0  0  0  0  0
   -3.2870   -1.8189    0.9143 C   0  0  0  0  0  0  0  0  0  0  0  0
   -3.8645   -1.1256    1.5305 H   0  0  0  0  0  0  0  0  0  0  0  0
   -3.7227   -1.8592   -0.0869 H   0  0  0  0  0  0  0  0  0  0  0  0
   -1.8420   -1.3635    0.8343 C   0  0  0  0  0  0  0  0  0  0  0  0
   -0.9573   -2.1192    1.1877 O   0  0  0  0  0  0  0  0  0  0  0  0
   -1.5578   -0.1027    0.3415 N   0  0  0  0  0  0  0  0  0  0  0  0
   -2.3658    0.4750    0.1327 H   0  0  0  0  0  0  0  0  0  0  0  0
   -0.2325    0.5546    0.3586 C   0  0  1  0  0  0  0  0  0  0  0  0
   -0.3193    1.5133   -0.1607 H   0  0  0  0  0  0  0  0  0  0  0  0
    0.1920    0.8560    1.8156 C   0  0  0  0  0  0  0  0  0  0  0  0
    0.1793   -0.0668    2.4066 H   0  0  0  0  0  0  0  0  0  0  0  0
    1.2235    1.2265    1.8233 H   0  0  0  0  0  0  0  0  0  0  0  0
   -0.7159    1.9218    2.4653 C   0  0  0  0  0  0  0  0  0  0  0  0
   -0.6573    2.8471    1.8862 H   0  0  0  0  0  0  0  0  0  0  0  0
   -1.7535    1.5797    2.4492 H   0  0  0  0  0  0  0  0  0  0  0  0
   -0.3613    2.2474    3.9171 C   0  0  0  0  0  0  0  0  0  0  0  0
    0.4839    1.5978    4.5081 O   0  0  0  0  0  0  0  0  0  0  0  0
   -1.0376    3.2734    4.4827 O   0  0  0  0  0  0  0  0  0  0  0  0
   -0.6953    3.3422    5.3875 H   0  0  0  0  0  0  0  0  0  0  0  0
    0.8541   -0.2364   -0.4191 C   0  0  0  0  0  0  0  0  0  0  0  0
    1.8704   -0.6516    0.1226 O   0  0  0  0  0  0  0  0  0  0  0  0
    0.8260   -0.2148   -1.8029 N   0  0  0  0  0  0  0  0  0  0  0  0
   -0.0419    0.0776   -2.2389 H   0  0  0  0  0  0  0  0  0  0  0  0
    1.8369   -0.8709   -2.6250 C   0  0  0  0  0  0  0  0  0  0  0  0
    1.8685   -1.9441   -2.4085 H   0  0  0  0  0  0  0  0  0  0  0  0
    1.6079   -0.7371   -3.6866 H   0  0  0  0  0  0  0  0  0  0  0  0
    2.8264   -0.4438   -2.4298 H   0  0  0  0  0  0  0  0  0  0  0  0
  1  2  1  0  0  0  0
  2  3  1  0  0  0  0
  2  4  1  0  0  0  0
  2  5  1  0  0  0  0
  5  6  2  0  0  0  0
  5  7  1  0  0  0  0
  7  8  1  0  0  0  0
  7  9  1  0  0  0  0
  9 10  1  0  0  0  0
  9 11  1  0  0  0  0
  9 21  1  0  0  0  0
 11 12  1  0  0  0  0
 11 13  1  0  0  0  0
 11 14  1  0  0  0  0
 14 15  1  0  0  0  0
 14 16  1  0  0  0  0
 14 17  1  0  0  0  0
 17 18  2  0  0  0  0
 17 19  1  0  0  0  0
 19 20  1  0  0  0  0
 21 22  2  0  0  0  0
 21 23  1  0  0  0  0
 23 24  1  0  0  0  0
 23 25  1  0  0  0  0
 25 26  1  0  0  0  0
 25 27  1  0  0  0  0
 25 28  1  0  0  0  0
M  END
$$$$

  -OEChem-01062216073D

 28 27  0     1  0  0  0  0  0999 V2000
   -3.3751   -2.8390    1.3230 H   0  0  0  0  0  0  0  0  0  0  0  0
   -3.3084   -1.8455    0.8700 C   0  0  0  0  0  0  0  0  0  0  0  0
   -3.9292   -1.1556    1.4466 H   0  0  0  0  0  0  0  0  0  0  0  0
   -3.6867   -1.9004   -0.1534 H   0  0  0  0  0  0  0  0  0  0  0  0
   -1.8673   -1.3703    0.8667 C   0  0  0  0  0  0  0  0  0  0  0  0
   -1.0007   -2.1032    1.3015 O   0  0  0  0  0  0  0  0  0  0  0  0
   -1.5752   -0.1144    0.3651 N   0  0  0  0  0  0  0  0  0  0  0  0
   -2.3763    0.4337    0.0686 H   0  0  0  0  0  0  0  0  0  0  0  0
   -0.2513    0.5466    0.3624 C   0  0  1  0  0  0  0  0  0  0  0  0
   -0.3523    1.5048   -0.1548 H   0  0  0  0  0  0  0  0  0  0  0  0
    0.1978    0.8561    1.8093 C   0  0  0  0  0  0  0  0  0  0  0  0
    0.1954   -0.0630    2.4060 H   0  0  0  0  0  0  0  0  0  0  0  0
    1.2299    1.2247    1.7962 H   0  0  0  0  0  0  0  0  0  0  0  0
   -0.7016    1.9230    2.4689 C   0  0  0  0  0  0  0  0  0  0  0  0
   -0.6581    2.8455    1.8842 H   0  0  0  0  0  0  0  0  0  0  0  0
   -1.7377    1.5757    2.4736 H   0  0  0  0  0  0  0  0  0  0  0  0
   -0.3217    2.2567    3.9122 C   0  0  0  0  0  0  0  0  0  0  0  0
    0.5358    1.6126    4.4914 O   0  0  0  0  0  0  0  0  0  0  0  0
   -0.9894    3.2845    4.4842 O   0  0  0  0  0  0  0  0  0  0  0  0
   -0.6338    3.3552    5.3836 H   0  0  0  0  0  0  0  0  0  0  0  0
    0.8389   -0.2372   -0.4185 C   0  0  0  0  0  0  0  0  0  0  0  0
    1.7232   -0.8661    0.1466 O   0  0  0  0  0  0  0  0  0  0  0  0
    1.0041    0.0193   -1.7694 N   0  0  0  0  0  0  0  0  0  0  0  0
    0.2634    0.5260   -2.2419 H   0  0  0  0  0  0  0  0  0  0  0  0
    2.0647   -0.5836   -2.5698 C   0  0  0  0  0  0  0  0  0  0  0  0
    1.9889   -1.6759   -2.5449 H   0  0  0  0  0  0  0  0  0  0  0  0
    1.9890   -0.2545   -3.6105 H   0  0  0  0  0  0  0  0  0  0  0  0
    3.0482   -0.2908   -2.1869 H   0  0  0  0  0  0  0  0  0  0  0  0
  1  2  1  0  0  0  0
  2  3  1  0  0  0  0
  2  4  1  0  0  0  0
  2  5  1  0  0  0  0
  5  6  2  0  0  0  0
  5  7  1  0  0  0  0
  7  8  1  0  0  0  0
  7  9  1  0  0  0  0
  9 10  1  0  0  0  0
  9 11  1  0  0  0  0
  9 21  1  0  0  0  0
 11 12  1  0  0  0  0
 11 13  1  0  0  0  0
 11 14  1  0  0  0  0
 14 15  1  0  0  0  0
 14 16  1  0  0  0  0
 14 17  1  0  0  0  0
 17 18  2  0  0  0  0
 17 19  1  0  0  0  0
 19 20  1  0  0  0  0
 21 22  2  0  0  0  0
 21 23  1  0  0  0  0
 23 24  1  0  0  0  0
 23 25  1  0  0  0  0
 25 26  1  0  0  0  0
 25 27  1  0  0  0  0
 25 28  1  0  0  0  0
M  END
$$$$

  -OEChem-01062216073D

 28 27  0     1  0  0  0  0  0999 V2000
   -3.3795   -2.9048    1.2070 H   0  0  0  0  0  0  0  0  0  0  0  0
   -3.3028   -1.9116    0.7548 C   0  0  0  0  0  0  0  0  0  0  0  0
   -4.0224   -1.2485    1.2408 H   0  0  0  0  0  0  0  0  0  0  0  0
   -3.5463   -1.9907   -0.3073 H   0  0  0  0  0  0  0  0  0  0  0  0
   -1.8968   -1.3675    0.9260 C   0  0  0  0  0  0  0  0  0  0  0  0
   -1.0816   -2.0295    1.5375 O   0  0  0  0  0  0  0  0  0  0  0  0
   -1.6016   -0.1155    0.4144 N   0  0  0  0  0  0  0  0  0  0  0  0
   -2.3681    0.3439   -0.0665 H   0  0  0  0  0  0  0  0  0  0  0  0
   -0.2797    0.5508    0.3865 C   0  0  1  0  0  0  0  0  0  0  0  0
   -0.4026    1.5065   -0.1302 H   0  0  0  0  0  0  0  0  0  0  0  0
    0.2115    0.8717    1.8158 C   0  0  0  0  0  0  0  0  0  0  0  0
    0.2314   -0.0408    2.4217 H   0  0  0  0  0  0  0  0  0  0  0  0
    1.2416    1.2425    1.7676 H   0  0  0  0  0  0  0  0  0  0  0  0
   -0.6727    1.9405    2.4920 C   0  0  0  0  0  0  0  0  0  0  0  0
   -0.6512    2.8582    1.8986 H   0  0  0  0  0  0  0  0  0  0  0  0
   -1.7065    1.5877    2.5287 H   0  0  0  0  0  0  0  0  0  0  0  0
   -0.2543    2.2891    3.9209 C   0  0  0  0  0  0  0  0  0  0  0  0
    0.6220    1.6542    4.4821 O   0  0  0  0  0  0  0  0  0  0  0  0
   -0.9080    3.3222    4.4998 O   0  0  0  0  0  0  0  0  0  0  0  0
   -0.5321    3.4003    5.3902 H   0  0  0  0  0  0  0  0  0  0  0  0
    0.8096   -0.2237   -0.4038 C   0  0  0  0  0  0  0  0  0  0  0  0
    1.4950   -1.0999    0.1016 O   0  0  0  0  0  0  0  0  0  0  0  0
    1.1808    0.2318   -1.6583 N   0  0  0  0  0  0  0  0  0  0  0  0
    0.6360    0.9812   -2.0710 H   0  0  0  0  0  0  0  0  0  0  0  0
    2.2664   -0.3597   -2.4336 C   0  0  0  0  0  0  0  0  0  0  0  0
    2.0619   -1.4171   -2.6329 H   0  0  0  0  0  0  0  0  0  0  0  0
    2.3756    0.1582   -3.3913 H   0  0  0  0  0  0  0  0  0  0  0  0
    3.2137   -0.2814   -1.8892 H   0  0  0  0  0  0  0  0  0  0  0  0
  1  2  1  0  0  0  0
  2  3  1  0  0  0  0
  2  4  1  0  0  0  0
  2  5  1  0  0  0  0
  5  6  2  0  0  0  0
  5  7  1  0  0  0  0
  7  8  1  0  0  0  0
  7  9  1  0  0  0  0
  9 10  1  0  0  0  0
  9 11  1  0  0  0  0
  9 21  1  0  0  0  0
 11 12  1  0  0  0  0
 11 13  1  0  0  0  0
 11 14  1  0  0  0  0
 14 15  1  0  0  0  0
 14 16  1  0  0  0  0
 14 17  1  0  0  0  0
 17 18  2  0  0  0  0
 17 19  1  0  0  0  0
 19 20  1  0  0  0  0
 21 22  2  0  0  0  0
 21 23  1  0  0  0  0
 23 24  1  0  0  0  0
 23 25  1  0  0  0  0
 25 26  1  0  0  0  0
 25 27  1  0  0  0  0
 25 28  1  0  0  0  0
M  END
$$$$

  -OEChem-01062216073D

 28 27  0     1  0  0  0  0  0999 V2000
   -3.2845   -3.0047    1.0424 H   0  0  0  0  0  0  0  0  0  0  0  0
   -3.2142   -2.0181    0.5755 C   0  0  0  0  0  0  0  0  0  0  0  0
   -4.0703   -1.4172    0.8912 H   0  0  0  0  0  0  0  0  0  0  0  0
   -3.2414   -2.1427   -0.5096 H   0  0  0  0  0  0  0  0  0  0  0  0
   -1.9222   -1.3374    0.9872 C   0  0  0  0  0  0  0  0  0  0  0  0
   -1.2226   -1.8692    1.8288 O   0  0  0  0  0  0  0  0  0  0  0  0
   -1.6414   -0.0823    0.4721 N   0  0  0  0  0  0  0  0  0  0  0  0
   -2.3180    0.2365   -0.2135 H   0  0  0  0  0  0  0  0  0  0  0  0
   -0.3142    0.5749    0.4400 C   0  0  1  0  0  0  0  0  0  0  0  0
   -0.4471    1.5278   -0.0793 H   0  0  0  0  0  0  0  0  0  0  0  0
    0.2186    0.9056    1.8511 C   0  0  0  0  0  0  0  0  0  0  0  0
    0.2545    0.0024    2.4684 H   0  0  0  0  0  0  0  0  0  0  0  0
    1.2479    1.2721    1.7709 H   0  0  0  0  0  0  0  0  0  0  0  0
   -0.6406    1.9874    2.5369 C   0  0  0  0  0  0  0  0  0  0  0  0
   -0.6313    2.8980    1.9326 H   0  0  0  0  0  0  0  0  0  0  0  0
   -1.6747    1.6389    2.6037 H   0  0  0  0  0  0  0  0  0  0  0  0
   -0.1818    2.3485    3.9504 C   0  0  0  0  0  0  0  0  0  0  0  0
    0.7053    1.7121    4.4935 O   0  0  0  0  0  0  0  0  0  0  0  0
   -0.8056    3.3974    4.5341 O   0  0  0  0  0  0  0  0  0  0  0  0
   -0.4070    3.4790    5.4141 H   0  0  0  0  0  0  0  0  0  0  0  0
    0.7676   -0.2003   -0.3589 C   0  0  0  0  0  0  0  0  0  0  0  0
    1.0907   -1.3491   -0.1007 O   0  0  0  0  0  0  0  0  0  0  0  0
    1.3675    0.4082   -1.4488 N   0  0  0  0  0  0  0  0  0  0  0  0
    1.1276    1.3745   -1.6441 H   0  0  0  0  0  0  0  0  0  0  0  0
    2.4038   -0.2341   -2.2505 C   0  0  0  0  0  0  0  0  0  0  0  0
    2.0318   -1.1707   -2.6795 H   0  0  0  0  0  0  0  0  0  0  0  0
    2.7108    0.4221   -3.0704 H   0  0  0  0  0  0  0  0  0  0  0  0
    3.2826   -0.4543   -1.6350 H   0  0  0  0  0  0  0  0  0  0  0  0
  1  2  1  0  0  0  0
  2  3  1  0  0  0  0
  2  4  1  0  0  0  0
  2  5  1  0  0  0  0
  5  6  2  0  0  0  0
  5  7  1  0  0  0  0
  7  8  1  0  0  0  0
  7  9  1  0  0  0  0
  9 10  1  0  0  0  0
  9 11  1  0  0  0  0
  9 21  1  0  0  0  0
 11 12  1  0  0  0  0
 11 13  1  0  0  0  0
 11 14  1  0  0  0  0
 14 15  1  0  0  0  0
 14 16  1  0  0  0  0
 14 17  1  0  0  0  0
 17 18  2  0  0  0  0
 17 19  1  0  0  0  0
 19 20  1  0  0  0  0
 21 22  2  0  0  0  0
 21 23  1  0  0  0  0
 23 24  1  0  0  0  0
 23 25  1  0  0  0  0
 25 26  1  0  0  0  0
 25 27  1  0  0  0  0
 25 28  1  0  0  0  0
M  END
$$$$

  -OEChem-01062216073D

 28 27  0     1  0  0  0  0  0999 V2000
   -3.2313   -3.0316    1.0092 H   0  0  0  0  0  0  0  0  0  0  0  0
   -3.1593   -2.0546    0.5231 C   0  0  0  0  0  0  0  0  0  0  0  0
   -4.0542   -1.4751    0.7613 H   0  0  0  0  0  0  0  0  0  0  0  0
   -3.1032   -2.2057   -0.5575 H   0  0  0  0  0  0  0  0  0  0  0  0
   -1.9216   -1.3227    1.0065 C   0  0  0  0  0  0  0  0  0  0  0  0
   -1.2576   -1.8153    1.9014 O   0  0  0  0  0  0  0  0  0  0  0  0
   -1.6463   -0.0656    0.4922 N   0  0  0  0  0  0  0  0  0  0  0  0
   -2.2776    0.2062   -0.2541 H   0  0  0  0  0  0  0  0  0  0  0  0
   -0.3113    0.5766    0.4730 C   0  0  1  0  0  0  0  0  0  0  0  0
   -0.4353    1.5261   -0.0550 H   0  0  0  0  0  0  0  0  0  0  0  0
    0.2195    0.9144    1.8832 C   0  0  0  0  0  0  0  0  0  0  0  0
    0.2448    0.0186    2.5112 H   0  0  0  0  0  0  0  0  0  0  0  0
    1.2520    1.2718    1.8046 H   0  0  0  0  0  0  0  0  0  0  0  0
   -0.6319    2.0124    2.5527 C   0  0  0  0  0  0  0  0  0  0  0  0
   -0.6122    2.9167    1.9392 H   0  0  0  0  0  0  0  0  0  0  0  0
   -1.6695    1.6735    2.6179 H   0  0  0  0  0  0  0  0  0  0  0  0
   -0.1764    2.3830    3.9648 C   0  0  0  0  0  0  0  0  0  0  0  0
    0.7014    1.7422    4.5181 O   0  0  0  0  0  0  0  0  0  0  0  0
   -0.7924    3.4433    4.5357 O   0  0  0  0  0  0  0  0  0  0  0  0
   -0.4014    3.5269    5.4189 H   0  0  0  0  0  0  0  0  0  0  0  0
    0.7706   -0.2055   -0.3207 C   0  0  0  0  0  0  0  0  0  0  0  0
    0.7843   -1.4256   -0.3935 O   0  0  0  0  0  0  0  0  0  0  0  0
    1.5999    0.4914   -1.1837 N   0  0  0  0  0  0  0  0  0  0  0  0
    1.5885    1.5050   -1.1344 H   0  0  0  0  0  0  0  0  0  0  0  0
    2.5806   -0.1578   -2.0473 C   0  0  0  0  0  0  0  0  0  0  0  0
    2.0848   -0.8428   -2.7434 H   0  0  0  0  0  0  0  0  0  0  0  0
    3.1268    0.5902   -2.6301 H   0  0  0  0  0  0  0  0  0  0  0  0
    3.3016   -0.7254   -1.4491 H   0  0  0  0  0  0  0  0  0  0  0  0
  1  2  1  0  0  0  0
  2  3  1  0  0  0  0
  2  4  1  0  0  0  0
  2  5  1  0  0  0  0
  5  6  2  0  0  0  0
  5  7  1  0  0  0  0
  7  8  1  0  0  0  0
  7  9  1  0  0  0  0
  9 10  1  0  0  0  0
  9 11  1  0  0  0  0
  9 21  1  0  0  0  0
 11 12  1  0  0  0  0
 11 13  1  0  0  0  0
 11 14  1  0  0  0  0
 14 15  1  0  0  0  0
 14 16  1  0  0  0  0
 14 17  1  0  0  0  0
 17 18  2  0  0  0  0
 17 19  1  0  0  0  0
 19 20  1  0  0  0  0
 21 22  2  0  0  0  0
 21 23  1  0  0  0  0
 23 24  1  0  0  0  0
 23 25  1  0  0  0  0
 25 26  1  0  0  0  0
 25 27  1  0  0  0  0
 25 28  1  0  0  0  0
M  END
$$$$

  -OEChem-01062216073D

 28 27  0     1  0  0  0  0  0999 V2000
   -3.2451   -3.0166    1.0482 H   0  0  0  0  0  0  0  0  0  0  0  0
   -3.1643   -2.0491    0.5445 C   0  0  0  0  0  0  0  0  0  0  0  0
   -4.0476   -1.4524    0.7831 H   0  0  0  0  0  0  0  0  0  0  0  0
   -3.1241   -2.2188   -0.5341 H   0  0  0  0  0  0  0  0  0  0  0  0
   -1.9100   -1.3273    1.0001 C   0  0  0  0  0  0  0  0  0  0  0  0
   -1.2084   -1.8409    1.8549 O   0  0  0  0  0  0  0  0  0  0  0  0
   -1.6405   -0.0667    0.4913 N   0  0  0  0  0  0  0  0  0  0  0  0
   -2.2690    0.2068   -0.2569 H   0  0  0  0  0  0  0  0  0  0  0  0
   -0.3028    0.5687    0.4799 C   0  0  1  0  0  0  0  0  0  0  0  0
   -0.4184    1.5166   -0.0534 H   0  0  0  0  0  0  0  0  0  0  0  0
    0.2168    0.9101    1.8944 C   0  0  0  0  0  0  0  0  0  0  0  0
    0.2302    0.0180    2.5275 H   0  0  0  0  0  0  0  0  0  0  0  0
    1.2515    1.2624    1.8263 H   0  0  0  0  0  0  0  0  0  0  0  0
   -0.6359    2.0150    2.5507 C   0  0  0  0  0  0  0  0  0  0  0  0
   -0.6042    2.9164    1.9333 H   0  0  0  0  0  0  0  0  0  0  0  0
   -1.6764    1.6831    2.6062 H   0  0  0  0  0  0  0  0  0  0  0  0
   -0.1922    2.3895    3.9656 C   0  0  0  0  0  0  0  0  0  0  0  0
    0.6772    1.7456    4.5286 O   0  0  0  0  0  0  0  0  0  0  0  0
   -0.8092    3.4536    4.5281 O   0  0  0  0  0  0  0  0  0  0  0  0
   -0.4264    3.5385    5.4148 H   0  0  0  0  0  0  0  0  0  0  0  0
    0.7761   -0.2158   -0.3157 C   0  0  0  0  0  0  0  0  0  0  0  0
    0.6033   -1.3698   -0.6854 O   0  0  0  0  0  0  0  0  0  0  0  0
    1.8030    0.4909   -0.9193 N   0  0  0  0  0  0  0  0  0  0  0  0
    1.9445    1.4531   -0.6287 H   0  0  0  0  0  0  0  0  0  0  0  0
    2.7948   -0.1304   -1.7910 C   0  0  0  0  0  0  0  0  0  0  0  0
    2.3136   -0.5536   -2.6790 H   0  0  0  0  0  0  0  0  0  0  0  0
    3.5303    0.6110   -2.1173 H   0  0  0  0  0  0  0  0  0  0  0  0
    3.3221   -0.9313   -1.2617 H   0  0  0  0  0  0  0  0  0  0  0  0
  1  2  1  0  0  0  0
  2  3  1  0  0  0  0
  2  4  1  0  0  0  0
  2  5  1  0  0  0  0
  5  6  2  0  0  0  0
  5  7  1  0  0  0  0
  7  8  1  0  0  0  0
  7  9  1  0  0  0  0
  9 10  1  0  0  0  0
  9 11  1  0  0  0  0
  9 21  1  0  0  0  0
 11 12  1  0  0  0  0
 11 13  1  0  0  0  0
 11 14  1  0  0  0  0
 14 15  1  0  0  0  0
 14 16  1  0  0  0  0
 14 17  1  0  0  0  0
 17 18  2  0  0  0  0
 17 19  1  0  0  0  0
 19 20  1  0  0  0  0
 21 22  2  0  0  0  0
 21 23  1  0  0  0  0
 23 24  1  0  0  0  0
 23 25  1  0  0  0  0
 25 26  1  0  0  0  0
 25 27  1  0  0  0  0
 25 28  1  0  0  0  0
M  END
$$$$

  -OEChem-01062216073D

 28 27  0     1  0  0  0  0  0999 V2000
   -3.2132   -3.0218    1.0330 H   0  0  0  0  0  0  0  0  0  0  0  0
   -3.1571   -2.0374    0.5598 C   0  0  0  0  0  0  0  0  0  0  0  0
   -4.0337   -1.4548    0.8521 H   0  0  0  0  0  0  0  0  0  0  0  0
   -3.1580   -2.1698   -0.5249 H   0  0  0  0  0  0  0  0  0  0  0  0
   -1.8900   -1.3230    0.9901 C   0  0  0  0  0  0  0  0  0  0  0  0
   -1.1473   -1.8615    1.7939 O   0  0  0  0  0  0  0  0  0  0  0  0
   -1.6311   -0.0570    0.4905 N   0  0  0  0  0  0  0  0  0  0  0  0
   -2.2630    0.2223   -0.2532 H   0  0  0  0  0  0  0  0  0  0  0  0
   -0.2953    0.5803    0.4848 C   0  0  1  0  0  0  0  0  0  0  0  0
   -0.4040    1.5298   -0.0474 H   0  0  0  0  0  0  0  0  0  0  0  0
    0.2124    0.9177    1.9061 C   0  0  0  0  0  0  0  0  0  0  0  0
    0.2217    0.0239    2.5368 H   0  0  0  0  0  0  0  0  0  0  0  0
    1.2459    1.2742    1.8520 H   0  0  0  0  0  0  0  0  0  0  0  0
   -0.6493    2.0187    2.5575 C   0  0  0  0  0  0  0  0  0  0  0  0
   -0.6152    2.9220    1.9429 H   0  0  0  0  0  0  0  0  0  0  0  0
   -1.6892    1.6839    2.6035 H   0  0  0  0  0  0  0  0  0  0  0  0
   -0.2193    2.3900    3.9771 C   0  0  0  0  0  0  0  0  0  0  0  0
    0.6468    1.7463    4.5456 O   0  0  0  0  0  0  0  0  0  0  0  0
   -0.8416    3.4530    4.5360 O   0  0  0  0  0  0  0  0  0  0  0  0
   -0.4660    3.5388    5.4257 H   0  0  0  0  0  0  0  0  0  0  0  0
    0.7731   -0.2088   -0.3204 C   0  0  0  0  0  0  0  0  0  0  0  0
    0.4876   -1.2372   -0.9222 O   0  0  0  0  0  0  0  0  0  0  0  0
    1.9608    0.4155   -0.6640 N   0  0  0  0  0  0  0  0  0  0  0  0
    2.1985    1.2714   -0.1728 H   0  0  0  0  0  0  0  0  0  0  0  0
    2.9714   -0.2074   -1.5125 C   0  0  0  0  0  0  0  0  0  0  0  0
    2.5646   -0.4091   -2.5092 H   0  0  0  0  0  0  0  0  0  0  0  0
    3.8363    0.4540   -1.6208 H   0  0  0  0  0  0  0  0  0  0  0  0
    3.3108   -1.1515   -1.0733 H   0  0  0  0  0  0  0  0  0  0  0  0
  1  2  1  0  0  0  0
  2  3  1  0  0  0  0
  2  4  1  0  0  0  0
  2  5  1  0  0  0  0
  5  6  2  0  0  0  0
  5  7  1  0  0  0  0
  7  8  1  0  0  0  0
  7  9  1  0  0  0  0
  9 10  1  0  0  0  0
  9 11  1  0  0  0  0
  9 21  1  0  0  0  0
 11 12  1  0  0  0  0
 11 13  1  0  0  0  0
 11 14  1  0  0  0  0
 14 15  1  0  0  0  0
 14 16  1  0  0  0  0
 14 17  1  0  0  0  0
 17 18  2  0  0  0  0
 17 19  1  0  0  0  0
 19 20  1  0  0  0  0
 21 22  2  0  0  0  0
 21 23  1  0  0  0  0
 23 24  1  0  0  0  0
 23 25  1  0  0  0  0
 25 26  1  0  0  0  0
 25 27  1  0  0  0  0
 25 28  1  0  0  0  0
M  END
$$$$

  -OEChem-01062216073D

 28 27  0     1  0  0  0  0  0999 V2000
   -3.2808   -3.0030    0.9384 H   0  0  0  0  0  0  0  0  0  0  0  0
   -3.2030   -1.9922    0.5282 C   0  0  0  0  0  0  0  0  0  0  0  0
   -4.0258   -1.3893    0.9193 H   0  0  0  0  0  0  0  0  0  0  0  0
   -3.2838   -2.0488   -0.5602 H   0  0  0  0  0  0  0  0  0  0  0  0
   -1.8739   -1.3711    0.9149 C   0  0  0  0  0  0  0  0  0  0  0  0
   -1.0939   -2.0208    1.5894 O   0  0  0  0  0  0  0  0  0  0  0  0
   -1.5880   -0.0906    0.4742 N   0  0  0  0  0  0  0  0  0  0  0  0
   -2.2353    0.2482   -0.2313 H   0  0  0  0  0  0  0  0  0  0  0  0
   -0.2617    0.5678    0.5004 C   0  0  1  0  0  0  0  0  0  0  0  0
   -0.4279    1.6134    0.2251 H   0  0  0  0  0  0  0  0  0  0  0  0
    0.4220    0.5912    1.8908 C   0  0  0  0  0  0  0  0  0  0  0  0
    0.5367   -0.4174    2.2958 H   0  0  0  0  0  0  0  0  0  0  0  0
    1.4317    1.0012    1.7969 H   0  0  0  0  0  0  0  0  0  0  0  0
   -0.3601    1.4853    2.8744 C   0  0  0  0  0  0  0  0  0  0  0  0
   -0.4106    2.5047    2.4826 H   0  0  0  0  0  0  0  0  0  0  0  0
   -1.3832    1.1102    2.9663 H   0  0  0  0  0  0  0  0  0  0  0  0
    0.2408    1.5426    4.2793 C   0  0  0  0  0  0  0  0  0  0  0  0
    1.1763    0.8190    4.5781 O   0  0  0  0  0  0  0  0  0  0  0  0
   -0.3183    2.4262    5.1372 O   0  0  0  0  0  0  0  0  0  0  0  0
    0.1618    2.3212    5.9727 H   0  0  0  0  0  0  0  0  0  0  0  0
    0.6704    0.0130   -0.6097 C   0  0  0  0  0  0  0  0  0  0  0  0
    0.2177   -0.6879   -1.5082 O   0  0  0  0  0  0  0  0  0  0  0  0
    1.9601    0.4951   -0.7563 N   0  0  0  0  0  0  0  0  0  0  0  0
    2.3412    1.0497    0.0037 H   0  0  0  0  0  0  0  0  0  0  0  0
    2.8590    0.0493   -1.8151 C   0  0  0  0  0  0  0  0  0  0  0  0
    2.4345    0.2742   -2.7993 H   0  0  0  0  0  0  0  0  0  0  0  0
    3.8245    0.5576   -1.7325 H   0  0  0  0  0  0  0  0  0  0  0  0
    3.0281   -1.0304   -1.7435 H   0  0  0  0  0  0  0  0  0  0  0  0
  1  2  1  0  0  0  0
  2  3  1  0  0  0  0
  2  4  1  0  0  0  0
  2  5  1  0  0  0  0
  5  6  2  0  0  0  0
  5  7  1  0  0  0  0
  7  8  1  0  0  0  0
  7  9  1  0  0  0  0
  9 10  1  0  0  0  0
  9 11  1  0  0  0  0
  9 21  1  0  0  0  0
 11 12  1  0  0  0  0
 11 13  1  0  0  0  0
 11 14  1  0  0  0  0
 14 15  1  0  0  0  0
 14 16  1  0  0  0  0
 14 17  1  0  0  0  0
 17 18  2  0  0  0  0
 17 19  1  0  0  0  0
 19 20  1  0  0  0  0
 21 22  2  0  0  0  0
 21 23  1  0  0  0  0
 23 24  1  0  0  0  0
 23 25  1  0  0  0  0
 25 26  1  0  0  0  0
 25 27  1  0  0  0  0
 25 28  1  0  0  0  0
M  END
$$$$

  -OEChem-01062216073D

 28 27  0     1  0  0  0  0  0999 V2000
   -3.2603   -2.9968    0.9524 H   0  0  0  0  0  0  0  0  0  0  0  0
   -3.1882   -1.9840    0.5464 C   0  0  0  0  0  0  0  0  0  0  0  0
   -3.9948   -1.3783    0.9659 H   0  0  0  0  0  0  0  0  0  0  0  0
   -3.3022   -2.0325   -0.5395 H   0  0  0  0  0  0  0  0  0  0  0  0
   -1.8446   -1.3735    0.8978 C   0  0  0  0  0  0  0  0  0  0  0  0
   -1.0370   -2.0398    1.5220 O   0  0  0  0  0  0  0  0  0  0  0  0
   -1.5668   -0.0876    0.4701 N   0  0  0  0  0  0  0  0  0  0  0  0
   -2.2248    0.2679   -0.2175 H   0  0  0  0  0  0  0  0  0  0  0  0
   -0.2464    0.5799    0.5091 C   0  0  1  0  0  0  0  0  0  0  0  0
   -0.4134    1.6260    0.2359 H   0  0  0  0  0  0  0  0  0  0  0  0
    0.4179    0.6037    1.9096 C   0  0  0  0  0  0  0  0  0  0  0  0
    0.5334   -0.4054    2.3132 H   0  0  0  0  0  0  0  0  0  0  0  0
    1.4239    1.0258    1.8325 H   0  0  0  0  0  0  0  0  0  0  0  0
   -0.3822    1.4898    2.8852 C   0  0  0  0  0  0  0  0  0  0  0  0
   -0.4332    2.5100    2.4957 H   0  0  0  0  0  0  0  0  0  0  0  0
   -1.4046    1.1097    2.9624 H   0  0  0  0  0  0  0  0  0  0  0  0
    0.2016    1.5447    4.2977 C   0  0  0  0  0  0  0  0  0  0  0  0
    1.1374    0.8244    4.6038 O   0  0  0  0  0  0  0  0  0  0  0  0
   -0.3698    2.4231    5.1526 O   0  0  0  0  0  0  0  0  0  0  0  0
    0.1048    2.3199    5.9916 H   0  0  0  0  0  0  0  0  0  0  0  0
    0.6842    0.0314   -0.6056 C   0  0  0  0  0  0  0  0  0  0  0  0
    0.1959   -0.4546   -1.6201 O   0  0  0  0  0  0  0  0  0  0  0  0
    2.0492    0.2630   -0.5892 N   0  0  0  0  0  0  0  0  0  0  0  0
    2.4512    0.5988    0.2803 H   0  0  0  0  0  0  0  0  0  0  0  0
    2.9491   -0.2257   -1.6278 C   0  0  0  0  0  0  0  0  0  0  0  0
    2.6700    0.1866   -2.6033 H   0  0  0  0  0  0  0  0  0  0  0  0
    3.9785    0.0744   -1.4095 H   0  0  0  0  0  0  0  0  0  0  0  0
    2.9109   -1.3188   -1.6836 H   0  0  0  0  0  0  0  0  0  0  0  0
  1  2  1  0  0  0  0
  2  3  1  0  0  0  0
  2  4  1  0  0  0  0
  2  5  1  0  0  0  0
  5  6  2  0  0  0  0
  5  7  1  0  0  0  0
  7  8  1  0  0  0  0
  7  9  1  0  0  0  0
  9 10  1  0  0  0  0
  9 11  1  0  0  0  0
  9 21  1  0  0  0  0
 11 12  1  0  0  0  0
 11 13  1  0  0  0  0
 11 14  1  0  0  0  0
 14 15  1  0  0  0  0
 14 16  1  0  0  0  0
 14 17  1  0  0  0  0
 17 18  2  0  0  0  0
 17 19  1  0  0  0  0
 19 20  1  0  0  0  0
 21 22  2  0  0  0  0
 21 23  1  0  0  0  0
 23 24  1  0  0  0  0
 23 25  1  0  0  0  0
 25 26  1  0  0  0  0
 25 27  1  0  0  0  0
 25 28  1  0  0  0  0
M  END
$$$$

  -OEChem-01062216073D

 28 27  0     1  0  0  0  0  0999 V2000
   -3.2401   -2.9966    0.9536 H   0  0  0  0  0  0  0  0  0  0  0  0
   -3.1761   -1.9794    0.5570 C   0  0  0  0  0  0  0  0  0  0  0  0
   -3.9725   -1.3780    1.0015 H   0  0  0  0  0  0  0  0  0  0  0  0
   -3.3154   -2.0156   -0.5262 H   0  0  0  0  0  0  0  0  0  0  0  0
   -1.8243   -1.3741    0.8843 C   0  0  0  0  0  0  0  0  0  0  0  0
   -0.9971   -2.0496    1.4724 O   0  0  0  0  0  0  0  0  0  0  0  0
   -1.5497   -0.0859    0.4638 N   0  0  0  0  0  0  0  0  0  0  0  0
   -2.2170    0.2873   -0.2057 H   0  0  0  0  0  0  0  0  0  0  0  0
   -0.2335    0.5858    0.5177 C   0  0  1  0  0  0  0  0  0  0  0  0
   -0.3985    1.6314    0.2416 H   0  0  0  0  0  0  0  0  0  0  0  0
    0.4154    0.6146    1.9250 C   0  0  0  0  0  0  0  0  0  0  0  0
    0.5298   -0.3938    2.3312 H   0  0  0  0  0  0  0  0  0  0  0  0
    1.4194    1.0441    1.8549 H   0  0  0  0  0  0  0  0  0  0  0  0
   -0.3967    1.4987    2.8925 C   0  0  0  0  0  0  0  0  0  0  0  0
   -0.4470    2.5188    2.5026 H   0  0  0  0  0  0  0  0  0  0  0  0
   -1.4186    1.1156    2.9609 H   0  0  0  0  0  0  0  0  0  0  0  0
    0.1754    1.5553    4.3096 C   0  0  0  0  0  0  0  0  0  0  0  0
    1.1109    0.8373    4.6223 O   0  0  0  0  0  0  0  0  0  0  0  0
   -0.4070    2.4296    5.1614 O   0  0  0  0  0  0  0  0  0  0  0  0
    0.0618    2.3287    6.0040 H   0  0  0  0  0  0  0  0  0  0  0  0
    0.6979    0.0358   -0.5939 C   0  0  0  0  0  0  0  0  0  0  0  0
    0.2239   -0.2264   -1.6938 O   0  0  0  0  0  0  0  0  0  0  0  0
    2.0729   -0.0131   -0.4414 N   0  0  0  0  0  0  0  0  0  0  0  0
    2.4312    0.0862    0.5036 H   0  0  0  0  0  0  0  0  0  0  0  0
    2.9656   -0.5369   -1.4686 C   0  0  0  0  0  0  0  0  0  0  0  0
    2.8556    0.0306   -2.3988 H   0  0  0  0  0  0  0  0  0  0  0  0
    4.0065   -0.4593   -1.1402 H   0  0  0  0  0  0  0  0  0  0  0  0
    2.7419   -1.5899   -1.6697 H   0  0  0  0  0  0  0  0  0  0  0  0
  1  2  1  0  0  0  0
  2  3  1  0  0  0  0
  2  4  1  0  0  0  0
  2  5  1  0  0  0  0
  5  6  2  0  0  0  0
  5  7  1  0  0  0  0
  7  8  1  0  0  0  0
  7  9  1  0  0  0  0
  9 10  1  0  0  0  0
  9 11  1  0  0  0  0
  9 21  1  0  0  0  0
 11 12  1  0  0  0  0
 11 13  1  0  0  0  0
 11 14  1  0  0  0  0
 14 15  1  0  0  0  0
 14 16  1  0  0  0  0
 14 17  1  0  0  0  0
 17 18  2  0  0  0  0
 17 19  1  0  0  0  0
 19 20  1  0  0  0  0
 21 22  2  0  0  0  0
 21 23  1  0  0  0  0
 23 24  1  0  0  0  0
 23 25  1  0  0  0  0
 25 26  1  0  0  0  0
 25 27  1  0  0  0  0
 25 28  1  0  0  0  0
M  END
$$$$

  -OEChem-01062216073D

 28 27  0     1  0  0  0  0  0999 V2000
   -3.2349   -2.9868    0.9744 H   0  0  0  0  0  0  0  0  0  0  0  0
   -3.1741   -1.9691    0.5786 C   0  0  0  0  0  0  0  0  0  0  0  0
   -3.9537   -1.3628    1.0461 H   0  0  0  0  0  0  0  0  0  0  0  0
   -3.3432   -2.0012   -0.5006 H   0  0  0  0  0  0  0  0  0  0  0  0
   -1.8091   -1.3750    0.8706 C   0  0  0  0  0  0  0  0  0  0  0  0
   -0.9650   -2.0605    1.4223 O   0  0  0  0  0  0  0  0  0  0  0  0
   -1.5350   -0.0866    0.4515 N   0  0  0  0  0  0  0  0  0  0  0  0
   -2.2189    0.3106   -0.1869 H   0  0  0  0  0  0  0  0  0  0  0  0
   -0.2227    0.5895    0.5169 C   0  0  1  0  0  0  0  0  0  0  0  0
   -0.3874    1.6349    0.2385 H   0  0  0  0  0  0  0  0  0  0  0  0
    0.4146    0.6209    1.9281 C   0  0  0  0  0  0  0  0  0  0  0  0
    0.5270   -0.3872    2.3357 H   0  0  0  0  0  0  0  0  0  0  0  0
    1.4188    1.0523    1.8600 H   0  0  0  0  0  0  0  0  0  0  0  0
   -0.4067    1.5017    2.8909 C   0  0  0  0  0  0  0  0  0  0  0  0
   -0.4563    2.5219    2.5009 H   0  0  0  0  0  0  0  0  0  0  0  0
   -1.4281    1.1167    2.9526 H   0  0  0  0  0  0  0  0  0  0  0  0
    0.1573    1.5577    4.3115 C   0  0  0  0  0  0  0  0  0  0  0  0
    1.0931    0.8416    4.6282 O   0  0  0  0  0  0  0  0  0  0  0  0
   -0.4343    2.4262    5.1627 O   0  0  0  0  0  0  0  0  0  0  0  0
    0.0308    2.3250    6.0073 H   0  0  0  0  0  0  0  0  0  0  0  0
    0.7154    0.0384   -0.5855 C   0  0  0  0  0  0  0  0  0  0  0  0
    0.3034   -0.0164   -1.7384 O   0  0  0  0  0  0  0  0  0  0  0  0
    2.0344   -0.2949   -0.3311 N   0  0  0  0  0  0  0  0  0  0  0  0
    2.2945   -0.3950    0.6461 H   0  0  0  0  0  0  0  0  0  0  0  0
    2.9150   -0.8662   -1.3431 C   0  0  0  0  0  0  0  0  0  0  0  0
    3.0006   -0.1928   -2.2024 H   0  0  0  0  0  0  0  0  0  0  0  0
    3.9156   -1.0220   -0.9284 H   0  0  0  0  0  0  0  0  0  0  0  0
    2.5276   -1.8306   -1.6884 H   0  0  0  0  0  0  0  0  0  0  0  0
  1  2  1  0  0  0  0
  2  3  1  0  0  0  0
  2  4  1  0  0  0  0
  2  5  1  0  0  0  0
  5  6  2  0  0  0  0
  5  7  1  0  0  0  0
  7  8  1  0  0  0  0
  7  9  1  0  0  0  0
  9 10  1  0  0  0  0
  9 11  1  0  0  0  0
  9 21  1  0  0  0  0
 11 12  1  0  0  0  0
 11 13  1  0  0  0  0
 11 14  1  0  0  0  0
 14 15  1  0  0  0  0
 14 16  1  0  0  0  0
 14 17  1  0  0  0  0
 17 18  2  0  0  0  0
 17 19  1  0  0  0  0
 19 20  1  0  0  0  0
 21 22  2  0  0  0  0
 21 23  1  0  0  0  0
 23 24  1  0  0  0  0
 23 25  1  0  0  0  0
 25 26  1  0  0  0  0
 25 27  1  0  0  0  0
 25 28  1  0  0  0  0
M  END
$$$$

  -OEChem-01062216073D

 28 27  0     1  0  0  0  0  0999 V2000
   -3.2326   -2.9760    1.0018 H   0  0  0  0  0  0  0  0  0  0  0  0
   -3.1741   -1.9584    0.6054 C   0  0  0  0  0  0  0  0  0  0  0  0
   -3.9330   -1.3455    1.0975 H   0  0  0  0  0  0  0  0  0  0  0  0
   -3.3769   -1.9874   -0.4680 H   0  0  0  0  0  0  0  0  0  0  0  0
   -1.7954   -1.3772    0.8561 C   0  0  0  0  0  0  0  0  0  0  0  0
   -0.9349   -2.0736    1.3686 O   0  0  0  0  0  0  0  0  0  0  0  0
   -1.5206   -0.0892    0.4370 N   0  0  0  0  0  0  0  0  0  0  0  0
   -2.2260    0.3376   -0.1573 H   0  0  0  0  0  0  0  0  0  0  0  0
   -0.2104    0.5876    0.5126 C   0  0  1  0  0  0  0  0  0  0  0  0
   -0.3728    1.6330    0.2324 H   0  0  0  0  0  0  0  0  0  0  0  0
    0.4173    0.6199    1.9273 C   0  0  0  0  0  0  0  0  0  0  0  0
    0.5222   -0.3879    2.3380 H   0  0  0  0  0  0  0  0  0  0  0  0
    1.4246    1.0453    1.8607 H   0  0  0  0  0  0  0  0  0  0  0  0
   -0.4109    1.5007    2.8842 C   0  0  0  0  0  0  0  0  0  0  0  0
   -0.4570    2.5208    2.4933 H   0  0  0  0  0  0  0  0  0  0  0  0
   -1.4330    1.1163    2.9381 H   0  0  0  0  0  0  0  0  0  0  0  0
    0.1419    1.5587    4.3090 C   0  0  0  0  0  0  0  0  0  0  0  0
    1.0757    0.8436    4.6339 O   0  0  0  0  0  0  0  0  0  0  0  0
   -0.4577    2.4271    5.1549 O   0  0  0  0  0  0  0  0  0  0  0  0
    0.0032    2.3301    6.0024 H   0  0  0  0  0  0  0  0  0  0  0  0
    0.7357    0.0361   -0.5791 C   0  0  0  0  0  0  0  0  0  0  0  0
    0.4315    0.1896   -1.7558 O   0  0  0  0  0  0  0  0  0  0  0  0
    1.9360   -0.5753   -0.2647 N   0  0  0  0  0  0  0  0  0  0  0  0
    2.0481   -0.8637    0.7040 H   0  0  0  0  0  0  0  0  0  0  0  0
    2.7935   -1.1895   -1.2711 C   0  0  0  0  0  0  0  0  0  0  0  0
    3.0884   -0.4527   -2.0256 H   0  0  0  0  0  0  0  0  0  0  0  0
    3.7009   -1.5846   -0.8044 H   0  0  0  0  0  0  0  0  0  0  0  0
    2.2707   -2.0132   -1.7686 H   0  0  0  0  0  0  0  0  0  0  0  0
  1  2  1  0  0  0  0
  2  3  1  0  0  0  0
  2  4  1  0  0  0  0
  2  5  1  0  0  0  0
  5  6  2  0  0  0  0
  5  7  1  0  0  0  0
  7  8  1  0  0  0  0
  7  9  1  0  0  0  0
  9 10  1  0  0  0  0
  9 11  1  0  0  0  0
  9 21  1  0  0  0  0
 11 12  1  0  0  0  0
 11 13  1  0  0  0  0
 11 14  1  0  0  0  0
 14 15  1  0  0  0  0
 14 16  1  0  0  0  0
 14 17  1  0  0  0  0
 17 18  2  0  0  0  0
 17 19  1  0  0  0  0
 19 20  1  0  0  0  0
 21 22  2  0  0  0  0
 21 23  1  0  0  0  0
 23 24  1  0  0  0  0
 23 25  1  0  0  0  0
 25 26  1  0  0  0  0
 25 27  1  0  0  0  0
 25 28  1  0  0  0  0
M  END
$$$$

  -OEChem-01062216073D

 28 27  0     1  0  0  0  0  0999 V2000
   -3.2386   -2.9522    1.0657 H   0  0  0  0  0  0  0  0  0  0  0  0
   -3.1834   -1.9389    0.6577 C   0  0  0  0  0  0  0  0  0  0  0  0
   -3.9060   -1.3093    1.1821 H   0  0  0  0  0  0  0  0  0  0  0  0
   -3.4408   -1.9727   -0.4038 H   0  0  0  0  0  0  0  0  0  0  0  0
   -1.7843   -1.3801    0.8332 C   0  0  0  0  0  0  0  0  0  0  0  0
   -0.9024   -2.0936    1.2838 O   0  0  0  0  0  0  0  0  0  0  0  0
   -1.5090   -0.0937    0.4103 N   0  0  0  0  0  0  0  0  0  0  0  0
   -2.2486    0.3791   -0.1018 H   0  0  0  0  0  0  0  0  0  0  0  0
   -0.1987    0.5801    0.4957 C   0  0  1  0  0  0  0  0  0  0  0  0
   -0.3568    1.6263    0.2136 H   0  0  0  0  0  0  0  0  0  0  0  0
    0.4182    0.6094    1.9144 C   0  0  0  0  0  0  0  0  0  0  0  0
    0.5126   -0.3988    2.3269 H   0  0  0  0  0  0  0  0  0  0  0  0
    1.4300    1.0253    1.8524 H   0  0  0  0  0  0  0  0  0  0  0  0
   -0.4147    1.4916    2.8660 C   0  0  0  0  0  0  0  0  0  0  0  0
   -0.4532    2.5122    2.4756 H   0  0  0  0  0  0  0  0  0  0  0  0
   -1.4386    1.1116    2.9118 H   0  0  0  0  0  0  0  0  0  0  0  0
    0.1266    1.5475    4.2951 C   0  0  0  0  0  0  0  0  0  0  0  0
    1.0557    0.8301    4.6280 O   0  0  0  0  0  0  0  0  0  0  0  0
   -0.4784    2.4176    5.1356 O   0  0  0  0  0  0  0  0  0  0  0  0
   -0.0227    2.3222    5.9860 H   0  0  0  0  0  0  0  0  0  0  0  0
    0.7581    0.0253   -0.5818 C   0  0  0  0  0  0  0  0  0  0  0  0
    0.6210    0.3854   -1.7442 O   0  0  0  0  0  0  0  0  0  0  0  0
    1.7815   -0.8421   -0.2489 N   0  0  0  0  0  0  0  0  0  0  0  0
    1.6898   -1.2938    0.6592 H   0  0  0  0  0  0  0  0  0  0  0  0
    2.6261   -1.4789   -1.2514 C   0  0  0  0  0  0  0  0  0  0  0  0
    3.1293   -0.7244   -1.8653 H   0  0  0  0  0  0  0  0  0  0  0  0
    3.3916   -2.0919   -0.7660 H   0  0  0  0  0  0  0  0  0  0  0  0
    2.0265   -2.1218   -1.9042 H   0  0  0  0  0  0  0  0  0  0  0  0
  1  2  1  0  0  0  0
  2  3  1  0  0  0  0
  2  4  1  0  0  0  0
  2  5  1  0  0  0  0
  5  6  2  0  0  0  0
  5  7  1  0  0  0  0
  7  8  1  0  0  0  0
  7  9  1  0  0  0  0
  9 10  1  0  0  0  0
  9 11  1  0  0  0  0
  9 21  1  0  0  0  0
 11 12  1  0  0  0  0
 11 13  1  0  0  0  0
 11 14  1  0  0  0  0
 14 15  1  0  0  0  0
 14 16  1  0  0  0  0
 14 17  1  0  0  0  0
 17 18  2  0  0  0  0
 17 19  1  0  0  0  0
 19 20  1  0  0  0  0
 21 22  2  0  0  0  0
 21 23  1  0  0  0  0
 23 24  1  0  0  0  0
 23 25  1  0  0  0  0
 25 26  1  0  0  0  0
 25 27  1  0  0  0  0
 25 28  1  0  0  0  0
M  END
$$$$

  -OEChem-01062216073D

 28 27  0     1  0  0  0  0  0999 V2000
   -3.2639   -2.9189    1.1416 H   0  0  0  0  0  0  0  0  0  0  0  0
   -3.2048   -1.9132    0.7159 C   0  0  0  0  0  0  0  0  0  0  0  0
   -3.8878   -1.2596    1.2636 H   0  0  0  0  0  0  0  0  0  0  0  0
   -3.5122   -1.9556   -0.3319 H   0  0  0  0  0  0  0  0  0  0  0  0
   -1.7869   -1.3847    0.8178 C   0  0  0  0  0  0  0  0  0  0  0  0
   -0.8942   -2.1166    1.2170 O   0  0  0  0  0  0  0  0  0  0  0  0
   -1.5062   -0.1029    0.3845 N   0  0  0  0  0  0  0  0  0  0  0  0
   -2.2714    0.4076   -0.0474 H   0  0  0  0  0  0  0  0  0  0  0  0
   -0.1948    0.5684    0.4729 C   0  0  1  0  0  0  0  0  0  0  0  0
   -0.3495    1.6142    0.1888 H   0  0  0  0  0  0  0  0  0  0  0  0
    0.4174    0.5938    1.8928 C   0  0  0  0  0  0  0  0  0  0  0  0
    0.5064   -0.4160    2.3029 H   0  0  0  0  0  0  0  0  0  0  0  0
    1.4319    1.0037    1.8332 H   0  0  0  0  0  0  0  0  0  0  0  0
   -0.4162    1.4764    2.8436 C   0  0  0  0  0  0  0  0  0  0  0  0
   -0.4511    2.4979    2.4551 H   0  0  0  0  0  0  0  0  0  0  0  0
   -1.4412    1.0992    2.8859 H   0  0  0  0  0  0  0  0  0  0  0  0
    0.1195    1.5292    4.2750 C   0  0  0  0  0  0  0  0  0  0  0  0
    1.0454    0.8097    4.6112 O   0  0  0  0  0  0  0  0  0  0  0  0
   -0.4901    2.3966    5.1148 O   0  0  0  0  0  0  0  0  0  0  0  0
   -0.0374    2.3006    5.9668 H   0  0  0  0  0  0  0  0  0  0  0  0
    0.7743    0.0077   -0.5885 C   0  0  0  0  0  0  0  0  0  0  0  0
    0.8462    0.5452   -1.6861 O   0  0  0  0  0  0  0  0  0  0  0  0
    1.5810   -1.0743   -0.2937 N   0  0  0  0  0  0  0  0  0  0  0  0
    1.2784   -1.6255    0.5107 H   0  0  0  0  0  0  0  0  0  0  0  0
    2.4251   -1.7178   -1.2917 C   0  0  0  0  0  0  0  0  0  0  0  0
    3.1192   -0.9939   -1.7317 H   0  0  0  0  0  0  0  0  0  0  0  0
    3.0114   -2.5184   -0.8308 H   0  0  0  0  0  0  0  0  0  0  0  0
    1.8123   -2.1489   -2.0900 H   0  0  0  0  0  0  0  0  0  0  0  0
  1  2  1  0  0  0  0
  2  3  1  0  0  0  0
  2  4  1  0  0  0  0
  2  5  1  0  0  0  0
  5  6  2  0  0  0  0
  5  7  1  0  0  0  0
  7  8  1  0  0  0  0
  7  9  1  0  0  0  0
  9 10  1  0  0  0  0
  9 11  1  0  0  0  0
  9 21  1  0  0  0  0
 11 12  1  0  0  0  0
 11 13  1  0  0  0  0
 11 14  1  0  0  0  0
 14 15  1  0  0  0  0
 14 16  1  0  0  0  0
 14 17  1  0  0  0  0
 17 18  2  0  0  0  0
 17 19  1  0  0  0  0
 19 20  1  0  0  0  0
 21 22  2  0  0  0  0
 21 23  1  0  0  0  0
 23 24  1  0  0  0  0
 23 25  1  0  0  0  0
 25 26  1  0  0  0  0
 25 27  1  0  0  0  0
 25 28  1  0  0  0  0
M  END
$$$$

  -OEChem-01062216073D

 28 27  0     1  0  0  0  0  0999 V2000
   -3.3188   -2.8870    1.1966 H   0  0  0  0  0  0  0  0  0  0  0  0
   -3.2471   -1.8879    0.7572 C   0  0  0  0  0  0  0  0  0  0  0  0
   -3.9038   -1.2132    1.3117 H   0  0  0  0  0  0  0  0  0  0  0  0
   -3.5786   -1.9361   -0.2830 H   0  0  0  0  0  0  0  0  0  0  0  0
   -1.8157   -1.3897    0.8217 C   0  0  0  0  0  0  0  0  0  0  0  0
   -0.9309   -2.1399    1.2035 O   0  0  0  0  0  0  0  0  0  0  0  0
   -1.5182   -0.1161    0.3741 N   0  0  0  0  0  0  0  0  0  0  0  0
   -2.2931    0.4158   -0.0123 H   0  0  0  0  0  0  0  0  0  0  0  0
   -0.2028    0.5535    0.4525 C   0  0  1  0  0  0  0  0  0  0  0  0
   -0.3569    1.5993    0.1655 H   0  0  0  0  0  0  0  0  0  0  0  0
    0.4129    0.5748    1.8698 C   0  0  0  0  0  0  0  0  0  0  0  0
    0.5001   -0.4369    2.2759 H   0  0  0  0  0  0  0  0  0  0  0  0
    1.4291    0.9809    1.8079 H   0  0  0  0  0  0  0  0  0  0  0  0
   -0.4150    1.4582    2.8248 C   0  0  0  0  0  0  0  0  0  0  0  0
   -0.4463    2.4801    2.4372 H   0  0  0  0  0  0  0  0  0  0  0  0
   -1.4412    1.0849    2.8694 H   0  0  0  0  0  0  0  0  0  0  0  0
    0.1244    1.5076    4.2549 C   0  0  0  0  0  0  0  0  0  0  0  0
    1.0489    0.7850    4.5882 O   0  0  0  0  0  0  0  0  0  0  0  0
   -0.4805    2.3761    5.0971 O   0  0  0  0  0  0  0  0  0  0  0  0
   -0.0242    2.2788    5.9470 H   0  0  0  0  0  0  0  0  0  0  0  0
    0.7805   -0.0103   -0.5943 C   0  0  0  0  0  0  0  0  0  0  0  0
    1.0582    0.6504   -1.5865 O   0  0  0  0  0  0  0  0  0  0  0  0
    1.3596   -1.2494   -0.4049 N   0  0  0  0  0  0  0  0  0  0  0  0
    0.9226   -1.8270    0.3178 H   0  0  0  0  0  0  0  0  0  0  0  0
    2.2058   -1.8931   -1.4004 C   0  0  0  0  0  0  0  0  0  0  0  0
    3.0557   -1.2509   -1.6548 H   0  0  0  0  0  0  0  0  0  0  0  0
    2.5947   -2.8385   -1.0098 H   0  0  0  0  0  0  0  0  0  0  0  0
    1.6357   -2.1002   -2.3120 H   0  0  0  0  0  0  0  0  0  0  0  0
  1  2  1  0  0  0  0
  2  3  1  0  0  0  0
  2  4  1  0  0  0  0
  2  5  1  0  0  0  0
  5  6  2  0  0  0  0
  5  7  1  0  0  0  0
  7  8  1  0  0  0  0
  7  9  1  0  0  0  0
  9 10  1  0  0  0  0
  9 11  1  0  0  0  0
  9 21  1  0  0  0  0
 11 12  1  0  0  0  0
 11 13  1  0  0  0  0
 11 14  1  0  0  0  0
 14 15  1  0  0  0  0
 14 16  1  0  0  0  0
 14 17  1  0  0  0  0
 17 18  2  0  0  0  0
 17 19  1  0  0  0  0
 19 20  1  0  0  0  0
 21 22  2  0  0  0  0
 21 23  1  0  0  0  0
 23 24  1  0  0  0  0
 23 25  1  0  0  0  0
 25 26  1  0  0  0  0
 25 27  1  0  0  0  0
 25 28  1  0  0  0  0
M  END
$$$$

  -OEChem-01062216073D

 28 27  0     1  0  0  0  0  0999 V2000
   -3.3968   -2.8495    1.2541 H   0  0  0  0  0  0  0  0  0  0  0  0
   -3.3113   -1.8517    0.8141 C   0  0  0  0  0  0  0  0  0  0  0  0
   -3.9294   -1.1599    1.3916 H   0  0  0  0  0  0  0  0  0  0  0  0
   -3.6792   -1.8876   -0.2143 H   0  0  0  0  0  0  0  0  0  0  0  0
   -1.8652   -1.3945    0.8315 C   0  0  0  0  0  0  0  0  0  0  0  0
   -0.9928   -2.1673    1.1945 O   0  0  0  0  0  0  0  0  0  0  0  0
   -1.5482   -0.1316    0.3666 N   0  0  0  0  0  0  0  0  0  0  0  0
   -2.3290    0.4205    0.0226 H   0  0  0  0  0  0  0  0  0  0  0  0
   -0.2269    0.5328    0.4251 C   0  0  1  0  0  0  0  0  0  0  0  0
   -0.3804    1.5779    0.1354 H   0  0  0  0  0  0  0  0  0  0  0  0
    0.3969    0.5499    1.8373 C   0  0  0  0  0  0  0  0  0  0  0  0
    0.4826   -0.4643    2.2387 H   0  0  0  0  0  0  0  0  0  0  0  0
    1.4147    0.9510    1.7689 H   0  0  0  0  0  0  0  0  0  0  0  0
   -0.4173    1.4376    2.8003 C   0  0  0  0  0  0  0  0  0  0  0  0
   -0.4451    2.4605    2.4149 H   0  0  0  0  0  0  0  0  0  0  0  0
   -1.4455    1.0711    2.8533 H   0  0  0  0  0  0  0  0  0  0  0  0
    0.1351    1.4799    4.2257 C   0  0  0  0  0  0  0  0  0  0  0  0
    1.0571    0.7501    4.5499 O   0  0  0  0  0  0  0  0  0  0  0  0
   -0.4551    2.3521    5.0744 O   0  0  0  0  0  0  0  0  0  0  0  0
    0.0102    2.2516    5.9191 H   0  0  0  0  0  0  0  0  0  0  0  0
    0.7691   -0.0324   -0.6107 C   0  0  0  0  0  0  0  0  0  0  0  0
    1.2498    0.7094   -1.4572 O   0  0  0  0  0  0  0  0  0  0  0  0
    1.1270   -1.3655   -0.5872 N   0  0  0  0  0  0  0  0  0  0  0  0
    0.6267   -1.9538    0.0849 H   0  0  0  0  0  0  0  0  0  0  0  0
    2.0090   -1.9869   -1.5652 C   0  0  0  0  0  0  0  0  0  0  0  0
    2.9787   -1.4786   -1.5843 H   0  0  0  0  0  0  0  0  0  0  0  0
    2.1757   -3.0375   -1.3090 H   0  0  0  0  0  0  0  0  0  0  0  0
    1.5656   -1.9385   -2.5651 H   0  0  0  0  0  0  0  0  0  0  0  0
  1  2  1  0  0  0  0
  2  3  1  0  0  0  0
  2  4  1  0  0  0  0
  2  5  1  0  0  0  0
  5  6  2  0  0  0  0
  5  7  1  0  0  0  0
  7  8  1  0  0  0  0
  7  9  1  0  0  0  0
  9 10  1  0  0  0  0
  9 11  1  0  0  0  0
  9 21  1  0  0  0  0
 11 12  1  0  0  0  0
 11 13  1  0  0  0  0
 11 14  1  0  0  0  0
 14 15  1  0  0  0  0
 14 16  1  0  0  0  0
 14 17  1  0  0  0  0
 17 18  2  0  0  0  0
 17 19  1  0  0  0  0
 19 20  1  0  0  0  0
 21 22  2  0  0  0  0
 21 23  1  0  0  0  0
 23 24  1  0  0  0  0
 23 25  1  0  0  0  0
 25 26  1  0  0  0  0
 25 27  1  0  0  0  0
 25 28  1  0  0  0  0
M  END
$$$$

  -OEChem-01062216073D

 28 27  0     1  0  0  0  0  0999 V2000
   -3.4620   -2.8344    1.2969 H   0  0  0  0  0  0  0  0  0  0  0  0
   -3.3798   -1.8237    0.8869 C   0  0  0  0  0  0  0  0  0  0  0  0
   -3.9485   -1.1406    1.5225 H   0  0  0  0  0  0  0  0  0  0  0  0
   -3.8066   -1.8166   -0.1190 H   0  0  0  0  0  0  0  0  0  0  0  0
   -1.9253   -1.3963    0.8366 C   0  0  0  0  0  0  0  0  0  0  0  0
   -1.0524   -2.1911    1.1461 O   0  0  0  0  0  0  0  0  0  0  0  0
   -1.6040   -0.1384    0.3617 N   0  0  0  0  0  0  0  0  0  0  0  0
   -2.3923    0.4345    0.0736 H   0  0  0  0  0  0  0  0  0  0  0  0
   -0.2748    0.5155    0.3881 C   0  0  1  0  0  0  0  0  0  0  0  0
   -0.4292    1.5615    0.1031 H   0  0  0  0  0  0  0  0  0  0  0  0
    0.3733    0.5238    1.7889 C   0  0  0  0  0  0  0  0  0  0  0  0
    0.4545   -0.4930    2.1846 H   0  0  0  0  0  0  0  0  0  0  0  0
    1.3942    0.9141    1.7043 H   0  0  0  0  0  0  0  0  0  0  0  0
   -0.4143    1.4175    2.7686 C   0  0  0  0  0  0  0  0  0  0  0  0
   -0.4363    2.4417    2.3860 H   0  0  0  0  0  0  0  0  0  0  0  0
   -1.4459    1.0636    2.8391 H   0  0  0  0  0  0  0  0  0  0  0  0
    0.1643    1.4506    4.1839 C   0  0  0  0  0  0  0  0  0  0  0  0
    1.0845    0.7109    4.4900 O   0  0  0  0  0  0  0  0  0  0  0  0
   -0.4025    2.3259    5.0451 O   0  0  0  0  0  0  0  0  0  0  0  0
    0.0780    2.2195    5.8805 H   0  0  0  0  0  0  0  0  0  0  0  0
    0.7145   -0.0428   -0.6597 C   0  0  0  0  0  0  0  0  0  0  0  0
    1.3929    0.7339   -1.3186 O   0  0  0  0  0  0  0  0  0  0  0  0
    0.8553   -1.4022   -0.8548 N   0  0  0  0  0  0  0  0  0  0  0  0
    0.3386   -2.0033   -0.2073 H   0  0  0  0  0  0  0  0  0  0  0  0
    1.8454   -1.9946   -1.7435 C   0  0  0  0  0  0  0  0  0  0  0  0
    2.8574   -1.7352   -1.4156 H   0  0  0  0  0  0  0  0  0  0  0  0
    1.7489   -3.0845   -1.7430 H   0  0  0  0  0  0  0  0  0  0  0  0
    1.7038   -1.6362   -2.7685 H   0  0  0  0  0  0  0  0  0  0  0  0
  1  2  1  0  0  0  0
  2  3  1  0  0  0  0
  2  4  1  0  0  0  0
  2  5  1  0  0  0  0
  5  6  2  0  0  0  0
  5  7  1  0  0  0  0
  7  8  1  0  0  0  0
  7  9  1  0  0  0  0
  9 10  1  0  0  0  0
  9 11  1  0  0  0  0
  9 21  1  0  0  0  0
 11 12  1  0  0  0  0
 11 13  1  0  0  0  0
 11 14  1  0  0  0  0
 14 15  1  0  0  0  0
 14 16  1  0  0  0  0
 14 17  1  0  0  0  0
 17 18  2  0  0  0  0
 17 19  1  0  0  0  0
 19 20  1  0  0  0  0
 21 22  2  0  0  0  0
 21 23  1  0  0  0  0
 23 24  1  0  0  0  0
 23 25  1  0  0  0  0
 25 26  1  0  0  0  0
 25 27  1  0  0  0  0
 25 28  1  0  0  0  0
M  END
$$$$

  -OEChem-01062216073D

 28 27  0     1  0  0  0  0  0999 V2000
   -3.4690   -2.7984    1.3850 H   0  0  0  0  0  0  0  0  0  0  0  0
   -3.3937   -1.7936    0.9592 C   0  0  0  0  0  0  0  0  0  0  0  0
   -3.9158   -1.0946    1.6171 H   0  0  0  0  0  0  0  0  0  0  0  0
   -3.8752   -1.7896   -0.0217 H   0  0  0  0  0  0  0  0  0  0  0  0
   -1.9376   -1.3911    0.8241 C   0  0  0  0  0  0  0  0  0  0  0  0
   -1.0611   -2.2072    1.0554 O   0  0  0  0  0  0  0  0  0  0  0  0
   -1.6201   -0.1342    0.3452 N   0  0  0  0  0  0  0  0  0  0  0  0
   -2.4148    0.4597    0.1255 H   0  0  0  0  0  0  0  0  0  0  0  0
   -0.2874    0.5153    0.3624 C   0  0  1  0  0  0  0  0  0  0  0  0
   -0.4384    1.5625    0.0806 H   0  0  0  0  0  0  0  0  0  0  0  0
    0.3598    0.5109    1.7643 C   0  0  0  0  0  0  0  0  0  0  0  0
    0.4345   -0.5097    2.1522 H   0  0  0  0  0  0  0  0  0  0  0  0
    1.3832    0.8961    1.6845 H   0  0  0  0  0  0  0  0  0  0  0  0
   -0.4240    1.4028    2.7489 C   0  0  0  0  0  0  0  0  0  0  0  0
   -0.4396    2.4291    2.3721 H   0  0  0  0  0  0  0  0  0  0  0  0
   -1.4575    1.0541    2.8163 H   0  0  0  0  0  0  0  0  0  0  0  0
    0.1520    1.4246    4.1654 C   0  0  0  0  0  0  0  0  0  0  0  0
    1.0676    0.6786    4.4693 O   0  0  0  0  0  0  0  0  0  0  0  0
   -0.4145    2.2955    5.0312 O   0  0  0  0  0  0  0  0  0  0  0  0
    0.0633    2.1818    5.8673 H   0  0  0  0  0  0  0  0  0  0  0  0
    0.7050   -0.0376   -0.6870 C   0  0  0  0  0  0  0  0  0  0  0  0
    1.5406    0.7146   -1.1707 O   0  0  0  0  0  0  0  0  0  0  0  0
    0.6475   -1.3507   -1.1113 N   0  0  0  0  0  0  0  0  0  0  0  0
    0.0755   -1.9673   -0.5294 H   0  0  0  0  0  0  0  0  0  0  0  0
    1.6425   -1.9461   -1.9932 C   0  0  0  0  0  0  0  0  0  0  0  0
    2.6308   -1.9283   -1.5223 H   0  0  0  0  0  0  0  0  0  0  0  0
    1.3795   -2.9856   -2.2112 H   0  0  0  0  0  0  0  0  0  0  0  0
    1.6933   -1.3982   -2.9399 H   0  0  0  0  0  0  0  0  0  0  0  0
  1  2  1  0  0  0  0
  2  3  1  0  0  0  0
  2  4  1  0  0  0  0
  2  5  1  0  0  0  0
  5  6  2  0  0  0  0
  5  7  1  0  0  0  0
  7  8  1  0  0  0  0
  7  9  1  0  0  0  0
  9 10  1  0  0  0  0
  9 11  1  0  0  0  0
  9 21  1  0  0  0  0
 11 12  1  0  0  0  0
 11 13  1  0  0  0  0
 11 14  1  0  0  0  0
 14 15  1  0  0  0  0
 14 16  1  0  0  0  0
 14 17  1  0  0  0  0
 17 18  2  0  0  0  0
 17 19  1  0  0  0  0
 19 20  1  0  0  0  0
 21 22  2  0  0  0  0
 21 23  1  0  0  0  0
 23 24  1  0  0  0  0
 23 25  1  0  0  0  0
 25 26  1  0  0  0  0
 25 27  1  0  0  0  0
 25 28  1  0  0  0  0
M  END
$$$$

  -OEChem-01062216073D

 28 27  0     1  0  0  0  0  0999 V2000
   -3.4394   -2.7941    1.4096 H   0  0  0  0  0  0  0  0  0  0  0  0
   -3.3763   -1.7727    1.0235 C   0  0  0  0  0  0  0  0  0  0  0  0
   -3.8392   -1.0963    1.7462 H   0  0  0  0  0  0  0  0  0  0  0  0
   -3.9247   -1.7191    0.0798 H   0  0  0  0  0  0  0  0  0  0  0  0
   -1.9263   -1.3854    0.8045 C   0  0  0  0  0  0  0  0  0  0  0  0
   -1.0463   -2.2161    0.9518 O   0  0  0  0  0  0  0  0  0  0  0  0
   -1.6193   -0.1278    0.3228 N   0  0  0  0  0  0  0  0  0  0  0  0
   -2.4180    0.4829    0.1766 H   0  0  0  0  0  0  0  0  0  0  0  0
   -0.2856    0.5207    0.3425 C   0  0  1  0  0  0  0  0  0  0  0  0
   -0.4316    1.5684    0.0606 H   0  0  0  0  0  0  0  0  0  0  0  0
    0.3487    0.5080    1.7511 C   0  0  0  0  0  0  0  0  0  0  0  0
    0.4167   -0.5156    2.1331 H   0  0  0  0  0  0  0  0  0  0  0  0
    1.3741    0.8900    1.6844 H   0  0  0  0  0  0  0  0  0  0  0  0
   -0.4401    1.3970    2.7350 C   0  0  0  0  0  0  0  0  0  0  0  0
   -0.4495    2.4257    2.3643 H   0  0  0  0  0  0  0  0  0  0  0  0
   -1.4752    1.0519    2.7932 H   0  0  0  0  0  0  0  0  0  0  0  0
    0.1254    1.4083    4.1560 C   0  0  0  0  0  0  0  0  0  0  0  0
    1.0361    0.6573    4.4623 O   0  0  0  0  0  0  0  0  0  0  0  0
   -0.4476    2.2728    5.0241 O   0  0  0  0  0  0  0  0  0  0  0  0
    0.0232    2.1510    5.8630 H   0  0  0  0  0  0  0  0  0  0  0  0
    0.7118   -0.0316   -0.7040 C   0  0  0  0  0  0  0  0  0  0  0  0
    1.6765    0.6503   -1.0250 O   0  0  0  0  0  0  0  0  0  0  0  0
    0.4822   -1.2294   -1.3527 N   0  0  0  0  0  0  0  0  0  0  0  0
   -0.1657   -1.8497   -0.8645 H   0  0  0  0  0  0  0  0  0  0  0  0
    1.4486   -1.8259   -2.2656 C   0  0  0  0  0  0  0  0  0  0  0  0
    2.3768   -2.0668   -1.7367 H   0  0  0  0  0  0  0  0  0  0  0  0
    1.0427   -2.7467   -2.6951 H   0  0  0  0  0  0  0  0  0  0  0  0
    1.6789   -1.1373   -3.0854 H   0  0  0  0  0  0  0  0  0  0  0  0
  1  2  1  0  0  0  0
  2  3  1  0  0  0  0
  2  4  1  0  0  0  0
  2  5  1  0  0  0  0
  5  6  2  0  0  0  0
  5  7  1  0  0  0  0
  7  8  1  0  0  0  0
  7  9  1  0  0  0  0
  9 10  1  0  0  0  0
  9 11  1  0  0  0  0
  9 21  1  0  0  0  0
 11 12  1  0  0  0  0
 11 13  1  0  0  0  0
 11 14  1  0  0  0  0
 14 15  1  0  0  0  0
 14 16  1  0  0  0  0
 14 17  1  0  0  0  0
 17 18  2  0  0  0  0
 17 19  1  0  0  0  0
 19 20  1  0  0  0  0
 21 22  2  0  0  0  0
 21 23  1  0  0  0  0
 23 24  1  0  0  0  0
 23 25  1  0  0  0  0
 25 26  1  0  0  0  0
 25 27  1  0  0  0  0
 25 28  1  0  0  0  0
M  END
$$$$

  -OEChem-01062216073D

 28 27  0     1  0  0  0  0  0999 V2000
   -3.3917   -2.7970    1.4315 H   0  0  0  0  0  0  0  0  0  0  0  0
   -3.3437   -1.7710    1.0557 C   0  0  0  0  0  0  0  0  0  0  0  0
   -3.7766   -1.1035    1.8046 H   0  0  0  0  0  0  0  0  0  0  0  0
   -3.9294   -1.7052    0.1355 H   0  0  0  0  0  0  0  0  0  0  0  0
   -1.9031   -1.3819    0.7844 C   0  0  0  0  0  0  0  0  0  0  0  0
   -1.0202   -2.2169    0.8712 O   0  0  0  0  0  0  0  0  0  0  0  0
   -1.6104   -0.1189    0.3087 N   0  0  0  0  0  0  0  0  0  0  0  0
   -2.4105    0.5010    0.2203 H   0  0  0  0  0  0  0  0  0  0  0  0
   -0.2757    0.5273    0.3357 C   0  0  1  0  0  0  0  0  0  0  0  0
   -0.4165    1.5762    0.0571 H   0  0  0  0  0  0  0  0  0  0  0  0
    0.3468    0.5058    1.7516 C   0  0  0  0  0  0  0  0  0  0  0  0
    0.4085   -0.5203    2.1284 H   0  0  0  0  0  0  0  0  0  0  0  0
    1.3740    0.8851    1.6995 H   0  0  0  0  0  0  0  0  0  0  0  0
   -0.4489    1.3927    2.7321 C   0  0  0  0  0  0  0  0  0  0  0  0
   -0.4505    2.4230    2.3659 H   0  0  0  0  0  0  0  0  0  0  0  0
   -1.4856    1.0513    2.7789 H   0  0  0  0  0  0  0  0  0  0  0  0
    0.1017    1.3972    4.1589 C   0  0  0  0  0  0  0  0  0  0  0  0
    1.0071    0.6431    4.4724 O   0  0  0  0  0  0  0  0  0  0  0  0
   -0.4761    2.2630    5.0225 O   0  0  0  0  0  0  0  0  0  0  0  0
   -0.0120    2.1400    5.8650 H   0  0  0  0  0  0  0  0  0  0  0  0
    0.7184   -0.0235   -0.7161 C   0  0  0  0  0  0  0  0  0  0  0  0
    1.7936    0.5388   -0.8797 O   0  0  0  0  0  0  0  0  0  0  0  0
    0.3492   -1.0347   -1.5825 N   0  0  0  0  0  0  0  0  0  0  0  0
   -0.4122   -1.6156   -1.2356 H   0  0  0  0  0  0  0  0  0  0  0  0
    1.2845   -1.6303   -2.5284 C   0  0  0  0  0  0  0  0  0  0  0  0
    2.1220   -2.0947   -1.9971 H   0  0  0  0  0  0  0  0  0  0  0  0
    0.7813   -2.3979   -3.1239 H   0  0  0  0  0  0  0  0  0  0  0  0
    1.6781   -0.8697   -3.2110 H   0  0  0  0  0  0  0  0  0  0  0  0
  1  2  1  0  0  0  0
  2  3  1  0  0  0  0
  2  4  1  0  0  0  0
  2  5  1  0  0  0  0
  5  6  2  0  0  0  0
  5  7  1  0  0  0  0
  7  8  1  0  0  0  0
  7  9  1  0  0  0  0
  9 10  1  0  0  0  0
  9 11  1  0  0  0  0
  9 21  1  0  0  0  0
 11 12  1  0  0  0  0
 11 13  1  0  0  0  0
 11 14  1  0  0  0  0
 14 15  1  0  0  0  0
 14 16  1  0  0  0  0
 14 17  1  0  0  0  0
 17 18  2  0  0  0  0
 17 19  1  0  0  0  0
 19 20  1  0  0  0  0
 21 22  2  0  0  0  0
 21 23  1  0  0  0  0
 23 24  1  0  0  0  0
 23 25  1  0  0  0  0
 25 26  1  0  0  0  0
 25 27  1  0  0  0  0
 25 28  1  0  0  0  0
M  END
$$$$

  -OEChem-01062216073D

 28 27  0     1  0  0  0  0  0999 V2000
   -3.3444   -2.8092    1.4358 H   0  0  0  0  0  0  0  0  0  0  0  0
   -3.3059   -1.7868    1.0490 C   0  0  0  0  0  0  0  0  0  0  0  0
   -3.7450   -1.1156    1.7911 H   0  0  0  0  0  0  0  0  0  0  0  0
   -3.8921   -1.7360    0.1283 H   0  0  0  0  0  0  0  0  0  0  0  0
   -1.8688   -1.3872    0.7736 C   0  0  0  0  0  0  0  0  0  0  0  0
   -0.9796   -2.2134    0.8697 O   0  0  0  0  0  0  0  0  0  0  0  0
   -1.5879   -0.1175    0.3066 N   0  0  0  0  0  0  0  0  0  0  0  0
   -2.3912    0.5015    0.2435 H   0  0  0  0  0  0  0  0  0  0  0  0
   -0.2547    0.5316    0.3409 C   0  0  1  0  0  0  0  0  0  0  0  0
   -0.3945    1.5811    0.0641 H   0  0  0  0  0  0  0  0  0  0  0  0
    0.3574    0.5093    1.7632 C   0  0  0  0  0  0  0  0  0  0  0  0
    0.4197   -0.5166    2.1395 H   0  0  0  0  0  0  0  0  0  0  0  0
    1.3836    0.8925    1.7231 H   0  0  0  0  0  0  0  0  0  0  0  0
   -0.4493    1.3938    2.7366 C   0  0  0  0  0  0  0  0  0  0  0  0
   -0.4503    2.4241    2.3707 H   0  0  0  0  0  0  0  0  0  0  0  0
   -1.4853    1.0490    2.7739 H   0  0  0  0  0  0  0  0  0  0  0  0
    0.0873    1.3996    4.1685 C   0  0  0  0  0  0  0  0  0  0  0  0
    0.9913    0.6483    4.4917 O   0  0  0  0  0  0  0  0  0  0  0  0
   -0.5044    2.2612    5.0269 O   0  0  0  0  0  0  0  0  0  0  0  0
   -0.0504    2.1371    5.8747 H   0  0  0  0  0  0  0  0  0  0  0  0
    0.7301   -0.0188   -0.7215 C   0  0  0  0  0  0  0  0  0  0  0  0
    1.8919    0.3669   -0.7404 O   0  0  0  0  0  0  0  0  0  0  0  0
    0.2666   -0.7860   -1.7739 N   0  0  0  0  0  0  0  0  0  0  0  0
   -0.6279   -1.2368   -1.6044 H   0  0  0  0  0  0  0  0  0  0  0  0
    1.1578   -1.3767   -2.7648 C   0  0  0  0  0  0  0  0  0  0  0  0
    1.8602   -2.0661   -2.2846 H   0  0  0  0  0  0  0  0  0  0  0  0
    0.5797   -1.9317   -3.5096 H   0  0  0  0  0  0  0  0  0  0  0  0
    1.7272   -0.5980   -3.2833 H   0  0  0  0  0  0  0  0  0  0  0  0
  1  2  1  0  0  0  0
  2  3  1  0  0  0  0
  2  4  1  0  0  0  0
  2  5  1  0  0  0  0
  5  6  2  0  0  0  0
  5  7  1  0  0  0  0
  7  8  1  0  0  0  0
  7  9  1  0  0  0  0
  9 10  1  0  0  0  0
  9 11  1  0  0  0  0
  9 21  1  0  0  0  0
 11 12  1  0  0  0  0
 11 13  1  0  0  0  0
 11 14  1  0  0  0  0
 14 15  1  0  0  0  0
 14 16  1  0  0  0  0
 14 17  1  0  0  0  0
 17 18  2  0  0  0  0
 17 19  1  0  0  0  0
 19 20  1  0  0  0  0
 21 22  2  0  0  0  0
 21 23  1  0  0  0  0
 23 24  1  0  0  0  0
 23 25  1  0  0  0  0
 25 26  1  0  0  0  0
 25 27  1  0  0  0  0
 25 28  1  0  0  0  0
M  END
$$$$

  -OEChem-01062216073D

 28 27  0     1  0  0  0  0  0999 V2000
   -3.3102   -2.8370    1.3883 H   0  0  0  0  0  0  0  0  0  0  0  0
   -3.2748   -1.8088    1.0166 C   0  0  0  0  0  0  0  0  0  0  0  0
   -3.7261   -1.1513    1.7636 H   0  0  0  0  0  0  0  0  0  0  0  0
   -3.8517   -1.7498    0.0907 H   0  0  0  0  0  0  0  0  0  0  0  0
   -1.8376   -1.3961    0.7624 C   0  0  0  0  0  0  0  0  0  0  0  0
   -0.9437   -2.2126    0.8879 O   0  0  0  0  0  0  0  0  0  0  0  0
   -1.5636   -0.1207    0.3051 N   0  0  0  0  0  0  0  0  0  0  0  0
   -2.3696    0.4956    0.2528 H   0  0  0  0  0  0  0  0  0  0  0  0
   -0.2328    0.5311    0.3497 C   0  0  1  0  0  0  0  0  0  0  0  0
   -0.3709    1.5806    0.0734 H   0  0  0  0  0  0  0  0  0  0  0  0
    0.3695    0.5135    1.7772 C   0  0  0  0  0  0  0  0  0  0  0  0
    0.4330   -0.5114    2.1561 H   0  0  0  0  0  0  0  0  0  0  0  0
    1.3940    0.9012    1.7446 H   0  0  0  0  0  0  0  0  0  0  0  0
   -0.4469    1.3982    2.7427 C   0  0  0  0  0  0  0  0  0  0  0  0
   -0.4478    2.4277    2.3748 H   0  0  0  0  0  0  0  0  0  0  0  0
   -1.4823    1.0510    2.7727 H   0  0  0  0  0  0  0  0  0  0  0  0
    0.0785    1.4092    4.1791 C   0  0  0  0  0  0  0  0  0  0  0  0
    0.9819    0.6615    4.5119 O   0  0  0  0  0  0  0  0  0  0  0  0
   -0.5215    2.2726    5.0301 O   0  0  0  0  0  0  0  0  0  0  0  0
   -0.0739    2.1514    5.8818 H   0  0  0  0  0  0  0  0  0  0  0  0
    0.7418   -0.0225   -0.7213 C   0  0  0  0  0  0  0  0  0  0  0  0
    1.9506    0.1414   -0.6174 O   0  0  0  0  0  0  0  0  0  0  0  0
    0.2416   -0.5053   -1.9167 N   0  0  0  0  0  0  0  0  0  0  0  0
   -0.7392   -0.7658   -1.9004 H   0  0  0  0  0  0  0  0  0  0  0  0
    1.0955   -1.0805   -2.9489 C   0  0  0  0  0  0  0  0  0  0  0  0
    1.6300   -1.9535   -2.5598 H   0  0  0  0  0  0  0  0  0  0  0  0
    0.4933   -1.3949   -3.8066 H   0  0  0  0  0  0  0  0  0  0  0  0
    1.8289   -0.3444   -3.2948 H   0  0  0  0  0  0  0  0  0  0  0  0
  1  2  1  0  0  0  0
  2  3  1  0  0  0  0
  2  4  1  0  0  0  0
  2  5  1  0  0  0  0
  5  6  2  0  0  0  0
  5  7  1  0  0  0  0
  7  8  1  0  0  0  0
  7  9  1  0  0  0  0
  9 10  1  0  0  0  0
  9 11  1  0  0  0  0
  9 21  1  0  0  0  0
 11 12  1  0  0  0  0
 11 13  1  0  0  0  0
 11 14  1  0  0  0  0
 14 15  1  0  0  0  0
 14 16  1  0  0  0  0
 14 17  1  0  0  0  0
 17 18  2  0  0  0  0
 17 19  1  0  0  0  0
 19 20  1  0  0  0  0
 21 22  2  0  0  0  0
 21 23  1  0  0  0  0
 23 24  1  0  0  0  0
 23 25  1  0  0  0  0
 25 26  1  0  0  0  0
 25 27  1  0  0  0  0
 25 28  1  0  0  0  0
M  END
$$$$

  -OEChem-01062216073D

 28 27  0     1  0  0  0  0  0999 V2000
   -3.3022   -2.8338    1.3988 H   0  0  0  0  0  0  0  0  0  0  0  0
   -3.2644   -1.8227    0.9829 C   0  0  0  0  0  0  0  0  0  0  0  0
   -3.7504   -1.1386    1.6827 H   0  0  0  0  0  0  0  0  0  0  0  0
   -3.8069   -1.8116    0.0346 H   0  0  0  0  0  0  0  0  0  0  0  0
   -1.8230   -1.4046    0.7624 C   0  0  0  0  0  0  0  0  0  0  0  0
   -0.9298   -2.2153    0.9227 O   0  0  0  0  0  0  0  0  0  0  0  0
   -1.5482   -0.1280    0.3080 N   0  0  0  0  0  0  0  0  0  0  0  0
   -2.3569    0.4835    0.2455 H   0  0  0  0  0  0  0  0  0  0  0  0
   -0.2201    0.5269    0.3569 C   0  0  1  0  0  0  0  0  0  0  0  0
   -0.3584    1.5762    0.0803 H   0  0  0  0  0  0  0  0  0  0  0  0
    0.3808    0.5146    1.7854 C   0  0  0  0  0  0  0  0  0  0  0  0
    0.4484   -0.5090    2.1672 H   0  0  0  0  0  0  0  0  0  0  0  0
    1.4039    0.9058    1.7523 H   0  0  0  0  0  0  0  0  0  0  0  0
   -0.4407    1.3992    2.7467 C   0  0  0  0  0  0  0  0  0  0  0  0
   -0.4463    2.4273    2.3750 H   0  0  0  0  0  0  0  0  0  0  0  0
   -1.4743    1.0462    2.7764 H   0  0  0  0  0  0  0  0  0  0  0  0
    0.0815    1.4169    4.1840 C   0  0  0  0  0  0  0  0  0  0  0  0
    0.9870    0.6742    4.5223 O   0  0  0  0  0  0  0  0  0  0  0  0
   -0.5250    2.2802    5.0304 O   0  0  0  0  0  0  0  0  0  0  0  0
   -0.0811    2.1611    5.8843 H   0  0  0  0  0  0  0  0  0  0  0  0
    0.7471   -0.0335   -0.7175 C   0  0  0  0  0  0  0  0  0  0  0  0
    1.9526   -0.1083   -0.5184 O   0  0  0  0  0  0  0  0  0  0  0  0
    0.2838   -0.2213   -2.0074 N   0  0  0  0  0  0  0  0  0  0  0  0
   -0.7241   -0.2741   -2.1109 H   0  0  0  0  0  0  0  0  0  0  0  0
    1.1233   -0.7513   -3.0757 C   0  0  0  0  0  0  0  0  0  0  0  0
    1.4844   -1.7523   -2.8170 H   0  0  0  0  0  0  0  0  0  0  0  0
    0.5546   -0.8167   -4.0081 H   0  0  0  0  0  0  0  0  0  0  0  0
    1.9868   -0.0992   -3.2446 H   0  0  0  0  0  0  0  0  0  0  0  0
  1  2  1  0  0  0  0
  2  3  1  0  0  0  0
  2  4  1  0  0  0  0
  2  5  1  0  0  0  0
  5  6  2  0  0  0  0
  5  7  1  0  0  0  0
  7  8  1  0  0  0  0
  7  9  1  0  0  0  0
  9 10  1  0  0  0  0
  9 11  1  0  0  0  0
  9 21  1  0  0  0  0
 11 12  1  0  0  0  0
 11 13  1  0  0  0  0
 11 14  1  0  0  0  0
 14 15  1  0  0  0  0
 14 16  1  0  0  0  0
 14 17  1  0  0  0  0
 17 18  2  0  0  0  0
 17 19  1  0  0  0  0
 19 20  1  0  0  0  0
 21 22  2  0  0  0  0
 21 23  1  0  0  0  0
 23 24  1  0  0  0  0
 23 25  1  0  0  0  0
 25 26  1  0  0  0  0
 25 27  1  0  0  0  0
 25 28  1  0  0  0  0
M  END
$$$$

  -OEChem-01062216073D

 28 27  0     1  0  0  0  0  0999 V2000
   -3.3178   -2.8486    1.3733 H   0  0  0  0  0  0  0  0  0  0  0  0
   -3.2729   -1.8385    0.9557 C   0  0  0  0  0  0  0  0  0  0  0  0
   -3.7775   -1.1537    1.6414 H   0  0  0  0  0  0  0  0  0  0  0  0
   -3.7916   -1.8321   -0.0059 H   0  0  0  0  0  0  0  0  0  0  0  0
   -1.8279   -1.4165    0.7690 C   0  0  0  0  0  0  0  0  0  0  0  0
   -0.9385   -2.2214    0.9714 O   0  0  0  0  0  0  0  0  0  0  0  0
   -1.5487   -0.1408    0.3136 N   0  0  0  0  0  0  0  0  0  0  0  0
   -2.3591    0.4638    0.2204 H   0  0  0  0  0  0  0  0  0  0  0  0
   -0.2227    0.5164    0.3600 C   0  0  1  0  0  0  0  0  0  0  0  0
   -0.3637    1.5653    0.0831 H   0  0  0  0  0  0  0  0  0  0  0  0
    0.3831    0.5137    1.7860 C   0  0  0  0  0  0  0  0  0  0  0  0
    0.4545   -0.5079    2.1728 H   0  0  0  0  0  0  0  0  0  0  0  0
    1.4056    0.9059    1.7437 H   0  0  0  0  0  0  0  0  0  0  0  0
   -0.4350    1.4007    2.7480 C   0  0  0  0  0  0  0  0  0  0  0  0
   -0.4445    2.4273    2.3726 H   0  0  0  0  0  0  0  0  0  0  0  0
   -1.4675    1.0456    2.7845 H   0  0  0  0  0  0  0  0  0  0  0  0
    0.0951    1.4257    4.1824 C   0  0  0  0  0  0  0  0  0  0  0  0
    1.0039    0.6866    4.5192 O   0  0  0  0  0  0  0  0  0  0  0  0
   -0.5042    2.2961    5.0266 O   0  0  0  0  0  0  0  0  0  0  0  0
   -0.0536    2.1828    5.8778 H   0  0  0  0  0  0  0  0  0  0  0  0
    0.7424   -0.0462   -0.7154 C   0  0  0  0  0  0  0  0  0  0  0  0
    1.8931   -0.3670   -0.4484 O   0  0  0  0  0  0  0  0  0  0  0  0
    0.3889    0.0538   -2.0496 N   0  0  0  0  0  0  0  0  0  0  0  0
   -0.5896    0.2344   -2.2463 H   0  0  0  0  0  0  0  0  0  0  0  0
    1.2462   -0.4173   -3.1318 C   0  0  0  0  0  0  0  0  0  0  0  0
    1.4328   -1.4920   -3.0323 H   0  0  0  0  0  0  0  0  0  0  0  0
    0.7698   -0.2354   -4.0999 H   0  0  0  0  0  0  0  0  0  0  0  0
    2.2066    0.1090   -3.1176 H   0  0  0  0  0  0  0  0  0  0  0  0
  1  2  1  0  0  0  0
  2  3  1  0  0  0  0
  2  4  1  0  0  0  0
  2  5  1  0  0  0  0
  5  6  2  0  0  0  0
  5  7  1  0  0  0  0
  7  8  1  0  0  0  0
  7  9  1  0  0  0  0
  9 10  1  0  0  0  0
  9 11  1  0  0  0  0
  9 21  1  0  0  0  0
 11 12  1  0  0  0  0
 11 13  1  0  0  0  0
 11 14  1  0  0  0  0
 14 15  1  0  0  0  0
 14 16  1  0  0  0  0
 14 17  1  0  0  0  0
 17 18  2  0  0  0  0
 17 19  1  0  0  0  0
 19 20  1  0  0  0  0
 21 22  2  0  0  0  0
 21 23  1  0  0  0  0
 23 24  1  0  0  0  0
 23 25  1  0  0  0  0
 25 26  1  0  0  0  0
 25 27  1  0  0  0  0
 25 28  1  0  0  0  0
M  END
$$$$

  -OEChem-01062216073D

 28 27  0     1  0  0  0  0  0999 V2000
   -3.3507   -2.8702    1.3208 H   0  0  0  0  0  0  0  0  0  0  0  0
   -3.2929   -1.8566    0.9135 C   0  0  0  0  0  0  0  0  0  0  0  0
   -3.8274   -1.1794    1.5839 H   0  0  0  0  0  0  0  0  0  0  0  0
   -3.7732   -1.8446   -0.0678 H   0  0  0  0  0  0  0  0  0  0  0  0
   -1.8429   -1.4275    0.7877 C   0  0  0  0  0  0  0  0  0  0  0  0
   -0.9622   -2.2221    1.0559 O   0  0  0  0  0  0  0  0  0  0  0  0
   -1.5555   -0.1541    0.3296 N   0  0  0  0  0  0  0  0  0  0  0  0
   -2.3662    0.4354    0.1698 H   0  0  0  0  0  0  0  0  0  0  0  0
   -0.2322    0.5090    0.3650 C   0  0  1  0  0  0  0  0  0  0  0  0
   -0.3820    1.5573    0.0910 H   0  0  0  0  0  0  0  0  0  0  0  0
    0.3912    0.5154    1.7825 C   0  0  0  0  0  0  0  0  0  0  0  0
    0.4712   -0.5039    2.1734 H   0  0  0  0  0  0  0  0  0  0  0  0
    1.4120    0.9096    1.7234 H   0  0  0  0  0  0  0  0  0  0  0  0
   -0.4209    1.4022    2.7495 C   0  0  0  0  0  0  0  0  0  0  0  0
   -0.4438    2.4270    2.3693 H   0  0  0  0  0  0  0  0  0  0  0  0
   -1.4501    1.0387    2.7996 H   0  0  0  0  0  0  0  0  0  0  0  0
    0.1244    1.4383    4.1778 C   0  0  0  0  0  0  0  0  0  0  0  0
    1.0414    0.7072    4.5095 O   0  0  0  0  0  0  0  0  0  0  0  0
   -0.4712    2.3103    5.0232 O   0  0  0  0  0  0  0  0  0  0  0  0
   -0.0143    2.2014    5.8716 H   0  0  0  0  0  0  0  0  0  0  0  0
    0.7318   -0.0505   -0.7130 C   0  0  0  0  0  0  0  0  0  0  0  0
    1.7791   -0.6115   -0.4209 O   0  0  0  0  0  0  0  0  0  0  0  0
    0.5394    0.3116   -2.0353 N   0  0  0  0  0  0  0  0  0  0  0  0
   -0.3519    0.7321   -2.2748 H   0  0  0  0  0  0  0  0  0  0  0  0
    1.4300   -0.1095   -3.1113 C   0  0  0  0  0  0  0  0  0  0  0  0
    1.4582   -1.2022   -3.1794 H   0  0  0  0  0  0  0  0  0  0  0  0
    1.0828    0.2890   -4.0692 H   0  0  0  0  0  0  0  0  0  0  0  0
    2.4464    0.2577   -2.9339 H   0  0  0  0  0  0  0  0  0  0  0  0
  1  2  1  0  0  0  0
  2  3  1  0  0  0  0
  2  4  1  0  0  0  0
  2  5  1  0  0  0  0
  5  6  2  0  0  0  0
  5  7  1  0  0  0  0
  7  8  1  0  0  0  0
  7  9  1  0  0  0  0
  9 10  1  0  0  0  0
  9 11  1  0  0  0  0
  9 21  1  0  0  0  0
 11 12  1  0  0  0  0
 11 13  1  0  0  0  0
 11 14  1  0  0  0  0
 14 15  1  0  0  0  0
 14 16  1  0  0  0  0
 14 17  1  0  0  0  0
 17 18  2  0  0  0  0
 17 19  1  0  0  0  0
 19 20  1  0  0  0  0
 21 22  2  0  0  0  0
 21 23  1  0  0  0  0
 23 24  1  0  0  0  0
 23 25  1  0  0  0  0
 25 26  1  0  0  0  0
 25 27  1  0  0  0  0
 25 28  1  0  0  0  0
M  END
$$$$

  -OEChem-01062216073D

 28 27  0     1  0  0  0  0  0999 V2000
   -3.3944   -2.9053    1.2167 H   0  0  0  0  0  0  0  0  0  0  0  0
   -3.3120   -1.9062    0.7790 C   0  0  0  0  0  0  0  0  0  0  0  0
   -3.9577   -1.2247    1.3378 H   0  0  0  0  0  0  0  0  0  0  0  0
   -3.6471   -1.9495   -0.2600 H   0  0  0  0  0  0  0  0  0  0  0  0
   -1.8732   -1.4283    0.8390 C   0  0  0  0  0  0  0  0  0  0  0  0
   -1.0215   -2.1804    1.2711 O   0  0  0  0  0  0  0  0  0  0  0  0
   -1.5743   -0.1583    0.3768 N   0  0  0  0  0  0  0  0  0  0  0  0
   -2.3694    0.3752    0.0406 H   0  0  0  0  0  0  0  0  0  0  0  0
   -0.2557    0.5152    0.3932 C   0  0  1  0  0  0  0  0  0  0  0  0
   -0.4230    1.5616    0.1235 H   0  0  0  0  0  0  0  0  0  0  0  0
    0.4064    0.5353    1.7914 C   0  0  0  0  0  0  0  0  0  0  0  0
    0.5100   -0.4801    2.1860 H   0  0  0  0  0  0  0  0  0  0  0  0
    1.4213    0.9385    1.6988 H   0  0  0  0  0  0  0  0  0  0  0  0
   -0.3881    1.4182    2.7758 C   0  0  0  0  0  0  0  0  0  0  0  0
   -0.4342    2.4404    2.3918 H   0  0  0  0  0  0  0  0  0  0  0  0
   -1.4112    1.0420    2.8556 H   0  0  0  0  0  0  0  0  0  0  0  0
    0.1973    1.4669    4.1878 C   0  0  0  0  0  0  0  0  0  0  0  0
    1.1314    0.7472    4.4966 O   0  0  0  0  0  0  0  0  0  0  0  0
   -0.3788    2.3416    5.0439 O   0  0  0  0  0  0  0  0  0  0  0  0
    0.1018    2.2389    5.8798 H   0  0  0  0  0  0  0  0  0  0  0  0
    0.7016   -0.0405   -0.6917 C   0  0  0  0  0  0  0  0  0  0  0  0
    1.5760   -0.8558   -0.4357 O   0  0  0  0  0  0  0  0  0  0  0  0
    0.7056    0.5394   -1.9491 N   0  0  0  0  0  0  0  0  0  0  0  0
   -0.0225    1.2132   -2.1603 H   0  0  0  0  0  0  0  0  0  0  0  0
    1.6232    0.1365   -3.0094 C   0  0  0  0  0  0  0  0  0  0  0  0
    1.4849   -0.9222   -3.2535 H   0  0  0  0  0  0  0  0  0  0  0  0
    1.4426    0.7266   -3.9130 H   0  0  0  0  0  0  0  0  0  0  0  0
    2.6616    0.2925   -2.6977 H   0  0  0  0  0  0  0  0  0  0  0  0
  1  2  1  0  0  0  0
  2  3  1  0  0  0  0
  2  4  1  0  0  0  0
  2  5  1  0  0  0  0
  5  6  2  0  0  0  0
  5  7  1  0  0  0  0
  7  8  1  0  0  0  0
  7  9  1  0  0  0  0
  9 10  1  0  0  0  0
  9 11  1  0  0  0  0
  9 21  1  0  0  0  0
 11 12  1  0  0  0  0
 11 13  1  0  0  0  0
 11 14  1  0  0  0  0
 14 15  1  0  0  0  0
 14 16  1  0  0  0  0
 14 17  1  0  0  0  0
 17 18  2  0  0  0  0
 17 19  1  0  0  0  0
 19 20  1  0  0  0  0
 21 22  2  0  0  0  0
 21 23  1  0  0  0  0
 23 24  1  0  0  0  0
 23 25  1  0  0  0  0
 25 26  1  0  0  0  0
 25 27  1  0  0  0  0
 25 28  1  0  0  0  0
M  END
$$$$

  -OEChem-01062216073D

 28 27  0     1  0  0  0  0  0999 V2000
   -3.3869   -2.9694    1.0529 H   0  0  0  0  0  0  0  0  0  0  0  0
   -3.2997   -1.9616    0.6364 C   0  0  0  0  0  0  0  0  0  0  0  0
   -4.0495   -1.3214    1.1071 H   0  0  0  0  0  0  0  0  0  0  0  0
   -3.4900   -2.0096   -0.4384 H   0  0  0  0  0  0  0  0  0  0  0  0
   -1.9098   -1.4093    0.8930 C   0  0  0  0  0  0  0  0  0  0  0  0
   -1.1212   -2.0865    1.5238 O   0  0  0  0  0  0  0  0  0  0  0  0
   -1.6078   -0.1416    0.4233 N   0  0  0  0  0  0  0  0  0  0  0  0
   -2.3508    0.2962   -0.1117 H   0  0  0  0  0  0  0  0  0  0  0  0
   -0.2895    0.5348    0.4246 C   0  0  1  0  0  0  0  0  0  0  0  0
   -0.4711    1.5795    0.1585 H   0  0  0  0  0  0  0  0  0  0  0  0
    0.4157    0.5611    1.8004 C   0  0  0  0  0  0  0  0  0  0  0  0
    0.5434   -0.4513    2.1946 H   0  0  0  0  0  0  0  0  0  0  0  0
    1.4233    0.9726    1.6749 H   0  0  0  0  0  0  0  0  0  0  0  0
   -0.3541    1.4406    2.8064 C   0  0  0  0  0  0  0  0  0  0  0  0
   -0.4211    2.4613    2.4215 H   0  0  0  0  0  0  0  0  0  0  0  0
   -1.3712    1.0554    2.9169 H   0  0  0  0  0  0  0  0  0  0  0  0
    0.2731    1.4970    4.2001 C   0  0  0  0  0  0  0  0  0  0  0  0
    1.2213    0.7842    4.4820 O   0  0  0  0  0  0  0  0  0  0  0  0
   -0.2808    2.3721    5.0706 O   0  0  0  0  0  0  0  0  0  0  0  0
    0.2212    2.2702    5.8937 H   0  0  0  0  0  0  0  0  0  0  0  0
    0.6609   -0.0214   -0.6653 C   0  0  0  0  0  0  0  0  0  0  0  0
    1.2588   -1.0782   -0.5313 O   0  0  0  0  0  0  0  0  0  0  0  0
    0.8978    0.7213   -1.8101 N   0  0  0  0  0  0  0  0  0  0  0  0
    0.4276    1.6155   -1.9029 H   0  0  0  0  0  0  0  0  0  0  0  0
    1.8331    0.3059   -2.8499 C   0  0  0  0  0  0  0  0  0  0  0  0
    1.5365   -0.6619   -3.2678 H   0  0  0  0  0  0  0  0  0  0  0  0
    1.8514    1.0408   -3.6603 H   0  0  0  0  0  0  0  0  0  0  0  0
    2.8452    0.2162   -2.4411 H   0  0  0  0  0  0  0  0  0  0  0  0
  1  2  1  0  0  0  0
  2  3  1  0  0  0  0
  2  4  1  0  0  0  0
  2  5  1  0  0  0  0
  5  6  2  0  0  0  0
  5  7  1  0  0  0  0
  7  8  1  0  0  0  0
  7  9  1  0  0  0  0
  9 10  1  0  0  0  0
  9 11  1  0  0  0  0
  9 21  1  0  0  0  0
 11 12  1  0  0  0  0
 11 13  1  0  0  0  0
 11 14  1  0  0  0  0
 14 15  1  0  0  0  0
 14 16  1  0  0  0  0
 14 17  1  0  0  0  0
 17 18  2  0  0  0  0
 17 19  1  0  0  0  0
 19 20  1  0  0  0  0
 21 22  2  0  0  0  0
 21 23  1  0  0  0  0
 23 24  1  0  0  0  0
 23 25  1  0  0  0  0
 25 26  1  0  0  0  0
 25 27  1  0  0  0  0
 25 28  1  0  0  0  0
M  END
$$$$

  -OEChem-01062216073D

 28 27  0     1  0  0  0  0  0999 V2000
   -3.3236   -3.0105    0.9352 H   0  0  0  0  0  0  0  0  0  0  0  0
   -3.2368   -2.0077    0.5068 C   0  0  0  0  0  0  0  0  0  0  0  0
   -4.0756   -1.4018    0.8570 H   0  0  0  0  0  0  0  0  0  0  0  0
   -3.2798   -2.0885   -0.5819 H   0  0  0  0  0  0  0  0  0  0  0  0
   -1.9248   -1.3722    0.9279 C   0  0  0  0  0  0  0  0  0  0  0  0
   -1.2146   -1.9709    1.7143 O   0  0  0  0  0  0  0  0  0  0  0  0
   -1.6266   -0.1041    0.4551 N   0  0  0  0  0  0  0  0  0  0  0  0
   -2.2977    0.2425   -0.2225 H   0  0  0  0  0  0  0  0  0  0  0  0
   -0.3035    0.5633    0.4629 C   0  0  1  0  0  0  0  0  0  0  0  0
   -0.4846    1.6077    0.1949 H   0  0  0  0  0  0  0  0  0  0  0  0
    0.4207    0.5870    1.8275 C   0  0  0  0  0  0  0  0  0  0  0  0
    0.5582   -0.4247    2.2189 H   0  0  0  0  0  0  0  0  0  0  0  0
    1.4253    1.0008    1.6892 H   0  0  0  0  0  0  0  0  0  0  0  0
   -0.3335    1.4681    2.8436 C   0  0  0  0  0  0  0  0  0  0  0  0
   -0.4060    2.4893    2.4607 H   0  0  0  0  0  0  0  0  0  0  0  0
   -1.3494    1.0827    2.9678 H   0  0  0  0  0  0  0  0  0  0  0  0
    0.3138    1.5220    4.2282 C   0  0  0  0  0  0  0  0  0  0  0  0
    1.2644    0.8059    4.4942 O   0  0  0  0  0  0  0  0  0  0  0  0
   -0.2219    2.3999    5.1073 O   0  0  0  0  0  0  0  0  0  0  0  0
    0.2887    2.2930    5.9244 H   0  0  0  0  0  0  0  0  0  0  0  0
    0.6432   -0.0022   -0.6248 C   0  0  0  0  0  0  0  0  0  0  0  0
    0.8839   -1.1968   -0.7168 O   0  0  0  0  0  0  0  0  0  0  0  0
    1.1396    0.8404   -1.6050 N   0  0  0  0  0  0  0  0  0  0  0  0
    0.9577    1.8346   -1.5128 H   0  0  0  0  0  0  0  0  0  0  0  0
    2.0193    0.3833   -2.6755 C   0  0  0  0  0  0  0  0  0  0  0  0
    1.5275   -0.3927   -3.2717 H   0  0  0  0  0  0  0  0  0  0  0  0
    2.2753    1.2158   -3.3376 H   0  0  0  0  0  0  0  0  0  0  0  0
    2.9458   -0.0273   -2.2602 H   0  0  0  0  0  0  0  0  0  0  0  0
  1  2  1  0  0  0  0
  2  3  1  0  0  0  0
  2  4  1  0  0  0  0
  2  5  1  0  0  0  0
  5  6  2  0  0  0  0
  5  7  1  0  0  0  0
  7  8  1  0  0  0  0
  7  9  1  0  0  0  0
  9 10  1  0  0  0  0
  9 11  1  0  0  0  0
  9 21  1  0  0  0  0
 11 12  1  0  0  0  0
 11 13  1  0  0  0  0
 11 14  1  0  0  0  0
 14 15  1  0  0  0  0
 14 16  1  0  0  0  0
 14 17  1  0  0  0  0
 17 18  2  0  0  0  0
 17 19  1  0  0  0  0
 19 20  1  0  0  0  0
 21 22  2  0  0  0  0
 21 23  1  0  0  0  0
 23 24  1  0  0  0  0
 23 25  1  0  0  0  0
 25 26  1  0  0  0  0
 25 27  1  0  0  0  0
 25 28  1  0  0  0  0
M  END
$$$$

  -OEChem-01062216073D

 28 27  0     1  0  0  0  0  0999 V2000
   -3.2954   -3.0289    0.8969 H   0  0  0  0  0  0  0  0  0  0  0  0
   -3.2144   -2.0238    0.4735 C   0  0  0  0  0  0  0  0  0  0  0  0
   -4.0777   -1.4358    0.7935 H   0  0  0  0  0  0  0  0  0  0  0  0
   -3.2158   -2.1027   -0.6163 H   0  0  0  0  0  0  0  0  0  0  0  0
   -1.9318   -1.3617    0.9406 C   0  0  0  0  0  0  0  0  0  0  0  0
   -1.2392   -1.9412    1.7578 O   0  0  0  0  0  0  0  0  0  0  0  0
   -1.6352   -0.0938    0.4669 N   0  0  0  0  0  0  0  0  0  0  0  0
   -2.2765    0.2213   -0.2538 H   0  0  0  0  0  0  0  0  0  0  0  0
   -0.3067    0.5631    0.4784 C   0  0  1  0  0  0  0  0  0  0  0  0
   -0.4839    1.6065    0.2033 H   0  0  0  0  0  0  0  0  0  0  0  0
    0.4189    0.5903    1.8424 C   0  0  0  0  0  0  0  0  0  0  0  0
    0.5517   -0.4193    2.2404 H   0  0  0  0  0  0  0  0  0  0  0  0
    1.4253    0.9991    1.7021 H   0  0  0  0  0  0  0  0  0  0  0  0
   -0.3282    1.4820    2.8542 C   0  0  0  0  0  0  0  0  0  0  0  0
   -0.3975    2.5013    2.4661 H   0  0  0  0  0  0  0  0  0  0  0  0
   -1.3455    1.1021    2.9829 H   0  0  0  0  0  0  0  0  0  0  0  0
    0.3236    1.5379    4.2367 C   0  0  0  0  0  0  0  0  0  0  0  0
    1.2699    0.8156    4.5017 O   0  0  0  0  0  0  0  0  0  0  0  0
   -0.2011    2.4238    5.1142 O   0  0  0  0  0  0  0  0  0  0  0  0
    0.3111    2.3154    5.9301 H   0  0  0  0  0  0  0  0  0  0  0  0
    0.6416   -0.0058   -0.6075 C   0  0  0  0  0  0  0  0  0  0  0  0
    0.6049   -1.1815   -0.9435 O   0  0  0  0  0  0  0  0  0  0  0  0
    1.3890    0.8647   -1.3824 N   0  0  0  0  0  0  0  0  0  0  0  0
    1.4272    1.8376   -1.0955 H   0  0  0  0  0  0  0  0  0  0  0  0
    2.2578    0.4197   -2.4671 C   0  0  0  0  0  0  0  0  0  0  0  0
    1.6767   -0.0994   -3.2366 H   0  0  0  0  0  0  0  0  0  0  0  0
    2.7545    1.2771   -2.9309 H   0  0  0  0  0  0  0  0  0  0  0  0
    3.0265   -0.2619   -2.0875 H   0  0  0  0  0  0  0  0  0  0  0  0
  1  2  1  0  0  0  0
  2  3  1  0  0  0  0
  2  4  1  0  0  0  0
  2  5  1  0  0  0  0
  5  6  2  0  0  0  0
  5  7  1  0  0  0  0
  7  8  1  0  0  0  0
  7  9  1  0  0  0  0
  9 10  1  0  0  0  0
  9 11  1  0  0  0  0
  9 21  1  0  0  0  0
 11 12  1  0  0  0  0
 11 13  1  0  0  0  0
 11 14  1  0  0  0  0
 14 15  1  0  0  0  0
 14 16  1  0  0  0  0
 14 17  1  0  0  0  0
 17 18  2  0  0  0  0
 17 19  1  0  0  0  0
 19 20  1  0  0  0  0
 21 22  2  0  0  0  0
 21 23  1  0  0  0  0
 23 24  1  0  0  0  0
 23 25  1  0  0  0  0
 25 26  1  0  0  0  0
 25 27  1  0  0  0  0
 25 28  1  0  0  0  0
M  END
$$$$

  -OEChem-01062216073D

 28 27  0     1  0  0  0  0  0999 V2000
   -3.3016   -3.0233    0.9073 H   0  0  0  0  0  0  0  0  0  0  0  0
   -3.2237   -2.0134    0.4948 C   0  0  0  0  0  0  0  0  0  0  0  0
   -4.0721   -1.4220    0.8468 H   0  0  0  0  0  0  0  0  0  0  0  0
   -3.2567   -2.0781   -0.5956 H   0  0  0  0  0  0  0  0  0  0  0  0
   -1.9227   -1.3682    0.9344 C   0  0  0  0  0  0  0  0  0  0  0  0
   -1.2031   -1.9709    1.7110 O   0  0  0  0  0  0  0  0  0  0  0  0
   -1.6250   -0.0985    0.4672 N   0  0  0  0  0  0  0  0  0  0  0  0
   -2.2632    0.2194   -0.2553 H   0  0  0  0  0  0  0  0  0  0  0  0
   -0.2938    0.5524    0.4815 C   0  0  1  0  0  0  0  0  0  0  0  0
   -0.4664    1.5957    0.2023 H   0  0  0  0  0  0  0  0  0  0  0  0
    0.4212    0.5812    1.8525 C   0  0  0  0  0  0  0  0  0  0  0  0
    0.5437   -0.4266    2.2577 H   0  0  0  0  0  0  0  0  0  0  0  0
    1.4314    0.9833    1.7219 H   0  0  0  0  0  0  0  0  0  0  0  0
   -0.3307    1.4815    2.8528 C   0  0  0  0  0  0  0  0  0  0  0  0
   -0.3886    2.4992    2.4587 H   0  0  0  0  0  0  0  0  0  0  0  0
   -1.3521    1.1097    2.9725 H   0  0  0  0  0  0  0  0  0  0  0  0
    0.3070    1.5416    4.2414 C   0  0  0  0  0  0  0  0  0  0  0  0
    1.2470    0.8161    4.5198 O   0  0  0  0  0  0  0  0  0  0  0  0
   -0.2237    2.4338    5.1087 O   0  0  0  0  0  0  0  0  0  0  0  0
    0.2774    2.3273    5.9318 H   0  0  0  0  0  0  0  0  0  0  0  0
    0.6551   -0.0119   -0.6069 C   0  0  0  0  0  0  0  0  0  0  0  0
    0.4287   -1.0775   -1.1658 O   0  0  0  0  0  0  0  0  0  0  0  0
    1.6249    0.8102   -1.1551 N   0  0  0  0  0  0  0  0  0  0  0  0
    1.8150    1.6905   -0.6865 H   0  0  0  0  0  0  0  0  0  0  0  0
    2.5036    0.3902   -2.2415 C   0  0  0  0  0  0  0  0  0  0  0  0
    1.9180    0.1232   -3.1277 H   0  0  0  0  0  0  0  0  0  0  0  0
    3.1863    1.2011   -2.5122 H   0  0  0  0  0  0  0  0  0  0  0  0
    3.0988   -0.4777   -1.9384 H   0  0  0  0  0  0  0  0  0  0  0  0
  1  2  1  0  0  0  0
  2  3  1  0  0  0  0
  2  4  1  0  0  0  0
  2  5  1  0  0  0  0
  5  6  2  0  0  0  0
  5  7  1  0  0  0  0
  7  8  1  0  0  0  0
  7  9  1  0  0  0  0
  9 10  1  0  0  0  0
  9 11  1  0  0  0  0
  9 21  1  0  0  0  0
 11 12  1  0  0  0  0
 11 13  1  0  0  0  0
 11 14  1  0  0  0  0
 14 15  1  0  0  0  0
 14 16  1  0  0  0  0
 14 17  1  0  0  0  0
 17 18  2  0  0  0  0
 17 19  1  0  0  0  0
 19 20  1  0  0  0  0
 21 22  2  0  0  0  0
 21 23  1  0  0  0  0
 23 24  1  0  0  0  0
 23 25  1  0  0  0  0
 25 26  1  0  0  0  0
 25 27  1  0  0  0  0
 25 28  1  0  0  0  0
M  END
$$$$

  -OEChem-01062216073D

 28 27  0     1  0  0  0  0  0999 V2000
   -3.3059   -3.0092    0.9358 H   0  0  0  0  0  0  0  0  0  0  0  0
   -3.2185   -2.0065    0.5079 C   0  0  0  0  0  0  0  0  0  0  0  0
   -4.0573   -1.4001    0.8573 H   0  0  0  0  0  0  0  0  0  0  0  0
   -3.2606   -2.0857   -0.5812 H   0  0  0  0  0  0  0  0  0  0  0  0
   -1.9061   -1.3714    0.9277 C   0  0  0  0  0  0  0  0  0  0  0  0
   -1.1570   -1.9979    1.6565 O   0  0  0  0  0  0  0  0  0  0  0  0
   -1.6130   -0.0968    0.4730 N   0  0  0  0  0  0  0  0  0  0  0  0
   -2.2555    0.2316   -0.2412 H   0  0  0  0  0  0  0  0  0  0  0  0
   -0.2822    0.5538    0.4902 C   0  0  1  0  0  0  0  0  0  0  0  0
   -0.4505    1.5984    0.2125 H   0  0  0  0  0  0  0  0  0  0  0  0
    0.4218    0.5807    1.8684 C   0  0  0  0  0  0  0  0  0  0  0  0
    0.5385   -0.4268    2.2755 H   0  0  0  0  0  0  0  0  0  0  0  0
    1.4333    0.9826    1.7521 H   0  0  0  0  0  0  0  0  0  0  0  0
   -0.3399    1.4822    2.8605 C   0  0  0  0  0  0  0  0  0  0  0  0
   -0.3936    2.4999    2.4655 H   0  0  0  0  0  0  0  0  0  0  0  0
   -1.3625    1.1108    2.9709 H   0  0  0  0  0  0  0  0  0  0  0  0
    0.2839    1.5424    4.2551 C   0  0  0  0  0  0  0  0  0  0  0  0
    1.2208    0.8159    4.5422 O   0  0  0  0  0  0  0  0  0  0  0  0
   -0.2536    2.4364    5.1162 O   0  0  0  0  0  0  0  0  0  0  0  0
    0.2403    2.3321    5.9438 H   0  0  0  0  0  0  0  0  0  0  0  0
    0.6582   -0.0048   -0.6095 C   0  0  0  0  0  0  0  0  0  0  0  0
    0.2936   -0.9025   -1.3596 O   0  0  0  0  0  0  0  0  0  0  0  0
    1.8123    0.6841   -0.9423 N   0  0  0  0  0  0  0  0  0  0  0  0
    2.1165    1.4204   -0.3130 H   0  0  0  0  0  0  0  0  0  0  0  0
    2.7082    0.2663   -2.0152 C   0  0  0  0  0  0  0  0  0  0  0  0
    2.1840    0.2701   -2.9768 H   0  0  0  0  0  0  0  0  0  0  0  0
    3.5605    0.9491   -2.0854 H   0  0  0  0  0  0  0  0  0  0  0  0
    3.0879   -0.7433   -1.8254 H   0  0  0  0  0  0  0  0  0  0  0  0
  1  2  1  0  0  0  0
  2  3  1  0  0  0  0
  2  4  1  0  0  0  0
  2  5  1  0  0  0  0
  5  6  2  0  0  0  0
  5  7  1  0  0  0  0
  7  8  1  0  0  0  0
  7  9  1  0  0  0  0
  9 10  1  0  0  0  0
  9 11  1  0  0  0  0
  9 21  1  0  0  0  0
 11 12  1  0  0  0  0
 11 13  1  0  0  0  0
 11 14  1  0  0  0  0
 14 15  1  0  0  0  0
 14 16  1  0  0  0  0
 14 17  1  0  0  0  0
 17 18  2  0  0  0  0
 17 19  1  0  0  0  0
 19 20  1  0  0  0  0
 21 22  2  0  0  0  0
 21 23  1  0  0  0  0
 23 24  1  0  0  0  0
 23 25  1  0  0  0  0
 25 26  1  0  0  0  0
 25 27  1  0  0  0  0
 25 28  1  0  0  0  0
M  END
$$$$

  -OEChem-01062216073D

 28 27  0     1  0  0  0  0  0999 V2000
   -3.3634   -2.9720    0.8230 H   0  0  0  0  0  0  0  0  0  0  0  0
   -3.2425   -1.9580    0.4316 C   0  0  0  0  0  0  0  0  0  0  0  0
   -4.0774   -1.3446    0.7783 H   0  0  0  0  0  0  0  0  0  0  0  0
   -3.2564   -2.0000   -0.6604 H   0  0  0  0  0  0  0  0  0  0  0  0
   -1.9298   -1.3648    0.9077 C   0  0  0  0  0  0  0  0  0  0  0  0
   -1.2319   -2.0215    1.6598 O   0  0  0  0  0  0  0  0  0  0  0  0
   -1.5927   -0.0938    0.4754 N   0  0  0  0  0  0  0  0  0  0  0  0
   -2.2013    0.2334   -0.2705 H   0  0  0  0  0  0  0  0  0  0  0  0
   -0.2634    0.5644    0.5085 C   0  0  1  0  0  0  0  0  0  0  0  0
   -0.4492    1.6425    0.5024 H   0  0  0  0  0  0  0  0  0  0  0  0
    0.6158    0.2842    1.7529 C   0  0  0  0  0  0  0  0  0  0  0  0
    0.7974   -0.7869    1.8770 H   0  0  0  0  0  0  0  0  0  0  0  0
    1.5989    0.7446    1.6181 H   0  0  0  0  0  0  0  0  0  0  0  0
   -0.0094    0.8956    3.0228 C   0  0  0  0  0  0  0  0  0  0  0  0
   -0.1173    1.9758    2.8960 H   0  0  0  0  0  0  0  0  0  0  0  0
   -1.0079    0.4749    3.1708 H   0  0  0  0  0  0  0  0  0  0  0  0
    0.7951    0.6388    4.2974 C   0  0  0  0  0  0  0  0  0  0  0  0
    1.7627   -0.1044    4.2745 O   0  0  0  0  0  0  0  0  0  0  0  0
    0.3799    1.2826    5.4123 O   0  0  0  0  0  0  0  0  0  0  0  0
    0.9774    0.9941    6.1188 H   0  0  0  0  0  0  0  0  0  0  0  0
    0.5120    0.2723   -0.8039 C   0  0  0  0  0  0  0  0  0  0  0  0
   -0.0555   -0.2598   -1.7520 O   0  0  0  0  0  0  0  0  0  0  0  0
    1.7835    0.7793   -1.0107 N   0  0  0  0  0  0  0  0  0  0  0  0
    2.2568    1.1973   -0.2157 H   0  0  0  0  0  0  0  0  0  0  0  0
    2.5382    0.5624   -2.2400 C   0  0  0  0  0  0  0  0  0  0  0  0
    2.0042    0.9842   -3.0982 H   0  0  0  0  0  0  0  0  0  0  0  0
    3.5182    1.0447   -2.1735 H   0  0  0  0  0  0  0  0  0  0  0  0
    2.6901   -0.5085   -2.4117 H   0  0  0  0  0  0  0  0  0  0  0  0
  1  2  1  0  0  0  0
  2  3  1  0  0  0  0
  2  4  1  0  0  0  0
  2  5  1  0  0  0  0
  5  6  2  0  0  0  0
  5  7  1  0  0  0  0
  7  8  1  0  0  0  0
  7  9  1  0  0  0  0
  9 10  1  0  0  0  0
  9 11  1  0  0  0  0
  9 21  1  0  0  0  0
 11 12  1  0  0  0  0
 11 13  1  0  0  0  0
 11 14  1  0  0  0  0
 14 15  1  0  0  0  0
 14 16  1  0  0  0  0
 14 17  1  0  0  0  0
 17 18  2  0  0  0  0
 17 19  1  0  0  0  0
 19 20  1  0  0  0  0
 21 22  2  0  0  0  0
 21 23  1  0  0  0  0
 23 24  1  0  0  0  0
 23 25  1  0  0  0  0
 25 26  1  0  0  0  0
 25 27  1  0  0  0  0
 25 28  1  0  0  0  0
M  END
$$$$

  -OEChem-01062216073D

 28 27  0     1  0  0  0  0  0999 V2000
   -3.3506   -2.9734    0.8095 H   0  0  0  0  0  0  0  0  0  0  0  0
   -3.2336   -1.9516    0.4373 C   0  0  0  0  0  0  0  0  0  0  0  0
   -4.0552   -1.3412    0.8195 H   0  0  0  0  0  0  0  0  0  0  0  0
   -3.2775   -1.9692   -0.6546 H   0  0  0  0  0  0  0  0  0  0  0  0
   -1.9050   -1.3767    0.8914 C   0  0  0  0  0  0  0  0  0  0  0  0
   -1.1848   -2.0574    1.5999 O   0  0  0  0  0  0  0  0  0  0  0  0
   -1.5668   -0.1017    0.4743 N   0  0  0  0  0  0  0  0  0  0  0  0
   -2.1824    0.2476   -0.2563 H   0  0  0  0  0  0  0  0  0  0  0  0
   -0.2412    0.5610    0.5220 C   0  0  1  0  0  0  0  0  0  0  0  0
   -0.4289    1.6388    0.5144 H   0  0  0  0  0  0  0  0  0  0  0  0
    0.6204    0.2873    1.7809 C   0  0  0  0  0  0  0  0  0  0  0  0
    0.8069   -0.7819    1.9115 H   0  0  0  0  0  0  0  0  0  0  0  0
    1.6006    0.7575    1.6623 H   0  0  0  0  0  0  0  0  0  0  0  0
   -0.0247    0.9005    3.0396 C   0  0  0  0  0  0  0  0  0  0  0  0
   -0.1337    1.9801    2.9085 H   0  0  0  0  0  0  0  0  0  0  0  0
   -1.0242    0.4780    3.1743 H   0  0  0  0  0  0  0  0  0  0  0  0
    0.7629    0.6491    4.3260 C   0  0  0  0  0  0  0  0  0  0  0  0
    1.7327   -0.0917    4.3179 O   0  0  0  0  0  0  0  0  0  0  0  0
    0.3289    1.2917    5.4344 O   0  0  0  0  0  0  0  0  0  0  0  0
    0.9172    1.0070    6.1501 H   0  0  0  0  0  0  0  0  0  0  0  0
    0.5308    0.2742   -0.7940 C   0  0  0  0  0  0  0  0  0  0  0  0
   -0.0923   -0.0159   -1.8099 O   0  0  0  0  0  0  0  0  0  0  0  0
    1.8918    0.5008   -0.9092 N   0  0  0  0  0  0  0  0  0  0  0  0
    2.4091    0.6768   -0.0534 H   0  0  0  0  0  0  0  0  0  0  0  0
    2.6392    0.2644   -2.1392 C   0  0  0  0  0  0  0  0  0  0  0  0
    2.2491    0.8867   -2.9515 H   0  0  0  0  0  0  0  0  0  0  0  0
    3.6951    0.5119   -1.9938 H   0  0  0  0  0  0  0  0  0  0  0  0
    2.5671   -0.7875   -2.4355 H   0  0  0  0  0  0  0  0  0  0  0  0
  1  2  1  0  0  0  0
  2  3  1  0  0  0  0
  2  4  1  0  0  0  0
  2  5  1  0  0  0  0
  5  6  2  0  0  0  0
  5  7  1  0  0  0  0
  7  8  1  0  0  0  0
  7  9  1  0  0  0  0
  9 10  1  0  0  0  0
  9 11  1  0  0  0  0
  9 21  1  0  0  0  0
 11 12  1  0  0  0  0
 11 13  1  0  0  0  0
 11 14  1  0  0  0  0
 14 15  1  0  0  0  0
 14 16  1  0  0  0  0
 14 17  1  0  0  0  0
 17 18  2  0  0  0  0
 17 19  1  0  0  0  0
 19 20  1  0  0  0  0
 21 22  2  0  0  0  0
 21 23  1  0  0  0  0
 23 24  1  0  0  0  0
 23 25  1  0  0  0  0
 25 26  1  0  0  0  0
 25 27  1  0  0  0  0
 25 28  1  0  0  0  0
M  END
$$$$

  -OEChem-01062216073D

 28 27  0     1  0  0  0  0  0999 V2000
   -3.3595   -2.9627    0.8420 H   0  0  0  0  0  0  0  0  0  0  0  0
   -3.2399   -1.9408    0.4709 C   0  0  0  0  0  0  0  0  0  0  0  0
   -4.0271   -1.3163    0.8997 H   0  0  0  0  0  0  0  0  0  0  0  0
   -3.3410   -1.9482   -0.6171 H   0  0  0  0  0  0  0  0  0  0  0  0
   -1.8782   -1.3969    0.8600 C   0  0  0  0  0  0  0  0  0  0  0  0
   -1.1214   -2.1095    1.4951 O   0  0  0  0  0  0  0  0  0  0  0  0
   -1.5424   -0.1169    0.4578 N   0  0  0  0  0  0  0  0  0  0  0  0
   -2.1833    0.2710   -0.2305 H   0  0  0  0  0  0  0  0  0  0  0  0
   -0.2223    0.5523    0.5228 C   0  0  1  0  0  0  0  0  0  0  0  0
   -0.4159    1.6293    0.5136 H   0  0  0  0  0  0  0  0  0  0  0  0
    0.6223    0.2876    1.7950 C   0  0  0  0  0  0  0  0  0  0  0  0
    0.8128   -0.7799    1.9333 H   0  0  0  0  0  0  0  0  0  0  0  0
    1.5998    0.7672    1.6861 H   0  0  0  0  0  0  0  0  0  0  0  0
   -0.0424    0.9009    3.0434 C   0  0  0  0  0  0  0  0  0  0  0  0
   -0.1543    1.9799    2.9082 H   0  0  0  0  0  0  0  0  0  0  0  0
   -1.0413    0.4736    3.1669 H   0  0  0  0  0  0  0  0  0  0  0  0
    0.7310    0.6558    4.3397 C   0  0  0  0  0  0  0  0  0  0  0  0
    1.7042   -0.0806    4.3440 O   0  0  0  0  0  0  0  0  0  0  0  0
    0.2813    1.2984    5.4417 O   0  0  0  0  0  0  0  0  0  0  0  0
    0.8667    1.0231    6.1636 H   0  0  0  0  0  0  0  0  0  0  0  0
    0.5556    0.2766   -0.7904 C   0  0  0  0  0  0  0  0  0  0  0  0
   -0.0626    0.2259   -1.8482 O   0  0  0  0  0  0  0  0  0  0  0  0
    1.9378    0.2101   -0.8330 N   0  0  0  0  0  0  0  0  0  0  0  0
    2.4240    0.1430    0.0563 H   0  0  0  0  0  0  0  0  0  0  0  0
    2.6845   -0.0626   -2.0557 C   0  0  0  0  0  0  0  0  0  0  0  0
    2.4666    0.6948   -2.8162 H   0  0  0  0  0  0  0  0  0  0  0  0
    3.7599   -0.0460   -1.8537 H   0  0  0  0  0  0  0  0  0  0  0  0
    2.4209   -1.0481   -2.4542 H   0  0  0  0  0  0  0  0  0  0  0  0
  1  2  1  0  0  0  0
  2  3  1  0  0  0  0
  2  4  1  0  0  0  0
  2  5  1  0  0  0  0
  5  6  2  0  0  0  0
  5  7  1  0  0  0  0
  7  8  1  0  0  0  0
  7  9  1  0  0  0  0
  9 10  1  0  0  0  0
  9 11  1  0  0  0  0
  9 21  1  0  0  0  0
 11 12  1  0  0  0  0
 11 13  1  0  0  0  0
 11 14  1  0  0  0  0
 14 15  1  0  0  0  0
 14 16  1  0  0  0  0
 14 17  1  0  0  0  0
 17 18  2  0  0  0  0
 17 19  1  0  0  0  0
 19 20  1  0  0  0  0
 21 22  2  0  0  0  0
 21 23  1  0  0  0  0
 23 24  1  0  0  0  0
 23 25  1  0  0  0  0
 25 26  1  0  0  0  0
 25 27  1  0  0  0  0
 25 28  1  0  0  0  0
M  END
$$$$

  -OEChem-01062216073D

 28 27  0     1  0  0  0  0  0999 V2000
   -3.3681   -2.9488    0.8838 H   0  0  0  0  0  0  0  0  0  0  0  0
   -3.2471   -1.9287    0.5081 C   0  0  0  0  0  0  0  0  0  0  0  0
   -4.0016   -1.2907    0.9745 H   0  0  0  0  0  0  0  0  0  0  0  0
   -3.3994   -1.9325   -0.5741 H   0  0  0  0  0  0  0  0  0  0  0  0
   -1.8589   -1.4106    0.8336 C   0  0  0  0  0  0  0  0  0  0  0  0
   -1.0715   -2.1484    1.3989 O   0  0  0  0  0  0  0  0  0  0  0  0
   -1.5240   -0.1283    0.4400 N   0  0  0  0  0  0  0  0  0  0  0  0
   -2.1923    0.2984   -0.1971 H   0  0  0  0  0  0  0  0  0  0  0  0
   -0.2075    0.5436    0.5185 C   0  0  1  0  0  0  0  0  0  0  0  0
   -0.4043    1.6201    0.5082 H   0  0  0  0  0  0  0  0  0  0  0  0
    0.6245    0.2850    1.7995 C   0  0  0  0  0  0  0  0  0  0  0  0
    0.8127   -0.7816    1.9463 H   0  0  0  0  0  0  0  0  0  0  0  0
    1.6029    0.7653    1.6930 H   0  0  0  0  0  0  0  0  0  0  0  0
   -0.0542    0.9001    3.0390 C   0  0  0  0  0  0  0  0  0  0  0  0
   -0.1667    1.9786    2.8994 H   0  0  0  0  0  0  0  0  0  0  0  0
   -1.0536    0.4717    3.1540 H   0  0  0  0  0  0  0  0  0  0  0  0
    0.7074    0.6603    4.3432 C   0  0  0  0  0  0  0  0  0  0  0  0
    1.6823   -0.0737    4.3587 O   0  0  0  0  0  0  0  0  0  0  0  0
    0.2436    1.3019    5.4397 O   0  0  0  0  0  0  0  0  0  0  0  0
    0.8233    1.0309    6.1678 H   0  0  0  0  0  0  0  0  0  0  0  0
    0.5801    0.2757   -0.7872 C   0  0  0  0  0  0  0  0  0  0  0  0
    0.0162    0.4494   -1.8615 O   0  0  0  0  0  0  0  0  0  0  0  0
    1.9159   -0.0867   -0.7862 N   0  0  0  0  0  0  0  0  0  0  0  0
    2.3140   -0.3628    0.1072 H   0  0  0  0  0  0  0  0  0  0  0  0
    2.6534   -0.4023   -2.0037 C   0  0  0  0  0  0  0  0  0  0  0  0
    2.6340    0.4463   -2.6957 H   0  0  0  0  0  0  0  0  0  0  0  0
    3.6975   -0.6271   -1.7656 H   0  0  0  0  0  0  0  0  0  0  0  0
    2.2149   -1.2733   -2.5020 H   0  0  0  0  0  0  0  0  0  0  0  0
  1  2  1  0  0  0  0
  2  3  1  0  0  0  0
  2  4  1  0  0  0  0
  2  5  1  0  0  0  0
  5  6  2  0  0  0  0
  5  7  1  0  0  0  0
  7  8  1  0  0  0  0
  7  9  1  0  0  0  0
  9 10  1  0  0  0  0
  9 11  1  0  0  0  0
  9 21  1  0  0  0  0
 11 12  1  0  0  0  0
 11 13  1  0  0  0  0
 11 14  1  0  0  0  0
 14 15  1  0  0  0  0
 14 16  1  0  0  0  0
 14 17  1  0  0  0  0
 17 18  2  0  0  0  0
 17 19  1  0  0  0  0
 19 20  1  0  0  0  0
 21 22  2  0  0  0  0
 21 23  1  0  0  0  0
 23 24  1  0  0  0  0
 23 25  1  0  0  0  0
 25 26  1  0  0  0  0
 25 27  1  0  0  0  0
 25 28  1  0  0  0  0
M  END
$$$$

  -OEChem-01062216073D

 28 27  0     1  0  0  0  0  0999 V2000
   -3.3704   -2.9411    0.9148 H   0  0  0  0  0  0  0  0  0  0  0  0
   -3.2537   -1.9197    0.5415 C   0  0  0  0  0  0  0  0  0  0  0  0
   -3.9815   -1.2771    1.0427 H   0  0  0  0  0  0  0  0  0  0  0  0
   -3.4501   -1.9138   -0.5335 H   0  0  0  0  0  0  0  0  0  0  0  0
   -1.8474   -1.4199    0.8134 C   0  0  0  0  0  0  0  0  0  0  0  0
   -1.0353   -2.1786    1.3129 O   0  0  0  0  0  0  0  0  0  0  0  0
   -1.5118   -0.1369    0.4237 N   0  0  0  0  0  0  0  0  0  0  0  0
   -2.2104    0.3310   -0.1483 H   0  0  0  0  0  0  0  0  0  0  0  0
   -0.1959    0.5322    0.5119 C   0  0  1  0  0  0  0  0  0  0  0  0
   -0.3923    1.6090    0.4996 H   0  0  0  0  0  0  0  0  0  0  0  0
    0.6265    0.2778    1.7989 C   0  0  0  0  0  0  0  0  0  0  0  0
    0.8074   -0.7886    1.9557 H   0  0  0  0  0  0  0  0  0  0  0  0
    1.6085    0.7511    1.6902 H   0  0  0  0  0  0  0  0  0  0  0  0
   -0.0601    0.8992    3.0311 C   0  0  0  0  0  0  0  0  0  0  0  0
   -0.1677    1.9773    2.8851 H   0  0  0  0  0  0  0  0  0  0  0  0
   -1.0615    0.4742    3.1395 H   0  0  0  0  0  0  0  0  0  0  0  0
    0.6904    0.6647    4.3428 C   0  0  0  0  0  0  0  0  0  0  0  0
    1.6639   -0.0706    4.3699 O   0  0  0  0  0  0  0  0  0  0  0  0
    0.2195    1.3132    5.4321 O   0  0  0  0  0  0  0  0  0  0  0  0
    0.7964    1.0489    6.1648 H   0  0  0  0  0  0  0  0  0  0  0  0
    0.6007    0.2669   -0.7856 C   0  0  0  0  0  0  0  0  0  0  0  0
    0.1373    0.6541   -1.8514 O   0  0  0  0  0  0  0  0  0  0  0  0
    1.8230   -0.3807   -0.7758 N   0  0  0  0  0  0  0  0  0  0  0  0
    2.0884   -0.8357    0.0939 H   0  0  0  0  0  0  0  0  0  0  0  0
    2.5459   -0.7282   -1.9930 C   0  0  0  0  0  0  0  0  0  0  0  0
    2.7474    0.1682   -2.5891 H   0  0  0  0  0  0  0  0  0  0  0  0
    3.5030   -1.1965   -1.7438 H   0  0  0  0  0  0  0  0  0  0  0  0
    1.9623   -1.4299   -2.5982 H   0  0  0  0  0  0  0  0  0  0  0  0
  1  2  1  0  0  0  0
  2  3  1  0  0  0  0
  2  4  1  0  0  0  0
  2  5  1  0  0  0  0
  5  6  2  0  0  0  0
  5  7  1  0  0  0  0
  7  8  1  0  0  0  0
  7  9  1  0  0  0  0
  9 10  1  0  0  0  0
  9 11  1  0  0  0  0
  9 21  1  0  0  0  0
 11 12  1  0  0  0  0
 11 13  1  0  0  0  0
 11 14  1  0  0  0  0
 14 15  1  0  0  0  0
 14 16  1  0  0  0  0
 14 17  1  0  0  0  0
 17 18  2  0  0  0  0
 17 19  1  0  0  0  0
 19 20  1  0  0  0  0
 21 22  2  0  0  0  0
 21 23  1  0  0  0  0
 23 24  1  0  0  0  0
 23 25  1  0  0  0  0
 25 26  1  0  0  0  0
 25 27  1  0  0  0  0
 25 28  1  0  0  0  0
M  END
$$$$

  -OEChem-01062216073D

 28 27  0     1  0  0  0  0  0999 V2000
   -3.3738   -2.9186    1.0019 H   0  0  0  0  0  0  0  0  0  0  0  0
   -3.2633   -1.9026    0.6120 C   0  0  0  0  0  0  0  0  0  0  0  0
   -3.9428   -1.2423    1.1561 H   0  0  0  0  0  0  0  0  0  0  0  0
   -3.5332   -1.9007   -0.4469 H   0  0  0  0  0  0  0  0  0  0  0  0
   -1.8322   -1.4289    0.7824 C   0  0  0  0  0  0  0  0  0  0  0  0
   -0.9899   -2.2099    1.1904 O   0  0  0  0  0  0  0  0  0  0  0  0
   -1.5009   -0.1458    0.3905 N   0  0  0  0  0  0  0  0  0  0  0  0
   -2.2370    0.3686   -0.0860 H   0  0  0  0  0  0  0  0  0  0  0  0
   -0.1862    0.5227    0.4895 C   0  0  1  0  0  0  0  0  0  0  0  0
   -0.3831    1.5996    0.4760 H   0  0  0  0  0  0  0  0  0  0  0  0
    0.6251    0.2683    1.7831 C   0  0  0  0  0  0  0  0  0  0  0  0
    0.8006   -0.7980    1.9449 H   0  0  0  0  0  0  0  0  0  0  0  0
    1.6105    0.7359    1.6770 H   0  0  0  0  0  0  0  0  0  0  0  0
   -0.0714    0.8908    3.0094 C   0  0  0  0  0  0  0  0  0  0  0  0
   -0.1754    1.9691    2.8619 H   0  0  0  0  0  0  0  0  0  0  0  0
   -1.0746    0.4682    3.1100 H   0  0  0  0  0  0  0  0  0  0  0  0
    0.6668    0.6569    4.3281 C   0  0  0  0  0  0  0  0  0  0  0  0
    1.6393   -0.0791    4.3653 O   0  0  0  0  0  0  0  0  0  0  0  0
    0.1837    1.3049    5.4125 O   0  0  0  0  0  0  0  0  0  0  0  0
    0.7555    1.0445    6.1507 H   0  0  0  0  0  0  0  0  0  0  0  0
    0.6270    0.2579   -0.7945 C   0  0  0  0  0  0  0  0  0  0  0  0
    0.3245    0.8475   -1.8241 O   0  0  0  0  0  0  0  0  0  0  0  0
    1.6776   -0.6408   -0.8051 N   0  0  0  0  0  0  0  0  0  0  0  0
    1.7581   -1.2453    0.0097 H   0  0  0  0  0  0  0  0  0  0  0  0
    2.3857   -1.0151   -2.0227 C   0  0  0  0  0  0  0  0  0  0  0  0
    2.8097   -0.1296   -2.5081 H   0  0  0  0  0  0  0  0  0  0  0  0
    3.2041   -1.7026   -1.7881 H   0  0  0  0  0  0  0  0  0  0  0  0
    1.7057   -1.5097   -2.7243 H   0  0  0  0  0  0  0  0  0  0  0  0
  1  2  1  0  0  0  0
  2  3  1  0  0  0  0
  2  4  1  0  0  0  0
  2  5  1  0  0  0  0
  5  6  2  0  0  0  0
  5  7  1  0  0  0  0
  7  8  1  0  0  0  0
  7  9  1  0  0  0  0
  9 10  1  0  0  0  0
  9 11  1  0  0  0  0
  9 21  1  0  0  0  0
 11 12  1  0  0  0  0
 11 13  1  0  0  0  0
 11 14  1  0  0  0  0
 14 15  1  0  0  0  0
 14 16  1  0  0  0  0
 14 17  1  0  0  0  0
 17 18  2  0  0  0  0
 17 19  1  0  0  0  0
 19 20  1  0  0  0  0
 21 22  2  0  0  0  0
 21 23  1  0  0  0  0
 23 24  1  0  0  0  0
 23 25  1  0  0  0  0
 25 26  1  0  0  0  0
 25 27  1  0  0  0  0
 25 28  1  0  0  0  0
M  END
$$$$

  -OEChem-01062216073D

 28 27  0     1  0  0  0  0  0999 V2000
   -3.3614   -2.8931    1.1033 H   0  0  0  0  0  0  0  0  0  0  0  0
   -3.2647   -1.8848    0.6907 C   0  0  0  0  0  0  0  0  0  0  0  0
   -3.8943   -1.2065    1.2716 H   0  0  0  0  0  0  0  0  0  0  0  0
   -3.6093   -1.8939   -0.3463 H   0  0  0  0  0  0  0  0  0  0  0  0
   -1.8188   -1.4309    0.7513 C   0  0  0  0  0  0  0  0  0  0  0  0
   -0.9496   -2.2305    1.0556 O   0  0  0  0  0  0  0  0  0  0  0  0
   -1.4969   -0.1482    0.3521 N   0  0  0  0  0  0  0  0  0  0  0  0
   -2.2665    0.4083   -0.0101 H   0  0  0  0  0  0  0  0  0  0  0  0
   -0.1829    0.5184    0.4614 C   0  0  1  0  0  0  0  0  0  0  0  0
   -0.3768    1.5959    0.4454 H   0  0  0  0  0  0  0  0  0  0  0  0
    0.6194    0.2600    1.7590 C   0  0  0  0  0  0  0  0  0  0  0  0
    0.7915   -0.8071    1.9203 H   0  0  0  0  0  0  0  0  0  0  0  0
    1.6072    0.7234    1.6573 H   0  0  0  0  0  0  0  0  0  0  0  0
   -0.0840    0.8804    2.9826 C   0  0  0  0  0  0  0  0  0  0  0  0
   -0.1836    1.9596    2.8370 H   0  0  0  0  0  0  0  0  0  0  0  0
   -1.0890    0.4603    3.0758 H   0  0  0  0  0  0  0  0  0  0  0  0
    0.6456    0.6420    4.3054 C   0  0  0  0  0  0  0  0  0  0  0  0
    1.6168   -0.0951    4.3476 O   0  0  0  0  0  0  0  0  0  0  0  0
    0.1528    1.2836    5.3891 O   0  0  0  0  0  0  0  0  0  0  0  0
    0.7199    1.0206    6.1302 H   0  0  0  0  0  0  0  0  0  0  0  0
    0.6428    0.2462   -0.8103 C   0  0  0  0  0  0  0  0  0  0  0  0
    0.5573    1.0064   -1.7658 O   0  0  0  0  0  0  0  0  0  0  0  0
    1.4684   -0.8596   -0.8766 N   0  0  0  0  0  0  0  0  0  0  0  0
    1.3299   -1.5576   -0.1465 H   0  0  0  0  0  0  0  0  0  0  0  0
    2.1738   -1.2491   -2.0904 C   0  0  0  0  0  0  0  0  0  0  0  0
    2.8126   -0.4319   -2.4416 H   0  0  0  0  0  0  0  0  0  0  0  0
    2.8067   -2.1202   -1.8962 H   0  0  0  0  0  0  0  0  0  0  0  0
    1.4616   -1.5047   -2.8817 H   0  0  0  0  0  0  0  0  0  0  0  0
  1  2  1  0  0  0  0
  2  3  1  0  0  0  0
  2  4  1  0  0  0  0
  2  5  1  0  0  0  0
  5  6  2  0  0  0  0
  5  7  1  0  0  0  0
  7  8  1  0  0  0  0
  7  9  1  0  0  0  0
  9 10  1  0  0  0  0
  9 11  1  0  0  0  0
  9 21  1  0  0  0  0
 11 12  1  0  0  0  0
 11 13  1  0  0  0  0
 11 14  1  0  0  0  0
 14 15  1  0  0  0  0
 14 16  1  0  0  0  0
 14 17  1  0  0  0  0
 17 18  2  0  0  0  0
 17 19  1  0  0  0  0
 19 20  1  0  0  0  0
 21 22  2  0  0  0  0
 21 23  1  0  0  0  0
 23 24  1  0  0  0  0
 23 25  1  0  0  0  0
 25 26  1  0  0  0  0
 25 27  1  0  0  0  0
 25 28  1  0  0  0  0
M  END
$$$$

  -OEChem-01062216073D

 28 27  0     1  0  0  0  0  0999 V2000
   -3.3355   -2.8798    1.1828 H   0  0  0  0  0  0  0  0  0  0  0  0
   -3.2628   -1.8646    0.7823 C   0  0  0  0  0  0  0  0  0  0  0  0
   -3.8293   -1.1914    1.4301 H   0  0  0  0  0  0  0  0  0  0  0  0
   -3.6985   -1.8489   -0.2197 H   0  0  0  0  0  0  0  0  0  0  0  0
   -1.8111   -1.4293    0.7219 C   0  0  0  0  0  0  0  0  0  0  0  0
   -0.9261   -2.2466    0.9175 O   0  0  0  0  0  0  0  0  0  0  0  0
   -1.4996   -0.1476    0.3121 N   0  0  0  0  0  0  0  0  0  0  0  0
   -2.2912    0.4399    0.0646 H   0  0  0  0  0  0  0  0  0  0  0  0
   -0.1842    0.5173    0.4284 C   0  0  1  0  0  0  0  0  0  0  0  0
   -0.3743    1.5957    0.4105 H   0  0  0  0  0  0  0  0  0  0  0  0
    0.6093    0.2505    1.7291 C   0  0  0  0  0  0  0  0  0  0  0  0
    0.7759   -0.8184    1.8851 H   0  0  0  0  0  0  0  0  0  0  0  0
    1.5999    0.7095    1.6344 H   0  0  0  0  0  0  0  0  0  0  0  0
   -0.0998    0.8670    2.9519 C   0  0  0  0  0  0  0  0  0  0  0  0
   -0.1952    1.9470    2.8104 H   0  0  0  0  0  0  0  0  0  0  0  0
   -1.1064    0.4501    3.0373 H   0  0  0  0  0  0  0  0  0  0  0  0
    0.6190    0.6217    4.2793 C   0  0  0  0  0  0  0  0  0  0  0  0
    1.5879   -0.1178    4.3266 O   0  0  0  0  0  0  0  0  0  0  0  0
    0.1154    1.2560    5.3625 O   0  0  0  0  0  0  0  0  0  0  0  0
    0.6768    0.9896    6.1068 H   0  0  0  0  0  0  0  0  0  0  0  0
    0.6542    0.2365   -0.8318 C   0  0  0  0  0  0  0  0  0  0  0  0
    0.8152    1.1081   -1.6757 O   0  0  0  0  0  0  0  0  0  0  0  0
    1.2223   -1.0112   -0.9970 N   0  0  0  0  0  0  0  0  0  0  0  0
    0.8943   -1.7325   -0.3516 H   0  0  0  0  0  0  0  0  0  0  0  0
    1.9293   -1.4138   -2.2049 C   0  0  0  0  0  0  0  0  0  0  0  0
    2.7629   -0.7330   -2.4069 H   0  0  0  0  0  0  0  0  0  0  0  0
    2.3318   -2.4245   -2.0865 H   0  0  0  0  0  0  0  0  0  0  0  0
    1.2523   -1.4067   -3.0654 H   0  0  0  0  0  0  0  0  0  0  0  0
  1  2  1  0  0  0  0
  2  3  1  0  0  0  0
  2  4  1  0  0  0  0
  2  5  1  0  0  0  0
  5  6  2  0  0  0  0
  5  7  1  0  0  0  0
  7  8  1  0  0  0  0
  7  9  1  0  0  0  0
  9 10  1  0  0  0  0
  9 11  1  0  0  0  0
  9 21  1  0  0  0  0
 11 12  1  0  0  0  0
 11 13  1  0  0  0  0
 11 14  1  0  0  0  0
 14 15  1  0  0  0  0
 14 16  1  0  0  0  0
 14 17  1  0  0  0  0
 17 18  2  0  0  0  0
 17 19  1  0  0  0  0
 19 20  1  0  0  0  0
 21 22  2  0  0  0  0
 21 23  1  0  0  0  0
 23 24  1  0  0  0  0
 23 25  1  0  0  0  0
 25 26  1  0  0  0  0
 25 27  1  0  0  0  0
 25 28  1  0  0  0  0
M  END
$$$$

  -OEChem-01062216073D

 28 27  0     1  0  0  0  0  0999 V2000
   -3.3666   -2.8519    1.2721 H   0  0  0  0  0  0  0  0  0  0  0  0
   -3.2970   -1.8402    0.8622 C   0  0  0  0  0  0  0  0  0  0  0  0
   -3.8173   -1.1539    1.5345 H   0  0  0  0  0  0  0  0  0  0  0  0
   -3.7841   -1.8220   -0.1158 H   0  0  0  0  0  0  0  0  0  0  0  0
   -1.8429   -1.4312    0.7250 C   0  0  0  0  0  0  0  0  0  0  0  0
   -0.9635   -2.2652    0.8672 O   0  0  0  0  0  0  0  0  0  0  0  0
   -1.5286   -0.1554    0.2990 N   0  0  0  0  0  0  0  0  0  0  0  0
   -2.3251    0.4469    0.1101 H   0  0  0  0  0  0  0  0  0  0  0  0
   -0.2082    0.5069    0.3994 C   0  0  1  0  0  0  0  0  0  0  0  0
   -0.3940    1.5861    0.3795 H   0  0  0  0  0  0  0  0  0  0  0  0
    0.5906    0.2332    1.6940 C   0  0  0  0  0  0  0  0  0  0  0  0
    0.7508   -0.8381    1.8439 H   0  0  0  0  0  0  0  0  0  0  0  0
    1.5837    0.6863    1.5945 H   0  0  0  0  0  0  0  0  0  0  0  0
   -0.1075    0.8516    2.9222 C   0  0  0  0  0  0  0  0  0  0  0  0
   -0.1961    1.9326    2.7828 H   0  0  0  0  0  0  0  0  0  0  0  0
   -1.1162    0.4416    3.0133 H   0  0  0  0  0  0  0  0  0  0  0  0
    0.6169    0.5997    4.2452 C   0  0  0  0  0  0  0  0  0  0  0  0
    1.5814   -0.1457    4.2863 O   0  0  0  0  0  0  0  0  0  0  0  0
    0.1203    1.2328    5.3324 O   0  0  0  0  0  0  0  0  0  0  0  0
    0.6832    0.9616    6.0737 H   0  0  0  0  0  0  0  0  0  0  0  0
    0.6370    0.2204   -0.8555 C   0  0  0  0  0  0  0  0  0  0  0  0
    1.0295    1.1395   -1.5615 O   0  0  0  0  0  0  0  0  0  0  0  0
    0.9489   -1.0862   -1.1745 N   0  0  0  0  0  0  0  0  0  0  0  0
    0.5351   -1.8072   -0.5783 H   0  0  0  0  0  0  0  0  0  0  0  0
    1.7022   -1.4760   -2.3580 C   0  0  0  0  0  0  0  0  0  0  0  0
    2.6813   -0.9857   -2.3682 H   0  0  0  0  0  0  0  0  0  0  0  0
    1.8590   -2.5588   -2.3651 H   0  0  0  0  0  0  0  0  0  0  0  0
    1.1587   -1.1974   -3.2668 H   0  0  0  0  0  0  0  0  0  0  0  0
  1  2  1  0  0  0  0
  2  3  1  0  0  0  0
  2  4  1  0  0  0  0
  2  5  1  0  0  0  0
  5  6  2  0  0  0  0
  5  7  1  0  0  0  0
  7  8  1  0  0  0  0
  7  9  1  0  0  0  0
  9 10  1  0  0  0  0
  9 11  1  0  0  0  0
  9 21  1  0  0  0  0
 11 12  1  0  0  0  0
 11 13  1  0  0  0  0
 11 14  1  0  0  0  0
 14 15  1  0  0  0  0
 14 16  1  0  0  0  0
 14 17  1  0  0  0  0
 17 18  2  0  0  0  0
 17 19  1  0  0  0  0
 19 20  1  0  0  0  0
 21 22  2  0  0  0  0
 21 23  1  0  0  0  0
 23 24  1  0  0  0  0
 23 25  1  0  0  0  0
 25 26  1  0  0  0  0
 25 27  1  0  0  0  0
 25 28  1  0  0  0  0
M  END
$$$$

  -OEChem-01062216073D

 28 27  0     1  0  0  0  0  0999 V2000
   -3.4016   -2.8528    1.3146 H   0  0  0  0  0  0  0  0  0  0  0  0
   -3.3387   -1.8246    0.9472 C   0  0  0  0  0  0  0  0  0  0  0  0
   -3.7995   -1.1615    1.6835 H   0  0  0  0  0  0  0  0  0  0  0  0
   -3.8886   -1.7524    0.0057 H   0  0  0  0  0  0  0  0  0  0  0  0
   -1.8888   -1.4347    0.7314 C   0  0  0  0  0  0  0  0  0  0  0  0
   -1.0146   -2.2820    0.8087 O   0  0  0  0  0  0  0  0  0  0  0  0
   -1.5803   -0.1618    0.2939 N   0  0  0  0  0  0  0  0  0  0  0  0
   -2.3804    0.4503    0.1607 H   0  0  0  0  0  0  0  0  0  0  0  0
   -0.2557    0.4983    0.3667 C   0  0  1  0  0  0  0  0  0  0  0  0
   -0.4410    1.5775    0.3497 H   0  0  0  0  0  0  0  0  0  0  0  0
    0.5593    0.2184    1.6492 C   0  0  0  0  0  0  0  0  0  0  0  0
    0.7145   -0.8545    1.7933 H   0  0  0  0  0  0  0  0  0  0  0  0
    1.5536    0.6658    1.5365 H   0  0  0  0  0  0  0  0  0  0  0  0
   -0.1157    0.8381    2.8895 C   0  0  0  0  0  0  0  0  0  0  0  0
   -0.1998    1.9198    2.7537 H   0  0  0  0  0  0  0  0  0  0  0  0
   -1.1252    0.4335    2.9962 H   0  0  0  0  0  0  0  0  0  0  0  0
    0.6291    0.5783    4.1998 C   0  0  0  0  0  0  0  0  0  0  0  0
    1.5896   -0.1729    4.2233 O   0  0  0  0  0  0  0  0  0  0  0  0
    0.1594    1.2173    5.2954 O   0  0  0  0  0  0  0  0  0  0  0  0
    0.7389    0.9473    6.0244 H   0  0  0  0  0  0  0  0  0  0  0  0
    0.5852    0.2180   -0.8939 C   0  0  0  0  0  0  0  0  0  0  0  0
    1.2014    1.1256   -1.4358 O   0  0  0  0  0  0  0  0  0  0  0  0
    0.6506   -1.0645   -1.4015 N   0  0  0  0  0  0  0  0  0  0  0  0
    0.1997   -1.7903   -0.8393 H   0  0  0  0  0  0  0  0  0  0  0  0
    1.5053   -1.4492   -2.5160 C   0  0  0  0  0  0  0  0  0  0  0  0
    2.5579   -1.2768   -2.2685 H   0  0  0  0  0  0  0  0  0  0  0  0
    1.3720   -2.5108   -2.7452 H   0  0  0  0  0  0  0  0  0  0  0  0
    1.2535   -0.8689   -3.4098 H   0  0  0  0  0  0  0  0  0  0  0  0
  1  2  1  0  0  0  0
  2  3  1  0  0  0  0
  2  4  1  0  0  0  0
  2  5  1  0  0  0  0
  5  6  2  0  0  0  0
  5  7  1  0  0  0  0
  7  8  1  0  0  0  0
  7  9  1  0  0  0  0
  9 10  1  0  0  0  0
  9 11  1  0  0  0  0
  9 21  1  0  0  0  0
 11 12  1  0  0  0  0
 11 13  1  0  0  0  0
 11 14  1  0  0  0  0
 14 15  1  0  0  0  0
 14 16  1  0  0  0  0
 14 17  1  0  0  0  0
 17 18  2  0  0  0  0
 17 19  1  0  0  0  0
 19 20  1  0  0  0  0
 21 22  2  0  0  0  0
 21 23  1  0  0  0  0
 23 24  1  0  0  0  0
 23 25  1  0  0  0  0
 25 26  1  0  0  0  0
 25 27  1  0  0  0  0
 25 28  1  0  0  0  0
M  END
$$$$

  -OEChem-01062216073D

 28 27  0     1  0  0  0  0  0999 V2000
   -3.3969   -2.8523    1.3516 H   0  0  0  0  0  0  0  0  0  0  0  0
   -3.3408   -1.8151    1.0090 C   0  0  0  0  0  0  0  0  0  0  0  0
   -3.7562   -1.1673    1.7847 H   0  0  0  0  0  0  0  0  0  0  0  0
   -3.9368   -1.7124    0.0989 H   0  0  0  0  0  0  0  0  0  0  0  0
   -1.8992   -1.4340    0.7319 C   0  0  0  0  0  0  0  0  0  0  0  0
   -1.0302   -2.2890    0.7495 O   0  0  0  0  0  0  0  0  0  0  0  0
   -1.5985   -0.1620    0.2875 N   0  0  0  0  0  0  0  0  0  0  0  0
   -2.4005    0.4563    0.2015 H   0  0  0  0  0  0  0  0  0  0  0  0
   -0.2722    0.4990    0.3480 C   0  0  1  0  0  0  0  0  0  0  0  0
   -0.4563    1.5781    0.3312 H   0  0  0  0  0  0  0  0  0  0  0  0
    0.5436    0.2135    1.6294 C   0  0  0  0  0  0  0  0  0  0  0  0
    0.6929   -0.8609    1.7689 H   0  0  0  0  0  0  0  0  0  0  0  0
    1.5404    0.6560    1.5175 H   0  0  0  0  0  0  0  0  0  0  0  0
   -0.1263    0.8331    2.8729 C   0  0  0  0  0  0  0  0  0  0  0  0
   -0.2050    1.9157    2.7400 H   0  0  0  0  0  0  0  0  0  0  0  0
   -1.1376    0.4340    2.9809 H   0  0  0  0  0  0  0  0  0  0  0  0
    0.6197    0.5673    4.1813 C   0  0  0  0  0  0  0  0  0  0  0  0
    1.5772   -0.1878    4.2020 O   0  0  0  0  0  0  0  0  0  0  0  0
    0.1506    1.2018    5.2800 O   0  0  0  0  0  0  0  0  0  0  0  0
    0.7290    0.9270    6.0080 H   0  0  0  0  0  0  0  0  0  0  0  0
    0.5721    0.2241   -0.9136 C   0  0  0  0  0  0  0  0  0  0  0  0
    1.3644    1.0671   -1.3123 O   0  0  0  0  0  0  0  0  0  0  0  0
    0.4138   -0.9597   -1.6076 N   0  0  0  0  0  0  0  0  0  0  0  0
   -0.1076   -1.6839   -1.1101 H   0  0  0  0  0  0  0  0  0  0  0  0
    1.2675   -1.3491   -2.7218 C   0  0  0  0  0  0  0  0  0  0  0  0
    2.3026   -1.4705   -2.3861 H   0  0  0  0  0  0  0  0  0  0  0  0
    0.9251   -2.2979   -3.1459 H   0  0  0  0  0  0  0  0  0  0  0  0
    1.2395   -0.5899   -3.5105 H   0  0  0  0  0  0  0  0  0  0  0  0
  1  2  1  0  0  0  0
  2  3  1  0  0  0  0
  2  4  1  0  0  0  0
  2  5  1  0  0  0  0
  5  6  2  0  0  0  0
  5  7  1  0  0  0  0
  7  8  1  0  0  0  0
  7  9  1  0  0  0  0
  9 10  1  0  0  0  0
  9 11  1  0  0  0  0
  9 21  1  0  0  0  0
 11 12  1  0  0  0  0
 11 13  1  0  0  0  0
 11 14  1  0  0  0  0
 14 15  1  0  0  0  0
 14 16  1  0  0  0  0
 14 17  1  0  0  0  0
 17 18  2  0  0  0  0
 17 19  1  0  0  0  0
 19 20  1  0  0  0  0
 21 22  2  0  0  0  0
 21 23  1  0  0  0  0
 23 24  1  0  0  0  0
 23 25  1  0  0  0  0
 25 26  1  0  0  0  0
 25 27  1  0  0  0  0
 25 28  1  0  0  0  0
M  END
$$$$

  -OEChem-01062216073D

 28 27  0     1  0  0  0  0  0999 V2000
   -3.3794   -2.8418    1.4132 H   0  0  0  0  0  0  0  0  0  0  0  0
   -3.3302   -1.8065    1.0634 C   0  0  0  0  0  0  0  0  0  0  0  0
   -3.7121   -1.1525    1.8509 H   0  0  0  0  0  0  0  0  0  0  0  0
   -3.9595   -1.7040    0.1760 H   0  0  0  0  0  0  0  0  0  0  0  0
   -1.8975   -1.4361    0.7309 C   0  0  0  0  0  0  0  0  0  0  0  0
   -1.0368   -2.2980    0.7051 O   0  0  0  0  0  0  0  0  0  0  0  0
   -1.6027   -0.1640    0.2835 N   0  0  0  0  0  0  0  0  0  0  0  0
   -2.4031    0.4608    0.2418 H   0  0  0  0  0  0  0  0  0  0  0  0
   -0.2736    0.4938    0.3367 C   0  0  1  0  0  0  0  0  0  0  0  0
   -0.4549    1.5733    0.3199 H   0  0  0  0  0  0  0  0  0  0  0  0
    0.5343    0.2029    1.6230 C   0  0  0  0  0  0  0  0  0  0  0  0
    0.6750   -0.8727    1.7631 H   0  0  0  0  0  0  0  0  0  0  0  0
    1.5354    0.6372    1.5181 H   0  0  0  0  0  0  0  0  0  0  0  0
   -0.1374    0.8282    2.8629 C   0  0  0  0  0  0  0  0  0  0  0  0
   -0.2064    1.9113    2.7292 H   0  0  0  0  0  0  0  0  0  0  0  0
   -1.1524    0.4375    2.9664 H   0  0  0  0  0  0  0  0  0  0  0  0
    0.5998    0.5576    4.1751 C   0  0  0  0  0  0  0  0  0  0  0  0
    1.5514   -0.2044    4.2017 O   0  0  0  0  0  0  0  0  0  0  0  0
    0.1284    1.1947    5.2711 O   0  0  0  0  0  0  0  0  0  0  0  0
    0.7020    0.9163    6.0015 H   0  0  0  0  0  0  0  0  0  0  0  0
    0.5742    0.2249   -0.9260 C   0  0  0  0  0  0  0  0  0  0  0  0
    1.5142    0.9616   -1.1937 O   0  0  0  0  0  0  0  0  0  0  0  0
    0.2267   -0.7866   -1.8007 N   0  0  0  0  0  0  0  0  0  0  0  0
   -0.4042   -1.4854   -1.4092 H   0  0  0  0  0  0  0  0  0  0  0  0
    1.0518   -1.1580   -2.9430 C   0  0  0  0  0  0  0  0  0  0  0  0
    2.0303   -1.5168   -2.6073 H   0  0  0  0  0  0  0  0  0  0  0  0
    0.5667   -1.9537   -3.5166 H   0  0  0  0  0  0  0  0  0  0  0  0
    1.2004   -0.2986   -3.6052 H   0  0  0  0  0  0  0  0  0  0  0  0
  1  2  1  0  0  0  0
  2  3  1  0  0  0  0
  2  4  1  0  0  0  0
  2  5  1  0  0  0  0
  5  6  2  0  0  0  0
  5  7  1  0  0  0  0
  7  8  1  0  0  0  0
  7  9  1  0  0  0  0
  9 10  1  0  0  0  0
  9 11  1  0  0  0  0
  9 21  1  0  0  0  0
 11 12  1  0  0  0  0
 11 13  1  0  0  0  0
 11 14  1  0  0  0  0
 14 15  1  0  0  0  0
 14 16  1  0  0  0  0
 14 17  1  0  0  0  0
 17 18  2  0  0  0  0
 17 19  1  0  0  0  0
 19 20  1  0  0  0  0
 21 22  2  0  0  0  0
 21 23  1  0  0  0  0
 23 24  1  0  0  0  0
 23 25  1  0  0  0  0
 25 26  1  0  0  0  0
 25 27  1  0  0  0  0
 25 28  1  0  0  0  0
M  END
$$$$

  -OEChem-01062216073D

 28 27  0     1  0  0  0  0  0999 V2000
   -3.3808   -2.8433    1.4297 H   0  0  0  0  0  0  0  0  0  0  0  0
   -3.3302   -1.8186    1.0505 C   0  0  0  0  0  0  0  0  0  0  0  0
   -3.7345   -1.1448    1.8097 H   0  0  0  0  0  0  0  0  0  0  0  0
   -3.9397   -1.7472    0.1464 H   0  0  0  0  0  0  0  0  0  0  0  0
   -1.8924   -1.4488    0.7393 C   0  0  0  0  0  0  0  0  0  0  0  0
   -1.0318   -2.3096    0.7467 O   0  0  0  0  0  0  0  0  0  0  0  0
   -1.5956   -0.1747    0.2960 N   0  0  0  0  0  0  0  0  0  0  0  0
   -2.3960    0.4501    0.2558 H   0  0  0  0  0  0  0  0  0  0  0  0
   -0.2654    0.4831    0.3423 C   0  0  1  0  0  0  0  0  0  0  0  0
   -0.4476    1.5621    0.3260 H   0  0  0  0  0  0  0  0  0  0  0  0
    0.5411    0.1962    1.6324 C   0  0  0  0  0  0  0  0  0  0  0  0
    0.6804   -0.8788    1.7774 H   0  0  0  0  0  0  0  0  0  0  0  0
    1.5435    0.6277    1.5302 H   0  0  0  0  0  0  0  0  0  0  0  0
   -0.1305    0.8286    2.8688 C   0  0  0  0  0  0  0  0  0  0  0  0
   -0.1970    1.9111    2.7298 H   0  0  0  0  0  0  0  0  0  0  0  0
   -1.1462    0.4401    2.9730 H   0  0  0  0  0  0  0  0  0  0  0  0
    0.6050    0.5623    4.1830 C   0  0  0  0  0  0  0  0  0  0  0  0
    1.5550   -0.2014    4.2144 O   0  0  0  0  0  0  0  0  0  0  0  0
    0.1344    1.2060    5.2754 O   0  0  0  0  0  0  0  0  0  0  0  0
    0.7064    0.9279    6.0073 H   0  0  0  0  0  0  0  0  0  0  0  0
    0.5777    0.2224   -0.9279 C   0  0  0  0  0  0  0  0  0  0  0  0
    1.6387    0.8114   -1.0872 O   0  0  0  0  0  0  0  0  0  0  0  0
    0.0783   -0.5555   -1.9552 N   0  0  0  0  0  0  0  0  0  0  0  0
   -0.6898   -1.1673   -1.6908 H   0  0  0  0  0  0  0  0  0  0  0  0
    0.8599   -0.8922   -3.1385 C   0  0  0  0  0  0  0  0  0  0  0  0
    1.7520   -1.4622   -2.8582 H   0  0  0  0  0  0  0  0  0  0  0  0
    0.2622   -1.4973   -3.8269 H   0  0  0  0  0  0  0  0  0  0  0  0
    1.1729    0.0167   -3.6633 H   0  0  0  0  0  0  0  0  0  0  0  0
  1  2  1  0  0  0  0
  2  3  1  0  0  0  0
  2  4  1  0  0  0  0
  2  5  1  0  0  0  0
  5  6  2  0  0  0  0
  5  7  1  0  0  0  0
  7  8  1  0  0  0  0
  7  9  1  0  0  0  0
  9 10  1  0  0  0  0
  9 11  1  0  0  0  0
  9 21  1  0  0  0  0
 11 12  1  0  0  0  0
 11 13  1  0  0  0  0
 11 14  1  0  0  0  0
 14 15  1  0  0  0  0
 14 16  1  0  0  0  0
 14 17  1  0  0  0  0
 17 18  2  0  0  0  0
 17 19  1  0  0  0  0
 19 20  1  0  0  0  0
 21 22  2  0  0  0  0
 21 23  1  0  0  0  0
 23 24  1  0  0  0  0
 23 25  1  0  0  0  0
 25 26  1  0  0  0  0
 25 27  1  0  0  0  0
 25 28  1  0  0  0  0
M  END
$$$$

  -OEChem-01062216073D

 28 27  0     1  0  0  0  0  0999 V2000
   -3.3609   -2.8700    1.3814 H   0  0  0  0  0  0  0  0  0  0  0  0
   -3.3087   -1.8346    1.0318 C   0  0  0  0  0  0  0  0  0  0  0  0
   -3.7109   -1.1820    1.8106 H   0  0  0  0  0  0  0  0  0  0  0  0
   -3.9188   -1.7363    0.1306 H   0  0  0  0  0  0  0  0  0  0  0  0
   -1.8706   -1.4580    0.7300 C   0  0  0  0  0  0  0  0  0  0  0  0
   -1.0064   -2.3141    0.7595 O   0  0  0  0  0  0  0  0  0  0  0  0
   -1.5794   -0.1788    0.2950 N   0  0  0  0  0  0  0  0  0  0  0  0
   -2.3818    0.4441    0.2706 H   0  0  0  0  0  0  0  0  0  0  0  0
   -0.2500    0.4813    0.3439 C   0  0  1  0  0  0  0  0  0  0  0  0
   -0.4333    1.5600    0.3294 H   0  0  0  0  0  0  0  0  0  0  0  0
    0.5510    0.1955    1.6399 C   0  0  0  0  0  0  0  0  0  0  0  0
    0.6930   -0.8788    1.7861 H   0  0  0  0  0  0  0  0  0  0  0  0
    1.5530    0.6294    1.5469 H   0  0  0  0  0  0  0  0  0  0  0  0
   -0.1287    0.8292    2.8718 C   0  0  0  0  0  0  0  0  0  0  0  0
   -0.1957    1.9114    2.7319 H   0  0  0  0  0  0  0  0  0  0  0  0
   -1.1446    0.4394    2.9707 H   0  0  0  0  0  0  0  0  0  0  0  0
    0.5984    0.5658    4.1912 C   0  0  0  0  0  0  0  0  0  0  0  0
    1.5487   -0.1969    4.2316 O   0  0  0  0  0  0  0  0  0  0  0  0
    0.1203    1.2131    5.2783 O   0  0  0  0  0  0  0  0  0  0  0  0
    0.6880    0.9374    6.0145 H   0  0  0  0  0  0  0  0  0  0  0  0
    0.5844    0.2263   -0.9353 C   0  0  0  0  0  0  0  0  0  0  0  0
    1.7444    0.6101   -1.0069 O   0  0  0  0  0  0  0  0  0  0  0  0
   -0.0220   -0.2714   -2.0738 N   0  0  0  0  0  0  0  0  0  0  0  0
   -0.9192   -0.7225   -1.9218 H   0  0  0  0  0  0  0  0  0  0  0  0
    0.7209   -0.5887   -3.2878 C   0  0  0  0  0  0  0  0  0  0  0  0
    1.4709   -1.3609   -3.0863 H   0  0  0  0  0  0  0  0  0  0  0  0
    0.0412   -0.9575   -4.0619 H   0  0  0  0  0  0  0  0  0  0  0  0
    1.2281    0.3027   -3.6720 H   0  0  0  0  0  0  0  0  0  0  0  0
  1  2  1  0  0  0  0
  2  3  1  0  0  0  0
  2  4  1  0  0  0  0
  2  5  1  0  0  0  0
  5  6  2  0  0  0  0
  5  7  1  0  0  0  0
  7  8  1  0  0  0  0
  7  9  1  0  0  0  0
  9 10  1  0  0  0  0
  9 11  1  0  0  0  0
  9 21  1  0  0  0  0
 11 12  1  0  0  0  0
 11 13  1  0  0  0  0
 11 14  1  0  0  0  0
 14 15  1  0  0  0  0
 14 16  1  0  0  0  0
 14 17  1  0  0  0  0
 17 18  2  0  0  0  0
 17 19  1  0  0  0  0
 19 20  1  0  0  0  0
 21 22  2  0  0  0  0
 21 23  1  0  0  0  0
 23 24  1  0  0  0  0
 23 25  1  0  0  0  0
 25 26  1  0  0  0  0
 25 27  1  0  0  0  0
 25 28  1  0  0  0  0
M  END
$$$$

  -OEChem-01062216073D

 28 27  0     1  0  0  0  0  0999 V2000
   -3.3409   -2.8740    1.3757 H   0  0  0  0  0  0  0  0  0  0  0  0
   -3.2901   -1.8477    1.0004 C   0  0  0  0  0  0  0  0  0  0  0  0
   -3.7132   -1.1790    1.7539 H   0  0  0  0  0  0  0  0  0  0  0  0
   -3.8826   -1.7778    0.0850 H   0  0  0  0  0  0  0  0  0  0  0  0
   -1.8490   -1.4673    0.7172 C   0  0  0  0  0  0  0  0  0  0  0  0
   -0.9834   -2.3203    0.7724 O   0  0  0  0  0  0  0  0  0  0  0  0
   -1.5580   -0.1843    0.2913 N   0  0  0  0  0  0  0  0  0  0  0  0
   -2.3608    0.4381    0.2775 H   0  0  0  0  0  0  0  0  0  0  0  0
   -0.2287    0.4746    0.3468 C   0  0  1  0  0  0  0  0  0  0  0  0
   -0.4102    1.5533    0.3334 H   0  0  0  0  0  0  0  0  0  0  0  0
    0.5653    0.1913    1.6490 C   0  0  0  0  0  0  0  0  0  0  0  0
    0.7084   -0.8823    1.7984 H   0  0  0  0  0  0  0  0  0  0  0  0
    1.5671    0.6268    1.5624 H   0  0  0  0  0  0  0  0  0  0  0  0
   -0.1234    0.8294    2.8736 C   0  0  0  0  0  0  0  0  0  0  0  0
   -0.1898    1.9110    2.7289 H   0  0  0  0  0  0  0  0  0  0  0  0
   -1.1397    0.4394    2.9658 H   0  0  0  0  0  0  0  0  0  0  0  0
    0.5921    0.5716    4.2005 C   0  0  0  0  0  0  0  0  0  0  0  0
    1.5421   -0.1905    4.2536 O   0  0  0  0  0  0  0  0  0  0  0  0
    0.1042    1.2244    5.2799 O   0  0  0  0  0  0  0  0  0  0  0  0
    0.6636    0.9507    6.0232 H   0  0  0  0  0  0  0  0  0  0  0  0
    0.5957    0.2197   -0.9400 C   0  0  0  0  0  0  0  0  0  0  0  0
    1.8111    0.3628   -0.9533 O   0  0  0  0  0  0  0  0  0  0  0  0
   -0.0579    0.0321   -2.1445 N   0  0  0  0  0  0  0  0  0  0  0  0
   -1.0382   -0.2215   -2.0748 H   0  0  0  0  0  0  0  0  0  0  0  0
    0.6484   -0.2459   -3.3898 C   0  0  0  0  0  0  0  0  0  0  0  0
    1.2265   -1.1722   -3.3030 H   0  0  0  0  0  0  0  0  0  0  0  0
   -0.0640   -0.3563   -4.2128 H   0  0  0  0  0  0  0  0  0  0  0  0
    1.3320    0.5737   -3.6354 H   0  0  0  0  0  0  0  0  0  0  0  0
  1  2  1  0  0  0  0
  2  3  1  0  0  0  0
  2  4  1  0  0  0  0
  2  5  1  0  0  0  0
  5  6  2  0  0  0  0
  5  7  1  0  0  0  0
  7  8  1  0  0  0  0
  7  9  1  0  0  0  0
  9 10  1  0  0  0  0
  9 11  1  0  0  0  0
  9 21  1  0  0  0  0
 11 12  1  0  0  0  0
 11 13  1  0  0  0  0
 11 14  1  0  0  0  0
 14 15  1  0  0  0  0
 14 16  1  0  0  0  0
 14 17  1  0  0  0  0
 17 18  2  0  0  0  0
 17 19  1  0  0  0  0
 19 20  1  0  0  0  0
 21 22  2  0  0  0  0
 21 23  1  0  0  0  0
 23 24  1  0  0  0  0
 23 25  1  0  0  0  0
 25 26  1  0  0  0  0
 25 27  1  0  0  0  0
 25 28  1  0  0  0  0
M  END
$$$$

  -OEChem-01062216073D

 28 27  0     1  0  0  0  0  0999 V2000
   -3.3449   -2.8776    1.3565 H   0  0  0  0  0  0  0  0  0  0  0  0
   -3.2886   -1.8591    0.9615 C   0  0  0  0  0  0  0  0  0  0  0  0
   -3.7377   -1.1774    1.6876 H   0  0  0  0  0  0  0  0  0  0  0  0
   -3.8534   -1.8124    0.0274 H   0  0  0  0  0  0  0  0  0  0  0  0
   -1.8420   -1.4760    0.7132 C   0  0  0  0  0  0  0  0  0  0  0  0
   -0.9766   -2.3254    0.8094 O   0  0  0  0  0  0  0  0  0  0  0  0
   -1.5476   -0.1922    0.2908 N   0  0  0  0  0  0  0  0  0  0  0  0
   -2.3531    0.4253    0.2583 H   0  0  0  0  0  0  0  0  0  0  0  0
   -0.2208    0.4689    0.3496 C   0  0  1  0  0  0  0  0  0  0  0  0
   -0.4037    1.5472    0.3366 H   0  0  0  0  0  0  0  0  0  0  0  0
    0.5735    0.1920    1.6531 C   0  0  0  0  0  0  0  0  0  0  0  0
    0.7210   -0.8808    1.8055 H   0  0  0  0  0  0  0  0  0  0  0  0
    1.5736    0.6311    1.5644 H   0  0  0  0  0  0  0  0  0  0  0  0
   -0.1172    0.8307    2.8760 C   0  0  0  0  0  0  0  0  0  0  0  0
   -0.1878    1.9116    2.7288 H   0  0  0  0  0  0  0  0  0  0  0  0
   -1.1320    0.4364    2.9691 H   0  0  0  0  0  0  0  0  0  0  0  0
    0.5994    0.5787    4.2034 C   0  0  0  0  0  0  0  0  0  0  0  0
    1.5520   -0.1798    4.2587 O   0  0  0  0  0  0  0  0  0  0  0  0
    0.1119    1.2360    5.2803 O   0  0  0  0  0  0  0  0  0  0  0  0
    0.6736    0.9665    6.0234 H   0  0  0  0  0  0  0  0  0  0  0  0
    0.5981    0.2112   -0.9405 C   0  0  0  0  0  0  0  0  0  0  0  0
    1.8159    0.0918   -0.9168 O   0  0  0  0  0  0  0  0  0  0  0  0
   -0.0227    0.3332   -2.1712 N   0  0  0  0  0  0  0  0  0  0  0  0
   -1.0367    0.3069   -2.1634 H   0  0  0  0  0  0  0  0  0  0  0  0
    0.6730    0.1047   -3.4328 C   0  0  0  0  0  0  0  0  0  0  0  0
    1.0526   -0.9216   -3.4799 H   0  0  0  0  0  0  0  0  0  0  0  0
   -0.0071    0.2631   -4.2751 H   0  0  0  0  0  0  0  0  0  0  0  0
    1.5157    0.7963   -3.5375 H   0  0  0  0  0  0  0  0  0  0  0  0
  1  2  1  0  0  0  0
  2  3  1  0  0  0  0
  2  4  1  0  0  0  0
  2  5  1  0  0  0  0
  5  6  2  0  0  0  0
  5  7  1  0  0  0  0
  7  8  1  0  0  0  0
  7  9  1  0  0  0  0
  9 10  1  0  0  0  0
  9 11  1  0  0  0  0
  9 21  1  0  0  0  0
 11 12  1  0  0  0  0
 11 13  1  0  0  0  0
 11 14  1  0  0  0  0
 14 15  1  0  0  0  0
 14 16  1  0  0  0  0
 14 17  1  0  0  0  0
 17 18  2  0  0  0  0
 17 19  1  0  0  0  0
 19 20  1  0  0  0  0
 21 22  2  0  0  0  0
 21 23  1  0  0  0  0
 23 24  1  0  0  0  0
 23 25  1  0  0  0  0
 25 26  1  0  0  0  0
 25 27  1  0  0  0  0
 25 28  1  0  0  0  0
M  END
$$$$

  -OEChem-01062216073D

 28 27  0     1  0  0  0  0  0999 V2000
   -3.3834   -2.8949    1.2757 H   0  0  0  0  0  0  0  0  0  0  0  0
   -3.3082   -1.8748    0.8877 C   0  0  0  0  0  0  0  0  0  0  0  0
   -3.8043   -1.1976    1.5870 H   0  0  0  0  0  0  0  0  0  0  0  0
   -3.8149   -1.8286   -0.0793 H   0  0  0  0  0  0  0  0  0  0  0  0
   -1.8507   -1.4835    0.7299 C   0  0  0  0  0  0  0  0  0  0  0  0
   -0.9901   -2.3219    0.9177 O   0  0  0  0  0  0  0  0  0  0  0  0
   -1.5449   -0.2021    0.3066 N   0  0  0  0  0  0  0  0  0  0  0  0
   -2.3532    0.4031    0.2018 H   0  0  0  0  0  0  0  0  0  0  0  0
   -0.2220    0.4662    0.3604 C   0  0  1  0  0  0  0  0  0  0  0  0
   -0.4100    1.5436    0.3488 H   0  0  0  0  0  0  0  0  0  0  0  0
    0.5867    0.1997    1.6564 C   0  0  0  0  0  0  0  0  0  0  0  0
    0.7456   -0.8713    1.8100 H   0  0  0  0  0  0  0  0  0  0  0  0
    1.5820    0.6467    1.5532 H   0  0  0  0  0  0  0  0  0  0  0  0
   -0.0980    0.8355    2.8841 C   0  0  0  0  0  0  0  0  0  0  0  0
   -0.1821    1.9149    2.7343 H   0  0  0  0  0  0  0  0  0  0  0  0
   -1.1077    0.4303    2.9870 H   0  0  0  0  0  0  0  0  0  0  0  0
    0.6321    0.5944    4.2063 C   0  0  0  0  0  0  0  0  0  0  0  0
    1.5921   -0.1550    4.2568 O   0  0  0  0  0  0  0  0  0  0  0  0
    0.1489    1.2533    5.2843 O   0  0  0  0  0  0  0  0  0  0  0  0
    0.7168    0.9887    6.0245 H   0  0  0  0  0  0  0  0  0  0  0  0
    0.5909    0.2045   -0.9327 C   0  0  0  0  0  0  0  0  0  0  0  0
    1.7516   -0.1816   -0.9037 O   0  0  0  0  0  0  0  0  0  0  0  0
    0.0713    0.6139   -2.1486 N   0  0  0  0  0  0  0  0  0  0  0  0
   -0.9146    0.8499   -2.1686 H   0  0  0  0  0  0  0  0  0  0  0  0
    0.7742    0.4294   -3.4133 C   0  0  0  0  0  0  0  0  0  0  0  0
    0.9556   -0.6347   -3.5984 H   0  0  0  0  0  0  0  0  0  0  0  0
    0.1794    0.8295   -4.2399 H   0  0  0  0  0  0  0  0  0  0  0  0
    1.7364    0.9525   -3.3976 H   0  0  0  0  0  0  0  0  0  0  0  0
  1  2  1  0  0  0  0
  2  3  1  0  0  0  0
  2  4  1  0  0  0  0
  2  5  1  0  0  0  0
  5  6  2  0  0  0  0
  5  7  1  0  0  0  0
  7  8  1  0  0  0  0
  7  9  1  0  0  0  0
  9 10  1  0  0  0  0
  9 11  1  0  0  0  0
  9 21  1  0  0  0  0
 11 12  1  0  0  0  0
 11 13  1  0  0  0  0
 11 14  1  0  0  0  0
 14 15  1  0  0  0  0
 14 16  1  0  0  0  0
 14 17  1  0  0  0  0
 17 18  2  0  0  0  0
 17 19  1  0  0  0  0
 19 20  1  0  0  0  0
 21 22  2  0  0  0  0
 21 23  1  0  0  0  0
 23 24  1  0  0  0  0
 23 25  1  0  0  0  0
 25 26  1  0  0  0  0
 25 27  1  0  0  0  0
 25 28  1  0  0  0  0
M  END
$$$$

  -OEChem-01062216073D

 28 27  0     1  0  0  0  0  0999 V2000
   -3.4516   -2.9128    1.1504 H   0  0  0  0  0  0  0  0  0  0  0  0
   -3.3421   -1.9082    0.7313 C   0  0  0  0  0  0  0  0  0  0  0  0
   -3.9618   -1.2188    1.3093 H   0  0  0  0  0  0  0  0  0  0  0  0
   -3.6889   -1.9211   -0.3048 H   0  0  0  0  0  0  0  0  0  0  0  0
   -1.8886   -1.4750    0.7868 C   0  0  0  0  0  0  0  0  0  0  0  0
   -1.0566   -2.2736    1.1709 O   0  0  0  0  0  0  0  0  0  0  0  0
   -1.5615   -0.2003    0.3565 N   0  0  0  0  0  0  0  0  0  0  0  0
   -2.3550    0.3565    0.0563 H   0  0  0  0  0  0  0  0  0  0  0  0
   -0.2416    0.4757    0.3944 C   0  0  1  0  0  0  0  0  0  0  0  0
   -0.4368    1.5518    0.3864 H   0  0  0  0  0  0  0  0  0  0  0  0
    0.6023    0.2214    1.6685 C   0  0  0  0  0  0  0  0  0  0  0  0
    0.7788   -0.8473    1.8187 H   0  0  0  0  0  0  0  0  0  0  0  0
    1.5897    0.6777    1.5347 H   0  0  0  0  0  0  0  0  0  0  0  0
   -0.0561    0.8501    2.9137 C   0  0  0  0  0  0  0  0  0  0  0  0
   -0.1582    1.9284    2.7668 H   0  0  0  0  0  0  0  0  0  0  0  0
   -1.0575    0.4319    3.0434 H   0  0  0  0  0  0  0  0  0  0  0  0
    0.7129    0.6185    4.2152 C   0  0  0  0  0  0  0  0  0  0  0  0
    1.6829   -0.1196    4.2394 O   0  0  0  0  0  0  0  0  0  0  0  0
    0.2557    1.2770    5.3050 O   0  0  0  0  0  0  0  0  0  0  0  0
    0.8450    1.0165    6.0295 H   0  0  0  0  0  0  0  0  0  0  0  0
    0.5583    0.2028   -0.9039 C   0  0  0  0  0  0  0  0  0  0  0  0
    1.5822   -0.4658   -0.9107 O   0  0  0  0  0  0  0  0  0  0  0  0
    0.1993    0.8562   -2.0707 N   0  0  0  0  0  0  0  0  0  0  0  0
   -0.6573    1.3986   -2.0626 H   0  0  0  0  0  0  0  0  0  0  0  0
    0.9232    0.6987   -3.3275 C   0  0  0  0  0  0  0  0  0  0  0  0
    0.9133   -0.3490   -3.6466 H   0  0  0  0  0  0  0  0  0  0  0  0
    0.4585    1.3038   -4.1120 H   0  0  0  0  0  0  0  0  0  0  0  0
    1.9638    1.0211   -3.2134 H   0  0  0  0  0  0  0  0  0  0  0  0
  1  2  1  0  0  0  0
  2  3  1  0  0  0  0
  2  4  1  0  0  0  0
  2  5  1  0  0  0  0
  5  6  2  0  0  0  0
  5  7  1  0  0  0  0
  7  8  1  0  0  0  0
  7  9  1  0  0  0  0
  9 10  1  0  0  0  0
  9 11  1  0  0  0  0
  9 21  1  0  0  0  0
 11 12  1  0  0  0  0
 11 13  1  0  0  0  0
 11 14  1  0  0  0  0
 14 15  1  0  0  0  0
 14 16  1  0  0  0  0
 14 17  1  0  0  0  0
 17 18  2  0  0  0  0
 17 19  1  0  0  0  0
 19 20  1  0  0  0  0
 21 22  2  0  0  0  0
 21 23  1  0  0  0  0
 23 24  1  0  0  0  0
 23 25  1  0  0  0  0
 25 26  1  0  0  0  0
 25 27  1  0  0  0  0
 25 28  1  0  0  0  0
M  END
$$$$

  -OEChem-01062216073D

 28 27  0     1  0  0  0  0  0999 V2000
   -3.4585   -2.9539    0.9804 H   0  0  0  0  0  0  0  0  0  0  0  0
   -3.3410   -1.9392    0.5891 C   0  0  0  0  0  0  0  0  0  0  0  0
   -4.0673   -1.2876    1.0804 H   0  0  0  0  0  0  0  0  0  0  0  0
   -3.5395   -1.9541   -0.4852 H   0  0  0  0  0  0  0  0  0  0  0  0
   -1.9325   -1.4383    0.8503 C   0  0  0  0  0  0  0  0  0  0  0  0
   -1.1644   -2.1607    1.4557 O   0  0  0  0  0  0  0  0  0  0  0  0
   -1.5952   -0.1704    0.4051 N   0  0  0  0  0  0  0  0  0  0  0  0
   -2.3340    0.2948   -0.1119 H   0  0  0  0  0  0  0  0  0  0  0  0
   -0.2742    0.5046    0.4283 C   0  0  1  0  0  0  0  0  0  0  0  0
   -0.4708    1.5803    0.4255 H   0  0  0  0  0  0  0  0  0  0  0  0
    0.6071    0.2487    1.6746 C   0  0  0  0  0  0  0  0  0  0  0  0
    0.7975   -0.8197    1.8118 H   0  0  0  0  0  0  0  0  0  0  0  0
    1.5865    0.7127    1.5140 H   0  0  0  0  0  0  0  0  0  0  0  0
   -0.0199    0.8662    2.9405 C   0  0  0  0  0  0  0  0  0  0  0  0
   -0.1364    1.9441    2.8024 H   0  0  0  0  0  0  0  0  0  0  0  0
   -1.0136    0.4375    3.0950 H   0  0  0  0  0  0  0  0  0  0  0  0
    0.7876    0.6327    4.2178 C   0  0  0  0  0  0  0  0  0  0  0  0
    1.7631   -0.0990    4.2099 O   0  0  0  0  0  0  0  0  0  0  0  0
    0.3592    1.2840    5.3235 O   0  0  0  0  0  0  0  0  0  0  0  0
    0.9658    1.0169    6.0309 H   0  0  0  0  0  0  0  0  0  0  0  0
    0.5135    0.2135   -0.8722 C   0  0  0  0  0  0  0  0  0  0  0  0
    1.2986   -0.7190   -0.9618 O   0  0  0  0  0  0  0  0  0  0  0  0
    0.3718    1.0591   -1.9594 N   0  0  0  0  0  0  0  0  0  0  0  0
   -0.2498    1.8551   -1.8638 H   0  0  0  0  0  0  0  0  0  0  0  0
    1.1232    0.8960   -3.1994 C   0  0  0  0  0  0  0  0  0  0  0  0
    0.9163   -0.0818   -3.6474 H   0  0  0  0  0  0  0  0  0  0  0  0
    0.8418    1.6715   -3.9182 H   0  0  0  0  0  0  0  0  0  0  0  0
    2.1990    0.9750   -3.0091 H   0  0  0  0  0  0  0  0  0  0  0  0
  1  2  1  0  0  0  0
  2  3  1  0  0  0  0
  2  4  1  0  0  0  0
  2  5  1  0  0  0  0
  5  6  2  0  0  0  0
  5  7  1  0  0  0  0
  7  8  1  0  0  0  0
  7  9  1  0  0  0  0
  9 10  1  0  0  0  0
  9 11  1  0  0  0  0
  9 21  1  0  0  0  0
 11 12  1  0  0  0  0
 11 13  1  0  0  0  0
 11 14  1  0  0  0  0
 14 15  1  0  0  0  0
 14 16  1  0  0  0  0
 14 17  1  0  0  0  0
 17 18  2  0  0  0  0
 17 19  1  0  0  0  0
 19 20  1  0  0  0  0
 21 22  2  0  0  0  0
 21 23  1  0  0  0  0
 23 24  1  0  0  0  0
 23 25  1  0  0  0  0
 25 26  1  0  0  0  0
 25 27  1  0  0  0  0
 25 28  1  0  0  0  0
M  END
$$$$

  -OEChem-01062216073D

 28 27  0     1  0  0  0  0  0999 V2000
   -3.4107   -2.9735    0.8722 H   0  0  0  0  0  0  0  0  0  0  0  0
   -3.2926   -1.9647    0.4662 C   0  0  0  0  0  0  0  0  0  0  0  0
   -4.1097   -1.3397    0.8340 H   0  0  0  0  0  0  0  0  0  0  0  0
   -3.3430   -2.0193   -0.6238 H   0  0  0  0  0  0  0  0  0  0  0  0
   -1.9590   -1.3815    0.8954 C   0  0  0  0  0  0  0  0  0  0  0  0
   -1.2698   -2.0215    1.6675 O   0  0  0  0  0  0  0  0  0  0  0  0
   -1.6230   -0.1165    0.4400 N   0  0  0  0  0  0  0  0  0  0  0  0
   -2.2962    0.2627   -0.2181 H   0  0  0  0  0  0  0  0  0  0  0  0
   -0.2968    0.5485    0.4629 C   0  0  1  0  0  0  0  0  0  0  0  0
   -0.4884    1.6250    0.4644 H   0  0  0  0  0  0  0  0  0  0  0  0
    0.6056    0.2775    1.6884 C   0  0  0  0  0  0  0  0  0  0  0  0
    0.7946   -0.7937    1.8082 H   0  0  0  0  0  0  0  0  0  0  0  0
    1.5833    0.7407    1.5162 H   0  0  0  0  0  0  0  0  0  0  0  0
    0.0027    0.8814    2.9724 C   0  0  0  0  0  0  0  0  0  0  0  0
   -0.1152    1.9608    2.8489 H   0  0  0  0  0  0  0  0  0  0  0  0
   -0.9888    0.4521    3.1409 H   0  0  0  0  0  0  0  0  0  0  0  0
    0.8340    0.6314    4.2311 C   0  0  0  0  0  0  0  0  0  0  0  0
    1.8078   -0.1020    4.1944 O   0  0  0  0  0  0  0  0  0  0  0  0
    0.4303    1.2711    5.3527 O   0  0  0  0  0  0  0  0  0  0  0  0
    1.0459    0.9888    6.0461 H   0  0  0  0  0  0  0  0  0  0  0  0
    0.4867    0.2428   -0.8351 C   0  0  0  0  0  0  0  0  0  0  0  0
    0.9460   -0.8673   -1.0597 O   0  0  0  0  0  0  0  0  0  0  0  0
    0.6118    1.2184   -1.8093 N   0  0  0  0  0  0  0  0  0  0  0  0
    0.2565    2.1459   -1.6005 H   0  0  0  0  0  0  0  0  0  0  0  0
    1.3372    1.0077   -3.0575 C   0  0  0  0  0  0  0  0  0  0  0  0
    0.9016    0.1740   -3.6184 H   0  0  0  0  0  0  0  0  0  0  0  0
    1.2881    1.9053   -3.6814 H   0  0  0  0  0  0  0  0  0  0  0  0
    2.3900    0.7835   -2.8552 H   0  0  0  0  0  0  0  0  0  0  0  0
  1  2  1  0  0  0  0
  2  3  1  0  0  0  0
  2  4  1  0  0  0  0
  2  5  1  0  0  0  0
  5  6  2  0  0  0  0
  5  7  1  0  0  0  0
  7  8  1  0  0  0  0
  7  9  1  0  0  0  0
  9 10  1  0  0  0  0
  9 11  1  0  0  0  0
  9 21  1  0  0  0  0
 11 12  1  0  0  0  0
 11 13  1  0  0  0  0
 11 14  1  0  0  0  0
 14 15  1  0  0  0  0
 14 16  1  0  0  0  0
 14 17  1  0  0  0  0
 17 18  2  0  0  0  0
 17 19  1  0  0  0  0
 19 20  1  0  0  0  0
 21 22  2  0  0  0  0
 21 23  1  0  0  0  0
 23 24  1  0  0  0  0
 23 25  1  0  0  0  0
 25 26  1  0  0  0  0
 25 27  1  0  0  0  0
 25 28  1  0  0  0  0
M  END
$$$$

  -OEChem-01062216073D

 28 27  0     1  0  0  0  0  0999 V2000
   -3.3881   -2.9754    0.8411 H   0  0  0  0  0  0  0  0  0  0  0  0
   -3.2604   -1.9769    0.4133 C   0  0  0  0  0  0  0  0  0  0  0  0
   -4.1124   -1.3578    0.7037 H   0  0  0  0  0  0  0  0  0  0  0  0
   -3.2324   -2.0644   -0.6756 H   0  0  0  0  0  0  0  0  0  0  0  0
   -1.9702   -1.3544    0.9134 C   0  0  0  0  0  0  0  0  0  0  0  0
   -1.3185   -1.9595    1.7451 O   0  0  0  0  0  0  0  0  0  0  0  0
   -1.6345   -0.0907    0.4550 N   0  0  0  0  0  0  0  0  0  0  0  0
   -2.2693    0.2470   -0.2615 H   0  0  0  0  0  0  0  0  0  0  0  0
   -0.3030    0.5628    0.4811 C   0  0  1  0  0  0  0  0  0  0  0  0
   -0.4913    1.6399    0.4818 H   0  0  0  0  0  0  0  0  0  0  0  0
    0.6032    0.2856    1.7011 C   0  0  0  0  0  0  0  0  0  0  0  0
    0.7848   -0.7874    1.8163 H   0  0  0  0  0  0  0  0  0  0  0  0
    1.5830    0.7434    1.5265 H   0  0  0  0  0  0  0  0  0  0  0  0
    0.0109    0.8908    2.9899 C   0  0  0  0  0  0  0  0  0  0  0  0
   -0.1027    1.9710    2.8699 H   0  0  0  0  0  0  0  0  0  0  0  0
   -0.9819    0.4670    3.1637 H   0  0  0  0  0  0  0  0  0  0  0  0
    0.8491    0.6332    4.2425 C   0  0  0  0  0  0  0  0  0  0  0  0
    1.8185   -0.1059    4.1965 O   0  0  0  0  0  0  0  0  0  0  0  0
    0.4604    1.2763    5.3677 O   0  0  0  0  0  0  0  0  0  0  0  0
    1.0782    0.9889    6.0571 H   0  0  0  0  0  0  0  0  0  0  0  0
    0.4840    0.2519   -0.8138 C   0  0  0  0  0  0  0  0  0  0  0  0
    0.6325   -0.8968   -1.2060 O   0  0  0  0  0  0  0  0  0  0  0  0
    0.8916    1.2866   -1.6380 N   0  0  0  0  0  0  0  0  0  0  0  0
    0.7784    2.2361   -1.2973 H   0  0  0  0  0  0  0  0  0  0  0  0
    1.5927    1.0719   -2.8994 C   0  0  0  0  0  0  0  0  0  0  0  0
    0.9841    0.4649   -3.5781 H   0  0  0  0  0  0  0  0  0  0  0  0
    1.7992    2.0298   -3.3862 H   0  0  0  0  0  0  0  0  0  0  0  0
    2.5448    0.5588   -2.7268 H   0  0  0  0  0  0  0  0  0  0  0  0
  1  2  1  0  0  0  0
  2  3  1  0  0  0  0
  2  4  1  0  0  0  0
  2  5  1  0  0  0  0
  5  6  2  0  0  0  0
  5  7  1  0  0  0  0
  7  8  1  0  0  0  0
  7  9  1  0  0  0  0
  9 10  1  0  0  0  0
  9 11  1  0  0  0  0
  9 21  1  0  0  0  0
 11 12  1  0  0  0  0
 11 13  1  0  0  0  0
 11 14  1  0  0  0  0
 14 15  1  0  0  0  0
 14 16  1  0  0  0  0
 14 17  1  0  0  0  0
 17 18  2  0  0  0  0
 17 19  1  0  0  0  0
 19 20  1  0  0  0  0
 21 22  2  0  0  0  0
 21 23  1  0  0  0  0
 23 24  1  0  0  0  0
 23 25  1  0  0  0  0
 25 26  1  0  0  0  0
 25 27  1  0  0  0  0
 25 28  1  0  0  0  0
M  END
$$$$

  -OEChem-01062216073D

 28 27  0     1  0  0  0  0  0999 V2000
   -3.3791   -2.9765    0.8390 H   0  0  0  0  0  0  0  0  0  0  0  0
   -3.2500   -1.9814    0.4038 C   0  0  0  0  0  0  0  0  0  0  0  0
   -4.1124   -1.3661    0.6698 H   0  0  0  0  0  0  0  0  0  0  0  0
   -3.1985   -2.0796   -0.6834 H   0  0  0  0  0  0  0  0  0  0  0  0
   -1.9750   -1.3440    0.9238 C   0  0  0  0  0  0  0  0  0  0  0  0
   -1.3320   -1.9382    1.7707 O   0  0  0  0  0  0  0  0  0  0  0  0
   -1.6395   -0.0815    0.4625 N   0  0  0  0  0  0  0  0  0  0  0  0
   -2.2529    0.2321   -0.2834 H   0  0  0  0  0  0  0  0  0  0  0  0
   -0.3049    0.5663    0.4872 C   0  0  1  0  0  0  0  0  0  0  0  0
   -0.4913    1.6438    0.4832 H   0  0  0  0  0  0  0  0  0  0  0  0
    0.6017    0.2870    1.7064 C   0  0  0  0  0  0  0  0  0  0  0  0
    0.7803   -0.7863    1.8224 H   0  0  0  0  0  0  0  0  0  0  0  0
    1.5825    0.7421    1.5318 H   0  0  0  0  0  0  0  0  0  0  0  0
    0.0133    0.8961    2.9953 C   0  0  0  0  0  0  0  0  0  0  0  0
   -0.0965    1.9767    2.8741 H   0  0  0  0  0  0  0  0  0  0  0  0
   -0.9811    0.4762    3.1709 H   0  0  0  0  0  0  0  0  0  0  0  0
    0.8531    0.6359    4.2466 C   0  0  0  0  0  0  0  0  0  0  0  0
    1.8192   -0.1075    4.1974 O   0  0  0  0  0  0  0  0  0  0  0  0
    0.4697    1.2794    5.3734 O   0  0  0  0  0  0  0  0  0  0  0  0
    1.0859    0.9865    6.0620 H   0  0  0  0  0  0  0  0  0  0  0  0
    0.4848    0.2537   -0.8066 C   0  0  0  0  0  0  0  0  0  0  0  0
    0.3782   -0.8284   -1.3684 O   0  0  0  0  0  0  0  0  0  0  0  0
    1.1621    1.2677   -1.4615 N   0  0  0  0  0  0  0  0  0  0  0  0
    1.2540    2.1595   -0.9850 H   0  0  0  0  0  0  0  0  0  0  0  0
    1.8728    1.0670   -2.7199 C   0  0  0  0  0  0  0  0  0  0  0  0
    1.1833    0.7271   -3.5001 H   0  0  0  0  0  0  0  0  0  0  0  0
    2.3314    2.0038   -3.0506 H   0  0  0  0  0  0  0  0  0  0  0  0
    2.6631    0.3186   -2.5985 H   0  0  0  0  0  0  0  0  0  0  0  0
  1  2  1  0  0  0  0
  2  3  1  0  0  0  0
  2  4  1  0  0  0  0
  2  5  1  0  0  0  0
  5  6  2  0  0  0  0
  5  7  1  0  0  0  0
  7  8  1  0  0  0  0
  7  9  1  0  0  0  0
  9 10  1  0  0  0  0
  9 11  1  0  0  0  0
  9 21  1  0  0  0  0
 11 12  1  0  0  0  0
 11 13  1  0  0  0  0
 11 14  1  0  0  0  0
 14 15  1  0  0  0  0
 14 16  1  0  0  0  0
 14 17  1  0  0  0  0
 17 18  2  0  0  0  0
 17 19  1  0  0  0  0
 19 20  1  0  0  0  0
 21 22  2  0  0  0  0
 21 23  1  0  0  0  0
 23 24  1  0  0  0  0
 23 25  1  0  0  0  0
 25 26  1  0  0  0  0
 25 27  1  0  0  0  0
 25 28  1  0  0  0  0
M  END
$$$$

  -OEChem-01062216073D

 28 27  0     1  0  0  0  0  0999 V2000
   -3.3665   -2.9856    0.8169 H   0  0  0  0  0  0  0  0  0  0  0  0
   -3.2510   -1.9778    0.4077 C   0  0  0  0  0  0  0  0  0  0  0  0
   -4.1145   -1.3765    0.7017 H   0  0  0  0  0  0  0  0  0  0  0  0
   -3.2138   -2.0457   -0.6825 H   0  0  0  0  0  0  0  0  0  0  0  0
   -1.9745   -1.3442    0.9284 C   0  0  0  0  0  0  0  0  0  0  0  0
   -1.3246   -1.9465    1.7646 O   0  0  0  0  0  0  0  0  0  0  0  0
   -1.6367   -0.0821    0.4690 N   0  0  0  0  0  0  0  0  0  0  0  0
   -2.2387    0.2215   -0.2906 H   0  0  0  0  0  0  0  0  0  0  0  0
   -0.3006    0.5630    0.4907 C   0  0  1  0  0  0  0  0  0  0  0  0
   -0.4846    1.6411    0.4827 H   0  0  0  0  0  0  0  0  0  0  0  0
    0.6032    0.2835    1.7131 C   0  0  0  0  0  0  0  0  0  0  0  0
    0.7795   -0.7894    1.8330 H   0  0  0  0  0  0  0  0  0  0  0  0
    1.5859    0.7354    1.5424 H   0  0  0  0  0  0  0  0  0  0  0  0
    0.0137    0.8980    2.9985 C   0  0  0  0  0  0  0  0  0  0  0  0
   -0.0919    1.9786    2.8737 H   0  0  0  0  0  0  0  0  0  0  0  0
   -0.9826    0.4824    3.1725 H   0  0  0  0  0  0  0  0  0  0  0  0
    0.8491    0.6386    4.2524 C   0  0  0  0  0  0  0  0  0  0  0  0
    1.8128   -0.1083    4.2072 O   0  0  0  0  0  0  0  0  0  0  0  0
    0.4646    1.2864    5.3762 O   0  0  0  0  0  0  0  0  0  0  0  0
    1.0774    0.9940    6.0678 H   0  0  0  0  0  0  0  0  0  0  0  0
    0.4877    0.2529   -0.8059 C   0  0  0  0  0  0  0  0  0  0  0  0
    0.1784   -0.6893   -1.5250 O   0  0  0  0  0  0  0  0  0  0  0  0
    1.4074    1.1683   -1.2874 N   0  0  0  0  0  0  0  0  0  0  0  0
    1.6608    1.9441   -0.6835 H   0  0  0  0  0  0  0  0  0  0  0  0
    2.1419    0.9799   -2.5337 C   0  0  0  0  0  0  0  0  0  0  0  0
    1.4505    0.9064   -3.3800 H   0  0  0  0  0  0  0  0  0  0  0  0
    2.8127    1.8261   -2.7103 H   0  0  0  0  0  0  0  0  0  0  0  0
    2.7425    0.0651   -2.4897 H   0  0  0  0  0  0  0  0  0  0  0  0
  1  2  1  0  0  0  0
  2  3  1  0  0  0  0
  2  4  1  0  0  0  0
  2  5  1  0  0  0  0
  5  6  2  0  0  0  0
  5  7  1  0  0  0  0
  7  8  1  0  0  0  0
  7  9  1  0  0  0  0
  9 10  1  0  0  0  0
  9 11  1  0  0  0  0
  9 21  1  0  0  0  0
 11 12  1  0  0  0  0
 11 13  1  0  0  0  0
 11 14  1  0  0  0  0
 14 15  1  0  0  0  0
 14 16  1  0  0  0  0
 14 17  1  0  0  0  0
 17 18  2  0  0  0  0
 17 19  1  0  0  0  0
 19 20  1  0  0  0  0
 21 22  2  0  0  0  0
 21 23  1  0  0  0  0
 23 24  1  0  0  0  0
 23 25  1  0  0  0  0
 25 26  1  0  0  0  0
 25 27  1  0  0  0  0
 25 28  1  0  0  0  0
M  END
$$$$

  -OEChem-01062216073D

 28 27  0     1  0  0  0  0  0999 V2000
   -3.3753   -2.9751    0.8348 H   0  0  0  0  0  0  0  0  0  0  0  0
   -3.2514   -1.9699    0.4217 C   0  0  0  0  0  0  0  0  0  0  0  0
   -4.1012   -1.3557    0.7285 H   0  0  0  0  0  0  0  0  0  0  0  0
   -3.2332   -2.0400   -0.6688 H   0  0  0  0  0  0  0  0  0  0  0  0
   -1.9576   -1.3538    0.9204 C   0  0  0  0  0  0  0  0  0  0  0  0
   -1.2843   -1.9809    1.7189 O   0  0  0  0  0  0  0  0  0  0  0  0
   -1.6206   -0.0880    0.4717 N   0  0  0  0  0  0  0  0  0  0  0  0
   -2.2239    0.2227   -0.2849 H   0  0  0  0  0  0  0  0  0  0  0  0
   -0.2872    0.5630    0.4958 C   0  0  1  0  0  0  0  0  0  0  0  0
   -0.4725    1.6411    0.4880 H   0  0  0  0  0  0  0  0  0  0  0  0
    0.6079    0.2831    1.7266 C   0  0  0  0  0  0  0  0  0  0  0  0
    0.7861   -0.7891    1.8475 H   0  0  0  0  0  0  0  0  0  0  0  0
    1.5912    0.7376    1.5700 H   0  0  0  0  0  0  0  0  0  0  0  0
    0.0056    0.8962    3.0069 C   0  0  0  0  0  0  0  0  0  0  0  0
   -0.1009    1.9766    2.8819 H   0  0  0  0  0  0  0  0  0  0  0  0
   -0.9915    0.4785    3.1716 H   0  0  0  0  0  0  0  0  0  0  0  0
    0.8302    0.6376    4.2685 C   0  0  0  0  0  0  0  0  0  0  0  0
    1.7954   -0.1079    4.2310 O   0  0  0  0  0  0  0  0  0  0  0  0
    0.4348    1.2832    5.3895 O   0  0  0  0  0  0  0  0  0  0  0  0
    1.0421    0.9925    6.0868 H   0  0  0  0  0  0  0  0  0  0  0  0
    0.4960    0.2619   -0.8078 C   0  0  0  0  0  0  0  0  0  0  0  0
    0.0345   -0.4892   -1.6594 O   0  0  0  0  0  0  0  0  0  0  0  0
    1.6169    1.0055   -1.1347 N   0  0  0  0  0  0  0  0  0  0  0  0
    1.9993    1.6178   -0.4206 H   0  0  0  0  0  0  0  0  0  0  0  0
    2.3711    0.8101   -2.3680 C   0  0  0  0  0  0  0  0  0  0  0  0
    1.7375    1.0027   -3.2403 H   0  0  0  0  0  0  0  0  0  0  0  0
    3.2234    1.4953   -2.4039 H   0  0  0  0  0  0  0  0  0  0  0  0
    2.7492   -0.2162   -2.4269 H   0  0  0  0  0  0  0  0  0  0  0  0
  1  2  1  0  0  0  0
  2  3  1  0  0  0  0
  2  4  1  0  0  0  0
  2  5  1  0  0  0  0
  5  6  2  0  0  0  0
  5  7  1  0  0  0  0
  7  8  1  0  0  0  0
  7  9  1  0  0  0  0
  9 10  1  0  0  0  0
  9 11  1  0  0  0  0
  9 21  1  0  0  0  0
 11 12  1  0  0  0  0
 11 13  1  0  0  0  0
 11 14  1  0  0  0  0
 14 15  1  0  0  0  0
 14 16  1  0  0  0  0
 14 17  1  0  0  0  0
 17 18  2  0  0  0  0
 17 19  1  0  0  0  0
 19 20  1  0  0  0  0
 21 22  2  0  0  0  0
 21 23  1  0  0  0  0
 23 24  1  0  0  0  0
 23 25  1  0  0  0  0
 25 26  1  0  0  0  0
 25 27  1  0  0  0  0
 25 28  1  0  0  0  0
M  END
$$$$

  -OEChem-01062216073D

 28 27  0     1  0  0  0  0  0999 V2000
   -3.4822   -2.9065    0.7986 H   0  0  0  0  0  0  0  0  0  0  0  0
   -3.3194   -1.8926    0.4222 C   0  0  0  0  0  0  0  0  0  0  0  0
   -4.1130   -1.2446    0.8016 H   0  0  0  0  0  0  0  0  0  0  0  0
   -3.3634   -1.9127   -0.6696 H   0  0  0  0  0  0  0  0  0  0  0  0
   -1.9669   -1.3750    0.8745 C   0  0  0  0  0  0  0  0  0  0  0  0
   -1.2776   -2.0907    1.5798 O   0  0  0  0  0  0  0  0  0  0  0  0
   -1.5830   -0.1119    0.4577 N   0  0  0  0  0  0  0  0  0  0  0  0
   -2.1922    0.2569   -0.2696 H   0  0  0  0  0  0  0  0  0  0  0  0
   -0.2435    0.5264    0.4925 C   0  0  1  0  0  0  0  0  0  0  0  0
   -0.4124    1.5751    0.7540 H   0  0  0  0  0  0  0  0  0  0  0  0
    0.7767   -0.0078    1.5276 C   0  0  0  0  0  0  0  0  0  0  0  0
    0.9373   -1.0811    1.3826 H   0  0  0  0  0  0  0  0  0  0  0  0
    1.7462    0.4743    1.3724 H   0  0  0  0  0  0  0  0  0  0  0  0
    0.3367    0.2945    2.9771 C   0  0  0  0  0  0  0  0  0  0  0  0
    0.2420    1.3750    3.1107 H   0  0  0  0  0  0  0  0  0  0  0  0
   -0.6434   -0.1474    3.1710 H   0  0  0  0  0  0  0  0  0  0  0  0
    1.3028   -0.2347    4.0375 C   0  0  0  0  0  0  0  0  0  0  0  0
    2.2440   -0.9411    3.7133 O   0  0  0  0  0  0  0  0  0  0  0  0
    1.0592    0.1360    5.3156 O   0  0  0  0  0  0  0  0  0  0  0  0
    1.7402   -0.3011    5.8491 H   0  0  0  0  0  0  0  0  0  0  0  0
    0.3618    0.5544   -0.9356 C   0  0  0  0  0  0  0  0  0  0  0  0
   -0.3267    0.2420   -1.9014 O   0  0  0  0  0  0  0  0  0  0  0  0
    1.6115    1.0995   -1.1763 N   0  0  0  0  0  0  0  0  0  0  0  0
    2.1835    1.3373   -0.3717 H   0  0  0  0  0  0  0  0  0  0  0  0
    2.2038    1.1840   -2.5068 C   0  0  0  0  0  0  0  0  0  0  0  0
    1.5666    1.7737   -3.1744 H   0  0  0  0  0  0  0  0  0  0  0  0
    3.1850    1.6654   -2.4549 H   0  0  0  0  0  0  0  0  0  0  0  0
    2.3307    0.1834   -2.9336 H   0  0  0  0  0  0  0  0  0  0  0  0
  1  2  1  0  0  0  0
  2  3  1  0  0  0  0
  2  4  1  0  0  0  0
  2  5  1  0  0  0  0
  5  6  2  0  0  0  0
  5  7  1  0  0  0  0
  7  8  1  0  0  0  0
  7  9  1  0  0  0  0
  9 10  1  0  0  0  0
  9 11  1  0  0  0  0
  9 21  1  0  0  0  0
 11 12  1  0  0  0  0
 11 13  1  0  0  0  0
 11 14  1  0  0  0  0
 14 15  1  0  0  0  0
 14 16  1  0  0  0  0
 14 17  1  0  0  0  0
 17 18  2  0  0  0  0
 17 19  1  0  0  0  0
 19 20  1  0  0  0  0
 21 22  2  0  0  0  0
 21 23  1  0  0  0  0
 23 24  1  0  0  0  0
 23 25  1  0  0  0  0
 25 26  1  0  0  0  0
 25 27  1  0  0  0  0
 25 28  1  0  0  0  0
M  END
$$$$

  -OEChem-01062216073D

 28 27  0     1  0  0  0  0  0999 V2000
   -3.4722   -2.9026    0.7881 H   0  0  0  0  0  0  0  0  0  0  0  0
   -3.3078   -1.8848    0.4231 C   0  0  0  0  0  0  0  0  0  0  0  0
   -4.0881   -1.2355    0.8275 H   0  0  0  0  0  0  0  0  0  0  0  0
   -3.3741   -1.8882   -0.6679 H   0  0  0  0  0  0  0  0  0  0  0  0
   -1.9421   -1.3853    0.8562 C   0  0  0  0  0  0  0  0  0  0  0  0
   -1.2401   -2.1197    1.5290 O   0  0  0  0  0  0  0  0  0  0  0  0
   -1.5560   -0.1179    0.4556 N   0  0  0  0  0  0  0  0  0  0  0  0
   -2.1748    0.2774   -0.2502 H   0  0  0  0  0  0  0  0  0  0  0  0
   -0.2201    0.5258    0.5054 C   0  0  1  0  0  0  0  0  0  0  0  0
   -0.3928    1.5736    0.7690 H   0  0  0  0  0  0  0  0  0  0  0  0
    0.7890   -0.0086    1.5524 C   0  0  0  0  0  0  0  0  0  0  0  0
    0.9592   -1.0803    1.4076 H   0  0  0  0  0  0  0  0  0  0  0  0
    1.7566    0.4832    1.4174 H   0  0  0  0  0  0  0  0  0  0  0  0
    0.3257    0.2909    2.9944 C   0  0  0  0  0  0  0  0  0  0  0  0
    0.2254    1.3713    3.1276 H   0  0  0  0  0  0  0  0  0  0  0  0
   -0.6558   -0.1558    3.1701 H   0  0  0  0  0  0  0  0  0  0  0  0
    1.2761   -0.2361    4.0699 C   0  0  0  0  0  0  0  0  0  0  0  0
    2.2245   -0.9395    3.7604 O   0  0  0  0  0  0  0  0  0  0  0  0
    1.0094    0.1319    5.3440 O   0  0  0  0  0  0  0  0  0  0  0  0
    1.6835   -0.3017    5.8890 H   0  0  0  0  0  0  0  0  0  0  0  0
    0.3802    0.5620   -0.9255 C   0  0  0  0  0  0  0  0  0  0  0  0
   -0.3680    0.4892   -1.8950 O   0  0  0  0  0  0  0  0  0  0  0  0
    1.7214    0.8184   -1.1551 N   0  0  0  0  0  0  0  0  0  0  0  0
    2.3416    0.8199   -0.3512 H   0  0  0  0  0  0  0  0  0  0  0  0
    2.3086    0.8659   -2.4895 C   0  0  0  0  0  0  0  0  0  0  0  0
    1.8137    1.6280   -3.1008 H   0  0  0  0  0  0  0  0  0  0  0  0
    3.3725    1.1140   -2.4264 H   0  0  0  0  0  0  0  0  0  0  0  0
    2.2072   -0.1045   -2.9868 H   0  0  0  0  0  0  0  0  0  0  0  0
  1  2  1  0  0  0  0
  2  3  1  0  0  0  0
  2  4  1  0  0  0  0
  2  5  1  0  0  0  0
  5  6  2  0  0  0  0
  5  7  1  0  0  0  0
  7  8  1  0  0  0  0
  7  9  1  0  0  0  0
  9 10  1  0  0  0  0
  9 11  1  0  0  0  0
  9 21  1  0  0  0  0
 11 12  1  0  0  0  0
 11 13  1  0  0  0  0
 11 14  1  0  0  0  0
 14 15  1  0  0  0  0
 14 16  1  0  0  0  0
 14 17  1  0  0  0  0
 17 18  2  0  0  0  0
 17 19  1  0  0  0  0
 19 20  1  0  0  0  0
 21 22  2  0  0  0  0
 21 23  1  0  0  0  0
 23 24  1  0  0  0  0
 23 25  1  0  0  0  0
 25 26  1  0  0  0  0
 25 27  1  0  0  0  0
 25 28  1  0  0  0  0
M  END
$$$$

  -OEChem-01062216073D

 28 27  0     1  0  0  0  0  0999 V2000
   -3.4687   -2.8995    0.7874 H   0  0  0  0  0  0  0  0  0  0  0  0
   -3.3040   -1.8802    0.4266 C   0  0  0  0  0  0  0  0  0  0  0  0
   -4.0718   -1.2287    0.8507 H   0  0  0  0  0  0  0  0  0  0  0  0
   -3.3911   -1.8750   -0.6628 H   0  0  0  0  0  0  0  0  0  0  0  0
   -1.9266   -1.3938    0.8372 C   0  0  0  0  0  0  0  0  0  0  0  0
   -1.2110   -2.1423    1.4792 O   0  0  0  0  0  0  0  0  0  0  0  0
   -1.5382   -0.1248    0.4452 N   0  0  0  0  0  0  0  0  0  0  0  0
   -2.1702    0.2975   -0.2325 H   0  0  0  0  0  0  0  0  0  0  0  0
   -0.2062    0.5232    0.5117 C   0  0  1  0  0  0  0  0  0  0  0  0
   -0.3834    1.5711    0.7720 H   0  0  0  0  0  0  0  0  0  0  0  0
    0.7941   -0.0049    1.5699 C   0  0  0  0  0  0  0  0  0  0  0  0
    0.9756   -1.0750    1.4271 H   0  0  0  0  0  0  0  0  0  0  0  0
    1.7570    0.4994    1.4447 H   0  0  0  0  0  0  0  0  0  0  0  0
    0.3156    0.2915    3.0069 C   0  0  0  0  0  0  0  0  0  0  0  0
    0.2052    1.3709    3.1393 H   0  0  0  0  0  0  0  0  0  0  0  0
   -0.6640   -0.1639    3.1722 H   0  0  0  0  0  0  0  0  0  0  0  0
    1.2601   -0.2313    4.0898 C   0  0  0  0  0  0  0  0  0  0  0  0
    2.2150   -0.9289    3.7866 O   0  0  0  0  0  0  0  0  0  0  0  0
    0.9820    0.1339    5.3623 O   0  0  0  0  0  0  0  0  0  0  0  0
    1.6571   -0.2930    5.9112 H   0  0  0  0  0  0  0  0  0  0  0  0
    0.3990    0.5594   -0.9159 C   0  0  0  0  0  0  0  0  0  0  0  0
   -0.3511    0.7139   -1.8738 O   0  0  0  0  0  0  0  0  0  0  0  0
    1.7630    0.5143   -1.1494 N   0  0  0  0  0  0  0  0  0  0  0  0
    2.3617    0.2874   -0.3608 H   0  0  0  0  0  0  0  0  0  0  0  0
    2.3442    0.5200   -2.4870 C   0  0  0  0  0  0  0  0  0  0  0  0
    2.0368    1.4166   -3.0356 H   0  0  0  0  0  0  0  0  0  0  0  0
    3.4367    0.5132   -2.4249 H   0  0  0  0  0  0  0  0  0  0  0  0
    2.0225   -0.3636   -3.0480 H   0  0  0  0  0  0  0  0  0  0  0  0
  1  2  1  0  0  0  0
  2  3  1  0  0  0  0
  2  4  1  0  0  0  0
  2  5  1  0  0  0  0
  5  6  2  0  0  0  0
  5  7  1  0  0  0  0
  7  8  1  0  0  0  0
  7  9  1  0  0  0  0
  9 10  1  0  0  0  0
  9 11  1  0  0  0  0
  9 21  1  0  0  0  0
 11 12  1  0  0  0  0
 11 13  1  0  0  0  0
 11 14  1  0  0  0  0
 14 15  1  0  0  0  0
 14 16  1  0  0  0  0
 14 17  1  0  0  0  0
 17 18  2  0  0  0  0
 17 19  1  0  0  0  0
 19 20  1  0  0  0  0
 21 22  2  0  0  0  0
 21 23  1  0  0  0  0
 23 24  1  0  0  0  0
 23 25  1  0  0  0  0
 25 26  1  0  0  0  0
 25 27  1  0  0  0  0
 25 28  1  0  0  0  0
M  END
$$$$

  -OEChem-01062216073D

 28 27  0     1  0  0  0  0  0999 V2000
   -3.4763   -2.8915    0.8128 H   0  0  0  0  0  0  0  0  0  0  0  0
   -3.3104   -1.8732    0.4499 C   0  0  0  0  0  0  0  0  0  0  0  0
   -4.0564   -1.2139    0.9000 H   0  0  0  0  0  0  0  0  0  0  0  0
   -3.4324   -1.8634   -0.6360 H   0  0  0  0  0  0  0  0  0  0  0  0
   -1.9148   -1.4051    0.8186 C   0  0  0  0  0  0  0  0  0  0  0  0
   -1.1829   -2.1678    1.4244 O   0  0  0  0  0  0  0  0  0  0  0  0
   -1.5249   -0.1361    0.4288 N   0  0  0  0  0  0  0  0  0  0  0  0
   -2.1775    0.3154   -0.2092 H   0  0  0  0  0  0  0  0  0  0  0  0
   -0.1967    0.5164    0.5067 C   0  0  1  0  0  0  0  0  0  0  0  0
   -0.3792    1.5646    0.7635 H   0  0  0  0  0  0  0  0  0  0  0  0
    0.7976   -0.0050    1.5729 C   0  0  0  0  0  0  0  0  0  0  0  0
    0.9864   -1.0742    1.4359 H   0  0  0  0  0  0  0  0  0  0  0  0
    1.7577    0.5063    1.4482 H   0  0  0  0  0  0  0  0  0  0  0  0
    0.3078    0.2905    3.0057 C   0  0  0  0  0  0  0  0  0  0  0  0
    0.1905    1.3693    3.1368 H   0  0  0  0  0  0  0  0  0  0  0  0
   -0.6701   -0.1712    3.1638 H   0  0  0  0  0  0  0  0  0  0  0  0
    1.2476   -0.2269    4.0955 C   0  0  0  0  0  0  0  0  0  0  0  0
    2.2077   -0.9204    3.7993 O   0  0  0  0  0  0  0  0  0  0  0  0
    0.9575    0.1355    5.3661 O   0  0  0  0  0  0  0  0  0  0  0  0
    1.6315   -0.2868    5.9198 H   0  0  0  0  0  0  0  0  0  0  0  0
    0.4182    0.5502   -0.9143 C   0  0  0  0  0  0  0  0  0  0  0  0
   -0.2852    0.9141   -1.8498 O   0  0  0  0  0  0  0  0  0  0  0  0
    1.7363    0.2097   -1.1658 N   0  0  0  0  0  0  0  0  0  0  0  0
    2.2615   -0.2035   -0.4000 H   0  0  0  0  0  0  0  0  0  0  0  0
    2.3116    0.1770   -2.5053 C   0  0  0  0  0  0  0  0  0  0  0  0
    2.2154    1.1550   -2.9885 H   0  0  0  0  0  0  0  0  0  0  0  0
    3.3747   -0.0773   -2.4540 H   0  0  0  0  0  0  0  0  0  0  0  0
    1.8048   -0.5724   -3.1222 H   0  0  0  0  0  0  0  0  0  0  0  0
  1  2  1  0  0  0  0
  2  3  1  0  0  0  0
  2  4  1  0  0  0  0
  2  5  1  0  0  0  0
  5  6  2  0  0  0  0
  5  7  1  0  0  0  0
  7  8  1  0  0  0  0
  7  9  1  0  0  0  0
  9 10  1  0  0  0  0
  9 11  1  0  0  0  0
  9 21  1  0  0  0  0
 11 12  1  0  0  0  0
 11 13  1  0  0  0  0
 11 14  1  0  0  0  0
 14 15  1  0  0  0  0
 14 16  1  0  0  0  0
 14 17  1  0  0  0  0
 17 18  2  0  0  0  0
 17 19  1  0  0  0  0
 19 20  1  0  0  0  0
 21 22  2  0  0  0  0
 21 23  1  0  0  0  0
 23 24  1  0  0  0  0
 23 25  1  0  0  0  0
 25 26  1  0  0  0  0
 25 27  1  0  0  0  0
 25 28  1  0  0  0  0
M  END
$$$$

  -OEChem-01062216073D

 28 27  0     1  0  0  0  0  0999 V2000
   -3.4847   -2.8837    0.8484 H   0  0  0  0  0  0  0  0  0  0  0  0
   -3.3197   -1.8665    0.4818 C   0  0  0  0  0  0  0  0  0  0  0  0
   -4.0411   -1.1995    0.9598 H   0  0  0  0  0  0  0  0  0  0  0  0
   -3.4800   -1.8522   -0.5990 H   0  0  0  0  0  0  0  0  0  0  0  0
   -1.9066   -1.4161    0.8017 C   0  0  0  0  0  0  0  0  0  0  0  0
   -1.1569   -2.1945    1.3638 O   0  0  0  0  0  0  0  0  0  0  0  0
   -1.5164   -0.1478    0.4106 N   0  0  0  0  0  0  0  0  0  0  0  0
   -2.1940    0.3341   -0.1767 H   0  0  0  0  0  0  0  0  0  0  0  0
   -0.1910    0.5077    0.4954 C   0  0  1  0  0  0  0  0  0  0  0  0
   -0.3773    1.5561    0.7485 H   0  0  0  0  0  0  0  0  0  0  0  0
    0.7999   -0.0080    1.5670 C   0  0  0  0  0  0  0  0  0  0  0  0
    0.9915   -1.0775    1.4373 H   0  0  0  0  0  0  0  0  0  0  0  0
    1.7598    0.5039    1.4379 H   0  0  0  0  0  0  0  0  0  0  0  0
    0.3020    0.2889    2.9966 C   0  0  0  0  0  0  0  0  0  0  0  0
    0.1806    1.3678    3.1244 H   0  0  0  0  0  0  0  0  0  0  0  0
   -0.6752   -0.1757    3.1498 H   0  0  0  0  0  0  0  0  0  0  0  0
    1.2380   -0.2228    4.0925 C   0  0  0  0  0  0  0  0  0  0  0  0
    2.2018   -0.9137    3.8025 O   0  0  0  0  0  0  0  0  0  0  0  0
    0.9386    0.1385    5.3612 O   0  0  0  0  0  0  0  0  0  0  0  0
    1.6127   -0.2787    5.9188 H   0  0  0  0  0  0  0  0  0  0  0  0
    0.4358    0.5393   -0.9172 C   0  0  0  0  0  0  0  0  0  0  0  0
   -0.1754    1.1018   -1.8175 O   0  0  0  0  0  0  0  0  0  0  0  0
    1.6414   -0.0758   -1.2050 N   0  0  0  0  0  0  0  0  0  0  0  0
    2.0533   -0.6485   -0.4729 H   0  0  0  0  0  0  0  0  0  0  0  0
    2.2033   -0.1432   -2.5486 C   0  0  0  0  0  0  0  0  0  0  0  0
    2.3378    0.8631   -2.9593 H   0  0  0  0  0  0  0  0  0  0  0  0
    3.1792   -0.6377   -2.5257 H   0  0  0  0  0  0  0  0  0  0  0  0
    1.5422   -0.7097   -3.2127 H   0  0  0  0  0  0  0  0  0  0  0  0
  1  2  1  0  0  0  0
  2  3  1  0  0  0  0
  2  4  1  0  0  0  0
  2  5  1  0  0  0  0
  5  6  2  0  0  0  0
  5  7  1  0  0  0  0
  7  8  1  0  0  0  0
  7  9  1  0  0  0  0
  9 10  1  0  0  0  0
  9 11  1  0  0  0  0
  9 21  1  0  0  0  0
 11 12  1  0  0  0  0
 11 13  1  0  0  0  0
 11 14  1  0  0  0  0
 14 15  1  0  0  0  0
 14 16  1  0  0  0  0
 14 17  1  0  0  0  0
 17 18  2  0  0  0  0
 17 19  1  0  0  0  0
 19 20  1  0  0  0  0
 21 22  2  0  0  0  0
 21 23  1  0  0  0  0
 23 24  1  0  0  0  0
 23 25  1  0  0  0  0
 25 26  1  0  0  0  0
 25 27  1  0  0  0  0
 25 28  1  0  0  0  0
M  END
$$$$

  -OEChem-01062216073D

 28 27  0     1  0  0  0  0  0999 V2000
   -3.4939   -2.8751    0.9007 H   0  0  0  0  0  0  0  0  0  0  0  0
   -3.3326   -1.8592    0.5284 C   0  0  0  0  0  0  0  0  0  0  0  0
   -4.0205   -1.1835    1.0423 H   0  0  0  0  0  0  0  0  0  0  0  0
   -3.5451   -1.8398   -0.5434 H   0  0  0  0  0  0  0  0  0  0  0  0
   -1.8997   -1.4296    0.7811 C   0  0  0  0  0  0  0  0  0  0  0  0
   -1.1271   -2.2270    1.2822 O   0  0  0  0  0  0  0  0  0  0  0  0
   -1.5116   -0.1618    0.3873 N   0  0  0  0  0  0  0  0  0  0  0  0
   -2.2189    0.3549   -0.1305 H   0  0  0  0  0  0  0  0  0  0  0  0
   -0.1881    0.4958    0.4783 C   0  0  1  0  0  0  0  0  0  0  0  0
   -0.3783    1.5442    0.7297 H   0  0  0  0  0  0  0  0  0  0  0  0
    0.8010   -0.0141    1.5534 C   0  0  0  0  0  0  0  0  0  0  0  0
    0.9978   -1.0829    1.4301 H   0  0  0  0  0  0  0  0  0  0  0  0
    1.7598    0.4996    1.4205 H   0  0  0  0  0  0  0  0  0  0  0  0
    0.2958    0.2847    2.9798 C   0  0  0  0  0  0  0  0  0  0  0  0
    0.1700    1.3637    3.1040 H   0  0  0  0  0  0  0  0  0  0  0  0
   -0.6804   -0.1835    3.1292 H   0  0  0  0  0  0  0  0  0  0  0  0
    1.2274   -0.2201    4.0823 C   0  0  0  0  0  0  0  0  0  0  0  0
    2.1952   -0.9086    3.8007 O   0  0  0  0  0  0  0  0  0  0  0  0
    0.9181    0.1434    5.3481 O   0  0  0  0  0  0  0  0  0  0  0  0
    1.5923   -0.2673    5.9105 H   0  0  0  0  0  0  0  0  0  0  0  0
    0.4518    0.5258   -0.9257 C   0  0  0  0  0  0  0  0  0  0  0  0
   -0.0119    1.2805   -1.7707 O   0  0  0  0  0  0  0  0  0  0  0  0
    1.4841   -0.3275   -1.2709 N   0  0  0  0  0  0  0  0  0  0  0  0
    1.7391   -1.0387   -0.5902 H   0  0  0  0  0  0  0  0  0  0  0  0
    2.0313   -0.4156   -2.6191 C   0  0  0  0  0  0  0  0  0  0  0  0
    2.4010    0.5617   -2.9475 H   0  0  0  0  0  0  0  0  0  0  0  0
    2.8651   -1.1239   -2.6432 H   0  0  0  0  0  0  0  0  0  0  0  0
    1.2647   -0.7571   -3.3227 H   0  0  0  0  0  0  0  0  0  0  0  0
  1  2  1  0  0  0  0
  2  3  1  0  0  0  0
  2  4  1  0  0  0  0
  2  5  1  0  0  0  0
  5  6  2  0  0  0  0
  5  7  1  0  0  0  0
  7  8  1  0  0  0  0
  7  9  1  0  0  0  0
  9 10  1  0  0  0  0
  9 11  1  0  0  0  0
  9 21  1  0  0  0  0
 11 12  1  0  0  0  0
 11 13  1  0  0  0  0
 11 14  1  0  0  0  0
 14 15  1  0  0  0  0
 14 16  1  0  0  0  0
 14 17  1  0  0  0  0
 17 18  2  0  0  0  0
 17 19  1  0  0  0  0
 19 20  1  0  0  0  0
 21 22  2  0  0  0  0
 21 23  1  0  0  0  0
 23 24  1  0  0  0  0
 23 25  1  0  0  0  0
 25 26  1  0  0  0  0
 25 27  1  0  0  0  0
 25 28  1  0  0  0  0
M  END
$$$$

  -OEChem-01062216073D

 28 27  0     1  0  0  0  0  0999 V2000
   -3.5004   -2.8633    0.9791 H   0  0  0  0  0  0  0  0  0  0  0  0
   -3.3473   -1.8501    0.5964 C   0  0  0  0  0  0  0  0  0  0  0  0
   -3.9906   -1.1643    1.1530 H   0  0  0  0  0  0  0  0  0  0  0  0
   -3.6277   -1.8269   -0.4596 H   0  0  0  0  0  0  0  0  0  0  0  0
   -1.8943   -1.4436    0.7557 C   0  0  0  0  0  0  0  0  0  0  0  0
   -1.0945   -2.2625    1.1723 O   0  0  0  0  0  0  0  0  0  0  0  0
   -1.5128   -0.1759    0.3566 N   0  0  0  0  0  0  0  0  0  0  0  0
   -2.2507    0.3743   -0.0764 H   0  0  0  0  0  0  0  0  0  0  0  0
   -0.1914    0.4857    0.4538 C   0  0  1  0  0  0  0  0  0  0  0  0
   -0.3864    1.5339    0.7038 H   0  0  0  0  0  0  0  0  0  0  0  0
    0.7972   -0.0203    1.5311 C   0  0  0  0  0  0  0  0  0  0  0  0
    1.0014   -1.0877    1.4103 H   0  0  0  0  0  0  0  0  0  0  0  0
    1.7543    0.4966    1.3976 H   0  0  0  0  0  0  0  0  0  0  0  0
    0.2853    0.2766    2.9552 C   0  0  0  0  0  0  0  0  0  0  0  0
    0.1545    1.3552    3.0777 H   0  0  0  0  0  0  0  0  0  0  0  0
   -0.6891   -0.1966    3.1000 H   0  0  0  0  0  0  0  0  0  0  0  0
    1.2136   -0.2230    4.0631 C   0  0  0  0  0  0  0  0  0  0  0  0
    2.1859   -0.9074    3.7884 O   0  0  0  0  0  0  0  0  0  0  0  0
    0.8950    0.1400    5.3266 O   0  0  0  0  0  0  0  0  0  0  0  0
    1.5705   -0.2636    5.8926 H   0  0  0  0  0  0  0  0  0  0  0  0
    0.4634    0.5126   -0.9408 C   0  0  0  0  0  0  0  0  0  0  0  0
    0.2046    1.4294   -1.7090 O   0  0  0  0  0  0  0  0  0  0  0  0
    1.2729   -0.5261   -1.3614 N   0  0  0  0  0  0  0  0  0  0  0  0
    1.3357   -1.3342   -0.7457 H   0  0  0  0  0  0  0  0  0  0  0  0
    1.8141   -0.6218   -2.7111 C   0  0  0  0  0  0  0  0  0  0  0  0
    2.4113    0.2648   -2.9489 H   0  0  0  0  0  0  0  0  0  0  0  0
    2.4569   -1.5029   -2.7993 H   0  0  0  0  0  0  0  0  0  0  0  0
    1.0042   -0.7076   -3.4431 H   0  0  0  0  0  0  0  0  0  0  0  0
  1  2  1  0  0  0  0
  2  3  1  0  0  0  0
  2  4  1  0  0  0  0
  2  5  1  0  0  0  0
  5  6  2  0  0  0  0
  5  7  1  0  0  0  0
  7  8  1  0  0  0  0
  7  9  1  0  0  0  0
  9 10  1  0  0  0  0
  9 11  1  0  0  0  0
  9 21  1  0  0  0  0
 11 12  1  0  0  0  0
 11 13  1  0  0  0  0
 11 14  1  0  0  0  0
 14 15  1  0  0  0  0
 14 16  1  0  0  0  0
 14 17  1  0  0  0  0
 17 18  2  0  0  0  0
 17 19  1  0  0  0  0
 19 20  1  0  0  0  0
 21 22  2  0  0  0  0
 21 23  1  0  0  0  0
 23 24  1  0  0  0  0
 23 25  1  0  0  0  0
 25 26  1  0  0  0  0
 25 27  1  0  0  0  0
 25 28  1  0  0  0  0
M  END
$$$$

  -OEChem-01062216073D

 28 27  0     1  0  0  0  0  0999 V2000
   -3.4899   -2.8576    1.0620 H   0  0  0  0  0  0  0  0  0  0  0  0
   -3.3568   -1.8402    0.6832 C   0  0  0  0  0  0  0  0  0  0  0  0
   -3.9429   -1.1566    1.3021 H   0  0  0  0  0  0  0  0  0  0  0  0
   -3.7237   -1.7966   -0.3452 H   0  0  0  0  0  0  0  0  0  0  0  0
   -1.8909   -1.4532    0.7272 C   0  0  0  0  0  0  0  0  0  0  0  0
   -1.0641   -2.2934    1.0342 O   0  0  0  0  0  0  0  0  0  0  0  0
   -1.5225   -0.1848    0.3201 N   0  0  0  0  0  0  0  0  0  0  0  0
   -2.2883    0.3952   -0.0136 H   0  0  0  0  0  0  0  0  0  0  0  0
   -0.2041    0.4823    0.4240 C   0  0  1  0  0  0  0  0  0  0  0  0
   -0.4031    1.5301    0.6724 H   0  0  0  0  0  0  0  0  0  0  0  0
    0.7847   -0.0217    1.5012 C   0  0  0  0  0  0  0  0  0  0  0  0
    0.9988   -1.0866    1.3757 H   0  0  0  0  0  0  0  0  0  0  0  0
    1.7382    0.5024    1.3706 H   0  0  0  0  0  0  0  0  0  0  0  0
    0.2687    0.2669    2.9258 C   0  0  0  0  0  0  0  0  0  0  0  0
    0.1306    1.3441    3.0522 H   0  0  0  0  0  0  0  0  0  0  0  0
   -0.7024   -0.2137    3.0664 H   0  0  0  0  0  0  0  0  0  0  0  0
    1.1968   -0.2309    4.0347 C   0  0  0  0  0  0  0  0  0  0  0  0
    2.1738   -0.9088    3.7611 O   0  0  0  0  0  0  0  0  0  0  0  0
    0.8696    0.1235    5.2985 O   0  0  0  0  0  0  0  0  0  0  0  0
    1.5471   -0.2749    5.8659 H   0  0  0  0  0  0  0  0  0  0  0  0
    0.4621    0.5028   -0.9635 C   0  0  0  0  0  0  0  0  0  0  0  0
    0.4564    1.5275   -1.6318 O   0  0  0  0  0  0  0  0  0  0  0  0
    1.0112   -0.6561   -1.4778 N   0  0  0  0  0  0  0  0  0  0  0  0
    0.8817   -1.5046   -0.9285 H   0  0  0  0  0  0  0  0  0  0  0  0
    1.5687   -0.7545   -2.8202 C   0  0  0  0  0  0  0  0  0  0  0  0
    2.3781   -0.0289   -2.9531 H   0  0  0  0  0  0  0  0  0  0  0  0
    1.9740   -1.7568   -2.9890 H   0  0  0  0  0  0  0  0  0  0  0  0
    0.7955   -0.5611   -3.5710 H   0  0  0  0  0  0  0  0  0  0  0  0
  1  2  1  0  0  0  0
  2  3  1  0  0  0  0
  2  4  1  0  0  0  0
  2  5  1  0  0  0  0
  5  6  2  0  0  0  0
  5  7  1  0  0  0  0
  7  8  1  0  0  0  0
  7  9  1  0  0  0  0
  9 10  1  0  0  0  0
  9 11  1  0  0  0  0
  9 21  1  0  0  0  0
 11 12  1  0  0  0  0
 11 13  1  0  0  0  0
 11 14  1  0  0  0  0
 14 15  1  0  0  0  0
 14 16  1  0  0  0  0
 14 17  1  0  0  0  0
 17 18  2  0  0  0  0
 17 19  1  0  0  0  0
 19 20  1  0  0  0  0
 21 22  2  0  0  0  0
 21 23  1  0  0  0  0
 23 24  1  0  0  0  0
 23 25  1  0  0  0  0
 25 26  1  0  0  0  0
 25 27  1  0  0  0  0
 25 28  1  0  0  0  0
M  END
$$$$

  -OEChem-01062216073D

 28 27  0     1  0  0  0  0  0999 V2000
   -3.4916   -2.8454    1.1722 H   0  0  0  0  0  0  0  0  0  0  0  0
   -3.3759   -1.8325    0.7760 C   0  0  0  0  0  0  0  0  0  0  0  0
   -3.9128   -1.1385    1.4272 H   0  0  0  0  0  0  0  0  0  0  0  0
   -3.8118   -1.7942   -0.2253 H   0  0  0  0  0  0  0  0  0  0  0  0
   -1.9069   -1.4586    0.7172 C   0  0  0  0  0  0  0  0  0  0  0  0
   -1.0657   -2.3137    0.9283 O   0  0  0  0  0  0  0  0  0  0  0  0
   -1.5516   -0.1906    0.2987 N   0  0  0  0  0  0  0  0  0  0  0  0
   -2.3349    0.4062    0.0459 H   0  0  0  0  0  0  0  0  0  0  0  0
   -0.2335    0.4812    0.3950 C   0  0  1  0  0  0  0  0  0  0  0  0
   -0.4329    1.5291    0.6435 H   0  0  0  0  0  0  0  0  0  0  0  0
    0.7614   -0.0257    1.4639 C   0  0  0  0  0  0  0  0  0  0  0  0
    0.9763   -1.0896    1.3312 H   0  0  0  0  0  0  0  0  0  0  0  0
    1.7137    0.5003    1.3302 H   0  0  0  0  0  0  0  0  0  0  0  0
    0.2531    0.2561    2.8922 C   0  0  0  0  0  0  0  0  0  0  0  0
    0.1152    1.3327    3.0233 H   0  0  0  0  0  0  0  0  0  0  0  0
   -0.7170   -0.2255    3.0373 H   0  0  0  0  0  0  0  0  0  0  0  0
    1.1880   -0.2452    3.9936 C   0  0  0  0  0  0  0  0  0  0  0  0
    2.1645   -0.9207    3.7130 O   0  0  0  0  0  0  0  0  0  0  0  0
    0.8660    0.1034    5.2603 O   0  0  0  0  0  0  0  0  0  0  0  0
    1.5476   -0.2955    5.8224 H   0  0  0  0  0  0  0  0  0  0  0  0
    0.4373    0.4995   -0.9894 C   0  0  0  0  0  0  0  0  0  0  0  0
    0.7010    1.5614   -1.5361 O   0  0  0  0  0  0  0  0  0  0  0  0
    0.7091   -0.6964   -1.6248 N   0  0  0  0  0  0  0  0  0  0  0  0
    0.4474   -1.5474   -1.1281 H   0  0  0  0  0  0  0  0  0  0  0  0
    1.3260   -0.7923   -2.9407 C   0  0  0  0  0  0  0  0  0  0  0  0
    2.3048   -0.3010   -2.9415 H   0  0  0  0  0  0  0  0  0  0  0  0
    1.4664   -1.8418   -3.2169 H   0  0  0  0  0  0  0  0  0  0  0  0
    0.6920   -0.3166   -3.6960 H   0  0  0  0  0  0  0  0  0  0  0  0
  1  2  1  0  0  0  0
  2  3  1  0  0  0  0
  2  4  1  0  0  0  0
  2  5  1  0  0  0  0
  5  6  2  0  0  0  0
  5  7  1  0  0  0  0
  7  8  1  0  0  0  0
  7  9  1  0  0  0  0
  9 10  1  0  0  0  0
  9 11  1  0  0  0  0
  9 21  1  0  0  0  0
 11 12  1  0  0  0  0
 11 13  1  0  0  0  0
 11 14  1  0  0  0  0
 14 15  1  0  0  0  0
 14 16  1  0  0  0  0
 14 17  1  0  0  0  0
 17 18  2  0  0  0  0
 17 19  1  0  0  0  0
 19 20  1  0  0  0  0
 21 22  2  0  0  0  0
 21 23  1  0  0  0  0
 23 24  1  0  0  0  0
 23 25  1  0  0  0  0
 25 26  1  0  0  0  0
 25 27  1  0  0  0  0
 25 28  1  0  0  0  0
M  END
$$$$

  -OEChem-01062216073D

 28 27  0     1  0  0  0  0  0999 V2000
   -3.4902   -2.8467    1.2616 H   0  0  0  0  0  0  0  0  0  0  0  0
   -3.3931   -1.8300    0.8701 C   0  0  0  0  0  0  0  0  0  0  0  0
   -3.8801   -1.1404    1.5637 H   0  0  0  0  0  0  0  0  0  0  0  0
   -3.8940   -1.7765   -0.0995 H   0  0  0  0  0  0  0  0  0  0  0  0
   -1.9281   -1.4668    0.7179 C   0  0  0  0  0  0  0  0  0  0  0  0
   -1.0817   -2.3325    0.8474 O   0  0  0  0  0  0  0  0  0  0  0  0
   -1.5884   -0.1975    0.2908 N   0  0  0  0  0  0  0  0  0  0  0  0
   -2.3839    0.4089    0.1099 H   0  0  0  0  0  0  0  0  0  0  0  0
   -0.2702    0.4803    0.3675 C   0  0  1  0  0  0  0  0  0  0  0  0
   -0.4701    1.5271    0.6185 H   0  0  0  0  0  0  0  0  0  0  0  0
    0.7338   -0.0298    1.4258 C   0  0  0  0  0  0  0  0  0  0  0  0
    0.9479   -1.0931    1.2869 H   0  0  0  0  0  0  0  0  0  0  0  0
    1.6849    0.4966    1.2847 H   0  0  0  0  0  0  0  0  0  0  0  0
    0.2392    0.2498    2.8598 C   0  0  0  0  0  0  0  0  0  0  0  0
    0.1057    1.3266    2.9934 H   0  0  0  0  0  0  0  0  0  0  0  0
   -0.7305   -0.2294    3.0133 H   0  0  0  0  0  0  0  0  0  0  0  0
    1.1823   -0.2542    3.9529 C   0  0  0  0  0  0  0  0  0  0  0  0
    2.1554   -0.9305    3.6636 O   0  0  0  0  0  0  0  0  0  0  0  0
    0.8674    0.0873    5.2233 O   0  0  0  0  0  0  0  0  0  0  0  0
    1.5536   -0.3137    5.7785 H   0  0  0  0  0  0  0  0  0  0  0  0
    0.3977    0.5080   -1.0192 C   0  0  0  0  0  0  0  0  0  0  0  0
    0.9151    1.5353   -1.4354 O   0  0  0  0  0  0  0  0  0  0  0  0
    0.3981   -0.6343   -1.7956 N   0  0  0  0  0  0  0  0  0  0  0  0
    0.0394   -1.4788   -1.3512 H   0  0  0  0  0  0  0  0  0  0  0  0
    1.0929   -0.7377   -3.0715 C   0  0  0  0  0  0  0  0  0  0  0  0
    2.1669   -0.5711   -2.9370 H   0  0  0  0  0  0  0  0  0  0  0  0
    0.9476   -1.7333   -3.5013 H   0  0  0  0  0  0  0  0  0  0  0  0
    0.7066    0.0034   -3.7792 H   0  0  0  0  0  0  0  0  0  0  0  0
  1  2  1  0  0  0  0
  2  3  1  0  0  0  0
  2  4  1  0  0  0  0
  2  5  1  0  0  0  0
  5  6  2  0  0  0  0
  5  7  1  0  0  0  0
  7  8  1  0  0  0  0
  7  9  1  0  0  0  0
  9 10  1  0  0  0  0
  9 11  1  0  0  0  0
  9 21  1  0  0  0  0
 11 12  1  0  0  0  0
 11 13  1  0  0  0  0
 11 14  1  0  0  0  0
 14 15  1  0  0  0  0
 14 16  1  0  0  0  0
 14 17  1  0  0  0  0
 17 18  2  0  0  0  0
 17 19  1  0  0  0  0
 19 20  1  0  0  0  0
 21 22  2  0  0  0  0
 21 23  1  0  0  0  0
 23 24  1  0  0  0  0
 23 25  1  0  0  0  0
 25 26  1  0  0  0  0
 25 27  1  0  0  0  0
 25 28  1  0  0  0  0
M  END
$$$$

  -OEChem-01062216073D

 28 27  0     1  0  0  0  0  0999 V2000
   -3.4974   -2.8600    1.2717 H   0  0  0  0  0  0  0  0  0  0  0  0
   -3.4021   -1.8336    0.9057 C   0  0  0  0  0  0  0  0  0  0  0  0
   -3.8671   -1.1598    1.6294 H   0  0  0  0  0  0  0  0  0  0  0  0
   -3.9261   -1.7506   -0.0498 H   0  0  0  0  0  0  0  0  0  0  0  0
   -1.9385   -1.4759    0.7289 C   0  0  0  0  0  0  0  0  0  0  0  0
   -1.0947   -2.3450    0.8457 O   0  0  0  0  0  0  0  0  0  0  0  0
   -1.6031   -0.2072    0.2962 N   0  0  0  0  0  0  0  0  0  0  0  0
   -2.4022    0.4009    0.1375 H   0  0  0  0  0  0  0  0  0  0  0  0
   -0.2848    0.4752    0.3594 C   0  0  1  0  0  0  0  0  0  0  0  0
   -0.4861    1.5216    0.6106 H   0  0  0  0  0  0  0  0  0  0  0  0
    0.7220   -0.0340    1.4166 C   0  0  0  0  0  0  0  0  0  0  0  0
    0.9330   -1.0981    1.2786 H   0  0  0  0  0  0  0  0  0  0  0  0
    1.6743    0.4893    1.2719 H   0  0  0  0  0  0  0  0  0  0  0  0
    0.2341    0.2499    2.8524 C   0  0  0  0  0  0  0  0  0  0  0  0
    0.1024    1.3271    2.9847 H   0  0  0  0  0  0  0  0  0  0  0  0
   -0.7353   -0.2284    3.0110 H   0  0  0  0  0  0  0  0  0  0  0  0
    1.1811   -0.2534    3.9428 C   0  0  0  0  0  0  0  0  0  0  0  0
    2.1519   -0.9322    3.6516 O   0  0  0  0  0  0  0  0  0  0  0  0
    0.8732    0.0940    5.2134 O   0  0  0  0  0  0  0  0  0  0  0  0
    1.5619   -0.3056    5.7666 H   0  0  0  0  0  0  0  0  0  0  0  0
    0.3868    0.5110   -1.0280 C   0  0  0  0  0  0  0  0  0  0  0  0
    1.1072    1.4506   -1.3357 O   0  0  0  0  0  0  0  0  0  0  0  0
    0.1437   -0.4983   -1.9401 N   0  0  0  0  0  0  0  0  0  0  0  0
   -0.3291   -1.3207   -1.5698 H   0  0  0  0  0  0  0  0  0  0  0  0
    0.8252   -0.5935   -3.2245 C   0  0  0  0  0  0  0  0  0  0  0  0
    1.9018   -0.7281   -3.0775 H   0  0  0  0  0  0  0  0  0  0  0  0
    0.4425   -1.4464   -3.7934 H   0  0  0  0  0  0  0  0  0  0  0  0
    0.6615    0.3146   -3.8143 H   0  0  0  0  0  0  0  0  0  0  0  0
  1  2  1  0  0  0  0
  2  3  1  0  0  0  0
  2  4  1  0  0  0  0
  2  5  1  0  0  0  0
  5  6  2  0  0  0  0
  5  7  1  0  0  0  0
  7  8  1  0  0  0  0
  7  9  1  0  0  0  0
  9 10  1  0  0  0  0
  9 11  1  0  0  0  0
  9 21  1  0  0  0  0
 11 12  1  0  0  0  0
 11 13  1  0  0  0  0
 11 14  1  0  0  0  0
 14 15  1  0  0  0  0
 14 16  1  0  0  0  0
 14 17  1  0  0  0  0
 17 18  2  0  0  0  0
 17 19  1  0  0  0  0
 19 20  1  0  0  0  0
 21 22  2  0  0  0  0
 21 23  1  0  0  0  0
 23 24  1  0  0  0  0
 23 25  1  0  0  0  0
 25 26  1  0  0  0  0
 25 27  1  0  0  0  0
 25 28  1  0  0  0  0
M  END
$$$$

  -OEChem-01062216073D

 28 27  0     1  0  0  0  0  0999 V2000
   -3.5041   -2.8518    1.3213 H   0  0  0  0  0  0  0  0  0  0  0  0
   -3.4067   -1.8408    0.9149 C   0  0  0  0  0  0  0  0  0  0  0  0
   -3.8861   -1.1405    1.6032 H   0  0  0  0  0  0  0  0  0  0  0  0
   -3.9152   -1.7991   -0.0513 H   0  0  0  0  0  0  0  0  0  0  0  0
   -1.9417   -1.4849    0.7457 C   0  0  0  0  0  0  0  0  0  0  0  0
   -1.1023   -2.3541    0.8837 O   0  0  0  0  0  0  0  0  0  0  0  0
   -1.6063   -0.2157    0.3114 N   0  0  0  0  0  0  0  0  0  0  0  0
   -2.4063    0.3930    0.1604 H   0  0  0  0  0  0  0  0  0  0  0  0
   -0.2860    0.4675    0.3583 C   0  0  1  0  0  0  0  0  0  0  0  0
   -0.4859    1.5136    0.6109 H   0  0  0  0  0  0  0  0  0  0  0  0
    0.7227   -0.0438    1.4144 C   0  0  0  0  0  0  0  0  0  0  0  0
    0.9294   -1.1091    1.2791 H   0  0  0  0  0  0  0  0  0  0  0  0
    1.6780    0.4737    1.2681 H   0  0  0  0  0  0  0  0  0  0  0  0
    0.2392    0.2491    2.8494 C   0  0  0  0  0  0  0  0  0  0  0  0
    0.1161    1.3280    2.9762 H   0  0  0  0  0  0  0  0  0  0  0  0
   -0.7331   -0.2211    3.0127 H   0  0  0  0  0  0  0  0  0  0  0  0
    1.1848   -0.2542    3.9404 C   0  0  0  0  0  0  0  0  0  0  0  0
    2.1515   -0.9396    3.6521 O   0  0  0  0  0  0  0  0  0  0  0  0
    0.8773    0.0976    5.2099 O   0  0  0  0  0  0  0  0  0  0  0  0
    1.5631   -0.3055    5.7641 H   0  0  0  0  0  0  0  0  0  0  0  0
    0.3823    0.5143   -1.0329 C   0  0  0  0  0  0  0  0  0  0  0  0
    1.2707    1.3254   -1.2558 O   0  0  0  0  0  0  0  0  0  0  0  0
   -0.0753   -0.2909   -2.0589 N   0  0  0  0  0  0  0  0  0  0  0  0
   -0.6912   -1.0494   -1.7768 H   0  0  0  0  0  0  0  0  0  0  0  0
    0.5765   -0.3615   -3.3606 C   0  0  0  0  0  0  0  0  0  0  0  0
    1.6042   -0.7247   -3.2546 H   0  0  0  0  0  0  0  0  0  0  0  0
    0.0323   -1.0445   -4.0198 H   0  0  0  0  0  0  0  0  0  0  0  0
    0.5996    0.6266   -3.8324 H   0  0  0  0  0  0  0  0  0  0  0  0
  1  2  1  0  0  0  0
  2  3  1  0  0  0  0
  2  4  1  0  0  0  0
  2  5  1  0  0  0  0
  5  6  2  0  0  0  0
  5  7  1  0  0  0  0
  7  8  1  0  0  0  0
  7  9  1  0  0  0  0
  9 10  1  0  0  0  0
  9 11  1  0  0  0  0
  9 21  1  0  0  0  0
 11 12  1  0  0  0  0
 11 13  1  0  0  0  0
 11 14  1  0  0  0  0
 14 15  1  0  0  0  0
 14 16  1  0  0  0  0
 14 17  1  0  0  0  0
 17 18  2  0  0  0  0
 17 19  1  0  0  0  0
 19 20  1  0  0  0  0
 21 22  2  0  0  0  0
 21 23  1  0  0  0  0
 23 24  1  0  0  0  0
 23 25  1  0  0  0  0
 25 26  1  0  0  0  0
 25 27  1  0  0  0  0
 25 28  1  0  0  0  0
M  END
$$$$

  -OEChem-01062216073D

 28 27  0     1  0  0  0  0  0999 V2000
   -3.4924   -2.8556    1.3262 H   0  0  0  0  0  0  0  0  0  0  0  0
   -3.3937   -1.8486    0.9103 C   0  0  0  0  0  0  0  0  0  0  0  0
   -3.8744   -1.1412    1.5902 H   0  0  0  0  0  0  0  0  0  0  0  0
   -3.8999   -1.8168   -0.0574 H   0  0  0  0  0  0  0  0  0  0  0  0
   -1.9279   -1.4952    0.7426 C   0  0  0  0  0  0  0  0  0  0  0  0
   -1.0915   -2.3643    0.8958 O   0  0  0  0  0  0  0  0  0  0  0  0
   -1.5931   -0.2237    0.3117 N   0  0  0  0  0  0  0  0  0  0  0  0
   -2.3941    0.3882    0.1807 H   0  0  0  0  0  0  0  0  0  0  0  0
   -0.2711    0.4590    0.3554 C   0  0  1  0  0  0  0  0  0  0  0  0
   -0.4704    1.5053    0.6075 H   0  0  0  0  0  0  0  0  0  0  0  0
    0.7311   -0.0533    1.4199 C   0  0  0  0  0  0  0  0  0  0  0  0
    0.9349   -1.1195    1.2889 H   0  0  0  0  0  0  0  0  0  0  0  0
    1.6901    0.4589    1.2813 H   0  0  0  0  0  0  0  0  0  0  0  0
    0.2409    0.2486    2.8511 C   0  0  0  0  0  0  0  0  0  0  0  0
    0.1215    1.3285    2.9722 H   0  0  0  0  0  0  0  0  0  0  0  0
   -0.7343   -0.2169    3.0103 H   0  0  0  0  0  0  0  0  0  0  0  0
    1.1765   -0.2533    3.9516 C   0  0  0  0  0  0  0  0  0  0  0  0
    2.1423   -0.9450    3.6755 O   0  0  0  0  0  0  0  0  0  0  0  0
    0.8611    0.1086    5.2164 O   0  0  0  0  0  0  0  0  0  0  0  0
    1.5409   -0.2941    5.7781 H   0  0  0  0  0  0  0  0  0  0  0  0
    0.3931    0.5120   -1.0407 C   0  0  0  0  0  0  0  0  0  0  0  0
    1.4215    1.1530   -1.2095 O   0  0  0  0  0  0  0  0  0  0  0  0
   -0.2394   -0.0385   -2.1402 N   0  0  0  0  0  0  0  0  0  0  0  0
   -0.9959   -0.6836   -1.9310 H   0  0  0  0  0  0  0  0  0  0  0  0
    0.3592   -0.0655   -3.4694 C   0  0  0  0  0  0  0  0  0  0  0  0
    1.2902   -0.6421   -3.4588 H   0  0  0  0  0  0  0  0  0  0  0  0
   -0.3280   -0.5278   -4.1844 H   0  0  0  0  0  0  0  0  0  0  0  0
    0.5787    0.9512   -3.8122 H   0  0  0  0  0  0  0  0  0  0  0  0
  1  2  1  0  0  0  0
  2  3  1  0  0  0  0
  2  4  1  0  0  0  0
  2  5  1  0  0  0  0
  5  6  2  0  0  0  0
  5  7  1  0  0  0  0
  7  8  1  0  0  0  0
  7  9  1  0  0  0  0
  9 10  1  0  0  0  0
  9 11  1  0  0  0  0
  9 21  1  0  0  0  0
 11 12  1  0  0  0  0
 11 13  1  0  0  0  0
 11 14  1  0  0  0  0
 14 15  1  0  0  0  0
 14 16  1  0  0  0  0
 14 17  1  0  0  0  0
 17 18  2  0  0  0  0
 17 19  1  0  0  0  0
 19 20  1  0  0  0  0
 21 22  2  0  0  0  0
 21 23  1  0  0  0  0
 23 24  1  0  0  0  0
 23 25  1  0  0  0  0
 25 26  1  0  0  0  0
 25 27  1  0  0  0  0
 25 28  1  0  0  0  0
M  END
$$$$

  -OEChem-01062216073D

 28 27  0     1  0  0  0  0  0999 V2000
   -3.4731   -2.8805    1.2784 H   0  0  0  0  0  0  0  0  0  0  0  0
   -3.3746   -1.8557    0.9083 C   0  0  0  0  0  0  0  0  0  0  0  0
   -3.8319   -1.1774    1.6326 H   0  0  0  0  0  0  0  0  0  0  0  0
   -3.9036   -1.7735   -0.0441 H   0  0  0  0  0  0  0  0  0  0  0  0
   -1.9101   -1.5062    0.7216 C   0  0  0  0  0  0  0  0  0  0  0  0
   -1.0747   -2.3776    0.8658 O   0  0  0  0  0  0  0  0  0  0  0  0
   -1.5797   -0.2301    0.2997 N   0  0  0  0  0  0  0  0  0  0  0  0
   -2.3822    0.3864    0.2068 H   0  0  0  0  0  0  0  0  0  0  0  0
   -0.2573    0.4513    0.3474 C   0  0  1  0  0  0  0  0  0  0  0  0
   -0.4570    1.4969    0.6004 H   0  0  0  0  0  0  0  0  0  0  0  0
    0.7361   -0.0601    1.4231 C   0  0  0  0  0  0  0  0  0  0  0  0
    0.9394   -1.1270    1.2971 H   0  0  0  0  0  0  0  0  0  0  0  0
    1.6978    0.4491    1.2941 H   0  0  0  0  0  0  0  0  0  0  0  0
    0.2358    0.2488    2.8496 C   0  0  0  0  0  0  0  0  0  0  0  0
    0.1177    1.3293    2.9661 H   0  0  0  0  0  0  0  0  0  0  0  0
   -0.7412   -0.2144    3.0033 H   0  0  0  0  0  0  0  0  0  0  0  0
    1.1622   -0.2516    3.9590 C   0  0  0  0  0  0  0  0  0  0  0  0
    2.1279   -0.9470    3.6927 O   0  0  0  0  0  0  0  0  0  0  0  0
    0.8426    0.1210    5.2196 O   0  0  0  0  0  0  0  0  0  0  0  0
    1.5205   -0.2777    5.7866 H   0  0  0  0  0  0  0  0  0  0  0  0
    0.4016    0.5132   -1.0533 C   0  0  0  0  0  0  0  0  0  0  0  0
    1.5380    0.9451   -1.1926 O   0  0  0  0  0  0  0  0  0  0  0  0
   -0.3495    0.2594   -2.1868 N   0  0  0  0  0  0  0  0  0  0  0  0
   -1.2228   -0.2341   -2.0309 H   0  0  0  0  0  0  0  0  0  0  0  0
    0.2188    0.2682   -3.5298 C   0  0  0  0  0  0  0  0  0  0  0  0
    1.0033   -0.4909   -3.6181 H   0  0  0  0  0  0  0  0  0  0  0  0
   -0.5572    0.0545   -4.2710 H   0  0  0  0  0  0  0  0  0  0  0  0
    0.6512    1.2483   -3.7577 H   0  0  0  0  0  0  0  0  0  0  0  0
  1  2  1  0  0  0  0
  2  3  1  0  0  0  0
  2  4  1  0  0  0  0
  2  5  1  0  0  0  0
  5  6  2  0  0  0  0
  5  7  1  0  0  0  0
  7  8  1  0  0  0  0
  7  9  1  0  0  0  0
  9 10  1  0  0  0  0
  9 11  1  0  0  0  0
  9 21  1  0  0  0  0
 11 12  1  0  0  0  0
 11 13  1  0  0  0  0
 11 14  1  0  0  0  0
 14 15  1  0  0  0  0
 14 16  1  0  0  0  0
 14 17  1  0  0  0  0
 17 18  2  0  0  0  0
 17 19  1  0  0  0  0
 19 20  1  0  0  0  0
 21 22  2  0  0  0  0
 21 23  1  0  0  0  0
 23 24  1  0  0  0  0
 23 25  1  0  0  0  0
 25 26  1  0  0  0  0
 25 27  1  0  0  0  0
 25 28  1  0  0  0  0
M  END
$$$$

  -OEChem-01062216073D

 28 27  0     1  0  0  0  0  0999 V2000
   -3.4630   -2.8839    1.2485 H   0  0  0  0  0  0  0  0  0  0  0  0
   -3.3608   -1.8621    0.8713 C   0  0  0  0  0  0  0  0  0  0  0  0
   -3.8340   -1.1789    1.5808 H   0  0  0  0  0  0  0  0  0  0  0  0
   -3.8719   -1.7907   -0.0917 H   0  0  0  0  0  0  0  0  0  0  0  0
   -1.8939   -1.5100    0.7090 C   0  0  0  0  0  0  0  0  0  0  0  0
   -1.0606   -2.3782    0.8811 O   0  0  0  0  0  0  0  0  0  0  0  0
   -1.5618   -0.2316    0.2942 N   0  0  0  0  0  0  0  0  0  0  0  0
   -2.3649    0.3844    0.2079 H   0  0  0  0  0  0  0  0  0  0  0  0
   -0.2391    0.4479    0.3464 C   0  0  1  0  0  0  0  0  0  0  0  0
   -0.4379    1.4933    0.5994 H   0  0  0  0  0  0  0  0  0  0  0  0
    0.7490   -0.0628    1.4289 C   0  0  0  0  0  0  0  0  0  0  0  0
    0.9531   -1.1298    1.3057 H   0  0  0  0  0  0  0  0  0  0  0  0
    1.7113    0.4461    1.3053 H   0  0  0  0  0  0  0  0  0  0  0  0
    0.2409    0.2507    2.8516 C   0  0  0  0  0  0  0  0  0  0  0  0
    0.1223    1.3315    2.9651 H   0  0  0  0  0  0  0  0  0  0  0  0
   -0.7375   -0.2118    3.0000 H   0  0  0  0  0  0  0  0  0  0  0  0
    1.1594   -0.2474    3.9684 C   0  0  0  0  0  0  0  0  0  0  0  0
    2.1261   -0.9448    3.7114 O   0  0  0  0  0  0  0  0  0  0  0  0
    0.8319    0.1303    5.2255 O   0  0  0  0  0  0  0  0  0  0  0  0
    1.5046   -0.2692    5.7981 H   0  0  0  0  0  0  0  0  0  0  0  0
    0.4101    0.5102   -1.0603 C   0  0  0  0  0  0  0  0  0  0  0  0
    1.6128    0.6849   -1.2019 O   0  0  0  0  0  0  0  0  0  0  0  0
   -0.3936    0.5701   -2.1853 N   0  0  0  0  0  0  0  0  0  0  0  0
   -1.3576    0.2825   -2.0560 H   0  0  0  0  0  0  0  0  0  0  0  0
    0.1446    0.6198   -3.5401 C   0  0  0  0  0  0  0  0  0  0  0  0
    0.7405   -0.2752   -3.7485 H   0  0  0  0  0  0  0  0  0  0  0  0
   -0.6691    0.6734   -4.2696 H   0  0  0  0  0  0  0  0  0  0  0  0
    0.7798    1.5028   -3.6688 H   0  0  0  0  0  0  0  0  0  0  0  0
  1  2  1  0  0  0  0
  2  3  1  0  0  0  0
  2  4  1  0  0  0  0
  2  5  1  0  0  0  0
  5  6  2  0  0  0  0
  5  7  1  0  0  0  0
  7  8  1  0  0  0  0
  7  9  1  0  0  0  0
  9 10  1  0  0  0  0
  9 11  1  0  0  0  0
  9 21  1  0  0  0  0
 11 12  1  0  0  0  0
 11 13  1  0  0  0  0
 11 14  1  0  0  0  0
 14 15  1  0  0  0  0
 14 16  1  0  0  0  0
 14 17  1  0  0  0  0
 17 18  2  0  0  0  0
 17 19  1  0  0  0  0
 19 20  1  0  0  0  0
 21 22  2  0  0  0  0
 21 23  1  0  0  0  0
 23 24  1  0  0  0  0
 23 25  1  0  0  0  0
 25 26  1  0  0  0  0
 25 27  1  0  0  0  0
 25 28  1  0  0  0  0
M  END
$$$$

  -OEChem-01062216073D

 28 27  0     1  0  0  0  0  0999 V2000
   -3.4800   -2.8897    1.1859 H   0  0  0  0  0  0  0  0  0  0  0  0
   -3.3642   -1.8718    0.8021 C   0  0  0  0  0  0  0  0  0  0  0  0
   -3.8804   -1.1837    1.4758 H   0  0  0  0  0  0  0  0  0  0  0  0
   -3.8213   -1.8166   -0.1889 H   0  0  0  0  0  0  0  0  0  0  0  0
   -1.8932   -1.5102    0.7156 C   0  0  0  0  0  0  0  0  0  0  0  0
   -1.0671   -2.3674    0.9615 O   0  0  0  0  0  0  0  0  0  0  0  0
   -1.5523   -0.2326    0.3035 N   0  0  0  0  0  0  0  0  0  0  0  0
   -2.3549    0.3740    0.1684 H   0  0  0  0  0  0  0  0  0  0  0  0
   -0.2293    0.4452    0.3546 C   0  0  1  0  0  0  0  0  0  0  0  0
   -0.4249    1.4910    0.6089 H   0  0  0  0  0  0  0  0  0  0  0  0
    0.7622   -0.0612    1.4357 C   0  0  0  0  0  0  0  0  0  0  0  0
    0.9673   -1.1284    1.3141 H   0  0  0  0  0  0  0  0  0  0  0  0
    1.7234    0.4490    1.3065 H   0  0  0  0  0  0  0  0  0  0  0  0
    0.2569    0.2559    2.8588 C   0  0  0  0  0  0  0  0  0  0  0  0
    0.1374    1.3367    2.9692 H   0  0  0  0  0  0  0  0  0  0  0  0
   -0.7208   -0.2075    3.0102 H   0  0  0  0  0  0  0  0  0  0  0  0
    1.1777   -0.2373    3.9758 C   0  0  0  0  0  0  0  0  0  0  0  0
    2.1452   -0.9342    3.7206 O   0  0  0  0  0  0  0  0  0  0  0  0
    0.8518    0.1465    5.2314 O   0  0  0  0  0  0  0  0  0  0  0  0
    1.5237   -0.2526    5.8051 H   0  0  0  0  0  0  0  0  0  0  0  0
    0.4092    0.5032   -1.0577 C   0  0  0  0  0  0  0  0  0  0  0  0
    1.6147    0.3844   -1.2301 O   0  0  0  0  0  0  0  0  0  0  0  0
   -0.3669    0.8734   -2.1427 N   0  0  0  0  0  0  0  0  0  0  0  0
   -1.3715    0.8664   -2.0084 H   0  0  0  0  0  0  0  0  0  0  0  0
    0.1575    0.9598   -3.5013 C   0  0  0  0  0  0  0  0  0  0  0  0
    0.5262   -0.0168   -3.8324 H   0  0  0  0  0  0  0  0  0  0  0  0
   -0.6262    1.2872   -4.1908 H   0  0  0  0  0  0  0  0  0  0  0  0
    0.9803    1.6810   -3.5492 H   0  0  0  0  0  0  0  0  0  0  0  0
  1  2  1  0  0  0  0
  2  3  1  0  0  0  0
  2  4  1  0  0  0  0
  2  5  1  0  0  0  0
  5  6  2  0  0  0  0
  5  7  1  0  0  0  0
  7  8  1  0  0  0  0
  7  9  1  0  0  0  0
  9 10  1  0  0  0  0
  9 11  1  0  0  0  0
  9 21  1  0  0  0  0
 11 12  1  0  0  0  0
 11 13  1  0  0  0  0
 11 14  1  0  0  0  0
 14 15  1  0  0  0  0
 14 16  1  0  0  0  0
 14 17  1  0  0  0  0
 17 18  2  0  0  0  0
 17 19  1  0  0  0  0
 19 20  1  0  0  0  0
 21 22  2  0  0  0  0
 21 23  1  0  0  0  0
 23 24  1  0  0  0  0
 23 25  1  0  0  0  0
 25 26  1  0  0  0  0
 25 27  1  0  0  0  0
 25 28  1  0  0  0  0
M  END
$$$$

  -OEChem-01062216073D

 28 27  0     1  0  0  0  0  0999 V2000
   -3.5343   -2.8885    1.0695 H   0  0  0  0  0  0  0  0  0  0  0  0
   -3.3842   -1.8875    0.6545 C   0  0  0  0  0  0  0  0  0  0  0  0
   -4.0167   -1.1840    1.2012 H   0  0  0  0  0  0  0  0  0  0  0  0
   -3.6805   -1.8961   -0.3972 H   0  0  0  0  0  0  0  0  0  0  0  0
   -1.9270   -1.4828    0.7789 C   0  0  0  0  0  0  0  0  0  0  0  0
   -1.1405   -2.2889    1.2371 O   0  0  0  0  0  0  0  0  0  0  0  0
   -1.5627   -0.2154    0.3532 N   0  0  0  0  0  0  0  0  0  0  0  0
   -2.3391    0.3356    0.0030 H   0  0  0  0  0  0  0  0  0  0  0  0
   -0.2360    0.4555    0.3881 C   0  0  1  0  0  0  0  0  0  0  0  0
   -0.4208    1.5030    0.6425 H   0  0  0  0  0  0  0  0  0  0  0  0
    0.7751   -0.0495    1.4493 C   0  0  0  0  0  0  0  0  0  0  0  0
    0.9725   -1.1184    1.3232 H   0  0  0  0  0  0  0  0  0  0  0  0
    1.7343    0.4572    1.2944 H   0  0  0  0  0  0  0  0  0  0  0  0
    0.2988    0.2677    2.8825 C   0  0  0  0  0  0  0  0  0  0  0  0
    0.1813    1.3483    2.9951 H   0  0  0  0  0  0  0  0  0  0  0  0
   -0.6759   -0.1952    3.0545 H   0  0  0  0  0  0  0  0  0  0  0  0
    1.2418   -0.2251    3.9807 C   0  0  0  0  0  0  0  0  0  0  0  0
    2.2042   -0.9220    3.7064 O   0  0  0  0  0  0  0  0  0  0  0  0
    0.9423    0.1604    5.2427 O   0  0  0  0  0  0  0  0  0  0  0  0
    1.6207   -0.2457    5.8035 H   0  0  0  0  0  0  0  0  0  0  0  0
    0.3834    0.4867   -1.0329 C   0  0  0  0  0  0  0  0  0  0  0  0
    1.4939    0.0344   -1.2744 O   0  0  0  0  0  0  0  0  0  0  0  0
   -0.2906    1.1343   -2.0549 N   0  0  0  0  0  0  0  0  0  0  0  0
   -1.2014    1.5264   -1.8458 H   0  0  0  0  0  0  0  0  0  0  0  0
    0.2338    1.2510   -3.4113 C   0  0  0  0  0  0  0  0  0  0  0  0
    0.4019    0.2589   -3.8438 H   0  0  0  0  0  0  0  0  0  0  0  0
   -0.4756    1.7891   -4.0472 H   0  0  0  0  0  0  0  0  0  0  0  0
    1.1818    1.7994   -3.4102 H   0  0  0  0  0  0  0  0  0  0  0  0
  1  2  1  0  0  0  0
  2  3  1  0  0  0  0
  2  4  1  0  0  0  0
  2  5  1  0  0  0  0
  5  6  2  0  0  0  0
  5  7  1  0  0  0  0
  7  8  1  0  0  0  0
  7  9  1  0  0  0  0
  9 10  1  0  0  0  0
  9 11  1  0  0  0  0
  9 21  1  0  0  0  0
 11 12  1  0  0  0  0
 11 13  1  0  0  0  0
 11 14  1  0  0  0  0
 14 15  1  0  0  0  0
 14 16  1  0  0  0  0
 14 17  1  0  0  0  0
 17 18  2  0  0  0  0
 17 19  1  0  0  0  0
 19 20  1  0  0  0  0
 21 22  2  0  0  0  0
 21 23  1  0  0  0  0
 23 24  1  0  0  0  0
 23 25  1  0  0  0  0
 25 26  1  0  0  0  0
 25 27  1  0  0  0  0
 25 28  1  0  0  0  0
M  END
$$$$

  -OEChem-01062216073D

 28 27  0     1  0  0  0  0  0999 V2000
   -3.5458   -2.9101    0.9667 H   0  0  0  0  0  0  0  0  0  0  0  0
   -3.3926   -1.9008    0.5736 C   0  0  0  0  0  0  0  0  0  0  0  0
   -4.0874   -1.2213    1.0731 H   0  0  0  0  0  0  0  0  0  0  0  0
   -3.6035   -1.9075   -0.4985 H   0  0  0  0  0  0  0  0  0  0  0  0
   -1.9631   -1.4549    0.8197 C   0  0  0  0  0  0  0  0  0  0  0  0
   -1.2142   -2.2156    1.4026 O   0  0  0  0  0  0  0  0  0  0  0  0
   -1.5901   -0.1932    0.3838 N   0  0  0  0  0  0  0  0  0  0  0  0
   -2.3232    0.2949   -0.1203 H   0  0  0  0  0  0  0  0  0  0  0  0
   -0.2583    0.4650    0.4080 C   0  0  1  0  0  0  0  0  0  0  0  0
   -0.4338    1.5132    0.6653 H   0  0  0  0  0  0  0  0  0  0  0  0
    0.7686   -0.0400    1.4510 C   0  0  0  0  0  0  0  0  0  0  0  0
    0.9524   -1.1118    1.3237 H   0  0  0  0  0  0  0  0  0  0  0  0
    1.7283    0.4579    1.2730 H   0  0  0  0  0  0  0  0  0  0  0  0
    0.3208    0.2792    2.8933 C   0  0  0  0  0  0  0  0  0  0  0  0
    0.2075    1.3600    3.0074 H   0  0  0  0  0  0  0  0  0  0  0  0
   -0.6515   -0.1801    3.0857 H   0  0  0  0  0  0  0  0  0  0  0  0
    1.2850   -0.2157    3.9717 C   0  0  0  0  0  0  0  0  0  0  0  0
    2.2398   -0.9148    3.6766 O   0  0  0  0  0  0  0  0  0  0  0  0
    1.0186    0.1769    5.2389 O   0  0  0  0  0  0  0  0  0  0  0  0
    1.7082   -0.2307    5.7846 H   0  0  0  0  0  0  0  0  0  0  0  0
    0.3504    0.4815   -1.0155 C   0  0  0  0  0  0  0  0  0  0  0  0
    1.2813   -0.2431   -1.3368 O   0  0  0  0  0  0  0  0  0  0  0  0
   -0.1419    1.3732   -1.9538 N   0  0  0  0  0  0  0  0  0  0  0  0
   -0.8644    2.0205   -1.6578 H   0  0  0  0  0  0  0  0  0  0  0  0
    0.4169    1.5072   -3.2949 C   0  0  0  0  0  0  0  0  0  0  0  0
    0.3595    0.5540   -3.8311 H   0  0  0  0  0  0  0  0  0  0  0  0
   -0.1395    2.2575   -3.8648 H   0  0  0  0  0  0  0  0  0  0  0  0
    1.4657    1.8185   -3.2441 H   0  0  0  0  0  0  0  0  0  0  0  0
  1  2  1  0  0  0  0
  2  3  1  0  0  0  0
  2  4  1  0  0  0  0
  2  5  1  0  0  0  0
  5  6  2  0  0  0  0
  5  7  1  0  0  0  0
  7  8  1  0  0  0  0
  7  9  1  0  0  0  0
  9 10  1  0  0  0  0
  9 11  1  0  0  0  0
  9 21  1  0  0  0  0
 11 12  1  0  0  0  0
 11 13  1  0  0  0  0
 11 14  1  0  0  0  0
 14 15  1  0  0  0  0
 14 16  1  0  0  0  0
 14 17  1  0  0  0  0
 17 18  2  0  0  0  0
 17 19  1  0  0  0  0
 19 20  1  0  0  0  0
 21 22  2  0  0  0  0
 21 23  1  0  0  0  0
 23 24  1  0  0  0  0
 23 25  1  0  0  0  0
 25 26  1  0  0  0  0
 25 27  1  0  0  0  0
 25 28  1  0  0  0  0
M  END
$$$$

  -OEChem-01062216073D

 28 27  0     1  0  0  0  0  0999 V2000
   -3.5333   -2.9152    0.9012 H   0  0  0  0  0  0  0  0  0  0  0  0
   -3.3797   -1.9063    0.5070 C   0  0  0  0  0  0  0  0  0  0  0  0
   -4.1252   -1.2403    0.9479 H   0  0  0  0  0  0  0  0  0  0  0  0
   -3.5143   -1.9306   -0.5771 H   0  0  0  0  0  0  0  0  0  0  0  0
   -1.9823   -1.4195    0.8450 C   0  0  0  0  0  0  0  0  0  0  0  0
   -1.2630   -2.1461    1.5049 O   0  0  0  0  0  0  0  0  0  0  0  0
   -1.6092   -0.1584    0.4071 N   0  0  0  0  0  0  0  0  0  0  0  0
   -2.3111    0.2886   -0.1743 H   0  0  0  0  0  0  0  0  0  0  0  0
   -0.2748    0.4932    0.4312 C   0  0  1  0  0  0  0  0  0  0  0  0
   -0.4474    1.5398    0.6970 H   0  0  0  0  0  0  0  0  0  0  0  0
    0.7635   -0.0189    1.4573 C   0  0  0  0  0  0  0  0  0  0  0  0
    0.9392   -1.0910    1.3193 H   0  0  0  0  0  0  0  0  0  0  0  0
    1.7222    0.4767    1.2682 H   0  0  0  0  0  0  0  0  0  0  0  0
    0.3356    0.2869    2.9090 C   0  0  0  0  0  0  0  0  0  0  0  0
    0.2270    1.3669    3.0346 H   0  0  0  0  0  0  0  0  0  0  0  0
   -0.6356   -0.1697    3.1133 H   0  0  0  0  0  0  0  0  0  0  0  0
    1.3158   -0.2184    3.9680 C   0  0  0  0  0  0  0  0  0  0  0  0
    2.2662   -0.9143    3.6511 O   0  0  0  0  0  0  0  0  0  0  0  0
    1.0674    0.1598    5.2433 O   0  0  0  0  0  0  0  0  0  0  0  0
    1.7604   -0.2592    5.7758 H   0  0  0  0  0  0  0  0  0  0  0  0
    0.3324    0.5063   -0.9911 C   0  0  0  0  0  0  0  0  0  0  0  0
    1.0100   -0.4203   -1.4112 O   0  0  0  0  0  0  0  0  0  0  0  0
    0.0851    1.5781   -1.8318 N   0  0  0  0  0  0  0  0  0  0  0  0
   -0.4373    2.3636   -1.4577 H   0  0  0  0  0  0  0  0  0  0  0  0
    0.6483    1.6823   -3.1737 C   0  0  0  0  0  0  0  0  0  0  0  0
    0.3413    0.8280   -3.7867 H   0  0  0  0  0  0  0  0  0  0  0  0
    0.3011    2.5984   -3.6613 H   0  0  0  0  0  0  0  0  0  0  0  0
    1.7423    1.7068   -3.1283 H   0  0  0  0  0  0  0  0  0  0  0  0
  1  2  1  0  0  0  0
  2  3  1  0  0  0  0
  2  4  1  0  0  0  0
  2  5  1  0  0  0  0
  5  6  2  0  0  0  0
  5  7  1  0  0  0  0
  7  8  1  0  0  0  0
  7  9  1  0  0  0  0
  9 10  1  0  0  0  0
  9 11  1  0  0  0  0
  9 21  1  0  0  0  0
 11 12  1  0  0  0  0
 11 13  1  0  0  0  0
 11 14  1  0  0  0  0
 14 15  1  0  0  0  0
 14 16  1  0  0  0  0
 14 17  1  0  0  0  0
 17 18  2  0  0  0  0
 17 19  1  0  0  0  0
 19 20  1  0  0  0  0
 21 22  2  0  0  0  0
 21 23  1  0  0  0  0
 23 24  1  0  0  0  0
 23 25  1  0  0  0  0
 25 26  1  0  0  0  0
 25 27  1  0  0  0  0
 25 28  1  0  0  0  0
M  END
$$$$

  -OEChem-01062216073D

 28 27  0     1  0  0  0  0  0999 V2000
   -3.5250   -2.9168    0.8674 H   0  0  0  0  0  0  0  0  0  0  0  0
   -3.3697   -1.9095    0.4703 C   0  0  0  0  0  0  0  0  0  0  0  0
   -4.1388   -1.2491    0.8776 H   0  0  0  0  0  0  0  0  0  0  0  0
   -3.4644   -1.9443   -0.6177 H   0  0  0  0  0  0  0  0  0  0  0  0
   -1.9918   -1.4018    0.8537 C   0  0  0  0  0  0  0  0  0  0  0  0
   -1.2892   -2.1102    1.5514 O   0  0  0  0  0  0  0  0  0  0  0  0
   -1.6202   -0.1399    0.4172 N   0  0  0  0  0  0  0  0  0  0  0  0
   -2.2994    0.2807   -0.2094 H   0  0  0  0  0  0  0  0  0  0  0  0
   -0.2850    0.5076    0.4456 C   0  0  1  0  0  0  0  0  0  0  0  0
   -0.4618    1.5523    0.7155 H   0  0  0  0  0  0  0  0  0  0  0  0
    0.7587   -0.0060    1.4629 C   0  0  0  0  0  0  0  0  0  0  0  0
    0.9316   -1.0779    1.3177 H   0  0  0  0  0  0  0  0  0  0  0  0
    1.7161    0.4903    1.2709 H   0  0  0  0  0  0  0  0  0  0  0  0
    0.3410    0.2911    2.9200 C   0  0  0  0  0  0  0  0  0  0  0  0
    0.2318    1.3703    3.0522 H   0  0  0  0  0  0  0  0  0  0  0  0
   -0.6278   -0.1669    3.1309 H   0  0  0  0  0  0  0  0  0  0  0  0
    1.3318   -0.2185    3.9672 C   0  0  0  0  0  0  0  0  0  0  0  0
    2.2807   -0.9103    3.6365 O   0  0  0  0  0  0  0  0  0  0  0  0
    1.0976    0.1546    5.2465 O   0  0  0  0  0  0  0  0  0  0  0  0
    1.7964   -0.2662    5.7699 H   0  0  0  0  0  0  0  0  0  0  0  0
    0.3301    0.5242   -0.9720 C   0  0  0  0  0  0  0  0  0  0  0  0
    0.7142   -0.5044   -1.5093 O   0  0  0  0  0  0  0  0  0  0  0  0
    0.3644    1.7031   -1.6965 N   0  0  0  0  0  0  0  0  0  0  0  0
    0.0699    2.5550   -1.2297 H   0  0  0  0  0  0  0  0  0  0  0  0
    0.9256    1.7951   -3.0401 C   0  0  0  0  0  0  0  0  0  0  0  0
    0.4030    1.1159   -3.7221 H   0  0  0  0  0  0  0  0  0  0  0  0
    0.8240    2.8145   -3.4249 H   0  0  0  0  0  0  0  0  0  0  0  0
    1.9889    1.5326   -3.0296 H   0  0  0  0  0  0  0  0  0  0  0  0
  1  2  1  0  0  0  0
  2  3  1  0  0  0  0
  2  4  1  0  0  0  0
  2  5  1  0  0  0  0
  5  6  2  0  0  0  0
  5  7  1  0  0  0  0
  7  8  1  0  0  0  0
  7  9  1  0  0  0  0
  9 10  1  0  0  0  0
  9 11  1  0  0  0  0
  9 21  1  0  0  0  0
 11 12  1  0  0  0  0
 11 13  1  0  0  0  0
 11 14  1  0  0  0  0
 14 15  1  0  0  0  0
 14 16  1  0  0  0  0
 14 17  1  0  0  0  0
 17 18  2  0  0  0  0
 17 19  1  0  0  0  0
 19 20  1  0  0  0  0
 21 22  2  0  0  0  0
 21 23  1  0  0  0  0
 23 24  1  0  0  0  0
 23 25  1  0  0  0  0
 25 26  1  0  0  0  0
 25 27  1  0  0  0  0
 25 28  1  0  0  0  0
M  END
$$$$

  -OEChem-01062216073D

 28 27  0     1  0  0  0  0  0999 V2000
   -3.5165   -2.9134    0.8446 H   0  0  0  0  0  0  0  0  0  0  0  0
   -3.3543   -1.9116    0.4367 C   0  0  0  0  0  0  0  0  0  0  0  0
   -4.1452   -1.2516    0.8005 H   0  0  0  0  0  0  0  0  0  0  0  0
   -3.4040   -1.9658   -0.6535 H   0  0  0  0  0  0  0  0  0  0  0  0
   -1.9980   -1.3837    0.8663 C   0  0  0  0  0  0  0  0  0  0  0  0
   -1.3121   -2.0779    1.5952 O   0  0  0  0  0  0  0  0  0  0  0  0
   -1.6248   -0.1225    0.4298 N   0  0  0  0  0  0  0  0  0  0  0  0
   -2.2765    0.2689   -0.2436 H   0  0  0  0  0  0  0  0  0  0  0  0
   -0.2851    0.5151    0.4588 C   0  0  1  0  0  0  0  0  0  0  0  0
   -0.4624    1.5601    0.7282 H   0  0  0  0  0  0  0  0  0  0  0  0
    0.7584   -0.0021    1.4734 C   0  0  0  0  0  0  0  0  0  0  0  0
    0.9223   -1.0756    1.3289 H   0  0  0  0  0  0  0  0  0  0  0  0
    1.7186    0.4877    1.2786 H   0  0  0  0  0  0  0  0  0  0  0  0
    0.3482    0.2975    2.9322 C   0  0  0  0  0  0  0  0  0  0  0  0
    0.2472    1.3774    3.0649 H   0  0  0  0  0  0  0  0  0  0  0  0
   -0.6231   -0.1528    3.1483 H   0  0  0  0  0  0  0  0  0  0  0  0
    1.3415   -0.2173    3.9746 C   0  0  0  0  0  0  0  0  0  0  0  0
    2.2851   -0.9139    3.6379 O   0  0  0  0  0  0  0  0  0  0  0  0
    1.1158    0.1561    5.2554 O   0  0  0  0  0  0  0  0  0  0  0  0
    1.8123   -0.2713    5.7766 H   0  0  0  0  0  0  0  0  0  0  0  0
    0.3345    0.5326   -0.9570 C   0  0  0  0  0  0  0  0  0  0  0  0
    0.4077   -0.4899   -1.6242 O   0  0  0  0  0  0  0  0  0  0  0  0
    0.6665    1.7361   -1.5543 N   0  0  0  0  0  0  0  0  0  0  0  0
    0.6138    2.5771   -0.9879 H   0  0  0  0  0  0  0  0  0  0  0  0
    1.2117    1.8303   -2.9041 C   0  0  0  0  0  0  0  0  0  0  0  0
    0.5136    1.4012   -3.6308 H   0  0  0  0  0  0  0  0  0  0  0  0
    1.3861    2.8771   -3.1709 H   0  0  0  0  0  0  0  0  0  0  0  0
    2.1634    1.2922   -2.9710 H   0  0  0  0  0  0  0  0  0  0  0  0
  1  2  1  0  0  0  0
  2  3  1  0  0  0  0
  2  4  1  0  0  0  0
  2  5  1  0  0  0  0
  5  6  2  0  0  0  0
  5  7  1  0  0  0  0
  7  8  1  0  0  0  0
  7  9  1  0  0  0  0
  9 10  1  0  0  0  0
  9 11  1  0  0  0  0
  9 21  1  0  0  0  0
 11 12  1  0  0  0  0
 11 13  1  0  0  0  0
 11 14  1  0  0  0  0
 14 15  1  0  0  0  0
 14 16  1  0  0  0  0
 14 17  1  0  0  0  0
 17 18  2  0  0  0  0
 17 19  1  0  0  0  0
 19 20  1  0  0  0  0
 21 22  2  0  0  0  0
 21 23  1  0  0  0  0
 23 24  1  0  0  0  0
 23 25  1  0  0  0  0
 25 26  1  0  0  0  0
 25 27  1  0  0  0  0
 25 28  1  0  0  0  0
M  END
$$$$

  -OEChem-01062216073D

 28 27  0     1  0  0  0  0  0999 V2000
   -3.5122   -2.9126    0.8394 H   0  0  0  0  0  0  0  0  0  0  0  0
   -3.3476   -1.9124    0.4285 C   0  0  0  0  0  0  0  0  0  0  0  0
   -4.1468   -1.2534    0.7759 H   0  0  0  0  0  0  0  0  0  0  0  0
   -3.3795   -1.9728   -0.6622 H   0  0  0  0  0  0  0  0  0  0  0  0
   -2.0005   -1.3765    0.8762 C   0  0  0  0  0  0  0  0  0  0  0  0
   -1.3204   -2.0656    1.6158 O   0  0  0  0  0  0  0  0  0  0  0  0
   -1.6255   -0.1166    0.4387 N   0  0  0  0  0  0  0  0  0  0  0  0
   -2.2561    0.2526   -0.2672 H   0  0  0  0  0  0  0  0  0  0  0  0
   -0.2825    0.5145    0.4638 C   0  0  1  0  0  0  0  0  0  0  0  0
   -0.4575    1.5608    0.7295 H   0  0  0  0  0  0  0  0  0  0  0  0
    0.7598   -0.0053    1.4783 C   0  0  0  0  0  0  0  0  0  0  0  0
    0.9178   -1.0798    1.3369 H   0  0  0  0  0  0  0  0  0  0  0  0
    1.7229    0.4788    1.2832 H   0  0  0  0  0  0  0  0  0  0  0  0
    0.3514    0.3013    2.9361 C   0  0  0  0  0  0  0  0  0  0  0  0
    0.2566    1.3822    3.0656 H   0  0  0  0  0  0  0  0  0  0  0  0
   -0.6225   -0.1421    3.1543 H   0  0  0  0  0  0  0  0  0  0  0  0
    1.3427   -0.2157    3.9791 C   0  0  0  0  0  0  0  0  0  0  0  0
    2.2820   -0.9183    3.6427 O   0  0  0  0  0  0  0  0  0  0  0  0
    1.1209    0.1624    5.2592 O   0  0  0  0  0  0  0  0  0  0  0  0
    1.8148   -0.2681    5.7812 H   0  0  0  0  0  0  0  0  0  0  0  0
    0.3388    0.5332   -0.9519 C   0  0  0  0  0  0  0  0  0  0  0  0
    0.1390   -0.3832   -1.7383 O   0  0  0  0  0  0  0  0  0  0  0  0
    0.9576    1.6789   -1.4205 N   0  0  0  0  0  0  0  0  0  0  0  0
    1.1232    2.4314   -0.7592 H   0  0  0  0  0  0  0  0  0  0  0  0
    1.5109    1.7910   -2.7657 C   0  0  0  0  0  0  0  0  0  0  0  0
    0.7276    1.6421   -3.5167 H   0  0  0  0  0  0  0  0  0  0  0  0
    1.9468    2.7836   -2.9153 H   0  0  0  0  0  0  0  0  0  0  0  0
    2.2945    1.0416   -2.9211 H   0  0  0  0  0  0  0  0  0  0  0  0
  1  2  1  0  0  0  0
  2  3  1  0  0  0  0
  2  4  1  0  0  0  0
  2  5  1  0  0  0  0
  5  6  2  0  0  0  0
  5  7  1  0  0  0  0
  7  8  1  0  0  0  0
  7  9  1  0  0  0  0
  9 10  1  0  0  0  0
  9 11  1  0  0  0  0
  9 21  1  0  0  0  0
 11 12  1  0  0  0  0
 11 13  1  0  0  0  0
 11 14  1  0  0  0  0
 14 15  1  0  0  0  0
 14 16  1  0  0  0  0
 14 17  1  0  0  0  0
 17 18  2  0  0  0  0
 17 19  1  0  0  0  0
 19 20  1  0  0  0  0
 21 22  2  0  0  0  0
 21 23  1  0  0  0  0
 23 24  1  0  0  0  0
 23 25  1  0  0  0  0
 25 26  1  0  0  0  0
 25 27  1  0  0  0  0
 25 28  1  0  0  0  0
M  END
$$$$

  -OEChem-01062216073D

 28 27  0     1  0  0  0  0  0999 V2000
   -3.5123   -2.9092    0.8402 H   0  0  0  0  0  0  0  0  0  0  0  0
   -3.3452   -1.9095    0.4294 C   0  0  0  0  0  0  0  0  0  0  0  0
   -4.1447   -1.2495    0.7740 H   0  0  0  0  0  0  0  0  0  0  0  0
   -3.3740   -1.9698   -0.6614 H   0  0  0  0  0  0  0  0  0  0  0  0
   -1.9989   -1.3749    0.8812 C   0  0  0  0  0  0  0  0  0  0  0  0
   -1.3177   -2.0673    1.6171 O   0  0  0  0  0  0  0  0  0  0  0  0
   -1.6210   -0.1159    0.4448 N   0  0  0  0  0  0  0  0  0  0  0  0
   -2.2384    0.2418   -0.2792 H   0  0  0  0  0  0  0  0  0  0  0  0
   -0.2770    0.5132    0.4674 C   0  0  1  0  0  0  0  0  0  0  0  0
   -0.4497    1.5612    0.7287 H   0  0  0  0  0  0  0  0  0  0  0  0
    0.7619   -0.0088    1.4852 C   0  0  0  0  0  0  0  0  0  0  0  0
    0.9170   -1.0839    1.3460 H   0  0  0  0  0  0  0  0  0  0  0  0
    1.7275    0.4713    1.2945 H   0  0  0  0  0  0  0  0  0  0  0  0
    0.3515    0.3022    2.9413 C   0  0  0  0  0  0  0  0  0  0  0  0
    0.2591    1.3838    3.0683 H   0  0  0  0  0  0  0  0  0  0  0  0
   -0.6242   -0.1381    3.1584 H   0  0  0  0  0  0  0  0  0  0  0  0
    1.3396   -0.2166    3.9865 C   0  0  0  0  0  0  0  0  0  0  0  0
    2.2768   -0.9229    3.6514 O   0  0  0  0  0  0  0  0  0  0  0  0
    1.1177    0.1633    5.2659 O   0  0  0  0  0  0  0  0  0  0  0  0
    1.8090   -0.2694    5.7894 H   0  0  0  0  0  0  0  0  0  0  0  0
    0.3440    0.5339   -0.9498 C   0  0  0  0  0  0  0  0  0  0  0  0
   -0.0729   -0.2093   -1.8298 O   0  0  0  0  0  0  0  0  0  0  0  0
    1.2220    1.5431   -1.3050 N   0  0  0  0  0  0  0  0  0  0  0  0
    1.5643    2.1518   -0.5676 H   0  0  0  0  0  0  0  0  0  0  0  0
    1.7944    1.6678   -2.6410 C   0  0  0  0  0  0  0  0  0  0  0  0
    1.0032    1.8007   -3.3865 H   0  0  0  0  0  0  0  0  0  0  0  0
    2.4615    2.5339   -2.6886 H   0  0  0  0  0  0  0  0  0  0  0  0
    2.3705    0.7721   -2.8964 H   0  0  0  0  0  0  0  0  0  0  0  0
  1  2  1  0  0  0  0
  2  3  1  0  0  0  0
  2  4  1  0  0  0  0
  2  5  1  0  0  0  0
  5  6  2  0  0  0  0
  5  7  1  0  0  0  0
  7  8  1  0  0  0  0
  7  9  1  0  0  0  0
  9 10  1  0  0  0  0
  9 11  1  0  0  0  0
  9 21  1  0  0  0  0
 11 12  1  0  0  0  0
 11 13  1  0  0  0  0
 11 14  1  0  0  0  0
 14 15  1  0  0  0  0
 14 16  1  0  0  0  0
 14 17  1  0  0  0  0
 17 18  2  0  0  0  0
 17 19  1  0  0  0  0
 19 20  1  0  0  0  0
 21 22  2  0  0  0  0
 21 23  1  0  0  0  0
 23 24  1  0  0  0  0
 23 25  1  0  0  0  0
 25 26  1  0  0  0  0
 25 27  1  0  0  0  0
 25 28  1  0  0  0  0
M  END
$$$$

  -OEChem-01062216073D

 28 27  0     1  0  0  0  0  0999 V2000
   -3.4996   -2.9087    0.8271 H   0  0  0  0  0  0  0  0  0  0  0  0
   -3.3348   -1.9039    0.4277 C   0  0  0  0  0  0  0  0  0  0  0  0
   -4.1340   -1.2488    0.7821 H   0  0  0  0  0  0  0  0  0  0  0  0
   -3.3664   -1.9507   -0.6637 H   0  0  0  0  0  0  0  0  0  0  0  0
   -1.9880   -1.3730    0.8821 C   0  0  0  0  0  0  0  0  0  0  0  0
   -1.3033   -2.0746    1.6060 O   0  0  0  0  0  0  0  0  0  0  0  0
   -1.6082   -0.1122    0.4531 N   0  0  0  0  0  0  0  0  0  0  0  0
   -2.2189    0.2448   -0.2780 H   0  0  0  0  0  0  0  0  0  0  0  0
   -0.2656    0.5203    0.4775 C   0  0  1  0  0  0  0  0  0  0  0  0
   -0.4355    1.5688    0.7390 H   0  0  0  0  0  0  0  0  0  0  0  0
    0.7670   -0.0086    1.5010 C   0  0  0  0  0  0  0  0  0  0  0  0
    0.9216   -1.0832    1.3589 H   0  0  0  0  0  0  0  0  0  0  0  0
    1.7355    0.4694    1.3238 H   0  0  0  0  0  0  0  0  0  0  0  0
    0.3471    0.2988    2.9552 C   0  0  0  0  0  0  0  0  0  0  0  0
    0.2551    1.3800    3.0855 H   0  0  0  0  0  0  0  0  0  0  0  0
   -0.6308   -0.1409    3.1639 H   0  0  0  0  0  0  0  0  0  0  0  0
    1.3271   -0.2260    4.0050 C   0  0  0  0  0  0  0  0  0  0  0  0
    2.2644   -0.9335    3.6726 O   0  0  0  0  0  0  0  0  0  0  0  0
    1.0998    0.1514    5.2841 O   0  0  0  0  0  0  0  0  0  0  0  0
    1.7876   -0.2835    5.8105 H   0  0  0  0  0  0  0  0  0  0  0  0
    0.3482    0.5455   -0.9448 C   0  0  0  0  0  0  0  0  0  0  0  0
   -0.2286    0.0074   -1.8832 O   0  0  0  0  0  0  0  0  0  0  0  0
    1.4405    1.3489   -1.2230 N   0  0  0  0  0  0  0  0  0  0  0  0
    1.9145    1.7876   -0.4393 H   0  0  0  0  0  0  0  0  0  0  0  0
    2.0321    1.4587   -2.5520 C   0  0  0  0  0  0  0  0  0  0  0  0
    1.2995    1.8467   -3.2678 H   0  0  0  0  0  0  0  0  0  0  0  0
    2.8876    2.1407   -2.5311 H   0  0  0  0  0  0  0  0  0  0  0  0
    2.3788    0.4795   -2.8991 H   0  0  0  0  0  0  0  0  0  0  0  0
  1  2  1  0  0  0  0
  2  3  1  0  0  0  0
  2  4  1  0  0  0  0
  2  5  1  0  0  0  0
  5  6  2  0  0  0  0
  5  7  1  0  0  0  0
  7  8  1  0  0  0  0
  7  9  1  0  0  0  0
  9 10  1  0  0  0  0
  9 11  1  0  0  0  0
  9 21  1  0  0  0  0
 11 12  1  0  0  0  0
 11 13  1  0  0  0  0
 11 14  1  0  0  0  0
 14 15  1  0  0  0  0
 14 16  1  0  0  0  0
 14 17  1  0  0  0  0
 17 18  2  0  0  0  0
 17 19  1  0  0  0  0
 19 20  1  0  0  0  0
 21 22  2  0  0  0  0
 21 23  1  0  0  0  0
 23 24  1  0  0  0  0
 23 25  1  0  0  0  0
 25 26  1  0  0  0  0
 25 27  1  0  0  0  0
 25 28  1  0  0  0  0
M  END
$$$$

  -OEChem-01062216073D

 28 27  0     1  0  0  0  0  0999 V2000
   -3.6230   -2.8315    0.8486 H   0  0  0  0  0  0  0  0  0  0  0  0
   -3.4222   -1.8203    0.4833 C   0  0  0  0  0  0  0  0  0  0  0  0
   -4.1132   -1.1276    0.9692 H   0  0  0  0  0  0  0  0  0  0  0  0
   -3.5909   -1.7972   -0.5962 H   0  0  0  0  0  0  0  0  0  0  0  0
   -1.9896   -1.4255    0.7906 C   0  0  0  0  0  0  0  0  0  0  0  0
   -1.2599   -2.2530    1.3076 O   0  0  0  0  0  0  0  0  0  0  0  0
   -1.5663   -0.1650    0.4057 N   0  0  0  0  0  0  0  0  0  0  0  0
   -2.2208    0.3029   -0.2192 H   0  0  0  0  0  0  0  0  0  0  0  0
   -0.2183    0.4554    0.4350 C   0  0  1  0  0  0  0  0  0  0  0  0
   -0.3518    1.4105    0.9515 H   0  0  0  0  0  0  0  0  0  0  0  0
    0.9099   -0.2623    1.2171 C   0  0  0  0  0  0  0  0  0  0  0  0
    1.0194   -1.2849    0.8393 H   0  0  0  0  0  0  0  0  0  0  0  0
    1.8641    0.2431    1.0427 H   0  0  0  0  0  0  0  0  0  0  0  0
    0.6616   -0.2767    2.7448 C   0  0  0  0  0  0  0  0  0  0  0  0
    0.6121    0.7533    3.1069 H   0  0  0  0  0  0  0  0  0  0  0  0
   -0.2930   -0.7460    2.9841 H   0  0  0  0  0  0  0  0  0  0  0  0
    1.7507   -1.0009    3.5368 C   0  0  0  0  0  0  0  0  0  0  0  0
    2.6340   -1.6080    2.9524 O   0  0  0  0  0  0  0  0  0  0  0  0
    1.6801   -0.9089    4.8848 O   0  0  0  0  0  0  0  0  0  0  0  0
    2.4190   -1.4374    5.2223 H   0  0  0  0  0  0  0  0  0  0  0  0
    0.2118    0.8542   -1.0003 C   0  0  0  0  0  0  0  0  0  0  0  0
   -0.5947    0.7873   -1.9220 O   0  0  0  0  0  0  0  0  0  0  0  0
    1.4352    1.4538   -1.2456 N   0  0  0  0  0  0  0  0  0  0  0  0
    2.1035    1.4878   -0.4819 H   0  0  0  0  0  0  0  0  0  0  0  0
    1.8675    1.8730   -2.5743 C   0  0  0  0  0  0  0  0  0  0  0  0
    1.1745    2.6130   -2.9888 H   0  0  0  0  0  0  0  0  0  0  0  0
    2.8629    2.3246   -2.5235 H   0  0  0  0  0  0  0  0  0  0  0  0
    1.9115    1.0129   -3.2511 H   0  0  0  0  0  0  0  0  0  0  0  0
  1  2  1  0  0  0  0
  2  3  1  0  0  0  0
  2  4  1  0  0  0  0
  2  5  1  0  0  0  0
  5  6  2  0  0  0  0
  5  7  1  0  0  0  0
  7  8  1  0  0  0  0
  7  9  1  0  0  0  0
  9 10  1  0  0  0  0
  9 11  1  0  0  0  0
  9 21  1  0  0  0  0
 11 12  1  0  0  0  0
 11 13  1  0  0  0  0
 11 14  1  0  0  0  0
 14 15  1  0  0  0  0
 14 16  1  0  0  0  0
 14 17  1  0  0  0  0
 17 18  2  0  0  0  0
 17 19  1  0  0  0  0
 19 20  1  0  0  0  0
 21 22  2  0  0  0  0
 21 23  1  0  0  0  0
 23 24  1  0  0  0  0
 23 25  1  0  0  0  0
 25 26  1  0  0  0  0
 25 27  1  0  0  0  0
 25 28  1  0  0  0  0
M  END
$$$$

  -OEChem-01062216073D

 28 27  0     1  0  0  0  0  0999 V2000
   -3.6122   -2.8209    0.8358 H   0  0  0  0  0  0  0  0  0  0  0  0
   -3.4053   -1.8088    0.4763 C   0  0  0  0  0  0  0  0  0  0  0  0
   -4.0868   -1.1136    0.9723 H   0  0  0  0  0  0  0  0  0  0  0  0
   -3.5818   -1.7755   -0.6016 H   0  0  0  0  0  0  0  0  0  0  0  0
   -1.9675   -1.4282    0.7762 C   0  0  0  0  0  0  0  0  0  0  0  0
   -1.2370   -2.2664    1.2750 O   0  0  0  0  0  0  0  0  0  0  0  0
   -1.5390   -0.1661    0.4038 N   0  0  0  0  0  0  0  0  0  0  0  0
   -2.1977    0.3230   -0.2007 H   0  0  0  0  0  0  0  0  0  0  0  0
   -0.1936    0.4569    0.4501 C   0  0  1  0  0  0  0  0  0  0  0  0
   -0.3292    1.4119    0.9667 H   0  0  0  0  0  0  0  0  0  0  0  0
    0.9239   -0.2655    1.2438 C   0  0  0  0  0  0  0  0  0  0  0  0
    1.0427   -1.2855    0.8620 H   0  0  0  0  0  0  0  0  0  0  0  0
    1.8786    0.2460    1.0921 H   0  0  0  0  0  0  0  0  0  0  0  0
    0.6524   -0.2861    2.7671 C   0  0  0  0  0  0  0  0  0  0  0  0
    0.5955    0.7423    3.1329 H   0  0  0  0  0  0  0  0  0  0  0  0
   -0.3054   -0.7584    2.9883 H   0  0  0  0  0  0  0  0  0  0  0  0
    1.7294   -1.0143    3.5721 C   0  0  0  0  0  0  0  0  0  0  0  0
    2.6210   -1.6194    2.9981 O   0  0  0  0  0  0  0  0  0  0  0  0
    1.6376   -0.9305    4.9191 O   0  0  0  0  0  0  0  0  0  0  0  0
    2.3714   -1.4605    5.2652 H   0  0  0  0  0  0  0  0  0  0  0  0
    0.2324    0.8573   -0.9867 C   0  0  0  0  0  0  0  0  0  0  0  0
   -0.6283    1.0112   -1.8474 O   0  0  0  0  0  0  0  0  0  0  0  0
    1.5408    1.1763   -1.3071 N   0  0  0  0  0  0  0  0  0  0  0  0
    2.2522    0.9971   -0.6051 H   0  0  0  0  0  0  0  0  0  0  0  0
    1.9638    1.5578   -2.6500 C   0  0  0  0  0  0  0  0  0  0  0  0
    1.4135    2.4415   -2.9901 H   0  0  0  0  0  0  0  0  0  0  0  0
    3.0320    1.7945   -2.6577 H   0  0  0  0  0  0  0  0  0  0  0  0
    1.7849    0.7389   -3.3548 H   0  0  0  0  0  0  0  0  0  0  0  0
  1  2  1  0  0  0  0
  2  3  1  0  0  0  0
  2  4  1  0  0  0  0
  2  5  1  0  0  0  0
  5  6  2  0  0  0  0
  5  7  1  0  0  0  0
  7  8  1  0  0  0  0
  7  9  1  0  0  0  0
  9 10  1  0  0  0  0
  9 11  1  0  0  0  0
  9 21  1  0  0  0  0
 11 12  1  0  0  0  0
 11 13  1  0  0  0  0
 11 14  1  0  0  0  0
 14 15  1  0  0  0  0
 14 16  1  0  0  0  0
 14 17  1  0  0  0  0
 17 18  2  0  0  0  0
 17 19  1  0  0  0  0
 19 20  1  0  0  0  0
 21 22  2  0  0  0  0
 21 23  1  0  0  0  0
 23 24  1  0  0  0  0
 23 25  1  0  0  0  0
 25 26  1  0  0  0  0
 25 27  1  0  0  0  0
 25 28  1  0  0  0  0
M  END
$$$$

  -OEChem-01062216073D

 28 27  0     1  0  0  0  0  0999 V2000
   -3.6069   -2.8136    0.8495 H   0  0  0  0  0  0  0  0  0  0  0  0
   -3.4005   -1.8031    0.4856 C   0  0  0  0  0  0  0  0  0  0  0  0
   -4.0675   -1.1034    0.9947 H   0  0  0  0  0  0  0  0  0  0  0  0
   -3.5977   -1.7688   -0.5886 H   0  0  0  0  0  0  0  0  0  0  0  0
   -1.9545   -1.4329    0.7571 C   0  0  0  0  0  0  0  0  0  0  0  0
   -1.2165   -2.2787    1.2313 O   0  0  0  0  0  0  0  0  0  0  0  0
   -1.5243   -0.1703    0.3896 N   0  0  0  0  0  0  0  0  0  0  0  0
   -2.1955    0.3438   -0.1795 H   0  0  0  0  0  0  0  0  0  0  0  0
   -0.1817    0.4558    0.4537 C   0  0  1  0  0  0  0  0  0  0  0  0
   -0.3233    1.4119    0.9666 H   0  0  0  0  0  0  0  0  0  0  0  0
    0.9290   -0.2643    1.2590 C   0  0  0  0  0  0  0  0  0  0  0  0
    1.0613   -1.2818    0.8753 H   0  0  0  0  0  0  0  0  0  0  0  0
    1.8799    0.2592    1.1218 H   0  0  0  0  0  0  0  0  0  0  0  0
    0.6422   -0.2912    2.7787 C   0  0  0  0  0  0  0  0  0  0  0  0
    0.5766    0.7351    3.1487 H   0  0  0  0  0  0  0  0  0  0  0  0
   -0.3154   -0.7704    2.9867 H   0  0  0  0  0  0  0  0  0  0  0  0
    1.7147   -1.0181    3.5906 C   0  0  0  0  0  0  0  0  0  0  0  0
    2.6137   -1.6171    3.0216 O   0  0  0  0  0  0  0  0  0  0  0  0
    1.6106   -0.9401    4.9372 O   0  0  0  0  0  0  0  0  0  0  0  0
    2.3451   -1.4659    5.2881 H   0  0  0  0  0  0  0  0  0  0  0  0
    0.2528    0.8518   -0.9808 C   0  0  0  0  0  0  0  0  0  0  0  0
   -0.6039    1.2153   -1.7798 O   0  0  0  0  0  0  0  0  0  0  0  0
    1.5788    0.8812   -1.3779 N   0  0  0  0  0  0  0  0  0  0  0  0
    2.2655    0.4916   -0.7387 H   0  0  0  0  0  0  0  0  0  0  0  0
    1.9994    1.2221   -2.7323 C   0  0  0  0  0  0  0  0  0  0  0  0
    1.6364    2.2179   -3.0085 H   0  0  0  0  0  0  0  0  0  0  0  0
    3.0916    1.2241   -2.8002 H   0  0  0  0  0  0  0  0  0  0  0  0
    1.6082    0.4932   -3.4498 H   0  0  0  0  0  0  0  0  0  0  0  0
  1  2  1  0  0  0  0
  2  3  1  0  0  0  0
  2  4  1  0  0  0  0
  2  5  1  0  0  0  0
  5  6  2  0  0  0  0
  5  7  1  0  0  0  0
  7  8  1  0  0  0  0
  7  9  1  0  0  0  0
  9 10  1  0  0  0  0
  9 11  1  0  0  0  0
  9 21  1  0  0  0  0
 11 12  1  0  0  0  0
 11 13  1  0  0  0  0
 11 14  1  0  0  0  0
 14 15  1  0  0  0  0
 14 16  1  0  0  0  0
 14 17  1  0  0  0  0
 17 18  2  0  0  0  0
 17 19  1  0  0  0  0
 19 20  1  0  0  0  0
 21 22  2  0  0  0  0
 21 23  1  0  0  0  0
 23 24  1  0  0  0  0
 23 25  1  0  0  0  0
 25 26  1  0  0  0  0
 25 27  1  0  0  0  0
 25 28  1  0  0  0  0
M  END
$$$$

  -OEChem-01062216073D

 28 27  0     1  0  0  0  0  0999 V2000
   -3.6073   -2.8060    0.8721 H   0  0  0  0  0  0  0  0  0  0  0  0
   -3.4005   -1.7978    0.5023 C   0  0  0  0  0  0  0  0  0  0  0  0
   -4.0478   -1.0917    1.0278 H   0  0  0  0  0  0  0  0  0  0  0  0
   -3.6250   -1.7618   -0.5666 H   0  0  0  0  0  0  0  0  0  0  0  0
   -1.9446   -1.4406    0.7374 C   0  0  0  0  0  0  0  0  0  0  0  0
   -1.1970   -2.2948    1.1807 O   0  0  0  0  0  0  0  0  0  0  0  0
   -1.5143   -0.1775    0.3721 N   0  0  0  0  0  0  0  0  0  0  0  0
   -2.2043    0.3659   -0.1443 H   0  0  0  0  0  0  0  0  0  0  0  0
   -0.1748    0.4513    0.4505 C   0  0  1  0  0  0  0  0  0  0  0  0
   -0.3225    1.4075    0.9620 H   0  0  0  0  0  0  0  0  0  0  0  0
    0.9327   -0.2635    1.2629 C   0  0  0  0  0  0  0  0  0  0  0  0
    1.0748   -1.2801    0.8804 H   0  0  0  0  0  0  0  0  0  0  0  0
    1.8799    0.2694    1.1299 H   0  0  0  0  0  0  0  0  0  0  0  0
    0.6338   -0.2942    2.7795 C   0  0  0  0  0  0  0  0  0  0  0  0
    0.5564    0.7311    3.1505 H   0  0  0  0  0  0  0  0  0  0  0  0
   -0.3219   -0.7827    2.9761 H   0  0  0  0  0  0  0  0  0  0  0  0
    1.7046   -1.0166    3.5982 C   0  0  0  0  0  0  0  0  0  0  0  0
    2.6113   -1.6094    3.0348 O   0  0  0  0  0  0  0  0  0  0  0  0
    1.5914   -0.9401    4.9441 O   0  0  0  0  0  0  0  0  0  0  0  0
    2.3296   -1.4579    5.2992 H   0  0  0  0  0  0  0  0  0  0  0  0
    0.2704    0.8430   -0.9792 C   0  0  0  0  0  0  0  0  0  0  0  0
   -0.5356    1.4045   -1.7125 O   0  0  0  0  0  0  0  0  0  0  0  0
    1.5442    0.5902   -1.4581 N   0  0  0  0  0  0  0  0  0  0  0  0
    2.1539    0.0217   -0.8768 H   0  0  0  0  0  0  0  0  0  0  0  0
    1.9570    0.8861   -2.8249 C   0  0  0  0  0  0  0  0  0  0  0  0
    1.8135    1.9487   -3.0486 H   0  0  0  0  0  0  0  0  0  0  0  0
    3.0164    0.6473   -2.9604 H   0  0  0  0  0  0  0  0  0  0  0  0
    1.3733    0.2942   -3.5376 H   0  0  0  0  0  0  0  0  0  0  0  0
  1  2  1  0  0  0  0
  2  3  1  0  0  0  0
  2  4  1  0  0  0  0
  2  5  1  0  0  0  0
  5  6  2  0  0  0  0
  5  7  1  0  0  0  0
  7  8  1  0  0  0  0
  7  9  1  0  0  0  0
  9 10  1  0  0  0  0
  9 11  1  0  0  0  0
  9 21  1  0  0  0  0
 11 12  1  0  0  0  0
 11 13  1  0  0  0  0
 11 14  1  0  0  0  0
 14 15  1  0  0  0  0
 14 16  1  0  0  0  0
 14 17  1  0  0  0  0
 17 18  2  0  0  0  0
 17 19  1  0  0  0  0
 19 20  1  0  0  0  0
 21 22  2  0  0  0  0
 21 23  1  0  0  0  0
 23 24  1  0  0  0  0
 23 25  1  0  0  0  0
 25 26  1  0  0  0  0
 25 27  1  0  0  0  0
 25 28  1  0  0  0  0
M  END
$$$$

  -OEChem-01062216073D

 28 27  0     1  0  0  0  0  0999 V2000
   -3.6076   -2.8016    0.9068 H   0  0  0  0  0  0  0  0  0  0  0  0
   -3.4046   -1.7951    0.5300 C   0  0  0  0  0  0  0  0  0  0  0  0
   -4.0345   -1.0847    1.0706 H   0  0  0  0  0  0  0  0  0  0  0  0
   -3.6558   -1.7599   -0.5329 H   0  0  0  0  0  0  0  0  0  0  0  0
   -1.9413   -1.4460    0.7274 C   0  0  0  0  0  0  0  0  0  0  0  0
   -1.1861   -2.3055    1.1464 O   0  0  0  0  0  0  0  0  0  0  0  0
   -1.5115   -0.1846    0.3563 N   0  0  0  0  0  0  0  0  0  0  0  0
   -2.2171    0.3782   -0.1152 H   0  0  0  0  0  0  0  0  0  0  0  0
   -0.1731    0.4448    0.4402 C   0  0  1  0  0  0  0  0  0  0  0  0
   -0.3242    1.4021    0.9489 H   0  0  0  0  0  0  0  0  0  0  0  0
    0.9330   -0.2658    1.2566 C   0  0  0  0  0  0  0  0  0  0  0  0
    1.0778   -1.2839    0.8795 H   0  0  0  0  0  0  0  0  0  0  0  0
    1.8789    0.2689    1.1181 H   0  0  0  0  0  0  0  0  0  0  0  0
    0.6288   -0.2946    2.7716 C   0  0  0  0  0  0  0  0  0  0  0  0
    0.5488    0.7311    3.1407 H   0  0  0  0  0  0  0  0  0  0  0  0
   -0.3267   -0.7854    2.9643 H   0  0  0  0  0  0  0  0  0  0  0  0
    1.6976   -1.0130    3.5960 C   0  0  0  0  0  0  0  0  0  0  0  0
    2.6080   -1.6052    3.0381 O   0  0  0  0  0  0  0  0  0  0  0  0
    1.5762   -0.9360    4.9412 O   0  0  0  0  0  0  0  0  0  0  0  0
    2.3142   -1.4506    5.3012 H   0  0  0  0  0  0  0  0  0  0  0  0
    0.2855    0.8287   -0.9844 C   0  0  0  0  0  0  0  0  0  0  0  0
   -0.4240    1.5753   -1.6474 O   0  0  0  0  0  0  0  0  0  0  0  0
    1.4384    0.3158   -1.5523 N   0  0  0  0  0  0  0  0  0  0  0  0
    1.9363   -0.3976   -1.0264 H   0  0  0  0  0  0  0  0  0  0  0  0
    1.8390    0.5830   -2.9286 C   0  0  0  0  0  0  0  0  0  0  0  0
    1.9299    1.6609   -3.0995 H   0  0  0  0  0  0  0  0  0  0  0  0
    2.8080    0.1194   -3.1372 H   0  0  0  0  0  0  0  0  0  0  0  0
    1.1012    0.1764   -3.6281 H   0  0  0  0  0  0  0  0  0  0  0  0
  1  2  1  0  0  0  0
  2  3  1  0  0  0  0
  2  4  1  0  0  0  0
  2  5  1  0  0  0  0
  5  6  2  0  0  0  0
  5  7  1  0  0  0  0
  7  8  1  0  0  0  0
  7  9  1  0  0  0  0
  9 10  1  0  0  0  0
  9 11  1  0  0  0  0
  9 21  1  0  0  0  0
 11 12  1  0  0  0  0
 11 13  1  0  0  0  0
 11 14  1  0  0  0  0
 14 15  1  0  0  0  0
 14 16  1  0  0  0  0
 14 17  1  0  0  0  0
 17 18  2  0  0  0  0
 17 19  1  0  0  0  0
 19 20  1  0  0  0  0
 21 22  2  0  0  0  0
 21 23  1  0  0  0  0
 23 24  1  0  0  0  0
 23 25  1  0  0  0  0
 25 26  1  0  0  0  0
 25 27  1  0  0  0  0
 25 28  1  0  0  0  0
M  END
$$$$

  -OEChem-01062216073D

 28 27  0     1  0  0  0  0  0999 V2000
   -3.6053   -2.8007    0.9474 H   0  0  0  0  0  0  0  0  0  0  0  0
   -3.4100   -1.7939    0.5676 C   0  0  0  0  0  0  0  0  0  0  0  0
   -4.0168   -1.0825    1.1331 H   0  0  0  0  0  0  0  0  0  0  0  0
   -3.6985   -1.7528   -0.4856 H   0  0  0  0  0  0  0  0  0  0  0  0
   -1.9387   -1.4534    0.7149 C   0  0  0  0  0  0  0  0  0  0  0  0
   -1.1714   -2.3193    1.0972 O   0  0  0  0  0  0  0  0  0  0  0  0
   -1.5141   -0.1928    0.3351 N   0  0  0  0  0  0  0  0  0  0  0  0
   -2.2386    0.3880   -0.0822 H   0  0  0  0  0  0  0  0  0  0  0  0
   -0.1791    0.4427    0.4255 C   0  0  1  0  0  0  0  0  0  0  0  0
   -0.3354    1.4012    0.9309 H   0  0  0  0  0  0  0  0  0  0  0  0
    0.9290   -0.2622    1.2436 C   0  0  0  0  0  0  0  0  0  0  0  0
    1.0814   -1.2792    0.8676 H   0  0  0  0  0  0  0  0  0  0  0  0
    1.8718    0.2782    1.1024 H   0  0  0  0  0  0  0  0  0  0  0  0
    0.6215   -0.2959    2.7575 C   0  0  0  0  0  0  0  0  0  0  0  0
    0.5327    0.7284    3.1289 H   0  0  0  0  0  0  0  0  0  0  0  0
   -0.3307   -0.7951    2.9452 H   0  0  0  0  0  0  0  0  0  0  0  0
    1.6927   -1.0091    3.5835 C   0  0  0  0  0  0  0  0  0  0  0  0
    2.6083   -1.5945    3.0271 O   0  0  0  0  0  0  0  0  0  0  0  0
    1.5663   -0.9372    4.9286 O   0  0  0  0  0  0  0  0  0  0  0  0
    2.3078   -1.4465    5.2893 H   0  0  0  0  0  0  0  0  0  0  0  0
    0.2952    0.8168   -0.9939 C   0  0  0  0  0  0  0  0  0  0  0  0
   -0.2681    1.7293   -1.5844 O   0  0  0  0  0  0  0  0  0  0  0  0
    1.2692    0.0851   -1.6487 N   0  0  0  0  0  0  0  0  0  0  0  0
    1.6178   -0.7460   -1.1777 H   0  0  0  0  0  0  0  0  0  0  0  0
    1.6542    0.3245   -3.0341 C   0  0  0  0  0  0  0  0  0  0  0  0
    1.9934    1.3576   -3.1650 H   0  0  0  0  0  0  0  0  0  0  0  0
    2.4714   -0.3447   -3.3207 H   0  0  0  0  0  0  0  0  0  0  0  0
    0.8066    0.1446   -3.7037 H   0  0  0  0  0  0  0  0  0  0  0  0
  1  2  1  0  0  0  0
  2  3  1  0  0  0  0
  2  4  1  0  0  0  0
  2  5  1  0  0  0  0
  5  6  2  0  0  0  0
  5  7  1  0  0  0  0
  7  8  1  0  0  0  0
  7  9  1  0  0  0  0
  9 10  1  0  0  0  0
  9 11  1  0  0  0  0
  9 21  1  0  0  0  0
 11 12  1  0  0  0  0
 11 13  1  0  0  0  0
 11 14  1  0  0  0  0
 14 15  1  0  0  0  0
 14 16  1  0  0  0  0
 14 17  1  0  0  0  0
 17 18  2  0  0  0  0
 17 19  1  0  0  0  0
 19 20  1  0  0  0  0
 21 22  2  0  0  0  0
 21 23  1  0  0  0  0
 23 24  1  0  0  0  0
 23 25  1  0  0  0  0
 25 26  1  0  0  0  0
 25 27  1  0  0  0  0
 25 28  1  0  0  0  0
M  END
$$$$

  -OEChem-01062216073D

 28 27  0     1  0  0  0  0  0999 V2000
   -3.6016   -2.8065    0.9847 H   0  0  0  0  0  0  0  0  0  0  0  0
   -3.4185   -1.7948    0.6115 C   0  0  0  0  0  0  0  0  0  0  0  0
   -4.0019   -1.0901    1.2092 H   0  0  0  0  0  0  0  0  0  0  0  0
   -3.7466   -1.7392   -0.4293 H   0  0  0  0  0  0  0  0  0  0  0  0
   -1.9415   -1.4598    0.7075 C   0  0  0  0  0  0  0  0  0  0  0  0
   -1.1621   -2.3321    1.0482 O   0  0  0  0  0  0  0  0  0  0  0  0
   -1.5228   -0.2007    0.3168 N   0  0  0  0  0  0  0  0  0  0  0  0
   -2.2635    0.3958   -0.0450 H   0  0  0  0  0  0  0  0  0  0  0  0
   -0.1888    0.4375    0.4089 C   0  0  1  0  0  0  0  0  0  0  0  0
   -0.3482    1.3968    0.9123 H   0  0  0  0  0  0  0  0  0  0  0  0
    0.9236   -0.2625    1.2246 C   0  0  0  0  0  0  0  0  0  0  0  0
    1.0829   -1.2783    0.8488 H   0  0  0  0  0  0  0  0  0  0  0  0
    1.8633    0.2825    1.0801 H   0  0  0  0  0  0  0  0  0  0  0  0
    0.6157   -0.2977    2.7383 C   0  0  0  0  0  0  0  0  0  0  0  0
    0.5199    0.7260    3.1095 H   0  0  0  0  0  0  0  0  0  0  0  0
   -0.3334   -0.8035    2.9238 H   0  0  0  0  0  0  0  0  0  0  0  0
    1.6886   -1.0052    3.5666 C   0  0  0  0  0  0  0  0  0  0  0  0
    2.6082   -1.5871    3.0134 O   0  0  0  0  0  0  0  0  0  0  0  0
    1.5588   -0.9315    4.9113 O   0  0  0  0  0  0  0  0  0  0  0  0
    2.3040   -1.4335    5.2745 H   0  0  0  0  0  0  0  0  0  0  0  0
    0.2971    0.8010   -1.0072 C   0  0  0  0  0  0  0  0  0  0  0  0
   -0.0590    1.8575   -1.5112 O   0  0  0  0  0  0  0  0  0  0  0  0
    1.0364   -0.0965   -1.7550 N   0  0  0  0  0  0  0  0  0  0  0  0
    1.2010   -1.0127   -1.3447 H   0  0  0  0  0  0  0  0  0  0  0  0
    1.4162    0.1376   -3.1424 C   0  0  0  0  0  0  0  0  0  0  0  0
    1.9942    1.0636   -3.2308 H   0  0  0  0  0  0  0  0  0  0  0  0
    2.0319   -0.6885   -3.5108 H   0  0  0  0  0  0  0  0  0  0  0  0
    0.5261    0.2166   -3.7751 H   0  0  0  0  0  0  0  0  0  0  0  0
  1  2  1  0  0  0  0
  2  3  1  0  0  0  0
  2  4  1  0  0  0  0
  2  5  1  0  0  0  0
  5  6  2  0  0  0  0
  5  7  1  0  0  0  0
  7  8  1  0  0  0  0
  7  9  1  0  0  0  0
  9 10  1  0  0  0  0
  9 11  1  0  0  0  0
  9 21  1  0  0  0  0
 11 12  1  0  0  0  0
 11 13  1  0  0  0  0
 11 14  1  0  0  0  0
 14 15  1  0  0  0  0
 14 16  1  0  0  0  0
 14 17  1  0  0  0  0
 17 18  2  0  0  0  0
 17 19  1  0  0  0  0
 19 20  1  0  0  0  0
 21 22  2  0  0  0  0
 21 23  1  0  0  0  0
 23 24  1  0  0  0  0
 23 25  1  0  0  0  0
 25 26  1  0  0  0  0
 25 27  1  0  0  0  0
 25 28  1  0  0  0  0
M  END
$$$$

  -OEChem-01062216073D

 28 27  0     1  0  0  0  0  0999 V2000
   -3.5932   -2.8187    1.0334 H   0  0  0  0  0  0  0  0  0  0  0  0
   -3.4278   -1.7981    0.6762 C   0  0  0  0  0  0  0  0  0  0  0  0
   -3.9744   -1.1077    1.3232 H   0  0  0  0  0  0  0  0  0  0  0  0
   -3.8131   -1.7155   -0.3430 H   0  0  0  0  0  0  0  0  0  0  0  0
   -1.9469   -1.4683    0.6994 C   0  0  0  0  0  0  0  0  0  0  0  0
   -1.1516   -2.3460    0.9841 O   0  0  0  0  0  0  0  0  0  0  0  0
   -1.5424   -0.2091    0.2951 N   0  0  0  0  0  0  0  0  0  0  0  0
   -2.3021    0.3980   -0.0034 H   0  0  0  0  0  0  0  0  0  0  0  0
   -0.2131    0.4409    0.3884 C   0  0  1  0  0  0  0  0  0  0  0  0
   -0.3777    1.4008    0.8894 H   0  0  0  0  0  0  0  0  0  0  0  0
    0.9071   -0.2530    1.1971 C   0  0  0  0  0  0  0  0  0  0  0  0
    1.0791   -1.2636    0.8132 H   0  0  0  0  0  0  0  0  0  0  0  0
    1.8403    0.3034    1.0529 H   0  0  0  0  0  0  0  0  0  0  0  0
    0.6031   -0.3003    2.7109 C   0  0  0  0  0  0  0  0  0  0  0  0
    0.4980    0.7205    3.0879 H   0  0  0  0  0  0  0  0  0  0  0  0
   -0.3407   -0.8169    2.8945 H   0  0  0  0  0  0  0  0  0  0  0  0
    1.6843   -1.0027    3.5336 C   0  0  0  0  0  0  0  0  0  0  0  0
    2.6085   -1.5728    2.9760 O   0  0  0  0  0  0  0  0  0  0  0  0
    1.5532   -0.9424    4.8786 O   0  0  0  0  0  0  0  0  0  0  0  0
    2.3039   -1.4397    5.2370 H   0  0  0  0  0  0  0  0  0  0  0  0
    0.2806    0.7926   -1.0264 C   0  0  0  0  0  0  0  0  0  0  0  0
    0.1826    1.9391   -1.4413 O   0  0  0  0  0  0  0  0  0  0  0  0
    0.7532   -0.2032   -1.8595 N   0  0  0  0  0  0  0  0  0  0  0  0
    0.7313   -1.1542   -1.4978 H   0  0  0  0  0  0  0  0  0  0  0  0
    1.1594    0.0262   -3.2396 C   0  0  0  0  0  0  0  0  0  0  0  0
    1.9629    0.7690   -3.2841 H   0  0  0  0  0  0  0  0  0  0  0  0
    1.5248   -0.9038   -3.6857 H   0  0  0  0  0  0  0  0  0  0  0  0
    0.3127    0.3867   -3.8333 H   0  0  0  0  0  0  0  0  0  0  0  0
  1  2  1  0  0  0  0
  2  3  1  0  0  0  0
  2  4  1  0  0  0  0
  2  5  1  0  0  0  0
  5  6  2  0  0  0  0
  5  7  1  0  0  0  0
  7  8  1  0  0  0  0
  7  9  1  0  0  0  0
  9 10  1  0  0  0  0
  9 11  1  0  0  0  0
  9 21  1  0  0  0  0
 11 12  1  0  0  0  0
 11 13  1  0  0  0  0
 11 14  1  0  0  0  0
 14 15  1  0  0  0  0
 14 16  1  0  0  0  0
 14 17  1  0  0  0  0
 17 18  2  0  0  0  0
 17 19  1  0  0  0  0
 19 20  1  0  0  0  0
 21 22  2  0  0  0  0
 21 23  1  0  0  0  0
 23 24  1  0  0  0  0
 23 25  1  0  0  0  0
 25 26  1  0  0  0  0
 25 27  1  0  0  0  0
 25 28  1  0  0  0  0
M  END
$$$$

  -OEChem-01062216073D

 28 27  0     1  0  0  0  0  0999 V2000
   -3.5911   -2.8250    1.1221 H   0  0  0  0  0  0  0  0  0  0  0  0
   -3.4427   -1.8064    0.7519 C   0  0  0  0  0  0  0  0  0  0  0  0
   -3.9595   -1.1131    1.4199 H   0  0  0  0  0  0  0  0  0  0  0  0
   -3.8747   -1.7291   -0.2488 H   0  0  0  0  0  0  0  0  0  0  0  0
   -1.9625   -1.4774    0.7046 C   0  0  0  0  0  0  0  0  0  0  0  0
   -1.1551   -2.3584    0.9391 O   0  0  0  0  0  0  0  0  0  0  0  0
   -1.5741   -0.2174    0.2869 N   0  0  0  0  0  0  0  0  0  0  0  0
   -2.3483    0.3931    0.0378 H   0  0  0  0  0  0  0  0  0  0  0  0
   -0.2481    0.4440    0.3694 C   0  0  1  0  0  0  0  0  0  0  0  0
   -0.4158    1.4032    0.8708 H   0  0  0  0  0  0  0  0  0  0  0  0
    0.8825   -0.2467    1.1648 C   0  0  0  0  0  0  0  0  0  0  0  0
    1.0588   -1.2533    0.7720 H   0  0  0  0  0  0  0  0  0  0  0  0
    1.8110    0.3168    1.0162 H   0  0  0  0  0  0  0  0  0  0  0  0
    0.5906   -0.3026    2.6808 C   0  0  0  0  0  0  0  0  0  0  0  0
    0.4833    0.7159    3.0631 H   0  0  0  0  0  0  0  0  0  0  0  0
   -0.3485   -0.8255    2.8699 H   0  0  0  0  0  0  0  0  0  0  0  0
    1.6817   -1.0020    3.4922 C   0  0  0  0  0  0  0  0  0  0  0  0
    2.6050   -1.5644    2.9259 O   0  0  0  0  0  0  0  0  0  0  0  0
    1.5570   -0.9523    4.8383 O   0  0  0  0  0  0  0  0  0  0  0  0
    2.3125   -1.4484    5.1882 H   0  0  0  0  0  0  0  0  0  0  0  0
    0.2454    0.7919   -1.0461 C   0  0  0  0  0  0  0  0  0  0  0  0
    0.4334    1.9574   -1.3648 O   0  0  0  0  0  0  0  0  0  0  0  0
    0.4300   -0.2166   -1.9722 N   0  0  0  0  0  0  0  0  0  0  0  0
    0.2580   -1.1683   -1.6544 H   0  0  0  0  0  0  0  0  0  0  0  0
    0.9004    0.0116   -3.3321 C   0  0  0  0  0  0  0  0  0  0  0  0
    1.8822    0.4964   -3.3217 H   0  0  0  0  0  0  0  0  0  0  0  0
    0.9905   -0.9397   -3.8654 H   0  0  0  0  0  0  0  0  0  0  0  0
    0.1982    0.6500   -3.8783 H   0  0  0  0  0  0  0  0  0  0  0  0
  1  2  1  0  0  0  0
  2  3  1  0  0  0  0
  2  4  1  0  0  0  0
  2  5  1  0  0  0  0
  5  6  2  0  0  0  0
  5  7  1  0  0  0  0
  7  8  1  0  0  0  0
  7  9  1  0  0  0  0
  9 10  1  0  0  0  0
  9 11  1  0  0  0  0
  9 21  1  0  0  0  0
 11 12  1  0  0  0  0
 11 13  1  0  0  0  0
 11 14  1  0  0  0  0
 14 15  1  0  0  0  0
 14 16  1  0  0  0  0
 14 17  1  0  0  0  0
 17 18  2  0  0  0  0
 17 19  1  0  0  0  0
 19 20  1  0  0  0  0
 21 22  2  0  0  0  0
 21 23  1  0  0  0  0
 23 24  1  0  0  0  0
 23 25  1  0  0  0  0
 25 26  1  0  0  0  0
 25 27  1  0  0  0  0
 25 28  1  0  0  0  0
M  END
$$$$

  -OEChem-01062216073D

 28 27  0     1  0  0  0  0  0999 V2000
   -3.5921   -2.8362    1.1931 H   0  0  0  0  0  0  0  0  0  0  0  0
   -3.4579   -1.8178    0.8174 C   0  0  0  0  0  0  0  0  0  0  0  0
   -3.9481   -1.1243    1.5049 H   0  0  0  0  0  0  0  0  0  0  0  0
   -3.9282   -1.7402   -0.1658 H   0  0  0  0  0  0  0  0  0  0  0  0
   -1.9804   -1.4891    0.7142 C   0  0  0  0  0  0  0  0  0  0  0  0
   -1.1654   -2.3713    0.9127 O   0  0  0  0  0  0  0  0  0  0  0  0
   -1.6073   -0.2273    0.2879 N   0  0  0  0  0  0  0  0  0  0  0  0
   -2.3924    0.3829    0.0755 H   0  0  0  0  0  0  0  0  0  0  0  0
   -0.2845    0.4461    0.3559 C   0  0  1  0  0  0  0  0  0  0  0  0
   -0.4534    1.4041    0.8590 H   0  0  0  0  0  0  0  0  0  0  0  0
    0.8563   -0.2416    1.1387 C   0  0  0  0  0  0  0  0  0  0  0  0
    1.0345   -1.2452    0.7392 H   0  0  0  0  0  0  0  0  0  0  0  0
    1.7808    0.3269    0.9839 H   0  0  0  0  0  0  0  0  0  0  0  0
    0.5800   -0.3040    2.6572 C   0  0  0  0  0  0  0  0  0  0  0  0
    0.4706    0.7127    3.0439 H   0  0  0  0  0  0  0  0  0  0  0  0
   -0.3542   -0.8332    2.8530 H   0  0  0  0  0  0  0  0  0  0  0  0
    1.6822   -1.0008    3.4559 C   0  0  0  0  0  0  0  0  0  0  0  0
    2.6030   -1.5573    2.8801 O   0  0  0  0  0  0  0  0  0  0  0  0
    1.5695   -0.9554    4.8033 O   0  0  0  0  0  0  0  0  0  0  0  0
    2.3315   -1.4478    5.1446 H   0  0  0  0  0  0  0  0  0  0  0  0
    0.2088    0.8006   -1.0592 C   0  0  0  0  0  0  0  0  0  0  0  0
    0.6664    1.9107   -1.2909 O   0  0  0  0  0  0  0  0  0  0  0  0
    0.1122   -0.1306   -2.0753 N   0  0  0  0  0  0  0  0  0  0  0  0
   -0.1945   -1.0630   -1.8067 H   0  0  0  0  0  0  0  0  0  0  0  0
    0.6387    0.0888   -3.4164 C   0  0  0  0  0  0  0  0  0  0  0  0
    1.7204    0.2562   -3.3803 H   0  0  0  0  0  0  0  0  0  0  0  0
    0.4439   -0.7840   -4.0471 H   0  0  0  0  0  0  0  0  0  0  0  0
    0.1627    0.9607   -3.8772 H   0  0  0  0  0  0  0  0  0  0  0  0
  1  2  1  0  0  0  0
  2  3  1  0  0  0  0
  2  4  1  0  0  0  0
  2  5  1  0  0  0  0
  5  6  2  0  0  0  0
  5  7  1  0  0  0  0
  7  8  1  0  0  0  0
  7  9  1  0  0  0  0
  9 10  1  0  0  0  0
  9 11  1  0  0  0  0
  9 21  1  0  0  0  0
 11 12  1  0  0  0  0
 11 13  1  0  0  0  0
 11 14  1  0  0  0  0
 14 15  1  0  0  0  0
 14 16  1  0  0  0  0
 14 17  1  0  0  0  0
 17 18  2  0  0  0  0
 17 19  1  0  0  0  0
 19 20  1  0  0  0  0
 21 22  2  0  0  0  0
 21 23  1  0  0  0  0
 23 24  1  0  0  0  0
 23 25  1  0  0  0  0
 25 26  1  0  0  0  0
 25 27  1  0  0  0  0
 25 28  1  0  0  0  0
M  END
$$$$

  -OEChem-01062216073D

 28 27  0     1  0  0  0  0  0999 V2000
   -3.5932   -2.8315    1.2430 H   0  0  0  0  0  0  0  0  0  0  0  0
   -3.4608   -1.8258    0.8333 C   0  0  0  0  0  0  0  0  0  0  0  0
   -3.9563   -1.1114    1.4950 H   0  0  0  0  0  0  0  0  0  0  0  0
   -3.9270   -1.7830   -0.1541 H   0  0  0  0  0  0  0  0  0  0  0  0
   -1.9838   -1.4961    0.7252 C   0  0  0  0  0  0  0  0  0  0  0  0
   -1.1694   -2.3785    0.9228 O   0  0  0  0  0  0  0  0  0  0  0  0
   -1.6152   -0.2330    0.2971 N   0  0  0  0  0  0  0  0  0  0  0  0
   -2.4042    0.3775    0.1003 H   0  0  0  0  0  0  0  0  0  0  0  0
   -0.2923    0.4450    0.3538 C   0  0  1  0  0  0  0  0  0  0  0  0
   -0.4606    1.4021    0.8583 H   0  0  0  0  0  0  0  0  0  0  0  0
    0.8514   -0.2446    1.1327 C   0  0  0  0  0  0  0  0  0  0  0  0
    1.0263   -1.2484    0.7322 H   0  0  0  0  0  0  0  0  0  0  0  0
    1.7771    0.3213    0.9746 H   0  0  0  0  0  0  0  0  0  0  0  0
    0.5811   -0.3044    2.6529 C   0  0  0  0  0  0  0  0  0  0  0  0
    0.4765    0.7131    3.0386 H   0  0  0  0  0  0  0  0  0  0  0  0
   -0.3533   -0.8308    2.8535 H   0  0  0  0  0  0  0  0  0  0  0  0
    1.6840   -1.0023    3.4497 C   0  0  0  0  0  0  0  0  0  0  0  0
    2.6021   -1.5623    2.8730 O   0  0  0  0  0  0  0  0  0  0  0  0
    1.5731   -0.9567    4.7974 O   0  0  0  0  0  0  0  0  0  0  0  0
    2.3346   -1.4506    5.1375 H   0  0  0  0  0  0  0  0  0  0  0  0
    0.1994    0.8078   -1.0619 C   0  0  0  0  0  0  0  0  0  0  0  0
    0.8762    1.8114   -1.2365 O   0  0  0  0  0  0  0  0  0  0  0  0
   -0.1627    0.0297   -2.1452 N   0  0  0  0  0  0  0  0  0  0  0  0
   -0.6144   -0.8553   -1.9277 H   0  0  0  0  0  0  0  0  0  0  0  0
    0.3404    0.2571   -3.4942 C   0  0  0  0  0  0  0  0  0  0  0  0
    1.4317    0.1698   -3.5159 H   0  0  0  0  0  0  0  0  0  0  0  0
   -0.0802   -0.4804   -4.1846 H   0  0  0  0  0  0  0  0  0  0  0  0
    0.0605    1.2563   -3.8441 H   0  0  0  0  0  0  0  0  0  0  0  0
  1  2  1  0  0  0  0
  2  3  1  0  0  0  0
  2  4  1  0  0  0  0
  2  5  1  0  0  0  0
  5  6  2  0  0  0  0
  5  7  1  0  0  0  0
  7  8  1  0  0  0  0
  7  9  1  0  0  0  0
  9 10  1  0  0  0  0
  9 11  1  0  0  0  0
  9 21  1  0  0  0  0
 11 12  1  0  0  0  0
 11 13  1  0  0  0  0
 11 14  1  0  0  0  0
 14 15  1  0  0  0  0
 14 16  1  0  0  0  0
 14 17  1  0  0  0  0
 17 18  2  0  0  0  0
 17 19  1  0  0  0  0
 19 20  1  0  0  0  0
 21 22  2  0  0  0  0
 21 23  1  0  0  0  0
 23 24  1  0  0  0  0
 23 25  1  0  0  0  0
 25 26  1  0  0  0  0
 25 27  1  0  0  0  0
 25 28  1  0  0  0  0
M  END
$$$$

  -OEChem-01062216073D

 28 27  0     1  0  0  0  0  0999 V2000
   -3.5836   -2.8379    1.2810 H   0  0  0  0  0  0  0  0  0  0  0  0
   -3.4564   -1.8362    0.8599 C   0  0  0  0  0  0  0  0  0  0  0  0
   -3.9404   -1.1150    1.5231 H   0  0  0  0  0  0  0  0  0  0  0  0
   -3.9385   -1.8030   -0.1200 H   0  0  0  0  0  0  0  0  0  0  0  0
   -1.9807   -1.5101    0.7247 C   0  0  0  0  0  0  0  0  0  0  0  0
   -1.1661   -2.3939    0.9133 O   0  0  0  0  0  0  0  0  0  0  0  0
   -1.6180   -0.2445    0.2968 N   0  0  0  0  0  0  0  0  0  0  0  0
   -2.4111    0.3699    0.1322 H   0  0  0  0  0  0  0  0  0  0  0  0
   -0.2950    0.4373    0.3450 C   0  0  1  0  0  0  0  0  0  0  0  0
   -0.4631    1.3936    0.8504 H   0  0  0  0  0  0  0  0  0  0  0  0
    0.8474   -0.2542    1.1270 C   0  0  0  0  0  0  0  0  0  0  0  0
    1.0206   -1.2594    0.7293 H   0  0  0  0  0  0  0  0  0  0  0  0
    1.7761    0.3069    0.9709 H   0  0  0  0  0  0  0  0  0  0  0  0
    0.5754   -0.3065    2.6469 C   0  0  0  0  0  0  0  0  0  0  0  0
    0.4726    0.7127    3.0286 H   0  0  0  0  0  0  0  0  0  0  0  0
   -0.3607   -0.8300    2.8480 H   0  0  0  0  0  0  0  0  0  0  0  0
    1.6745   -1.0047    3.4483 C   0  0  0  0  0  0  0  0  0  0  0  0
    2.5917   -1.5710    2.8767 O   0  0  0  0  0  0  0  0  0  0  0  0
    1.5655   -0.9444    4.7956 O   0  0  0  0  0  0  0  0  0  0  0  0
    2.3280   -1.4343    5.1391 H   0  0  0  0  0  0  0  0  0  0  0  0
    0.1982    0.8119   -1.0701 C   0  0  0  0  0  0  0  0  0  0  0  0
    1.0543    1.6740   -1.2113 O   0  0  0  0  0  0  0  0  0  0  0  0
   -0.3871    0.2522   -2.1908 N   0  0  0  0  0  0  0  0  0  0  0  0
   -0.9813   -0.5551   -2.0224 H   0  0  0  0  0  0  0  0  0  0  0  0
    0.0862    0.5101   -3.5457 C   0  0  0  0  0  0  0  0  0  0  0  0
    1.1237    0.1782   -3.6590 H   0  0  0  0  0  0  0  0  0  0  0  0
   -0.5316   -0.0268   -4.2718 H   0  0  0  0  0  0  0  0  0  0  0  0
    0.0327    1.5801   -3.7728 H   0  0  0  0  0  0  0  0  0  0  0  0
  1  2  1  0  0  0  0
  2  3  1  0  0  0  0
  2  4  1  0  0  0  0
  2  5  1  0  0  0  0
  5  6  2  0  0  0  0
  5  7  1  0  0  0  0
  7  8  1  0  0  0  0
  7  9  1  0  0  0  0
  9 10  1  0  0  0  0
  9 11  1  0  0  0  0
  9 21  1  0  0  0  0
 11 12  1  0  0  0  0
 11 13  1  0  0  0  0
 11 14  1  0  0  0  0
 14 15  1  0  0  0  0
 14 16  1  0  0  0  0
 14 17  1  0  0  0  0
 17 18  2  0  0  0  0
 17 19  1  0  0  0  0
 19 20  1  0  0  0  0
 21 22  2  0  0  0  0
 21 23  1  0  0  0  0
 23 24  1  0  0  0  0
 23 25  1  0  0  0  0
 25 26  1  0  0  0  0
 25 27  1  0  0  0  0
 25 28  1  0  0  0  0
M  END
$$$$

  -OEChem-01062216073D

 28 27  0     1  0  0  0  0  0999 V2000
   -3.5673   -2.8518    1.2621 H   0  0  0  0  0  0  0  0  0  0  0  0
   -3.4406   -1.8445    0.8543 C   0  0  0  0  0  0  0  0  0  0  0  0
   -3.9208   -1.1320    1.5293 H   0  0  0  0  0  0  0  0  0  0  0  0
   -3.9270   -1.7971   -0.1229 H   0  0  0  0  0  0  0  0  0  0  0  0
   -1.9650   -1.5184    0.7172 C   0  0  0  0  0  0  0  0  0  0  0  0
   -1.1519   -2.4027    0.9083 O   0  0  0  0  0  0  0  0  0  0  0  0
   -1.6052   -0.2497    0.2937 N   0  0  0  0  0  0  0  0  0  0  0  0
   -2.4002    0.3685    0.1551 H   0  0  0  0  0  0  0  0  0  0  0  0
   -0.2806    0.4316    0.3376 C   0  0  1  0  0  0  0  0  0  0  0  0
   -0.4469    1.3883    0.8426 H   0  0  0  0  0  0  0  0  0  0  0  0
    0.8568   -0.2632    1.1281 C   0  0  0  0  0  0  0  0  0  0  0  0
    1.0282   -1.2707    0.7357 H   0  0  0  0  0  0  0  0  0  0  0  0
    1.7900    0.2915    0.9774 H   0  0  0  0  0  0  0  0  0  0  0  0
    0.5762   -0.3043    2.6470 C   0  0  0  0  0  0  0  0  0  0  0  0
    0.4777    0.7182    3.0206 H   0  0  0  0  0  0  0  0  0  0  0  0
   -0.3645   -0.8201    2.8461 H   0  0  0  0  0  0  0  0  0  0  0  0
    1.6660   -1.0038    3.4604 C   0  0  0  0  0  0  0  0  0  0  0  0
    2.5837   -1.5798    2.8996 O   0  0  0  0  0  0  0  0  0  0  0  0
    1.5453   -0.9368    4.8064 O   0  0  0  0  0  0  0  0  0  0  0  0
    2.3007   -1.4314    5.1587 H   0  0  0  0  0  0  0  0  0  0  0  0
    0.2042    0.8144   -1.0815 C   0  0  0  0  0  0  0  0  0  0  0  0
    1.2060    1.5010   -1.2279 O   0  0  0  0  0  0  0  0  0  0  0  0
   -0.5648    0.5166   -2.1923 N   0  0  0  0  0  0  0  0  0  0  0  0
   -1.2946   -0.1751   -2.0498 H   0  0  0  0  0  0  0  0  0  0  0  0
   -0.1378    0.8152   -3.5544 C   0  0  0  0  0  0  0  0  0  0  0  0
    0.7905    0.2838   -3.7896 H   0  0  0  0  0  0  0  0  0  0  0  0
   -0.9065    0.5058   -4.2691 H   0  0  0  0  0  0  0  0  0  0  0  0
    0.0319    1.8903   -3.6766 H   0  0  0  0  0  0  0  0  0  0  0  0
  1  2  1  0  0  0  0
  2  3  1  0  0  0  0
  2  4  1  0  0  0  0
  2  5  1  0  0  0  0
  5  6  2  0  0  0  0
  5  7  1  0  0  0  0
  7  8  1  0  0  0  0
  7  9  1  0  0  0  0
  9 10  1  0  0  0  0
  9 11  1  0  0  0  0
  9 21  1  0  0  0  0
 11 12  1  0  0  0  0
 11 13  1  0  0  0  0
 11 14  1  0  0  0  0
 14 15  1  0  0  0  0
 14 16  1  0  0  0  0
 14 17  1  0  0  0  0
 17 18  2  0  0  0  0
 17 19  1  0  0  0  0
 19 20  1  0  0  0  0
 21 22  2  0  0  0  0
 21 23  1  0  0  0  0
 23 24  1  0  0  0  0
 23 25  1  0  0  0  0
 25 26  1  0  0  0  0
 25 27  1  0  0  0  0
 25 28  1  0  0  0  0
M  END
$$$$

  -OEChem-01062216073D

 28 27  0     1  0  0  0  0  0999 V2000
   -3.5517   -2.8548    1.2520 H   0  0  0  0  0  0  0  0  0  0  0  0
   -3.4241   -1.8488    0.8415 C   0  0  0  0  0  0  0  0  0  0  0  0
   -3.9029   -1.1340    1.5151 H   0  0  0  0  0  0  0  0  0  0  0  0
   -3.9110   -1.8038   -0.1355 H   0  0  0  0  0  0  0  0  0  0  0  0
   -1.9482   -1.5249    0.7018 C   0  0  0  0  0  0  0  0  0  0  0  0
   -1.1375   -2.4105    0.8958 O   0  0  0  0  0  0  0  0  0  0  0  0
   -1.5896   -0.2535    0.2840 N   0  0  0  0  0  0  0  0  0  0  0  0
   -2.3857    0.3686    0.1767 H   0  0  0  0  0  0  0  0  0  0  0  0
   -0.2635    0.4258    0.3273 C   0  0  1  0  0  0  0  0  0  0  0  0
   -0.4286    1.3824    0.8321 H   0  0  0  0  0  0  0  0  0  0  0  0
    0.8670   -0.2722    1.1280 C   0  0  0  0  0  0  0  0  0  0  0  0
    1.0374   -1.2815    0.7405 H   0  0  0  0  0  0  0  0  0  0  0  0
    1.8052    0.2758    0.9845 H   0  0  0  0  0  0  0  0  0  0  0  0
    0.5761   -0.3033    2.6454 C   0  0  0  0  0  0  0  0  0  0  0  0
    0.4816    0.7217    3.0126 H   0  0  0  0  0  0  0  0  0  0  0  0
   -0.3689   -0.8127    2.8405 H   0  0  0  0  0  0  0  0  0  0  0  0
    1.6551   -1.0040    3.4716 C   0  0  0  0  0  0  0  0  0  0  0  0
    2.5741   -1.5891    2.9226 O   0  0  0  0  0  0  0  0  0  0  0  0
    1.5233   -0.9276    4.8161 O   0  0  0  0  0  0  0  0  0  0  0  0
    2.2719   -1.4259    5.1774 H   0  0  0  0  0  0  0  0  0  0  0  0
    0.2132    0.8149   -1.0958 C   0  0  0  0  0  0  0  0  0  0  0  0
    1.3260    1.2892   -1.2783 O   0  0  0  0  0  0  0  0  0  0  0  0
   -0.6766    0.8090   -2.1560 N   0  0  0  0  0  0  0  0  0  0  0  0
   -1.5257    0.2714   -2.0163 H   0  0  0  0  0  0  0  0  0  0  0  0
   -0.2870    1.1569   -3.5181 C   0  0  0  0  0  0  0  0  0  0  0  0
    0.4858    0.4716   -3.8822 H   0  0  0  0  0  0  0  0  0  0  0  0
   -1.1503    1.0948   -4.1873 H   0  0  0  0  0  0  0  0  0  0  0  0
    0.1037    2.1795   -3.5566 H   0  0  0  0  0  0  0  0  0  0  0  0
  1  2  1  0  0  0  0
  2  3  1  0  0  0  0
  2  4  1  0  0  0  0
  2  5  1  0  0  0  0
  5  6  2  0  0  0  0
  5  7  1  0  0  0  0
  7  8  1  0  0  0  0
  7  9  1  0  0  0  0
  9 10  1  0  0  0  0
  9 11  1  0  0  0  0
  9 21  1  0  0  0  0
 11 12  1  0  0  0  0
 11 13  1  0  0  0  0
 11 14  1  0  0  0  0
 14 15  1  0  0  0  0
 14 16  1  0  0  0  0
 14 17  1  0  0  0  0
 17 18  2  0  0  0  0
 17 19  1  0  0  0  0
 19 20  1  0  0  0  0
 21 22  2  0  0  0  0
 21 23  1  0  0  0  0
 23 24  1  0  0  0  0
 23 25  1  0  0  0  0
 25 26  1  0  0  0  0
 25 27  1  0  0  0  0
 25 28  1  0  0  0  0
M  END
$$$$

  -OEChem-01062216073D

 28 27  0     1  0  0  0  0  0999 V2000
   -3.5478   -2.8571    1.2190 H   0  0  0  0  0  0  0  0  0  0  0  0
   -3.4150   -1.8520    0.8078 C   0  0  0  0  0  0  0  0  0  0  0  0
   -3.9054   -1.1362    1.4717 H   0  0  0  0  0  0  0  0  0  0  0  0
   -3.8866   -1.8111   -0.1771 H   0  0  0  0  0  0  0  0  0  0  0  0
   -1.9376   -1.5265    0.6898 C   0  0  0  0  0  0  0  0  0  0  0  0
   -1.1300   -2.4105    0.9041 O   0  0  0  0  0  0  0  0  0  0  0  0
   -1.5770   -0.2533    0.2782 N   0  0  0  0  0  0  0  0  0  0  0  0
   -2.3737    0.3682    0.1786 H   0  0  0  0  0  0  0  0  0  0  0  0
   -0.2491    0.4220    0.3221 C   0  0  1  0  0  0  0  0  0  0  0  0
   -0.4118    1.3784    0.8278 H   0  0  0  0  0  0  0  0  0  0  0  0
    0.8775   -0.2765    1.1301 C   0  0  0  0  0  0  0  0  0  0  0  0
    1.0476   -1.2875    0.7465 H   0  0  0  0  0  0  0  0  0  0  0  0
    1.8175    0.2686    0.9896 H   0  0  0  0  0  0  0  0  0  0  0  0
    0.5810   -0.2994    2.6468 C   0  0  0  0  0  0  0  0  0  0  0  0
    0.4885    0.7276    3.0091 H   0  0  0  0  0  0  0  0  0  0  0  0
   -0.3662   -0.8053    2.8412 H   0  0  0  0  0  0  0  0  0  0  0  0
    1.6548   -0.9997    3.4803 C   0  0  0  0  0  0  0  0  0  0  0  0
    2.5742   -1.5905    2.9385 O   0  0  0  0  0  0  0  0  0  0  0  0
    1.5163   -0.9179    4.8238 O   0  0  0  0  0  0  0  0  0  0  0  0
    2.2599   -1.4200    5.1903 H   0  0  0  0  0  0  0  0  0  0  0  0
    0.2176    0.8144   -1.1053 C   0  0  0  0  0  0  0  0  0  0  0  0
    1.3951    1.0297   -1.3581 O   0  0  0  0  0  0  0  0  0  0  0  0
   -0.7171    1.1143   -2.0820 N   0  0  0  0  0  0  0  0  0  0  0  0
   -1.6640    0.7963   -1.9101 H   0  0  0  0  0  0  0  0  0  0  0  0
   -0.3483    1.5008   -3.4399 C   0  0  0  0  0  0  0  0  0  0  0  0
    0.2180    0.6995   -3.9264 H   0  0  0  0  0  0  0  0  0  0  0  0
   -1.2450    1.7028   -4.0337 H   0  0  0  0  0  0  0  0  0  0  0  0
    0.2662    2.4074   -3.4273 H   0  0  0  0  0  0  0  0  0  0  0  0
  1  2  1  0  0  0  0
  2  3  1  0  0  0  0
  2  4  1  0  0  0  0
  2  5  1  0  0  0  0
  5  6  2  0  0  0  0
  5  7  1  0  0  0  0
  7  8  1  0  0  0  0
  7  9  1  0  0  0  0
  9 10  1  0  0  0  0
  9 11  1  0  0  0  0
  9 21  1  0  0  0  0
 11 12  1  0  0  0  0
 11 13  1  0  0  0  0
 11 14  1  0  0  0  0
 14 15  1  0  0  0  0
 14 16  1  0  0  0  0
 14 17  1  0  0  0  0
 17 18  2  0  0  0  0
 17 19  1  0  0  0  0
 19 20  1  0  0  0  0
 21 22  2  0  0  0  0
 21 23  1  0  0  0  0
 23 24  1  0  0  0  0
 23 25  1  0  0  0  0
 25 26  1  0  0  0  0
 25 27  1  0  0  0  0
 25 28  1  0  0  0  0
M  END
$$$$

  -OEChem-01062216073D

 28 27  0     1  0  0  0  0  0999 V2000
   -3.5672   -2.8689    1.1245 H   0  0  0  0  0  0  0  0  0  0  0  0
   -3.4210   -1.8569    0.7355 C   0  0  0  0  0  0  0  0  0  0  0  0
   -3.9502   -1.1541    1.3834 H   0  0  0  0  0  0  0  0  0  0  0  0
   -3.8415   -1.8048   -0.2718 H   0  0  0  0  0  0  0  0  0  0  0  0
   -1.9418   -1.5204    0.6974 C   0  0  0  0  0  0  0  0  0  0  0  0
   -1.1435   -2.3941    0.9780 O   0  0  0  0  0  0  0  0  0  0  0  0
   -1.5704   -0.2487    0.2897 N   0  0  0  0  0  0  0  0  0  0  0  0
   -2.3633    0.3594    0.1156 H   0  0  0  0  0  0  0  0  0  0  0  0
   -0.2383    0.4164    0.3284 C   0  0  1  0  0  0  0  0  0  0  0  0
   -0.3933    1.3728    0.8356 H   0  0  0  0  0  0  0  0  0  0  0  0
    0.8882   -0.2810    1.1363 C   0  0  0  0  0  0  0  0  0  0  0  0
    1.0509   -1.2955    0.7581 H   0  0  0  0  0  0  0  0  0  0  0  0
    1.8291    0.2600    0.9852 H   0  0  0  0  0  0  0  0  0  0  0  0
    0.5977   -0.2929    2.6547 C   0  0  0  0  0  0  0  0  0  0  0  0
    0.5105    0.7365    3.0110 H   0  0  0  0  0  0  0  0  0  0  0  0
   -0.3512   -0.7928    2.8562 H   0  0  0  0  0  0  0  0  0  0  0  0
    1.6712   -0.9916    3.4895 C   0  0  0  0  0  0  0  0  0  0  0  0
    2.5864   -1.5899    2.9491 O   0  0  0  0  0  0  0  0  0  0  0  0
    1.5417   -0.8932    4.8328 O   0  0  0  0  0  0  0  0  0  0  0  0
    2.2857   -1.3943    5.2000 H   0  0  0  0  0  0  0  0  0  0  0  0
    0.2163    0.8084   -1.1030 C   0  0  0  0  0  0  0  0  0  0  0  0
    1.3785    0.7008   -1.4692 O   0  0  0  0  0  0  0  0  0  0  0  0
   -0.6791    1.4117   -1.9707 N   0  0  0  0  0  0  0  0  0  0  0  0
   -1.6504    1.4513   -1.6871 H   0  0  0  0  0  0  0  0  0  0  0  0
   -0.3266    1.8162   -3.3274 C   0  0  0  0  0  0  0  0  0  0  0  0
   -0.0012    0.9501   -3.9134 H   0  0  0  0  0  0  0  0  0  0  0  0
   -1.1906    2.2665   -3.8253 H   0  0  0  0  0  0  0  0  0  0  0  0
    0.4837    2.5529   -3.3095 H   0  0  0  0  0  0  0  0  0  0  0  0
  1  2  1  0  0  0  0
  2  3  1  0  0  0  0
  2  4  1  0  0  0  0
  2  5  1  0  0  0  0
  5  6  2  0  0  0  0
  5  7  1  0  0  0  0
  7  8  1  0  0  0  0
  7  9  1  0  0  0  0
  9 10  1  0  0  0  0
  9 11  1  0  0  0  0
  9 21  1  0  0  0  0
 11 12  1  0  0  0  0
 11 13  1  0  0  0  0
 11 14  1  0  0  0  0
 14 15  1  0  0  0  0
 14 16  1  0  0  0  0
 14 17  1  0  0  0  0
 17 18  2  0  0  0  0
 17 19  1  0  0  0  0
 19 20  1  0  0  0  0
 21 22  2  0  0  0  0
 21 23  1  0  0  0  0
 23 24  1  0  0  0  0
 23 25  1  0  0  0  0
 25 26  1  0  0  0  0
 25 27  1  0  0  0  0
 25 28  1  0  0  0  0
M  END
$$$$

  -OEChem-01062216073D

 28 27  0     1  0  0  0  0  0999 V2000
   -3.6213   -2.8615    1.0504 H   0  0  0  0  0  0  0  0  0  0  0  0
   -3.4479   -1.8620    0.6407 C   0  0  0  0  0  0  0  0  0  0  0  0
   -4.0494   -1.1444    1.2036 H   0  0  0  0  0  0  0  0  0  0  0  0
   -3.7629   -1.8531   -0.4056 H   0  0  0  0  0  0  0  0  0  0  0  0
   -1.9768   -1.5030    0.7418 C   0  0  0  0  0  0  0  0  0  0  0  0
   -1.2036   -2.3506    1.1467 O   0  0  0  0  0  0  0  0  0  0  0  0
   -1.5840   -0.2409    0.3238 N   0  0  0  0  0  0  0  0  0  0  0  0
   -2.3469    0.3180   -0.0428 H   0  0  0  0  0  0  0  0  0  0  0  0
   -0.2439    0.4054    0.3432 C   0  0  1  0  0  0  0  0  0  0  0  0
   -0.3827    1.3665    0.8469 H   0  0  0  0  0  0  0  0  0  0  0  0
    0.8904   -0.2860    1.1414 C   0  0  0  0  0  0  0  0  0  0  0  0
    1.0310   -1.3093    0.7768 H   0  0  0  0  0  0  0  0  0  0  0  0
    1.8320    0.2432    0.9567 H   0  0  0  0  0  0  0  0  0  0  0  0
    0.6286   -0.2777    2.6657 C   0  0  0  0  0  0  0  0  0  0  0  0
    0.5582    0.7572    3.0093 H   0  0  0  0  0  0  0  0  0  0  0  0
   -0.3206   -0.7637    2.8955 H   0  0  0  0  0  0  0  0  0  0  0  0
    1.7147   -0.9723    3.4876 C   0  0  0  0  0  0  0  0  0  0  0  0
    2.6159   -1.5816    2.9357 O   0  0  0  0  0  0  0  0  0  0  0  0
    1.6144   -0.8560    4.8322 O   0  0  0  0  0  0  0  0  0  0  0  0
    2.3604   -1.3608    5.1897 H   0  0  0  0  0  0  0  0  0  0  0  0
    0.1911    0.7785   -1.0962 C   0  0  0  0  0  0  0  0  0  0  0  0
    1.2280    0.3625   -1.5932 O   0  0  0  0  0  0  0  0  0  0  0  0
   -0.5853    1.6520   -1.8403 N   0  0  0  0  0  0  0  0  0  0  0  0
   -1.3965    2.0628   -1.3922 H   0  0  0  0  0  0  0  0  0  0  0  0
   -0.2163    2.1038   -3.1779 C   0  0  0  0  0  0  0  0  0  0  0  0
   -0.1138    1.2498   -3.8562 H   0  0  0  0  0  0  0  0  0  0  0  0
   -0.9849    2.7714   -3.5791 H   0  0  0  0  0  0  0  0  0  0  0  0
    0.7342    2.6471   -3.1507 H   0  0  0  0  0  0  0  0  0  0  0  0
  1  2  1  0  0  0  0
  2  3  1  0  0  0  0
  2  4  1  0  0  0  0
  2  5  1  0  0  0  0
  5  6  2  0  0  0  0
  5  7  1  0  0  0  0
  7  8  1  0  0  0  0
  7  9  1  0  0  0  0
  9 10  1  0  0  0  0
  9 11  1  0  0  0  0
  9 21  1  0  0  0  0
 11 12  1  0  0  0  0
 11 13  1  0  0  0  0
 11 14  1  0  0  0  0
 14 15  1  0  0  0  0
 14 16  1  0  0  0  0
 14 17  1  0  0  0  0
 17 18  2  0  0  0  0
 17 19  1  0  0  0  0
 19 20  1  0  0  0  0
 21 22  2  0  0  0  0
 21 23  1  0  0  0  0
 23 24  1  0  0  0  0
 23 25  1  0  0  0  0
 25 26  1  0  0  0  0
 25 27  1  0  0  0  0
 25 28  1  0  0  0  0
M  END
$$$$

  -OEChem-01062216073D

 28 27  0     1  0  0  0  0  0999 V2000
   -3.6385   -2.8605    0.9931 H   0  0  0  0  0  0  0  0  0  0  0  0
   -3.4594   -1.8574    0.5952 C   0  0  0  0  0  0  0  0  0  0  0  0
   -4.0903   -1.1485    1.1366 H   0  0  0  0  0  0  0  0  0  0  0  0
   -3.7317   -1.8464   -0.4629 H   0  0  0  0  0  0  0  0  0  0  0  0
   -1.9977   -1.4831    0.7578 C   0  0  0  0  0  0  0  0  0  0  0  0
   -1.2380   -2.3155    1.2167 O   0  0  0  0  0  0  0  0  0  0  0  0
   -1.5990   -0.2234    0.3389 N   0  0  0  0  0  0  0  0  0  0  0  0
   -2.3415    0.3089   -0.1033 H   0  0  0  0  0  0  0  0  0  0  0  0
   -0.2576    0.4170    0.3574 C   0  0  1  0  0  0  0  0  0  0  0  0
   -0.3937    1.3755    0.8659 H   0  0  0  0  0  0  0  0  0  0  0  0
    0.8847   -0.2718    1.1438 C   0  0  0  0  0  0  0  0  0  0  0  0
    1.0174   -1.2958    0.7772 H   0  0  0  0  0  0  0  0  0  0  0  0
    1.8238    0.2564    0.9444 H   0  0  0  0  0  0  0  0  0  0  0  0
    0.6414   -0.2709    2.6719 C   0  0  0  0  0  0  0  0  0  0  0  0
    0.5732    0.7628    3.0203 H   0  0  0  0  0  0  0  0  0  0  0  0
   -0.3037   -0.7578    2.9146 H   0  0  0  0  0  0  0  0  0  0  0  0
    1.7409   -0.9653    3.4766 C   0  0  0  0  0  0  0  0  0  0  0  0
    2.6373   -1.5689    2.9106 O   0  0  0  0  0  0  0  0  0  0  0  0
    1.6585   -0.8541    4.8227 O   0  0  0  0  0  0  0  0  0  0  0  0
    2.4089   -1.3604    5.1690 H   0  0  0  0  0  0  0  0  0  0  0  0
    0.1743    0.7853   -1.0816 C   0  0  0  0  0  0  0  0  0  0  0  0
    1.0265    0.1503   -1.6857 O   0  0  0  0  0  0  0  0  0  0  0  0
   -0.4041    1.8764   -1.7081 N   0  0  0  0  0  0  0  0  0  0  0  0
   -1.0481    2.4448   -1.1682 H   0  0  0  0  0  0  0  0  0  0  0  0
   -0.0107    2.3303   -3.0380 C   0  0  0  0  0  0  0  0  0  0  0  0
   -0.1539    1.5323   -3.7745 H   0  0  0  0  0  0  0  0  0  0  0  0
   -0.6166    3.1898   -3.3403 H   0  0  0  0  0  0  0  0  0  0  0  0
    1.0428    2.6293   -3.0445 H   0  0  0  0  0  0  0  0  0  0  0  0
  1  2  1  0  0  0  0
  2  3  1  0  0  0  0
  2  4  1  0  0  0  0
  2  5  1  0  0  0  0
  5  6  2  0  0  0  0
  5  7  1  0  0  0  0
  7  8  1  0  0  0  0
  7  9  1  0  0  0  0
  9 10  1  0  0  0  0
  9 11  1  0  0  0  0
  9 21  1  0  0  0  0
 11 12  1  0  0  0  0
 11 13  1  0  0  0  0
 11 14  1  0  0  0  0
 14 15  1  0  0  0  0
 14 16  1  0  0  0  0
 14 17  1  0  0  0  0
 17 18  2  0  0  0  0
 17 19  1  0  0  0  0
 19 20  1  0  0  0  0
 21 22  2  0  0  0  0
 21 23  1  0  0  0  0
 23 24  1  0  0  0  0
 23 25  1  0  0  0  0
 25 26  1  0  0  0  0
 25 27  1  0  0  0  0
 25 28  1  0  0  0  0
M  END
$$$$

  -OEChem-01062216073D

 28 27  0     1  0  0  0  0  0999 V2000
   -3.6470   -2.8594    0.9621 H   0  0  0  0  0  0  0  0  0  0  0  0
   -3.4658   -1.8552    0.5681 C   0  0  0  0  0  0  0  0  0  0  0  0
   -4.1155   -1.1509    1.0928 H   0  0  0  0  0  0  0  0  0  0  0  0
   -3.7121   -1.8471   -0.4964 H   0  0  0  0  0  0  0  0  0  0  0  0
   -2.0114   -1.4692    0.7656 C   0  0  0  0  0  0  0  0  0  0  0  0
   -1.2577   -2.2936    1.2490 O   0  0  0  0  0  0  0  0  0  0  0  0
   -1.6119   -0.2087    0.3506 N   0  0  0  0  0  0  0  0  0  0  0  0
   -2.3429    0.3105   -0.1259 H   0  0  0  0  0  0  0  0  0  0  0  0
   -0.2703    0.4285    0.3704 C   0  0  1  0  0  0  0  0  0  0  0  0
   -0.4090    1.3820    0.8876 H   0  0  0  0  0  0  0  0  0  0  0  0
    0.8789   -0.2588    1.1450 C   0  0  0  0  0  0  0  0  0  0  0  0
    1.0080   -1.2816    0.7733 H   0  0  0  0  0  0  0  0  0  0  0  0
    1.8154    0.2711    0.9387 H   0  0  0  0  0  0  0  0  0  0  0  0
    0.6480   -0.2674    2.6750 C   0  0  0  0  0  0  0  0  0  0  0  0
    0.5794    0.7639    3.0296 H   0  0  0  0  0  0  0  0  0  0  0  0
   -0.2935   -0.7578    2.9244 H   0  0  0  0  0  0  0  0  0  0  0  0
    1.7575   -0.9617    3.4657 C   0  0  0  0  0  0  0  0  0  0  0  0
    2.6512   -1.5577    2.8873 O   0  0  0  0  0  0  0  0  0  0  0  0
    1.6907   -0.8538    4.8129 O   0  0  0  0  0  0  0  0  0  0  0  0
    2.4470   -1.3578    5.1494 H   0  0  0  0  0  0  0  0  0  0  0  0
    0.1672    0.8030   -1.0633 C   0  0  0  0  0  0  0  0  0  0  0  0
    0.7735    0.0149   -1.7738 O   0  0  0  0  0  0  0  0  0  0  0  0
   -0.1522    2.0487   -1.5759 N   0  0  0  0  0  0  0  0  0  0  0  0
   -0.6040    2.7139   -0.9566 H   0  0  0  0  0  0  0  0  0  0  0  0
    0.2587    2.4916   -2.9040 C   0  0  0  0  0  0  0  0  0  0  0  0
   -0.1225    1.8097   -3.6717 H   0  0  0  0  0  0  0  0  0  0  0  0
   -0.1332    3.4926   -3.1081 H   0  0  0  0  0  0  0  0  0  0  0  0
    1.3511    2.5257   -2.9753 H   0  0  0  0  0  0  0  0  0  0  0  0
  1  2  1  0  0  0  0
  2  3  1  0  0  0  0
  2  4  1  0  0  0  0
  2  5  1  0  0  0  0
  5  6  2  0  0  0  0
  5  7  1  0  0  0  0
  7  8  1  0  0  0  0
  7  9  1  0  0  0  0
  9 10  1  0  0  0  0
  9 11  1  0  0  0  0
  9 21  1  0  0  0  0
 11 12  1  0  0  0  0
 11 13  1  0  0  0  0
 11 14  1  0  0  0  0
 14 15  1  0  0  0  0
 14 16  1  0  0  0  0
 14 17  1  0  0  0  0
 17 18  2  0  0  0  0
 17 19  1  0  0  0  0
 19 20  1  0  0  0  0
 21 22  2  0  0  0  0
 21 23  1  0  0  0  0
 23 24  1  0  0  0  0
 23 25  1  0  0  0  0
 25 26  1  0  0  0  0
 25 27  1  0  0  0  0
 25 28  1  0  0  0  0
M  END
$$$$

  -OEChem-01062216073D

 28 27  0     1  0  0  0  0  0999 V2000
   -3.6465   -2.8579    0.9367 H   0  0  0  0  0  0  0  0  0  0  0  0
   -3.4647   -1.8532    0.5444 C   0  0  0  0  0  0  0  0  0  0  0  0
   -4.1316   -1.1530    1.0529 H   0  0  0  0  0  0  0  0  0  0  0  0
   -3.6870   -1.8497   -0.5254 H   0  0  0  0  0  0  0  0  0  0  0  0
   -2.0182   -1.4550    0.7731 C   0  0  0  0  0  0  0  0  0  0  0  0
   -1.2698   -2.2718    1.2783 O   0  0  0  0  0  0  0  0  0  0  0  0
   -1.6192   -0.1933    0.3615 N   0  0  0  0  0  0  0  0  0  0  0  0
   -2.3367    0.3092   -0.1525 H   0  0  0  0  0  0  0  0  0  0  0  0
   -0.2776    0.4421    0.3846 C   0  0  1  0  0  0  0  0  0  0  0  0
   -0.4226    1.3915    0.9072 H   0  0  0  0  0  0  0  0  0  0  0  0
    0.8755   -0.2451    1.1509 C   0  0  0  0  0  0  0  0  0  0  0  0
    1.0026   -1.2659    0.7726 H   0  0  0  0  0  0  0  0  0  0  0  0
    1.8104    0.2868    0.9431 H   0  0  0  0  0  0  0  0  0  0  0  0
    0.6535   -0.2644    2.6824 C   0  0  0  0  0  0  0  0  0  0  0  0
    0.5853    0.7646    3.0436 H   0  0  0  0  0  0  0  0  0  0  0  0
   -0.2854   -0.7568    2.9365 H   0  0  0  0  0  0  0  0  0  0  0  0
    1.7705   -0.9606    3.4605 C   0  0  0  0  0  0  0  0  0  0  0  0
    2.6617   -1.5492    2.8705 O   0  0  0  0  0  0  0  0  0  0  0  0
    1.7130   -0.8638    4.8089 O   0  0  0  0  0  0  0  0  0  0  0  0
    2.4706   -1.3713    5.1368 H   0  0  0  0  0  0  0  0  0  0  0  0
    0.1681    0.8226   -1.0445 C   0  0  0  0  0  0  0  0  0  0  0  0
    0.4758   -0.0361   -1.8580 O   0  0  0  0  0  0  0  0  0  0  0  0
    0.1420    2.1451   -1.4526 N   0  0  0  0  0  0  0  0  0  0  0  0
   -0.0797    2.8512   -0.7577 H   0  0  0  0  0  0  0  0  0  0  0  0
    0.5598    2.5748   -2.7828 C   0  0  0  0  0  0  0  0  0  0  0  0
   -0.0316    2.0695   -3.5540 H   0  0  0  0  0  0  0  0  0  0  0  0
    0.4191    3.6542   -2.8941 H   0  0  0  0  0  0  0  0  0  0  0  0
    1.6182    2.3443   -2.9446 H   0  0  0  0  0  0  0  0  0  0  0  0
  1  2  1  0  0  0  0
  2  3  1  0  0  0  0
  2  4  1  0  0  0  0
  2  5  1  0  0  0  0
  5  6  2  0  0  0  0
  5  7  1  0  0  0  0
  7  8  1  0  0  0  0
  7  9  1  0  0  0  0
  9 10  1  0  0  0  0
  9 11  1  0  0  0  0
  9 21  1  0  0  0  0
 11 12  1  0  0  0  0
 11 13  1  0  0  0  0
 11 14  1  0  0  0  0
 14 15  1  0  0  0  0
 14 16  1  0  0  0  0
 14 17  1  0  0  0  0
 17 18  2  0  0  0  0
 17 19  1  0  0  0  0
 19 20  1  0  0  0  0
 21 22  2  0  0  0  0
 21 23  1  0  0  0  0
 23 24  1  0  0  0  0
 23 25  1  0  0  0  0
 25 26  1  0  0  0  0
 25 27  1  0  0  0  0
 25 28  1  0  0  0  0
M  END
$$$$

  -OEChem-01062216073D

 28 27  0     1  0  0  0  0  0999 V2000
   -3.6491   -2.8542    0.8916 H   0  0  0  0  0  0  0  0  0  0  0  0
   -3.4610   -1.8473    0.5079 C   0  0  0  0  0  0  0  0  0  0  0  0
   -4.1491   -1.1525    0.9950 H   0  0  0  0  0  0  0  0  0  0  0  0
   -3.6473   -1.8424   -0.5689 H   0  0  0  0  0  0  0  0  0  0  0  0
   -2.0259   -1.4391    0.7857 C   0  0  0  0  0  0  0  0  0  0  0  0
   -1.2910   -2.2469    1.3243 O   0  0  0  0  0  0  0  0  0  0  0  0
   -1.6200   -0.1797    0.3753 N   0  0  0  0  0  0  0  0  0  0  0  0
   -2.3118    0.2964   -0.1963 H   0  0  0  0  0  0  0  0  0  0  0  0
   -0.2740    0.4460    0.3980 C   0  0  1  0  0  0  0  0  0  0  0  0
   -0.4196    1.3962    0.9191 H   0  0  0  0  0  0  0  0  0  0  0  0
    0.8782   -0.2423    1.1633 C   0  0  0  0  0  0  0  0  0  0  0  0
    0.9985   -1.2648    0.7873 H   0  0  0  0  0  0  0  0  0  0  0  0
    1.8147    0.2850    0.9511 H   0  0  0  0  0  0  0  0  0  0  0  0
    0.6640   -0.2588    2.6962 C   0  0  0  0  0  0  0  0  0  0  0  0
    0.6021    0.7709    3.0564 H   0  0  0  0  0  0  0  0  0  0  0  0
   -0.2749   -0.7466    2.9582 H   0  0  0  0  0  0  0  0  0  0  0  0
    1.7841   -0.9578    3.4674 C   0  0  0  0  0  0  0  0  0  0  0  0
    2.6690   -1.5488    2.8702 O   0  0  0  0  0  0  0  0  0  0  0  0
    1.7363   -0.8627    4.8163 O   0  0  0  0  0  0  0  0  0  0  0  0
    2.4932   -1.3749    5.1389 H   0  0  0  0  0  0  0  0  0  0  0  0
    0.1774    0.8276   -1.0294 C   0  0  0  0  0  0  0  0  0  0  0  0
    0.1613    0.0035   -1.9326 O   0  0  0  0  0  0  0  0  0  0  0  0
    0.4612    2.1459   -1.3411 N   0  0  0  0  0  0  0  0  0  0  0  0
    0.4827    2.8184   -0.5807 H   0  0  0  0  0  0  0  0  0  0  0  0
    0.8611    2.5798   -2.6753 C   0  0  0  0  0  0  0  0  0  0  0  0
    0.0865    2.3312   -3.4086 H   0  0  0  0  0  0  0  0  0  0  0  0
    1.0156    3.6630   -2.6919 H   0  0  0  0  0  0  0  0  0  0  0  0
    1.7956    2.0919   -2.9723 H   0  0  0  0  0  0  0  0  0  0  0  0
  1  2  1  0  0  0  0
  2  3  1  0  0  0  0
  2  4  1  0  0  0  0
  2  5  1  0  0  0  0
  5  6  2  0  0  0  0
  5  7  1  0  0  0  0
  7  8  1  0  0  0  0
  7  9  1  0  0  0  0
  9 10  1  0  0  0  0
  9 11  1  0  0  0  0
  9 21  1  0  0  0  0
 11 12  1  0  0  0  0
 11 13  1  0  0  0  0
 11 14  1  0  0  0  0
 14 15  1  0  0  0  0
 14 16  1  0  0  0  0
 14 17  1  0  0  0  0
 17 18  2  0  0  0  0
 17 19  1  0  0  0  0
 19 20  1  0  0  0  0
 21 22  2  0  0  0  0
 21 23  1  0  0  0  0
 23 24  1  0  0  0  0
 23 25  1  0  0  0  0
 25 26  1  0  0  0  0
 25 27  1  0  0  0  0
 25 28  1  0  0  0  0
M  END
$$$$

  -OEChem-01062216073D

 28 27  0     1  0  0  0  0  0999 V2000
   -3.6484   -2.8524    0.8701 H   0  0  0  0  0  0  0  0  0  0  0  0
   -3.4588   -1.8439    0.4915 C   0  0  0  0  0  0  0  0  0  0  0  0
   -4.1604   -1.1532    0.9649 H   0  0  0  0  0  0  0  0  0  0  0  0
   -3.6232   -1.8387   -0.5890 H   0  0  0  0  0  0  0  0  0  0  0  0
   -2.0321   -1.4280    0.7988 C   0  0  0  0  0  0  0  0  0  0  0  0
   -1.3037   -2.2313    1.3537 O   0  0  0  0  0  0  0  0  0  0  0  0
   -1.6213   -0.1708    0.3881 N   0  0  0  0  0  0  0  0  0  0  0  0
   -2.2930    0.2857   -0.2232 H   0  0  0  0  0  0  0  0  0  0  0  0
   -0.2712    0.4452    0.4042 C   0  0  1  0  0  0  0  0  0  0  0  0
   -0.4135    1.3980    0.9221 H   0  0  0  0  0  0  0  0  0  0  0  0
    0.8788   -0.2467    1.1689 C   0  0  0  0  0  0  0  0  0  0  0  0
    0.9898   -1.2718    0.7980 H   0  0  0  0  0  0  0  0  0  0  0  0
    1.8187    0.2726    0.9527 H   0  0  0  0  0  0  0  0  0  0  0  0
    0.6699   -0.2546    2.7023 C   0  0  0  0  0  0  0  0  0  0  0  0
    0.6160    0.7771    3.0583 H   0  0  0  0  0  0  0  0  0  0  0  0
   -0.2714   -0.7340    2.9711 H   0  0  0  0  0  0  0  0  0  0  0  0
    1.7898   -0.9578    3.4699 C   0  0  0  0  0  0  0  0  0  0  0  0
    2.6673   -1.5563    2.8688 O   0  0  0  0  0  0  0  0  0  0  0  0
    1.7525   -0.8565    4.8185 O   0  0  0  0  0  0  0  0  0  0  0  0
    2.5084   -1.3721    5.1381 H   0  0  0  0  0  0  0  0  0  0  0  0
    0.1806    0.8286   -1.0232 C   0  0  0  0  0  0  0  0  0  0  0  0
   -0.1279    0.1367   -1.9844 O   0  0  0  0  0  0  0  0  0  0  0  0
    0.7659    2.0605   -1.2574 N   0  0  0  0  0  0  0  0  0  0  0  0
    1.0280    2.6194   -0.4511 H   0  0  0  0  0  0  0  0  0  0  0  0
    1.1731    2.5088   -2.5844 C   0  0  0  0  0  0  0  0  0  0  0  0
    0.3179    2.5117   -3.2688 H   0  0  0  0  0  0  0  0  0  0  0  0
    1.5762    3.5249   -2.5343 H   0  0  0  0  0  0  0  0  0  0  0  0
    1.9465    1.8481   -2.9905 H   0  0  0  0  0  0  0  0  0  0  0  0
  1  2  1  0  0  0  0
  2  3  1  0  0  0  0
  2  4  1  0  0  0  0
  2  5  1  0  0  0  0
  5  6  2  0  0  0  0
  5  7  1  0  0  0  0
  7  8  1  0  0  0  0
  7  9  1  0  0  0  0
  9 10  1  0  0  0  0
  9 11  1  0  0  0  0
  9 21  1  0  0  0  0
 11 12  1  0  0  0  0
 11 13  1  0  0  0  0
 11 14  1  0  0  0  0
 14 15  1  0  0  0  0
 14 16  1  0  0  0  0
 14 17  1  0  0  0  0
 17 18  2  0  0  0  0
 17 19  1  0  0  0  0
 19 20  1  0  0  0  0
 21 22  2  0  0  0  0
 21 23  1  0  0  0  0
 23 24  1  0  0  0  0
 23 25  1  0  0  0  0
 25 26  1  0  0  0  0
 25 27  1  0  0  0  0
 25 28  1  0  0  0  0
M  END
$$$$

  -OEChem-01062216073D

 28 27  0     1  0  0  0  0  0999 V2000
   -3.6504   -2.8428    0.8747 H   0  0  0  0  0  0  0  0  0  0  0  0
   -3.4535   -1.8375    0.4912 C   0  0  0  0  0  0  0  0  0  0  0  0
   -4.1520   -1.1402    0.9594 H   0  0  0  0  0  0  0  0  0  0  0  0
   -3.6159   -1.8366   -0.5895 H   0  0  0  0  0  0  0  0  0  0  0  0
   -2.0251   -1.4279    0.7997 C   0  0  0  0  0  0  0  0  0  0  0  0
   -1.2993   -2.2351    1.3524 O   0  0  0  0  0  0  0  0  0  0  0  0
   -1.6082   -0.1723    0.3918 N   0  0  0  0  0  0  0  0  0  0  0  0
   -2.2636    0.2722   -0.2467 H   0  0  0  0  0  0  0  0  0  0  0  0
   -0.2562    0.4398    0.4055 C   0  0  1  0  0  0  0  0  0  0  0  0
   -0.3943    1.3957    0.9186 H   0  0  0  0  0  0  0  0  0  0  0  0
    0.8886   -0.2573    1.1759 C   0  0  0  0  0  0  0  0  0  0  0  0
    0.9941   -1.2847    0.8096 H   0  0  0  0  0  0  0  0  0  0  0  0
    1.8339    0.2530    0.9637 H   0  0  0  0  0  0  0  0  0  0  0  0
    0.6727   -0.2571    2.7087 C   0  0  0  0  0  0  0  0  0  0  0  0
    0.6236    0.7766    3.0599 H   0  0  0  0  0  0  0  0  0  0  0  0
   -0.2732   -0.7298    2.9740 H   0  0  0  0  0  0  0  0  0  0  0  0
    1.7838   -0.9634    3.4860 C   0  0  0  0  0  0  0  0  0  0  0  0
    2.6603   -1.5702    2.8918 O   0  0  0  0  0  0  0  0  0  0  0  0
    1.7408   -0.8540    4.8339 O   0  0  0  0  0  0  0  0  0  0  0  0
    2.4909   -1.3728    5.1618 H   0  0  0  0  0  0  0  0  0  0  0  0
    0.1936    0.8257   -1.0230 C   0  0  0  0  0  0  0  0  0  0  0  0
   -0.3451    0.3293   -2.0047 O   0  0  0  0  0  0  0  0  0  0  0  0
    1.0478    1.8978   -1.2134 N   0  0  0  0  0  0  0  0  0  0  0  0
    1.4820    2.3073   -0.3917 H   0  0  0  0  0  0  0  0  0  0  0  0
    1.4545    2.3705   -2.5321 C   0  0  0  0  0  0  0  0  0  0  0  0
    0.5813    2.6842   -3.1141 H   0  0  0  0  0  0  0  0  0  0  0  0
    2.1296    3.2264   -2.4361 H   0  0  0  0  0  0  0  0  0  0  0  0
    1.9759    1.5775   -3.0788 H   0  0  0  0  0  0  0  0  0  0  0  0
  1  2  1  0  0  0  0
  2  3  1  0  0  0  0
  2  4  1  0  0  0  0
  2  5  1  0  0  0  0
  5  6  2  0  0  0  0
  5  7  1  0  0  0  0
  7  8  1  0  0  0  0
  7  9  1  0  0  0  0
  9 10  1  0  0  0  0
  9 11  1  0  0  0  0
  9 21  1  0  0  0  0
 11 12  1  0  0  0  0
 11 13  1  0  0  0  0
 11 14  1  0  0  0  0
 14 15  1  0  0  0  0
 14 16  1  0  0  0  0
 14 17  1  0  0  0  0
 17 18  2  0  0  0  0
 17 19  1  0  0  0  0
 19 20  1  0  0  0  0
 21 22  2  0  0  0  0
 21 23  1  0  0  0  0
 23 24  1  0  0  0  0
 23 25  1  0  0  0  0
 25 26  1  0  0  0  0
 25 27  1  0  0  0  0
 25 28  1  0  0  0  0
M  END
$$$$

  -OEChem-01062216073D

 28 27  0     1  0  0  0  0  0999 V2000
   -3.6355   -2.8371    0.8592 H   0  0  0  0  0  0  0  0  0  0  0  0
   -3.4371   -1.8281    0.4868 C   0  0  0  0  0  0  0  0  0  0  0  0
   -4.1361   -1.1348    0.9603 H   0  0  0  0  0  0  0  0  0  0  0  0
   -3.5964   -1.8155   -0.5942 H   0  0  0  0  0  0  0  0  0  0  0  0
   -2.0096   -1.4228    0.8026 C   0  0  0  0  0  0  0  0  0  0  0  0
   -1.2834   -2.2389    1.3419 O   0  0  0  0  0  0  0  0  0  0  0  0
   -1.5907   -0.1650    0.4040 N   0  0  0  0  0  0  0  0  0  0  0  0
   -2.2425    0.2841   -0.2363 H   0  0  0  0  0  0  0  0  0  0  0  0
   -0.2405    0.4506    0.4208 C   0  0  1  0  0  0  0  0  0  0  0  0
   -0.3738    1.4065    0.9358 H   0  0  0  0  0  0  0  0  0  0  0  0
    0.8977   -0.2586    1.1932 C   0  0  0  0  0  0  0  0  0  0  0  0
    1.0017   -1.2841    0.8212 H   0  0  0  0  0  0  0  0  0  0  0  0
    1.8480    0.2470    0.9950 H   0  0  0  0  0  0  0  0  0  0  0  0
    0.6702   -0.2658    2.7244 C   0  0  0  0  0  0  0  0  0  0  0  0
    0.6240    0.7663    3.0807 H   0  0  0  0  0  0  0  0  0  0  0  0
   -0.2803   -0.7341    2.9811 H   0  0  0  0  0  0  0  0  0  0  0  0
    1.7715   -0.9828    3.5062 C   0  0  0  0  0  0  0  0  0  0  0  0
    2.6490   -1.5911    2.9148 O   0  0  0  0  0  0  0  0  0  0  0  0
    1.7169   -0.8844    4.8545 O   0  0  0  0  0  0  0  0  0  0  0  0
    2.4595   -1.4122    5.1851 H   0  0  0  0  0  0  0  0  0  0  0  0
    0.1968    0.8425   -1.0121 C   0  0  0  0  0  0  0  0  0  0  0  0
   -0.5031    0.5531   -1.9761 O   0  0  0  0  0  0  0  0  0  0  0  0
    1.2659    1.6984   -1.2121 N   0  0  0  0  0  0  0  0  0  0  0  0
    1.8410    1.9297   -0.4077 H   0  0  0  0  0  0  0  0  0  0  0  0
    1.6926    2.1476   -2.5330 C   0  0  0  0  0  0  0  0  0  0  0  0
    0.8787    2.6751   -3.0417 H   0  0  0  0  0  0  0  0  0  0  0  0
    2.5428    2.8308   -2.4447 H   0  0  0  0  0  0  0  0  0  0  0  0
    1.9968    1.2937   -3.1476 H   0  0  0  0  0  0  0  0  0  0  0  0
  1  2  1  0  0  0  0
  2  3  1  0  0  0  0
  2  4  1  0  0  0  0
  2  5  1  0  0  0  0
  5  6  2  0  0  0  0
  5  7  1  0  0  0  0
  7  8  1  0  0  0  0
  7  9  1  0  0  0  0
  9 10  1  0  0  0  0
  9 11  1  0  0  0  0
  9 21  1  0  0  0  0
 11 12  1  0  0  0  0
 11 13  1  0  0  0  0
 11 14  1  0  0  0  0
 14 15  1  0  0  0  0
 14 16  1  0  0  0  0
 14 17  1  0  0  0  0
 17 18  2  0  0  0  0
 17 19  1  0  0  0  0
 19 20  1  0  0  0  0
 21 22  2  0  0  0  0
 21 23  1  0  0  0  0
 23 24  1  0  0  0  0
 23 25  1  0  0  0  0
 25 26  1  0  0  0  0
 25 27  1  0  0  0  0
 25 28  1  0  0  0  0
M  END
$$$$

  -OEChem-01062216073D

 28 27  0     1  0  0  0  0  0999 V2000
   -3.7445   -2.7373    0.9335 H   0  0  0  0  0  0  0  0  0  0  0  0
   -3.5157   -1.7270    0.5825 C   0  0  0  0  0  0  0  0  0  0  0  0
   -4.0798   -1.0105    1.1841 H   0  0  0  0  0  0  0  0  0  0  0  0
   -3.8245   -1.6390   -0.4622 H   0  0  0  0  0  0  0  0  0  0  0  0
   -2.0286   -1.4523    0.7066 C   0  0  0  0  0  0  0  0  0  0  0  0
   -1.2934   -2.3754    1.0076 O   0  0  0  0  0  0  0  0  0  0  0  0
   -1.5667   -0.2005    0.3431 N   0  0  0  0  0  0  0  0  0  0  0  0
   -2.2615    0.3652   -0.1432 H   0  0  0  0  0  0  0  0  0  0  0  0
   -0.2102    0.4003    0.3561 C   0  0  1  0  0  0  0  0  0  0  0  0
   -0.2768    1.2070    1.0918 H   0  0  0  0  0  0  0  0  0  0  0  0
    0.9978   -0.4420    0.8399 C   0  0  0  0  0  0  0  0  0  0  0  0
    1.0315   -1.3666    0.2521 H   0  0  0  0  0  0  0  0  0  0  0  0
    1.9297    0.0965    0.6463 H   0  0  0  0  0  0  0  0  0  0  0  0
    0.9610   -0.7877    2.3510 C   0  0  0  0  0  0  0  0  0  0  0  0
    0.9811    0.1441    2.9219 H   0  0  0  0  0  0  0  0  0  0  0  0
    0.0480   -1.3059    2.6352 H   0  0  0  0  0  0  0  0  0  0  0  0
    2.1448   -1.6393    2.8118 C   0  0  0  0  0  0  0  0  0  0  0  0
    2.9344   -2.0868    1.9951 O   0  0  0  0  0  0  0  0  0  0  0  0
    2.2626   -1.8398    4.1446 O   0  0  0  0  0  0  0  0  0  0  0  0
    3.0358   -2.4133    4.2562 H   0  0  0  0  0  0  0  0  0  0  0  0
    0.0510    1.1503   -0.9751 C   0  0  0  0  0  0  0  0  0  0  0  0
   -0.8643    1.3075   -1.7765 O   0  0  0  0  0  0  0  0  0  0  0  0
    1.2493    1.8000   -1.2161 N   0  0  0  0  0  0  0  0  0  0  0  0
    2.0061    1.6531   -0.5551 H   0  0  0  0  0  0  0  0  0  0  0  0
    1.5220    2.5448   -2.4401 C   0  0  0  0  0  0  0  0  0  0  0  0
    0.8084    3.3675   -2.5557 H   0  0  0  0  0  0  0  0  0  0  0  0
    2.5315    2.9660   -2.4104 H   0  0  0  0  0  0  0  0  0  0  0  0
    1.4466    1.8876   -3.3129 H   0  0  0  0  0  0  0  0  0  0  0  0
  1  2  1  0  0  0  0
  2  3  1  0  0  0  0
  2  4  1  0  0  0  0
  2  5  1  0  0  0  0
  5  6  2  0  0  0  0
  5  7  1  0  0  0  0
  7  8  1  0  0  0  0
  7  9  1  0  0  0  0
  9 10  1  0  0  0  0
  9 11  1  0  0  0  0
  9 21  1  0  0  0  0
 11 12  1  0  0  0  0
 11 13  1  0  0  0  0
 11 14  1  0  0  0  0
 14 15  1  0  0  0  0
 14 16  1  0  0  0  0
 14 17  1  0  0  0  0
 17 18  2  0  0  0  0
 17 19  1  0  0  0  0
 19 20  1  0  0  0  0
 21 22  2  0  0  0  0
 21 23  1  0  0  0  0
 23 24  1  0  0  0  0
 23 25  1  0  0  0  0
 25 26  1  0  0  0  0
 25 27  1  0  0  0  0
 25 28  1  0  0  0  0
M  END
$$$$

  -OEChem-01062216073D

 28 27  0     1  0  0  0  0  0999 V2000
   -3.7359   -2.7193    0.9342 H   0  0  0  0  0  0  0  0  0  0  0  0
   -3.4988   -1.7138    0.5749 C   0  0  0  0  0  0  0  0  0  0  0  0
   -4.0524   -0.9876    1.1747 H   0  0  0  0  0  0  0  0  0  0  0  0
   -3.8118   -1.6291   -0.4688 H   0  0  0  0  0  0  0  0  0  0  0  0
   -2.0085   -1.4529    0.6889 C   0  0  0  0  0  0  0  0  0  0  0  0
   -1.2752   -2.3858    0.9639 O   0  0  0  0  0  0  0  0  0  0  0  0
   -1.5396   -0.2001    0.3392 N   0  0  0  0  0  0  0  0  0  0  0  0
   -2.2384    0.3912   -0.1099 H   0  0  0  0  0  0  0  0  0  0  0  0
   -0.1828    0.3979    0.3693 C   0  0  1  0  0  0  0  0  0  0  0  0
   -0.2503    1.2030    1.1070 H   0  0  0  0  0  0  0  0  0  0  0  0
    1.0152   -0.4538    0.8634 C   0  0  0  0  0  0  0  0  0  0  0  0
    1.0571   -1.3744    0.2701 H   0  0  0  0  0  0  0  0  0  0  0  0
    1.9516    0.0853    0.6947 H   0  0  0  0  0  0  0  0  0  0  0  0
    0.9532   -0.8049    2.3721 C   0  0  0  0  0  0  0  0  0  0  0  0
    0.9695    0.1243    2.9473 H   0  0  0  0  0  0  0  0  0  0  0  0
    0.0324   -1.3202    2.6382 H   0  0  0  0  0  0  0  0  0  0  0  0
    2.1252   -1.6651    2.8467 C   0  0  0  0  0  0  0  0  0  0  0  0
    2.9239   -2.1137    2.0394 O   0  0  0  0  0  0  0  0  0  0  0  0
    2.2233   -1.8708    4.1801 O   0  0  0  0  0  0  0  0  0  0  0  0
    2.9940   -2.4458    4.3009 H   0  0  0  0  0  0  0  0  0  0  0  0
    0.0744    1.1522   -0.9612 C   0  0  0  0  0  0  0  0  0  0  0  0
   -0.8817    1.5094   -1.6421 O   0  0  0  0  0  0  0  0  0  0  0  0
    1.3410    1.5488   -1.3539 N   0  0  0  0  0  0  0  0  0  0  0  0
    2.1291    1.2028   -0.8151 H   0  0  0  0  0  0  0  0  0  0  0  0
    1.6035    2.2610   -2.5996 C   0  0  0  0  0  0  0  0  0  0  0  0
    1.0439    3.2020   -2.6298 H   0  0  0  0  0  0  0  0  0  0  0  0
    2.6694    2.4923   -2.6864 H   0  0  0  0  0  0  0  0  0  0  0  0
    1.3099    1.6494   -3.4593 H   0  0  0  0  0  0  0  0  0  0  0  0
  1  2  1  0  0  0  0
  2  3  1  0  0  0  0
  2  4  1  0  0  0  0
  2  5  1  0  0  0  0
  5  6  2  0  0  0  0
  5  7  1  0  0  0  0
  7  8  1  0  0  0  0
  7  9  1  0  0  0  0
  9 10  1  0  0  0  0
  9 11  1  0  0  0  0
  9 21  1  0  0  0  0
 11 12  1  0  0  0  0
 11 13  1  0  0  0  0
 11 14  1  0  0  0  0
 14 15  1  0  0  0  0
 14 16  1  0  0  0  0
 14 17  1  0  0  0  0
 17 18  2  0  0  0  0
 17 19  1  0  0  0  0
 19 20  1  0  0  0  0
 21 22  2  0  0  0  0
 21 23  1  0  0  0  0
 23 24  1  0  0  0  0
 23 25  1  0  0  0  0
 25 26  1  0  0  0  0
 25 27  1  0  0  0  0
 25 28  1  0  0  0  0
M  END
$$$$

  -OEChem-01062216073D

 28 27  0     1  0  0  0  0  0999 V2000
   -3.7227   -2.7132    0.9580 H   0  0  0  0  0  0  0  0  0  0  0  0
   -3.4900   -1.7099    0.5900 C   0  0  0  0  0  0  0  0  0  0  0  0
   -4.0233   -0.9795    1.2031 H   0  0  0  0  0  0  0  0  0  0  0  0
   -3.8311   -1.6260   -0.4447 H   0  0  0  0  0  0  0  0  0  0  0  0
   -1.9957   -1.4571    0.6640 C   0  0  0  0  0  0  0  0  0  0  0  0
   -1.2579   -2.3947    0.9103 O   0  0  0  0  0  0  0  0  0  0  0  0
   -1.5272   -0.2027    0.3200 N   0  0  0  0  0  0  0  0  0  0  0  0
   -2.2363    0.4130   -0.0766 H   0  0  0  0  0  0  0  0  0  0  0  0
   -0.1720    0.3958    0.3705 C   0  0  1  0  0  0  0  0  0  0  0  0
   -0.2476    1.2012    1.1073 H   0  0  0  0  0  0  0  0  0  0  0  0
    1.0211   -0.4552    0.8763 C   0  0  0  0  0  0  0  0  0  0  0  0
    1.0767   -1.3722    0.2786 H   0  0  0  0  0  0  0  0  0  0  0  0
    1.9558    0.0932    0.7262 H   0  0  0  0  0  0  0  0  0  0  0  0
    0.9415   -0.8140    2.3816 C   0  0  0  0  0  0  0  0  0  0  0  0
    0.9452    0.1115    2.9631 H   0  0  0  0  0  0  0  0  0  0  0  0
    0.0198   -1.3367    2.6299 H   0  0  0  0  0  0  0  0  0  0  0  0
    2.1105   -1.6734    2.8646 C   0  0  0  0  0  0  0  0  0  0  0  0
    2.9193   -2.1145    2.0633 O   0  0  0  0  0  0  0  0  0  0  0  0
    2.1945   -1.8872    4.1977 O   0  0  0  0  0  0  0  0  0  0  0  0
    2.9673   -2.4582    4.3239 H   0  0  0  0  0  0  0  0  0  0  0  0
    0.0960    1.1475   -0.9581 C   0  0  0  0  0  0  0  0  0  0  0  0
   -0.8423    1.6925   -1.5297 O   0  0  0  0  0  0  0  0  0  0  0  0
    1.3649    1.2844   -1.4939 N   0  0  0  0  0  0  0  0  0  0  0  0
    2.1131    0.7508   -1.0610 H   0  0  0  0  0  0  0  0  0  0  0  0
    1.6274    1.9531   -2.7631 C   0  0  0  0  0  0  0  0  0  0  0  0
    1.2673    2.9871   -2.7350 H   0  0  0  0  0  0  0  0  0  0  0  0
    2.7025    1.9696   -2.9667 H   0  0  0  0  0  0  0  0  0  0  0  0
    1.1266    1.4282   -3.5835 H   0  0  0  0  0  0  0  0  0  0  0  0
  1  2  1  0  0  0  0
  2  3  1  0  0  0  0
  2  4  1  0  0  0  0
  2  5  1  0  0  0  0
  5  6  2  0  0  0  0
  5  7  1  0  0  0  0
  7  8  1  0  0  0  0
  7  9  1  0  0  0  0
  9 10  1  0  0  0  0
  9 11  1  0  0  0  0
  9 21  1  0  0  0  0
 11 12  1  0  0  0  0
 11 13  1  0  0  0  0
 11 14  1  0  0  0  0
 14 15  1  0  0  0  0
 14 16  1  0  0  0  0
 14 17  1  0  0  0  0
 17 18  2  0  0  0  0
 17 19  1  0  0  0  0
 19 20  1  0  0  0  0
 21 22  2  0  0  0  0
 21 23  1  0  0  0  0
 23 24  1  0  0  0  0
 23 25  1  0  0  0  0
 25 26  1  0  0  0  0
 25 27  1  0  0  0  0
 25 28  1  0  0  0  0
M  END
$$$$

  -OEChem-01062216073D

 28 27  0     1  0  0  0  0  0999 V2000
   -3.7075   -2.7195    0.9550 H   0  0  0  0  0  0  0  0  0  0  0  0
   -3.4825   -1.7074    0.6067 C   0  0  0  0  0  0  0  0  0  0  0  0
   -3.9994   -0.9924    1.2511 H   0  0  0  0  0  0  0  0  0  0  0  0
   -3.8494   -1.5970   -0.4167 H   0  0  0  0  0  0  0  0  0  0  0  0
   -1.9863   -1.4585    0.6491 C   0  0  0  0  0  0  0  0  0  0  0  0
   -1.2436   -2.3991    0.8684 O   0  0  0  0  0  0  0  0  0  0  0  0
   -1.5195   -0.2041    0.3031 N   0  0  0  0  0  0  0  0  0  0  0  0
   -2.2382    0.4293   -0.0445 H   0  0  0  0  0  0  0  0  0  0  0  0
   -0.1656    0.3945    0.3686 C   0  0  1  0  0  0  0  0  0  0  0  0
   -0.2470    1.2020    1.1029 H   0  0  0  0  0  0  0  0  0  0  0  0
    1.0250   -0.4533    0.8823 C   0  0  0  0  0  0  0  0  0  0  0  0
    1.0922   -1.3685    0.2834 H   0  0  0  0  0  0  0  0  0  0  0  0
    1.9561    0.1048    0.7393 H   0  0  0  0  0  0  0  0  0  0  0  0
    0.9328   -0.8161    2.3854 C   0  0  0  0  0  0  0  0  0  0  0  0
    0.9273    0.1077    2.9695 H   0  0  0  0  0  0  0  0  0  0  0  0
    0.0101   -1.3435    2.6215 H   0  0  0  0  0  0  0  0  0  0  0  0
    2.1005   -1.6732    2.8758 C   0  0  0  0  0  0  0  0  0  0  0  0
    2.9174   -2.1092    2.0796 O   0  0  0  0  0  0  0  0  0  0  0  0
    2.1718   -1.8946    4.2086 O   0  0  0  0  0  0  0  0  0  0  0  0
    2.9440   -2.4654    4.3390 H   0  0  0  0  0  0  0  0  0  0  0  0
    0.1144    1.1364   -0.9597 C   0  0  0  0  0  0  0  0  0  0  0  0
   -0.7622    1.8538   -1.4285 O   0  0  0  0  0  0  0  0  0  0  0  0
    1.3156    1.0191   -1.6371 N   0  0  0  0  0  0  0  0  0  0  0  0
    1.9772    0.3288   -1.2927 H   0  0  0  0  0  0  0  0  0  0  0  0
    1.5659    1.6450   -2.9299 C   0  0  0  0  0  0  0  0  0  0  0  0
    1.4378    2.7305   -2.8617 H   0  0  0  0  0  0  0  0  0  0  0  0
    2.5894    1.4400   -3.2581 H   0  0  0  0  0  0  0  0  0  0  0  0
    0.8746    1.2548   -3.6841 H   0  0  0  0  0  0  0  0  0  0  0  0
  1  2  1  0  0  0  0
  2  3  1  0  0  0  0
  2  4  1  0  0  0  0
  2  5  1  0  0  0  0
  5  6  2  0  0  0  0
  5  7  1  0  0  0  0
  7  8  1  0  0  0  0
  7  9  1  0  0  0  0
  9 10  1  0  0  0  0
  9 11  1  0  0  0  0
  9 21  1  0  0  0  0
 11 12  1  0  0  0  0
 11 13  1  0  0  0  0
 11 14  1  0  0  0  0
 14 15  1  0  0  0  0
 14 16  1  0  0  0  0
 14 17  1  0  0  0  0
 17 18  2  0  0  0  0
 17 19  1  0  0  0  0
 19 20  1  0  0  0  0
 21 22  2  0  0  0  0
 21 23  1  0  0  0  0
 23 24  1  0  0  0  0
 23 25  1  0  0  0  0
 25 26  1  0  0  0  0
 25 27  1  0  0  0  0
 25 28  1  0  0  0  0
M  END
$$$$

  -OEChem-01062216073D

 28 27  0     1  0  0  0  0  0999 V2000
   -3.6927   -2.7251    0.9799 H   0  0  0  0  0  0  0  0  0  0  0  0
   -3.4774   -1.7089    0.6379 C   0  0  0  0  0  0  0  0  0  0  0  0
   -3.9717   -1.0017    1.3084 H   0  0  0  0  0  0  0  0  0  0  0  0
   -3.8772   -1.5848   -0.3715 H   0  0  0  0  0  0  0  0  0  0  0  0
   -1.9802   -1.4631    0.6354 C   0  0  0  0  0  0  0  0  0  0  0  0
   -1.2318   -2.4055    0.8258 O   0  0  0  0  0  0  0  0  0  0  0  0
   -1.5194   -0.2081    0.2833 N   0  0  0  0  0  0  0  0  0  0  0  0
   -2.2495    0.4384   -0.0115 H   0  0  0  0  0  0  0  0  0  0  0  0
   -0.1671    0.3926    0.3582 C   0  0  1  0  0  0  0  0  0  0  0  0
   -0.2546    1.2009    1.0912 H   0  0  0  0  0  0  0  0  0  0  0  0
    1.0237   -0.4508    0.8764 C   0  0  0  0  0  0  0  0  0  0  0  0
    1.0967   -1.3666    0.2793 H   0  0  0  0  0  0  0  0  0  0  0  0
    1.9522    0.1123    0.7315 H   0  0  0  0  0  0  0  0  0  0  0  0
    0.9238   -0.8157    2.3781 C   0  0  0  0  0  0  0  0  0  0  0  0
    0.9111    0.1071    2.9637 H   0  0  0  0  0  0  0  0  0  0  0  0
    0.0015   -1.3478    2.6063 H   0  0  0  0  0  0  0  0  0  0  0  0
    2.0913   -1.6688    2.8757 C   0  0  0  0  0  0  0  0  0  0  0  0
    2.9154   -2.1015    2.0851 O   0  0  0  0  0  0  0  0  0  0  0  0
    2.1513   -1.8941    4.2085 O   0  0  0  0  0  0  0  0  0  0  0  0
    2.9248   -2.4618    4.3446 H   0  0  0  0  0  0  0  0  0  0  0  0
    0.1297    1.1262   -0.9678 C   0  0  0  0  0  0  0  0  0  0  0  0
   -0.6417    2.0015   -1.3411 O   0  0  0  0  0  0  0  0  0  0  0  0
    1.1978    0.7781   -1.7753 N   0  0  0  0  0  0  0  0  0  0  0  0
    1.7397   -0.0368   -1.5003 H   0  0  0  0  0  0  0  0  0  0  0  0
    1.4306    1.3663   -3.0885 C   0  0  0  0  0  0  0  0  0  0  0  0
    1.5372    2.4533   -3.0095 H   0  0  0  0  0  0  0  0  0  0  0  0
    2.3482    0.9618   -3.5265 H   0  0  0  0  0  0  0  0  0  0  0  0
    0.5962    1.1424   -3.7614 H   0  0  0  0  0  0  0  0  0  0  0  0
  1  2  1  0  0  0  0
  2  3  1  0  0  0  0
  2  4  1  0  0  0  0
  2  5  1  0  0  0  0
  5  6  2  0  0  0  0
  5  7  1  0  0  0  0
  7  8  1  0  0  0  0
  7  9  1  0  0  0  0
  9 10  1  0  0  0  0
  9 11  1  0  0  0  0
  9 21  1  0  0  0  0
 11 12  1  0  0  0  0
 11 13  1  0  0  0  0
 11 14  1  0  0  0  0
 14 15  1  0  0  0  0
 14 16  1  0  0  0  0
 14 17  1  0  0  0  0
 17 18  2  0  0  0  0
 17 19  1  0  0  0  0
 19 20  1  0  0  0  0
 21 22  2  0  0  0  0
 21 23  1  0  0  0  0
 23 24  1  0  0  0  0
 23 25  1  0  0  0  0
 25 26  1  0  0  0  0
 25 27  1  0  0  0  0
 25 28  1  0  0  0  0
M  END
$$$$

  -OEChem-01062216073D

 28 27  0     1  0  0  0  0  0999 V2000
   -3.6846   -2.7309    1.0069 H   0  0  0  0  0  0  0  0  0  0  0  0
   -3.4764   -1.7107    0.6721 C   0  0  0  0  0  0  0  0  0  0  0  0
   -3.9463   -1.0111    1.3675 H   0  0  0  0  0  0  0  0  0  0  0  0
   -3.9074   -1.5714   -0.3224 H   0  0  0  0  0  0  0  0  0  0  0  0
   -1.9791   -1.4698    0.6263 C   0  0  0  0  0  0  0  0  0  0  0  0
   -1.2265   -2.4138    0.7898 O   0  0  0  0  0  0  0  0  0  0  0  0
   -1.5237   -0.2161    0.2639 N   0  0  0  0  0  0  0  0  0  0  0  0
   -2.2623    0.4388    0.0147 H   0  0  0  0  0  0  0  0  0  0  0  0
   -0.1730    0.3867    0.3445 C   0  0  1  0  0  0  0  0  0  0  0  0
   -0.2649    1.1979    1.0742 H   0  0  0  0  0  0  0  0  0  0  0  0
    1.0191   -0.4511    0.8664 C   0  0  0  0  0  0  0  0  0  0  0  0
    1.0974   -1.3680    0.2719 H   0  0  0  0  0  0  0  0  0  0  0  0
    1.9448    0.1161    0.7179 H   0  0  0  0  0  0  0  0  0  0  0  0
    0.9156   -0.8159    2.3679 C   0  0  0  0  0  0  0  0  0  0  0  0
    0.8933    0.1064    2.9539 H   0  0  0  0  0  0  0  0  0  0  0  0
   -0.0046   -1.3545    2.5897 H   0  0  0  0  0  0  0  0  0  0  0  0
    2.0843   -1.6639    2.8718 C   0  0  0  0  0  0  0  0  0  0  0  0
    2.9140   -2.0945    2.0861 O   0  0  0  0  0  0  0  0  0  0  0  0
    2.1420   -1.8818    4.2059 O   0  0  0  0  0  0  0  0  0  0  0  0
    2.9223   -2.4387    4.3479 H   0  0  0  0  0  0  0  0  0  0  0  0
    0.1383    1.1080   -0.9821 C   0  0  0  0  0  0  0  0  0  0  0  0
   -0.4785    2.1283   -1.2603 O   0  0  0  0  0  0  0  0  0  0  0  0
    1.0105    0.5684   -1.9097 N   0  0  0  0  0  0  0  0  0  0  0  0
    1.3972   -0.3487   -1.7021 H   0  0  0  0  0  0  0  0  0  0  0  0
    1.2263    1.1423   -3.2322 C   0  0  0  0  0  0  0  0  0  0  0  0
    1.5713    2.1784   -3.1490 H   0  0  0  0  0  0  0  0  0  0  0  0
    1.9851    0.5699   -3.7745 H   0  0  0  0  0  0  0  0  0  0  0  0
    0.2979    1.1262   -3.8126 H   0  0  0  0  0  0  0  0  0  0  0  0
  1  2  1  0  0  0  0
  2  3  1  0  0  0  0
  2  4  1  0  0  0  0
  2  5  1  0  0  0  0
  5  6  2  0  0  0  0
  5  7  1  0  0  0  0
  7  8  1  0  0  0  0
  7  9  1  0  0  0  0
  9 10  1  0  0  0  0
  9 11  1  0  0  0  0
  9 21  1  0  0  0  0
 11 12  1  0  0  0  0
 11 13  1  0  0  0  0
 11 14  1  0  0  0  0
 14 15  1  0  0  0  0
 14 16  1  0  0  0  0
 14 17  1  0  0  0  0
 17 18  2  0  0  0  0
 17 19  1  0  0  0  0
 19 20  1  0  0  0  0
 21 22  2  0  0  0  0
 21 23  1  0  0  0  0
 23 24  1  0  0  0  0
 23 25  1  0  0  0  0
 25 26  1  0  0  0  0
 25 27  1  0  0  0  0
 25 28  1  0  0  0  0
M  END
$$$$

  -OEChem-01062216073D

 28 27  0     1  0  0  0  0  0999 V2000
   -3.6738   -2.7368    1.0685 H   0  0  0  0  0  0  0  0  0  0  0  0
   -3.4791   -1.7204    0.7145 C   0  0  0  0  0  0  0  0  0  0  0  0
   -3.9363   -1.0138    1.4115 H   0  0  0  0  0  0  0  0  0  0  0  0
   -3.9350   -1.5968   -0.2709 H   0  0  0  0  0  0  0  0  0  0  0  0
   -1.9844   -1.4742    0.6280 C   0  0  0  0  0  0  0  0  0  0  0  0
   -1.2249   -2.4174    0.7608 O   0  0  0  0  0  0  0  0  0  0  0  0
   -1.5400   -0.2211    0.2498 N   0  0  0  0  0  0  0  0  0  0  0  0
   -2.2888    0.4371    0.0450 H   0  0  0  0  0  0  0  0  0  0  0  0
   -0.1914    0.3882    0.3315 C   0  0  1  0  0  0  0  0  0  0  0  0
   -0.2871    1.2014    1.0587 H   0  0  0  0  0  0  0  0  0  0  0  0
    1.0063   -0.4430    0.8503 C   0  0  0  0  0  0  0  0  0  0  0  0
    1.0917   -1.3579    0.2540 H   0  0  0  0  0  0  0  0  0  0  0  0
    1.9274    0.1313    0.6986 H   0  0  0  0  0  0  0  0  0  0  0  0
    0.9083   -0.8127    2.3511 C   0  0  0  0  0  0  0  0  0  0  0  0
    0.8824    0.1084    2.9390 H   0  0  0  0  0  0  0  0  0  0  0  0
   -0.0078   -1.3580    2.5734 H   0  0  0  0  0  0  0  0  0  0  0  0
    2.0835   -1.6545    2.8505 C   0  0  0  0  0  0  0  0  0  0  0  0
    2.9143   -2.0775    2.0621 O   0  0  0  0  0  0  0  0  0  0  0  0
    2.1417   -1.8817    4.1831 O   0  0  0  0  0  0  0  0  0  0  0  0
    2.9246   -2.4359    4.3210 H   0  0  0  0  0  0  0  0  0  0  0  0
    0.1315    1.0946   -0.9985 C   0  0  0  0  0  0  0  0  0  0  0  0
   -0.2723    2.2340   -1.1880 O   0  0  0  0  0  0  0  0  0  0  0  0
    0.7588    0.4127   -2.0242 N   0  0  0  0  0  0  0  0  0  0  0  0
    0.9661   -0.5703   -1.8664 H   0  0  0  0  0  0  0  0  0  0  0  0
    0.9790    0.9798   -3.3485 C   0  0  0  0  0  0  0  0  0  0  0  0
    1.5627    1.9038   -3.2779 H   0  0  0  0  0  0  0  0  0  0  0  0
    1.5296    0.2726   -3.9763 H   0  0  0  0  0  0  0  0  0  0  0  0
    0.0229    1.2032   -3.8333 H   0  0  0  0  0  0  0  0  0  0  0  0
  1  2  1  0  0  0  0
  2  3  1  0  0  0  0
  2  4  1  0  0  0  0
  2  5  1  0  0  0  0
  5  6  2  0  0  0  0
  5  7  1  0  0  0  0
  7  8  1  0  0  0  0
  7  9  1  0  0  0  0
  9 10  1  0  0  0  0
  9 11  1  0  0  0  0
  9 21  1  0  0  0  0
 11 12  1  0  0  0  0
 11 13  1  0  0  0  0
 11 14  1  0  0  0  0
 14 15  1  0  0  0  0
 14 16  1  0  0  0  0
 14 17  1  0  0  0  0
 17 18  2  0  0  0  0
 17 19  1  0  0  0  0
 19 20  1  0  0  0  0
 21 22  2  0  0  0  0
 21 23  1  0  0  0  0
 23 24  1  0  0  0  0
 23 25  1  0  0  0  0
 25 26  1  0  0  0  0
 25 27  1  0  0  0  0
 25 28  1  0  0  0  0
M  END
$$$$

  -OEChem-01062216073D

 28 27  0     1  0  0  0  0  0999 V2000
   -3.6669   -2.7590    1.0989 H   0  0  0  0  0  0  0  0  0  0  0  0
   -3.4846   -1.7329    0.7668 C   0  0  0  0  0  0  0  0  0  0  0  0
   -3.9138   -1.0464    1.5006 H   0  0  0  0  0  0  0  0  0  0  0  0
   -3.9781   -1.5821   -0.1965 H   0  0  0  0  0  0  0  0  0  0  0  0
   -1.9941   -1.4839    0.6302 C   0  0  0  0  0  0  0  0  0  0  0  0
   -1.2279   -2.4257    0.7276 O   0  0  0  0  0  0  0  0  0  0  0  0
   -1.5635   -0.2307    0.2370 N   0  0  0  0  0  0  0  0  0  0  0  0
   -2.3220    0.4276    0.0743 H   0  0  0  0  0  0  0  0  0  0  0  0
   -0.2182    0.3882    0.3178 C   0  0  1  0  0  0  0  0  0  0  0  0
   -0.3180    1.2034    1.0426 H   0  0  0  0  0  0  0  0  0  0  0  0
    0.9873   -0.4339    0.8304 C   0  0  0  0  0  0  0  0  0  0  0  0
    1.0806   -1.3449    0.2295 H   0  0  0  0  0  0  0  0  0  0  0  0
    1.9022    0.1499    0.6778 H   0  0  0  0  0  0  0  0  0  0  0  0
    0.8973   -0.8097    2.3297 C   0  0  0  0  0  0  0  0  0  0  0  0
    0.8638    0.1093    2.9206 H   0  0  0  0  0  0  0  0  0  0  0  0
   -0.0129   -1.3649    2.5515 H   0  0  0  0  0  0  0  0  0  0  0  0
    2.0813   -1.6427    2.8228 C   0  0  0  0  0  0  0  0  0  0  0  0
    2.9142   -2.0563    2.0317 O   0  0  0  0  0  0  0  0  0  0  0  0
    2.1457   -1.8715    4.1546 O   0  0  0  0  0  0  0  0  0  0  0  0
    2.9361   -2.4160    4.2886 H   0  0  0  0  0  0  0  0  0  0  0  0
    0.1110    1.0819   -1.0159 C   0  0  0  0  0  0  0  0  0  0  0  0
   -0.0187    2.2934   -1.1239 O   0  0  0  0  0  0  0  0  0  0  0  0
    0.4578    0.3265   -2.1194 N   0  0  0  0  0  0  0  0  0  0  0  0
    0.4734   -0.6837   -2.0006 H   0  0  0  0  0  0  0  0  0  0  0  0
    0.7056    0.8936   -3.4386 C   0  0  0  0  0  0  0  0  0  0  0  0
    1.5144    1.6304   -3.3926 H   0  0  0  0  0  0  0  0  0  0  0  0
    0.9963    0.1061   -4.1406 H   0  0  0  0  0  0  0  0  0  0  0  0
   -0.1962    1.3832   -3.8205 H   0  0  0  0  0  0  0  0  0  0  0  0
  1  2  1  0  0  0  0
  2  3  1  0  0  0  0
  2  4  1  0  0  0  0
  2  5  1  0  0  0  0
  5  6  2  0  0  0  0
  5  7  1  0  0  0  0
  7  8  1  0  0  0  0
  7  9  1  0  0  0  0
  9 10  1  0  0  0  0
  9 11  1  0  0  0  0
  9 21  1  0  0  0  0
 11 12  1  0  0  0  0
 11 13  1  0  0  0  0
 11 14  1  0  0  0  0
 14 15  1  0  0  0  0
 14 16  1  0  0  0  0
 14 17  1  0  0  0  0
 17 18  2  0  0  0  0
 17 19  1  0  0  0  0
 19 20  1  0  0  0  0
 21 22  2  0  0  0  0
 21 23  1  0  0  0  0
 23 24  1  0  0  0  0
 23 25  1  0  0  0  0
 25 26  1  0  0  0  0
 25 27  1  0  0  0  0
 25 28  1  0  0  0  0
M  END
$$$$

  -OEChem-01062216073D

 28 27  0     1  0  0  0  0  0999 V2000
   -3.6581   -2.7856    1.1578 H   0  0  0  0  0  0  0  0  0  0  0  0
   -3.4921   -1.7548    0.8316 C   0  0  0  0  0  0  0  0  0  0  0  0
   -3.8937   -1.0792    1.5906 H   0  0  0  0  0  0  0  0  0  0  0  0
   -4.0239   -1.5933   -0.1092 H   0  0  0  0  0  0  0  0  0  0  0  0
   -2.0088   -1.4990    0.6398 C   0  0  0  0  0  0  0  0  0  0  0  0
   -1.2356   -2.4380    0.7016 O   0  0  0  0  0  0  0  0  0  0  0  0
   -1.5966   -0.2433    0.2344 N   0  0  0  0  0  0  0  0  0  0  0  0
   -2.3649    0.4109    0.1071 H   0  0  0  0  0  0  0  0  0  0  0  0
   -0.2552    0.3887    0.3056 C   0  0  1  0  0  0  0  0  0  0  0  0
   -0.3567    1.2041    1.0298 H   0  0  0  0  0  0  0  0  0  0  0  0
    0.9605   -0.4248    0.8053 C   0  0  0  0  0  0  0  0  0  0  0  0
    1.0584   -1.3316    0.1984 H   0  0  0  0  0  0  0  0  0  0  0  0
    1.8692    0.1679    0.6487 H   0  0  0  0  0  0  0  0  0  0  0  0
    0.8844   -0.8056    2.3039 C   0  0  0  0  0  0  0  0  0  0  0  0
    0.8470    0.1111    2.8980 H   0  0  0  0  0  0  0  0  0  0  0  0
   -0.0192   -1.3703    2.5295 H   0  0  0  0  0  0  0  0  0  0  0  0
    2.0779   -1.6307    2.7872 C   0  0  0  0  0  0  0  0  0  0  0  0
    2.9088   -2.0361    1.9902 O   0  0  0  0  0  0  0  0  0  0  0  0
    2.1528   -1.8610    4.1183 O   0  0  0  0  0  0  0  0  0  0  0  0
    2.9501   -2.3968    4.2458 H   0  0  0  0  0  0  0  0  0  0  0  0
    0.0716    1.0793   -1.0304 C   0  0  0  0  0  0  0  0  0  0  0  0
    0.2458    2.2889   -1.0730 O   0  0  0  0  0  0  0  0  0  0  0  0
    0.1192    0.3350   -2.1932 N   0  0  0  0  0  0  0  0  0  0  0  0
   -0.0343   -0.6669   -2.1045 H   0  0  0  0  0  0  0  0  0  0  0  0
    0.4330    0.8989   -3.4997 C   0  0  0  0  0  0  0  0  0  0  0  0
    1.4225    1.3678   -3.4868 H   0  0  0  0  0  0  0  0  0  0  0  0
    0.4335    0.1133   -4.2616 H   0  0  0  0  0  0  0  0  0  0  0  0
   -0.3104    1.6524   -3.7798 H   0  0  0  0  0  0  0  0  0  0  0  0
  1  2  1  0  0  0  0
  2  3  1  0  0  0  0
  2  4  1  0  0  0  0
  2  5  1  0  0  0  0
  5  6  2  0  0  0  0
  5  7  1  0  0  0  0
  7  8  1  0  0  0  0
  7  9  1  0  0  0  0
  9 10  1  0  0  0  0
  9 11  1  0  0  0  0
  9 21  1  0  0  0  0
 11 12  1  0  0  0  0
 11 13  1  0  0  0  0
 11 14  1  0  0  0  0
 14 15  1  0  0  0  0
 14 16  1  0  0  0  0
 14 17  1  0  0  0  0
 17 18  2  0  0  0  0
 17 19  1  0  0  0  0
 19 20  1  0  0  0  0
 21 22  2  0  0  0  0
 21 23  1  0  0  0  0
 23 24  1  0  0  0  0
 23 25  1  0  0  0  0
 25 26  1  0  0  0  0
 25 27  1  0  0  0  0
 25 28  1  0  0  0  0
M  END
$$$$

  -OEChem-01062216073D

 28 27  0     1  0  0  0  0  0999 V2000
   -3.6378   -2.8041    1.2284 H   0  0  0  0  0  0  0  0  0  0  0  0
   -3.4897   -1.7769    0.8824 C   0  0  0  0  0  0  0  0  0  0  0  0
   -3.8759   -1.0931    1.6423 H   0  0  0  0  0  0  0  0  0  0  0  0
   -4.0487   -1.6346   -0.0456 H   0  0  0  0  0  0  0  0  0  0  0  0
   -2.0147   -1.5118    0.6461 C   0  0  0  0  0  0  0  0  0  0  0  0
   -1.2353   -2.4468    0.6775 O   0  0  0  0  0  0  0  0  0  0  0  0
   -1.6215   -0.2515    0.2360 N   0  0  0  0  0  0  0  0  0  0  0  0
   -2.3990    0.3960    0.1353 H   0  0  0  0  0  0  0  0  0  0  0  0
   -0.2855    0.3965    0.3002 C   0  0  1  0  0  0  0  0  0  0  0  0
   -0.3904    1.2100    1.0258 H   0  0  0  0  0  0  0  0  0  0  0  0
    0.9381   -0.4121    0.7887 C   0  0  0  0  0  0  0  0  0  0  0  0
    1.0397   -1.3137    0.1747 H   0  0  0  0  0  0  0  0  0  0  0  0
    1.8422    0.1877    0.6316 H   0  0  0  0  0  0  0  0  0  0  0  0
    0.8727   -0.8016    2.2856 C   0  0  0  0  0  0  0  0  0  0  0  0
    0.8341    0.1119    2.8845 H   0  0  0  0  0  0  0  0  0  0  0  0
   -0.0263   -1.3725    2.5135 H   0  0  0  0  0  0  0  0  0  0  0  0
    2.0736   -1.6220    2.7582 C   0  0  0  0  0  0  0  0  0  0  0  0
    2.9033   -2.0184    1.9556 O   0  0  0  0  0  0  0  0  0  0  0  0
    2.1517   -1.8658    4.0866 O   0  0  0  0  0  0  0  0  0  0  0  0
    2.9512   -2.4002    4.2063 H   0  0  0  0  0  0  0  0  0  0  0  0
    0.0367    1.0923   -1.0352 C   0  0  0  0  0  0  0  0  0  0  0  0
    0.4814    2.2312   -1.0453 O   0  0  0  0  0  0  0  0  0  0  0  0
   -0.2063    0.4373   -2.2271 N   0  0  0  0  0  0  0  0  0  0  0  0
   -0.5051   -0.5329   -2.1587 H   0  0  0  0  0  0  0  0  0  0  0  0
    0.1453    0.9857   -3.5308 C   0  0  0  0  0  0  0  0  0  0  0  0
    1.2257    1.1523   -3.5970 H   0  0  0  0  0  0  0  0  0  0  0  0
   -0.1474    0.2916   -4.3245 H   0  0  0  0  0  0  0  0  0  0  0  0
   -0.3687    1.9382   -3.6982 H   0  0  0  0  0  0  0  0  0  0  0  0
  1  2  1  0  0  0  0
  2  3  1  0  0  0  0
  2  4  1  0  0  0  0
  2  5  1  0  0  0  0
  5  6  2  0  0  0  0
  5  7  1  0  0  0  0
  7  8  1  0  0  0  0
  7  9  1  0  0  0  0
  9 10  1  0  0  0  0
  9 11  1  0  0  0  0
  9 21  1  0  0  0  0
 11 12  1  0  0  0  0
 11 13  1  0  0  0  0
 11 14  1  0  0  0  0
 14 15  1  0  0  0  0
 14 16  1  0  0  0  0
 14 17  1  0  0  0  0
 17 18  2  0  0  0  0
 17 19  1  0  0  0  0
 19 20  1  0  0  0  0
 21 22  2  0  0  0  0
 21 23  1  0  0  0  0
 23 24  1  0  0  0  0
 23 25  1  0  0  0  0
 25 26  1  0  0  0  0
 25 27  1  0  0  0  0
 25 28  1  0  0  0  0
M  END
$$$$

  -OEChem-01062216073D

 28 27  0     1  0  0  0  0  0999 V2000
   -3.6228   -2.8200    1.2747 H   0  0  0  0  0  0  0  0  0  0  0  0
   -3.4866   -1.7957    0.9155 C   0  0  0  0  0  0  0  0  0  0  0  0
   -3.8623   -1.1063    1.6756 H   0  0  0  0  0  0  0  0  0  0  0  0
   -4.0634   -1.6657   -0.0034 H   0  0  0  0  0  0  0  0  0  0  0  0
   -2.0171   -1.5262    0.6501 C   0  0  0  0  0  0  0  0  0  0  0  0
   -1.2351   -2.4589    0.6686 O   0  0  0  0  0  0  0  0  0  0  0  0
   -1.6358   -0.2622    0.2384 N   0  0  0  0  0  0  0  0  0  0  0  0
   -2.4181    0.3829    0.1637 H   0  0  0  0  0  0  0  0  0  0  0  0
   -0.3015    0.3942    0.2928 C   0  0  1  0  0  0  0  0  0  0  0  0
   -0.4065    1.2061    1.0196 H   0  0  0  0  0  0  0  0  0  0  0  0
    0.9251   -0.4136    0.7781 C   0  0  0  0  0  0  0  0  0  0  0  0
    1.0251   -1.3154    0.1640 H   0  0  0  0  0  0  0  0  0  0  0  0
    1.8294    0.1853    0.6178 H   0  0  0  0  0  0  0  0  0  0  0  0
    0.8654   -0.8000    2.2761 C   0  0  0  0  0  0  0  0  0  0  0  0
    0.8282    0.1147    2.8736 H   0  0  0  0  0  0  0  0  0  0  0  0
   -0.0324   -1.3712    2.5079 H   0  0  0  0  0  0  0  0  0  0  0  0
    2.0683   -1.6191    2.7462 C   0  0  0  0  0  0  0  0  0  0  0  0
    2.8957   -2.0178    1.9423 O   0  0  0  0  0  0  0  0  0  0  0  0
    2.1518   -1.8572    4.0754 O   0  0  0  0  0  0  0  0  0  0  0  0
    2.9535   -2.3886    4.1939 H   0  0  0  0  0  0  0  0  0  0  0  0
    0.0217    1.1004   -1.0392 C   0  0  0  0  0  0  0  0  0  0  0  0
    0.6946    2.1214   -1.0444 O   0  0  0  0  0  0  0  0  0  0  0  0
   -0.4870    0.6109   -2.2273 N   0  0  0  0  0  0  0  0  0  0  0  0
   -0.9326   -0.3021   -2.1799 H   0  0  0  0  0  0  0  0  0  0  0  0
   -0.1413    1.1655   -3.5303 C   0  0  0  0  0  0  0  0  0  0  0  0
    0.9334    1.0643   -3.7162 H   0  0  0  0  0  0  0  0  0  0  0  0
   -0.6820    0.6383   -4.3223 H   0  0  0  0  0  0  0  0  0  0  0  0
   -0.4085    2.2266   -3.5790 H   0  0  0  0  0  0  0  0  0  0  0  0
  1  2  1  0  0  0  0
  2  3  1  0  0  0  0
  2  4  1  0  0  0  0
  2  5  1  0  0  0  0
  5  6  2  0  0  0  0
  5  7  1  0  0  0  0
  7  8  1  0  0  0  0
  7  9  1  0  0  0  0
  9 10  1  0  0  0  0
  9 11  1  0  0  0  0
  9 21  1  0  0  0  0
 11 12  1  0  0  0  0
 11 13  1  0  0  0  0
 11 14  1  0  0  0  0
 14 15  1  0  0  0  0
 14 16  1  0  0  0  0
 14 17  1  0  0  0  0
 17 18  2  0  0  0  0
 17 19  1  0  0  0  0
 19 20  1  0  0  0  0
 21 22  2  0  0  0  0
 21 23  1  0  0  0  0
 23 24  1  0  0  0  0
 23 25  1  0  0  0  0
 25 26  1  0  0  0  0
 25 27  1  0  0  0  0
 25 28  1  0  0  0  0
M  END
$$$$

  -OEChem-01062216073D

 28 27  0     1  0  0  0  0  0999 V2000
   -3.6019   -2.8375    1.2815 H   0  0  0  0  0  0  0  0  0  0  0  0
   -3.4709   -1.8099    0.9297 C   0  0  0  0  0  0  0  0  0  0  0  0
   -3.8347   -1.1280    1.7022 H   0  0  0  0  0  0  0  0  0  0  0  0
   -4.0618   -1.6715    0.0210 H   0  0  0  0  0  0  0  0  0  0  0  0
   -2.0055   -1.5379    0.6445 C   0  0  0  0  0  0  0  0  0  0  0  0
   -1.2225   -2.4697    0.6549 O   0  0  0  0  0  0  0  0  0  0  0  0
   -1.6324   -0.2703    0.2339 N   0  0  0  0  0  0  0  0  0  0  0  0
   -2.4172    0.3743    0.1861 H   0  0  0  0  0  0  0  0  0  0  0  0
   -0.2994    0.3920    0.2829 C   0  0  1  0  0  0  0  0  0  0  0  0
   -0.4048    1.2042    1.0094 H   0  0  0  0  0  0  0  0  0  0  0  0
    0.9256   -0.4193    0.7722 C   0  0  0  0  0  0  0  0  0  0  0  0
    1.0250   -1.3228    0.1606 H   0  0  0  0  0  0  0  0  0  0  0  0
    1.8334    0.1741    0.6140 H   0  0  0  0  0  0  0  0  0  0  0  0
    0.8600   -0.7987    2.2719 C   0  0  0  0  0  0  0  0  0  0  0  0
    0.8254    0.1190    2.8645 H   0  0  0  0  0  0  0  0  0  0  0  0
   -0.0409   -1.3650    2.5039 H   0  0  0  0  0  0  0  0  0  0  0  0
    2.0571   -1.6205    2.7515 C   0  0  0  0  0  0  0  0  0  0  0  0
    2.8869   -2.0276    1.9546 O   0  0  0  0  0  0  0  0  0  0  0  0
    2.1316   -1.8523    4.0824 O   0  0  0  0  0  0  0  0  0  0  0  0
    2.9301   -2.3870    4.2076 H   0  0  0  0  0  0  0  0  0  0  0  0
    0.0212    1.1071   -1.0481 C   0  0  0  0  0  0  0  0  0  0  0  0
    0.8691    1.9878   -1.0830 O   0  0  0  0  0  0  0  0  0  0  0  0
   -0.7129    0.8304   -2.1870 N   0  0  0  0  0  0  0  0  0  0  0  0
   -1.2945   -0.0023   -2.1464 H   0  0  0  0  0  0  0  0  0  0  0  0
   -0.4108    1.4162   -3.4877 C   0  0  0  0  0  0  0  0  0  0  0  0
    0.5832    1.1049   -3.8260 H   0  0  0  0  0  0  0  0  0  0  0  0
   -1.1479    1.0931   -4.2291 H   0  0  0  0  0  0  0  0  0  0  0  0
   -0.4366    2.5098   -3.4324 H   0  0  0  0  0  0  0  0  0  0  0  0
  1  2  1  0  0  0  0
  2  3  1  0  0  0  0
  2  4  1  0  0  0  0
  2  5  1  0  0  0  0
  5  6  2  0  0  0  0
  5  7  1  0  0  0  0
  7  8  1  0  0  0  0
  7  9  1  0  0  0  0
  9 10  1  0  0  0  0
  9 11  1  0  0  0  0
  9 21  1  0  0  0  0
 11 12  1  0  0  0  0
 11 13  1  0  0  0  0
 11 14  1  0  0  0  0
 14 15  1  0  0  0  0
 14 16  1  0  0  0  0
 14 17  1  0  0  0  0
 17 18  2  0  0  0  0
 17 19  1  0  0  0  0
 19 20  1  0  0  0  0
 21 22  2  0  0  0  0
 21 23  1  0  0  0  0
 23 24  1  0  0  0  0
 23 25  1  0  0  0  0
 25 26  1  0  0  0  0
 25 27  1  0  0  0  0
 25 28  1  0  0  0  0
M  END
$$$$

  -OEChem-01062216073D

 28 27  0     1  0  0  0  0  0999 V2000
   -3.5904   -2.8477    1.2594 H   0  0  0  0  0  0  0  0  0  0  0  0
   -3.4573   -1.8148    0.9247 C   0  0  0  0  0  0  0  0  0  0  0  0
   -3.8116   -1.1444    1.7115 H   0  0  0  0  0  0  0  0  0  0  0  0
   -4.0541   -1.6584    0.0230 H   0  0  0  0  0  0  0  0  0  0  0  0
   -1.9931   -1.5446    0.6333 C   0  0  0  0  0  0  0  0  0  0  0  0
   -1.2120   -2.4778    0.6429 O   0  0  0  0  0  0  0  0  0  0  0  0
   -1.6226   -0.2746    0.2268 N   0  0  0  0  0  0  0  0  0  0  0  0
   -2.4068    0.3719    0.2078 H   0  0  0  0  0  0  0  0  0  0  0  0
   -0.2879    0.3870    0.2702 C   0  0  1  0  0  0  0  0  0  0  0  0
   -0.3904    1.1999    0.9959 H   0  0  0  0  0  0  0  0  0  0  0  0
    0.9329   -0.4300    0.7671 C   0  0  0  0  0  0  0  0  0  0  0  0
    1.0289   -1.3378    0.1615 H   0  0  0  0  0  0  0  0  0  0  0  0
    1.8471    0.1536    0.6098 H   0  0  0  0  0  0  0  0  0  0  0  0
    0.8595   -0.7975    2.2698 C   0  0  0  0  0  0  0  0  0  0  0  0
    0.8281    0.1249    2.8556 H   0  0  0  0  0  0  0  0  0  0  0  0
   -0.0458   -1.3568    2.5017 H   0  0  0  0  0  0  0  0  0  0  0  0
    2.0486   -1.6238    2.7612 C   0  0  0  0  0  0  0  0  0  0  0  0
    2.8790   -2.0436    1.9718 O   0  0  0  0  0  0  0  0  0  0  0  0
    2.1154   -1.8452    4.0943 O   0  0  0  0  0  0  0  0  0  0  0  0
    2.9101   -2.3838    4.2270 H   0  0  0  0  0  0  0  0  0  0  0  0
    0.0252    1.1107   -1.0613 C   0  0  0  0  0  0  0  0  0  0  0  0
    1.0123    1.8262   -1.1600 O   0  0  0  0  0  0  0  0  0  0  0  0
   -0.8844    1.0853   -2.1036 N   0  0  0  0  0  0  0  0  0  0  0  0
   -1.5924    0.3590   -2.0497 H   0  0  0  0  0  0  0  0  0  0  0  0
   -0.6260    1.7144   -3.3938 C   0  0  0  0  0  0  0  0  0  0  0  0
    0.2460    1.2582   -3.8740 H   0  0  0  0  0  0  0  0  0  0  0  0
   -1.4900    1.5935   -4.0542 H   0  0  0  0  0  0  0  0  0  0  0  0
   -0.4379    2.7860   -3.2681 H   0  0  0  0  0  0  0  0  0  0  0  0
  1  2  1  0  0  0  0
  2  3  1  0  0  0  0
  2  4  1  0  0  0  0
  2  5  1  0  0  0  0
  5  6  2  0  0  0  0
  5  7  1  0  0  0  0
  7  8  1  0  0  0  0
  7  9  1  0  0  0  0
  9 10  1  0  0  0  0
  9 11  1  0  0  0  0
  9 21  1  0  0  0  0
 11 12  1  0  0  0  0
 11 13  1  0  0  0  0
 11 14  1  0  0  0  0
 14 15  1  0  0  0  0
 14 16  1  0  0  0  0
 14 17  1  0  0  0  0
 17 18  2  0  0  0  0
 17 19  1  0  0  0  0
 19 20  1  0  0  0  0
 21 22  2  0  0  0  0
 21 23  1  0  0  0  0
 23 24  1  0  0  0  0
 23 25  1  0  0  0  0
 25 26  1  0  0  0  0
 25 27  1  0  0  0  0
 25 28  1  0  0  0  0
M  END
$$$$

  -OEChem-01062216073D

 28 27  0     1  0  0  0  0  0999 V2000
   -3.5739   -2.8537    1.2631 H   0  0  0  0  0  0  0  0  0  0  0  0
   -3.4454   -1.8229    0.9198 C   0  0  0  0  0  0  0  0  0  0  0  0
   -3.7975   -1.1477    1.7036 H   0  0  0  0  0  0  0  0  0  0  0  0
   -4.0480   -1.6759    0.0203 H   0  0  0  0  0  0  0  0  0  0  0  0
   -1.9835   -1.5514    0.6168 C   0  0  0  0  0  0  0  0  0  0  0  0
   -1.2023   -2.4843    0.6259 O   0  0  0  0  0  0  0  0  0  0  0  0
   -1.6158   -0.2787    0.2136 N   0  0  0  0  0  0  0  0  0  0  0  0
   -2.3989    0.3684    0.2268 H   0  0  0  0  0  0  0  0  0  0  0  0
   -0.2793    0.3809    0.2531 C   0  0  1  0  0  0  0  0  0  0  0  0
   -0.3800    1.1935    0.9789 H   0  0  0  0  0  0  0  0  0  0  0  0
    0.9367   -0.4406    0.7596 C   0  0  0  0  0  0  0  0  0  0  0  0
    1.0310   -1.3521    0.1594 H   0  0  0  0  0  0  0  0  0  0  0  0
    1.8568    0.1344    0.6065 H   0  0  0  0  0  0  0  0  0  0  0  0
    0.8548   -0.7955    2.2648 C   0  0  0  0  0  0  0  0  0  0  0  0
    0.8278    0.1318    2.8424 H   0  0  0  0  0  0  0  0  0  0  0  0
   -0.0554   -1.3468    2.4966 H   0  0  0  0  0  0  0  0  0  0  0  0
    2.0364   -1.6252    2.7681 C   0  0  0  0  0  0  0  0  0  0  0  0
    2.8678   -2.0569    1.9863 O   0  0  0  0  0  0  0  0  0  0  0  0
    2.0992   -1.8300    4.1040 O   0  0  0  0  0  0  0  0  0  0  0  0
    2.8921   -2.3692    4.2448 H   0  0  0  0  0  0  0  0  0  0  0  0
    0.0296    1.1122   -1.0785 C   0  0  0  0  0  0  0  0  0  0  0  0
    1.1196    1.6330   -1.2710 O   0  0  0  0  0  0  0  0  0  0  0  0
   -0.9820    1.3611   -1.9901 N   0  0  0  0  0  0  0  0  0  0  0  0
   -1.8077    0.7783   -1.9006 H   0  0  0  0  0  0  0  0  0  0  0  0
   -0.7486    2.0433   -3.2586 C   0  0  0  0  0  0  0  0  0  0  0  0
   -0.0468    1.4733   -3.8766 H   0  0  0  0  0  0  0  0  0  0  0  0
   -1.6879    2.1526   -3.8090 H   0  0  0  0  0  0  0  0  0  0  0  0
   -0.3342    3.0424   -3.0865 H   0  0  0  0  0  0  0  0  0  0  0  0
  1  2  1  0  0  0  0
  2  3  1  0  0  0  0
  2  4  1  0  0  0  0
  2  5  1  0  0  0  0
  5  6  2  0  0  0  0
  5  7  1  0  0  0  0
  7  8  1  0  0  0  0
  7  9  1  0  0  0  0
  9 10  1  0  0  0  0
  9 11  1  0  0  0  0
  9 21  1  0  0  0  0
 11 12  1  0  0  0  0
 11 13  1  0  0  0  0
 11 14  1  0  0  0  0
 14 15  1  0  0  0  0
 14 16  1  0  0  0  0
 14 17  1  0  0  0  0
 17 18  2  0  0  0  0
 17 19  1  0  0  0  0
 19 20  1  0  0  0  0
 21 22  2  0  0  0  0
 21 23  1  0  0  0  0
 23 24  1  0  0  0  0
 23 25  1  0  0  0  0
 25 26  1  0  0  0  0
 25 27  1  0  0  0  0
 25 28  1  0  0  0  0
M  END
$$$$

  -OEChem-01062216073D

 28 27  0     1  0  0  0  0  0999 V2000
   -3.5715   -2.8643    1.1950 H   0  0  0  0  0  0  0  0  0  0  0  0
   -3.4365   -1.8221    0.8912 C   0  0  0  0  0  0  0  0  0  0  0  0
   -3.7877   -1.1751    1.6986 H   0  0  0  0  0  0  0  0  0  0  0  0
   -4.0352   -1.6380   -0.0040 H   0  0  0  0  0  0  0  0  0  0  0  0
   -1.9720   -1.5476    0.6032 C   0  0  0  0  0  0  0  0  0  0  0  0
   -1.1905   -2.4800    0.6242 O   0  0  0  0  0  0  0  0  0  0  0  0
   -1.6047   -0.2722    0.2068 N   0  0  0  0  0  0  0  0  0  0  0  0
   -2.3896    0.3709    0.2285 H   0  0  0  0  0  0  0  0  0  0  0  0
   -0.2670    0.3854    0.2466 C   0  0  1  0  0  0  0  0  0  0  0  0
   -0.3656    1.1967    0.9741 H   0  0  0  0  0  0  0  0  0  0  0  0
    0.9455   -0.4399    0.7585 C   0  0  0  0  0  0  0  0  0  0  0  0
    1.0407   -1.3515    0.1587 H   0  0  0  0  0  0  0  0  0  0  0  0
    1.8677    0.1329    0.6108 H   0  0  0  0  0  0  0  0  0  0  0  0
    0.8575   -0.7906    2.2646 C   0  0  0  0  0  0  0  0  0  0  0  0
    0.8312    0.1382    2.8402 H   0  0  0  0  0  0  0  0  0  0  0  0
   -0.0552   -1.3383    2.4951 H   0  0  0  0  0  0  0  0  0  0  0  0
    2.0339   -1.6237    2.7752 C   0  0  0  0  0  0  0  0  0  0  0  0
    2.8670   -2.0614    1.9987 O   0  0  0  0  0  0  0  0  0  0  0  0
    2.0866   -1.8300    4.1116 O   0  0  0  0  0  0  0  0  0  0  0  0
    2.8726   -2.3781    4.2564 H   0  0  0  0  0  0  0  0  0  0  0  0
    0.0313    1.1231   -1.0866 C   0  0  0  0  0  0  0  0  0  0  0  0
    1.1745    1.3990   -1.4233 O   0  0  0  0  0  0  0  0  0  0  0  0
   -1.0059    1.6484   -1.8395 N   0  0  0  0  0  0  0  0  0  0  0  0
   -1.9306    1.2824   -1.6463 H   0  0  0  0  0  0  0  0  0  0  0  0
   -0.7895    2.3509   -3.1004 C   0  0  0  0  0  0  0  0  0  0  0  0
   -0.3124    1.6892   -3.8312 H   0  0  0  0  0  0  0  0  0  0  0  0
   -1.7436    2.6933   -3.5123 H   0  0  0  0  0  0  0  0  0  0  0  0
   -0.1485    3.2258   -2.9479 H   0  0  0  0  0  0  0  0  0  0  0  0
  1  2  1  0  0  0  0
  2  3  1  0  0  0  0
  2  4  1  0  0  0  0
  2  5  1  0  0  0  0
  5  6  2  0  0  0  0
  5  7  1  0  0  0  0
  7  8  1  0  0  0  0
  7  9  1  0  0  0  0
  9 10  1  0  0  0  0
  9 11  1  0  0  0  0
  9 21  1  0  0  0  0
 11 12  1  0  0  0  0
 11 13  1  0  0  0  0
 11 14  1  0  0  0  0
 14 15  1  0  0  0  0
 14 16  1  0  0  0  0
 14 17  1  0  0  0  0
 17 18  2  0  0  0  0
 17 19  1  0  0  0  0
 19 20  1  0  0  0  0
 21 22  2  0  0  0  0
 21 23  1  0  0  0  0
 23 24  1  0  0  0  0
 23 25  1  0  0  0  0
 25 26  1  0  0  0  0
 25 27  1  0  0  0  0
 25 28  1  0  0  0  0
M  END
$$$$

  -OEChem-01062216073D

 28 27  0     1  0  0  0  0  0999 V2000
   -3.6358   -2.8441    1.1274 H   0  0  0  0  0  0  0  0  0  0  0  0
   -3.4756   -1.8153    0.7913 C   0  0  0  0  0  0  0  0  0  0  0  0
   -3.9029   -1.1355    1.5323 H   0  0  0  0  0  0  0  0  0  0  0  0
   -3.9876   -1.6746   -0.1637 H   0  0  0  0  0  0  0  0  0  0  0  0
   -1.9915   -1.5431    0.6288 C   0  0  0  0  0  0  0  0  0  0  0  0
   -1.2154   -2.4715    0.7548 O   0  0  0  0  0  0  0  0  0  0  0  0
   -1.5987   -0.2755    0.2316 N   0  0  0  0  0  0  0  0  0  0  0  0
   -2.3834    0.3546    0.1098 H   0  0  0  0  0  0  0  0  0  0  0  0
   -0.2535    0.3652    0.2484 C   0  0  1  0  0  0  0  0  0  0  0  0
   -0.3371    1.1797    0.9737 H   0  0  0  0  0  0  0  0  0  0  0  0
    0.9603   -0.4562    0.7602 C   0  0  0  0  0  0  0  0  0  0  0  0
    1.0389   -1.3805    0.1773 H   0  0  0  0  0  0  0  0  0  0  0  0
    1.8822    0.1096    0.5842 H   0  0  0  0  0  0  0  0  0  0  0  0
    0.8915   -0.7798    2.2741 C   0  0  0  0  0  0  0  0  0  0  0  0
    0.8811    0.1597    2.8323 H   0  0  0  0  0  0  0  0  0  0  0  0
   -0.0224   -1.3134    2.5305 H   0  0  0  0  0  0  0  0  0  0  0  0
    2.0702   -1.6096    2.7844 C   0  0  0  0  0  0  0  0  0  0  0  0
    2.8909   -2.0658    2.0057 O   0  0  0  0  0  0  0  0  0  0  0  0
    2.1420   -1.7875    4.1240 O   0  0  0  0  0  0  0  0  0  0  0  0
    2.9257   -2.3391    4.2684 H   0  0  0  0  0  0  0  0  0  0  0  0
    0.0255    1.0995   -1.0900 C   0  0  0  0  0  0  0  0  0  0  0  0
    1.1174    1.0550   -1.6390 O   0  0  0  0  0  0  0  0  0  0  0  0
   -0.9511    1.8991   -1.6618 N   0  0  0  0  0  0  0  0  0  0  0  0
   -1.8488    1.9576   -1.1972 H   0  0  0  0  0  0  0  0  0  0  0  0
   -0.7540    2.6357   -2.9060 C   0  0  0  0  0  0  0  0  0  0  0  0
   -0.5130    1.9485   -3.7243 H   0  0  0  0  0  0  0  0  0  0  0  0
   -1.6637    3.1826   -3.1717 H   0  0  0  0  0  0  0  0  0  0  0  0
    0.0639    3.3564   -2.7997 H   0  0  0  0  0  0  0  0  0  0  0  0
  1  2  1  0  0  0  0
  2  3  1  0  0  0  0
  2  4  1  0  0  0  0
  2  5  1  0  0  0  0
  5  6  2  0  0  0  0
  5  7  1  0  0  0  0
  7  8  1  0  0  0  0
  7  9  1  0  0  0  0
  9 10  1  0  0  0  0
  9 11  1  0  0  0  0
  9 21  1  0  0  0  0
 11 12  1  0  0  0  0
 11 13  1  0  0  0  0
 11 14  1  0  0  0  0
 14 15  1  0  0  0  0
 14 16  1  0  0  0  0
 14 17  1  0  0  0  0
 17 18  2  0  0  0  0
 17 19  1  0  0  0  0
 19 20  1  0  0  0  0
 21 22  2  0  0  0  0
 21 23  1  0  0  0  0
 23 24  1  0  0  0  0
 23 25  1  0  0  0  0
 25 26  1  0  0  0  0
 25 27  1  0  0  0  0
 25 28  1  0  0  0  0
M  END
$$$$

  -OEChem-01062216073D

 28 27  0     1  0  0  0  0  0999 V2000
   -3.7004   -2.7961    1.1320 H   0  0  0  0  0  0  0  0  0  0  0  0
   -3.5168   -1.8010    0.7164 C   0  0  0  0  0  0  0  0  0  0  0  0
   -4.0106   -1.0615    1.3512 H   0  0  0  0  0  0  0  0  0  0  0  0
   -3.9440   -1.7558   -0.2882 H   0  0  0  0  0  0  0  0  0  0  0  0
   -2.0256   -1.5257    0.6579 C   0  0  0  0  0  0  0  0  0  0  0  0
   -1.2599   -2.4461    0.8740 O   0  0  0  0  0  0  0  0  0  0  0  0
   -1.6099   -0.2675    0.2549 N   0  0  0  0  0  0  0  0  0  0  0  0
   -2.3769    0.3374   -0.0191 H   0  0  0  0  0  0  0  0  0  0  0  0
   -0.2597    0.3573    0.2584 C   0  0  1  0  0  0  0  0  0  0  0  0
   -0.3319    1.1746    0.9815 H   0  0  0  0  0  0  0  0  0  0  0  0
    0.9605   -0.4559    0.7618 C   0  0  0  0  0  0  0  0  0  0  0  0
    1.0260   -1.3872    0.1879 H   0  0  0  0  0  0  0  0  0  0  0  0
    1.8772    0.1091    0.5589 H   0  0  0  0  0  0  0  0  0  0  0  0
    0.9171   -0.7689    2.2790 C   0  0  0  0  0  0  0  0  0  0  0  0
    0.9155    0.1750    2.8296 H   0  0  0  0  0  0  0  0  0  0  0  0
    0.0089   -1.2997    2.5587 H   0  0  0  0  0  0  0  0  0  0  0  0
    2.1070   -1.5917    2.7742 C   0  0  0  0  0  0  0  0  0  0  0  0
    2.9155   -2.0505    1.9841 O   0  0  0  0  0  0  0  0  0  0  0  0
    2.2064   -1.7555    4.1138 O   0  0  0  0  0  0  0  0  0  0  0  0
    2.9945   -2.3035    4.2481 H   0  0  0  0  0  0  0  0  0  0  0  0
    0.0056    1.0778   -1.0858 C   0  0  0  0  0  0  0  0  0  0  0  0
    0.9500    0.7854   -1.8053 O   0  0  0  0  0  0  0  0  0  0  0  0
   -0.8301    2.1081   -1.4843 N   0  0  0  0  0  0  0  0  0  0  0  0
   -1.5400    2.4188   -0.8303 H   0  0  0  0  0  0  0  0  0  0  0  0
   -0.6116    2.8823   -2.7017 C   0  0  0  0  0  0  0  0  0  0  0  0
   -0.6102    2.2262   -3.5788 H   0  0  0  0  0  0  0  0  0  0  0  0
   -1.4069    3.6233   -2.8279 H   0  0  0  0  0  0  0  0  0  0  0  0
    0.3479    3.4081   -2.6547 H   0  0  0  0  0  0  0  0  0  0  0  0
  1  2  1  0  0  0  0
  2  3  1  0  0  0  0
  2  4  1  0  0  0  0
  2  5  1  0  0  0  0
  5  6  2  0  0  0  0
  5  7  1  0  0  0  0
  7  8  1  0  0  0  0
  7  9  1  0  0  0  0
  9 10  1  0  0  0  0
  9 11  1  0  0  0  0
  9 21  1  0  0  0  0
 11 12  1  0  0  0  0
 11 13  1  0  0  0  0
 11 14  1  0  0  0  0
 14 15  1  0  0  0  0
 14 16  1  0  0  0  0
 14 17  1  0  0  0  0
 17 18  2  0  0  0  0
 17 19  1  0  0  0  0
 19 20  1  0  0  0  0
 21 22  2  0  0  0  0
 21 23  1  0  0  0  0
 23 24  1  0  0  0  0
 23 25  1  0  0  0  0
 25 26  1  0  0  0  0
 25 27  1  0  0  0  0
 25 28  1  0  0  0  0
M  END
$$$$

  -OEChem-01062216073D

 28 27  0     1  0  0  0  0  0999 V2000
   -3.7213   -2.7832    1.1079 H   0  0  0  0  0  0  0  0  0  0  0  0
   -3.5309   -1.7898    0.6911 C   0  0  0  0  0  0  0  0  0  0  0  0
   -4.0417   -1.0482    1.3095 H   0  0  0  0  0  0  0  0  0  0  0  0
   -3.9345   -1.7517   -0.3236 H   0  0  0  0  0  0  0  0  0  0  0  0
   -2.0395   -1.5101    0.6667 C   0  0  0  0  0  0  0  0  0  0  0  0
   -1.2775   -2.4269    0.9101 O   0  0  0  0  0  0  0  0  0  0  0  0
   -1.6189   -0.2525    0.2671 N   0  0  0  0  0  0  0  0  0  0  0  0
   -2.3793    0.3449   -0.0421 H   0  0  0  0  0  0  0  0  0  0  0  0
   -0.2693    0.3710    0.2734 C   0  0  1  0  0  0  0  0  0  0  0  0
   -0.3407    1.1824    1.0030 H   0  0  0  0  0  0  0  0  0  0  0  0
    0.9561   -0.4386    0.7650 C   0  0  0  0  0  0  0  0  0  0  0  0
    1.0181   -1.3673    0.1861 H   0  0  0  0  0  0  0  0  0  0  0  0
    1.8685    0.1305    0.5535 H   0  0  0  0  0  0  0  0  0  0  0  0
    0.9256   -0.7648    2.2801 C   0  0  0  0  0  0  0  0  0  0  0  0
    0.9246    0.1748    2.8377 H   0  0  0  0  0  0  0  0  0  0  0  0
    0.0227   -1.3011    2.5646 H   0  0  0  0  0  0  0  0  0  0  0  0
    2.1236   -1.5850    2.7596 C   0  0  0  0  0  0  0  0  0  0  0  0
    2.9284   -2.0320    1.9590 O   0  0  0  0  0  0  0  0  0  0  0  0
    2.2352   -1.7589    4.0969 O   0  0  0  0  0  0  0  0  0  0  0  0
    3.0257   -2.3059    4.2203 H   0  0  0  0  0  0  0  0  0  0  0  0
   -0.0035    1.0917   -1.0679 C   0  0  0  0  0  0  0  0  0  0  0  0
    0.7509    0.6281   -1.9105 O   0  0  0  0  0  0  0  0  0  0  0  0
   -0.6221    2.3032   -1.3269 N   0  0  0  0  0  0  0  0  0  0  0  0
   -1.1763    2.7191   -0.5855 H   0  0  0  0  0  0  0  0  0  0  0  0
   -0.3832    3.0731   -2.5431 C   0  0  0  0  0  0  0  0  0  0  0  0
   -0.6320    2.4784   -3.4287 H   0  0  0  0  0  0  0  0  0  0  0  0
   -1.0028    3.9750   -2.5494 H   0  0  0  0  0  0  0  0  0  0  0  0
    0.6681    3.3739   -2.6059 H   0  0  0  0  0  0  0  0  0  0  0  0
  1  2  1  0  0  0  0
  2  3  1  0  0  0  0
  2  4  1  0  0  0  0
  2  5  1  0  0  0  0
  5  6  2  0  0  0  0
  5  7  1  0  0  0  0
  7  8  1  0  0  0  0
  7  9  1  0  0  0  0
  9 10  1  0  0  0  0
  9 11  1  0  0  0  0
  9 21  1  0  0  0  0
 11 12  1  0  0  0  0
 11 13  1  0  0  0  0
 11 14  1  0  0  0  0
 14 15  1  0  0  0  0
 14 16  1  0  0  0  0
 14 17  1  0  0  0  0
 17 18  2  0  0  0  0
 17 19  1  0  0  0  0
 19 20  1  0  0  0  0
 21 22  2  0  0  0  0
 21 23  1  0  0  0  0
 23 24  1  0  0  0  0
 23 25  1  0  0  0  0
 25 26  1  0  0  0  0
 25 27  1  0  0  0  0
 25 28  1  0  0  0  0
M  END
$$$$

  -OEChem-01062216073D

 28 27  0     1  0  0  0  0  0999 V2000
   -3.7372   -2.7831    1.0752 H   0  0  0  0  0  0  0  0  0  0  0  0
   -3.5434   -1.7859    0.6691 C   0  0  0  0  0  0  0  0  0  0  0  0
   -4.0751   -1.0514    1.2784 H   0  0  0  0  0  0  0  0  0  0  0  0
   -3.9212   -1.7446   -0.3555 H   0  0  0  0  0  0  0  0  0  0  0  0
   -2.0540   -1.4959    0.6831 C   0  0  0  0  0  0  0  0  0  0  0  0
   -1.2938   -2.4071    0.9513 O   0  0  0  0  0  0  0  0  0  0  0  0
   -1.6314   -0.2385    0.2855 N   0  0  0  0  0  0  0  0  0  0  0  0
   -2.3859    0.3504   -0.0537 H   0  0  0  0  0  0  0  0  0  0  0  0
   -0.2825    0.3847    0.2916 C   0  0  1  0  0  0  0  0  0  0  0  0
   -0.3567    1.1894    1.0282 H   0  0  0  0  0  0  0  0  0  0  0  0
    0.9494   -0.4206    0.7705 C   0  0  0  0  0  0  0  0  0  0  0  0
    1.0087   -1.3460    0.1862 H   0  0  0  0  0  0  0  0  0  0  0  0
    1.8573    0.1531    0.5529 H   0  0  0  0  0  0  0  0  0  0  0  0
    0.9346   -0.7591    2.2835 C   0  0  0  0  0  0  0  0  0  0  0  0
    0.9339    0.1764    2.8480 H   0  0  0  0  0  0  0  0  0  0  0  0
    0.0379   -1.3016    2.5750 H   0  0  0  0  0  0  0  0  0  0  0  0
    2.1423   -1.5756    2.7445 C   0  0  0  0  0  0  0  0  0  0  0  0
    2.9419   -2.0106    1.9319 O   0  0  0  0  0  0  0  0  0  0  0  0
    2.2664   -1.7633    4.0788 O   0  0  0  0  0  0  0  0  0  0  0  0
    3.0574   -2.3121    4.1896 H   0  0  0  0  0  0  0  0  0  0  0  0
   -0.0116    1.1086   -1.0458 C   0  0  0  0  0  0  0  0  0  0  0  0
    0.4892    0.5234   -1.9946 O   0  0  0  0  0  0  0  0  0  0  0  0
   -0.3574    2.4409   -1.1945 N   0  0  0  0  0  0  0  0  0  0  0  0
   -0.7175    2.9307   -0.3816 H   0  0  0  0  0  0  0  0  0  0  0  0
   -0.0904    3.1996   -2.4119 C   0  0  0  0  0  0  0  0  0  0  0  0
   -0.5784    2.7290   -3.2723 H   0  0  0  0  0  0  0  0  0  0  0  0
   -0.4729    4.2202   -2.3150 H   0  0  0  0  0  0  0  0  0  0  0  0
    0.9868    3.2503   -2.6034 H   0  0  0  0  0  0  0  0  0  0  0  0
  1  2  1  0  0  0  0
  2  3  1  0  0  0  0
  2  4  1  0  0  0  0
  2  5  1  0  0  0  0
  5  6  2  0  0  0  0
  5  7  1  0  0  0  0
  7  8  1  0  0  0  0
  7  9  1  0  0  0  0
  9 10  1  0  0  0  0
  9 11  1  0  0  0  0
  9 21  1  0  0  0  0
 11 12  1  0  0  0  0
 11 13  1  0  0  0  0
 11 14  1  0  0  0  0
 14 15  1  0  0  0  0
 14 16  1  0  0  0  0
 14 17  1  0  0  0  0
 17 18  2  0  0  0  0
 17 19  1  0  0  0  0
 19 20  1  0  0  0  0
 21 22  2  0  0  0  0
 21 23  1  0  0  0  0
 23 24  1  0  0  0  0
 23 25  1  0  0  0  0
 25 26  1  0  0  0  0
 25 27  1  0  0  0  0
 25 28  1  0  0  0  0
M  END
$$$$

  -OEChem-01062216073D

 28 27  0     1  0  0  0  0  0999 V2000
   -3.7531   -2.7752    1.0406 H   0  0  0  0  0  0  0  0  0  0  0  0
   -3.5520   -1.7776    0.6396 C   0  0  0  0  0  0  0  0  0  0  0  0
   -4.0993   -1.0441    1.2362 H   0  0  0  0  0  0  0  0  0  0  0  0
   -3.9057   -1.7366   -0.3934 H   0  0  0  0  0  0  0  0  0  0  0  0
   -2.0640   -1.4837    0.6890 C   0  0  0  0  0  0  0  0  0  0  0  0
   -1.3081   -2.3910    0.9824 O   0  0  0  0  0  0  0  0  0  0  0  0
   -1.6358   -0.2267    0.2977 N   0  0  0  0  0  0  0  0  0  0  0  0
   -2.3789    0.3504   -0.0851 H   0  0  0  0  0  0  0  0  0  0  0  0
   -0.2861    0.3929    0.3084 C   0  0  1  0  0  0  0  0  0  0  0  0
   -0.3669    1.1921    1.0503 H   0  0  0  0  0  0  0  0  0  0  0  0
    0.9490   -0.4092    0.7810 C   0  0  0  0  0  0  0  0  0  0  0  0
    1.0071   -1.3320    0.1919 H   0  0  0  0  0  0  0  0  0  0  0  0
    1.8545    0.1681    0.5635 H   0  0  0  0  0  0  0  0  0  0  0  0
    0.9424   -0.7573    2.2919 C   0  0  0  0  0  0  0  0  0  0  0  0
    0.9401    0.1746    2.8625 H   0  0  0  0  0  0  0  0  0  0  0  0
    0.0502   -1.3053    2.5856 H   0  0  0  0  0  0  0  0  0  0  0  0
    2.1569   -1.5710    2.7404 C   0  0  0  0  0  0  0  0  0  0  0  0
    2.9533   -1.9956    1.9191 O   0  0  0  0  0  0  0  0  0  0  0  0
    2.2937   -1.7636    4.0727 O   0  0  0  0  0  0  0  0  0  0  0  0
    3.0896   -2.3070    4.1750 H   0  0  0  0  0  0  0  0  0  0  0  0
   -0.0052    1.1228   -1.0231 C   0  0  0  0  0  0  0  0  0  0  0  0
    0.1805    0.4949   -2.0550 O   0  0  0  0  0  0  0  0  0  0  0  0
   -0.0457    2.5051   -1.0850 N   0  0  0  0  0  0  0  0  0  0  0  0
   -0.1617    3.0153   -0.2150 H   0  0  0  0  0  0  0  0  0  0  0  0
    0.2225    3.2535   -2.3085 C   0  0  0  0  0  0  0  0  0  0  0  0
   -0.4728    2.9563   -3.1009 H   0  0  0  0  0  0  0  0  0  0  0  0
    0.1031    4.3267   -2.1309 H   0  0  0  0  0  0  0  0  0  0  0  0
    1.2461    3.0706   -2.6528 H   0  0  0  0  0  0  0  0  0  0  0  0
  1  2  1  0  0  0  0
  2  3  1  0  0  0  0
  2  4  1  0  0  0  0
  2  5  1  0  0  0  0
  5  6  2  0  0  0  0
  5  7  1  0  0  0  0
  7  8  1  0  0  0  0
  7  9  1  0  0  0  0
  9 10  1  0  0  0  0
  9 11  1  0  0  0  0
  9 21  1  0  0  0  0
 11 12  1  0  0  0  0
 11 13  1  0  0  0  0
 11 14  1  0  0  0  0
 14 15  1  0  0  0  0
 14 16  1  0  0  0  0
 14 17  1  0  0  0  0
 17 18  2  0  0  0  0
 17 19  1  0  0  0  0
 19 20  1  0  0  0  0
 21 22  2  0  0  0  0
 21 23  1  0  0  0  0
 23 24  1  0  0  0  0
 23 25  1  0  0  0  0
 25 26  1  0  0  0  0
 25 27  1  0  0  0  0
 25 28  1  0  0  0  0
M  END
$$$$

  -OEChem-01062216073D

 28 27  0     1  0  0  0  0  0999 V2000
   -3.7707   -2.7646    0.9879 H   0  0  0  0  0  0  0  0  0  0  0  0
   -3.5581   -1.7623    0.6048 C   0  0  0  0  0  0  0  0  0  0  0  0
   -4.1260   -1.0356    1.1904 H   0  0  0  0  0  0  0  0  0  0  0  0
   -3.8767   -1.7105   -0.4392 H   0  0  0  0  0  0  0  0  0  0  0  0
   -2.0733   -1.4661    0.7070 C   0  0  0  0  0  0  0  0  0  0  0  0
   -1.3275   -2.3692    1.0373 O   0  0  0  0  0  0  0  0  0  0  0  0
   -1.6338   -0.2135    0.3160 N   0  0  0  0  0  0  0  0  0  0  0  0
   -2.3564    0.3437   -0.1311 H   0  0  0  0  0  0  0  0  0  0  0  0
   -0.2798    0.3948    0.3219 C   0  0  1  0  0  0  0  0  0  0  0  0
   -0.3602    1.1955    1.0625 H   0  0  0  0  0  0  0  0  0  0  0  0
    0.9542   -0.4093    0.7923 C   0  0  0  0  0  0  0  0  0  0  0  0
    1.0043   -1.3344    0.2061 H   0  0  0  0  0  0  0  0  0  0  0  0
    1.8608    0.1633    0.5681 H   0  0  0  0  0  0  0  0  0  0  0  0
    0.9578   -0.7543    2.3041 C   0  0  0  0  0  0  0  0  0  0  0  0
    0.9629    0.1786    2.8730 H   0  0  0  0  0  0  0  0  0  0  0  0
    0.0667   -1.2988    2.6072 H   0  0  0  0  0  0  0  0  0  0  0  0
    2.1742   -1.5703    2.7433 C   0  0  0  0  0  0  0  0  0  0  0  0
    2.9618   -1.9971    1.9147 O   0  0  0  0  0  0  0  0  0  0  0  0
    2.3226   -1.7628    4.0742 O   0  0  0  0  0  0  0  0  0  0  0  0
    3.1152   -2.3121    4.1699 H   0  0  0  0  0  0  0  0  0  0  0  0
    0.0053    1.1250   -1.0089 C   0  0  0  0  0  0  0  0  0  0  0  0
   -0.1441    0.5530   -2.0792 O   0  0  0  0  0  0  0  0  0  0  0  0
    0.2846    2.4805   -1.0153 N   0  0  0  0  0  0  0  0  0  0  0  0
    0.4240    2.9390   -0.1202 H   0  0  0  0  0  0  0  0  0  0  0  0
    0.5342    3.2359   -2.2380 C   0  0  0  0  0  0  0  0  0  0  0  0
   -0.3251    3.1684   -2.9138 H   0  0  0  0  0  0  0  0  0  0  0  0
    0.7052    4.2910   -2.0036 H   0  0  0  0  0  0  0  0  0  0  0  0
    1.4185    2.8474   -2.7542 H   0  0  0  0  0  0  0  0  0  0  0  0
  1  2  1  0  0  0  0
  2  3  1  0  0  0  0
  2  4  1  0  0  0  0
  2  5  1  0  0  0  0
  5  6  2  0  0  0  0
  5  7  1  0  0  0  0
  7  8  1  0  0  0  0
  7  9  1  0  0  0  0
  9 10  1  0  0  0  0
  9 11  1  0  0  0  0
  9 21  1  0  0  0  0
 11 12  1  0  0  0  0
 11 13  1  0  0  0  0
 11 14  1  0  0  0  0
 14 15  1  0  0  0  0
 14 16  1  0  0  0  0
 14 17  1  0  0  0  0
 17 18  2  0  0  0  0
 17 19  1  0  0  0  0
 19 20  1  0  0  0  0
 21 22  2  0  0  0  0
 21 23  1  0  0  0  0
 23 24  1  0  0  0  0
 23 25  1  0  0  0  0
 25 26  1  0  0  0  0
 25 27  1  0  0  0  0
 25 28  1  0  0  0  0
M  END
$$$$

  -OEChem-01062216073D

 28 27  0     1  0  0  0  0  0999 V2000
   -3.7751   -2.7616    0.9402 H   0  0  0  0  0  0  0  0  0  0  0  0
   -3.5556   -1.7524    0.5800 C   0  0  0  0  0  0  0  0  0  0  0  0
   -4.1379   -1.0366    1.1651 H   0  0  0  0  0  0  0  0  0  0  0  0
   -3.8510   -1.6825   -0.4699 H   0  0  0  0  0  0  0  0  0  0  0  0
   -2.0740   -1.4555    0.7205 C   0  0  0  0  0  0  0  0  0  0  0  0
   -1.3363   -2.3572    1.0732 O   0  0  0  0  0  0  0  0  0  0  0  0
   -1.6239   -0.2070    0.3301 N   0  0  0  0  0  0  0  0  0  0  0  0
   -2.3249    0.3319   -0.1725 H   0  0  0  0  0  0  0  0  0  0  0  0
   -0.2646    0.3885    0.3255 C   0  0  1  0  0  0  0  0  0  0  0  0
   -0.3390    1.1937    1.0619 H   0  0  0  0  0  0  0  0  0  0  0  0
    0.9646   -0.4220    0.7983 C   0  0  0  0  0  0  0  0  0  0  0  0
    1.0031   -1.3540    0.2223 H   0  0  0  0  0  0  0  0  0  0  0  0
    1.8767    0.1382    0.5662 H   0  0  0  0  0  0  0  0  0  0  0  0
    0.9692   -0.7519    2.3134 C   0  0  0  0  0  0  0  0  0  0  0  0
    0.9837    0.1863    2.8733 H   0  0  0  0  0  0  0  0  0  0  0  0
    0.0741   -1.2850    2.6248 H   0  0  0  0  0  0  0  0  0  0  0  0
    2.1794   -1.5741    2.7578 C   0  0  0  0  0  0  0  0  0  0  0  0
    2.9610   -2.0162    1.9312 O   0  0  0  0  0  0  0  0  0  0  0  0
    2.3316   -1.7503    4.0906 O   0  0  0  0  0  0  0  0  0  0  0  0
    3.1217   -2.3022    4.1916 H   0  0  0  0  0  0  0  0  0  0  0  0
    0.0182    1.1213   -1.0053 C   0  0  0  0  0  0  0  0  0  0  0  0
   -0.4458    0.7026   -2.0576 O   0  0  0  0  0  0  0  0  0  0  0  0
    0.6073    2.3737   -0.9976 N   0  0  0  0  0  0  0  0  0  0  0  0
    0.9860    2.7124   -0.1183 H   0  0  0  0  0  0  0  0  0  0  0  0
    0.8335    3.1561   -2.2080 C   0  0  0  0  0  0  0  0  0  0  0  0
   -0.1164    3.3719   -2.7085 H   0  0  0  0  0  0  0  0  0  0  0  0
    1.3161    4.1066   -1.9608 H   0  0  0  0  0  0  0  0  0  0  0  0
    1.4806    2.6095   -2.9021 H   0  0  0  0  0  0  0  0  0  0  0  0
  1  2  1  0  0  0  0
  2  3  1  0  0  0  0
  2  4  1  0  0  0  0
  2  5  1  0  0  0  0
  5  6  2  0  0  0  0
  5  7  1  0  0  0  0
  7  8  1  0  0  0  0
  7  9  1  0  0  0  0
  9 10  1  0  0  0  0
  9 11  1  0  0  0  0
  9 21  1  0  0  0  0
 11 12  1  0  0  0  0
 11 13  1  0  0  0  0
 11 14  1  0  0  0  0
 14 15  1  0  0  0  0
 14 16  1  0  0  0  0
 14 17  1  0  0  0  0
 17 18  2  0  0  0  0
 17 19  1  0  0  0  0
 19 20  1  0  0  0  0
 21 22  2  0  0  0  0
 21 23  1  0  0  0  0
 23 24  1  0  0  0  0
 23 25  1  0  0  0  0
 25 26  1  0  0  0  0
 25 27  1  0  0  0  0
 25 28  1  0  0  0  0
M  END
$$$$

  -OEChem-01062216073D

 28 27  0     1  0  0  0  0  0999 V2000
   -3.7693   -2.7543    0.9456 H   0  0  0  0  0  0  0  0  0  0  0  0
   -3.5471   -1.7461    0.5845 C   0  0  0  0  0  0  0  0  0  0  0  0
   -4.1262   -1.0283    1.1703 H   0  0  0  0  0  0  0  0  0  0  0  0
   -3.8440   -1.6750   -0.4649 H   0  0  0  0  0  0  0  0  0  0  0  0
   -2.0646   -1.4538    0.7227 C   0  0  0  0  0  0  0  0  0  0  0  0
   -1.3275   -2.3592    1.0675 O   0  0  0  0  0  0  0  0  0  0  0  0
   -1.6121   -0.2056    0.3351 N   0  0  0  0  0  0  0  0  0  0  0  0
   -2.3047    0.3277   -0.1866 H   0  0  0  0  0  0  0  0  0  0  0  0
   -0.2534    0.3908    0.3295 C   0  0  1  0  0  0  0  0  0  0  0  0
   -0.3255    1.1988    1.0633 H   0  0  0  0  0  0  0  0  0  0  0  0
    0.9715   -0.4269    0.8041 C   0  0  0  0  0  0  0  0  0  0  0  0
    1.0053   -1.3592    0.2285 H   0  0  0  0  0  0  0  0  0  0  0  0
    1.8887    0.1257    0.5755 H   0  0  0  0  0  0  0  0  0  0  0  0
    0.9703   -0.7568    2.3193 C   0  0  0  0  0  0  0  0  0  0  0  0
    0.9895    0.1817    2.8786 H   0  0  0  0  0  0  0  0  0  0  0  0
    0.0710   -1.2839    2.6290 H   0  0  0  0  0  0  0  0  0  0  0  0
    2.1749   -1.5858    2.7668 C   0  0  0  0  0  0  0  0  0  0  0  0
    2.9554   -2.0316    1.9411 O   0  0  0  0  0  0  0  0  0  0  0  0
    2.3218   -1.7667    4.0996 O   0  0  0  0  0  0  0  0  0  0  0  0
    3.1061   -2.3266    4.2023 H   0  0  0  0  0  0  0  0  0  0  0  0
    0.0255    1.1265   -1.0017 C   0  0  0  0  0  0  0  0  0  0  0  0
   -0.6483    0.8897   -1.9969 O   0  0  0  0  0  0  0  0  0  0  0  0
    0.8771    2.2171   -1.0290 N   0  0  0  0  0  0  0  0  0  0  0  0
    1.4209    2.4128   -0.1939 H   0  0  0  0  0  0  0  0  0  0  0  0
    1.1234    3.0075   -2.2301 C   0  0  0  0  0  0  0  0  0  0  0  0
    0.1944    3.4674   -2.5837 H   0  0  0  0  0  0  0  0  0  0  0  0
    1.8437    3.8038   -2.0191 H   0  0  0  0  0  0  0  0  0  0  0  0
    1.5297    2.3764   -3.0277 H   0  0  0  0  0  0  0  0  0  0  0  0
  1  2  1  0  0  0  0
  2  3  1  0  0  0  0
  2  4  1  0  0  0  0
  2  5  1  0  0  0  0
  5  6  2  0  0  0  0
  5  7  1  0  0  0  0
  7  8  1  0  0  0  0
  7  9  1  0  0  0  0
  9 10  1  0  0  0  0
  9 11  1  0  0  0  0
  9 21  1  0  0  0  0
 11 12  1  0  0  0  0
 11 13  1  0  0  0  0
 11 14  1  0  0  0  0
 14 15  1  0  0  0  0
 14 16  1  0  0  0  0
 14 17  1  0  0  0  0
 17 18  2  0  0  0  0
 17 19  1  0  0  0  0
 19 20  1  0  0  0  0
 21 22  2  0  0  0  0
 21 23  1  0  0  0  0
 23 24  1  0  0  0  0
 23 25  1  0  0  0  0
 25 26  1  0  0  0  0
 25 27  1  0  0  0  0
 25 28  1  0  0  0  0
M  END
$$$$

  -OEChem-01062216073D

 28 27  0     1  0  0  0  0  0999 V2000
   -3.7607   -2.7474    0.9420 H   0  0  0  0  0  0  0  0  0  0  0  0
   -3.5359   -1.7379    0.5860 C   0  0  0  0  0  0  0  0  0  0  0  0
   -4.1092   -1.0214    1.1789 H   0  0  0  0  0  0  0  0  0  0  0  0
   -3.8374   -1.6585   -0.4614 H   0  0  0  0  0  0  0  0  0  0  0  0
   -2.0515   -1.4526    0.7191 C   0  0  0  0  0  0  0  0  0  0  0  0
   -1.3147   -2.3653    1.0456 O   0  0  0  0  0  0  0  0  0  0  0  0
   -1.5945   -0.2034    0.3407 N   0  0  0  0  0  0  0  0  0  0  0  0
   -2.2862    0.3410   -0.1720 H   0  0  0  0  0  0  0  0  0  0  0  0
   -0.2370    0.3954    0.3404 C   0  0  1  0  0  0  0  0  0  0  0  0
   -0.3054    1.2038    1.0743 H   0  0  0  0  0  0  0  0  0  0  0  0
    0.9811   -0.4333    0.8177 C   0  0  0  0  0  0  0  0  0  0  0  0
    1.0125   -1.3631    0.2378 H   0  0  0  0  0  0  0  0  0  0  0  0
    1.9057    0.1108    0.6014 H   0  0  0  0  0  0  0  0  0  0  0  0
    0.9672   -0.7695    2.3315 C   0  0  0  0  0  0  0  0  0  0  0  0
    0.9882    0.1660    2.8957 H   0  0  0  0  0  0  0  0  0  0  0  0
    0.0623   -1.2923    2.6325 H   0  0  0  0  0  0  0  0  0  0  0  0
    2.1639   -1.6085    2.7815 C   0  0  0  0  0  0  0  0  0  0  0  0
    2.9461   -2.0549    1.9574 O   0  0  0  0  0  0  0  0  0  0  0  0
    2.3034   -1.7963    4.1139 O   0  0  0  0  0  0  0  0  0  0  0  0
    3.0837   -2.3615    4.2184 H   0  0  0  0  0  0  0  0  0  0  0  0
    0.0342    1.1375   -0.9911 C   0  0  0  0  0  0  0  0  0  0  0  0
   -0.7873    1.0975   -1.9002 O   0  0  0  0  0  0  0  0  0  0  0  0
    1.0935    2.0211   -1.1027 N   0  0  0  0  0  0  0  0  0  0  0  0
    1.7659    2.0495   -0.3420 H   0  0  0  0  0  0  0  0  0  0  0  0
    1.3619    2.7986   -2.3073 C   0  0  0  0  0  0  0  0  0  0  0  0
    0.5191    3.4605   -2.5328 H   0  0  0  0  0  0  0  0  0  0  0  0
    2.2564    3.4138   -2.1698 H   0  0  0  0  0  0  0  0  0  0  0  0
    1.5265    2.1347   -3.1626 H   0  0  0  0  0  0  0  0  0  0  0  0
  1  2  1  0  0  0  0
  2  3  1  0  0  0  0
  2  4  1  0  0  0  0
  2  5  1  0  0  0  0
  5  6  2  0  0  0  0
  5  7  1  0  0  0  0
  7  8  1  0  0  0  0
  7  9  1  0  0  0  0
  9 10  1  0  0  0  0
  9 11  1  0  0  0  0
  9 21  1  0  0  0  0
 11 12  1  0  0  0  0
 11 13  1  0  0  0  0
 11 14  1  0  0  0  0
 14 15  1  0  0  0  0
 14 16  1  0  0  0  0
 14 17  1  0  0  0  0
 17 18  2  0  0  0  0
 17 19  1  0  0  0  0
 19 20  1  0  0  0  0
 21 22  2  0  0  0  0
 21 23  1  0  0  0  0
 23 24  1  0  0  0  0
 23 25  1  0  0  0  0
 25 26  1  0  0  0  0
 25 27  1  0  0  0  0
 25 28  1  0  0  0  0
M  END
$$$$

  -OEChem-01062216073D

 28 27  0     1  0  0  0  0  0999 V2000
   -3.5917   -1.6051    1.8750 H   0  0  0  0  0  0  0  0  0  0  0  0
   -2.5150   -1.7091    1.7184 C   0  0  0  0  0  0  0  0  0  0  0  0
   -1.9999   -1.0147    2.3859 H   0  0  0  0  0  0  0  0  0  0  0  0
   -2.2193   -2.7321    1.9645 H   0  0  0  0  0  0  0  0  0  0  0  0
   -2.1836   -1.4051    0.2656 C   0  0  0  0  0  0  0  0  0  0  0  0
   -2.6985   -2.0781   -0.6065 O   0  0  0  0  0  0  0  0  0  0  0  0
   -1.7641   -0.1583   -0.1221 N   0  0  0  0  0  0  0  0  0  0  0  0
   -2.0406    0.0088   -1.0943 H   0  0  0  0  0  0  0  0  0  0  0  0
   -0.5027    0.5413    0.2115 C   0  0  1  0  0  0  0  0  0  0  0  0
   -0.6563    1.1465    1.1100 H   0  0  0  0  0  0  0  0  0  0  0  0
    0.7625   -0.3541    0.3964 C   0  0  0  0  0  0  0  0  0  0  0  0
    0.8832   -0.9454   -0.5198 H   0  0  0  0  0  0  0  0  0  0  0  0
    1.6454    0.2868    0.4858 H   0  0  0  0  0  0  0  0  0  0  0  0
    0.8009   -1.3171    1.6025 C   0  0  0  0  0  0  0  0  0  0  0  0
   -0.0062   -2.0392    1.5396 H   0  0  0  0  0  0  0  0  0  0  0  0
    0.6916   -0.7515    2.5318 H   0  0  0  0  0  0  0  0  0  0  0  0
    2.0770   -2.1587    1.6752 C   0  0  0  0  0  0  0  0  0  0  0  0
    2.8853   -2.1252    0.7623 O   0  0  0  0  0  0  0  0  0  0  0  0
    2.2381   -2.9144    2.7846 O   0  0  0  0  0  0  0  0  0  0  0  0
    3.0754   -3.3888    2.6650 H   0  0  0  0  0  0  0  0  0  0  0  0
   -0.1557    1.4884   -0.9754 C   0  0  0  0  0  0  0  0  0  0  0  0
   -0.8896    1.5473   -1.9551 O   0  0  0  0  0  0  0  0  0  0  0  0
    0.9755    2.2881   -0.9640 N   0  0  0  0  0  0  0  0  0  0  0  0
    1.5915    2.2288   -0.1594 H   0  0  0  0  0  0  0  0  0  0  0  0
    1.3456    3.1677   -2.0678 C   0  0  0  0  0  0  0  0  0  0  0  0
    0.5641    3.9152   -2.2414 H   0  0  0  0  0  0  0  0  0  0  0  0
    2.2788    3.6912   -1.8389 H   0  0  0  0  0  0  0  0  0  0  0  0
    1.4904    2.5900   -2.9870 H   0  0  0  0  0  0  0  0  0  0  0  0
  1  2  1  0  0  0  0
  2  3  1  0  0  0  0
  2  4  1  0  0  0  0
  2  5  1  0  0  0  0
  5  6  2  0  0  0  0
  5  7  1  0  0  0  0
  7  8  1  0  0  0  0
  7  9  1  0  0  0  0
  9 10  1  0  0  0  0
  9 11  1  0  0  0  0
  9 21  1  0  0  0  0
 11 12  1  0  0  0  0
 11 13  1  0  0  0  0
 11 14  1  0  0  0  0
 14 15  1  0  0  0  0
 14 16  1  0  0  0  0
 14 17  1  0  0  0  0
 17 18  2  0  0  0  0
 17 19  1  0  0  0  0
 19 20  1  0  0  0  0
 21 22  2  0  0  0  0
 21 23  1  0  0  0  0
 23 24  1  0  0  0  0
 23 25  1  0  0  0  0
 25 26  1  0  0  0  0
 25 27  1  0  0  0  0
 25 28  1  0  0  0  0
M  END
$$$$

  -OEChem-01062216073D

 28 27  0     1  0  0  0  0  0999 V2000
   -3.2518   -2.7873    1.3908 H   0  0  0  0  0  0  0  0  0  0  0  0
   -2.3423   -2.1866    1.2985 C   0  0  0  0  0  0  0  0  0  0  0  0
   -2.0946   -1.8059    2.2913 H   0  0  0  0  0  0  0  0  0  0  0  0
   -1.5526   -2.8350    0.9139 H   0  0  0  0  0  0  0  0  0  0  0  0
   -2.5851   -1.0364    0.3431 C   0  0  0  0  0  0  0  0  0  0  0  0
   -3.6652   -0.9950   -0.2161 O   0  0  0  0  0  0  0  0  0  0  0  0
   -1.8164    0.0702    0.0497 N   0  0  0  0  0  0  0  0  0  0  0  0
   -2.3320    0.6464   -0.6227 H   0  0  0  0  0  0  0  0  0  0  0  0
   -0.4261    0.5672    0.2351 C   0  0  1  0  0  0  0  0  0  0  0  0
   -0.4597    1.2204    1.1125 H   0  0  0  0  0  0  0  0  0  0  0  0
    0.7846   -0.3854    0.4762 C   0  0  0  0  0  0  0  0  0  0  0  0
    0.8066   -1.0981   -0.3566 H   0  0  0  0  0  0  0  0  0  0  0  0
    1.7110    0.1943    0.4363 H   0  0  0  0  0  0  0  0  0  0  0  0
    0.8470   -1.1740    1.8006 C   0  0  0  0  0  0  0  0  0  0  0  0
   -0.0083   -1.8096    1.9347 H   0  0  0  0  0  0  0  0  0  0  0  0
    0.8657   -0.4676    2.6350 H   0  0  0  0  0  0  0  0  0  0  0  0
    2.0686   -2.0890    1.9112 C   0  0  0  0  0  0  0  0  0  0  0  0
    2.8086   -2.2386    0.9528 O   0  0  0  0  0  0  0  0  0  0  0  0
    2.2583   -2.7016    3.1012 O   0  0  0  0  0  0  0  0  0  0  0  0
    3.0567   -3.2429    3.0007 H   0  0  0  0  0  0  0  0  0  0  0  0
   -0.1206    1.5034   -0.9756 C   0  0  0  0  0  0  0  0  0  0  0  0
   -1.0469    1.9588   -1.6369 O   0  0  0  0  0  0  0  0  0  0  0  0
    1.1602    1.9127   -1.3121 N   0  0  0  0  0  0  0  0  0  0  0  0
    1.9371    1.5241   -0.7872 H   0  0  0  0  0  0  0  0  0  0  0  0
    1.4501    2.7952   -2.4377 C   0  0  0  0  0  0  0  0  0  0  0  0
    0.9413    3.7570   -2.3126 H   0  0  0  0  0  0  0  0  0  0  0  0
    2.5261    2.9814   -2.5060 H   0  0  0  0  0  0  0  0  0  0  0  0
    1.1175    2.3408   -3.3770 H   0  0  0  0  0  0  0  0  0  0  0  0
  1  2  1  0  0  0  0
  2  3  1  0  0  0  0
  2  4  1  0  0  0  0
  2  5  1  0  0  0  0
  5  6  2  0  0  0  0
  5  7  1  0  0  0  0
  7  8  1  0  0  0  0
  7  9  1  0  0  0  0
  9 10  1  0  0  0  0
  9 11  1  0  0  0  0
  9 21  1  0  0  0  0
 11 12  1  0  0  0  0
 11 13  1  0  0  0  0
 11 14  1  0  0  0  0
 14 15  1  0  0  0  0
 14 16  1  0  0  0  0
 14 17  1  0  0  0  0
 17 18  2  0  0  0  0
 17 19  1  0  0  0  0
 19 20  1  0  0  0  0
 21 22  2  0  0  0  0
 21 23  1  0  0  0  0
 23 24  1  0  0  0  0
 23 25  1  0  0  0  0
 25 26  1  0  0  0  0
 25 27  1  0  0  0  0
 25 28  1  0  0  0  0
M  END
$$$$

  -OEChem-01062216073D

 28 27  0     1  0  0  0  0  0999 V2000
   -2.8749   -2.9189    0.2436 H   0  0  0  0  0  0  0  0  0  0  0  0
   -1.9699   -2.3386    0.4435 C   0  0  0  0  0  0  0  0  0  0  0  0
   -1.4085   -2.8427    1.2312 H   0  0  0  0  0  0  0  0  0  0  0  0
   -1.3750   -2.3171   -0.4716 H   0  0  0  0  0  0  0  0  0  0  0  0
   -2.3574   -0.9250    0.8597 C   0  0  0  0  0  0  0  0  0  0  0  0
   -3.4556   -0.7396    1.3493 O   0  0  0  0  0  0  0  0  0  0  0  0
   -1.7768    0.2043    0.3322 N   0  0  0  0  0  0  0  0  0  0  0  0
   -2.4386    0.9807    0.3317 H   0  0  0  0  0  0  0  0  0  0  0  0
   -0.3580    0.6263    0.2700 C   0  0  1  0  0  0  0  0  0  0  0  0
   -0.2376    1.3387    1.0927 H   0  0  0  0  0  0  0  0  0  0  0  0
    0.7357   -0.4399    0.5263 C   0  0  0  0  0  0  0  0  0  0  0  0
    0.6056   -1.2675   -0.1775 H   0  0  0  0  0  0  0  0  0  0  0  0
    1.7210   -0.0041    0.3337 H   0  0  0  0  0  0  0  0  0  0  0  0
    0.7571   -0.9659    1.9832 C   0  0  0  0  0  0  0  0  0  0  0  0
   -0.2057   -1.3682    2.2891 H   0  0  0  0  0  0  0  0  0  0  0  0
    0.9711   -0.1277    2.6525 H   0  0  0  0  0  0  0  0  0  0  0  0
    1.8207   -2.0372    2.2303 C   0  0  0  0  0  0  0  0  0  0  0  0
    2.4600   -2.4848    1.2922 O   0  0  0  0  0  0  0  0  0  0  0  0
    1.9896   -2.4433    3.5084 O   0  0  0  0  0  0  0  0  0  0  0  0
    2.6833   -3.1205    3.4872 H   0  0  0  0  0  0  0  0  0  0  0  0
   -0.1167    1.4950   -0.9933 C   0  0  0  0  0  0  0  0  0  0  0  0
   -1.0043    2.2412   -1.3859 O   0  0  0  0  0  0  0  0  0  0  0  0
    1.1020    1.5309   -1.6506 N   0  0  0  0  0  0  0  0  0  0  0  0
    1.8214    0.8808   -1.3501 H   0  0  0  0  0  0  0  0  0  0  0  0
    1.3474    2.3491   -2.8334 C   0  0  0  0  0  0  0  0  0  0  0  0
    1.1917    3.4089   -2.6054 H   0  0  0  0  0  0  0  0  0  0  0  0
    2.3778    2.2188   -3.1776 H   0  0  0  0  0  0  0  0  0  0  0  0
    0.6718    2.0606   -3.6457 H   0  0  0  0  0  0  0  0  0  0  0  0
  1  2  1  0  0  0  0
  2  3  1  0  0  0  0
  2  4  1  0  0  0  0
  2  5  1  0  0  0  0
  5  6  2  0  0  0  0
  5  7  1  0  0  0  0
  7  8  1  0  0  0  0
  7  9  1  0  0  0  0
  9 10  1  0  0  0  0
  9 11  1  0  0  0  0
  9 21  1  0  0  0  0
 11 12  1  0  0  0  0
 11 13  1  0  0  0  0
 11 14  1  0  0  0  0
 14 15  1  0  0  0  0
 14 16  1  0  0  0  0
 14 17  1  0  0  0  0
 17 18  2  0  0  0  0
 17 19  1  0  0  0  0
 19 20  1  0  0  0  0
 21 22  2  0  0  0  0
 21 23  1  0  0  0  0
 23 24  1  0  0  0  0
 23 25  1  0  0  0  0
 25 26  1  0  0  0  0
 25 27  1  0  0  0  0
 25 28  1  0  0  0  0
M  END
$$$$

  -OEChem-01062216073D

 28 27  0     1  0  0  0  0  0999 V2000
   -3.6010   -1.6560    1.8460 H   0  0  0  0  0  0  0  0  0  0  0  0
   -2.5214   -1.7382    1.6955 C   0  0  0  0  0  0  0  0  0  0  0  0
   -2.0247   -1.0438    2.3772 H   0  0  0  0  0  0  0  0  0  0  0  0
   -2.2099   -2.7593    1.9290 H   0  0  0  0  0  0  0  0  0  0  0  0
   -2.1850   -1.4057    0.2500 C   0  0  0  0  0  0  0  0  0  0  0  0
   -2.7291   -2.0332   -0.6384 O   0  0  0  0  0  0  0  0  0  0  0  0
   -1.7427   -0.1593   -0.1114 N   0  0  0  0  0  0  0  0  0  0  0  0
   -2.0954    0.0851   -1.0389 H   0  0  0  0  0  0  0  0  0  0  0  0
   -0.4639    0.5114    0.2122 C   0  0  1  0  0  0  0  0  0  0  0  0
   -0.6041    1.1248    1.1078 H   0  0  0  0  0  0  0  0  0  0  0  0
    0.7858   -0.3971    0.4252 C   0  0  0  0  0  0  0  0  0  0  0  0
    0.9115   -1.0094   -0.4761 H   0  0  0  0  0  0  0  0  0  0  0  0
    1.6677    0.2453    0.5236 H   0  0  0  0  0  0  0  0  0  0  0  0
    0.8045   -1.3308    1.6530 C   0  0  0  0  0  0  0  0  0  0  0  0
   -0.0131   -2.0417    1.6027 H   0  0  0  0  0  0  0  0  0  0  0  0
    0.6995   -0.7426    2.5688 H   0  0  0  0  0  0  0  0  0  0  0  0
    2.0701   -2.1862    1.7468 C   0  0  0  0  0  0  0  0  0  0  0  0
    2.8792   -2.1810    0.8333 O   0  0  0  0  0  0  0  0  0  0  0  0
    2.2208   -2.9217    2.8710 O   0  0  0  0  0  0  0  0  0  0  0  0
    3.0549   -3.4051    2.7654 H   0  0  0  0  0  0  0  0  0  0  0  0
   -0.1548    1.4698   -0.9783 C   0  0  0  0  0  0  0  0  0  0  0  0
   -1.0683    2.1329   -1.4517 O   0  0  0  0  0  0  0  0  0  0  0  0
    1.0923    1.5857   -1.5739 N   0  0  0  0  0  0  0  0  0  0  0  0
    1.8279    0.9633   -1.2531 H   0  0  0  0  0  0  0  0  0  0  0  0
    1.3471    2.4195   -2.7441 C   0  0  0  0  0  0  0  0  0  0  0  0
    1.0765    3.4611   -2.5405 H   0  0  0  0  0  0  0  0  0  0  0  0
    2.4083    2.3859   -3.0088 H   0  0  0  0  0  0  0  0  0  0  0  0
    0.7644    2.0654   -3.6011 H   0  0  0  0  0  0  0  0  0  0  0  0
  1  2  1  0  0  0  0
  2  3  1  0  0  0  0
  2  4  1  0  0  0  0
  2  5  1  0  0  0  0
  5  6  2  0  0  0  0
  5  7  1  0  0  0  0
  7  8  1  0  0  0  0
  7  9  1  0  0  0  0
  9 10  1  0  0  0  0
  9 11  1  0  0  0  0
  9 21  1  0  0  0  0
 11 12  1  0  0  0  0
 11 13  1  0  0  0  0
 11 14  1  0  0  0  0
 14 15  1  0  0  0  0
 14 16  1  0  0  0  0
 14 17  1  0  0  0  0
 17 18  2  0  0  0  0
 17 19  1  0  0  0  0
 19 20  1  0  0  0  0
 21 22  2  0  0  0  0
 21 23  1  0  0  0  0
 23 24  1  0  0  0  0
 23 25  1  0  0  0  0
 25 26  1  0  0  0  0
 25 27  1  0  0  0  0
 25 28  1  0  0  0  0
M  END
$$$$

  -OEChem-01062216073D

 28 27  0     1  0  0  0  0  0999 V2000
   -2.8887   -2.8926    0.2379 H   0  0  0  0  0  0  0  0  0  0  0  0
   -1.9768   -2.3195    0.4269 C   0  0  0  0  0  0  0  0  0  0  0  0
   -1.4125   -2.8243    1.2122 H   0  0  0  0  0  0  0  0  0  0  0  0
   -1.3889   -2.3076   -0.4929 H   0  0  0  0  0  0  0  0  0  0  0  0
   -2.3466   -0.9003    0.8401 C   0  0  0  0  0  0  0  0  0  0  0  0
   -3.4350   -0.6992    1.3442 O   0  0  0  0  0  0  0  0  0  0  0  0
   -1.7624    0.2187    0.2953 N   0  0  0  0  0  0  0  0  0  0  0  0
   -2.4074    1.0077    0.3457 H   0  0  0  0  0  0  0  0  0  0  0  0
   -0.3389    0.6209    0.2495 C   0  0  1  0  0  0  0  0  0  0  0  0
   -0.2217    1.3443    1.0638 H   0  0  0  0  0  0  0  0  0  0  0  0
    0.7480   -0.4436    0.5288 C   0  0  0  0  0  0  0  0  0  0  0  0
    0.6208   -1.2810   -0.1638 H   0  0  0  0  0  0  0  0  0  0  0  0
    1.7324   -0.0043    0.3307 H   0  0  0  0  0  0  0  0  0  0  0  0
    0.7552   -0.9569    1.9897 C   0  0  0  0  0  0  0  0  0  0  0  0
   -0.2108   -1.3566    2.2891 H   0  0  0  0  0  0  0  0  0  0  0  0
    0.9634   -0.1132    2.6538 H   0  0  0  0  0  0  0  0  0  0  0  0
    1.8153   -2.0276    2.2544 C   0  0  0  0  0  0  0  0  0  0  0  0
    2.4616   -2.4834    1.3249 O   0  0  0  0  0  0  0  0  0  0  0  0
    1.9772   -2.4196    3.5380 O   0  0  0  0  0  0  0  0  0  0  0  0
    2.6770   -3.0907    3.5294 H   0  0  0  0  0  0  0  0  0  0  0  0
   -0.0692    1.4593   -1.0218 C   0  0  0  0  0  0  0  0  0  0  0  0
   -0.6892    2.5005   -1.1884 O   0  0  0  0  0  0  0  0  0  0  0  0
    0.8449    1.0639   -1.9834 N   0  0  0  0  0  0  0  0  0  0  0  0
    1.2959    0.1622   -1.8625 H   0  0  0  0  0  0  0  0  0  0  0  0
    1.0752    1.8060   -3.2177 C   0  0  0  0  0  0  0  0  0  0  0  0
    1.4033    2.8273   -2.9964 H   0  0  0  0  0  0  0  0  0  0  0  0
    1.8512    1.3170   -3.8145 H   0  0  0  0  0  0  0  0  0  0  0  0
    0.1572    1.8527   -3.8132 H   0  0  0  0  0  0  0  0  0  0  0  0
  1  2  1  0  0  0  0
  2  3  1  0  0  0  0
  2  4  1  0  0  0  0
  2  5  1  0  0  0  0
  5  6  2  0  0  0  0
  5  7  1  0  0  0  0
  7  8  1  0  0  0  0
  7  9  1  0  0  0  0
  9 10  1  0  0  0  0
  9 11  1  0  0  0  0
  9 21  1  0  0  0  0
 11 12  1  0  0  0  0
 11 13  1  0  0  0  0
 11 14  1  0  0  0  0
 14 15  1  0  0  0  0
 14 16  1  0  0  0  0
 14 17  1  0  0  0  0
 17 18  2  0  0  0  0
 17 19  1  0  0  0  0
 19 20  1  0  0  0  0
 21 22  2  0  0  0  0
 21 23  1  0  0  0  0
 23 24  1  0  0  0  0
 23 25  1  0  0  0  0
 25 26  1  0  0  0  0
 25 27  1  0  0  0  0
 25 28  1  0  0  0  0
M  END
$$$$

  -OEChem-01062216073D

 28 27  0     1  0  0  0  0  0999 V2000
   -2.8919   -2.8898    0.2466 H   0  0  0  0  0  0  0  0  0  0  0  0
   -1.9788   -2.3207    0.4416 C   0  0  0  0  0  0  0  0  0  0  0  0
   -1.4276   -2.8221    1.2385 H   0  0  0  0  0  0  0  0  0  0  0  0
   -1.3793   -2.3214   -0.4706 H   0  0  0  0  0  0  0  0  0  0  0  0
   -2.3453   -0.8961    0.8383 C   0  0  0  0  0  0  0  0  0  0  0  0
   -3.4324   -0.6866    1.3414 O   0  0  0  0  0  0  0  0  0  0  0  0
   -1.7634    0.2165    0.2787 N   0  0  0  0  0  0  0  0  0  0  0  0
   -2.4059    1.0063    0.3422 H   0  0  0  0  0  0  0  0  0  0  0  0
   -0.3395    0.6169    0.2352 C   0  0  1  0  0  0  0  0  0  0  0  0
   -0.2248    1.3462    1.0446 H   0  0  0  0  0  0  0  0  0  0  0  0
    0.7492   -0.4428    0.5215 C   0  0  0  0  0  0  0  0  0  0  0  0
    0.6248   -1.2854   -0.1650 H   0  0  0  0  0  0  0  0  0  0  0  0
    1.7311   -0.0007    0.3156 H   0  0  0  0  0  0  0  0  0  0  0  0
    0.7562   -0.9497    1.9847 C   0  0  0  0  0  0  0  0  0  0  0  0
   -0.2087   -1.3500    2.2858 H   0  0  0  0  0  0  0  0  0  0  0  0
    0.9626   -0.1021    2.6446 H   0  0  0  0  0  0  0  0  0  0  0  0
    1.8186   -2.0162    2.2556 C   0  0  0  0  0  0  0  0  0  0  0  0
    2.4675   -2.4748    1.3295 O   0  0  0  0  0  0  0  0  0  0  0  0
    1.9734   -2.4084    3.5398 O   0  0  0  0  0  0  0  0  0  0  0  0
    2.6731   -3.0796    3.5346 H   0  0  0  0  0  0  0  0  0  0  0  0
   -0.0580    1.4357   -1.0434 C   0  0  0  0  0  0  0  0  0  0  0  0
   -0.4732    2.5833   -1.1194 O   0  0  0  0  0  0  0  0  0  0  0  0
    0.6189    0.8905   -2.1204 N   0  0  0  0  0  0  0  0  0  0  0  0
    0.8801   -0.0891   -2.0648 H   0  0  0  0  0  0  0  0  0  0  0  0
    0.8357    1.6080   -3.3714 C   0  0  0  0  0  0  0  0  0  0  0  0
    1.3848    2.5381   -3.1900 H   0  0  0  0  0  0  0  0  0  0  0  0
    1.4183    0.9938   -4.0647 H   0  0  0  0  0  0  0  0  0  0  0  0
   -0.1217    1.8513   -3.8441 H   0  0  0  0  0  0  0  0  0  0  0  0
  1  2  1  0  0  0  0
  2  3  1  0  0  0  0
  2  4  1  0  0  0  0
  2  5  1  0  0  0  0
  5  6  2  0  0  0  0
  5  7  1  0  0  0  0
  7  8  1  0  0  0  0
  7  9  1  0  0  0  0
  9 10  1  0  0  0  0
  9 11  1  0  0  0  0
  9 21  1  0  0  0  0
 11 12  1  0  0  0  0
 11 13  1  0  0  0  0
 11 14  1  0  0  0  0
 14 15  1  0  0  0  0
 14 16  1  0  0  0  0
 14 17  1  0  0  0  0
 17 18  2  0  0  0  0
 17 19  1  0  0  0  0
 19 20  1  0  0  0  0
 21 22  2  0  0  0  0
 21 23  1  0  0  0  0
 23 24  1  0  0  0  0
 23 25  1  0  0  0  0
 25 26  1  0  0  0  0
 25 27  1  0  0  0  0
 25 28  1  0  0  0  0
M  END
$$$$

  -OEChem-01062216073D

 28 27  0     1  0  0  0  0  0999 V2000
   -3.6185   -1.6363    1.9219 H   0  0  0  0  0  0  0  0  0  0  0  0
   -2.5416   -1.7305    1.7602 C   0  0  0  0  0  0  0  0  0  0  0  0
   -2.0304   -1.0297    2.4243 H   0  0  0  0  0  0  0  0  0  0  0  0
   -2.2346   -2.7499    2.0064 H   0  0  0  0  0  0  0  0  0  0  0  0
   -2.2187   -1.4230    0.3067 C   0  0  0  0  0  0  0  0  0  0  0  0
   -2.7426   -2.0787   -0.5734 O   0  0  0  0  0  0  0  0  0  0  0  0
   -1.8044   -0.1777   -0.0869 N   0  0  0  0  0  0  0  0  0  0  0  0
   -2.1597    0.0118   -1.0232 H   0  0  0  0  0  0  0  0  0  0  0  0
   -0.5137    0.4852    0.2008 C   0  0  1  0  0  0  0  0  0  0  0  0
   -0.6362    1.1005    1.0985 H   0  0  0  0  0  0  0  0  0  0  0  0
    0.7461   -0.4102    0.3976 C   0  0  0  0  0  0  0  0  0  0  0  0
    0.8490   -1.0516   -0.4846 H   0  0  0  0  0  0  0  0  0  0  0  0
    1.6256    0.2442    0.4357 H   0  0  0  0  0  0  0  0  0  0  0  0
    0.7944   -1.3239    1.6402 C   0  0  0  0  0  0  0  0  0  0  0  0
   -0.0238   -2.0363    1.6221 H   0  0  0  0  0  0  0  0  0  0  0  0
    0.7086   -0.7184    2.5468 H   0  0  0  0  0  0  0  0  0  0  0  0
    2.0650   -2.1732    1.7244 C   0  0  0  0  0  0  0  0  0  0  0  0
    2.8565   -2.1812    0.7958 O   0  0  0  0  0  0  0  0  0  0  0  0
    2.2378   -2.8923    2.8561 O   0  0  0  0  0  0  0  0  0  0  0  0
    3.0760   -3.3677    2.7461 H   0  0  0  0  0  0  0  0  0  0  0  0
   -0.2040    1.4378   -0.9811 C   0  0  0  0  0  0  0  0  0  0  0  0
   -0.6417    2.5782   -0.9527 O   0  0  0  0  0  0  0  0  0  0  0  0
    0.5091    1.0291   -2.0957 N   0  0  0  0  0  0  0  0  0  0  0  0
    0.8069    0.0585   -2.1352 H   0  0  0  0  0  0  0  0  0  0  0  0
    0.7566    1.8882   -3.2479 C   0  0  0  0  0  0  0  0  0  0  0  0
    1.3105    2.7836   -2.9464 H   0  0  0  0  0  0  0  0  0  0  0  0
    1.3472    1.3541   -3.9983 H   0  0  0  0  0  0  0  0  0  0  0  0
   -0.1889    2.1964   -3.7066 H   0  0  0  0  0  0  0  0  0  0  0  0
  1  2  1  0  0  0  0
  2  3  1  0  0  0  0
  2  4  1  0  0  0  0
  2  5  1  0  0  0  0
  5  6  2  0  0  0  0
  5  7  1  0  0  0  0
  7  8  1  0  0  0  0
  7  9  1  0  0  0  0
  9 10  1  0  0  0  0
  9 11  1  0  0  0  0
  9 21  1  0  0  0  0
 11 12  1  0  0  0  0
 11 13  1  0  0  0  0
 11 14  1  0  0  0  0
 14 15  1  0  0  0  0
 14 16  1  0  0  0  0
 14 17  1  0  0  0  0
 17 18  2  0  0  0  0
 17 19  1  0  0  0  0
 19 20  1  0  0  0  0
 21 22  2  0  0  0  0
 21 23  1  0  0  0  0
 23 24  1  0  0  0  0
 23 25  1  0  0  0  0
 25 26  1  0  0  0  0
 25 27  1  0  0  0  0
 25 28  1  0  0  0  0
M  END
$$$$

  -OEChem-01062216073D

 28 27  0     1  0  0  0  0  0999 V2000
   -3.6100   -1.6479    1.9853 H   0  0  0  0  0  0  0  0  0  0  0  0
   -2.5363   -1.7330    1.7998 C   0  0  0  0  0  0  0  0  0  0  0  0
   -2.0164   -1.0301    2.4549 H   0  0  0  0  0  0  0  0  0  0  0  0
   -2.2170   -2.7508    2.0373 H   0  0  0  0  0  0  0  0  0  0  0  0
   -2.2474   -1.4205    0.3403 C   0  0  0  0  0  0  0  0  0  0  0  0
   -2.7848   -2.0760   -0.5318 O   0  0  0  0  0  0  0  0  0  0  0  0
   -1.8403   -0.1762   -0.0641 N   0  0  0  0  0  0  0  0  0  0  0  0
   -2.2005    0.0023   -1.0004 H   0  0  0  0  0  0  0  0  0  0  0  0
   -0.5498    0.4910    0.2153 C   0  0  1  0  0  0  0  0  0  0  0  0
   -0.6665    1.1040    1.1157 H   0  0  0  0  0  0  0  0  0  0  0  0
    0.7202   -0.3937    0.3877 C   0  0  0  0  0  0  0  0  0  0  0  0
    0.8228   -1.0226   -0.5035 H   0  0  0  0  0  0  0  0  0  0  0  0
    1.5930    0.2698    0.4225 H   0  0  0  0  0  0  0  0  0  0  0  0
    0.7904   -1.3191    1.6203 C   0  0  0  0  0  0  0  0  0  0  0  0
   -0.0215   -2.0386    1.6038 H   0  0  0  0  0  0  0  0  0  0  0  0
    0.7092   -0.7230    2.5335 H   0  0  0  0  0  0  0  0  0  0  0  0
    2.0685   -2.1583    1.6837 C   0  0  0  0  0  0  0  0  0  0  0  0
    2.8513   -2.1522    0.7479 O   0  0  0  0  0  0  0  0  0  0  0  0
    2.2567   -2.8871    2.8067 O   0  0  0  0  0  0  0  0  0  0  0  0
    3.0983   -3.3533    2.6849 H   0  0  0  0  0  0  0  0  0  0  0  0
   -0.2432    1.4368   -0.9694 C   0  0  0  0  0  0  0  0  0  0  0  0
   -0.3922    2.6414   -0.8308 O   0  0  0  0  0  0  0  0  0  0  0  0
    0.1892    0.9485   -2.1903 N   0  0  0  0  0  0  0  0  0  0  0  0
    0.2775   -0.0590   -2.2912 H   0  0  0  0  0  0  0  0  0  0  0  0
    0.4813    1.8011   -3.3366 C   0  0  0  0  0  0  0  0  0  0  0  0
    1.2801    2.5097   -3.0931 H   0  0  0  0  0  0  0  0  0  0  0  0
    0.8057    1.1939   -4.1873 H   0  0  0  0  0  0  0  0  0  0  0  0
   -0.4103    2.3637   -3.6334 H   0  0  0  0  0  0  0  0  0  0  0  0
  1  2  1  0  0  0  0
  2  3  1  0  0  0  0
  2  4  1  0  0  0  0
  2  5  1  0  0  0  0
  5  6  2  0  0  0  0
  5  7  1  0  0  0  0
  7  8  1  0  0  0  0
  7  9  1  0  0  0  0
  9 10  1  0  0  0  0
  9 11  1  0  0  0  0
  9 21  1  0  0  0  0
 11 12  1  0  0  0  0
 11 13  1  0  0  0  0
 11 14  1  0  0  0  0
 14 15  1  0  0  0  0
 14 16  1  0  0  0  0
 14 17  1  0  0  0  0
 17 18  2  0  0  0  0
 17 19  1  0  0  0  0
 19 20  1  0  0  0  0
 21 22  2  0  0  0  0
 21 23  1  0  0  0  0
 23 24  1  0  0  0  0
 23 25  1  0  0  0  0
 25 26  1  0  0  0  0
 25 27  1  0  0  0  0
 25 28  1  0  0  0  0
M  END
$$$$

  -OEChem-01062216073D

 28 27  0     1  0  0  0  0  0999 V2000
   -3.6023   -1.6893    2.0221 H   0  0  0  0  0  0  0  0  0  0  0  0
   -2.5308   -1.7603    1.8184 C   0  0  0  0  0  0  0  0  0  0  0  0
   -2.0085   -1.0565    2.4707 H   0  0  0  0  0  0  0  0  0  0  0  0
   -2.1954   -2.7760    2.0423 H   0  0  0  0  0  0  0  0  0  0  0  0
   -2.2698   -1.4329    0.3567 C   0  0  0  0  0  0  0  0  0  0  0  0
   -2.8202   -2.0800   -0.5135 O   0  0  0  0  0  0  0  0  0  0  0  0
   -1.8737   -0.1849   -0.0472 N   0  0  0  0  0  0  0  0  0  0  0  0
   -2.2410   -0.0039   -0.9802 H   0  0  0  0  0  0  0  0  0  0  0  0
   -0.5942    0.5010    0.2402 C   0  0  1  0  0  0  0  0  0  0  0  0
   -0.7178    1.1088    1.1432 H   0  0  0  0  0  0  0  0  0  0  0  0
    0.6918   -0.3627    0.3917 C   0  0  0  0  0  0  0  0  0  0  0  0
    0.8052   -0.9680   -0.5147 H   0  0  0  0  0  0  0  0  0  0  0  0
    1.5517    0.3169    0.4387 H   0  0  0  0  0  0  0  0  0  0  0  0
    0.7841   -1.3098    1.6062 C   0  0  0  0  0  0  0  0  0  0  0  0
   -0.0144   -2.0440    1.5775 H   0  0  0  0  0  0  0  0  0  0  0  0
    0.6953   -0.7329    2.5309 H   0  0  0  0  0  0  0  0  0  0  0  0
    2.0774   -2.1266    1.6504 C   0  0  0  0  0  0  0  0  0  0  0  0
    2.8575   -2.0894    0.7132 O   0  0  0  0  0  0  0  0  0  0  0  0
    2.2820   -2.8717    2.7599 O   0  0  0  0  0  0  0  0  0  0  0  0
    3.1318   -3.3197    2.6270 H   0  0  0  0  0  0  0  0  0  0  0  0
   -0.2896    1.4459   -0.9427 C   0  0  0  0  0  0  0  0  0  0  0  0
   -0.1593    2.6443   -0.7449 O   0  0  0  0  0  0  0  0  0  0  0  0
   -0.1418    0.9476   -2.2255 N   0  0  0  0  0  0  0  0  0  0  0  0
   -0.2182   -0.0583   -2.3525 H   0  0  0  0  0  0  0  0  0  0  0  0
    0.1874    1.7824   -3.3745 C   0  0  0  0  0  0  0  0  0  0  0  0
    1.1651    2.2558   -3.2360 H   0  0  0  0  0  0  0  0  0  0  0  0
    0.2217    1.1769   -4.2854 H   0  0  0  0  0  0  0  0  0  0  0  0
   -0.5670    2.5648   -3.5087 H   0  0  0  0  0  0  0  0  0  0  0  0
  1  2  1  0  0  0  0
  2  3  1  0  0  0  0
  2  4  1  0  0  0  0
  2  5  1  0  0  0  0
  5  6  2  0  0  0  0
  5  7  1  0  0  0  0
  7  8  1  0  0  0  0
  7  9  1  0  0  0  0
  9 10  1  0  0  0  0
  9 11  1  0  0  0  0
  9 21  1  0  0  0  0
 11 12  1  0  0  0  0
 11 13  1  0  0  0  0
 11 14  1  0  0  0  0
 14 15  1  0  0  0  0
 14 16  1  0  0  0  0
 14 17  1  0  0  0  0
 17 18  2  0  0  0  0
 17 19  1  0  0  0  0
 19 20  1  0  0  0  0
 21 22  2  0  0  0  0
 21 23  1  0  0  0  0
 23 24  1  0  0  0  0
 23 25  1  0  0  0  0
 25 26  1  0  0  0  0
 25 27  1  0  0  0  0
 25 28  1  0  0  0  0
M  END
$$$$

  -OEChem-01062216073D

 28 27  0     1  0  0  0  0  0999 V2000
   -3.5958   -1.7065    2.0592 H   0  0  0  0  0  0  0  0  0  0  0  0
   -2.5283   -1.7771    1.8350 C   0  0  0  0  0  0  0  0  0  0  0  0
   -1.9924   -1.0832    2.4866 H   0  0  0  0  0  0  0  0  0  0  0  0
   -2.1915   -2.7965    2.0391 H   0  0  0  0  0  0  0  0  0  0  0  0
   -2.2932   -1.4312    0.3734 C   0  0  0  0  0  0  0  0  0  0  0  0
   -2.8754   -2.0539   -0.4938 O   0  0  0  0  0  0  0  0  0  0  0  0
   -1.8931   -0.1823   -0.0238 N   0  0  0  0  0  0  0  0  0  0  0  0
   -2.2817    0.0222   -0.9426 H   0  0  0  0  0  0  0  0  0  0  0  0
   -0.6197    0.5137    0.2703 C   0  0  1  0  0  0  0  0  0  0  0  0
   -0.7444    1.1139    1.1779 H   0  0  0  0  0  0  0  0  0  0  0  0
    0.6719   -0.3446    0.3993 C   0  0  0  0  0  0  0  0  0  0  0  0
    0.7855   -0.9277   -0.5219 H   0  0  0  0  0  0  0  0  0  0  0  0
    1.5284    0.3389    0.4580 H   0  0  0  0  0  0  0  0  0  0  0  0
    0.7753   -1.3136    1.5950 C   0  0  0  0  0  0  0  0  0  0  0  0
   -0.0184   -2.0522    1.5538 H   0  0  0  0  0  0  0  0  0  0  0  0
    0.6858   -0.7552    2.5309 H   0  0  0  0  0  0  0  0  0  0  0  0
    2.0729   -2.1242    1.6197 C   0  0  0  0  0  0  0  0  0  0  0  0
    2.8499   -2.0665    0.6812 O   0  0  0  0  0  0  0  0  0  0  0  0
    2.2836   -2.8899    2.7139 O   0  0  0  0  0  0  0  0  0  0  0  0
    3.1362   -3.3292    2.5704 H   0  0  0  0  0  0  0  0  0  0  0  0
   -0.3078    1.4619   -0.9080 C   0  0  0  0  0  0  0  0  0  0  0  0
    0.0756    2.6006   -0.6868 O   0  0  0  0  0  0  0  0  0  0  0  0
   -0.4469    1.0285   -2.2157 N   0  0  0  0  0  0  0  0  0  0  0  0
   -0.6564    0.0444   -2.3626 H   0  0  0  0  0  0  0  0  0  0  0  0
   -0.1049    1.8542   -3.3677 C   0  0  0  0  0  0  0  0  0  0  0  0
    0.9669    2.0787   -3.3736 H   0  0  0  0  0  0  0  0  0  0  0  0
   -0.3560    1.3316   -4.2959 H   0  0  0  0  0  0  0  0  0  0  0  0
   -0.6617    2.7970   -3.3428 H   0  0  0  0  0  0  0  0  0  0  0  0
  1  2  1  0  0  0  0
  2  3  1  0  0  0  0
  2  4  1  0  0  0  0
  2  5  1  0  0  0  0
  5  6  2  0  0  0  0
  5  7  1  0  0  0  0
  7  8  1  0  0  0  0
  7  9  1  0  0  0  0
  9 10  1  0  0  0  0
  9 11  1  0  0  0  0
  9 21  1  0  0  0  0
 11 12  1  0  0  0  0
 11 13  1  0  0  0  0
 11 14  1  0  0  0  0
 14 15  1  0  0  0  0
 14 16  1  0  0  0  0
 14 17  1  0  0  0  0
 17 18  2  0  0  0  0
 17 19  1  0  0  0  0
 19 20  1  0  0  0  0
 21 22  2  0  0  0  0
 21 23  1  0  0  0  0
 23 24  1  0  0  0  0
 23 25  1  0  0  0  0
 25 26  1  0  0  0  0
 25 27  1  0  0  0  0
 25 28  1  0  0  0  0
M  END
$$$$

  -OEChem-01062216073D

 28 27  0     1  0  0  0  0  0999 V2000
   -3.5874   -1.7611    2.0736 H   0  0  0  0  0  0  0  0  0  0  0  0
   -2.5203   -1.8120    1.8425 C   0  0  0  0  0  0  0  0  0  0  0  0
   -1.9927   -1.1141    2.4967 H   0  0  0  0  0  0  0  0  0  0  0  0
   -2.1656   -2.8273    2.0370 H   0  0  0  0  0  0  0  0  0  0  0  0
   -2.3008   -1.4512    0.3819 C   0  0  0  0  0  0  0  0  0  0  0  0
   -2.9083   -2.0544   -0.4820 O   0  0  0  0  0  0  0  0  0  0  0  0
   -1.9022   -0.1999   -0.0098 N   0  0  0  0  0  0  0  0  0  0  0  0
   -2.3186    0.0261   -0.9102 H   0  0  0  0  0  0  0  0  0  0  0  0
   -0.6394    0.5161    0.2878 C   0  0  1  0  0  0  0  0  0  0  0  0
   -0.7713    1.1117    1.1972 H   0  0  0  0  0  0  0  0  0  0  0  0
    0.6581   -0.3354    0.4123 C   0  0  0  0  0  0  0  0  0  0  0  0
    0.7740   -0.9104   -0.5137 H   0  0  0  0  0  0  0  0  0  0  0  0
    1.5119    0.3511    0.4750 H   0  0  0  0  0  0  0  0  0  0  0  0
    0.7718   -1.3108    1.6016 C   0  0  0  0  0  0  0  0  0  0  0  0
   -0.0155   -2.0557    1.5577 H   0  0  0  0  0  0  0  0  0  0  0  0
    0.6799   -0.7580    2.5407 H   0  0  0  0  0  0  0  0  0  0  0  0
    2.0755   -2.1120    1.6189 C   0  0  0  0  0  0  0  0  0  0  0  0
    2.8507   -2.0437    0.6796 O   0  0  0  0  0  0  0  0  0  0  0  0
    2.2930   -2.8828    2.7083 O   0  0  0  0  0  0  0  0  0  0  0  0
    3.1476   -3.3167    2.5600 H   0  0  0  0  0  0  0  0  0  0  0  0
   -0.3185    1.4719   -0.8853 C   0  0  0  0  0  0  0  0  0  0  0  0
    0.2633    2.5238   -0.6646 O   0  0  0  0  0  0  0  0  0  0  0  0
   -0.7140    1.1730   -2.1790 N   0  0  0  0  0  0  0  0  0  0  0  0
   -1.0367    0.2257   -2.3573 H   0  0  0  0  0  0  0  0  0  0  0  0
   -0.3922    2.0233   -3.3193 C   0  0  0  0  0  0  0  0  0  0  0  0
    0.6917    2.0722   -3.4676 H   0  0  0  0  0  0  0  0  0  0  0  0
   -0.8503    1.6252   -4.2298 H   0  0  0  0  0  0  0  0  0  0  0  0
   -0.7719    3.0383   -3.1601 H   0  0  0  0  0  0  0  0  0  0  0  0
  1  2  1  0  0  0  0
  2  3  1  0  0  0  0
  2  4  1  0  0  0  0
  2  5  1  0  0  0  0
  5  6  2  0  0  0  0
  5  7  1  0  0  0  0
  7  8  1  0  0  0  0
  7  9  1  0  0  0  0
  9 10  1  0  0  0  0
  9 11  1  0  0  0  0
  9 21  1  0  0  0  0
 11 12  1  0  0  0  0
 11 13  1  0  0  0  0
 11 14  1  0  0  0  0
 14 15  1  0  0  0  0
 14 16  1  0  0  0  0
 14 17  1  0  0  0  0
 17 18  2  0  0  0  0
 17 19  1  0  0  0  0
 19 20  1  0  0  0  0
 21 22  2  0  0  0  0
 21 23  1  0  0  0  0
 23 24  1  0  0  0  0
 23 25  1  0  0  0  0
 25 26  1  0  0  0  0
 25 27  1  0  0  0  0
 25 28  1  0  0  0  0
M  END
$$$$

  -OEChem-01062216073D

 28 27  0     1  0  0  0  0  0999 V2000
   -2.9663   -2.9425    0.4355 H   0  0  0  0  0  0  0  0  0  0  0  0
   -2.0410   -2.3714    0.5522 C   0  0  0  0  0  0  0  0  0  0  0  0
   -1.4320   -2.8596    1.3146 H   0  0  0  0  0  0  0  0  0  0  0  0
   -1.5079   -2.3891   -0.4007 H   0  0  0  0  0  0  0  0  0  0  0  0
   -2.3745   -0.9386    0.9486 C   0  0  0  0  0  0  0  0  0  0  0  0
   -3.4326   -0.7040    1.4998 O   0  0  0  0  0  0  0  0  0  0  0  0
   -1.8401    0.1614    0.3215 N   0  0  0  0  0  0  0  0  0  0  0  0
   -2.4720    0.9461    0.4751 H   0  0  0  0  0  0  0  0  0  0  0  0
   -0.4154    0.5657    0.2079 C   0  0  1  0  0  0  0  0  0  0  0  0
   -0.2704    1.3179    0.9909 H   0  0  0  0  0  0  0  0  0  0  0  0
    0.6818   -0.4926    0.4751 C   0  0  0  0  0  0  0  0  0  0  0  0
    0.5273   -1.3465   -0.1912 H   0  0  0  0  0  0  0  0  0  0  0  0
    1.6578   -0.0640    0.2172 H   0  0  0  0  0  0  0  0  0  0  0  0
    0.7510   -0.9676    1.9483 C   0  0  0  0  0  0  0  0  0  0  0  0
   -0.2000   -1.3552    2.3041 H   0  0  0  0  0  0  0  0  0  0  0  0
    0.9911   -0.1049    2.5761 H   0  0  0  0  0  0  0  0  0  0  0  0
    1.8200   -2.0322    2.2015 C   0  0  0  0  0  0  0  0  0  0  0  0
    2.4310   -2.5190    1.2647 O   0  0  0  0  0  0  0  0  0  0  0  0
    2.0235   -2.3911    3.4889 O   0  0  0  0  0  0  0  0  0  0  0  0
    2.7269   -3.0581    3.4711 H   0  0  0  0  0  0  0  0  0  0  0  0
   -0.1492    1.3423   -1.1012 C   0  0  0  0  0  0  0  0  0  0  0  0
    0.8817    1.9856   -1.2355 O   0  0  0  0  0  0  0  0  0  0  0  0
   -1.0715    1.3217   -2.1306 N   0  0  0  0  0  0  0  0  0  0  0  0
   -1.9006    0.7498   -1.9927 H   0  0  0  0  0  0  0  0  0  0  0  0
   -0.8745    2.0035   -3.4041 C   0  0  0  0  0  0  0  0  0  0  0  0
    0.0160    1.6177   -3.9116 H   0  0  0  0  0  0  0  0  0  0  0  0
   -1.7391    1.8457   -4.0561 H   0  0  0  0  0  0  0  0  0  0  0  0
   -0.7517    3.0804   -3.2470 H   0  0  0  0  0  0  0  0  0  0  0  0
  1  2  1  0  0  0  0
  2  3  1  0  0  0  0
  2  4  1  0  0  0  0
  2  5  1  0  0  0  0
  5  6  2  0  0  0  0
  5  7  1  0  0  0  0
  7  8  1  0  0  0  0
  7  9  1  0  0  0  0
  9 10  1  0  0  0  0
  9 11  1  0  0  0  0
  9 21  1  0  0  0  0
 11 12  1  0  0  0  0
 11 13  1  0  0  0  0
 11 14  1  0  0  0  0
 14 15  1  0  0  0  0
 14 16  1  0  0  0  0
 14 17  1  0  0  0  0
 17 18  2  0  0  0  0
 17 19  1  0  0  0  0
 19 20  1  0  0  0  0
 21 22  2  0  0  0  0
 21 23  1  0  0  0  0
 23 24  1  0  0  0  0
 23 25  1  0  0  0  0
 25 26  1  0  0  0  0
 25 27  1  0  0  0  0
 25 28  1  0  0  0  0
M  END
$$$$

  -OEChem-01062216073D

 28 27  0     1  0  0  0  0  0999 V2000
   -2.9666   -2.9516    0.4498 H   0  0  0  0  0  0  0  0  0  0  0  0
   -2.0395   -2.3825    0.5604 C   0  0  0  0  0  0  0  0  0  0  0  0
   -1.4226   -2.8754    1.3136 H   0  0  0  0  0  0  0  0  0  0  0  0
   -1.5166   -2.3953   -0.3981 H   0  0  0  0  0  0  0  0  0  0  0  0
   -2.3664   -0.9520    0.9690 C   0  0  0  0  0  0  0  0  0  0  0  0
   -3.4131   -0.7181    1.5417 O   0  0  0  0  0  0  0  0  0  0  0  0
   -1.8439    0.1513    0.3384 N   0  0  0  0  0  0  0  0  0  0  0  0
   -2.4710    0.9336    0.5204 H   0  0  0  0  0  0  0  0  0  0  0  0
   -0.4211    0.5592    0.2076 C   0  0  1  0  0  0  0  0  0  0  0  0
   -0.2673    1.3127    0.9874 H   0  0  0  0  0  0  0  0  0  0  0  0
    0.6770   -0.5022    0.4704 C   0  0  0  0  0  0  0  0  0  0  0  0
    0.5159   -1.3581   -0.1916 H   0  0  0  0  0  0  0  0  0  0  0  0
    1.6536   -0.0799    0.2054 H   0  0  0  0  0  0  0  0  0  0  0  0
    0.7573   -0.9698    1.9457 C   0  0  0  0  0  0  0  0  0  0  0  0
   -0.1917   -1.3548    2.3100 H   0  0  0  0  0  0  0  0  0  0  0  0
    1.0045   -0.1049    2.5678 H   0  0  0  0  0  0  0  0  0  0  0  0
    1.8250   -2.0361    2.1963 C   0  0  0  0  0  0  0  0  0  0  0  0
    2.4272   -2.5304    1.2580 O   0  0  0  0  0  0  0  0  0  0  0  0
    2.0408   -2.3845    3.4846 O   0  0  0  0  0  0  0  0  0  0  0  0
    2.7438   -3.0519    3.4654 H   0  0  0  0  0  0  0  0  0  0  0  0
   -0.1781    1.3411   -1.1062 C   0  0  0  0  0  0  0  0  0  0  0  0
    0.9240    1.8075   -1.3567 O   0  0  0  0  0  0  0  0  0  0  0  0
   -1.2194    1.5782   -1.9850 N   0  0  0  0  0  0  0  0  0  0  0  0
   -2.0961    1.1019   -1.7906 H   0  0  0  0  0  0  0  0  0  0  0  0
   -1.0598    2.2856   -3.2500 C   0  0  0  0  0  0  0  0  0  0  0  0
   -0.3610    1.7514   -3.9023 H   0  0  0  0  0  0  0  0  0  0  0  0
   -2.0225    2.3644   -3.7639 H   0  0  0  0  0  0  0  0  0  0  0  0
   -0.6777    3.2975   -3.0775 H   0  0  0  0  0  0  0  0  0  0  0  0
  1  2  1  0  0  0  0
  2  3  1  0  0  0  0
  2  4  1  0  0  0  0
  2  5  1  0  0  0  0
  5  6  2  0  0  0  0
  5  7  1  0  0  0  0
  7  8  1  0  0  0  0
  7  9  1  0  0  0  0
  9 10  1  0  0  0  0
  9 11  1  0  0  0  0
  9 21  1  0  0  0  0
 11 12  1  0  0  0  0
 11 13  1  0  0  0  0
 11 14  1  0  0  0  0
 14 15  1  0  0  0  0
 14 16  1  0  0  0  0
 14 17  1  0  0  0  0
 17 18  2  0  0  0  0
 17 19  1  0  0  0  0
 19 20  1  0  0  0  0
 21 22  2  0  0  0  0
 21 23  1  0  0  0  0
 23 24  1  0  0  0  0
 23 25  1  0  0  0  0
 25 26  1  0  0  0  0
 25 27  1  0  0  0  0
 25 28  1  0  0  0  0
M  END
$$$$

  -OEChem-01062216073D

 28 27  0     1  0  0  0  0  0999 V2000
   -3.6022   -1.7324    1.9316 H   0  0  0  0  0  0  0  0  0  0  0  0
   -2.5221   -1.8178    1.7881 C   0  0  0  0  0  0  0  0  0  0  0  0
   -2.0258   -1.1267    2.4733 H   0  0  0  0  0  0  0  0  0  0  0  0
   -2.2134   -2.8396    2.0236 H   0  0  0  0  0  0  0  0  0  0  0  0
   -2.1726   -1.4864    0.3459 C   0  0  0  0  0  0  0  0  0  0  0  0
   -2.6479   -2.1497   -0.5552 O   0  0  0  0  0  0  0  0  0  0  0  0
   -1.8346   -0.2152   -0.0357 N   0  0  0  0  0  0  0  0  0  0  0  0
   -2.0727   -0.1588   -1.0239 H   0  0  0  0  0  0  0  0  0  0  0  0
   -0.5766    0.5107    0.2752 C   0  0  1  0  0  0  0  0  0  0  0  0
   -0.7228    1.0930    1.1902 H   0  0  0  0  0  0  0  0  0  0  0  0
    0.7115   -0.3624    0.4372 C   0  0  0  0  0  0  0  0  0  0  0  0
    0.8384   -0.9438   -0.4837 H   0  0  0  0  0  0  0  0  0  0  0  0
    1.5798    0.3016    0.5205 H   0  0  0  0  0  0  0  0  0  0  0  0
    0.7922   -1.3243    1.6433 C   0  0  0  0  0  0  0  0  0  0  0  0
   -0.0016   -2.0617    1.6032 H   0  0  0  0  0  0  0  0  0  0  0  0
    0.6939   -0.7557    2.5720 H   0  0  0  0  0  0  0  0  0  0  0  0
    2.0838   -2.1435    1.6949 C   0  0  0  0  0  0  0  0  0  0  0  0
    2.8782   -2.1021    0.7708 O   0  0  0  0  0  0  0  0  0  0  0  0
    2.2685   -2.9008    2.7998 O   0  0  0  0  0  0  0  0  0  0  0  0
    3.1183   -3.3500    2.6715 H   0  0  0  0  0  0  0  0  0  0  0  0
   -0.2829    1.5107   -0.8835 C   0  0  0  0  0  0  0  0  0  0  0  0
    0.8036    2.0618   -0.9960 O   0  0  0  0  0  0  0  0  0  0  0  0
   -1.2683    1.8369   -1.8028 N   0  0  0  0  0  0  0  0  0  0  0  0
   -2.2183    1.5585   -1.5769 H   0  0  0  0  0  0  0  0  0  0  0  0
   -1.0695    2.8139   -2.8682 C   0  0  0  0  0  0  0  0  0  0  0  0
   -0.2428    2.5082   -3.5183 H   0  0  0  0  0  0  0  0  0  0  0  0
   -1.9735    2.8970   -3.4790 H   0  0  0  0  0  0  0  0  0  0  0  0
   -0.8417    3.7996   -2.4488 H   0  0  0  0  0  0  0  0  0  0  0  0
  1  2  1  0  0  0  0
  2  3  1  0  0  0  0
  2  4  1  0  0  0  0
  2  5  1  0  0  0  0
  5  6  2  0  0  0  0
  5  7  1  0  0  0  0
  7  8  1  0  0  0  0
  7  9  1  0  0  0  0
  9 10  1  0  0  0  0
  9 11  1  0  0  0  0
  9 21  1  0  0  0  0
 11 12  1  0  0  0  0
 11 13  1  0  0  0  0
 11 14  1  0  0  0  0
 14 15  1  0  0  0  0
 14 16  1  0  0  0  0
 14 17  1  0  0  0  0
 17 18  2  0  0  0  0
 17 19  1  0  0  0  0
 19 20  1  0  0  0  0
 21 22  2  0  0  0  0
 21 23  1  0  0  0  0
 23 24  1  0  0  0  0
 23 25  1  0  0  0  0
 25 26  1  0  0  0  0
 25 27  1  0  0  0  0
 25 28  1  0  0  0  0
M  END
$$$$

  -OEChem-01062216073D

 28 27  0     1  0  0  0  0  0999 V2000
   -3.5936   -1.7556    1.8664 H   0  0  0  0  0  0  0  0  0  0  0  0
   -2.5113   -1.8253    1.7306 C   0  0  0  0  0  0  0  0  0  0  0  0
   -2.0296   -1.1373    2.4294 H   0  0  0  0  0  0  0  0  0  0  0  0
   -2.1921   -2.8464    1.9543 H   0  0  0  0  0  0  0  0  0  0  0  0
   -2.1545   -1.4697    0.2959 C   0  0  0  0  0  0  0  0  0  0  0  0
   -2.6456   -2.1056   -0.6164 O   0  0  0  0  0  0  0  0  0  0  0  0
   -1.8011   -0.1942   -0.0581 N   0  0  0  0  0  0  0  0  0  0  0  0
   -2.0458   -0.0993   -1.0430 H   0  0  0  0  0  0  0  0  0  0  0  0
   -0.5424    0.5194    0.2751 C   0  0  1  0  0  0  0  0  0  0  0  0
   -0.6964    1.0958    1.1924 H   0  0  0  0  0  0  0  0  0  0  0  0
    0.7425   -0.3556    0.4511 C   0  0  0  0  0  0  0  0  0  0  0  0
    0.8848   -0.9309   -0.4714 H   0  0  0  0  0  0  0  0  0  0  0  0
    1.6078    0.3100    0.5527 H   0  0  0  0  0  0  0  0  0  0  0  0
    0.8034   -1.3236    1.6532 C   0  0  0  0  0  0  0  0  0  0  0  0
    0.0087   -2.0587    1.5950 H   0  0  0  0  0  0  0  0  0  0  0  0
    0.6908   -0.7605    2.5835 H   0  0  0  0  0  0  0  0  0  0  0  0
    2.0928   -2.1452    1.7213 C   0  0  0  0  0  0  0  0  0  0  0  0
    2.9017   -2.1007    0.8103 O   0  0  0  0  0  0  0  0  0  0  0  0
    2.2624   -2.9029    2.8285 O   0  0  0  0  0  0  0  0  0  0  0  0
    3.1149   -3.3504    2.7123 H   0  0  0  0  0  0  0  0  0  0  0  0
   -0.2595    1.5278   -0.8789 C   0  0  0  0  0  0  0  0  0  0  0  0
    0.8695    1.8926   -1.1767 O   0  0  0  0  0  0  0  0  0  0  0  0
   -1.3198    2.0784   -1.5808 N   0  0  0  0  0  0  0  0  0  0  0  0
   -2.2550    1.8847   -1.2335 H   0  0  0  0  0  0  0  0  0  0  0  0
   -1.1542    3.0788   -2.6299 C   0  0  0  0  0  0  0  0  0  0  0  0
   -0.5322    2.6843   -3.4405 H   0  0  0  0  0  0  0  0  0  0  0  0
   -2.1271    3.3554   -3.0475 H   0  0  0  0  0  0  0  0  0  0  0  0
   -0.6794    3.9807   -2.2290 H   0  0  0  0  0  0  0  0  0  0  0  0
  1  2  1  0  0  0  0
  2  3  1  0  0  0  0
  2  4  1  0  0  0  0
  2  5  1  0  0  0  0
  5  6  2  0  0  0  0
  5  7  1  0  0  0  0
  7  8  1  0  0  0  0
  7  9  1  0  0  0  0
  9 10  1  0  0  0  0
  9 11  1  0  0  0  0
  9 21  1  0  0  0  0
 11 12  1  0  0  0  0
 11 13  1  0  0  0  0
 11 14  1  0  0  0  0
 14 15  1  0  0  0  0
 14 16  1  0  0  0  0
 14 17  1  0  0  0  0
 17 18  2  0  0  0  0
 17 19  1  0  0  0  0
 19 20  1  0  0  0  0
 21 22  2  0  0  0  0
 21 23  1  0  0  0  0
 23 24  1  0  0  0  0
 23 25  1  0  0  0  0
 25 26  1  0  0  0  0
 25 27  1  0  0  0  0
 25 28  1  0  0  0  0
M  END
$$$$

  -OEChem-01062216073D

 28 27  0     1  0  0  0  0  0999 V2000
   -3.5910   -1.7489    1.8227 H   0  0  0  0  0  0  0  0  0  0  0  0
   -2.5080   -1.8138    1.6902 C   0  0  0  0  0  0  0  0  0  0  0  0
   -2.0308   -1.1350    2.4008 H   0  0  0  0  0  0  0  0  0  0  0  0
   -2.1881   -2.8377    1.8999 H   0  0  0  0  0  0  0  0  0  0  0  0
   -2.1475   -1.4372    0.2616 C   0  0  0  0  0  0  0  0  0  0  0  0
   -2.6564   -2.0483   -0.6577 O   0  0  0  0  0  0  0  0  0  0  0  0
   -1.7746   -0.1610   -0.0709 N   0  0  0  0  0  0  0  0  0  0  0  0
   -2.0275   -0.0325   -1.0505 H   0  0  0  0  0  0  0  0  0  0  0  0
   -0.5121    0.5341    0.2811 C   0  0  1  0  0  0  0  0  0  0  0  0
   -0.6686    1.1038    1.2022 H   0  0  0  0  0  0  0  0  0  0  0  0
    0.7664   -0.3469    0.4644 C   0  0  0  0  0  0  0  0  0  0  0  0
    0.9146   -0.9193   -0.4593 H   0  0  0  0  0  0  0  0  0  0  0  0
    1.6316    0.3180    0.5746 H   0  0  0  0  0  0  0  0  0  0  0  0
    0.8085   -1.3232    1.6601 C   0  0  0  0  0  0  0  0  0  0  0  0
    0.0111   -2.0539    1.5844 H   0  0  0  0  0  0  0  0  0  0  0  0
    0.6856   -0.7674    2.5934 H   0  0  0  0  0  0  0  0  0  0  0  0
    2.0929   -2.1518    1.7385 C   0  0  0  0  0  0  0  0  0  0  0  0
    2.9136   -2.1056    0.8383 O   0  0  0  0  0  0  0  0  0  0  0  0
    2.2438   -2.9192    2.8417 O   0  0  0  0  0  0  0  0  0  0  0  0
    3.0937   -3.3730    2.7306 H   0  0  0  0  0  0  0  0  0  0  0  0
   -0.2254    1.5477   -0.8651 C   0  0  0  0  0  0  0  0  0  0  0  0
    0.8799    1.7015   -1.3667 O   0  0  0  0  0  0  0  0  0  0  0  0
   -1.2655    2.3292   -1.3382 N   0  0  0  0  0  0  0  0  0  0  0  0
   -2.1709    2.2225   -0.8887 H   0  0  0  0  0  0  0  0  0  0  0  0
   -1.1164    3.3114   -2.4067 C   0  0  0  0  0  0  0  0  0  0  0  0
   -0.8026    2.8228   -3.3353 H   0  0  0  0  0  0  0  0  0  0  0  0
   -2.0677    3.8203   -2.5892 H   0  0  0  0  0  0  0  0  0  0  0  0
   -0.3687    4.0643   -2.1353 H   0  0  0  0  0  0  0  0  0  0  0  0
  1  2  1  0  0  0  0
  2  3  1  0  0  0  0
  2  4  1  0  0  0  0
  2  5  1  0  0  0  0
  5  6  2  0  0  0  0
  5  7  1  0  0  0  0
  7  8  1  0  0  0  0
  7  9  1  0  0  0  0
  9 10  1  0  0  0  0
  9 11  1  0  0  0  0
  9 21  1  0  0  0  0
 11 12  1  0  0  0  0
 11 13  1  0  0  0  0
 11 14  1  0  0  0  0
 14 15  1  0  0  0  0
 14 16  1  0  0  0  0
 14 17  1  0  0  0  0
 17 18  2  0  0  0  0
 17 19  1  0  0  0  0
 19 20  1  0  0  0  0
 21 22  2  0  0  0  0
 21 23  1  0  0  0  0
 23 24  1  0  0  0  0
 23 25  1  0  0  0  0
 25 26  1  0  0  0  0
 25 27  1  0  0  0  0
 25 28  1  0  0  0  0
M  END
$$$$

  -OEChem-01062216073D

 28 27  0     1  0  0  0  0  0999 V2000
   -3.5899   -1.7206    1.8026 H   0  0  0  0  0  0  0  0  0  0  0  0
   -2.5076   -1.7927    1.6674 C   0  0  0  0  0  0  0  0  0  0  0  0
   -2.0249   -1.1211    2.3809 H   0  0  0  0  0  0  0  0  0  0  0  0
   -2.1942   -2.8198    1.8714 H   0  0  0  0  0  0  0  0  0  0  0  0
   -2.1468   -1.4109    0.2402 C   0  0  0  0  0  0  0  0  0  0  0  0
   -2.6689   -2.0093   -0.6801 O   0  0  0  0  0  0  0  0  0  0  0  0
   -1.7570   -0.1371   -0.0829 N   0  0  0  0  0  0  0  0  0  0  0  0
   -2.0120    0.0088   -1.0598 H   0  0  0  0  0  0  0  0  0  0  0  0
   -0.4896    0.5412    0.2780 C   0  0  1  0  0  0  0  0  0  0  0  0
   -0.6443    1.1078    1.2012 H   0  0  0  0  0  0  0  0  0  0  0  0
    0.7827   -0.3457    0.4656 C   0  0  0  0  0  0  0  0  0  0  0  0
    0.9290   -0.9228   -0.4556 H   0  0  0  0  0  0  0  0  0  0  0  0
    1.6499    0.3171    0.5713 H   0  0  0  0  0  0  0  0  0  0  0  0
    0.8113   -1.3240    1.6591 C   0  0  0  0  0  0  0  0  0  0  0  0
    0.0093   -2.0490    1.5760 H   0  0  0  0  0  0  0  0  0  0  0  0
    0.6858   -0.7687    2.5923 H   0  0  0  0  0  0  0  0  0  0  0  0
    2.0894   -2.1610    1.7458 C   0  0  0  0  0  0  0  0  0  0  0  0
    2.9170   -2.1191    0.8519 O   0  0  0  0  0  0  0  0  0  0  0  0
    2.2266   -2.9312    2.8489 O   0  0  0  0  0  0  0  0  0  0  0  0
    3.0723   -3.3938    2.7418 H   0  0  0  0  0  0  0  0  0  0  0  0
   -0.1904    1.5547   -0.8612 C   0  0  0  0  0  0  0  0  0  0  0  0
    0.8151    1.5085   -1.5566 O   0  0  0  0  0  0  0  0  0  0  0  0
   -1.1153    2.5515   -1.1145 N   0  0  0  0  0  0  0  0  0  0  0  0
   -1.9685    2.5471   -0.5623 H   0  0  0  0  0  0  0  0  0  0  0  0
   -0.9745    3.5253   -2.1914 C   0  0  0  0  0  0  0  0  0  0  0  0
   -0.9843    3.0234   -3.1647 H   0  0  0  0  0  0  0  0  0  0  0  0
   -1.7998    4.2432   -2.1631 H   0  0  0  0  0  0  0  0  0  0  0  0
   -0.0343    4.0779   -2.0897 H   0  0  0  0  0  0  0  0  0  0  0  0
  1  2  1  0  0  0  0
  2  3  1  0  0  0  0
  2  4  1  0  0  0  0
  2  5  1  0  0  0  0
  5  6  2  0  0  0  0
  5  7  1  0  0  0  0
  7  8  1  0  0  0  0
  7  9  1  0  0  0  0
  9 10  1  0  0  0  0
  9 11  1  0  0  0  0
  9 21  1  0  0  0  0
 11 12  1  0  0  0  0
 11 13  1  0  0  0  0
 11 14  1  0  0  0  0
 14 15  1  0  0  0  0
 14 16  1  0  0  0  0
 14 17  1  0  0  0  0
 17 18  2  0  0  0  0
 17 19  1  0  0  0  0
 19 20  1  0  0  0  0
 21 22  2  0  0  0  0
 21 23  1  0  0  0  0
 23 24  1  0  0  0  0
 23 25  1  0  0  0  0
 25 26  1  0  0  0  0
 25 27  1  0  0  0  0
 25 28  1  0  0  0  0
M  END
$$$$

  -OEChem-01062216073D

 28 27  0     1  0  0  0  0  0999 V2000
   -3.5847   -1.7140    1.7946 H   0  0  0  0  0  0  0  0  0  0  0  0
   -2.5031   -1.7843    1.6535 C   0  0  0  0  0  0  0  0  0  0  0  0
   -2.0174   -1.1132    2.3654 H   0  0  0  0  0  0  0  0  0  0  0  0
   -2.1875   -2.8115    1.8535 H   0  0  0  0  0  0  0  0  0  0  0  0
   -2.1509   -1.3995    0.2251 C   0  0  0  0  0  0  0  0  0  0  0  0
   -2.6817   -1.9957   -0.6918 O   0  0  0  0  0  0  0  0  0  0  0  0
   -1.7521   -0.1279   -0.0969 N   0  0  0  0  0  0  0  0  0  0  0  0
   -2.0023    0.0230   -1.0745 H   0  0  0  0  0  0  0  0  0  0  0  0
   -0.4846    0.5424    0.2719 C   0  0  1  0  0  0  0  0  0  0  0  0
   -0.6422    1.1051    1.1970 H   0  0  0  0  0  0  0  0  0  0  0  0
    0.7871   -0.3429    0.4631 C   0  0  0  0  0  0  0  0  0  0  0  0
    0.9347   -0.9234   -0.4559 H   0  0  0  0  0  0  0  0  0  0  0  0
    1.6535    0.3212    0.5663 H   0  0  0  0  0  0  0  0  0  0  0  0
    0.8100   -1.3239    1.6543 C   0  0  0  0  0  0  0  0  0  0  0  0
    0.0095   -2.0496    1.5626 H   0  0  0  0  0  0  0  0  0  0  0  0
    0.6776   -0.7718    2.5887 H   0  0  0  0  0  0  0  0  0  0  0  0
    2.0883   -2.1599    1.7462 C   0  0  0  0  0  0  0  0  0  0  0  0
    2.9211   -2.1154    0.8571 O   0  0  0  0  0  0  0  0  0  0  0  0
    2.2208   -2.9301    2.8498 O   0  0  0  0  0  0  0  0  0  0  0  0
    3.0678   -3.3911    2.7472 H   0  0  0  0  0  0  0  0  0  0  0  0
   -0.1662    1.5538   -0.8615 C   0  0  0  0  0  0  0  0  0  0  0  0
    0.6677    1.3361   -1.7296 O   0  0  0  0  0  0  0  0  0  0  0  0
   -0.8941    2.7277   -0.9292 N   0  0  0  0  0  0  0  0  0  0  0  0
   -1.6481    2.8487   -0.2593 H   0  0  0  0  0  0  0  0  0  0  0  0
   -0.7418    3.7035   -2.0028 C   0  0  0  0  0  0  0  0  0  0  0  0
   -1.0237    3.2622   -2.9646 H   0  0  0  0  0  0  0  0  0  0  0  0
   -1.3812    4.5721   -1.8187 H   0  0  0  0  0  0  0  0  0  0  0  0
    0.2963    4.0475   -2.0646 H   0  0  0  0  0  0  0  0  0  0  0  0
  1  2  1  0  0  0  0
  2  3  1  0  0  0  0
  2  4  1  0  0  0  0
  2  5  1  0  0  0  0
  5  6  2  0  0  0  0
  5  7  1  0  0  0  0
  7  8  1  0  0  0  0
  7  9  1  0  0  0  0
  9 10  1  0  0  0  0
  9 11  1  0  0  0  0
  9 21  1  0  0  0  0
 11 12  1  0  0  0  0
 11 13  1  0  0  0  0
 11 14  1  0  0  0  0
 14 15  1  0  0  0  0
 14 16  1  0  0  0  0
 14 17  1  0  0  0  0
 17 18  2  0  0  0  0
 17 19  1  0  0  0  0
 19 20  1  0  0  0  0
 21 22  2  0  0  0  0
 21 23  1  0  0  0  0
 23 24  1  0  0  0  0
 23 25  1  0  0  0  0
 25 26  1  0  0  0  0
 25 27  1  0  0  0  0
 25 28  1  0  0  0  0
M  END
$$$$

  -OEChem-01062216073D

 28 27  0     1  0  0  0  0  0999 V2000
   -3.5910   -1.6913    1.7806 H   0  0  0  0  0  0  0  0  0  0  0  0
   -2.5090   -1.7637    1.6444 C   0  0  0  0  0  0  0  0  0  0  0  0
   -2.0255   -1.0847    2.3503 H   0  0  0  0  0  0  0  0  0  0  0  0
   -2.1944   -2.7885    1.8575 H   0  0  0  0  0  0  0  0  0  0  0  0
   -2.1520   -1.3946    0.2129 C   0  0  0  0  0  0  0  0  0  0  0  0
   -2.6744   -2.0058   -0.6989 O   0  0  0  0  0  0  0  0  0  0  0  0
   -1.7477   -0.1268   -0.1171 N   0  0  0  0  0  0  0  0  0  0  0  0
   -1.9762    0.0128   -1.1023 H   0  0  0  0  0  0  0  0  0  0  0  0
   -0.4844    0.5417    0.2644 C   0  0  1  0  0  0  0  0  0  0  0  0
   -0.6522    1.1041    1.1875 H   0  0  0  0  0  0  0  0  0  0  0  0
    0.7887   -0.3380    0.4631 C   0  0  0  0  0  0  0  0  0  0  0  0
    0.9442   -0.9179   -0.4551 H   0  0  0  0  0  0  0  0  0  0  0  0
    1.6522    0.3290    0.5715 H   0  0  0  0  0  0  0  0  0  0  0  0
    0.8046   -1.3224    1.6515 C   0  0  0  0  0  0  0  0  0  0  0  0
    0.0072   -2.0507    1.5499 H   0  0  0  0  0  0  0  0  0  0  0  0
    0.6612   -0.7743    2.5863 H   0  0  0  0  0  0  0  0  0  0  0  0
    2.0854   -2.1535    1.7523 C   0  0  0  0  0  0  0  0  0  0  0  0
    2.9257   -2.1022    0.8706 O   0  0  0  0  0  0  0  0  0  0  0  0
    2.2128   -2.9248    2.8555 O   0  0  0  0  0  0  0  0  0  0  0  0
    3.0619   -3.3833    2.7586 H   0  0  0  0  0  0  0  0  0  0  0  0
   -0.1393    1.5424   -0.8674 C   0  0  0  0  0  0  0  0  0  0  0  0
    0.4641    1.1982   -1.8740 O   0  0  0  0  0  0  0  0  0  0  0  0
   -0.6148    2.8387   -0.7919 N   0  0  0  0  0  0  0  0  0  0  0  0
   -1.2150    3.0728   -0.0067 H   0  0  0  0  0  0  0  0  0  0  0  0
   -0.4446    3.8156   -1.8617 C   0  0  0  0  0  0  0  0  0  0  0  0
   -0.9585    3.4831   -2.7698 H   0  0  0  0  0  0  0  0  0  0  0  0
   -0.8607    4.7822   -1.5617 H   0  0  0  0  0  0  0  0  0  0  0  0
    0.6177    3.9545   -2.0894 H   0  0  0  0  0  0  0  0  0  0  0  0
  1  2  1  0  0  0  0
  2  3  1  0  0  0  0
  2  4  1  0  0  0  0
  2  5  1  0  0  0  0
  5  6  2  0  0  0  0
  5  7  1  0  0  0  0
  7  8  1  0  0  0  0
  7  9  1  0  0  0  0
  9 10  1  0  0  0  0
  9 11  1  0  0  0  0
  9 21  1  0  0  0  0
 11 12  1  0  0  0  0
 11 13  1  0  0  0  0
 11 14  1  0  0  0  0
 14 15  1  0  0  0  0
 14 16  1  0  0  0  0
 14 17  1  0  0  0  0
 17 18  2  0  0  0  0
 17 19  1  0  0  0  0
 19 20  1  0  0  0  0
 21 22  2  0  0  0  0
 21 23  1  0  0  0  0
 23 24  1  0  0  0  0
 23 25  1  0  0  0  0
 25 26  1  0  0  0  0
 25 27  1  0  0  0  0
 25 28  1  0  0  0  0
M  END
$$$$

  -OEChem-01062216073D

 28 27  0     1  0  0  0  0  0999 V2000
   -3.5979   -1.6627    1.7796 H   0  0  0  0  0  0  0  0  0  0  0  0
   -2.5167   -1.7443    1.6406 C   0  0  0  0  0  0  0  0  0  0  0  0
   -2.0261   -1.0645    2.3407 H   0  0  0  0  0  0  0  0  0  0  0  0
   -2.2093   -2.7702    1.8593 H   0  0  0  0  0  0  0  0  0  0  0  0
   -2.1609   -1.3877    0.2056 C   0  0  0  0  0  0  0  0  0  0  0  0
   -2.6769   -2.0130   -0.7002 O   0  0  0  0  0  0  0  0  0  0  0  0
   -1.7474   -0.1252   -0.1340 N   0  0  0  0  0  0  0  0  0  0  0  0
   -1.9514    0.0037   -1.1267 H   0  0  0  0  0  0  0  0  0  0  0  0
   -0.4885    0.5425    0.2612 C   0  0  1  0  0  0  0  0  0  0  0  0
   -0.6667    1.1076    1.1807 H   0  0  0  0  0  0  0  0  0  0  0  0
    0.7860   -0.3325    0.4612 C   0  0  0  0  0  0  0  0  0  0  0  0
    0.9509   -0.9032   -0.4614 H   0  0  0  0  0  0  0  0  0  0  0  0
    1.6456    0.3371    0.5824 H   0  0  0  0  0  0  0  0  0  0  0  0
    0.7981   -1.3268    1.6414 C   0  0  0  0  0  0  0  0  0  0  0  0
    0.0040   -2.0575    1.5276 H   0  0  0  0  0  0  0  0  0  0  0  0
    0.6462   -0.7878    2.5801 H   0  0  0  0  0  0  0  0  0  0  0  0
    2.0826   -2.1523    1.7427 C   0  0  0  0  0  0  0  0  0  0  0  0
    2.9272   -2.0880    0.8658 O   0  0  0  0  0  0  0  0  0  0  0  0
    2.2082   -2.9333    2.8393 O   0  0  0  0  0  0  0  0  0  0  0  0
    3.0591   -3.3886    2.7423 H   0  0  0  0  0  0  0  0  0  0  0  0
   -0.1167    1.5283   -0.8731 C   0  0  0  0  0  0  0  0  0  0  0  0
    0.2248    1.1204   -1.9746 O   0  0  0  0  0  0  0  0  0  0  0  0
   -0.3034    2.8870   -0.6951 N   0  0  0  0  0  0  0  0  0  0  0  0
   -0.6983    3.1978    0.1872 H   0  0  0  0  0  0  0  0  0  0  0  0
   -0.1049    3.8648   -1.7592 C   0  0  0  0  0  0  0  0  0  0  0  0
   -0.8054    3.6837   -2.5813 H   0  0  0  0  0  0  0  0  0  0  0  0
   -0.2705    4.8775   -1.3793 H   0  0  0  0  0  0  0  0  0  0  0  0
    0.9172    3.8062   -2.1483 H   0  0  0  0  0  0  0  0  0  0  0  0
  1  2  1  0  0  0  0
  2  3  1  0  0  0  0
  2  4  1  0  0  0  0
  2  5  1  0  0  0  0
  5  6  2  0  0  0  0
  5  7  1  0  0  0  0
  7  8  1  0  0  0  0
  7  9  1  0  0  0  0
  9 10  1  0  0  0  0
  9 11  1  0  0  0  0
  9 21  1  0  0  0  0
 11 12  1  0  0  0  0
 11 13  1  0  0  0  0
 11 14  1  0  0  0  0
 14 15  1  0  0  0  0
 14 16  1  0  0  0  0
 14 17  1  0  0  0  0
 17 18  2  0  0  0  0
 17 19  1  0  0  0  0
 19 20  1  0  0  0  0
 21 22  2  0  0  0  0
 21 23  1  0  0  0  0
 23 24  1  0  0  0  0
 23 25  1  0  0  0  0
 25 26  1  0  0  0  0
 25 27  1  0  0  0  0
 25 28  1  0  0  0  0
M  END
$$$$

  -OEChem-01062216073D

 28 27  0     1  0  0  0  0  0999 V2000
   -3.5934   -1.6364    1.8121 H   0  0  0  0  0  0  0  0  0  0  0  0
   -2.5145   -1.7271    1.6631 C   0  0  0  0  0  0  0  0  0  0  0  0
   -2.0124   -1.0422    2.3497 H   0  0  0  0  0  0  0  0  0  0  0  0
   -2.2113   -2.7521    1.8913 H   0  0  0  0  0  0  0  0  0  0  0  0
   -2.1713   -1.3906    0.2199 C   0  0  0  0  0  0  0  0  0  0  0  0
   -2.6827   -2.0388   -0.6727 O   0  0  0  0  0  0  0  0  0  0  0  0
   -1.7559   -0.1343   -0.1410 N   0  0  0  0  0  0  0  0  0  0  0  0
   -1.9491   -0.0190   -1.1387 H   0  0  0  0  0  0  0  0  0  0  0  0
   -0.5005    0.5413    0.2511 C   0  0  1  0  0  0  0  0  0  0  0  0
   -0.6826    1.1170    1.1630 H   0  0  0  0  0  0  0  0  0  0  0  0
    0.7769   -0.3272    0.4489 C   0  0  0  0  0  0  0  0  0  0  0  0
    0.9414   -0.8954   -0.4753 H   0  0  0  0  0  0  0  0  0  0  0  0
    1.6344    0.3453    0.5695 H   0  0  0  0  0  0  0  0  0  0  0  0
    0.7975   -1.3214    1.6289 C   0  0  0  0  0  0  0  0  0  0  0  0
    0.0070   -2.0568    1.5162 H   0  0  0  0  0  0  0  0  0  0  0  0
    0.6449   -0.7843    2.5686 H   0  0  0  0  0  0  0  0  0  0  0  0
    2.0873   -2.1394    1.7250 C   0  0  0  0  0  0  0  0  0  0  0  0
    2.9278   -2.0688    0.8446 O   0  0  0  0  0  0  0  0  0  0  0  0
    2.2229   -2.9194    2.8211 O   0  0  0  0  0  0  0  0  0  0  0  0
    3.0745   -3.3720    2.7189 H   0  0  0  0  0  0  0  0  0  0  0  0
   -0.1166    1.5061   -0.8961 C   0  0  0  0  0  0  0  0  0  0  0  0
   -0.0285    1.0958   -2.0453 O   0  0  0  0  0  0  0  0  0  0  0  0
   -0.0021    2.8642   -0.6602 N   0  0  0  0  0  0  0  0  0  0  0  0
   -0.1644    3.1979    0.2848 H   0  0  0  0  0  0  0  0  0  0  0  0
    0.2459    3.8377   -1.7179 C   0  0  0  0  0  0  0  0  0  0  0  0
   -0.5802    3.8414   -2.4369 H   0  0  0  0  0  0  0  0  0  0  0  0
    0.3408    4.8421   -1.2942 H   0  0  0  0  0  0  0  0  0  0  0  0
    1.1737    3.5993   -2.2491 H   0  0  0  0  0  0  0  0  0  0  0  0
  1  2  1  0  0  0  0
  2  3  1  0  0  0  0
  2  4  1  0  0  0  0
  2  5  1  0  0  0  0
  5  6  2  0  0  0  0
  5  7  1  0  0  0  0
  7  8  1  0  0  0  0
  7  9  1  0  0  0  0
  9 10  1  0  0  0  0
  9 11  1  0  0  0  0
  9 21  1  0  0  0  0
 11 12  1  0  0  0  0
 11 13  1  0  0  0  0
 11 14  1  0  0  0  0
 14 15  1  0  0  0  0
 14 16  1  0  0  0  0
 14 17  1  0  0  0  0
 17 18  2  0  0  0  0
 17 19  1  0  0  0  0
 19 20  1  0  0  0  0
 21 22  2  0  0  0  0
 21 23  1  0  0  0  0
 23 24  1  0  0  0  0
 23 25  1  0  0  0  0
 25 26  1  0  0  0  0
 25 27  1  0  0  0  0
 25 28  1  0  0  0  0
M  END
$$$$

  -OEChem-01062216073D

 28 27  0     1  0  0  0  0  0999 V2000
   -3.5997   -1.6122    1.8210 H   0  0  0  0  0  0  0  0  0  0  0  0
   -2.5219   -1.7125    1.6708 C   0  0  0  0  0  0  0  0  0  0  0  0
   -2.0128   -1.0241    2.3486 H   0  0  0  0  0  0  0  0  0  0  0  0
   -2.2259   -2.7372    1.9092 H   0  0  0  0  0  0  0  0  0  0  0  0
   -2.1806   -1.3944    0.2232 C   0  0  0  0  0  0  0  0  0  0  0  0
   -2.6889   -2.0581   -0.6596 O   0  0  0  0  0  0  0  0  0  0  0  0
   -1.7618   -0.1436   -0.1523 N   0  0  0  0  0  0  0  0  0  0  0  0
   -1.9560   -0.0310   -1.1509 H   0  0  0  0  0  0  0  0  0  0  0  0
   -0.5075    0.5384    0.2317 C   0  0  1  0  0  0  0  0  0  0  0  0
   -0.6901    1.1241    1.1372 H   0  0  0  0  0  0  0  0  0  0  0  0
    0.7690   -0.3298    0.4294 C   0  0  0  0  0  0  0  0  0  0  0  0
    0.9280   -0.9014   -0.4939 H   0  0  0  0  0  0  0  0  0  0  0  0
    1.6287    0.3411    0.5443 H   0  0  0  0  0  0  0  0  0  0  0  0
    0.7921   -1.3177    1.6147 C   0  0  0  0  0  0  0  0  0  0  0  0
   -0.0001   -2.0525    1.5099 H   0  0  0  0  0  0  0  0  0  0  0  0
    0.6439   -0.7743    2.5516 H   0  0  0  0  0  0  0  0  0  0  0  0
    2.0813   -2.1365    1.7107 C   0  0  0  0  0  0  0  0  0  0  0  0
    2.9184   -2.0710    0.8264 O   0  0  0  0  0  0  0  0  0  0  0  0
    2.2212   -2.9091    2.8114 O   0  0  0  0  0  0  0  0  0  0  0  0
    3.0726   -3.3624    2.7096 H   0  0  0  0  0  0  0  0  0  0  0  0
   -0.1158    1.4897   -0.9245 C   0  0  0  0  0  0  0  0  0  0  0  0
   -0.2594    1.1388   -2.0883 O   0  0  0  0  0  0  0  0  0  0  0  0
    0.3000    2.7821   -0.6596 N   0  0  0  0  0  0  0  0  0  0  0  0
    0.3594    3.0740    0.3110 H   0  0  0  0  0  0  0  0  0  0  0  0
    0.6042    3.7507   -1.7071 C   0  0  0  0  0  0  0  0  0  0  0  0
   -0.2857    3.9523   -2.3129 H   0  0  0  0  0  0  0  0  0  0  0  0
    0.9431    4.6928   -1.2657 H   0  0  0  0  0  0  0  0  0  0  0  0
    1.3965    3.3721   -2.3619 H   0  0  0  0  0  0  0  0  0  0  0  0
  1  2  1  0  0  0  0
  2  3  1  0  0  0  0
  2  4  1  0  0  0  0
  2  5  1  0  0  0  0
  5  6  2  0  0  0  0
  5  7  1  0  0  0  0
  7  8  1  0  0  0  0
  7  9  1  0  0  0  0
  9 10  1  0  0  0  0
  9 11  1  0  0  0  0
  9 21  1  0  0  0  0
 11 12  1  0  0  0  0
 11 13  1  0  0  0  0
 11 14  1  0  0  0  0
 14 15  1  0  0  0  0
 14 16  1  0  0  0  0
 14 17  1  0  0  0  0
 17 18  2  0  0  0  0
 17 19  1  0  0  0  0
 19 20  1  0  0  0  0
 21 22  2  0  0  0  0
 21 23  1  0  0  0  0
 23 24  1  0  0  0  0
 23 25  1  0  0  0  0
 25 26  1  0  0  0  0
 25 27  1  0  0  0  0
 25 28  1  0  0  0  0
M  END
$$$$

  -OEChem-01062216073D

 28 27  0     1  0  0  0  0  0999 V2000
   -3.6029   -1.6149    1.8293 H   0  0  0  0  0  0  0  0  0  0  0  0
   -2.5241   -1.7107    1.6820 C   0  0  0  0  0  0  0  0  0  0  0  0
   -2.0200   -1.0104    2.3513 H   0  0  0  0  0  0  0  0  0  0  0  0
   -2.2223   -2.7303    1.9348 H   0  0  0  0  0  0  0  0  0  0  0  0
   -2.1825   -1.4094    0.2307 C   0  0  0  0  0  0  0  0  0  0  0  0
   -2.6798   -2.0917   -0.6442 O   0  0  0  0  0  0  0  0  0  0  0  0
   -1.7695   -0.1611   -0.1594 N   0  0  0  0  0  0  0  0  0  0  0  0
   -1.9777   -0.0459   -1.1555 H   0  0  0  0  0  0  0  0  0  0  0  0
   -0.5185    0.5350    0.2113 C   0  0  1  0  0  0  0  0  0  0  0  0
   -0.7009    1.1314    1.1100 H   0  0  0  0  0  0  0  0  0  0  0  0
    0.7602   -0.3303    0.4120 C   0  0  0  0  0  0  0  0  0  0  0  0
    0.9129   -0.9113   -0.5066 H   0  0  0  0  0  0  0  0  0  0  0  0
    1.6218    0.3395    0.5160 H   0  0  0  0  0  0  0  0  0  0  0  0
    0.7922   -1.3065    1.6068 C   0  0  0  0  0  0  0  0  0  0  0  0
    0.0008   -2.0437    1.5149 H   0  0  0  0  0  0  0  0  0  0  0  0
    0.6485   -0.7549    2.5397 H   0  0  0  0  0  0  0  0  0  0  0  0
    2.0844   -2.1210    1.7014 C   0  0  0  0  0  0  0  0  0  0  0  0
    2.9146   -2.0605    0.8102 O   0  0  0  0  0  0  0  0  0  0  0  0
    2.2337   -2.8857    2.8063 O   0  0  0  0  0  0  0  0  0  0  0  0
    3.0838   -3.3406    2.7007 H   0  0  0  0  0  0  0  0  0  0  0  0
   -0.1299    1.4775   -0.9554 C   0  0  0  0  0  0  0  0  0  0  0  0
   -0.4837    1.2268   -2.1007 O   0  0  0  0  0  0  0  0  0  0  0  0
    0.5635    2.6495   -0.7101 N   0  0  0  0  0  0  0  0  0  0  0  0
    0.8285    2.8550    0.2482 H   0  0  0  0  0  0  0  0  0  0  0  0
    0.9218    3.5980   -1.7586 C   0  0  0  0  0  0  0  0  0  0  0  0
    0.0215    3.9959   -2.2389 H   0  0  0  0  0  0  0  0  0  0  0  0
    1.4867    4.4347   -1.3363 H   0  0  0  0  0  0  0  0  0  0  0  0
    1.5416    3.1123   -2.5198 H   0  0  0  0  0  0  0  0  0  0  0  0
  1  2  1  0  0  0  0
  2  3  1  0  0  0  0
  2  4  1  0  0  0  0
  2  5  1  0  0  0  0
  5  6  2  0  0  0  0
  5  7  1  0  0  0  0
  7  8  1  0  0  0  0
  7  9  1  0  0  0  0
  9 10  1  0  0  0  0
  9 11  1  0  0  0  0
  9 21  1  0  0  0  0
 11 12  1  0  0  0  0
 11 13  1  0  0  0  0
 11 14  1  0  0  0  0
 14 15  1  0  0  0  0
 14 16  1  0  0  0  0
 14 17  1  0  0  0  0
 17 18  2  0  0  0  0
 17 19  1  0  0  0  0
 19 20  1  0  0  0  0
 21 22  2  0  0  0  0
 21 23  1  0  0  0  0
 23 24  1  0  0  0  0
 23 25  1  0  0  0  0
 25 26  1  0  0  0  0
 25 27  1  0  0  0  0
 25 28  1  0  0  0  0
M  END
$$$$

  -OEChem-01062216073D

 28 27  0     1  0  0  0  0  0999 V2000
   -3.5950   -1.6232    1.8433 H   0  0  0  0  0  0  0  0  0  0  0  0
   -2.5164   -1.7177    1.6938 C   0  0  0  0  0  0  0  0  0  0  0  0
   -2.0124   -1.0141    2.3599 H   0  0  0  0  0  0  0  0  0  0  0  0
   -2.2120   -2.7357    1.9490 H   0  0  0  0  0  0  0  0  0  0  0  0
   -2.1789   -1.4202    0.2409 C   0  0  0  0  0  0  0  0  0  0  0  0
   -2.6769   -2.1067   -0.6304 O   0  0  0  0  0  0  0  0  0  0  0  0
   -1.7681   -0.1723   -0.1527 N   0  0  0  0  0  0  0  0  0  0  0  0
   -2.0034   -0.0387   -1.1408 H   0  0  0  0  0  0  0  0  0  0  0  0
   -0.5186    0.5355    0.2033 C   0  0  1  0  0  0  0  0  0  0  0  0
   -0.6945    1.1391    1.0986 H   0  0  0  0  0  0  0  0  0  0  0  0
    0.7584   -0.3359    0.4020 C   0  0  0  0  0  0  0  0  0  0  0  0
    0.9010   -0.9228   -0.5141 H   0  0  0  0  0  0  0  0  0  0  0  0
    1.6265    0.3252    0.4989 H   0  0  0  0  0  0  0  0  0  0  0  0
    0.7957   -1.3035    1.6040 C   0  0  0  0  0  0  0  0  0  0  0  0
    0.0019   -2.0392    1.5242 H   0  0  0  0  0  0  0  0  0  0  0  0
    0.6618   -0.7442    2.5338 H   0  0  0  0  0  0  0  0  0  0  0  0
    2.0850   -2.1227    1.6936 C   0  0  0  0  0  0  0  0  0  0  0  0
    2.9077   -2.0717    0.7947 O   0  0  0  0  0  0  0  0  0  0  0  0
    2.2409   -2.8795    2.8028 O   0  0  0  0  0  0  0  0  0  0  0  0
    3.0880   -3.3391    2.6940 H   0  0  0  0  0  0  0  0  0  0  0  0
   -0.1463    1.4764   -0.9745 C   0  0  0  0  0  0  0  0  0  0  0  0
   -0.6963    1.3596   -2.0630 O   0  0  0  0  0  0  0  0  0  0  0  0
    0.7888    2.4841   -0.8111 N   0  0  0  0  0  0  0  0  0  0  0  0
    1.2343    2.5780    0.0964 H   0  0  0  0  0  0  0  0  0  0  0  0
    1.1684    3.4011   -1.8802 C   0  0  0  0  0  0  0  0  0  0  0  0
    0.3015    3.9824   -2.2121 H   0  0  0  0  0  0  0  0  0  0  0  0
    1.9366    4.0966   -1.5285 H   0  0  0  0  0  0  0  0  0  0  0  0
    1.5695    2.8475   -2.7361 H   0  0  0  0  0  0  0  0  0  0  0  0
  1  2  1  0  0  0  0
  2  3  1  0  0  0  0
  2  4  1  0  0  0  0
  2  5  1  0  0  0  0
  5  6  2  0  0  0  0
  5  7  1  0  0  0  0
  7  8  1  0  0  0  0
  7  9  1  0  0  0  0
  9 10  1  0  0  0  0
  9 11  1  0  0  0  0
  9 21  1  0  0  0  0
 11 12  1  0  0  0  0
 11 13  1  0  0  0  0
 11 14  1  0  0  0  0
 14 15  1  0  0  0  0
 14 16  1  0  0  0  0
 14 17  1  0  0  0  0
 17 18  2  0  0  0  0
 17 19  1  0  0  0  0
 19 20  1  0  0  0  0
 21 22  2  0  0  0  0
 21 23  1  0  0  0  0
 23 24  1  0  0  0  0
 23 25  1  0  0  0  0
 25 26  1  0  0  0  0
 25 27  1  0  0  0  0
 25 28  1  0  0  0  0
M  END
$$$$

  -OEChem-01062216073D

 28 27  0     1  0  0  0  0  0999 V2000
   -1.8490   -3.0387    1.2056 H   0  0  0  0  0  0  0  0  0  0  0  0
   -2.1847   -2.2710    0.5044 C   0  0  0  0  0  0  0  0  0  0  0  0
   -1.5018   -2.2345   -0.3457 H   0  0  0  0  0  0  0  0  0  0  0  0
   -3.1756   -2.5453    0.1334 H   0  0  0  0  0  0  0  0  0  0  0  0
   -2.2633   -0.9199    1.2014 C   0  0  0  0  0  0  0  0  0  0  0  0
   -3.1619   -0.7375    2.0011 O   0  0  0  0  0  0  0  0  0  0  0  0
   -1.7655    0.2340    0.6476 N   0  0  0  0  0  0  0  0  0  0  0  0
   -2.3981    1.0118    0.8364 H   0  0  0  0  0  0  0  0  0  0  0  0
   -0.3674    0.6684    0.4109 C   0  0  1  0  0  0  0  0  0  0  0  0
   -0.0274    1.0855    1.3642 H   0  0  0  0  0  0  0  0  0  0  0  0
    0.6825   -0.4099    0.0371 C   0  0  0  0  0  0  0  0  0  0  0  0
    0.3243   -0.9453   -0.8487 H   0  0  0  0  0  0  0  0  0  0  0  0
    1.6224    0.0745   -0.2441 H   0  0  0  0  0  0  0  0  0  0  0  0
    1.0096   -1.4197    1.1652 C   0  0  0  0  0  0  0  0  0  0  0  0
    0.1273   -1.9352    1.5288 H   0  0  0  0  0  0  0  0  0  0  0  0
    1.4242   -0.8697    2.0147 H   0  0  0  0  0  0  0  0  0  0  0  0
    2.0297   -2.4842    0.7571 C   0  0  0  0  0  0  0  0  0  0  0  0
    2.4037   -2.5559   -0.4018 O   0  0  0  0  0  0  0  0  0  0  0  0
    2.4683   -3.3097    1.7337 O   0  0  0  0  0  0  0  0  0  0  0  0
    3.0939   -3.9182    1.3107 H   0  0  0  0  0  0  0  0  0  0  0  0
   -0.3272    1.8692   -0.5741 C   0  0  0  0  0  0  0  0  0  0  0  0
   -1.3645    2.3941   -0.9582 O   0  0  0  0  0  0  0  0  0  0  0  0
    0.8717    2.4522   -0.9502 N   0  0  0  0  0  0  0  0  0  0  0  0
    1.7312    2.0354   -0.6066 H   0  0  0  0  0  0  0  0  0  0  0  0
    0.9573    3.6171   -1.8249 C   0  0  0  0  0  0  0  0  0  0  0  0
    0.4419    4.4731   -1.3763 H   0  0  0  0  0  0  0  0  0  0  0  0
    2.0037    3.8918   -1.9890 H   0  0  0  0  0  0  0  0  0  0  0  0
    0.5004    3.4009   -2.7965 H   0  0  0  0  0  0  0  0  0  0  0  0
  1  2  1  0  0  0  0
  2  3  1  0  0  0  0
  2  4  1  0  0  0  0
  2  5  1  0  0  0  0
  5  6  2  0  0  0  0
  5  7  1  0  0  0  0
  7  8  1  0  0  0  0
  7  9  1  0  0  0  0
  9 10  1  0  0  0  0
  9 11  1  0  0  0  0
  9 21  1  0  0  0  0
 11 12  1  0  0  0  0
 11 13  1  0  0  0  0
 11 14  1  0  0  0  0
 14 15  1  0  0  0  0
 14 16  1  0  0  0  0
 14 17  1  0  0  0  0
 17 18  2  0  0  0  0
 17 19  1  0  0  0  0
 19 20  1  0  0  0  0
 21 22  2  0  0  0  0
 21 23  1  0  0  0  0
 23 24  1  0  0  0  0
 23 25  1  0  0  0  0
 25 26  1  0  0  0  0
 25 27  1  0  0  0  0
 25 28  1  0  0  0  0
M  END
$$$$

  -OEChem-01062216073D

 28 27  0     1  0  0  0  0  0999 V2000
   -1.8602   -3.0305    1.1947 H   0  0  0  0  0  0  0  0  0  0  0  0
   -2.1696   -2.2591    0.4855 C   0  0  0  0  0  0  0  0  0  0  0  0
   -1.4671   -2.2326   -0.3485 H   0  0  0  0  0  0  0  0  0  0  0  0
   -3.1553   -2.5206    0.0918 H   0  0  0  0  0  0  0  0  0  0  0  0
   -2.2471   -0.9073    1.1809 C   0  0  0  0  0  0  0  0  0  0  0  0
   -3.1571   -0.7189    1.9659 O   0  0  0  0  0  0  0  0  0  0  0  0
   -1.7294    0.2435    0.6383 N   0  0  0  0  0  0  0  0  0  0  0  0
   -2.3464    1.0312    0.8406 H   0  0  0  0  0  0  0  0  0  0  0  0
   -0.3252    0.6615    0.4114 C   0  0  1  0  0  0  0  0  0  0  0  0
    0.0160    1.0766    1.3652 H   0  0  0  0  0  0  0  0  0  0  0  0
    0.7170   -0.4283    0.0487 C   0  0  0  0  0  0  0  0  0  0  0  0
    0.3655   -0.9604   -0.8418 H   0  0  0  0  0  0  0  0  0  0  0  0
    1.6671    0.0456   -0.2148 H   0  0  0  0  0  0  0  0  0  0  0  0
    1.0236   -1.4383    1.1824 C   0  0  0  0  0  0  0  0  0  0  0  0
    0.1329   -1.9445    1.5387 H   0  0  0  0  0  0  0  0  0  0  0  0
    1.4357   -0.8905    2.0344 H   0  0  0  0  0  0  0  0  0  0  0  0
    2.0365   -2.5136    0.7841 C   0  0  0  0  0  0  0  0  0  0  0  0
    2.4186   -2.5901   -0.3720 O   0  0  0  0  0  0  0  0  0  0  0  0
    2.4571   -3.3443    1.7640 O   0  0  0  0  0  0  0  0  0  0  0  0
    3.0797   -3.9597    1.3467 H   0  0  0  0  0  0  0  0  0  0  0  0
   -0.2900    1.8692   -0.5668 C   0  0  0  0  0  0  0  0  0  0  0  0
   -1.2937    2.5529   -0.7257 O   0  0  0  0  0  0  0  0  0  0  0  0
    0.8744    2.2775   -1.1965 N   0  0  0  0  0  0  0  0  0  0  0  0
    1.7069    1.7108   -1.0707 H   0  0  0  0  0  0  0  0  0  0  0  0
    0.9379    3.4244   -2.0961 C   0  0  0  0  0  0  0  0  0  0  0  0
    0.6301    4.3379   -1.5762 H   0  0  0  0  0  0  0  0  0  0  0  0
    1.9600    3.5643   -2.4608 H   0  0  0  0  0  0  0  0  0  0  0  0
    0.2802    3.2717   -2.9585 H   0  0  0  0  0  0  0  0  0  0  0  0
  1  2  1  0  0  0  0
  2  3  1  0  0  0  0
  2  4  1  0  0  0  0
  2  5  1  0  0  0  0
  5  6  2  0  0  0  0
  5  7  1  0  0  0  0
  7  8  1  0  0  0  0
  7  9  1  0  0  0  0
  9 10  1  0  0  0  0
  9 11  1  0  0  0  0
  9 21  1  0  0  0  0
 11 12  1  0  0  0  0
 11 13  1  0  0  0  0
 11 14  1  0  0  0  0
 14 15  1  0  0  0  0
 14 16  1  0  0  0  0
 14 17  1  0  0  0  0
 17 18  2  0  0  0  0
 17 19  1  0  0  0  0
 19 20  1  0  0  0  0
 21 22  2  0  0  0  0
 21 23  1  0  0  0  0
 23 24  1  0  0  0  0
 23 25  1  0  0  0  0
 25 26  1  0  0  0  0
 25 27  1  0  0  0  0
 25 28  1  0  0  0  0
M  END
$$$$

  -OEChem-01062216073D

 28 27  0     1  0  0  0  0  0999 V2000
   -1.8729   -3.0034    1.1953 H   0  0  0  0  0  0  0  0  0  0  0  0
   -2.1736   -2.2298    0.4849 C   0  0  0  0  0  0  0  0  0  0  0  0
   -1.4733   -2.2160   -0.3513 H   0  0  0  0  0  0  0  0  0  0  0  0
   -3.1643   -2.4782    0.0954 H   0  0  0  0  0  0  0  0  0  0  0  0
   -2.2294   -0.8753    1.1773 C   0  0  0  0  0  0  0  0  0  0  0  0
   -3.1276   -0.6740    1.9723 O   0  0  0  0  0  0  0  0  0  0  0  0
   -1.7004    0.2669    0.6279 N   0  0  0  0  0  0  0  0  0  0  0  0
   -2.2914    1.0662    0.8615 H   0  0  0  0  0  0  0  0  0  0  0  0
   -0.2889    0.6559    0.3997 C   0  0  1  0  0  0  0  0  0  0  0  0
    0.0581    1.0750    1.3498 H   0  0  0  0  0  0  0  0  0  0  0  0
    0.7412   -0.4497    0.0524 C   0  0  0  0  0  0  0  0  0  0  0  0
    0.3906   -0.9864   -0.8356 H   0  0  0  0  0  0  0  0  0  0  0  0
    1.6982    0.0151   -0.2043 H   0  0  0  0  0  0  0  0  0  0  0  0
    1.0314   -1.4509    1.1974 C   0  0  0  0  0  0  0  0  0  0  0  0
    0.1327   -1.9434    1.5540 H   0  0  0  0  0  0  0  0  0  0  0  0
    1.4463   -0.8995    2.0460 H   0  0  0  0  0  0  0  0  0  0  0  0
    2.0329   -2.5414    0.8130 C   0  0  0  0  0  0  0  0  0  0  0  0
    2.4178   -2.6339   -0.3412 O   0  0  0  0  0  0  0  0  0  0  0  0
    2.4415   -3.3660    1.8028 O   0  0  0  0  0  0  0  0  0  0  0  0
    3.0604   -3.9910    1.3947 H   0  0  0  0  0  0  0  0  0  0  0  0
   -0.2459    1.8570   -0.5844 C   0  0  0  0  0  0  0  0  0  0  0  0
   -1.1445    2.6882   -0.5507 O   0  0  0  0  0  0  0  0  0  0  0  0
    0.8107    2.0776   -1.4527 N   0  0  0  0  0  0  0  0  0  0  0  0
    1.5320    1.3658   -1.5112 H   0  0  0  0  0  0  0  0  0  0  0  0
    0.8602    3.2013   -2.3819 C   0  0  0  0  0  0  0  0  0  0  0  0
    0.8289    4.1511   -1.8376 H   0  0  0  0  0  0  0  0  0  0  0  0
    1.7850    3.1695   -2.9660 H   0  0  0  0  0  0  0  0  0  0  0  0
    0.0121    3.1642   -3.0739 H   0  0  0  0  0  0  0  0  0  0  0  0
  1  2  1  0  0  0  0
  2  3  1  0  0  0  0
  2  4  1  0  0  0  0
  2  5  1  0  0  0  0
  5  6  2  0  0  0  0
  5  7  1  0  0  0  0
  7  8  1  0  0  0  0
  7  9  1  0  0  0  0
  9 10  1  0  0  0  0
  9 11  1  0  0  0  0
  9 21  1  0  0  0  0
 11 12  1  0  0  0  0
 11 13  1  0  0  0  0
 11 14  1  0  0  0  0
 14 15  1  0  0  0  0
 14 16  1  0  0  0  0
 14 17  1  0  0  0  0
 17 18  2  0  0  0  0
 17 19  1  0  0  0  0
 19 20  1  0  0  0  0
 21 22  2  0  0  0  0
 21 23  1  0  0  0  0
 23 24  1  0  0  0  0
 23 25  1  0  0  0  0
 25 26  1  0  0  0  0
 25 27  1  0  0  0  0
 25 28  1  0  0  0  0
M  END
$$$$

  -OEChem-01062216073D

 28 27  0     1  0  0  0  0  0999 V2000
   -1.8780   -2.9743    1.2194 H   0  0  0  0  0  0  0  0  0  0  0  0
   -2.1764   -2.2038    0.5045 C   0  0  0  0  0  0  0  0  0  0  0  0
   -1.4817   -2.2035   -0.3365 H   0  0  0  0  0  0  0  0  0  0  0  0
   -3.1722   -2.4461    0.1241 H   0  0  0  0  0  0  0  0  0  0  0  0
   -2.2145   -0.8429    1.1850 C   0  0  0  0  0  0  0  0  0  0  0  0
   -3.1037   -0.6245    1.9855 O   0  0  0  0  0  0  0  0  0  0  0  0
   -1.6782    0.2885    0.6203 N   0  0  0  0  0  0  0  0  0  0  0  0
   -2.2486    1.0967    0.8744 H   0  0  0  0  0  0  0  0  0  0  0  0
   -0.2621    0.6535    0.3869 C   0  0  1  0  0  0  0  0  0  0  0  0
    0.0922    1.0798    1.3314 H   0  0  0  0  0  0  0  0  0  0  0  0
    0.7586   -0.4625    0.0486 C   0  0  0  0  0  0  0  0  0  0  0  0
    0.4043   -1.0043   -0.8347 H   0  0  0  0  0  0  0  0  0  0  0  0
    1.7169   -0.0005   -0.2126 H   0  0  0  0  0  0  0  0  0  0  0  0
    1.0427   -1.4579    1.2002 C   0  0  0  0  0  0  0  0  0  0  0  0
    0.1406   -1.9414    1.5600 H   0  0  0  0  0  0  0  0  0  0  0  0
    1.4624   -0.9044    2.0449 H   0  0  0  0  0  0  0  0  0  0  0  0
    2.0355   -2.5585    0.8218 C   0  0  0  0  0  0  0  0  0  0  0  0
    2.4174   -2.6608   -0.3327 O   0  0  0  0  0  0  0  0  0  0  0  0
    2.4374   -3.3820    1.8156 O   0  0  0  0  0  0  0  0  0  0  0  0
    3.0515   -4.0142    1.4112 H   0  0  0  0  0  0  0  0  0  0  0  0
   -0.2104    1.8395   -0.6101 C   0  0  0  0  0  0  0  0  0  0  0  0
   -0.9621    2.7897   -0.4369 O   0  0  0  0  0  0  0  0  0  0  0  0
    0.6700    1.8815   -1.6783 N   0  0  0  0  0  0  0  0  0  0  0  0
    1.2412    1.0602   -1.8518 H   0  0  0  0  0  0  0  0  0  0  0  0
    0.7022    2.9744   -2.6435 C   0  0  0  0  0  0  0  0  0  0  0  0
    0.9028    3.9260   -2.1397 H   0  0  0  0  0  0  0  0  0  0  0  0
    1.4907    2.8034   -3.3827 H   0  0  0  0  0  0  0  0  0  0  0  0
   -0.2555    3.0497   -3.1693 H   0  0  0  0  0  0  0  0  0  0  0  0
  1  2  1  0  0  0  0
  2  3  1  0  0  0  0
  2  4  1  0  0  0  0
  2  5  1  0  0  0  0
  5  6  2  0  0  0  0
  5  7  1  0  0  0  0
  7  8  1  0  0  0  0
  7  9  1  0  0  0  0
  9 10  1  0  0  0  0
  9 11  1  0  0  0  0
  9 21  1  0  0  0  0
 11 12  1  0  0  0  0
 11 13  1  0  0  0  0
 11 14  1  0  0  0  0
 14 15  1  0  0  0  0
 14 16  1  0  0  0  0
 14 17  1  0  0  0  0
 17 18  2  0  0  0  0
 17 19  1  0  0  0  0
 19 20  1  0  0  0  0
 21 22  2  0  0  0  0
 21 23  1  0  0  0  0
 23 24  1  0  0  0  0
 23 25  1  0  0  0  0
 25 26  1  0  0  0  0
 25 27  1  0  0  0  0
 25 28  1  0  0  0  0
M  END
$$$$

  -OEChem-01062216073D

 28 27  0     1  0  0  0  0  0999 V2000
   -1.8805   -2.9611    1.2272 H   0  0  0  0  0  0  0  0  0  0  0  0
   -2.1801   -2.1890    0.5147 C   0  0  0  0  0  0  0  0  0  0  0  0
   -1.4953   -2.1965   -0.3343 H   0  0  0  0  0  0  0  0  0  0  0  0
   -3.1825   -2.4233    0.1465 H   0  0  0  0  0  0  0  0  0  0  0  0
   -2.1968   -0.8268    1.1939 C   0  0  0  0  0  0  0  0  0  0  0  0
   -3.0777   -0.5957    1.9998 O   0  0  0  0  0  0  0  0  0  0  0  0
   -1.6554    0.2993    0.6237 N   0  0  0  0  0  0  0  0  0  0  0  0
   -2.2058    1.1113    0.9074 H   0  0  0  0  0  0  0  0  0  0  0  0
   -0.2368    0.6459    0.3820 C   0  0  1  0  0  0  0  0  0  0  0  0
    0.1283    1.0673    1.3249 H   0  0  0  0  0  0  0  0  0  0  0  0
    0.7726   -0.4756    0.0335 C   0  0  0  0  0  0  0  0  0  0  0  0
    0.4060   -1.0152   -0.8461 H   0  0  0  0  0  0  0  0  0  0  0  0
    1.7288   -0.0145   -0.2395 H   0  0  0  0  0  0  0  0  0  0  0  0
    1.0577   -1.4778    1.1783 C   0  0  0  0  0  0  0  0  0  0  0  0
    0.1544   -1.9565    1.5419 H   0  0  0  0  0  0  0  0  0  0  0  0
    1.4868   -0.9306    2.0225 H   0  0  0  0  0  0  0  0  0  0  0  0
    2.0402   -2.5833    0.7873 C   0  0  0  0  0  0  0  0  0  0  0  0
    2.4127   -2.6825   -0.3705 O   0  0  0  0  0  0  0  0  0  0  0  0
    2.4434   -3.4153    1.7733 O   0  0  0  0  0  0  0  0  0  0  0  0
    3.0526   -4.0470    1.3607 H   0  0  0  0  0  0  0  0  0  0  0  0
   -0.1752    1.8273   -0.6155 C   0  0  0  0  0  0  0  0  0  0  0  0
   -0.7387    2.8735   -0.3249 O   0  0  0  0  0  0  0  0  0  0  0  0
    0.4662    1.7326   -1.8391 N   0  0  0  0  0  0  0  0  0  0  0  0
    0.8534    0.8303   -2.0985 H   0  0  0  0  0  0  0  0  0  0  0  0
    0.4581    2.8044   -2.8282 C   0  0  0  0  0  0  0  0  0  0  0  0
    0.8659    3.7259   -2.3993 H   0  0  0  0  0  0  0  0  0  0  0  0
    1.0698    2.5278   -3.6924 H   0  0  0  0  0  0  0  0  0  0  0  0
   -0.5629    2.9985   -3.1730 H   0  0  0  0  0  0  0  0  0  0  0  0
  1  2  1  0  0  0  0
  2  3  1  0  0  0  0
  2  4  1  0  0  0  0
  2  5  1  0  0  0  0
  5  6  2  0  0  0  0
  5  7  1  0  0  0  0
  7  8  1  0  0  0  0
  7  9  1  0  0  0  0
  9 10  1  0  0  0  0
  9 11  1  0  0  0  0
  9 21  1  0  0  0  0
 11 12  1  0  0  0  0
 11 13  1  0  0  0  0
 11 14  1  0  0  0  0
 14 15  1  0  0  0  0
 14 16  1  0  0  0  0
 14 17  1  0  0  0  0
 17 18  2  0  0  0  0
 17 19  1  0  0  0  0
 19 20  1  0  0  0  0
 21 22  2  0  0  0  0
 21 23  1  0  0  0  0
 23 24  1  0  0  0  0
 23 25  1  0  0  0  0
 25 26  1  0  0  0  0
 25 27  1  0  0  0  0
 25 28  1  0  0  0  0
M  END
$$$$

  -OEChem-01062216073D

 28 27  0     1  0  0  0  0  0999 V2000
   -1.9029   -2.9548    1.2492 H   0  0  0  0  0  0  0  0  0  0  0  0
   -2.1840   -2.1829    0.5289 C   0  0  0  0  0  0  0  0  0  0  0  0
   -1.4919   -2.2080   -0.3139 H   0  0  0  0  0  0  0  0  0  0  0  0
   -3.1869   -2.4029    0.1536 H   0  0  0  0  0  0  0  0  0  0  0  0
   -2.1848   -0.8165    1.1991 C   0  0  0  0  0  0  0  0  0  0  0  0
   -3.0524   -0.5755    2.0162 O   0  0  0  0  0  0  0  0  0  0  0  0
   -1.6518    0.3028    0.6086 N   0  0  0  0  0  0  0  0  0  0  0  0
   -2.1917    1.1152    0.9097 H   0  0  0  0  0  0  0  0  0  0  0  0
   -0.2325    0.6403    0.3597 C   0  0  1  0  0  0  0  0  0  0  0  0
    0.1359    1.0701    1.2978 H   0  0  0  0  0  0  0  0  0  0  0  0
    0.7746   -0.4846    0.0187 C   0  0  0  0  0  0  0  0  0  0  0  0
    0.4043   -1.0343   -0.8527 H   0  0  0  0  0  0  0  0  0  0  0  0
    1.7273   -0.0233   -0.2677 H   0  0  0  0  0  0  0  0  0  0  0  0
    1.0629   -1.4779    1.1705 C   0  0  0  0  0  0  0  0  0  0  0  0
    0.1605   -1.9531    1.5412 H   0  0  0  0  0  0  0  0  0  0  0  0
    1.4960   -0.9237    2.0082 H   0  0  0  0  0  0  0  0  0  0  0  0
    2.0435   -2.5870    0.7845 C   0  0  0  0  0  0  0  0  0  0  0  0
    2.4120   -2.6958   -0.3738 O   0  0  0  0  0  0  0  0  0  0  0  0
    2.4506   -3.4104    1.7762 O   0  0  0  0  0  0  0  0  0  0  0  0
    3.0610   -4.0434    1.3678 H   0  0  0  0  0  0  0  0  0  0  0  0
   -0.1593    1.8031   -0.6549 C   0  0  0  0  0  0  0  0  0  0  0  0
   -0.4893    2.9242   -0.2955 O   0  0  0  0  0  0  0  0  0  0  0  0
    0.2071    1.5993   -1.9739 N   0  0  0  0  0  0  0  0  0  0  0  0
    0.3831    0.6440   -2.2698 H   0  0  0  0  0  0  0  0  0  0  0  0
    0.1815    2.6543   -2.9801 C   0  0  0  0  0  0  0  0  0  0  0  0
    0.8151    3.4932   -2.6729 H   0  0  0  0  0  0  0  0  0  0  0  0
    0.5537    2.2745   -3.9365 H   0  0  0  0  0  0  0  0  0  0  0  0
   -0.8405    3.0199   -3.1253 H   0  0  0  0  0  0  0  0  0  0  0  0
  1  2  1  0  0  0  0
  2  3  1  0  0  0  0
  2  4  1  0  0  0  0
  2  5  1  0  0  0  0
  5  6  2  0  0  0  0
  5  7  1  0  0  0  0
  7  8  1  0  0  0  0
  7  9  1  0  0  0  0
  9 10  1  0  0  0  0
  9 11  1  0  0  0  0
  9 21  1  0  0  0  0
 11 12  1  0  0  0  0
 11 13  1  0  0  0  0
 11 14  1  0  0  0  0
 14 15  1  0  0  0  0
 14 16  1  0  0  0  0
 14 17  1  0  0  0  0
 17 18  2  0  0  0  0
 17 19  1  0  0  0  0
 19 20  1  0  0  0  0
 21 22  2  0  0  0  0
 21 23  1  0  0  0  0
 23 24  1  0  0  0  0
 23 25  1  0  0  0  0
 25 26  1  0  0  0  0
 25 27  1  0  0  0  0
 25 28  1  0  0  0  0
M  END
$$$$

  -OEChem-01062216073D

 28 27  0     1  0  0  0  0  0999 V2000
   -1.8962   -2.9654    1.2630 H   0  0  0  0  0  0  0  0  0  0  0  0
   -2.1783   -2.2056    0.5302 C   0  0  0  0  0  0  0  0  0  0  0  0
   -1.4796   -2.2370   -0.3068 H   0  0  0  0  0  0  0  0  0  0  0  0
   -3.1769   -2.4381    0.1509 H   0  0  0  0  0  0  0  0  0  0  0  0
   -2.1927   -0.8304    1.1823 C   0  0  0  0  0  0  0  0  0  0  0  0
   -3.0667   -0.5837    1.9906 O   0  0  0  0  0  0  0  0  0  0  0  0
   -1.6707    0.2863    0.5777 N   0  0  0  0  0  0  0  0  0  0  0  0
   -2.2161    1.0938    0.8810 H   0  0  0  0  0  0  0  0  0  0  0  0
   -0.2519    0.6318    0.3354 C   0  0  1  0  0  0  0  0  0  0  0  0
    0.1058    1.0725    1.2730 H   0  0  0  0  0  0  0  0  0  0  0  0
    0.7689   -0.4841    0.0089 C   0  0  0  0  0  0  0  0  0  0  0  0
    0.4109   -1.0438   -0.8611 H   0  0  0  0  0  0  0  0  0  0  0  0
    1.7167   -0.0128   -0.2776 H   0  0  0  0  0  0  0  0  0  0  0  0
    1.0610   -1.4670    1.1687 C   0  0  0  0  0  0  0  0  0  0  0  0
    0.1620   -1.9497    1.5377 H   0  0  0  0  0  0  0  0  0  0  0  0
    1.4831   -0.9025    2.0052 H   0  0  0  0  0  0  0  0  0  0  0  0
    2.0556   -2.5683    0.7972 C   0  0  0  0  0  0  0  0  0  0  0  0
    2.4336   -2.6823   -0.3574 O   0  0  0  0  0  0  0  0  0  0  0  0
    2.4631   -3.3806    1.7977 O   0  0  0  0  0  0  0  0  0  0  0  0
    3.0845   -4.0087    1.3983 H   0  0  0  0  0  0  0  0  0  0  0  0
   -0.1704    1.7773   -0.6954 C   0  0  0  0  0  0  0  0  0  0  0  0
   -0.2270    2.9361   -0.3105 O   0  0  0  0  0  0  0  0  0  0  0  0
   -0.0899    1.5158   -2.0514 N   0  0  0  0  0  0  0  0  0  0  0  0
   -0.1556    0.5457   -2.3441 H   0  0  0  0  0  0  0  0  0  0  0  0
   -0.1138    2.5614   -3.0673 C   0  0  0  0  0  0  0  0  0  0  0  0
    0.6886    3.2857   -2.8918 H   0  0  0  0  0  0  0  0  0  0  0  0
    0.0272    2.1269   -4.0617 H   0  0  0  0  0  0  0  0  0  0  0  0
   -1.0734    3.0888   -3.0510 H   0  0  0  0  0  0  0  0  0  0  0  0
  1  2  1  0  0  0  0
  2  3  1  0  0  0  0
  2  4  1  0  0  0  0
  2  5  1  0  0  0  0
  5  6  2  0  0  0  0
  5  7  1  0  0  0  0
  7  8  1  0  0  0  0
  7  9  1  0  0  0  0
  9 10  1  0  0  0  0
  9 11  1  0  0  0  0
  9 21  1  0  0  0  0
 11 12  1  0  0  0  0
 11 13  1  0  0  0  0
 11 14  1  0  0  0  0
 14 15  1  0  0  0  0
 14 16  1  0  0  0  0
 14 17  1  0  0  0  0
 17 18  2  0  0  0  0
 17 19  1  0  0  0  0
 19 20  1  0  0  0  0
 21 22  2  0  0  0  0
 21 23  1  0  0  0  0
 23 24  1  0  0  0  0
 23 25  1  0  0  0  0
 25 26  1  0  0  0  0
 25 27  1  0  0  0  0
 25 28  1  0  0  0  0
M  END
$$$$

  -OEChem-01062216073D

 28 27  0     1  0  0  0  0  0999 V2000
   -1.9053   -2.9563    1.3116 H   0  0  0  0  0  0  0  0  0  0  0  0
   -2.1862   -2.2127    0.5618 C   0  0  0  0  0  0  0  0  0  0  0  0
   -1.4852   -2.2611   -0.2728 H   0  0  0  0  0  0  0  0  0  0  0  0
   -3.1834   -2.4549    0.1854 H   0  0  0  0  0  0  0  0  0  0  0  0
   -2.2040   -0.8237    1.1839 C   0  0  0  0  0  0  0  0  0  0  0  0
   -3.0798   -0.5594    1.9846 O   0  0  0  0  0  0  0  0  0  0  0  0
   -1.6905    0.2819    0.5523 N   0  0  0  0  0  0  0  0  0  0  0  0
   -2.2397    1.0897    0.8458 H   0  0  0  0  0  0  0  0  0  0  0  0
   -0.2722    0.6285    0.3054 C   0  0  1  0  0  0  0  0  0  0  0  0
    0.0817    1.0873    1.2358 H   0  0  0  0  0  0  0  0  0  0  0  0
    0.7550   -0.4858   -0.0031 C   0  0  0  0  0  0  0  0  0  0  0  0
    0.4022   -1.0595   -0.8664 H   0  0  0  0  0  0  0  0  0  0  0  0
    1.7002   -0.0132   -0.2960 H   0  0  0  0  0  0  0  0  0  0  0  0
    1.0504   -1.4483    1.1730 C   0  0  0  0  0  0  0  0  0  0  0  0
    0.1536   -1.9295    1.5484 H   0  0  0  0  0  0  0  0  0  0  0  0
    1.4680   -0.8675    2.0005 H   0  0  0  0  0  0  0  0  0  0  0  0
    2.0514   -2.5510    0.8236 C   0  0  0  0  0  0  0  0  0  0  0  0
    2.4338   -2.6841   -0.3273 O   0  0  0  0  0  0  0  0  0  0  0  0
    2.4572   -3.3451    1.8395 O   0  0  0  0  0  0  0  0  0  0  0  0
    3.0830   -3.9769    1.4531 H   0  0  0  0  0  0  0  0  0  0  0  0
   -0.1846    1.7472   -0.7520 C   0  0  0  0  0  0  0  0  0  0  0  0
    0.0713    2.8913   -0.4068 O   0  0  0  0  0  0  0  0  0  0  0  0
   -0.4047    1.4704   -2.0885 N   0  0  0  0  0  0  0  0  0  0  0  0
   -0.7145    0.5320   -2.3230 H   0  0  0  0  0  0  0  0  0  0  0  0
   -0.4059    2.4951   -3.1256 C   0  0  0  0  0  0  0  0  0  0  0  0
    0.5515    3.0267   -3.1408 H   0  0  0  0  0  0  0  0  0  0  0  0
   -0.5618    2.0394   -4.1083 H   0  0  0  0  0  0  0  0  0  0  0  0
   -1.2076    3.2194   -2.9472 H   0  0  0  0  0  0  0  0  0  0  0  0
  1  2  1  0  0  0  0
  2  3  1  0  0  0  0
  2  4  1  0  0  0  0
  2  5  1  0  0  0  0
  5  6  2  0  0  0  0
  5  7  1  0  0  0  0
  7  8  1  0  0  0  0
  7  9  1  0  0  0  0
  9 10  1  0  0  0  0
  9 11  1  0  0  0  0
  9 21  1  0  0  0  0
 11 12  1  0  0  0  0
 11 13  1  0  0  0  0
 11 14  1  0  0  0  0
 14 15  1  0  0  0  0
 14 16  1  0  0  0  0
 14 17  1  0  0  0  0
 17 18  2  0  0  0  0
 17 19  1  0  0  0  0
 19 20  1  0  0  0  0
 21 22  2  0  0  0  0
 21 23  1  0  0  0  0
 23 24  1  0  0  0  0
 23 25  1  0  0  0  0
 25 26  1  0  0  0  0
 25 27  1  0  0  0  0
 25 28  1  0  0  0  0
M  END
$$$$

  -OEChem-01062216073D

 28 27  0     1  0  0  0  0  0999 V2000
   -1.9059   -2.9660    1.3531 H   0  0  0  0  0  0  0  0  0  0  0  0
   -2.1863   -2.2384    0.5875 C   0  0  0  0  0  0  0  0  0  0  0  0
   -1.4748   -2.2945   -0.2378 H   0  0  0  0  0  0  0  0  0  0  0  0
   -3.1769   -2.4968    0.2042 H   0  0  0  0  0  0  0  0  0  0  0  0
   -2.2238   -0.8394    1.1855 C   0  0  0  0  0  0  0  0  0  0  0  0
   -3.1069   -0.5709    1.9766 O   0  0  0  0  0  0  0  0  0  0  0  0
   -1.7302    0.2622    0.5318 N   0  0  0  0  0  0  0  0  0  0  0  0
   -2.2932    1.0634    0.8165 H   0  0  0  0  0  0  0  0  0  0  0  0
   -0.3153    0.6269    0.2840 C   0  0  1  0  0  0  0  0  0  0  0  0
    0.0263    1.1083    1.2074 H   0  0  0  0  0  0  0  0  0  0  0  0
    0.7298   -0.4758   -0.0035 C   0  0  0  0  0  0  0  0  0  0  0  0
    0.3890   -1.0660   -0.8605 H   0  0  0  0  0  0  0  0  0  0  0  0
    1.6685    0.0074   -0.3003 H   0  0  0  0  0  0  0  0  0  0  0  0
    1.0377   -1.4164    1.1873 C   0  0  0  0  0  0  0  0  0  0  0  0
    0.1484   -1.9059    1.5695 H   0  0  0  0  0  0  0  0  0  0  0  0
    1.4451   -0.8156    2.0055 H   0  0  0  0  0  0  0  0  0  0  0  0
    2.0569   -2.5083    0.8568 C   0  0  0  0  0  0  0  0  0  0  0  0
    2.4448   -2.6531   -0.2908 O   0  0  0  0  0  0  0  0  0  0  0  0
    2.4718   -3.2808    1.8858 O   0  0  0  0  0  0  0  0  0  0  0  0
    3.1081   -3.9088    1.5102 H   0  0  0  0  0  0  0  0  0  0  0  0
   -0.2305    1.7234   -0.7958 C   0  0  0  0  0  0  0  0  0  0  0  0
    0.3235    2.7841   -0.5482 O   0  0  0  0  0  0  0  0  0  0  0  0
   -0.7300    1.4912   -2.0631 N   0  0  0  0  0  0  0  0  0  0  0  0
   -1.2425    0.6259   -2.2072 H   0  0  0  0  0  0  0  0  0  0  0  0
   -0.6842    2.4782   -3.1350 C   0  0  0  0  0  0  0  0  0  0  0  0
    0.3521    2.7554   -3.3558 H   0  0  0  0  0  0  0  0  0  0  0  0
   -1.1330    2.0699   -4.0455 H   0  0  0  0  0  0  0  0  0  0  0  0
   -1.2367    3.3800   -2.8505 H   0  0  0  0  0  0  0  0  0  0  0  0
  1  2  1  0  0  0  0
  2  3  1  0  0  0  0
  2  4  1  0  0  0  0
  2  5  1  0  0  0  0
  5  6  2  0  0  0  0
  5  7  1  0  0  0  0
  7  8  1  0  0  0  0
  7  9  1  0  0  0  0
  9 10  1  0  0  0  0
  9 11  1  0  0  0  0
  9 21  1  0  0  0  0
 11 12  1  0  0  0  0
 11 13  1  0  0  0  0
 11 14  1  0  0  0  0
 14 15  1  0  0  0  0
 14 16  1  0  0  0  0
 14 17  1  0  0  0  0
 17 18  2  0  0  0  0
 17 19  1  0  0  0  0
 19 20  1  0  0  0  0
 21 22  2  0  0  0  0
 21 23  1  0  0  0  0
 23 24  1  0  0  0  0
 23 25  1  0  0  0  0
 25 26  1  0  0  0  0
 25 27  1  0  0  0  0
 25 28  1  0  0  0  0
M  END
$$$$

  -OEChem-01062216073D

 28 27  0     1  0  0  0  0  0999 V2000
   -1.8909   -3.0015    1.3450 H   0  0  0  0  0  0  0  0  0  0  0  0
   -2.1813   -2.2747    0.5824 C   0  0  0  0  0  0  0  0  0  0  0  0
   -1.4711   -2.3197   -0.2449 H   0  0  0  0  0  0  0  0  0  0  0  0
   -3.1696   -2.5433    0.2002 H   0  0  0  0  0  0  0  0  0  0  0  0
   -2.2330   -0.8783    1.1853 C   0  0  0  0  0  0  0  0  0  0  0  0
   -3.1173   -0.6201    1.9785 O   0  0  0  0  0  0  0  0  0  0  0  0
   -1.7579    0.2317    0.5322 N   0  0  0  0  0  0  0  0  0  0  0  0
   -2.3300    1.0224    0.8277 H   0  0  0  0  0  0  0  0  0  0  0  0
   -0.3471    0.6181    0.2854 C   0  0  1  0  0  0  0  0  0  0  0  0
   -0.0120    1.1037    1.2089 H   0  0  0  0  0  0  0  0  0  0  0  0
    0.7112   -0.4707   -0.0071 C   0  0  0  0  0  0  0  0  0  0  0  0
    0.3769   -1.0597   -0.8675 H   0  0  0  0  0  0  0  0  0  0  0  0
    1.6443    0.0246   -0.3024 H   0  0  0  0  0  0  0  0  0  0  0  0
    1.0315   -1.4126    1.1793 C   0  0  0  0  0  0  0  0  0  0  0  0
    0.1489   -1.9153    1.5594 H   0  0  0  0  0  0  0  0  0  0  0  0
    1.4319   -0.8108    2.0002 H   0  0  0  0  0  0  0  0  0  0  0  0
    2.0638   -2.4905    0.8433 C   0  0  0  0  0  0  0  0  0  0  0  0
    2.4531   -2.6265   -0.3048 O   0  0  0  0  0  0  0  0  0  0  0  0
    2.4870   -3.2633    1.8688 O   0  0  0  0  0  0  0  0  0  0  0  0
    3.1307   -3.8813    1.4895 H   0  0  0  0  0  0  0  0  0  0  0  0
   -0.2706    1.7166   -0.7935 C   0  0  0  0  0  0  0  0  0  0  0  0
    0.5052    2.6514   -0.6608 O   0  0  0  0  0  0  0  0  0  0  0  0
   -1.0216    1.6086   -1.9483 N   0  0  0  0  0  0  0  0  0  0  0  0
   -1.6748    0.8319   -2.0032 H   0  0  0  0  0  0  0  0  0  0  0  0
   -0.9769    2.5838   -3.0309 C   0  0  0  0  0  0  0  0  0  0  0  0
    0.0339    2.6465   -3.4478 H   0  0  0  0  0  0  0  0  0  0  0  0
   -1.6629    2.2924   -3.8320 H   0  0  0  0  0  0  0  0  0  0  0  0
   -1.2700    3.5744   -2.6674 H   0  0  0  0  0  0  0  0  0  0  0  0
  1  2  1  0  0  0  0
  2  3  1  0  0  0  0
  2  4  1  0  0  0  0
  2  5  1  0  0  0  0
  5  6  2  0  0  0  0
  5  7  1  0  0  0  0
  7  8  1  0  0  0  0
  7  9  1  0  0  0  0
  9 10  1  0  0  0  0
  9 11  1  0  0  0  0
  9 21  1  0  0  0  0
 11 12  1  0  0  0  0
 11 13  1  0  0  0  0
 11 14  1  0  0  0  0
 14 15  1  0  0  0  0
 14 16  1  0  0  0  0
 14 17  1  0  0  0  0
 17 18  2  0  0  0  0
 17 19  1  0  0  0  0
 19 20  1  0  0  0  0
 21 22  2  0  0  0  0
 21 23  1  0  0  0  0
 23 24  1  0  0  0  0
 23 25  1  0  0  0  0
 25 26  1  0  0  0  0
 25 27  1  0  0  0  0
 25 28  1  0  0  0  0
M  END
$$$$

  -OEChem-01062216073D

 28 27  0     1  0  0  0  0  0999 V2000
   -1.8563   -3.0079    1.3788 H   0  0  0  0  0  0  0  0  0  0  0  0
   -2.1834   -2.2814    0.6309 C   0  0  0  0  0  0  0  0  0  0  0  0
   -1.5141   -2.3261   -0.2297 H   0  0  0  0  0  0  0  0  0  0  0  0
   -3.1889   -2.5510    0.2971 H   0  0  0  0  0  0  0  0  0  0  0  0
   -2.2062   -0.8841    1.2337 C   0  0  0  0  0  0  0  0  0  0  0  0
   -3.0639   -0.6176    2.0528 O   0  0  0  0  0  0  0  0  0  0  0  0
   -1.7475    0.2231    0.5645 N   0  0  0  0  0  0  0  0  0  0  0  0
   -2.3038    1.0153    0.8847 H   0  0  0  0  0  0  0  0  0  0  0  0
   -0.3428    0.6043    0.2717 C   0  0  1  0  0  0  0  0  0  0  0  0
    0.0237    1.0922    1.1818 H   0  0  0  0  0  0  0  0  0  0  0  0
    0.6975   -0.4964   -0.0458 C   0  0  0  0  0  0  0  0  0  0  0  0
    0.3318   -1.0881   -0.8914 H   0  0  0  0  0  0  0  0  0  0  0  0
    1.6264   -0.0136   -0.3731 H   0  0  0  0  0  0  0  0  0  0  0  0
    1.0471   -1.4326    1.1370 C   0  0  0  0  0  0  0  0  0  0  0  0
    0.1728   -1.9251    1.5483 H   0  0  0  0  0  0  0  0  0  0  0  0
    1.4778   -0.8282    1.9404 H   0  0  0  0  0  0  0  0  0  0  0  0
    2.0592   -2.5222    0.7791 C   0  0  0  0  0  0  0  0  0  0  0  0
    2.4127   -2.6717   -0.3788 O   0  0  0  0  0  0  0  0  0  0  0  0
    2.5042   -3.2915    1.7978 O   0  0  0  0  0  0  0  0  0  0  0  0
    3.1303   -3.9185    1.4041 H   0  0  0  0  0  0  0  0  0  0  0  0
   -0.2905    1.7025   -0.8115 C   0  0  0  0  0  0  0  0  0  0  0  0
    0.6383    2.4967   -0.8332 O   0  0  0  0  0  0  0  0  0  0  0  0
   -1.2722    1.7758   -1.7817 N   0  0  0  0  0  0  0  0  0  0  0  0
   -2.0278    1.0981   -1.7242 H   0  0  0  0  0  0  0  0  0  0  0  0
   -1.2865    2.7776   -2.8407 C   0  0  0  0  0  0  0  0  0  0  0  0
   -0.3644    2.7269   -3.4295 H   0  0  0  0  0  0  0  0  0  0  0  0
   -2.1335    2.6072   -3.5121 H   0  0  0  0  0  0  0  0  0  0  0  0
   -1.3778    3.7827   -2.4155 H   0  0  0  0  0  0  0  0  0  0  0  0
  1  2  1  0  0  0  0
  2  3  1  0  0  0  0
  2  4  1  0  0  0  0
  2  5  1  0  0  0  0
  5  6  2  0  0  0  0
  5  7  1  0  0  0  0
  7  8  1  0  0  0  0
  7  9  1  0  0  0  0
  9 10  1  0  0  0  0
  9 11  1  0  0  0  0
  9 21  1  0  0  0  0
 11 12  1  0  0  0  0
 11 13  1  0  0  0  0
 11 14  1  0  0  0  0
 14 15  1  0  0  0  0
 14 16  1  0  0  0  0
 14 17  1  0  0  0  0
 17 18  2  0  0  0  0
 17 19  1  0  0  0  0
 19 20  1  0  0  0  0
 21 22  2  0  0  0  0
 21 23  1  0  0  0  0
 23 24  1  0  0  0  0
 23 25  1  0  0  0  0
 25 26  1  0  0  0  0
 25 27  1  0  0  0  0
 25 28  1  0  0  0  0
M  END
$$$$

  -OEChem-01062216073D

 28 27  0     1  0  0  0  0  0999 V2000
   -1.8492   -3.0412    1.3643 H   0  0  0  0  0  0  0  0  0  0  0  0
   -2.1838   -2.3054    0.6290 C   0  0  0  0  0  0  0  0  0  0  0  0
   -1.5242   -2.3419   -0.2396 H   0  0  0  0  0  0  0  0  0  0  0  0
   -3.1935   -2.5689    0.3034 H   0  0  0  0  0  0  0  0  0  0  0  0
   -2.1965   -0.9155    1.2490 C   0  0  0  0  0  0  0  0  0  0  0  0
   -3.0305   -0.6604    2.0959 O   0  0  0  0  0  0  0  0  0  0  0  0
   -1.7610    0.2013    0.5811 N   0  0  0  0  0  0  0  0  0  0  0  0
   -2.3117    0.9839    0.9325 H   0  0  0  0  0  0  0  0  0  0  0  0
   -0.3633    0.5977    0.2705 C   0  0  1  0  0  0  0  0  0  0  0  0
    0.0123    1.0854    1.1766 H   0  0  0  0  0  0  0  0  0  0  0  0
    0.6766   -0.5024   -0.0606 C   0  0  0  0  0  0  0  0  0  0  0  0
    0.3011   -1.0949   -0.9012 H   0  0  0  0  0  0  0  0  0  0  0  0
    1.6019   -0.0213   -0.3999 H   0  0  0  0  0  0  0  0  0  0  0  0
    1.0438   -1.4370    1.1189 C   0  0  0  0  0  0  0  0  0  0  0  0
    0.1766   -1.9314    1.5426 H   0  0  0  0  0  0  0  0  0  0  0  0
    1.4835   -0.8304    1.9157 H   0  0  0  0  0  0  0  0  0  0  0  0
    2.0535   -2.5255    0.7506 C   0  0  0  0  0  0  0  0  0  0  0  0
    2.3937   -2.6775   -0.4109 O   0  0  0  0  0  0  0  0  0  0  0  0
    2.5155   -3.2884    1.7668 O   0  0  0  0  0  0  0  0  0  0  0  0
    3.1411   -3.9126    1.3680 H   0  0  0  0  0  0  0  0  0  0  0  0
   -0.3315    1.7057   -0.8072 C   0  0  0  0  0  0  0  0  0  0  0  0
    0.6831    2.3653   -0.9805 O   0  0  0  0  0  0  0  0  0  0  0  0
   -1.4532    1.9806   -1.5673 N   0  0  0  0  0  0  0  0  0  0  0  0
   -2.2578    1.3737   -1.4341 H   0  0  0  0  0  0  0  0  0  0  0  0
   -1.4885    2.9956   -2.6131 C   0  0  0  0  0  0  0  0  0  0  0  0
   -0.7457    2.7748   -3.3870 H   0  0  0  0  0  0  0  0  0  0  0  0
   -2.4776    3.0242   -3.0801 H   0  0  0  0  0  0  0  0  0  0  0  0
   -1.2759    3.9847   -2.1938 H   0  0  0  0  0  0  0  0  0  0  0  0
  1  2  1  0  0  0  0
  2  3  1  0  0  0  0
  2  4  1  0  0  0  0
  2  5  1  0  0  0  0
  5  6  2  0  0  0  0
  5  7  1  0  0  0  0
  7  8  1  0  0  0  0
  7  9  1  0  0  0  0
  9 10  1  0  0  0  0
  9 11  1  0  0  0  0
  9 21  1  0  0  0  0
 11 12  1  0  0  0  0
 11 13  1  0  0  0  0
 11 14  1  0  0  0  0
 14 15  1  0  0  0  0
 14 16  1  0  0  0  0
 14 17  1  0  0  0  0
 17 18  2  0  0  0  0
 17 19  1  0  0  0  0
 19 20  1  0  0  0  0
 21 22  2  0  0  0  0
 21 23  1  0  0  0  0
 23 24  1  0  0  0  0
 23 25  1  0  0  0  0
 25 26  1  0  0  0  0
 25 27  1  0  0  0  0
 25 28  1  0  0  0  0
M  END
$$$$

  -OEChem-01062216073D

 28 27  0     1  0  0  0  0  0999 V2000
   -1.8386   -3.0613    1.3618 H   0  0  0  0  0  0  0  0  0  0  0  0
   -2.1828   -2.3246    0.6315 C   0  0  0  0  0  0  0  0  0  0  0  0
   -1.5309   -2.3559   -0.2431 H   0  0  0  0  0  0  0  0  0  0  0  0
   -3.1942   -2.5913    0.3145 H   0  0  0  0  0  0  0  0  0  0  0  0
   -2.1957   -0.9364    1.2553 C   0  0  0  0  0  0  0  0  0  0  0  0
   -3.0170   -0.6876    2.1164 O   0  0  0  0  0  0  0  0  0  0  0  0
   -1.7766    0.1857    0.5861 N   0  0  0  0  0  0  0  0  0  0  0  0
   -2.3232    0.9601    0.9604 H   0  0  0  0  0  0  0  0  0  0  0  0
   -0.3841    0.5945    0.2645 C   0  0  1  0  0  0  0  0  0  0  0  0
   -0.0058    1.0865    1.1668 H   0  0  0  0  0  0  0  0  0  0  0  0
    0.6592   -0.5062   -0.0648 C   0  0  0  0  0  0  0  0  0  0  0  0
    0.2812   -1.1049   -0.8996 H   0  0  0  0  0  0  0  0  0  0  0  0
    1.5832   -0.0284   -0.4115 H   0  0  0  0  0  0  0  0  0  0  0  0
    1.0380   -1.4310    1.1194 C   0  0  0  0  0  0  0  0  0  0  0  0
    0.1761   -1.9266    1.5526 H   0  0  0  0  0  0  0  0  0  0  0  0
    1.4810   -0.8171    1.9087 H   0  0  0  0  0  0  0  0  0  0  0  0
    2.0493   -2.5184    0.7517 C   0  0  0  0  0  0  0  0  0  0  0  0
    2.3822   -2.6777   -0.4107 O   0  0  0  0  0  0  0  0  0  0  0  0
    2.5206   -3.2728    1.7700 O   0  0  0  0  0  0  0  0  0  0  0  0
    3.1447   -3.8982    1.3706 H   0  0  0  0  0  0  0  0  0  0  0  0
   -0.3713    1.7072   -0.8136 C   0  0  0  0  0  0  0  0  0  0  0  0
    0.6811    2.2292   -1.1528 O   0  0  0  0  0  0  0  0  0  0  0  0
   -1.5536    2.1888   -1.3469 N   0  0  0  0  0  0  0  0  0  0  0  0
   -2.3977    1.6667   -1.1287 H   0  0  0  0  0  0  0  0  0  0  0  0
   -1.6066    3.2229   -2.3737 C   0  0  0  0  0  0  0  0  0  0  0  0
   -1.0718    2.8990   -3.2728 H   0  0  0  0  0  0  0  0  0  0  0  0
   -2.6453    3.4345   -2.6454 H   0  0  0  0  0  0  0  0  0  0  0  0
   -1.1510    4.1492   -2.0079 H   0  0  0  0  0  0  0  0  0  0  0  0
  1  2  1  0  0  0  0
  2  3  1  0  0  0  0
  2  4  1  0  0  0  0
  2  5  1  0  0  0  0
  5  6  2  0  0  0  0
  5  7  1  0  0  0  0
  7  8  1  0  0  0  0
  7  9  1  0  0  0  0
  9 10  1  0  0  0  0
  9 11  1  0  0  0  0
  9 21  1  0  0  0  0
 11 12  1  0  0  0  0
 11 13  1  0  0  0  0
 11 14  1  0  0  0  0
 14 15  1  0  0  0  0
 14 16  1  0  0  0  0
 14 17  1  0  0  0  0
 17 18  2  0  0  0  0
 17 19  1  0  0  0  0
 19 20  1  0  0  0  0
 21 22  2  0  0  0  0
 21 23  1  0  0  0  0
 23 24  1  0  0  0  0
 23 25  1  0  0  0  0
 25 26  1  0  0  0  0
 25 27  1  0  0  0  0
 25 28  1  0  0  0  0
M  END
$$$$

  -OEChem-01062216073D

 28 27  0     1  0  0  0  0  0999 V2000
   -3.1458   -2.8684    1.2497 H   0  0  0  0  0  0  0  0  0  0  0  0
   -3.3096   -2.0192    0.7060 C   0  0  0  0  0  0  0  0  0  0  0  0
   -3.4666   -1.1249    1.1310 H   0  0  0  0  0  0  0  0  0  0  0  0
   -3.4099   -1.9374   -0.3371 H   0  0  0  0  0  0  0  0  0  0  0  0
   -3.8692   -1.0013    1.3003 C   0  0  0  0  0  0  0  0  0  0  0  0
   -5.3185   -1.2847    1.7617 O   0  0  0  0  0  0  0  0  0  0  0  0
   -2.1474   -0.1772    0.8635 N   0  0  0  0  0  0  0  0  0  0  0  0
   -2.3133    0.4003   -0.0498 H   0  0  0  0  0  0  0  0  0  0  0  0
   -0.3960    0.6611    0.4193 C   0  0  1  0  0  0  0  0  0  0  0  0
   -0.0445    1.0825    1.3310 H   0  0  0  0  0  0  0  0  0  0  0  0
    1.2275   -0.5153    0.1414 C   0  0  0  0  0  0  0  0  0  0  0  0
    0.6622   -0.9161   -0.8948 H   0  0  0  0  0  0  0  0  0  0  0  0
    1.8751    0.2151   -0.1722 H   0  0  0  0  0  0  0  0  0  0  0  0
    2.7395   -1.6393    1.2554 C   0  0  0  0  0  0  0  0  0  0  0  0
    1.5757   -1.1218    1.9786 H   0  0  0  0  0  0  0  0  0  0  0  0
    4.2594   -1.9341    0.8464 H   0  0  0  0  0  0  0  0  0  0  0  0
    3.0645   -2.5023    0.5324 C   0  0  0  0  0  0  0  0  0  0  0  0
    2.5346   -2.5633   -0.5281 O   0  0  0  0  0  0  0  0  0  0  0  0
    2.5822   -3.2713    1.6666 O   0  0  0  0  0  0  0  0  0  0  0  0
    3.2022   -3.8962    1.4226 H   0  0  0  0  0  0  0  0  0  0  0  0
   -0.2367    1.7289   -0.7691 C   0  0  0  0  0  0  0  0  0  0  0  0
    0.7938    2.3378   -1.0292 O   0  0  0  0  0  0  0  0  0  0  0  0
   -1.4576    2.1722   -1.1494 N   0  0  0  0  0  0  0  0  0  0  0  0
   -2.2840    1.6813   -0.8180 H   0  0  0  0  0  0  0  0  0  0  0  0
   -1.6536    3.2787   -2.0707 C   0  0  0  0  0  0  0  0  0  0  0  0
   -1.0848    3.0917   -2.9850 H   0  0  0  0  0  0  0  0  0  0  0  0
   -2.7137    3.3783   -2.3275 H   0  0  0  0  0  0  0  0  0  0  0  0
   -1.3069    4.2151   -1.6252 H   0  0  0  0  0  0  0  0  0  0  0  0
  1  2  1  0  0  0  0
  2  3  1  0  0  0  0
  2  4  1  0  0  0  0
  2  5  1  0  0  0  0
  5  6  2  0  0  0  0
  5  7  1  0  0  0  0
  7  8  1  0  0  0  0
  7  9  1  0  0  0  0
  9 10  1  0  0  0  0
  9 11  1  0  0  0  0
  9 21  1  0  0  0  0
 11 12  1  0  0  0  0
 11 13  1  0  0  0  0
 11 14  1  0  0  0  0
 14 15  1  0  0  0  0
 14 16  1  0  0  0  0
 14 17  1  0  0  0  0
 17 18  2  0  0  0  0
 17 19  1  0  0  0  0
 19 20  1  0  0  0  0
 21 22  2  0  0  0  0
 21 23  1  0  0  0  0
 23 24  1  0  0  0  0
 23 25  1  0  0  0  0
 25 26  1  0  0  0  0
 25 27  1  0  0  0  0
 25 28  1  0  0  0  0
M  END
$$$$

  -OEChem-01062216073D

 28 27  0     1  0  0  0  0  0999 V2000
   -1.8246   -3.0926    1.3263 H   0  0  0  0  0  0  0  0  0  0  0  0
   -2.1855   -2.3483    0.6122 C   0  0  0  0  0  0  0  0  0  0  0  0
   -1.5479   -2.3637   -0.2731 H   0  0  0  0  0  0  0  0  0  0  0  0
   -3.2005   -2.6165    0.3080 H   0  0  0  0  0  0  0  0  0  0  0  0
   -2.1969   -0.9688    1.2546 C   0  0  0  0  0  0  0  0  0  0  0  0
   -2.9946   -0.7359    2.1425 O   0  0  0  0  0  0  0  0  0  0  0  0
   -1.7993    0.1669    0.5965 N   0  0  0  0  0  0  0  0  0  0  0  0
   -2.3491    0.9226    0.9974 H   0  0  0  0  0  0  0  0  0  0  0  0
   -0.4155    0.5917    0.2598 C   0  0  1  0  0  0  0  0  0  0  0  0
   -0.0315    1.0822    1.1601 H   0  0  0  0  0  0  0  0  0  0  0  0
    0.6350   -0.5069   -0.0694 C   0  0  0  0  0  0  0  0  0  0  0  0
    0.2584   -1.1125   -0.9000 H   0  0  0  0  0  0  0  0  0  0  0  0
    1.5563   -0.0283   -0.4209 H   0  0  0  0  0  0  0  0  0  0  0  0
    1.0297   -1.4182    1.1207 C   0  0  0  0  0  0  0  0  0  0  0  0
    0.1739   -1.9166    1.5636 H   0  0  0  0  0  0  0  0  0  0  0  0
    1.4735   -0.7945    1.9017 H   0  0  0  0  0  0  0  0  0  0  0  0
    2.0456   -2.5027    0.7567 C   0  0  0  0  0  0  0  0  0  0  0  0
    2.3718   -2.6725   -0.4059 O   0  0  0  0  0  0  0  0  0  0  0  0
    2.5308   -3.2415    1.7801 O   0  0  0  0  0  0  0  0  0  0  0  0
    3.1542   -3.8685    1.3820 H   0  0  0  0  0  0  0  0  0  0  0  0
   -0.4397    1.7237   -0.8049 C   0  0  0  0  0  0  0  0  0  0  0  0
    0.5103    1.9179   -1.5505 O   0  0  0  0  0  0  0  0  0  0  0  0
   -1.5031    2.6090   -0.8681 N   0  0  0  0  0  0  0  0  0  0  0  0
   -2.3348    2.3717   -0.3385 H   0  0  0  0  0  0  0  0  0  0  0  0
   -1.5887    3.6844   -1.8506 C   0  0  0  0  0  0  0  0  0  0  0  0
   -1.6230    3.2749   -2.8657 H   0  0  0  0  0  0  0  0  0  0  0  0
   -2.4933    4.2773   -1.6845 H   0  0  0  0  0  0  0  0  0  0  0  0
   -0.7227    4.3499   -1.7687 H   0  0  0  0  0  0  0  0  0  0  0  0
  1  2  1  0  0  0  0
  2  3  1  0  0  0  0
  2  4  1  0  0  0  0
  2  5  1  0  0  0  0
  5  6  2  0  0  0  0
  5  7  1  0  0  0  0
  7  8  1  0  0  0  0
  7  9  1  0  0  0  0
  9 10  1  0  0  0  0
  9 11  1  0  0  0  0
  9 21  1  0  0  0  0
 11 12  1  0  0  0  0
 11 13  1  0  0  0  0
 11 14  1  0  0  0  0
 14 15  1  0  0  0  0
 14 16  1  0  0  0  0
 14 17  1  0  0  0  0
 17 18  2  0  0  0  0
 17 19  1  0  0  0  0
 19 20  1  0  0  0  0
 21 22  2  0  0  0  0
 21 23  1  0  0  0  0
 23 24  1  0  0  0  0
 23 25  1  0  0  0  0
 25 26  1  0  0  0  0
 25 27  1  0  0  0  0
 25 28  1  0  0  0  0
M  END
$$$$

  -OEChem-01062216073D

 28 27  0     1  0  0  0  0  0999 V2000
   -3.1876   -2.6233    0.4386 H   0  0  0  0  0  0  0  0  0  0  0  0
   -2.1701   -2.3411    0.7213 C   0  0  0  0  0  0  0  0  0  0  0  0
   -1.7944   -3.0652    1.4482 H   0  0  0  0  0  0  0  0  0  0  0  0
   -1.5460   -2.3742   -0.1732 H   0  0  0  0  0  0  0  0  0  0  0  0
   -2.1819   -0.9461    1.3289 C   0  0  0  0  0  0  0  0  0  0  0  0
   -2.9734   -0.6960    2.2180 O   0  0  0  0  0  0  0  0  0  0  0  0
   -1.7950    0.1754    0.6407 N   0  0  0  0  0  0  0  0  0  0  0  0
   -2.3699    0.9402    0.9826 H   0  0  0  0  0  0  0  0  0  0  0  0
   -0.4234    0.5949    0.2544 C   0  0  1  0  0  0  0  0  0  0  0  0
   -0.0105    1.0990    1.1339 H   0  0  0  0  0  0  0  0  0  0  0  0
    0.6209   -0.5017   -0.0931 C   0  0  0  0  0  0  0  0  0  0  0  0
    0.2219   -1.1208   -0.9035 H   0  0  0  0  0  0  0  0  0  0  0  0
    1.5260   -0.0191   -0.4804 H   0  0  0  0  0  0  0  0  0  0  0  0
    1.0553   -1.3934    1.0974 C   0  0  0  0  0  0  0  0  0  0  0  0
    0.2143   -1.8885    1.5711 H   0  0  0  0  0  0  0  0  0  0  0  0
    1.5181   -0.7568    1.8565 H   0  0  0  0  0  0  0  0  0  0  0  0
    2.0652   -2.4790    0.7205 C   0  0  0  0  0  0  0  0  0  0  0  0
    2.3588   -2.6659   -0.4480 O   0  0  0  0  0  0  0  0  0  0  0  0
    2.5810   -3.2007    1.7408 O   0  0  0  0  0  0  0  0  0  0  0  0
    3.1920   -3.8343    1.3339 H   0  0  0  0  0  0  0  0  0  0  0  0
   -0.4932    1.7083   -0.8254 C   0  0  0  0  0  0  0  0  0  0  0  0
    0.2402    1.7020   -1.8044 O   0  0  0  0  0  0  0  0  0  0  0  0
   -1.3788    2.7637   -0.6827 N   0  0  0  0  0  0  0  0  0  0  0  0
   -1.9876    2.7667    0.1283 H   0  0  0  0  0  0  0  0  0  0  0  0
   -1.5100    3.8369   -1.6623 C   0  0  0  0  0  0  0  0  0  0  0  0
   -1.8029    3.4324   -2.6371 H   0  0  0  0  0  0  0  0  0  0  0  0
   -2.2744    4.5510   -1.3412 H   0  0  0  0  0  0  0  0  0  0  0  0
   -0.5615    4.3730   -1.7737 H   0  0  0  0  0  0  0  0  0  0  0  0
  1  2  1  0  0  0  0
  2  3  1  0  0  0  0
  2  4  1  0  0  0  0
  2  5  1  0  0  0  0
  5  6  2  0  0  0  0
  5  7  1  0  0  0  0
  7  8  1  0  0  0  0
  7  9  1  0  0  0  0
  9 10  1  0  0  0  0
  9 11  1  0  0  0  0
  9 21  1  0  0  0  0
 11 12  1  0  0  0  0
 11 13  1  0  0  0  0
 11 14  1  0  0  0  0
 14 15  1  0  0  0  0
 14 16  1  0  0  0  0
 14 17  1  0  0  0  0
 17 18  2  0  0  0  0
 17 19  1  0  0  0  0
 19 20  1  0  0  0  0
 21 22  2  0  0  0  0
 21 23  1  0  0  0  0
 23 24  1  0  0  0  0
 23 25  1  0  0  0  0
 25 26  1  0  0  0  0
 25 27  1  0  0  0  0
 25 28  1  0  0  0  0
M  END
$$$$

  -OEChem-01062216073D

 28 27  0     1  0  0  0  0  0999 V2000
   -1.8366   -3.0778    1.3356 H   0  0  0  0  0  0  0  0  0  0  0  0
   -2.2039   -2.3429    0.6153 C   0  0  0  0  0  0  0  0  0  0  0  0
   -1.5578   -2.3484   -0.2642 H   0  0  0  0  0  0  0  0  0  0  0  0
   -3.2103   -2.6320    0.3014 H   0  0  0  0  0  0  0  0  0  0  0  0
   -2.2488   -0.9613    1.2516 C   0  0  0  0  0  0  0  0  0  0  0  0
   -3.0835   -0.7329    2.1065 O   0  0  0  0  0  0  0  0  0  0  0  0
   -1.8255    0.1742    0.6085 N   0  0  0  0  0  0  0  0  0  0  0  0
   -2.4279    0.9376    0.9055 H   0  0  0  0  0  0  0  0  0  0  0  0
   -0.4400    0.5972    0.2867 C   0  0  1  0  0  0  0  0  0  0  0  0
   -0.0577    1.0730    1.1951 H   0  0  0  0  0  0  0  0  0  0  0  0
    0.6180   -0.4845   -0.0567 C   0  0  0  0  0  0  0  0  0  0  0  0
    0.2479   -1.0804   -0.8976 H   0  0  0  0  0  0  0  0  0  0  0  0
    1.5314    0.0151   -0.4010 H   0  0  0  0  0  0  0  0  0  0  0  0
    1.0101   -1.4133    1.1197 C   0  0  0  0  0  0  0  0  0  0  0  0
    0.1526   -1.9227    1.5469 H   0  0  0  0  0  0  0  0  0  0  0  0
    1.4443   -0.8007    1.9145 H   0  0  0  0  0  0  0  0  0  0  0  0
    2.0361   -2.4846    0.7453 C   0  0  0  0  0  0  0  0  0  0  0  0
    2.3728   -2.6327   -0.4170 O   0  0  0  0  0  0  0  0  0  0  0  0
    2.5214   -3.2343    1.7603 O   0  0  0  0  0  0  0  0  0  0  0  0
    3.1504   -3.8509    1.3548 H   0  0  0  0  0  0  0  0  0  0  0  0
   -0.4728    1.7357   -0.7632 C   0  0  0  0  0  0  0  0  0  0  0  0
    0.0827    1.6274   -1.8477 O   0  0  0  0  0  0  0  0  0  0  0  0
   -1.1252    2.9212   -0.4705 N   0  0  0  0  0  0  0  0  0  0  0  0
   -1.5661    3.0095    0.4394 H   0  0  0  0  0  0  0  0  0  0  0  0
   -1.2005    4.0424   -1.4009 C   0  0  0  0  0  0  0  0  0  0  0  0
   -1.7306    3.7477   -2.3129 H   0  0  0  0  0  0  0  0  0  0  0  0
   -1.7373    4.8795   -0.9443 H   0  0  0  0  0  0  0  0  0  0  0  0
   -0.1960    4.3842   -1.6724 H   0  0  0  0  0  0  0  0  0  0  0  0
  1  2  1  0  0  0  0
  2  3  1  0  0  0  0
  2  4  1  0  0  0  0
  2  5  1  0  0  0  0
  5  6  2  0  0  0  0
  5  7  1  0  0  0  0
  7  8  1  0  0  0  0
  7  9  1  0  0  0  0
  9 10  1  0  0  0  0
  9 11  1  0  0  0  0
  9 21  1  0  0  0  0
 11 12  1  0  0  0  0
 11 13  1  0  0  0  0
 11 14  1  0  0  0  0
 14 15  1  0  0  0  0
 14 16  1  0  0  0  0
 14 17  1  0  0  0  0
 17 18  2  0  0  0  0
 17 19  1  0  0  0  0
 19 20  1  0  0  0  0
 21 22  2  0  0  0  0
 21 23  1  0  0  0  0
 23 24  1  0  0  0  0
 23 25  1  0  0  0  0
 25 26  1  0  0  0  0
 25 27  1  0  0  0  0
 25 28  1  0  0  0  0
M  END
$$$$

  -OEChem-01062216073D

 28 27  0     1  0  0  0  0  0999 V2000
   -1.8331   -3.0805    1.3386 H   0  0  0  0  0  0  0  0  0  0  0  0
   -2.2131   -2.3363    0.6347 C   0  0  0  0  0  0  0  0  0  0  0  0
   -1.5821   -2.3277   -0.2557 H   0  0  0  0  0  0  0  0  0  0  0  0
   -3.2245   -2.6219    0.3341 H   0  0  0  0  0  0  0  0  0  0  0  0
   -2.2482   -0.9637    1.2907 C   0  0  0  0  0  0  0  0  0  0  0  0
   -3.0681   -0.7489    2.1636 O   0  0  0  0  0  0  0  0  0  0  0  0
   -1.8341    0.1797    0.6561 N   0  0  0  0  0  0  0  0  0  0  0  0
   -2.4358    0.9410    0.9614 H   0  0  0  0  0  0  0  0  0  0  0  0
   -0.4539    0.6084    0.3252 C   0  0  1  0  0  0  0  0  0  0  0  0
   -0.0589    1.0654    1.2379 H   0  0  0  0  0  0  0  0  0  0  0  0
    0.6016   -0.4597   -0.0603 C   0  0  0  0  0  0  0  0  0  0  0  0
    0.2175   -1.0373   -0.9082 H   0  0  0  0  0  0  0  0  0  0  0  0
    1.5050    0.0530   -0.4107 H   0  0  0  0  0  0  0  0  0  0  0  0
    1.0149   -1.4182    1.0842 C   0  0  0  0  0  0  0  0  0  0  0  0
    0.1654   -1.9428    1.5081 H   0  0  0  0  0  0  0  0  0  0  0  0
    1.4581   -0.8268    1.8900 H   0  0  0  0  0  0  0  0  0  0  0  0
    2.0390   -2.4743    0.6646 C   0  0  0  0  0  0  0  0  0  0  0  0
    2.3582   -2.5889   -0.5065 O   0  0  0  0  0  0  0  0  0  0  0  0
    2.5446   -3.2478    1.6515 O   0  0  0  0  0  0  0  0  0  0  0  0
    3.1689   -3.8518    1.2206 H   0  0  0  0  0  0  0  0  0  0  0  0
   -0.5003    1.7570   -0.7100 C   0  0  0  0  0  0  0  0  0  0  0  0
   -0.1910    1.5756   -1.8794 O   0  0  0  0  0  0  0  0  0  0  0  0
   -0.8663    3.0295   -0.3072 N   0  0  0  0  0  0  0  0  0  0  0  0
   -1.1084    3.1684    0.6691 H   0  0  0  0  0  0  0  0  0  0  0  0
   -0.9150    4.1702   -1.2153 C   0  0  0  0  0  0  0  0  0  0  0  0
   -1.6097    3.9752   -2.0393 H   0  0  0  0  0  0  0  0  0  0  0  0
   -1.2533    5.0646   -0.6834 H   0  0  0  0  0  0  0  0  0  0  0  0
    0.0777    4.3704   -1.6323 H   0  0  0  0  0  0  0  0  0  0  0  0
  1  2  1  0  0  0  0
  2  3  1  0  0  0  0
  2  4  1  0  0  0  0
  2  5  1  0  0  0  0
  5  6  2  0  0  0  0
  5  7  1  0  0  0  0
  7  8  1  0  0  0  0
  7  9  1  0  0  0  0
  9 10  1  0  0  0  0
  9 11  1  0  0  0  0
  9 21  1  0  0  0  0
 11 12  1  0  0  0  0
 11 13  1  0  0  0  0
 11 14  1  0  0  0  0
 14 15  1  0  0  0  0
 14 16  1  0  0  0  0
 14 17  1  0  0  0  0
 17 18  2  0  0  0  0
 17 19  1  0  0  0  0
 19 20  1  0  0  0  0
 21 22  2  0  0  0  0
 21 23  1  0  0  0  0
 23 24  1  0  0  0  0
 23 25  1  0  0  0  0
 25 26  1  0  0  0  0
 25 27  1  0  0  0  0
 25 28  1  0  0  0  0
M  END
$$$$

  -OEChem-01062216073D

 28 27  0     1  0  0  0  0  0999 V2000
   -1.8520   -3.0892    1.3002 H   0  0  0  0  0  0  0  0  0  0  0  0
   -2.2215   -2.3289    0.6080 C   0  0  0  0  0  0  0  0  0  0  0  0
   -1.5817   -2.3060   -0.2760 H   0  0  0  0  0  0  0  0  0  0  0  0
   -3.2315   -2.6026    0.2918 H   0  0  0  0  0  0  0  0  0  0  0  0
   -2.2551   -0.9691    1.2899 C   0  0  0  0  0  0  0  0  0  0  0  0
   -3.0668   -0.7732    2.1748 O   0  0  0  0  0  0  0  0  0  0  0  0
   -1.8453    0.1838    0.6703 N   0  0  0  0  0  0  0  0  0  0  0  0
   -2.4525    0.9393    0.9800 H   0  0  0  0  0  0  0  0  0  0  0  0
   -0.4636    0.6234    0.3645 C   0  0  1  0  0  0  0  0  0  0  0  0
   -0.0822    1.0651    1.2902 H   0  0  0  0  0  0  0  0  0  0  0  0
    0.6002   -0.4308   -0.0327 C   0  0  0  0  0  0  0  0  0  0  0  0
    0.2253   -0.9921   -0.8957 H   0  0  0  0  0  0  0  0  0  0  0  0
    1.5036    0.0939   -0.3651 H   0  0  0  0  0  0  0  0  0  0  0  0
    1.0057   -1.4136    1.0938 C   0  0  0  0  0  0  0  0  0  0  0  0
    0.1543   -1.9527    1.4952 H   0  0  0  0  0  0  0  0  0  0  0  0
    1.4363   -0.8395    1.9187 H   0  0  0  0  0  0  0  0  0  0  0  0
    2.0393   -2.4552    0.6607 C   0  0  0  0  0  0  0  0  0  0  0  0
    2.3712   -2.5409   -0.5094 O   0  0  0  0  0  0  0  0  0  0  0  0
    2.5375   -3.2501    1.6343 O   0  0  0  0  0  0  0  0  0  0  0  0
    3.1665   -3.8433    1.1951 H   0  0  0  0  0  0  0  0  0  0  0  0
   -0.4950    1.7795   -0.6612 C   0  0  0  0  0  0  0  0  0  0  0  0
   -0.4244    1.5586   -1.8620 O   0  0  0  0  0  0  0  0  0  0  0  0
   -0.5637    3.0909   -0.2251 N   0  0  0  0  0  0  0  0  0  0  0  0
   -0.6284    3.2580    0.7745 H   0  0  0  0  0  0  0  0  0  0  0  0
   -0.5775    4.2326   -1.1331 C   0  0  0  0  0  0  0  0  0  0  0  0
   -1.4266    4.1650   -1.8216 H   0  0  0  0  0  0  0  0  0  0  0  0
   -0.6649    5.1659   -0.5685 H   0  0  0  0  0  0  0  0  0  0  0  0
    0.3476    4.2681   -1.7183 H   0  0  0  0  0  0  0  0  0  0  0  0
  1  2  1  0  0  0  0
  2  3  1  0  0  0  0
  2  4  1  0  0  0  0
  2  5  1  0  0  0  0
  5  6  2  0  0  0  0
  5  7  1  0  0  0  0
  7  8  1  0  0  0  0
  7  9  1  0  0  0  0
  9 10  1  0  0  0  0
  9 11  1  0  0  0  0
  9 21  1  0  0  0  0
 11 12  1  0  0  0  0
 11 13  1  0  0  0  0
 11 14  1  0  0  0  0
 14 15  1  0  0  0  0
 14 16  1  0  0  0  0
 14 17  1  0  0  0  0
 17 18  2  0  0  0  0
 17 19  1  0  0  0  0
 19 20  1  0  0  0  0
 21 22  2  0  0  0  0
 21 23  1  0  0  0  0
 23 24  1  0  0  0  0
 23 25  1  0  0  0  0
 25 26  1  0  0  0  0
 25 27  1  0  0  0  0
 25 28  1  0  0  0  0
M  END
$$$$

  -OEChem-01062216073D

 28 27  0     1  0  0  0  0  0999 V2000
   -1.8688   -3.0900    1.2493 H   0  0  0  0  0  0  0  0  0  0  0  0
   -2.2302   -2.3191    0.5646 C   0  0  0  0  0  0  0  0  0  0  0  0
   -1.5797   -2.2821   -0.3113 H   0  0  0  0  0  0  0  0  0  0  0  0
   -3.2363   -2.5877    0.2323 H   0  0  0  0  0  0  0  0  0  0  0  0
   -2.2725   -0.9699    1.2667 C   0  0  0  0  0  0  0  0  0  0  0  0
   -3.0943   -0.7880    2.1454 O   0  0  0  0  0  0  0  0  0  0  0  0
   -1.8545    0.1891    0.6643 N   0  0  0  0  0  0  0  0  0  0  0  0
   -2.4721    0.9414    0.9616 H   0  0  0  0  0  0  0  0  0  0  0  0
   -0.4681    0.6368    0.3950 C   0  0  1  0  0  0  0  0  0  0  0  0
   -0.1115    1.0665    1.3360 H   0  0  0  0  0  0  0  0  0  0  0  0
    0.6065   -0.4057    0.0007 C   0  0  0  0  0  0  0  0  0  0  0  0
    0.2498   -0.9527   -0.8794 H   0  0  0  0  0  0  0  0  0  0  0  0
    1.5146    0.1271   -0.3045 H   0  0  0  0  0  0  0  0  0  0  0  0
    0.9916   -1.4074    1.1171 C   0  0  0  0  0  0  0  0  0  0  0  0
    0.1336   -1.9569    1.4896 H   0  0  0  0  0  0  0  0  0  0  0  0
    1.4019   -0.8470    1.9617 H   0  0  0  0  0  0  0  0  0  0  0  0
    2.0375   -2.4375    0.6869 C   0  0  0  0  0  0  0  0  0  0  0  0
    2.3940   -2.5005   -0.4774 O   0  0  0  0  0  0  0  0  0  0  0  0
    2.5188   -3.2475    1.6563 O   0  0  0  0  0  0  0  0  0  0  0  0
    3.1575   -3.8324    1.2199 H   0  0  0  0  0  0  0  0  0  0  0  0
   -0.4706    1.7992   -0.6232 C   0  0  0  0  0  0  0  0  0  0  0  0
   -0.6420    1.5833   -1.8145 O   0  0  0  0  0  0  0  0  0  0  0  0
   -0.2401    3.0974   -0.2038 N   0  0  0  0  0  0  0  0  0  0  0  0
   -0.1121    3.2622    0.7900 H   0  0  0  0  0  0  0  0  0  0  0  0
   -0.2134    4.2355   -1.1157 C   0  0  0  0  0  0  0  0  0  0  0  0
   -1.1783    4.3440   -1.6224 H   0  0  0  0  0  0  0  0  0  0  0  0
   -0.0063    5.1582   -0.5650 H   0  0  0  0  0  0  0  0  0  0  0  0
    0.5674    4.1025   -1.8723 H   0  0  0  0  0  0  0  0  0  0  0  0
  1  2  1  0  0  0  0
  2  3  1  0  0  0  0
  2  4  1  0  0  0  0
  2  5  1  0  0  0  0
  5  6  2  0  0  0  0
  5  7  1  0  0  0  0
  7  8  1  0  0  0  0
  7  9  1  0  0  0  0
  9 10  1  0  0  0  0
  9 11  1  0  0  0  0
  9 21  1  0  0  0  0
 11 12  1  0  0  0  0
 11 13  1  0  0  0  0
 11 14  1  0  0  0  0
 14 15  1  0  0  0  0
 14 16  1  0  0  0  0
 14 17  1  0  0  0  0
 17 18  2  0  0  0  0
 17 19  1  0  0  0  0
 19 20  1  0  0  0  0
 21 22  2  0  0  0  0
 21 23  1  0  0  0  0
 23 24  1  0  0  0  0
 23 25  1  0  0  0  0
 25 26  1  0  0  0  0
 25 27  1  0  0  0  0
 25 28  1  0  0  0  0
M  END
$$$$

  -OEChem-01062216073D

 28 27  0     1  0  0  0  0  0999 V2000
   -1.8937   -3.0747    1.2608 H   0  0  0  0  0  0  0  0  0  0  0  0
   -2.2390   -2.2997    0.5724 C   0  0  0  0  0  0  0  0  0  0  0  0
   -1.5768   -2.2681   -0.2947 H   0  0  0  0  0  0  0  0  0  0  0  0
   -3.2432   -2.5578    0.2264 H   0  0  0  0  0  0  0  0  0  0  0  0
   -2.2771   -0.9514    1.2763 C   0  0  0  0  0  0  0  0  0  0  0  0
   -3.0975   -0.7700    2.1564 O   0  0  0  0  0  0  0  0  0  0  0  0
   -1.8523    0.2058    0.6756 N   0  0  0  0  0  0  0  0  0  0  0  0
   -2.4735    0.9615    0.9564 H   0  0  0  0  0  0  0  0  0  0  0  0
   -0.4639    0.6512    0.4117 C   0  0  1  0  0  0  0  0  0  0  0  0
   -0.1136    1.0773    1.3566 H   0  0  0  0  0  0  0  0  0  0  0  0
    0.6078   -0.3920    0.0151 C   0  0  0  0  0  0  0  0  0  0  0  0
    0.2482   -0.9336   -0.8670 H   0  0  0  0  0  0  0  0  0  0  0  0
    1.5186    0.1376   -0.2876 H   0  0  0  0  0  0  0  0  0  0  0  0
    0.9878   -1.4009    1.1269 C   0  0  0  0  0  0  0  0  0  0  0  0
    0.1273   -1.9501    1.4947 H   0  0  0  0  0  0  0  0  0  0  0  0
    1.3978   -0.8464    1.9755 H   0  0  0  0  0  0  0  0  0  0  0  0
    2.0316   -2.4315    0.6928 C   0  0  0  0  0  0  0  0  0  0  0  0
    2.3893   -2.4879   -0.4716 O   0  0  0  0  0  0  0  0  0  0  0  0
    2.5105   -3.2480    1.6580 O   0  0  0  0  0  0  0  0  0  0  0  0
    3.1477   -3.8325    1.2188 H   0  0  0  0  0  0  0  0  0  0  0  0
   -0.4481    1.8139   -0.6061 C   0  0  0  0  0  0  0  0  0  0  0  0
   -0.8858    1.6573   -1.7370 O   0  0  0  0  0  0  0  0  0  0  0  0
    0.0839    3.0427   -0.2575 N   0  0  0  0  0  0  0  0  0  0  0  0
    0.4358    3.1594    0.6879 H   0  0  0  0  0  0  0  0  0  0  0  0
    0.1391    4.1757   -1.1744 C   0  0  0  0  0  0  0  0  0  0  0  0
   -0.8693    4.4608   -1.4928 H   0  0  0  0  0  0  0  0  0  0  0  0
    0.6032    5.0374   -0.6850 H   0  0  0  0  0  0  0  0  0  0  0  0
    0.7299    3.9230   -2.0613 H   0  0  0  0  0  0  0  0  0  0  0  0
  1  2  1  0  0  0  0
  2  3  1  0  0  0  0
  2  4  1  0  0  0  0
  2  5  1  0  0  0  0
  5  6  2  0  0  0  0
  5  7  1  0  0  0  0
  7  8  1  0  0  0  0
  7  9  1  0  0  0  0
  9 10  1  0  0  0  0
  9 11  1  0  0  0  0
  9 21  1  0  0  0  0
 11 12  1  0  0  0  0
 11 13  1  0  0  0  0
 11 14  1  0  0  0  0
 14 15  1  0  0  0  0
 14 16  1  0  0  0  0
 14 17  1  0  0  0  0
 17 18  2  0  0  0  0
 17 19  1  0  0  0  0
 19 20  1  0  0  0  0
 21 22  2  0  0  0  0
 21 23  1  0  0  0  0
 23 24  1  0  0  0  0
 23 25  1  0  0  0  0
 25 26  1  0  0  0  0
 25 27  1  0  0  0  0
 25 28  1  0  0  0  0
M  END
$$$$

  -OEChem-01062216073D

 28 27  0     1  0  0  0  0  0999 V2000
   -1.8751   -3.0647    1.2595 H   0  0  0  0  0  0  0  0  0  0  0  0
   -2.2276   -2.2933    0.5708 C   0  0  0  0  0  0  0  0  0  0  0  0
   -1.5663   -2.2549   -0.2967 H   0  0  0  0  0  0  0  0  0  0  0  0
   -3.2290   -2.5621    0.2252 H   0  0  0  0  0  0  0  0  0  0  0  0
   -2.2797   -0.9449    1.2739 C   0  0  0  0  0  0  0  0  0  0  0  0
   -3.1134   -0.7690    2.1425 O   0  0  0  0  0  0  0  0  0  0  0  0
   -1.8462    0.2138    0.6813 N   0  0  0  0  0  0  0  0  0  0  0  0
   -2.4756    0.9714    0.9391 H   0  0  0  0  0  0  0  0  0  0  0  0
   -0.4578    0.6622    0.4214 C   0  0  1  0  0  0  0  0  0  0  0  0
   -0.1137    1.0851    1.3701 H   0  0  0  0  0  0  0  0  0  0  0  0
    0.6128   -0.3797    0.0214 C   0  0  0  0  0  0  0  0  0  0  0  0
    0.2537   -0.9164   -0.8637 H   0  0  0  0  0  0  0  0  0  0  0  0
    1.5255    0.1491   -0.2765 H   0  0  0  0  0  0  0  0  0  0  0  0
    0.9907   -1.3937    1.1293 C   0  0  0  0  0  0  0  0  0  0  0  0
    0.1298   -1.9432    1.4948 H   0  0  0  0  0  0  0  0  0  0  0  0
    1.4004   -0.8435    1.9808 H   0  0  0  0  0  0  0  0  0  0  0  0
    2.0340   -2.4229    0.6904 C   0  0  0  0  0  0  0  0  0  0  0  0
    2.3914   -2.4726   -0.4746 O   0  0  0  0  0  0  0  0  0  0  0  0
    2.5133   -3.2444    1.6510 O   0  0  0  0  0  0  0  0  0  0  0  0
    3.1496   -3.8279    1.2093 H   0  0  0  0  0  0  0  0  0  0  0  0
   -0.4290    1.8322   -0.5892 C   0  0  0  0  0  0  0  0  0  0  0  0
   -1.1136    1.8034   -1.6019 O   0  0  0  0  0  0  0  0  0  0  0  0
    0.3685    2.9382   -0.3535 N   0  0  0  0  0  0  0  0  0  0  0  0
    0.9289    2.9506    0.4931 H   0  0  0  0  0  0  0  0  0  0  0  0
    0.4469    4.0733   -1.2662 C   0  0  0  0  0  0  0  0  0  0  0  0
   -0.5379    4.5367   -1.3874 H   0  0  0  0  0  0  0  0  0  0  0  0
    1.1371    4.8271   -0.8754 H   0  0  0  0  0  0  0  0  0  0  0  0
    0.8074    3.7509   -2.2490 H   0  0  0  0  0  0  0  0  0  0  0  0
  1  2  1  0  0  0  0
  2  3  1  0  0  0  0
  2  4  1  0  0  0  0
  2  5  1  0  0  0  0
  5  6  2  0  0  0  0
  5  7  1  0  0  0  0
  7  8  1  0  0  0  0
  7  9  1  0  0  0  0
  9 10  1  0  0  0  0
  9 11  1  0  0  0  0
  9 21  1  0  0  0  0
 11 12  1  0  0  0  0
 11 13  1  0  0  0  0
 11 14  1  0  0  0  0
 14 15  1  0  0  0  0
 14 16  1  0  0  0  0
 14 17  1  0  0  0  0
 17 18  2  0  0  0  0
 17 19  1  0  0  0  0
 19 20  1  0  0  0  0
 21 22  2  0  0  0  0
 21 23  1  0  0  0  0
 23 24  1  0  0  0  0
 23 25  1  0  0  0  0
 25 26  1  0  0  0  0
 25 27  1  0  0  0  0
 25 28  1  0  0  0  0
M  END
$$$$

  -OEChem-01062216073D

 28 27  0     1  0  0  0  0  0999 V2000
   -1.8748   -3.0585    1.2354 H   0  0  0  0  0  0  0  0  0  0  0  0
   -2.2186   -2.2863    0.5433 C   0  0  0  0  0  0  0  0  0  0  0  0
   -1.5461   -2.2463   -0.3153 H   0  0  0  0  0  0  0  0  0  0  0  0
   -3.2151   -2.5551    0.1835 H   0  0  0  0  0  0  0  0  0  0  0  0
   -2.2822   -0.9394    1.2486 C   0  0  0  0  0  0  0  0  0  0  0  0
   -3.1379   -0.7662    2.0961 O   0  0  0  0  0  0  0  0  0  0  0  0
   -1.8311    0.2200    0.6701 N   0  0  0  0  0  0  0  0  0  0  0  0
   -2.4688    0.9812    0.8969 H   0  0  0  0  0  0  0  0  0  0  0  0
   -0.4406    0.6692    0.4205 C   0  0  1  0  0  0  0  0  0  0  0  0
   -0.1035    1.0883    1.3736 H   0  0  0  0  0  0  0  0  0  0  0  0
    0.6274   -0.3789    0.0259 C   0  0  0  0  0  0  0  0  0  0  0  0
    0.2699   -0.9136   -0.8611 H   0  0  0  0  0  0  0  0  0  0  0  0
    1.5462    0.1412   -0.2670 H   0  0  0  0  0  0  0  0  0  0  0  0
    0.9925   -1.3953    1.1357 C   0  0  0  0  0  0  0  0  0  0  0  0
    0.1264   -1.9393    1.4971 H   0  0  0  0  0  0  0  0  0  0  0  0
    1.4017   -0.8481    1.9892 H   0  0  0  0  0  0  0  0  0  0  0  0
    2.0328   -2.4297    0.7019 C   0  0  0  0  0  0  0  0  0  0  0  0
    2.3960   -2.4796   -0.4613 O   0  0  0  0  0  0  0  0  0  0  0  0
    2.5034   -3.2541    1.6645 O   0  0  0  0  0  0  0  0  0  0  0  0
    3.1404   -3.8399    1.2268 H   0  0  0  0  0  0  0  0  0  0  0  0
   -0.3971    1.8501   -0.5797 C   0  0  0  0  0  0  0  0  0  0  0  0
   -1.2721    2.0007   -1.4209 O   0  0  0  0  0  0  0  0  0  0  0  0
    0.6134    2.7924   -0.4976 N   0  0  0  0  0  0  0  0  0  0  0  0
    1.3242    2.6676    0.2166 H   0  0  0  0  0  0  0  0  0  0  0  0
    0.7071    3.9418   -1.3910 C   0  0  0  0  0  0  0  0  0  0  0  0
   -0.1806    4.5761   -1.2940 H   0  0  0  0  0  0  0  0  0  0  0  0
    1.5889    4.5418   -1.1461 H   0  0  0  0  0  0  0  0  0  0  0  0
    0.7921    3.6119   -2.4320 H   0  0  0  0  0  0  0  0  0  0  0  0
  1  2  1  0  0  0  0
  2  3  1  0  0  0  0
  2  4  1  0  0  0  0
  2  5  1  0  0  0  0
  5  6  2  0  0  0  0
  5  7  1  0  0  0  0
  7  8  1  0  0  0  0
  7  9  1  0  0  0  0
  9 10  1  0  0  0  0
  9 11  1  0  0  0  0
  9 21  1  0  0  0  0
 11 12  1  0  0  0  0
 11 13  1  0  0  0  0
 11 14  1  0  0  0  0
 14 15  1  0  0  0  0
 14 16  1  0  0  0  0
 14 17  1  0  0  0  0
 17 18  2  0  0  0  0
 17 19  1  0  0  0  0
 19 20  1  0  0  0  0
 21 22  2  0  0  0  0
 21 23  1  0  0  0  0
 23 24  1  0  0  0  0
 23 25  1  0  0  0  0
 25 26  1  0  0  0  0
 25 27  1  0  0  0  0
 25 28  1  0  0  0  0
M  END
$$$$

  -OEChem-01062216073D

 28 27  0     1  0  0  0  0  0999 V2000
   -1.8569   -3.0567    1.2227 H   0  0  0  0  0  0  0  0  0  0  0  0
   -2.1930   -2.2884    0.5224 C   0  0  0  0  0  0  0  0  0  0  0  0
   -1.5081   -2.2483   -0.3261 H   0  0  0  0  0  0  0  0  0  0  0  0
   -3.1828   -2.5635    0.1484 H   0  0  0  0  0  0  0  0  0  0  0  0
   -2.2749   -0.9401    1.2237 C   0  0  0  0  0  0  0  0  0  0  0  0
   -3.1609   -0.7675    2.0395 O   0  0  0  0  0  0  0  0  0  0  0  0
   -1.8017    0.2201    0.6628 N   0  0  0  0  0  0  0  0  0  0  0  0
   -2.4447    0.9857    0.8612 H   0  0  0  0  0  0  0  0  0  0  0  0
   -0.4097    0.6702    0.4198 C   0  0  1  0  0  0  0  0  0  0  0  0
   -0.0724    1.0852    1.3748 H   0  0  0  0  0  0  0  0  0  0  0  0
    0.6531   -0.3866    0.0286 C   0  0  0  0  0  0  0  0  0  0  0  0
    0.2947   -0.9197   -0.8587 H   0  0  0  0  0  0  0  0  0  0  0  0
    1.5796    0.1205   -0.2605 H   0  0  0  0  0  0  0  0  0  0  0  0
    1.0051   -1.4035    1.1424 C   0  0  0  0  0  0  0  0  0  0  0  0
    0.1335   -1.9377    1.5047 H   0  0  0  0  0  0  0  0  0  0  0  0
    1.4162   -0.8567    1.9954 H   0  0  0  0  0  0  0  0  0  0  0  0
    2.0390   -2.4468    0.7146 C   0  0  0  0  0  0  0  0  0  0  0  0
    2.4056   -2.5001   -0.4475 O   0  0  0  0  0  0  0  0  0  0  0  0
    2.4976   -3.2763    1.6785 O   0  0  0  0  0  0  0  0  0  0  0  0
    3.1287   -3.8700    1.2431 H   0  0  0  0  0  0  0  0  0  0  0  0
   -0.3697    1.8658   -0.5670 C   0  0  0  0  0  0  0  0  0  0  0  0
   -1.3689    2.2088   -1.1845 O   0  0  0  0  0  0  0  0  0  0  0  0
    0.7754    2.6335   -0.6945 N   0  0  0  0  0  0  0  0  0  0  0  0
    1.5937    2.3596   -0.1596 H   0  0  0  0  0  0  0  0  0  0  0  0
    0.8655    3.7951   -1.5726 C   0  0  0  0  0  0  0  0  0  0  0  0
    0.1202    4.5475   -1.2926 H   0  0  0  0  0  0  0  0  0  0  0  0
    1.8584    4.2494   -1.4999 H   0  0  0  0  0  0  0  0  0  0  0  0
    0.6951    3.5015   -2.6139 H   0  0  0  0  0  0  0  0  0  0  0  0
  1  2  1  0  0  0  0
  2  3  1  0  0  0  0
  2  4  1  0  0  0  0
  2  5  1  0  0  0  0
  5  6  2  0  0  0  0
  5  7  1  0  0  0  0
  7  8  1  0  0  0  0
  7  9  1  0  0  0  0
  9 10  1  0  0  0  0
  9 11  1  0  0  0  0
  9 21  1  0  0  0  0
 11 12  1  0  0  0  0
 11 13  1  0  0  0  0
 11 14  1  0  0  0  0
 14 15  1  0  0  0  0
 14 16  1  0  0  0  0
 14 17  1  0  0  0  0
 17 18  2  0  0  0  0
 17 19  1  0  0  0  0
 19 20  1  0  0  0  0
 21 22  2  0  0  0  0
 21 23  1  0  0  0  0
 23 24  1  0  0  0  0
 23 25  1  0  0  0  0
 25 26  1  0  0  0  0
 25 27  1  0  0  0  0
 25 28  1  0  0  0  0
M  END
$$$$
