@<TRIPOS>MOLECULE
default_name
   32    32     1     0     0
SMALL
No Charge or Current Charge


@<TRIPOS>ATOM
      1 H1          25.9670    25.3340    25.0220 H          1 ACE       0.112300
      2 CH3         26.0110    26.2090    24.3750 C.3        1 ACE      -0.366200
      3 H2          25.2610    26.9330    24.6870 H          1 ACE       0.112300
      4 H3          25.8330    25.9110    23.3430 H          1 ACE       0.112300
      5 C           27.3830    26.8320    24.4850 C.2        1 ACE       0.597200
      6 O           28.2270    26.3380    25.2210 O.2        1 ACE      -0.567900
      7 N           27.6030    27.9220    23.7530 N.am       2 PHE      -0.415700
      8 H           26.8480    28.2950    23.1960 H          2 PHE       0.271900
      9 CA          28.8590    28.6770    23.7450 C.3        2 PHE      -0.002400
     10 HA          29.3000    28.6300    24.7420 H          2 PHE       0.097800
     11 CB          29.8370    28.0260    22.7520 C.3        2 PHE      -0.034300
     12 HB2         29.9540    26.9720    23.0080 H          2 PHE       0.029500
     13 HB3         29.4080    28.0740    21.7500 H          2 PHE       0.029500
     14 CG          31.2140    28.6620    22.7380 C.ar       2 PHE       0.011800
     15 CD1         31.5800    29.5480    21.7070 C.ar       2 PHE      -0.125600
     16 HD1         30.8880    29.7630    20.9050 H          2 PHE       0.133000
     17 CE1         32.8440    30.1660    21.7230 C.ar       2 PHE      -0.170400
     18 HE1         33.1240    30.8440    20.9290 H          2 PHE       0.143000
     19 CZ          33.7430    29.9010    22.7700 C.ar       2 PHE      -0.107200
     20 HZ          34.7150    30.3740    22.7810 H          2 PHE       0.129700
     21 CE2         33.3810    29.0150    23.8010 C.ar       2 PHE      -0.170400
     22 HE2         34.0740    28.8070    24.6030 H          2 PHE       0.143000
     23 CD2         32.1190    28.3950    23.7830 C.ar       2 PHE      -0.125600
     24 HD2         31.8430    27.7110    24.5750 H          2 PHE       0.133000
     25 C           28.6070    30.1590    23.4140 C.2        2 PHE       0.597300
     26 O           27.5870    30.4940    22.8100 O.2        2 PHE      -0.567900
     27 N           29.5340    31.0440    23.8020 N.am       3 NME      -0.415700
     28 H           30.3680    30.6860    24.2420 H          3 NME       0.271900
     29 CH3         29.4510    32.4820    23.5580 C.3        3 NME      -0.149000
     30 HH31        28.4900    32.8620    23.9110 H          3 NME       0.097600
     31 HH32        30.2560    33.0000    24.0800 H          3 NME       0.097600
     32 HH33        29.5310    32.6780    22.4870 H          3 NME       0.097600
@<TRIPOS>BOND
     1     5     6 2   
     2     5     7 am  
     3     2     3 1   
     4     2     4 1   
     5     2     5 1   
     6     1     2 1   
     7    25    26 2   
     8    25    27 am  
     9    23    24 1   
    10    21    22 1   
    11    21    23 ar  
    12    19    20 1   
    13    19    21 ar  
    14    17    18 1   
    15    17    19 ar  
    16    15    16 1   
    17    15    17 ar  
    18    14    15 ar  
    19    14    23 ar  
    20    11    12 1   
    21    11    13 1   
    22    11    14 1   
    23     9    10 1   
    24     9    11 1   
    25     9    25 1   
    26     7     8 1   
    27     7     9 1   
    28    29    30 1   
    29    29    31 1   
    30    29    32 1   
    31    27    28 1   
    32    27    29 1   
@<TRIPOS>SUBSTRUCTURE
     1 ACE         1 TEMP              0 ****  ****    0 ROOT
