@<TRIPOS>MOLECULE
default_name
   18    17     1     0     0
SMALL
No Charge or Current Charge


@<TRIPOS>ATOM
      1 H1          25.8170    25.1880    24.5210 H          1 ACE       0.112300
      2 CH3         25.9200    26.2240    24.2070 C.3        1 ACE      -0.366200
      3 H2          25.4330    26.8810    24.9240 H          1 ACE       0.112300
      4 H3          25.4810    26.3620    23.2210 H          1 ACE       0.112300
      5 C           27.3900    26.5750    24.1440 C.2        1 ACE       0.597200
      6 O           28.2270    25.7230    24.4200 O.2        1 ACE      -0.567900
      7 N           27.6740    27.8220    23.7730 N.am       2 CCY      -0.567900
      8 H           26.9150    28.4690    23.6010 H          2 CCY      -0.567900
      9 CA          28.9900    28.4650    23.7230 C.3        2 CCY      -0.567900
     10 HA          29.5740    28.1860    24.5990 H          2 CCY      -0.567900
     11 CB          29.7190    28.0070    22.4490 C.3        2 CCY      -0.567900
     12 HB2         29.7270    26.9170    22.3970 H          2 CCY      -0.567900
     13 HB3         29.2010    28.4160    21.5800 H          2 CCY      -0.567900
     14 SG          31.4240    28.6230    22.4920 S.3        2 CCY      -0.567900
     15 HG          31.0750    29.8230    23.0100 H          2 CCY      -0.567900
     16 C           28.8050    29.9960    23.7720 C.2        2 CCY      -0.567900
     17 O           27.6620    30.4370    23.5050 O.co2      2 CCY      -0.567900
     18 OXT         29.8030    30.6880    24.0660 O.co2      2 CCY      -0.567900
@<TRIPOS>BOND
     1     5     6 2   
     2     5     7 am  
     3     2     3 1   
     4     2     4 1   
     5     2     5 1   
     6     1     2 1   
     7    16    17 1   
     8    16    18 1   
     9    14    15 1   
    10    11    12 1   
    11    11    13 1   
    12    11    14 1   
    13     9    10 1   
    14     9    11 1   
    15     9    16 1   
    16     7     8 1   
    17     7     9 1   
@<TRIPOS>SUBSTRUCTURE
     1 ACE         1 TEMP              0 ****  ****    0 ROOT
