
  -OEChem-02062319113D

 54 53  0     1  0  0  0  0  0999 V2000
    2.4030    2.6852   -0.2499 C   0  0  0  0  0  0  0  0  0  0  0  0
    1.7160    2.3526    0.7088 O   0  0  0  0  0  0  0  0  0  0  0  0
    3.7355    3.3737   -0.0250 C   0  0  0  0  0  0  0  0  0  0  0  0
    3.7417    4.3459   -0.5246 H   0  0  0  0  0  0  0  0  0  0  0  0
    3.9074    3.5277    1.0436 H   0  0  0  0  0  0  0  0  0  0  0  0
    4.5452    2.7610   -0.4289 H   0  0  0  0  0  0  0  0  0  0  0  0
    1.9948    2.3948   -1.5355 N   0  0  0  0  0  0  0  0  0  0  0  0
    0.6915    1.8117   -1.8894 C   0  0  2  0  0  0  0  0  0  0  0  0
    0.5760    0.3127   -1.5248 C   0  0  0  0  0  0  0  0  0  0  0  0
    0.6402   -0.5723   -2.3672 O   0  0  0  0  0  0  0  0  0  0  0  0
    0.4628    2.0643   -3.3844 C   0  0  0  0  0  0  0  0  0  0  0  0
    2.6209    2.6564   -2.2930 H   0  0  0  0  0  0  0  0  0  0  0  0
   -0.1013    2.3353   -1.3440 H   0  0  0  0  0  0  0  0  0  0  0  0
    1.2288    1.5628   -3.9849 H   0  0  0  0  0  0  0  0  0  0  0  0
   -0.5175    1.6796   -3.6841 H   0  0  0  0  0  0  0  0  0  0  0  0
    0.4914    3.1363   -3.6015 H   0  0  0  0  0  0  0  0  0  0  0  0
    0.4154   -0.0346   -0.1953 N   0  0  0  0  0  0  0  0  0  0  0  0
    0.2903   -1.4156    0.3030 C   0  0  2  0  0  0  0  0  0  0  0  0
   -0.9313   -2.1273   -0.3082 C   0  0  0  0  0  0  0  0  0  0  0  0
   -0.8810   -3.3154   -0.5927 O   0  0  0  0  0  0  0  0  0  0  0  0
    0.1769   -1.4136    1.8354 C   0  0  0  0  0  0  0  0  0  0  0  0
    1.4635   -0.9104    2.5055 C   0  0  0  0  0  0  0  0  0  0  0  0
    1.3290   -0.9710    4.0304 C   0  0  0  0  0  0  0  0  0  0  0  0
    2.5971   -0.4332    4.6876 C   0  0  0  0  0  0  0  0  0  0  0  0
    2.4431   -0.5067    6.1567 N   0  3  0  0  0  0  0  0  0  0  0  0
    0.5657    0.7295    0.4673 H   0  0  0  0  0  0  0  0  0  0  0  0
    1.1760   -1.9872    0.0036 H   0  0  0  0  0  0  0  0  0  0  0  0
   -0.6702   -0.7881    2.1378 H   0  0  0  0  0  0  0  0  0  0  0  0
   -0.0286   -2.4359    2.1730 H   0  0  0  0  0  0  0  0  0  0  0  0
    2.3085   -1.5280    2.1804 H   0  0  0  0  0  0  0  0  0  0  0  0
    1.6637    0.1207    2.1966 H   0  0  0  0  0  0  0  0  0  0  0  0
    1.1560   -2.0083    4.3388 H   0  0  0  0  0  0  0  0  0  0  0  0
    0.4647   -0.3738    4.3424 H   0  0  0  0  0  0  0  0  0  0  0  0
    3.4597   -1.0255    4.3484 H   0  0  0  0  0  0  0  0  0  0  0  0
    2.7646    0.6025    4.3560 H   0  0  0  0  0  0  0  0  0  0  0  0
    3.2867   -0.1588    6.6172 H   0  0  0  0  0  0  0  0  0  0  0  0
    2.2843   -1.4748    6.4427 H   0  0  0  0  0  0  0  0  0  0  0  0
    1.6461    0.0606    6.4521 H   0  0  0  0  0  0  0  0  0  0  0  0
   -2.1301   -1.4457   -0.3712 N   0  0  0  0  0  0  0  0  0  0  0  0
   -3.0946   -1.7308   -1.4375 C   0  0  2  0  0  0  0  0  0  0  0  0
   -3.0588   -0.5941   -2.4819 C   0  0  0  0  0  0  0  0  0  0  0  0
   -2.6844    0.5289   -2.1478 O   0  0  0  0  0  0  0  0  0  0  0  0
   -4.4835   -1.8547   -0.8095 C   0  0  0  0  0  0  0  0  0  0  0  0
   -2.0154   -0.4489   -0.1932 H   0  0  0  0  0  0  0  0  0  0  0  0
   -2.8522   -2.6696   -1.9472 H   0  0  0  0  0  0  0  0  0  0  0  0
   -4.7627   -0.9234   -0.3064 H   0  0  0  0  0  0  0  0  0  0  0  0
   -5.2322   -2.0735   -1.5770 H   0  0  0  0  0  0  0  0  0  0  0  0
   -4.4940   -2.6658   -0.0747 H   0  0  0  0  0  0  0  0  0  0  0  0
   -3.4454   -0.8269   -3.7876 N   0  0  0  0  0  0  0  0  0  0  0  0
   -3.3263    0.1705   -4.8440 C   0  0  0  0  0  0  0  0  0  0  0  0
   -3.6461   -1.7887   -4.0478 H   0  0  0  0  0  0  0  0  0  0  0  0
   -3.8143    1.1058   -4.5494 H   0  0  0  0  0  0  0  0  0  0  0  0
   -2.2722    0.3747   -5.0590 H   0  0  0  0  0  0  0  0  0  0  0  0
   -3.8045   -0.1906   -5.7598 H   0  0  0  0  0  0  0  0  0  0  0  0
  1  2  2  0  0  0  0
  1  3  1  0  0  0  0
  1  7  1  0  0  0  0
  3  4  1  0  0  0  0
  3  5  1  0  0  0  0
  3  6  1  0  0  0  0
  7  8  1  0  0  0  0
  7 12  1  0  0  0  0
  8  9  1  0  0  0  0
  8 11  1  0  0  0  0
  8 13  1  0  0  0  0
  9 10  2  0  0  0  0
  9 17  1  0  0  0  0
 11 14  1  0  0  0  0
 11 15  1  0  0  0  0
 11 16  1  0  0  0  0
 17 18  1  0  0  0  0
 17 26  1  0  0  0  0
 18 19  1  0  0  0  0
 18 21  1  0  0  0  0
 18 27  1  0  0  0  0
 19 20  2  0  0  0  0
 19 39  1  0  0  0  0
 21 22  1  0  0  0  0
 21 28  1  0  0  0  0
 21 29  1  0  0  0  0
 22 23  1  0  0  0  0
 22 30  1  0  0  0  0
 22 31  1  0  0  0  0
 23 24  1  0  0  0  0
 23 32  1  0  0  0  0
 23 33  1  0  0  0  0
 24 25  1  0  0  0  0
 24 34  1  0  0  0  0
 24 35  1  0  0  0  0
 25 36  1  0  0  0  0
 25 37  1  0  0  0  0
 25 38  1  0  0  0  0
 39 40  1  0  0  0  0
 39 44  1  0  0  0  0
 40 41  1  0  0  0  0
 40 43  1  0  0  0  0
 40 45  1  0  0  0  0
 41 42  2  0  0  0  0
 41 49  1  0  0  0  0
 43 46  1  0  0  0  0
 43 47  1  0  0  0  0
 43 48  1  0  0  0  0
 49 50  1  0  0  0  0
 49 51  1  0  0  0  0
 50 52  1  0  0  0  0
 50 53  1  0  0  0  0
 50 54  1  0  0  0  0
M  CHG  1  25   1
M  END
$$$$

  -OEChem-02062319113D

 54 53  0     1  0  0  0  0  0999 V2000
    2.3940    2.7034   -0.3741 C   0  0  0  0  0  0  0  0  0  0  0  0
    1.7206    2.4438    0.6165 O   0  0  0  0  0  0  0  0  0  0  0  0
    3.7405    3.3850   -0.2236 C   0  0  0  0  0  0  0  0  0  0  0  0
    3.7448    4.3275   -0.7772 H   0  0  0  0  0  0  0  0  0  0  0  0
    3.9437    3.5963    0.8295 H   0  0  0  0  0  0  0  0  0  0  0  0
    4.5318    2.7399   -0.6136 H   0  0  0  0  0  0  0  0  0  0  0  0
    1.9492    2.3394   -1.6278 N   0  0  0  0  0  0  0  0  0  0  0  0
    0.6473    1.7134   -1.8972 C   0  0  2  0  0  0  0  0  0  0  0  0
    0.5899    0.2306   -1.4652 C   0  0  0  0  0  0  0  0  0  0  0  0
    0.8259   -0.6739   -2.2549 O   0  0  0  0  0  0  0  0  0  0  0  0
    0.3396    1.8881   -3.3887 C   0  0  0  0  0  0  0  0  0  0  0  0
    2.5705    2.5123   -2.4143 H   0  0  0  0  0  0  0  0  0  0  0  0
   -0.1327    2.2423   -1.3391 H   0  0  0  0  0  0  0  0  0  0  0  0
    1.0934    1.3850   -4.0031 H   0  0  0  0  0  0  0  0  0  0  0  0
   -0.6395    1.4568   -3.6221 H   0  0  0  0  0  0  0  0  0  0  0  0
    0.3213    2.9492   -3.6544 H   0  0  0  0  0  0  0  0  0  0  0  0
    0.4220   -0.0631   -0.1218 N   0  0  0  0  0  0  0  0  0  0  0  0
    0.6622   -1.3962    0.4630 C   0  0  2  0  0  0  0  0  0  0  0  0
   -0.2465   -2.4659   -0.1733 C   0  0  0  0  0  0  0  0  0  0  0  0
    0.1713   -3.5975   -0.3749 O   0  0  0  0  0  0  0  0  0  0  0  0
    0.4291   -1.3616    1.9818 C   0  0  0  0  0  0  0  0  0  0  0  0
    1.4571   -0.4762    2.6995 C   0  0  0  0  0  0  0  0  0  0  0  0
    1.2382   -0.5140    4.2147 C   0  0  0  0  0  0  0  0  0  0  0  0
    2.2510    0.3948    4.9062 C   0  0  0  0  0  0  0  0  0  0  0  0
    2.0067    0.3641    6.3644 N   0  3  0  0  0  0  0  0  0  0  0  0
    0.5169    0.7534    0.4848 H   0  0  0  0  0  0  0  0  0  0  0  0
    1.6966   -1.6955    0.2596 H   0  0  0  0  0  0  0  0  0  0  0  0
   -0.5843   -1.0001    2.1878 H   0  0  0  0  0  0  0  0  0  0  0  0
    0.5026   -2.3838    2.3702 H   0  0  0  0  0  0  0  0  0  0  0  0
    2.4680   -0.8251    2.4599 H   0  0  0  0  0  0  0  0  0  0  0  0
    1.3652    0.5554    2.3475 H   0  0  0  0  0  0  0  0  0  0  0  0
    1.3490   -1.5434    4.5734 H   0  0  0  0  0  0  0  0  0  0  0  0
    0.2193   -0.1813    4.4422 H   0  0  0  0  0  0  0  0  0  0  0  0
    3.2680    0.0513    4.6658 H   0  0  0  0  0  0  0  0  0  0  0  0
    2.1518    1.4156    4.5076 H   0  0  0  0  0  0  0  0  0  0  0  0
    2.6905    0.9500    6.8482 H   0  0  0  0  0  0  0  0  0  0  0  0
    2.0859   -0.5939    6.7113 H   0  0  0  0  0  0  0  0  0  0  0  0
    1.0681    0.7134    6.5676 H   0  0  0  0  0  0  0  0  0  0  0  0
   -1.5818   -2.1704   -0.3598 N   0  0  0  0  0  0  0  0  0  0  0  0
   -2.3086   -2.7336   -1.5016 C   0  0  2  0  0  0  0  0  0  0  0  0
   -2.5566   -1.6254   -2.5493 C   0  0  0  0  0  0  0  0  0  0  0  0
   -2.5795   -0.4470   -2.1971 O   0  0  0  0  0  0  0  0  0  0  0  0
   -3.6291   -3.3145   -0.9939 C   0  0  0  0  0  0  0  0  0  0  0  0
   -1.7738   -1.1784   -0.2233 H   0  0  0  0  0  0  0  0  0  0  0  0
   -1.7301   -3.5306   -1.9817 H   0  0  0  0  0  0  0  0  0  0  0  0
   -4.2359   -2.5339   -0.5240 H   0  0  0  0  0  0  0  0  0  0  0  0
   -4.1989   -3.7483   -1.8211 H   0  0  0  0  0  0  0  0  0  0  0  0
   -3.4375   -4.1002   -0.2563 H   0  0  0  0  0  0  0  0  0  0  0  0
   -2.7603   -1.9440   -3.8783 N   0  0  0  0  0  0  0  0  0  0  0  0
   -2.8988   -0.9389   -4.9253 C   0  0  0  0  0  0  0  0  0  0  0  0
   -2.6298   -2.9149   -4.1487 H   0  0  0  0  0  0  0  0  0  0  0  0
   -3.6973   -0.2312   -4.6779 H   0  0  0  0  0  0  0  0  0  0  0  0
   -1.9623   -0.3851   -5.0491 H   0  0  0  0  0  0  0  0  0  0  0  0
   -3.1491   -1.4166   -5.8775 H   0  0  0  0  0  0  0  0  0  0  0  0
  1  2  2  0  0  0  0
  1  3  1  0  0  0  0
  1  7  1  0  0  0  0
  3  4  1  0  0  0  0
  3  5  1  0  0  0  0
  3  6  1  0  0  0  0
  7  8  1  0  0  0  0
  7 12  1  0  0  0  0
  8  9  1  0  0  0  0
  8 11  1  0  0  0  0
  8 13  1  0  0  0  0
  9 10  2  0  0  0  0
  9 17  1  0  0  0  0
 11 14  1  0  0  0  0
 11 15  1  0  0  0  0
 11 16  1  0  0  0  0
 17 18  1  0  0  0  0
 17 26  1  0  0  0  0
 18 19  1  0  0  0  0
 18 21  1  0  0  0  0
 18 27  1  0  0  0  0
 19 20  2  0  0  0  0
 19 39  1  0  0  0  0
 21 22  1  0  0  0  0
 21 28  1  0  0  0  0
 21 29  1  0  0  0  0
 22 23  1  0  0  0  0
 22 30  1  0  0  0  0
 22 31  1  0  0  0  0
 23 24  1  0  0  0  0
 23 32  1  0  0  0  0
 23 33  1  0  0  0  0
 24 25  1  0  0  0  0
 24 34  1  0  0  0  0
 24 35  1  0  0  0  0
 25 36  1  0  0  0  0
 25 37  1  0  0  0  0
 25 38  1  0  0  0  0
 39 40  1  0  0  0  0
 39 44  1  0  0  0  0
 40 41  1  0  0  0  0
 40 43  1  0  0  0  0
 40 45  1  0  0  0  0
 41 42  2  0  0  0  0
 41 49  1  0  0  0  0
 43 46  1  0  0  0  0
 43 47  1  0  0  0  0
 43 48  1  0  0  0  0
 49 50  1  0  0  0  0
 49 51  1  0  0  0  0
 50 52  1  0  0  0  0
 50 53  1  0  0  0  0
 50 54  1  0  0  0  0
M  CHG  1  25   1
M  END
$$$$

  -OEChem-02062319113D

 54 53  0     1  0  0  0  0  0999 V2000
    2.4955    2.8245   -0.2595 C   0  0  0  0  0  0  0  0  0  0  0  0
    1.7389    2.6087    0.6803 O   0  0  0  0  0  0  0  0  0  0  0  0
    3.8642    3.4289   -0.0136 C   0  0  0  0  0  0  0  0  0  0  0  0
    3.9577    4.3713   -0.5593 H   0  0  0  0  0  0  0  0  0  0  0  0
    4.0081    3.6244    1.0522 H   0  0  0  0  0  0  0  0  0  0  0  0
    4.6427    2.7416   -0.3546 H   0  0  0  0  0  0  0  0  0  0  0  0
    2.1252    2.4730   -1.5404 N   0  0  0  0  0  0  0  0  0  0  0  0
    0.8391    1.8562   -1.8928 C   0  0  2  0  0  0  0  0  0  0  0  0
    0.7606    0.3688   -1.4759 C   0  0  0  0  0  0  0  0  0  0  0  0
    1.1104   -0.5156   -2.2442 O   0  0  0  0  0  0  0  0  0  0  0  0
    0.6291    2.0446   -3.4004 C   0  0  0  0  0  0  0  0  0  0  0  0
    2.8219    2.5798   -2.2740 H   0  0  0  0  0  0  0  0  0  0  0  0
    0.0282    2.3843   -1.3793 H   0  0  0  0  0  0  0  0  0  0  0  0
    1.4289    1.5581   -3.9682 H   0  0  0  0  0  0  0  0  0  0  0  0
   -0.3259    1.6050   -3.7064 H   0  0  0  0  0  0  0  0  0  0  0  0
    0.6165    3.1086   -3.6555 H   0  0  0  0  0  0  0  0  0  0  0  0
    0.5365    0.0672   -0.1418 N   0  0  0  0  0  0  0  0  0  0  0  0
    1.0447   -1.1601    0.5041 C   0  0  2  0  0  0  0  0  0  0  0  0
    0.5178   -2.4545   -0.1465 C   0  0  0  0  0  0  0  0  0  0  0  0
    1.2260   -3.4514   -0.1870 O   0  0  0  0  0  0  0  0  0  0  0  0
    0.6740   -1.1709    1.9976 C   0  0  0  0  0  0  0  0  0  0  0  0
    1.2471    0.0372    2.7510 C   0  0  0  0  0  0  0  0  0  0  0  0
    1.0362   -0.1118    4.2599 C   0  0  0  0  0  0  0  0  0  0  0  0
    1.5795    1.1213    4.9765 C   0  0  0  0  0  0  0  0  0  0  0  0
    1.3496    0.9706    6.4295 N   0  3  0  0  0  0  0  0  0  0  0  0
    0.5188    0.9066    0.4393 H   0  0  0  0  0  0  0  0  0  0  0  0
    2.1354   -1.1813    0.4043 H   0  0  0  0  0  0  0  0  0  0  0  0
   -0.4162   -1.1862    2.1046 H   0  0  0  0  0  0  0  0  0  0  0  0
    1.0630   -2.0941    2.4425 H   0  0  0  0  0  0  0  0  0  0  0  0
    2.3168    0.1326    2.5322 H   0  0  0  0  0  0  0  0  0  0  0  0
    0.7482    0.9493    2.4090 H   0  0  0  0  0  0  0  0  0  0  0  0
    1.5504   -1.0120    4.6145 H   0  0  0  0  0  0  0  0  0  0  0  0
   -0.0336   -0.2263    4.4673 H   0  0  0  0  0  0  0  0  0  0  0  0
    2.6509    1.2285    4.7516 H   0  0  0  0  0  0  0  0  0  0  0  0
    1.0767    2.0179    4.5839 H   0  0  0  0  0  0  0  0  0  0  0  0
    1.6921    1.7950    6.9273 H   0  0  0  0  0  0  0  0  0  0  0  0
    1.8415    0.1448    6.7763 H   0  0  0  0  0  0  0  0  0  0  0  0
    0.3504    0.8627    6.6144 H   0  0  0  0  0  0  0  0  0  0  0  0
   -0.8228   -2.5431   -0.4602 N   0  0  0  0  0  0  0  0  0  0  0  0
   -1.3252   -3.5022   -1.4477 C   0  0  2  0  0  0  0  0  0  0  0  0
   -2.0532   -2.7482   -2.5810 C   0  0  0  0  0  0  0  0  0  0  0  0
   -2.4809   -1.6136   -2.3814 O   0  0  0  0  0  0  0  0  0  0  0  0
   -2.2684   -4.4760   -0.7390 C   0  0  0  0  0  0  0  0  0  0  0  0
   -1.2833   -1.6336   -0.5038 H   0  0  0  0  0  0  0  0  0  0  0  0
   -0.4994   -4.0636   -1.8981 H   0  0  0  0  0  0  0  0  0  0  0  0
   -3.1101   -3.9382   -0.2908 H   0  0  0  0  0  0  0  0  0  0  0  0
   -2.6620   -5.2120   -1.4467 H   0  0  0  0  0  0  0  0  0  0  0  0
   -1.7323   -5.0091    0.0525 H   0  0  0  0  0  0  0  0  0  0  0  0
   -2.2316   -3.3368   -3.8188 N   0  0  0  0  0  0  0  0  0  0  0  0
   -2.8333   -2.6426   -4.9514 C   0  0  0  0  0  0  0  0  0  0  0  0
   -1.7909   -4.2389   -3.9755 H   0  0  0  0  0  0  0  0  0  0  0  0
   -3.8242   -2.2592   -4.6862 H   0  0  0  0  0  0  0  0  0  0  0  0
   -2.2033   -1.8031   -5.2637 H   0  0  0  0  0  0  0  0  0  0  0  0
   -2.9465   -3.3261   -5.7983 H   0  0  0  0  0  0  0  0  0  0  0  0
  1  2  2  0  0  0  0
  1  3  1  0  0  0  0
  1  7  1  0  0  0  0
  3  4  1  0  0  0  0
  3  5  1  0  0  0  0
  3  6  1  0  0  0  0
  7  8  1  0  0  0  0
  7 12  1  0  0  0  0
  8  9  1  0  0  0  0
  8 11  1  0  0  0  0
  8 13  1  0  0  0  0
  9 10  2  0  0  0  0
  9 17  1  0  0  0  0
 11 14  1  0  0  0  0
 11 15  1  0  0  0  0
 11 16  1  0  0  0  0
 17 18  1  0  0  0  0
 17 26  1  0  0  0  0
 18 19  1  0  0  0  0
 18 21  1  0  0  0  0
 18 27  1  0  0  0  0
 19 20  2  0  0  0  0
 19 39  1  0  0  0  0
 21 22  1  0  0  0  0
 21 28  1  0  0  0  0
 21 29  1  0  0  0  0
 22 23  1  0  0  0  0
 22 30  1  0  0  0  0
 22 31  1  0  0  0  0
 23 24  1  0  0  0  0
 23 32  1  0  0  0  0
 23 33  1  0  0  0  0
 24 25  1  0  0  0  0
 24 34  1  0  0  0  0
 24 35  1  0  0  0  0
 25 36  1  0  0  0  0
 25 37  1  0  0  0  0
 25 38  1  0  0  0  0
 39 40  1  0  0  0  0
 39 44  1  0  0  0  0
 40 41  1  0  0  0  0
 40 43  1  0  0  0  0
 40 45  1  0  0  0  0
 41 42  2  0  0  0  0
 41 49  1  0  0  0  0
 43 46  1  0  0  0  0
 43 47  1  0  0  0  0
 43 48  1  0  0  0  0
 49 50  1  0  0  0  0
 49 51  1  0  0  0  0
 50 52  1  0  0  0  0
 50 53  1  0  0  0  0
 50 54  1  0  0  0  0
M  CHG  1  25   1
M  END
$$$$

  -OEChem-02062319113D

 54 53  0     1  0  0  0  0  0999 V2000
    2.3982    2.9602   -0.1982 C   0  0  0  0  0  0  0  0  0  0  0  0
    1.5568    2.7915    0.6766 O   0  0  0  0  0  0  0  0  0  0  0  0
    3.7363    3.5881    0.1415 C   0  0  0  0  0  0  0  0  0  0  0  0
    3.9090    4.4625   -0.4915 H   0  0  0  0  0  0  0  0  0  0  0  0
    3.7527    3.9047    1.1879 H   0  0  0  0  0  0  0  0  0  0  0  0
    4.5405    2.8659   -0.0222 H   0  0  0  0  0  0  0  0  0  0  0  0
    2.1487    2.5326   -1.4848 N   0  0  0  0  0  0  0  0  0  0  0  0
    0.8977    1.8958   -1.9182 C   0  0  2  0  0  0  0  0  0  0  0  0
    0.8084    0.4131   -1.4874 C   0  0  0  0  0  0  0  0  0  0  0  0
    1.2352   -0.4668   -2.2203 O   0  0  0  0  0  0  0  0  0  0  0  0
    0.7926    2.0657   -3.4390 C   0  0  0  0  0  0  0  0  0  0  0  0
    2.9104    2.5987   -2.1563 H   0  0  0  0  0  0  0  0  0  0  0  0
    0.0457    2.4187   -1.4703 H   0  0  0  0  0  0  0  0  0  0  0  0
    1.6340    1.5798   -3.9440 H   0  0  0  0  0  0  0  0  0  0  0  0
   -0.1352    1.6152   -3.8067 H   0  0  0  0  0  0  0  0  0  0  0  0
    0.7903    3.1269   -3.7062 H   0  0  0  0  0  0  0  0  0  0  0  0
    0.5574    0.1273   -0.1543 N   0  0  0  0  0  0  0  0  0  0  0  0
    1.3063   -0.9090    0.5868 C   0  0  2  0  0  0  0  0  0  0  0  0
    1.1797   -2.3278   -0.0060 C   0  0  0  0  0  0  0  0  0  0  0  0
    2.1236   -3.1030    0.0750 O   0  0  0  0  0  0  0  0  0  0  0  0
    0.8375   -0.9490    2.0529 C   0  0  0  0  0  0  0  0  0  0  0  0
    1.0490    0.3907    2.7721 C   0  0  0  0  0  0  0  0  0  0  0  0
    0.7490    0.2654    4.2682 C   0  0  0  0  0  0  0  0  0  0  0  0
    0.9439    1.6211    4.9430 C   0  0  0  0  0  0  0  0  0  0  0  0
    0.6323    1.4920    6.3830 N   0  3  0  0  0  0  0  0  0  0  0  0
    0.3912    0.9845    0.3736 H   0  0  0  0  0  0  0  0  0  0  0  0
    2.3714   -0.6550    0.5579 H   0  0  0  0  0  0  0  0  0  0  0  0
   -0.2226   -1.2231    2.0898 H   0  0  0  0  0  0  0  0  0  0  0  0
    1.3999   -1.7320    2.5745 H   0  0  0  0  0  0  0  0  0  0  0  0
    2.0836    0.7227    2.6281 H   0  0  0  0  0  0  0  0  0  0  0  0
    0.3865    1.1462    2.3376 H   0  0  0  0  0  0  0  0  0  0  0  0
    1.4185   -0.4782    4.7148 H   0  0  0  0  0  0  0  0  0  0  0  0
   -0.2825   -0.0784    4.4040 H   0  0  0  0  0  0  0  0  0  0  0  0
    1.9802    1.9562    4.7889 H   0  0  0  0  0  0  0  0  0  0  0  0
    0.2911    2.3633    4.4596 H   0  0  0  0  0  0  0  0  0  0  0  0
    0.7615    2.3905    6.8530 H   0  0  0  0  0  0  0  0  0  0  0  0
    1.2500    0.8009    6.8127 H   0  0  0  0  0  0  0  0  0  0  0  0
   -0.3364    1.1908    6.5043 H   0  0  0  0  0  0  0  0  0  0  0  0
   -0.0607   -2.7893   -0.3961 N   0  0  0  0  0  0  0  0  0  0  0  0
   -0.2273   -3.9593   -1.2636 C   0  0  2  0  0  0  0  0  0  0  0  0
   -1.2176   -3.6388   -2.4034 C   0  0  0  0  0  0  0  0  0  0  0  0
   -2.0104   -2.7089   -2.2805 O   0  0  0  0  0  0  0  0  0  0  0  0
   -0.7312   -5.1282   -0.4143 C   0  0  0  0  0  0  0  0  0  0  0  0
   -0.7434   -2.0481   -0.5586 H   0  0  0  0  0  0  0  0  0  0  0  0
    0.7300   -4.2299   -1.7230 H   0  0  0  0  0  0  0  0  0  0  0  0
   -1.6943   -4.8815    0.0441 H   0  0  0  0  0  0  0  0  0  0  0  0
   -0.8571   -6.0233   -1.0307 H   0  0  0  0  0  0  0  0  0  0  0  0
   -0.0128   -5.3539    0.3801 H   0  0  0  0  0  0  0  0  0  0  0  0
   -1.2262   -4.3919   -3.5627 N   0  0  0  0  0  0  0  0  0  0  0  0
   -2.0993   -4.1043   -4.6947 C   0  0  0  0  0  0  0  0  0  0  0  0
   -0.5160   -5.1118   -3.6608 H   0  0  0  0  0  0  0  0  0  0  0  0
   -3.1498   -4.1352   -4.3863 H   0  0  0  0  0  0  0  0  0  0  0  0
   -1.8814   -3.1124   -5.1047 H   0  0  0  0  0  0  0  0  0  0  0  0
   -1.9511   -4.8460   -5.4856 H   0  0  0  0  0  0  0  0  0  0  0  0
  1  2  2  0  0  0  0
  1  3  1  0  0  0  0
  1  7  1  0  0  0  0
  3  4  1  0  0  0  0
  3  5  1  0  0  0  0
  3  6  1  0  0  0  0
  7  8  1  0  0  0  0
  7 12  1  0  0  0  0
  8  9  1  0  0  0  0
  8 11  1  0  0  0  0
  8 13  1  0  0  0  0
  9 10  2  0  0  0  0
  9 17  1  0  0  0  0
 11 14  1  0  0  0  0
 11 15  1  0  0  0  0
 11 16  1  0  0  0  0
 17 18  1  0  0  0  0
 17 26  1  0  0  0  0
 18 19  1  0  0  0  0
 18 21  1  0  0  0  0
 18 27  1  0  0  0  0
 19 20  2  0  0  0  0
 19 39  1  0  0  0  0
 21 22  1  0  0  0  0
 21 28  1  0  0  0  0
 21 29  1  0  0  0  0
 22 23  1  0  0  0  0
 22 30  1  0  0  0  0
 22 31  1  0  0  0  0
 23 24  1  0  0  0  0
 23 32  1  0  0  0  0
 23 33  1  0  0  0  0
 24 25  1  0  0  0  0
 24 34  1  0  0  0  0
 24 35  1  0  0  0  0
 25 36  1  0  0  0  0
 25 37  1  0  0  0  0
 25 38  1  0  0  0  0
 39 40  1  0  0  0  0
 39 44  1  0  0  0  0
 40 41  1  0  0  0  0
 40 43  1  0  0  0  0
 40 45  1  0  0  0  0
 41 42  2  0  0  0  0
 41 49  1  0  0  0  0
 43 46  1  0  0  0  0
 43 47  1  0  0  0  0
 43 48  1  0  0  0  0
 49 50  1  0  0  0  0
 49 51  1  0  0  0  0
 50 52  1  0  0  0  0
 50 53  1  0  0  0  0
 50 54  1  0  0  0  0
M  CHG  1  25   1
M  END
$$$$

  -OEChem-02062319113D

 54 53  0     1  0  0  0  0  0999 V2000
    2.1562    3.0870   -0.2127 C   0  0  0  0  0  0  0  0  0  0  0  0
    1.2361    2.9560    0.5854 O   0  0  0  0  0  0  0  0  0  0  0  0
    3.4481    3.7560    0.2155 C   0  0  0  0  0  0  0  0  0  0  0  0
    3.6410    4.6308   -0.4109 H   0  0  0  0  0  0  0  0  0  0  0  0
    3.3802    4.0789    1.2578 H   0  0  0  0  0  0  0  0  0  0  0  0
    4.2822    3.0566    0.1161 H   0  0  0  0  0  0  0  0  0  0  0  0
    2.0402    2.5660   -1.4836 N   0  0  0  0  0  0  0  0  0  0  0  0
    0.8471    1.8725   -1.9889 C   0  0  2  0  0  0  0  0  0  0  0  0
    0.7614    0.4040   -1.5069 C   0  0  0  0  0  0  0  0  0  0  0  0
    1.2303   -0.4893   -2.1960 O   0  0  0  0  0  0  0  0  0  0  0  0
    0.8628    1.9837   -3.5189 C   0  0  0  0  0  0  0  0  0  0  0  0
    2.8591    2.6131   -2.0860 H   0  0  0  0  0  0  0  0  0  0  0  0
   -0.0533    2.3850   -1.6337 H   0  0  0  0  0  0  0  0  0  0  0  0
    1.7584    1.5098   -3.9342 H   0  0  0  0  0  0  0  0  0  0  0  0
   -0.0163    1.4882   -3.9437 H   0  0  0  0  0  0  0  0  0  0  0  0
    0.8486    3.0338   -3.8264 H   0  0  0  0  0  0  0  0  0  0  0  0
    0.5186    0.1544   -0.1645 N   0  0  0  0  0  0  0  0  0  0  0  0
    1.4770   -0.6103    0.6617 C   0  0  2  0  0  0  0  0  0  0  0  0
    1.7497   -2.0492    0.1759 C   0  0  0  0  0  0  0  0  0  0  0  0
    2.8618   -2.5345    0.3379 O   0  0  0  0  0  0  0  0  0  0  0  0
    0.9605   -0.6921    2.1107 C   0  0  0  0  0  0  0  0  0  0  0  0
    0.8349    0.6858    2.7740 C   0  0  0  0  0  0  0  0  0  0  0  0
    0.4467    0.5441    4.2481 C   0  0  0  0  0  0  0  0  0  0  0  0
    0.3165    1.9278    4.8783 C   0  0  0  0  0  0  0  0  0  0  0  0
   -0.0757    1.7756    6.2962 N   0  3  0  0  0  0  0  0  0  0  0  0
    0.1962    1.0067    0.2929 H   0  0  0  0  0  0  0  0  0  0  0  0
    2.4414   -0.0911    0.6508 H   0  0  0  0  0  0  0  0  0  0  0  0
   -0.0125   -1.1960    2.1213 H   0  0  0  0  0  0  0  0  0  0  0  0
    1.6570   -1.3060    2.6938 H   0  0  0  0  0  0  0  0  0  0  0  0
    1.7896    1.2172    2.6915 H   0  0  0  0  0  0  0  0  0  0  0  0
    0.0719    1.2760    2.2560 H   0  0  0  0  0  0  0  0  0  0  0  0
    1.2115   -0.0392    4.7731 H   0  0  0  0  0  0  0  0  0  0  0  0
   -0.5043    0.0047    4.3229 H   0  0  0  0  0  0  0  0  0  0  0  0
    1.2750    2.4593    4.7847 H   0  0  0  0  0  0  0  0  0  0  0  0
   -0.4307    2.5103    4.3192 H   0  0  0  0  0  0  0  0  0  0  0  0
   -0.1736    2.6938    6.7345 H   0  0  0  0  0  0  0  0  0  0  0  0
    0.6352    1.2416    6.7997 H   0  0  0  0  0  0  0  0  0  0  0  0
   -0.9676    1.2812    6.3598 H   0  0  0  0  0  0  0  0  0  0  0  0
    0.6946   -2.8507   -0.2086 N   0  0  0  0  0  0  0  0  0  0  0  0
    0.8784   -4.1185   -0.9205 C   0  0  2  0  0  0  0  0  0  0  0  0
   -0.1579   -4.2524   -2.0558 C   0  0  0  0  0  0  0  0  0  0  0  0
   -1.2071   -3.6174   -2.0039 O   0  0  0  0  0  0  0  0  0  0  0  0
    0.7400   -5.2658    0.0828 C   0  0  0  0  0  0  0  0  0  0  0  0
   -0.1492   -2.3367   -0.4661 H   0  0  0  0  0  0  0  0  0  0  0  0
    1.8740   -4.1515   -1.3761 H   0  0  0  0  0  0  0  0  0  0  0  0
   -0.2536   -5.2548    0.5421 H   0  0  0  0  0  0  0  0  0  0  0  0
    0.8836   -6.2295   -0.4152 H   0  0  0  0  0  0  0  0  0  0  0  0
    1.4916   -5.1691    0.8727 H   0  0  0  0  0  0  0  0  0  0  0  0
    0.0820   -5.0844   -3.1335 N   0  0  0  0  0  0  0  0  0  0  0  0
   -0.8248   -5.1996   -4.2698 C   0  0  0  0  0  0  0  0  0  0  0  0
    0.9859   -5.5458   -3.1786 H   0  0  0  0  0  0  0  0  0  0  0  0
   -1.8185   -5.5182   -3.9372 H   0  0  0  0  0  0  0  0  0  0  0  0
   -0.9175   -4.2378   -4.7853 H   0  0  0  0  0  0  0  0  0  0  0  0
   -0.4472   -5.9391   -4.9828 H   0  0  0  0  0  0  0  0  0  0  0  0
  1  2  2  0  0  0  0
  1  3  1  0  0  0  0
  1  7  1  0  0  0  0
  3  4  1  0  0  0  0
  3  5  1  0  0  0  0
  3  6  1  0  0  0  0
  7  8  1  0  0  0  0
  7 12  1  0  0  0  0
  8  9  1  0  0  0  0
  8 11  1  0  0  0  0
  8 13  1  0  0  0  0
  9 10  2  0  0  0  0
  9 17  1  0  0  0  0
 11 14  1  0  0  0  0
 11 15  1  0  0  0  0
 11 16  1  0  0  0  0
 17 18  1  0  0  0  0
 17 26  1  0  0  0  0
 18 19  1  0  0  0  0
 18 21  1  0  0  0  0
 18 27  1  0  0  0  0
 19 20  2  0  0  0  0
 19 39  1  0  0  0  0
 21 22  1  0  0  0  0
 21 28  1  0  0  0  0
 21 29  1  0  0  0  0
 22 23  1  0  0  0  0
 22 30  1  0  0  0  0
 22 31  1  0  0  0  0
 23 24  1  0  0  0  0
 23 32  1  0  0  0  0
 23 33  1  0  0  0  0
 24 25  1  0  0  0  0
 24 34  1  0  0  0  0
 24 35  1  0  0  0  0
 25 36  1  0  0  0  0
 25 37  1  0  0  0  0
 25 38  1  0  0  0  0
 39 40  1  0  0  0  0
 39 44  1  0  0  0  0
 40 41  1  0  0  0  0
 40 43  1  0  0  0  0
 40 45  1  0  0  0  0
 41 42  2  0  0  0  0
 41 49  1  0  0  0  0
 43 46  1  0  0  0  0
 43 47  1  0  0  0  0
 43 48  1  0  0  0  0
 49 50  1  0  0  0  0
 49 51  1  0  0  0  0
 50 52  1  0  0  0  0
 50 53  1  0  0  0  0
 50 54  1  0  0  0  0
M  CHG  1  25   1
M  END
$$$$

  -OEChem-02062319113D

 54 53  0     1  0  0  0  0  0999 V2000
    1.8987    3.1908   -0.2048 C   0  0  0  0  0  0  0  0  0  0  0  0
    0.8780    3.0669    0.4604 O   0  0  0  0  0  0  0  0  0  0  0  0
    3.0765    3.9744    0.3415 C   0  0  0  0  0  0  0  0  0  0  0  0
    3.3198    4.7991   -0.3334 H   0  0  0  0  0  0  0  0  0  0  0  0
    2.8352    4.3860    1.3250 H   0  0  0  0  0  0  0  0  0  0  0  0
    3.9492    3.3231    0.4363 H   0  0  0  0  0  0  0  0  0  0  0  0
    2.0030    2.5492   -1.4200 N   0  0  0  0  0  0  0  0  0  0  0  0
    0.9162    1.7877   -2.0518 C   0  0  2  0  0  0  0  0  0  0  0  0
    0.7912    0.3426   -1.5072 C   0  0  0  0  0  0  0  0  0  0  0  0
    1.2472   -0.5930   -2.1466 O   0  0  0  0  0  0  0  0  0  0  0  0
    1.1557    1.8295   -3.5671 C   0  0  0  0  0  0  0  0  0  0  0  0
    2.8929    2.6113   -1.9098 H   0  0  0  0  0  0  0  0  0  0  0  0
   -0.0401    2.2861   -1.8602 H   0  0  0  0  0  0  0  0  0  0  0  0
    2.1100    1.3571   -3.8230 H   0  0  0  0  0  0  0  0  0  0  0  0
    0.3561    1.2965   -4.0919 H   0  0  0  0  0  0  0  0  0  0  0  0
    1.1710    2.8638   -3.9242 H   0  0  0  0  0  0  0  0  0  0  0  0
    0.5312    0.1391   -0.1608 N   0  0  0  0  0  0  0  0  0  0  0  0
    1.6079   -0.3223    0.7409 C   0  0  2  0  0  0  0  0  0  0  0  0
    2.2330   -1.6842    0.3711 C   0  0  0  0  0  0  0  0  0  0  0  0
    3.4290   -1.8597    0.5633 O   0  0  0  0  0  0  0  0  0  0  0  0
    1.0494   -0.4395    2.1726 C   0  0  0  0  0  0  0  0  0  0  0  0
    0.5811    0.9069    2.7420 C   0  0  0  0  0  0  0  0  0  0  0  0
    0.0963    0.7499    4.1857 C   0  0  0  0  0  0  0  0  0  0  0  0
   -0.4059    2.0942    4.7067 C   0  0  0  0  0  0  0  0  0  0  0  0
   -0.9004    1.9204    6.0896 N   0  3  0  0  0  0  0  0  0  0  0  0
    0.0626    0.9629    0.2147 H   0  0  0  0  0  0  0  0  0  0  0  0
    2.4223    0.4092    0.7288 H   0  0  0  0  0  0  0  0  0  0  0  0
    0.2151   -1.1500    2.1758 H   0  0  0  0  0  0  0  0  0  0  0  0
    1.8327   -0.8469    2.8221 H   0  0  0  0  0  0  0  0  0  0  0  0
    1.4089    1.6241    2.7067 H   0  0  0  0  0  0  0  0  0  0  0  0
   -0.2370    1.3009    2.1299 H   0  0  0  0  0  0  0  0  0  0  0  0
    0.9202    0.3858    4.8097 H   0  0  0  0  0  0  0  0  0  0  0  0
   -0.7104    0.0092    4.2190 H   0  0  0  0  0  0  0  0  0  0  0  0
    0.4132    2.8274    4.6649 H   0  0  0  0  0  0  0  0  0  0  0  0
   -1.2028    2.4636    4.0440 H   0  0  0  0  0  0  0  0  0  0  0  0
   -1.2392    2.8124    6.4568 H   0  0  0  0  0  0  0  0  0  0  0  0
   -0.1469    1.5791    6.6895 H   0  0  0  0  0  0  0  0  0  0  0  0
   -1.6664    1.2442    6.1029 H   0  0  0  0  0  0  0  0  0  0  0  0
    1.4219   -2.7438    0.0215 N   0  0  0  0  0  0  0  0  0  0  0  0
    1.9301   -3.9912   -0.5565 C   0  0  2  0  0  0  0  0  0  0  0  0
    0.9264   -4.5576   -1.5828 C   0  0  0  0  0  0  0  0  0  0  0  0
   -0.2596   -4.2501   -1.5144 O   0  0  0  0  0  0  0  0  0  0  0  0
    2.1754   -4.9960    0.5724 C   0  0  0  0  0  0  0  0  0  0  0  0
    0.4855   -2.4769   -0.2868 H   0  0  0  0  0  0  0  0  0  0  0  0
    2.8707   -3.7977   -1.0837 H   0  0  0  0  0  0  0  0  0  0  0  0
    1.2435   -5.2043    1.1072 H   0  0  0  0  0  0  0  0  0  0  0  0
    2.5651   -5.9362    0.1709 H   0  0  0  0  0  0  0  0  0  0  0  0
    2.9047   -4.5958    1.2836 H   0  0  0  0  0  0  0  0  0  0  0  0
    1.3501   -5.4115   -2.5838 N   0  0  0  0  0  0  0  0  0  0  0  0
    0.4677   -5.9100   -3.6325 C   0  0  0  0  0  0  0  0  0  0  0  0
    2.3467   -5.5946   -2.6535 H   0  0  0  0  0  0  0  0  0  0  0  0
   -0.3618   -6.4784   -3.1985 H   0  0  0  0  0  0  0  0  0  0  0  0
    0.0576   -5.0787   -4.2161 H   0  0  0  0  0  0  0  0  0  0  0  0
    1.0194   -6.5685   -4.3103 H   0  0  0  0  0  0  0  0  0  0  0  0
  1  2  2  0  0  0  0
  1  3  1  0  0  0  0
  1  7  1  0  0  0  0
  3  4  1  0  0  0  0
  3  5  1  0  0  0  0
  3  6  1  0  0  0  0
  7  8  1  0  0  0  0
  7 12  1  0  0  0  0
  8  9  1  0  0  0  0
  8 11  1  0  0  0  0
  8 13  1  0  0  0  0
  9 10  2  0  0  0  0
  9 17  1  0  0  0  0
 11 14  1  0  0  0  0
 11 15  1  0  0  0  0
 11 16  1  0  0  0  0
 17 18  1  0  0  0  0
 17 26  1  0  0  0  0
 18 19  1  0  0  0  0
 18 21  1  0  0  0  0
 18 27  1  0  0  0  0
 19 20  2  0  0  0  0
 19 39  1  0  0  0  0
 21 22  1  0  0  0  0
 21 28  1  0  0  0  0
 21 29  1  0  0  0  0
 22 23  1  0  0  0  0
 22 30  1  0  0  0  0
 22 31  1  0  0  0  0
 23 24  1  0  0  0  0
 23 32  1  0  0  0  0
 23 33  1  0  0  0  0
 24 25  1  0  0  0  0
 24 34  1  0  0  0  0
 24 35  1  0  0  0  0
 25 36  1  0  0  0  0
 25 37  1  0  0  0  0
 25 38  1  0  0  0  0
 39 40  1  0  0  0  0
 39 44  1  0  0  0  0
 40 41  1  0  0  0  0
 40 43  1  0  0  0  0
 40 45  1  0  0  0  0
 41 42  2  0  0  0  0
 41 49  1  0  0  0  0
 43 46  1  0  0  0  0
 43 47  1  0  0  0  0
 43 48  1  0  0  0  0
 49 50  1  0  0  0  0
 49 51  1  0  0  0  0
 50 52  1  0  0  0  0
 50 53  1  0  0  0  0
 50 54  1  0  0  0  0
M  CHG  1  25   1
M  END
$$$$

  -OEChem-02062319113D

 54 53  0     1  0  0  0  0  0999 V2000
    2.2874    3.2018   -0.2516 C   0  0  0  0  0  0  0  0  0  0  0  0
    1.3623    3.3368    0.5377 O   0  0  0  0  0  0  0  0  0  0  0  0
    3.6407    3.8137    0.0541 C   0  0  0  0  0  0  0  0  0  0  0  0
    3.9448    4.4747   -0.7612 H   0  0  0  0  0  0  0  0  0  0  0  0
    3.5932    4.3968    0.9778 H   0  0  0  0  0  0  0  0  0  0  0  0
    4.3890    3.0255    0.1726 H   0  0  0  0  0  0  0  0  0  0  0  0
    2.1276    2.4351   -1.3883 N   0  0  0  0  0  0  0  0  0  0  0  0
    0.8623    1.8123   -1.8070 C   0  0  2  0  0  0  0  0  0  0  0  0
    0.7282    0.3432   -1.3345 C   0  0  0  0  0  0  0  0  0  0  0  0
    0.5329   -0.5784   -2.1083 O   0  0  0  0  0  0  0  0  0  0  0  0
    0.7752    1.9527   -3.3319 C   0  0  0  0  0  0  0  0  0  0  0  0
    2.9427    2.3188   -1.9858 H   0  0  0  0  0  0  0  0  0  0  0  0
    0.0176    2.3624   -1.3786 H   0  0  0  0  0  0  0  0  0  0  0  0
    1.5958    1.4148   -3.8175 H   0  0  0  0  0  0  0  0  0  0  0  0
   -0.1709    1.5415   -3.6986 H   0  0  0  0  0  0  0  0  0  0  0  0
    0.8259    3.0068   -3.6217 H   0  0  0  0  0  0  0  0  0  0  0  0
    0.3323    0.0365   -0.0551 N   0  0  0  0  0  0  0  0  0  0  0  0
    1.3926   -0.0965    0.9565 C   0  0  2  0  0  0  0  0  0  0  0  0
    2.4260   -1.1999    0.6489 C   0  0  0  0  0  0  0  0  0  0  0  0
    3.6113   -0.9675    0.8377 O   0  0  0  0  0  0  0  0  0  0  0  0
    0.7514   -0.2879    2.3385 C   0  0  0  0  0  0  0  0  0  0  0  0
    0.0261    0.9996    2.7637 C   0  0  0  0  0  0  0  0  0  0  0  0
   -0.5649    0.8798    4.1698 C   0  0  0  0  0  0  0  0  0  0  0  0
   -1.2513    2.1948    4.5322 C   0  0  0  0  0  0  0  0  0  0  0  0
   -1.8010    2.0984    5.9016 N   0  3  0  0  0  0  0  0  0  0  0  0
   -0.2777   -0.7766   -0.1019 H   0  0  0  0  0  0  0  0  0  0  0  0
    1.9679    0.8319    0.9896 H   0  0  0  0  0  0  0  0  0  0  0  0
    0.0532   -1.1314    2.3153 H   0  0  0  0  0  0  0  0  0  0  0  0
    1.5349   -0.5211    3.0683 H   0  0  0  0  0  0  0  0  0  0  0  0
    0.7354    1.8350    2.7399 H   0  0  0  0  0  0  0  0  0  0  0  0
   -0.7730    1.2251    2.0482 H   0  0  0  0  0  0  0  0  0  0  0  0
    0.2354    0.6612    4.8854 H   0  0  0  0  0  0  0  0  0  0  0  0
   -1.2846    0.0544    4.1976 H   0  0  0  0  0  0  0  0  0  0  0  0
   -0.5213    3.0145    4.4543 H   0  0  0  0  0  0  0  0  0  0  0  0
   -2.0447    2.4015    3.7985 H   0  0  0  0  0  0  0  0  0  0  0  0
   -2.2715    2.9709    6.1521 H   0  0  0  0  0  0  0  0  0  0  0  0
   -1.0464    1.9253    6.5685 H   0  0  0  0  0  0  0  0  0  0  0  0
   -2.4738    1.3312    5.9544 H   0  0  0  0  0  0  0  0  0  0  0  0
    2.0276   -2.4493    0.2177 N   0  0  0  0  0  0  0  0  0  0  0  0
    2.9424   -3.5047   -0.2325 C   0  0  2  0  0  0  0  0  0  0  0  0
    2.2198   -4.4683   -1.1971 C   0  0  0  0  0  0  0  0  0  0  0  0
    0.9939   -4.5094   -1.2067 O   0  0  0  0  0  0  0  0  0  0  0  0
    3.4668   -4.2704    0.9869 C   0  0  0  0  0  0  0  0  0  0  0  0
    1.0630   -2.5445   -0.1021 H   0  0  0  0  0  0  0  0  0  0  0  0
    3.7833   -3.0568   -0.7726 H   0  0  0  0  0  0  0  0  0  0  0  0
    2.6371   -4.7237    1.5387 H   0  0  0  0  0  0  0  0  0  0  0  0
    4.1523   -5.0642    0.6752 H   0  0  0  0  0  0  0  0  0  0  0  0
    4.0061   -3.5963    1.6594 H   0  0  0  0  0  0  0  0  0  0  0  0
    2.9373   -5.2844   -2.0515 N   0  0  0  0  0  0  0  0  0  0  0  0
    2.3078   -6.1687   -3.0257 C   0  0  0  0  0  0  0  0  0  0  0  0
    3.9494   -5.1974   -2.0502 H   0  0  0  0  0  0  0  0  0  0  0  0
    1.6200   -6.8622   -2.5297 H   0  0  0  0  0  0  0  0  0  0  0  0
    1.7477   -5.5863   -3.7650 H   0  0  0  0  0  0  0  0  0  0  0  0
    3.0675   -6.7560   -3.5508 H   0  0  0  0  0  0  0  0  0  0  0  0
  1  2  2  0  0  0  0
  1  3  1  0  0  0  0
  1  7  1  0  0  0  0
  3  4  1  0  0  0  0
  3  5  1  0  0  0  0
  3  6  1  0  0  0  0
  7  8  1  0  0  0  0
  7 12  1  0  0  0  0
  8  9  1  0  0  0  0
  8 11  1  0  0  0  0
  8 13  1  0  0  0  0
  9 10  2  0  0  0  0
  9 17  1  0  0  0  0
 11 14  1  0  0  0  0
 11 15  1  0  0  0  0
 11 16  1  0  0  0  0
 17 18  1  0  0  0  0
 17 26  1  0  0  0  0
 18 19  1  0  0  0  0
 18 21  1  0  0  0  0
 18 27  1  0  0  0  0
 19 20  2  0  0  0  0
 19 39  1  0  0  0  0
 21 22  1  0  0  0  0
 21 28  1  0  0  0  0
 21 29  1  0  0  0  0
 22 23  1  0  0  0  0
 22 30  1  0  0  0  0
 22 31  1  0  0  0  0
 23 24  1  0  0  0  0
 23 32  1  0  0  0  0
 23 33  1  0  0  0  0
 24 25  1  0  0  0  0
 24 34  1  0  0  0  0
 24 35  1  0  0  0  0
 25 36  1  0  0  0  0
 25 37  1  0  0  0  0
 25 38  1  0  0  0  0
 39 40  1  0  0  0  0
 39 44  1  0  0  0  0
 40 41  1  0  0  0  0
 40 43  1  0  0  0  0
 40 45  1  0  0  0  0
 41 42  2  0  0  0  0
 41 49  1  0  0  0  0
 43 46  1  0  0  0  0
 43 47  1  0  0  0  0
 43 48  1  0  0  0  0
 49 50  1  0  0  0  0
 49 51  1  0  0  0  0
 50 52  1  0  0  0  0
 50 53  1  0  0  0  0
 50 54  1  0  0  0  0
M  CHG  1  25   1
M  END
$$$$

  -OEChem-02062319113D

 54 53  0     1  0  0  0  0  0999 V2000
    2.3307    3.2870   -0.3244 C   0  0  0  0  0  0  0  0  0  0  0  0
    1.3438    3.5795    0.3373 O   0  0  0  0  0  0  0  0  0  0  0  0
    3.6879    3.8535    0.0446 C   0  0  0  0  0  0  0  0  0  0  0  0
    4.0996    4.4171   -0.7966 H   0  0  0  0  0  0  0  0  0  0  0  0
    3.5981    4.5222    0.9054 H   0  0  0  0  0  0  0  0  0  0  0  0
    4.3733    3.0407    0.3004 H   0  0  0  0  0  0  0  0  0  0  0  0
    2.2299    2.3716   -1.3535 N   0  0  0  0  0  0  0  0  0  0  0  0
    0.9761    1.7405   -1.7976 C   0  0  2  0  0  0  0  0  0  0  0  0
    0.8202    0.2797   -1.3021 C   0  0  0  0  0  0  0  0  0  0  0  0
    0.6801   -0.6583   -2.0679 O   0  0  0  0  0  0  0  0  0  0  0  0
    0.9412    1.8472   -3.3275 C   0  0  0  0  0  0  0  0  0  0  0  0
    3.0928    2.1193   -1.8297 H   0  0  0  0  0  0  0  0  0  0  0  0
    0.1166    2.2977   -1.4103 H   0  0  0  0  0  0  0  0  0  0  0  0
    1.7652    1.2808   -3.7737 H   0  0  0  0  0  0  0  0  0  0  0  0
   -0.0019    1.4478   -3.7145 H   0  0  0  0  0  0  0  0  0  0  0  0
    1.0248    2.8929   -3.6397 H   0  0  0  0  0  0  0  0  0  0  0  0
    0.3862   -0.0279   -0.0335 N   0  0  0  0  0  0  0  0  0  0  0  0
    1.3287    0.1631    1.0797 C   0  0  2  0  0  0  0  0  0  0  0  0
    2.6129   -0.6808    0.9496 C   0  0  0  0  0  0  0  0  0  0  0  0
    3.6970   -0.1386    1.1104 O   0  0  0  0  0  0  0  0  0  0  0  0
    0.6052   -0.0988    2.4080 C   0  0  0  0  0  0  0  0  0  0  0  0
   -0.4603    0.9845    2.6490 C   0  0  0  0  0  0  0  0  0  0  0  0
   -1.1062    0.8415    4.0295 C   0  0  0  0  0  0  0  0  0  0  0  0
   -2.1182    1.9677    4.2321 C   0  0  0  0  0  0  0  0  0  0  0  0
   -2.7133    1.8534    5.5812 N   0  3  0  0  0  0  0  0  0  0  0  0
   -0.0574   -0.9435   -0.0572 H   0  0  0  0  0  0  0  0  0  0  0  0
    1.6597    1.2010    1.1004 H   0  0  0  0  0  0  0  0  0  0  0  0
    0.1459   -1.0930    2.3990 H   0  0  0  0  0  0  0  0  0  0  0  0
    1.3381   -0.0750    3.2222 H   0  0  0  0  0  0  0  0  0  0  0  0
    0.0073    1.9731    2.5678 H   0  0  0  0  0  0  0  0  0  0  0  0
   -1.2322    0.9196    1.8740 H   0  0  0  0  0  0  0  0  0  0  0  0
   -0.3304    0.8900    4.8016 H   0  0  0  0  0  0  0  0  0  0  0  0
   -1.6019   -0.1327    4.1032 H   0  0  0  0  0  0  0  0  0  0  0  0
   -1.6101    2.9355    4.1045 H   0  0  0  0  0  0  0  0  0  0  0  0
   -2.8900    1.9046    3.4506 H   0  0  0  0  0  0  0  0  0  0  0  0
   -3.4048    2.5932    5.7230 H   0  0  0  0  0  0  0  0  0  0  0  0
   -1.9845    1.9407    6.2923 H   0  0  0  0  0  0  0  0  0  0  0  0
   -3.1718    0.9462    5.6851 H   0  0  0  0  0  0  0  0  0  0  0  0
    2.5519   -2.0113    0.5873 N   0  0  0  0  0  0  0  0  0  0  0  0
    3.7077   -2.8400    0.2247 C   0  0  2  0  0  0  0  0  0  0  0  0
    3.2529   -4.0478   -0.6224 C   0  0  0  0  0  0  0  0  0  0  0  0
    2.0722   -4.3807   -0.6145 O   0  0  0  0  0  0  0  0  0  0  0  0
    4.4104   -3.3218    1.4990 C   0  0  0  0  0  0  0  0  0  0  0  0
    1.6439   -2.3787    0.3015 H   0  0  0  0  0  0  0  0  0  0  0  0
    4.4069   -2.2502   -0.3776 H   0  0  0  0  0  0  0  0  0  0  0  0
    3.7238   -3.9119    2.1141 H   0  0  0  0  0  0  0  0  0  0  0  0
    5.2746   -3.9440    1.2479 H   0  0  0  0  0  0  0  0  0  0  0  0
    4.7625   -2.4699    2.0885 H   0  0  0  0  0  0  0  0  0  0  0  0
    4.1560   -4.7534   -1.3951 N   0  0  0  0  0  0  0  0  0  0  0  0
    3.7731   -5.8775   -2.2423 C   0  0  0  0  0  0  0  0  0  0  0  0
    5.1229   -4.4414   -1.4002 H   0  0  0  0  0  0  0  0  0  0  0  0
    3.3642   -6.6928   -1.6364 H   0  0  0  0  0  0  0  0  0  0  0  0
    3.0170   -5.5682   -2.9720 H   0  0  0  0  0  0  0  0  0  0  0  0
    4.6433   -6.2557   -2.7876 H   0  0  0  0  0  0  0  0  0  0  0  0
  1  2  2  0  0  0  0
  1  3  1  0  0  0  0
  1  7  1  0  0  0  0
  3  4  1  0  0  0  0
  3  5  1  0  0  0  0
  3  6  1  0  0  0  0
  7  8  1  0  0  0  0
  7 12  1  0  0  0  0
  8  9  1  0  0  0  0
  8 11  1  0  0  0  0
  8 13  1  0  0  0  0
  9 10  2  0  0  0  0
  9 17  1  0  0  0  0
 11 14  1  0  0  0  0
 11 15  1  0  0  0  0
 11 16  1  0  0  0  0
 17 18  1  0  0  0  0
 17 26  1  0  0  0  0
 18 19  1  0  0  0  0
 18 21  1  0  0  0  0
 18 27  1  0  0  0  0
 19 20  2  0  0  0  0
 19 39  1  0  0  0  0
 21 22  1  0  0  0  0
 21 28  1  0  0  0  0
 21 29  1  0  0  0  0
 22 23  1  0  0  0  0
 22 30  1  0  0  0  0
 22 31  1  0  0  0  0
 23 24  1  0  0  0  0
 23 32  1  0  0  0  0
 23 33  1  0  0  0  0
 24 25  1  0  0  0  0
 24 34  1  0  0  0  0
 24 35  1  0  0  0  0
 25 36  1  0  0  0  0
 25 37  1  0  0  0  0
 25 38  1  0  0  0  0
 39 40  1  0  0  0  0
 39 44  1  0  0  0  0
 40 41  1  0  0  0  0
 40 43  1  0  0  0  0
 40 45  1  0  0  0  0
 41 42  2  0  0  0  0
 41 49  1  0  0  0  0
 43 46  1  0  0  0  0
 43 47  1  0  0  0  0
 43 48  1  0  0  0  0
 49 50  1  0  0  0  0
 49 51  1  0  0  0  0
 50 52  1  0  0  0  0
 50 53  1  0  0  0  0
 50 54  1  0  0  0  0
M  CHG  1  25   1
M  END
$$$$

  -OEChem-02062319113D

 54 53  0     1  0  0  0  0  0999 V2000
    3.7741    2.0996   -2.0584 C   0  0  0  0  0  0  0  0  0  0  0  0
    4.1025    1.8293   -0.9136 O   0  0  0  0  0  0  0  0  0  0  0  0
    4.7774    1.9913   -3.1899 C   0  0  0  0  0  0  0  0  0  0  0  0
    4.8440    2.9427   -3.7229 H   0  0  0  0  0  0  0  0  0  0  0  0
    5.7656    1.7404   -2.7944 H   0  0  0  0  0  0  0  0  0  0  0  0
    4.4680    1.2096   -3.8882 H   0  0  0  0  0  0  0  0  0  0  0  0
    2.4663    2.4522   -2.3239 N   0  0  0  0  0  0  0  0  0  0  0  0
    1.4158    2.3267   -1.3058 C   0  0  2  0  0  0  0  0  0  0  0  0
    1.1265    0.8463   -0.9669 C   0  0  0  0  0  0  0  0  0  0  0  0
    0.9781    0.0267   -1.8587 O   0  0  0  0  0  0  0  0  0  0  0  0
    0.1604    3.0228   -1.8363 C   0  0  0  0  0  0  0  0  0  0  0  0
    2.1890    2.4295   -3.3015 H   0  0  0  0  0  0  0  0  0  0  0  0
    1.7396    2.8373   -0.3934 H   0  0  0  0  0  0  0  0  0  0  0  0
   -0.1916    2.5364   -2.7521 H   0  0  0  0  0  0  0  0  0  0  0  0
   -0.6406    2.9818   -1.0923 H   0  0  0  0  0  0  0  0  0  0  0  0
    0.3737    4.0732   -2.0583 H   0  0  0  0  0  0  0  0  0  0  0  0
    0.5335    0.4297    0.2020 N   0  0  0  0  0  0  0  0  0  0  0  0
    1.1475    0.7213    1.5081 C   0  0  2  0  0  0  0  0  0  0  0  0
    2.5630    0.1376    1.6962 C   0  0  0  0  0  0  0  0  0  0  0  0
    3.3407    0.7338    2.4261 O   0  0  0  0  0  0  0  0  0  0  0  0
    0.2366    0.1797    2.6236 C   0  0  0  0  0  0  0  0  0  0  0  0
   -1.1269    0.8867    2.6576 C   0  0  0  0  0  0  0  0  0  0  0  0
   -1.9733    0.3492    3.8178 C   0  0  0  0  0  0  0  0  0  0  0  0
   -3.3268    1.0550    3.8581 C   0  0  0  0  0  0  0  0  0  0  0  0
   -4.1186    0.5121    4.9836 N   0  3  0  0  0  0  0  0  0  0  0  0
    0.1839   -0.5183    0.0801 H   0  0  0  0  0  0  0  0  0  0  0  0
    1.2415    1.8056    1.6298 H   0  0  0  0  0  0  0  0  0  0  0  0
    0.0937   -0.8978    2.4855 H   0  0  0  0  0  0  0  0  0  0  0  0
    0.7385    0.3254    3.5874 H   0  0  0  0  0  0  0  0  0  0  0  0
   -0.9736    1.9652    2.7762 H   0  0  0  0  0  0  0  0  0  0  0  0
   -1.6532    0.7241    1.7102 H   0  0  0  0  0  0  0  0  0  0  0  0
   -1.4398    0.5112    4.7613 H   0  0  0  0  0  0  0  0  0  0  0  0
   -2.1177   -0.7295    3.6909 H   0  0  0  0  0  0  0  0  0  0  0  0
   -3.1672    2.1377    3.9718 H   0  0  0  0  0  0  0  0  0  0  0  0
   -3.8436    0.9027    2.8990 H   0  0  0  0  0  0  0  0  0  0  0  0
   -5.0242    0.9838    5.0374 H   0  0  0  0  0  0  0  0  0  0  0  0
   -3.6184    0.6550    5.8635 H   0  0  0  0  0  0  0  0  0  0  0  0
   -4.2743   -0.4892    4.8508 H   0  0  0  0  0  0  0  0  0  0  0  0
    2.8466   -1.1599    1.3200 N   0  0  0  0  0  0  0  0  0  0  0  0
    4.1907   -1.7448    1.3914 C   0  0  2  0  0  0  0  0  0  0  0  0
    4.3726   -2.8133    0.2946 C   0  0  0  0  0  0  0  0  0  0  0  0
    3.3859   -3.2836   -0.2627 O   0  0  0  0  0  0  0  0  0  0  0  0
    4.3964   -2.3647    2.7778 C   0  0  0  0  0  0  0  0  0  0  0  0
    2.2273   -1.5828    0.6278 H   0  0  0  0  0  0  0  0  0  0  0  0
    4.9414   -0.9641    1.2239 H   0  0  0  0  0  0  0  0  0  0  0  0
    3.6511   -3.1451    2.9610 H   0  0  0  0  0  0  0  0  0  0  0  0
    5.3931   -2.8097    2.8547 H   0  0  0  0  0  0  0  0  0  0  0  0
    4.3009   -1.6008    3.5557 H   0  0  0  0  0  0  0  0  0  0  0  0
    5.6328   -3.2531   -0.0642 N   0  0  0  0  0  0  0  0  0  0  0  0
    5.8624   -4.2476   -1.1056 C   0  0  0  0  0  0  0  0  0  0  0  0
    6.4324   -2.8182    0.3880 H   0  0  0  0  0  0  0  0  0  0  0  0
    5.3650   -5.1896   -0.8510 H   0  0  0  0  0  0  0  0  0  0  0  0
    5.4739   -3.8926   -2.0661 H   0  0  0  0  0  0  0  0  0  0  0  0
    6.9337   -4.4419   -1.2163 H   0  0  0  0  0  0  0  0  0  0  0  0
  1  2  2  0  0  0  0
  1  3  1  0  0  0  0
  1  7  1  0  0  0  0
  3  4  1  0  0  0  0
  3  5  1  0  0  0  0
  3  6  1  0  0  0  0
  7  8  1  0  0  0  0
  7 12  1  0  0  0  0
  8  9  1  0  0  0  0
  8 11  1  0  0  0  0
  8 13  1  0  0  0  0
  9 10  2  0  0  0  0
  9 17  1  0  0  0  0
 11 14  1  0  0  0  0
 11 15  1  0  0  0  0
 11 16  1  0  0  0  0
 17 18  1  0  0  0  0
 17 26  1  0  0  0  0
 18 19  1  0  0  0  0
 18 21  1  0  0  0  0
 18 27  1  0  0  0  0
 19 20  2  0  0  0  0
 19 39  1  0  0  0  0
 21 22  1  0  0  0  0
 21 28  1  0  0  0  0
 21 29  1  0  0  0  0
 22 23  1  0  0  0  0
 22 30  1  0  0  0  0
 22 31  1  0  0  0  0
 23 24  1  0  0  0  0
 23 32  1  0  0  0  0
 23 33  1  0  0  0  0
 24 25  1  0  0  0  0
 24 34  1  0  0  0  0
 24 35  1  0  0  0  0
 25 36  1  0  0  0  0
 25 37  1  0  0  0  0
 25 38  1  0  0  0  0
 39 40  1  0  0  0  0
 39 44  1  0  0  0  0
 40 41  1  0  0  0  0
 40 43  1  0  0  0  0
 40 45  1  0  0  0  0
 41 42  2  0  0  0  0
 41 49  1  0  0  0  0
 43 46  1  0  0  0  0
 43 47  1  0  0  0  0
 43 48  1  0  0  0  0
 49 50  1  0  0  0  0
 49 51  1  0  0  0  0
 50 52  1  0  0  0  0
 50 53  1  0  0  0  0
 50 54  1  0  0  0  0
M  CHG  1  25   1
M  END
$$$$

  -OEChem-02062319113D

 54 53  0     1  0  0  0  0  0999 V2000
    3.9452    1.7613   -1.8302 C   0  0  0  0  0  0  0  0  0  0  0  0
    4.2063    1.5368   -0.6573 O   0  0  0  0  0  0  0  0  0  0  0  0
    4.9882    1.5084   -2.9011 C   0  0  0  0  0  0  0  0  0  0  0  0
    5.1658    2.4224   -3.4728 H   0  0  0  0  0  0  0  0  0  0  0  0
    5.9294    1.1903   -2.4445 H   0  0  0  0  0  0  0  0  0  0  0  0
    4.6426    0.7229   -3.5780 H   0  0  0  0  0  0  0  0  0  0  0  0
    2.6799    2.1859   -2.1889 N   0  0  0  0  0  0  0  0  0  0  0  0
    1.5594    2.1562   -1.2387 C   0  0  2  0  0  0  0  0  0  0  0  0
    1.2137    0.7045   -0.8336 C   0  0  0  0  0  0  0  0  0  0  0  0
    1.1497   -0.1747   -1.6778 O   0  0  0  0  0  0  0  0  0  0  0  0
    0.3572    2.8454   -1.8878 C   0  0  0  0  0  0  0  0  0  0  0  0
    2.4612    2.1260   -3.1795 H   0  0  0  0  0  0  0  0  0  0  0  0
    1.8432    2.7151   -0.3411 H   0  0  0  0  0  0  0  0  0  0  0  0
    0.0483    2.3100   -2.7918 H   0  0  0  0  0  0  0  0  0  0  0  0
   -0.4875    2.8693   -1.1928 H   0  0  0  0  0  0  0  0  0  0  0  0
    0.6105    3.8748   -2.1603 H   0  0  0  0  0  0  0  0  0  0  0  0
    0.5628    0.3410    0.3229 N   0  0  0  0  0  0  0  0  0  0  0  0
    0.9098    0.9190    1.6306 C   0  0  2  0  0  0  0  0  0  0  0  0
    2.3704    0.6723    2.0533 C   0  0  0  0  0  0  0  0  0  0  0  0
    2.9406    1.5546    2.6774 O   0  0  0  0  0  0  0  0  0  0  0  0
   -0.0234    0.3306    2.7032 C   0  0  0  0  0  0  0  0  0  0  0  0
   -1.4895    0.7353    2.4853 C   0  0  0  0  0  0  0  0  0  0  0  0
   -2.3724    0.1454    3.5917 C   0  0  0  0  0  0  0  0  0  0  0  0
   -3.8290    0.5539    3.3831 C   0  0  0  0  0  0  0  0  0  0  0  0
   -4.6549   -0.0413    4.4569 N   0  3  0  0  0  0  0  0  0  0  0  0
    0.3260   -0.6484    0.2987 H   0  0  0  0  0  0  0  0  0  0  0  0
    0.7652    2.0044    1.5995 H   0  0  0  0  0  0  0  0  0  0  0  0
    0.0654   -0.7615    2.7038 H   0  0  0  0  0  0  0  0  0  0  0  0
    0.3031    0.6883    3.6869 H   0  0  0  0  0  0  0  0  0  0  0  0
   -1.5677    1.8285    2.4883 H   0  0  0  0  0  0  0  0  0  0  0  0
   -1.8336    0.3758    1.5090 H   0  0  0  0  0  0  0  0  0  0  0  0
   -2.0205    0.5028    4.5658 H   0  0  0  0  0  0  0  0  0  0  0  0
   -2.2854   -0.9467    3.5798 H   0  0  0  0  0  0  0  0  0  0  0  0
   -3.9011    1.6517    3.3888 H   0  0  0  0  0  0  0  0  0  0  0  0
   -4.1624    0.2128    2.3917 H   0  0  0  0  0  0  0  0  0  0  0  0
   -5.6319    0.2395    4.3471 H   0  0  0  0  0  0  0  0  0  0  0  0
   -4.3209    0.2734    5.3703 H   0  0  0  0  0  0  0  0  0  0  0  0
   -4.5976   -1.0610    4.4175 H   0  0  0  0  0  0  0  0  0  0  0  0
    2.9600   -0.5667    1.9114 N   0  0  0  0  0  0  0  0  0  0  0  0
    4.4190   -0.7238    1.9313 C   0  0  2  0  0  0  0  0  0  0  0  0
    4.8685   -1.6569    0.7899 C   0  0  0  0  0  0  0  0  0  0  0  0
    4.0706   -2.4611    0.3172 O   0  0  0  0  0  0  0  0  0  0  0  0
    4.8352   -1.2853    3.2925 C   0  0  0  0  0  0  0  0  0  0  0  0
    2.4831   -1.2120    1.2813 H   0  0  0  0  0  0  0  0  0  0  0  0
    4.9078    0.2444    1.7724 H   0  0  0  0  0  0  0  0  0  0  0  0
    4.3620   -2.2567    3.4674 H   0  0  0  0  0  0  0  0  0  0  0  0
    5.9211   -1.4134    3.3372 H   0  0  0  0  0  0  0  0  0  0  0  0
    4.5346   -0.5997    4.0910 H   0  0  0  0  0  0  0  0  0  0  0  0
    6.1614   -1.6091    0.3047 N   0  0  0  0  0  0  0  0  0  0  0  0
    6.6324   -2.4461   -0.7919 C   0  0  0  0  0  0  0  0  0  0  0  0
    6.7632   -0.8680    0.6532 H   0  0  0  0  0  0  0  0  0  0  0  0
    6.5320   -3.5061   -0.5350 H   0  0  0  0  0  0  0  0  0  0  0  0
    6.0548   -2.2481   -1.7008 H   0  0  0  0  0  0  0  0  0  0  0  0
    7.6870   -2.2414   -0.9992 H   0  0  0  0  0  0  0  0  0  0  0  0
  1  2  2  0  0  0  0
  1  3  1  0  0  0  0
  1  7  1  0  0  0  0
  3  4  1  0  0  0  0
  3  5  1  0  0  0  0
  3  6  1  0  0  0  0
  7  8  1  0  0  0  0
  7 12  1  0  0  0  0
  8  9  1  0  0  0  0
  8 11  1  0  0  0  0
  8 13  1  0  0  0  0
  9 10  2  0  0  0  0
  9 17  1  0  0  0  0
 11 14  1  0  0  0  0
 11 15  1  0  0  0  0
 11 16  1  0  0  0  0
 17 18  1  0  0  0  0
 17 26  1  0  0  0  0
 18 19  1  0  0  0  0
 18 21  1  0  0  0  0
 18 27  1  0  0  0  0
 19 20  2  0  0  0  0
 19 39  1  0  0  0  0
 21 22  1  0  0  0  0
 21 28  1  0  0  0  0
 21 29  1  0  0  0  0
 22 23  1  0  0  0  0
 22 30  1  0  0  0  0
 22 31  1  0  0  0  0
 23 24  1  0  0  0  0
 23 32  1  0  0  0  0
 23 33  1  0  0  0  0
 24 25  1  0  0  0  0
 24 34  1  0  0  0  0
 24 35  1  0  0  0  0
 25 36  1  0  0  0  0
 25 37  1  0  0  0  0
 25 38  1  0  0  0  0
 39 40  1  0  0  0  0
 39 44  1  0  0  0  0
 40 41  1  0  0  0  0
 40 43  1  0  0  0  0
 40 45  1  0  0  0  0
 41 42  2  0  0  0  0
 41 49  1  0  0  0  0
 43 46  1  0  0  0  0
 43 47  1  0  0  0  0
 43 48  1  0  0  0  0
 49 50  1  0  0  0  0
 49 51  1  0  0  0  0
 50 52  1  0  0  0  0
 50 53  1  0  0  0  0
 50 54  1  0  0  0  0
M  CHG  1  25   1
M  END
$$$$

  -OEChem-02062319113D

 54 53  0     1  0  0  0  0  0999 V2000
    4.0701    1.9487   -1.6985 C   0  0  0  0  0  0  0  0  0  0  0  0
    4.3251    1.9428   -0.5034 O   0  0  0  0  0  0  0  0  0  0  0  0
    5.1692    1.6786   -2.7076 C   0  0  0  0  0  0  0  0  0  0  0  0
    5.2487    2.5144   -3.4070 H   0  0  0  0  0  0  0  0  0  0  0  0
    6.1283    1.5542   -2.1972 H   0  0  0  0  0  0  0  0  0  0  0  0
    4.9460    0.7652   -3.2648 H   0  0  0  0  0  0  0  0  0  0  0  0
    2.7739    2.1470   -2.1311 N   0  0  0  0  0  0  0  0  0  0  0  0
    1.6317    2.1138   -1.2076 C   0  0  2  0  0  0  0  0  0  0  0  0
    1.2880    0.6636   -0.7913 C   0  0  0  0  0  0  0  0  0  0  0  0
    1.3594   -0.2538   -1.5932 O   0  0  0  0  0  0  0  0  0  0  0  0
    0.4404    2.7764   -1.9024 C   0  0  0  0  0  0  0  0  0  0  0  0
    2.5966    1.9108   -3.1038 H   0  0  0  0  0  0  0  0  0  0  0  0
    1.8767    2.6935   -0.3114 H   0  0  0  0  0  0  0  0  0  0  0  0
    0.1643    2.2211   -2.8048 H   0  0  0  0  0  0  0  0  0  0  0  0
   -0.4246    2.8031   -1.2329 H   0  0  0  0  0  0  0  0  0  0  0  0
    0.6903    3.8036   -2.1868 H   0  0  0  0  0  0  0  0  0  0  0  0
    0.6162    0.3050    0.3569 N   0  0  0  0  0  0  0  0  0  0  0  0
    0.6715    1.0774    1.6072 C   0  0  2  0  0  0  0  0  0  0  0  0
    2.0940    1.2152    2.1810 C   0  0  0  0  0  0  0  0  0  0  0  0
    2.4196    2.2894    2.6619 O   0  0  0  0  0  0  0  0  0  0  0  0
   -0.2313    0.4099    2.6583 C   0  0  0  0  0  0  0  0  0  0  0  0
   -1.7135    0.4411    2.2543 C   0  0  0  0  0  0  0  0  0  0  0  0
   -2.5762   -0.1980    3.3492 C   0  0  0  0  0  0  0  0  0  0  0  0
   -4.0511   -0.1548    2.9550 C   0  0  0  0  0  0  0  0  0  0  0  0
   -4.8536   -0.7891    4.0237 N   0  3  0  0  0  0  0  0  0  0  0  0
    0.4864   -0.7024    0.4158 H   0  0  0  0  0  0  0  0  0  0  0  0
    0.3007    2.0915    1.4218 H   0  0  0  0  0  0  0  0  0  0  0  0
    0.0914   -0.6259    2.8125 H   0  0  0  0  0  0  0  0  0  0  0  0
   -0.1096    0.9387    3.6109 H   0  0  0  0  0  0  0  0  0  0  0  0
   -2.0236    1.4798    2.0939 H   0  0  0  0  0  0  0  0  0  0  0  0
   -1.8539   -0.1002    1.3120 H   0  0  0  0  0  0  0  0  0  0  0  0
   -2.4256    0.3414    4.2912 H   0  0  0  0  0  0  0  0  0  0  0  0
   -2.2598   -1.2364    3.4990 H   0  0  0  0  0  0  0  0  0  0  0  0
   -4.3536    0.8914    2.7999 H   0  0  0  0  0  0  0  0  0  0  0  0
   -4.1855   -0.6764    1.9958 H   0  0  0  0  0  0  0  0  0  0  0  0
   -5.8468   -0.7604    3.7824 H   0  0  0  0  0  0  0  0  0  0  0  0
   -4.7131   -0.2939    4.9069 H   0  0  0  0  0  0  0  0  0  0  0  0
   -4.5699   -1.7639    4.1425 H   0  0  0  0  0  0  0  0  0  0  0  0
    2.9444    0.1311    2.2430 N   0  0  0  0  0  0  0  0  0  0  0  0
    4.3985    0.2914    2.3520 C   0  0  2  0  0  0  0  0  0  0  0  0
    5.1007   -0.6223    1.3275 C   0  0  0  0  0  0  0  0  0  0  0  0
    4.5524   -1.6636    0.9764 O   0  0  0  0  0  0  0  0  0  0  0  0
    4.8277   -0.0549    3.7787 C   0  0  0  0  0  0  0  0  0  0  0  0
    2.6558   -0.6904    1.7120 H   0  0  0  0  0  0  0  0  0  0  0  0
    4.6886    1.3244    2.1285 H   0  0  0  0  0  0  0  0  0  0  0  0
    4.5646   -1.0903    4.0175 H   0  0  0  0  0  0  0  0  0  0  0  0
    5.9096    0.0646    3.8913 H   0  0  0  0  0  0  0  0  0  0  0  0
    4.3306    0.6079    4.4939 H   0  0  0  0  0  0  0  0  0  0  0  0
    6.3272   -0.2766    0.7940 N   0  0  0  0  0  0  0  0  0  0  0  0
    6.9679   -1.0434   -0.2671 C   0  0  0  0  0  0  0  0  0  0  0  0
    6.6353    0.6786    0.9568 H   0  0  0  0  0  0  0  0  0  0  0  0
    7.1304   -2.0786    0.0521 H   0  0  0  0  0  0  0  0  0  0  0  0
    6.3441   -1.0465   -1.1671 H   0  0  0  0  0  0  0  0  0  0  0  0
    7.9388   -0.6052   -0.5180 H   0  0  0  0  0  0  0  0  0  0  0  0
  1  2  2  0  0  0  0
  1  3  1  0  0  0  0
  1  7  1  0  0  0  0
  3  4  1  0  0  0  0
  3  5  1  0  0  0  0
  3  6  1  0  0  0  0
  7  8  1  0  0  0  0
  7 12  1  0  0  0  0
  8  9  1  0  0  0  0
  8 11  1  0  0  0  0
  8 13  1  0  0  0  0
  9 10  2  0  0  0  0
  9 17  1  0  0  0  0
 11 14  1  0  0  0  0
 11 15  1  0  0  0  0
 11 16  1  0  0  0  0
 17 18  1  0  0  0  0
 17 26  1  0  0  0  0
 18 19  1  0  0  0  0
 18 21  1  0  0  0  0
 18 27  1  0  0  0  0
 19 20  2  0  0  0  0
 19 39  1  0  0  0  0
 21 22  1  0  0  0  0
 21 28  1  0  0  0  0
 21 29  1  0  0  0  0
 22 23  1  0  0  0  0
 22 30  1  0  0  0  0
 22 31  1  0  0  0  0
 23 24  1  0  0  0  0
 23 32  1  0  0  0  0
 23 33  1  0  0  0  0
 24 25  1  0  0  0  0
 24 34  1  0  0  0  0
 24 35  1  0  0  0  0
 25 36  1  0  0  0  0
 25 37  1  0  0  0  0
 25 38  1  0  0  0  0
 39 40  1  0  0  0  0
 39 44  1  0  0  0  0
 40 41  1  0  0  0  0
 40 43  1  0  0  0  0
 40 45  1  0  0  0  0
 41 42  2  0  0  0  0
 41 49  1  0  0  0  0
 43 46  1  0  0  0  0
 43 47  1  0  0  0  0
 43 48  1  0  0  0  0
 49 50  1  0  0  0  0
 49 51  1  0  0  0  0
 50 52  1  0  0  0  0
 50 53  1  0  0  0  0
 50 54  1  0  0  0  0
M  CHG  1  25   1
M  END
$$$$

  -OEChem-02062319113D

 54 53  0     1  0  0  0  0  0999 V2000
    4.0565    2.3008   -1.6553 C   0  0  0  0  0  0  0  0  0  0  0  0
    4.2719    2.5718   -0.4837 O   0  0  0  0  0  0  0  0  0  0  0  0
    5.2163    1.9968   -2.5838 C   0  0  0  0  0  0  0  0  0  0  0  0
    5.2129    2.6929   -3.4260 H   0  0  0  0  0  0  0  0  0  0  0  0
    6.1650    2.0961   -2.0492 H   0  0  0  0  0  0  0  0  0  0  0  0
    5.1316    0.9751   -2.9625 H   0  0  0  0  0  0  0  0  0  0  0  0
    2.7623    2.2206   -2.1285 N   0  0  0  0  0  0  0  0  0  0  0  0
    1.5924    2.1893   -1.2395 C   0  0  2  0  0  0  0  0  0  0  0  0
    1.2508    0.7389   -0.8200 C   0  0  0  0  0  0  0  0  0  0  0  0
    1.4311   -0.1971   -1.5829 O   0  0  0  0  0  0  0  0  0  0  0  0
    0.4206    2.8270   -1.9875 C   0  0  0  0  0  0  0  0  0  0  0  0
    2.6592    1.7811   -3.0399 H   0  0  0  0  0  0  0  0  0  0  0  0
    1.7900    2.7884   -0.3455 H   0  0  0  0  0  0  0  0  0  0  0  0
    0.1883    2.2606   -2.8952 H   0  0  0  0  0  0  0  0  0  0  0  0
   -0.4703    2.8496   -1.3531 H   0  0  0  0  0  0  0  0  0  0  0  0
    0.6685    3.8549   -2.2714 H   0  0  0  0  0  0  0  0  0  0  0  0
    0.5974    0.3633    0.3347 N   0  0  0  0  0  0  0  0  0  0  0  0
    0.3799    1.2176    1.5122 C   0  0  2  0  0  0  0  0  0  0  0  0
    1.6892    1.7176    2.1507 C   0  0  0  0  0  0  0  0  0  0  0  0
    1.7569    2.8828    2.5081 O   0  0  0  0  0  0  0  0  0  0  0  0
   -0.4321    0.4394    2.5622 C   0  0  0  0  0  0  0  0  0  0  0  0
   -1.8528    0.1142    2.0727 C   0  0  0  0  0  0  0  0  0  0  0  0
   -2.6329   -0.6399    3.1573 C   0  0  0  0  0  0  0  0  0  0  0  0
   -4.0457   -0.9581    2.6713 C   0  0  0  0  0  0  0  0  0  0  0  0
   -4.7678   -1.6906    3.7349 N   0  3  0  0  0  0  0  0  0  0  0  0
    0.5337   -0.6466    0.4374 H   0  0  0  0  0  0  0  0  0  0  0  0
   -0.1897    2.1047    1.2133 H   0  0  0  0  0  0  0  0  0  0  0  0
    0.0953   -0.4862    2.8190 H   0  0  0  0  0  0  0  0  0  0  0  0
   -0.4988    1.0448    3.4738 H   0  0  0  0  0  0  0  0  0  0  0  0
   -2.3712    1.0469    1.8222 H   0  0  0  0  0  0  0  0  0  0  0  0
   -1.8032   -0.4961    1.1639 H   0  0  0  0  0  0  0  0  0  0  0  0
   -2.6796   -0.0257    4.0636 H   0  0  0  0  0  0  0  0  0  0  0  0
   -2.1051   -1.5680    3.4036 H   0  0  0  0  0  0  0  0  0  0  0  0
   -4.5609   -0.0201    2.4160 H   0  0  0  0  0  0  0  0  0  0  0  0
   -3.9860   -1.5557    1.7496 H   0  0  0  0  0  0  0  0  0  0  0  0
   -5.7169   -1.9138    3.4267 H   0  0  0  0  0  0  0  0  0  0  0  0
   -4.8206   -1.1184    4.5801 H   0  0  0  0  0  0  0  0  0  0  0  0
   -4.2787   -2.5605    3.9549 H   0  0  0  0  0  0  0  0  0  0  0  0
    2.7463    0.8558    2.3533 N   0  0  0  0  0  0  0  0  0  0  0  0
    4.1247    1.3214    2.5394 C   0  0  2  0  0  0  0  0  0  0  0  0
    5.0912    0.4197    1.7438 C   0  0  0  0  0  0  0  0  0  0  0  0
    4.7686   -0.7408    1.5021 O   0  0  0  0  0  0  0  0  0  0  0  0
    4.4586    1.2959    4.0322 C   0  0  0  0  0  0  0  0  0  0  0  0
    2.6683   -0.0615    1.9143 H   0  0  0  0  0  0  0  0  0  0  0  0
    4.2353    2.3442    2.1624 H   0  0  0  0  0  0  0  0  0  0  0  0
    4.3623    0.2804    4.4293 H   0  0  0  0  0  0  0  0  0  0  0  0
    5.4839    1.6400    4.1993 H   0  0  0  0  0  0  0  0  0  0  0  0
    3.7789    1.9539    4.5827 H   0  0  0  0  0  0  0  0  0  0  0  0
    6.3028    0.9041    1.2905 N   0  0  0  0  0  0  0  0  0  0  0  0
    7.1943    0.1227    0.4427 C   0  0  0  0  0  0  0  0  0  0  0  0
    6.4156    1.9149    1.3099 H   0  0  0  0  0  0  0  0  0  0  0  0
    7.4939   -0.8002    0.9506 H   0  0  0  0  0  0  0  0  0  0  0  0
    6.6982   -0.1381   -0.4980 H   0  0  0  0  0  0  0  0  0  0  0  0
    8.0975    0.6962    0.2128 H   0  0  0  0  0  0  0  0  0  0  0  0
  1  2  2  0  0  0  0
  1  3  1  0  0  0  0
  1  7  1  0  0  0  0
  3  4  1  0  0  0  0
  3  5  1  0  0  0  0
  3  6  1  0  0  0  0
  7  8  1  0  0  0  0
  7 12  1  0  0  0  0
  8  9  1  0  0  0  0
  8 11  1  0  0  0  0
  8 13  1  0  0  0  0
  9 10  2  0  0  0  0
  9 17  1  0  0  0  0
 11 14  1  0  0  0  0
 11 15  1  0  0  0  0
 11 16  1  0  0  0  0
 17 18  1  0  0  0  0
 17 26  1  0  0  0  0
 18 19  1  0  0  0  0
 18 21  1  0  0  0  0
 18 27  1  0  0  0  0
 19 20  2  0  0  0  0
 19 39  1  0  0  0  0
 21 22  1  0  0  0  0
 21 28  1  0  0  0  0
 21 29  1  0  0  0  0
 22 23  1  0  0  0  0
 22 30  1  0  0  0  0
 22 31  1  0  0  0  0
 23 24  1  0  0  0  0
 23 32  1  0  0  0  0
 23 33  1  0  0  0  0
 24 25  1  0  0  0  0
 24 34  1  0  0  0  0
 24 35  1  0  0  0  0
 25 36  1  0  0  0  0
 25 37  1  0  0  0  0
 25 38  1  0  0  0  0
 39 40  1  0  0  0  0
 39 44  1  0  0  0  0
 40 41  1  0  0  0  0
 40 43  1  0  0  0  0
 40 45  1  0  0  0  0
 41 42  2  0  0  0  0
 41 49  1  0  0  0  0
 43 46  1  0  0  0  0
 43 47  1  0  0  0  0
 43 48  1  0  0  0  0
 49 50  1  0  0  0  0
 49 51  1  0  0  0  0
 50 52  1  0  0  0  0
 50 53  1  0  0  0  0
 50 54  1  0  0  0  0
M  CHG  1  25   1
M  END
$$$$

  -OEChem-02062319113D

 54 53  0     1  0  0  0  0  0999 V2000
    3.9976    2.6652   -1.6349 C   0  0  0  0  0  0  0  0  0  0  0  0
    4.1032    3.2437   -0.5639 O   0  0  0  0  0  0  0  0  0  0  0  0
    5.2410    2.3547   -2.4455 C   0  0  0  0  0  0  0  0  0  0  0  0
    5.1245    2.7251   -3.4669 H   0  0  0  0  0  0  0  0  0  0  0  0
    6.1145    2.8348   -1.9957 H   0  0  0  0  0  0  0  0  0  0  0  0
    5.4072    1.2749   -2.4733 H   0  0  0  0  0  0  0  0  0  0  0  0
    2.7634    2.2536   -2.0957 N   0  0  0  0  0  0  0  0  0  0  0  0
    1.5476    2.2340   -1.2691 C   0  0  2  0  0  0  0  0  0  0  0  0
    1.1958    0.7887   -0.8384 C   0  0  0  0  0  0  0  0  0  0  0  0
    1.4615   -0.1618   -1.5577 O   0  0  0  0  0  0  0  0  0  0  0  0
    0.4116    2.8405   -2.0942 C   0  0  0  0  0  0  0  0  0  0  0  0
    2.7828    1.6160   -2.8892 H   0  0  0  0  0  0  0  0  0  0  0  0
    1.6867    2.8539   -0.3807 H   0  0  0  0  0  0  0  0  0  0  0  0
    0.2364    2.2516   -3.0002 H   0  0  0  0  0  0  0  0  0  0  0  0
   -0.5132    2.8676   -1.5103 H   0  0  0  0  0  0  0  0  0  0  0  0
    0.6640    3.8647   -2.3868 H   0  0  0  0  0  0  0  0  0  0  0  0
    0.5501    0.4064    0.3195 N   0  0  0  0  0  0  0  0  0  0  0  0
    0.0560    1.2808    1.3952 C   0  0  2  0  0  0  0  0  0  0  0  0
    1.1688    2.1127    2.0574 C   0  0  0  0  0  0  0  0  0  0  0  0
    0.9849    3.3047    2.2444 O   0  0  0  0  0  0  0  0  0  0  0  0
   -0.6413    0.4221    2.4641 C   0  0  0  0  0  0  0  0  0  0  0  0
   -1.9125   -0.2538    1.9247 C   0  0  0  0  0  0  0  0  0  0  0  0
   -2.5779   -1.0937    3.0220 C   0  0  0  0  0  0  0  0  0  0  0  0
   -3.8463   -1.7559    2.4866 C   0  0  0  0  0  0  0  0  0  0  0  0
   -4.4530   -2.5751    3.5590 N   0  3  0  0  0  0  0  0  0  0  0  0
    0.4865   -0.6025    0.4269 H   0  0  0  0  0  0  0  0  0  0  0  0
   -0.6702    1.9887    0.9795 H   0  0  0  0  0  0  0  0  0  0  0  0
    0.0573   -0.3368    2.8342 H   0  0  0  0  0  0  0  0  0  0  0  0
   -0.9104    1.0639    3.3114 H   0  0  0  0  0  0  0  0  0  0  0  0
   -2.6083    0.5153    1.5701 H   0  0  0  0  0  0  0  0  0  0  0  0
   -1.6619   -0.8964    1.0735 H   0  0  0  0  0  0  0  0  0  0  0  0
   -2.8243   -0.4495    3.8736 H   0  0  0  0  0  0  0  0  0  0  0  0
   -1.8747   -1.8597    3.3681 H   0  0  0  0  0  0  0  0  0  0  0  0
   -4.5426   -0.9777    2.1404 H   0  0  0  0  0  0  0  0  0  0  0  0
   -3.5915   -2.3739    1.6128 H   0  0  0  0  0  0  0  0  0  0  0  0
   -5.3034   -3.0289    3.2173 H   0  0  0  0  0  0  0  0  0  0  0  0
   -4.6918   -1.9843    4.3582 H   0  0  0  0  0  0  0  0  0  0  0  0
   -3.7947   -3.2945    3.8649 H   0  0  0  0  0  0  0  0  0  0  0  0
    2.3655    1.5195    2.3983 N   0  0  0  0  0  0  0  0  0  0  0  0
    3.6119    2.2725    2.5731 C   0  0  2  0  0  0  0  0  0  0  0  0
    4.7978    1.4601    2.0105 C   0  0  0  0  0  0  0  0  0  0  0  0
    4.6939    0.2407    1.9004 O   0  0  0  0  0  0  0  0  0  0  0  0
    3.8111    2.5664    4.0614 C   0  0  0  0  0  0  0  0  0  0  0  0
    2.4932    0.5552    2.0901 H   0  0  0  0  0  0  0  0  0  0  0  0
    3.5622    3.2185    2.0225 H   0  0  0  0  0  0  0  0  0  0  0  0
    3.8789    1.6343    4.6312 H   0  0  0  0  0  0  0  0  0  0  0  0
    4.7313    3.1381    4.2169 H   0  0  0  0  0  0  0  0  0  0  0  0
    2.9712    3.1527    4.4473 H   0  0  0  0  0  0  0  0  0  0  0  0
    5.9622    2.0868    1.6118 N   0  0  0  0  0  0  0  0  0  0  0  0
    7.0624    1.3719    0.9765 C   0  0  0  0  0  0  0  0  0  0  0  0
    5.8981    3.0931    1.4725 H   0  0  0  0  0  0  0  0  0  0  0  0
    7.4324    0.5769    1.6327 H   0  0  0  0  0  0  0  0  0  0  0  0
    6.7354    0.9250    0.0319 H   0  0  0  0  0  0  0  0  0  0  0  0
    7.8894    2.0580    0.7693 H   0  0  0  0  0  0  0  0  0  0  0  0
  1  2  2  0  0  0  0
  1  3  1  0  0  0  0
  1  7  1  0  0  0  0
  3  4  1  0  0  0  0
  3  5  1  0  0  0  0
  3  6  1  0  0  0  0
  7  8  1  0  0  0  0
  7 12  1  0  0  0  0
  8  9  1  0  0  0  0
  8 11  1  0  0  0  0
  8 13  1  0  0  0  0
  9 10  2  0  0  0  0
  9 17  1  0  0  0  0
 11 14  1  0  0  0  0
 11 15  1  0  0  0  0
 11 16  1  0  0  0  0
 17 18  1  0  0  0  0
 17 26  1  0  0  0  0
 18 19  1  0  0  0  0
 18 21  1  0  0  0  0
 18 27  1  0  0  0  0
 19 20  2  0  0  0  0
 19 39  1  0  0  0  0
 21 22  1  0  0  0  0
 21 28  1  0  0  0  0
 21 29  1  0  0  0  0
 22 23  1  0  0  0  0
 22 30  1  0  0  0  0
 22 31  1  0  0  0  0
 23 24  1  0  0  0  0
 23 32  1  0  0  0  0
 23 33  1  0  0  0  0
 24 25  1  0  0  0  0
 24 34  1  0  0  0  0
 24 35  1  0  0  0  0
 25 36  1  0  0  0  0
 25 37  1  0  0  0  0
 25 38  1  0  0  0  0
 39 40  1  0  0  0  0
 39 44  1  0  0  0  0
 40 41  1  0  0  0  0
 40 43  1  0  0  0  0
 40 45  1  0  0  0  0
 41 42  2  0  0  0  0
 41 49  1  0  0  0  0
 43 46  1  0  0  0  0
 43 47  1  0  0  0  0
 43 48  1  0  0  0  0
 49 50  1  0  0  0  0
 49 51  1  0  0  0  0
 50 52  1  0  0  0  0
 50 53  1  0  0  0  0
 50 54  1  0  0  0  0
M  CHG  1  25   1
M  END
$$$$

  -OEChem-02062319113D

 54 53  0     1  0  0  0  0  0999 V2000
    3.8774    3.0164   -1.6858 C   0  0  0  0  0  0  0  0  0  0  0  0
    3.8013    3.8339   -0.7797 O   0  0  0  0  0  0  0  0  0  0  0  0
    5.1992    2.8068   -2.3994 C   0  0  0  0  0  0  0  0  0  0  0  0
    5.9676    3.4565   -1.9712 H   0  0  0  0  0  0  0  0  0  0  0  0
    5.5192    1.7673   -2.2949 H   0  0  0  0  0  0  0  0  0  0  0  0
    5.0915    3.0427   -3.4609 H   0  0  0  0  0  0  0  0  0  0  0  0
    2.7807    2.2594   -2.0469 N   0  0  0  0  0  0  0  0  0  0  0  0
    1.5277    2.1980   -1.2803 C   0  0  2  0  0  0  0  0  0  0  0  0
    1.2113    0.7474   -0.8358 C   0  0  0  0  0  0  0  0  0  0  0  0
    1.6032   -0.2032   -1.4954 O   0  0  0  0  0  0  0  0  0  0  0  0
    0.4057    2.7413   -2.1661 C   0  0  0  0  0  0  0  0  0  0  0  0
    2.9590    1.4903   -2.6909 H   0  0  0  0  0  0  0  0  0  0  0  0
    1.6062    2.8351   -0.3999 H   0  0  0  0  0  0  0  0  0  0  0  0
    0.2919    2.1268   -3.0650 H   0  0  0  0  0  0  0  0  0  0  0  0
   -0.5435    2.7455   -1.6220 H   0  0  0  0  0  0  0  0  0  0  0  0
    0.6309    3.7681   -2.4718 H   0  0  0  0  0  0  0  0  0  0  0  0
    0.5643    0.3474    0.3175 N   0  0  0  0  0  0  0  0  0  0  0  0
   -0.2321    1.1829    1.2333 C   0  0  2  0  0  0  0  0  0  0  0  0
    0.5746    2.3364    1.8561 C   0  0  0  0  0  0  0  0  0  0  0  0
    0.1325    3.4724    1.7986 O   0  0  0  0  0  0  0  0  0  0  0  0
   -0.8089    0.3010    2.3548 C   0  0  0  0  0  0  0  0  0  0  0  0
   -1.8452   -0.7044    1.8256 C   0  0  0  0  0  0  0  0  0  0  0  0
   -2.4350   -1.5282    2.9779 C   0  0  0  0  0  0  0  0  0  0  0  0
   -3.4749   -2.5125    2.4442 C   0  0  0  0  0  0  0  0  0  0  0  0
   -4.0272   -3.2956    3.5717 N   0  3  0  0  0  0  0  0  0  0  0  0
    0.5285   -0.6636    0.4154 H   0  0  0  0  0  0  0  0  0  0  0  0
   -1.0602    1.6361    0.6771 H   0  0  0  0  0  0  0  0  0  0  0  0
    0.0062   -0.2315    2.8579 H   0  0  0  0  0  0  0  0  0  0  0  0
   -1.2886    0.9482    3.0982 H   0  0  0  0  0  0  0  0  0  0  0  0
   -2.6464   -0.1605    1.3124 H   0  0  0  0  0  0  0  0  0  0  0  0
   -1.3765   -1.3755    1.0974 H   0  0  0  0  0  0  0  0  0  0  0  0
   -2.8997   -0.8540    3.7064 H   0  0  0  0  0  0  0  0  0  0  0  0
   -1.6302   -2.0724    3.4849 H   0  0  0  0  0  0  0  0  0  0  0  0
   -4.2681   -1.9542    1.9249 H   0  0  0  0  0  0  0  0  0  0  0  0
   -3.0023   -3.1704    1.6997 H   0  0  0  0  0  0  0  0  0  0  0  0
   -4.7227   -3.9627    3.2294 H   0  0  0  0  0  0  0  0  0  0  0  0
   -4.4731   -2.6711    4.2471 H   0  0  0  0  0  0  0  0  0  0  0  0
   -3.2791   -3.8100    4.0408 H   0  0  0  0  0  0  0  0  0  0  0  0
    1.8380    2.0935    2.3517 N   0  0  0  0  0  0  0  0  0  0  0  0
    2.8874    3.1152    2.4370 C   0  0  2  0  0  0  0  0  0  0  0  0
    4.2630    2.4725    2.1554 C   0  0  0  0  0  0  0  0  0  0  0  0
    4.3986    1.2584    2.2891 O   0  0  0  0  0  0  0  0  0  0  0  0
    2.8591    3.7464    3.8305 C   0  0  0  0  0  0  0  0  0  0  0  0
    2.1850    1.1392    2.2483 H   0  0  0  0  0  0  0  0  0  0  0  0
    2.7191    3.8941    1.6848 H   0  0  0  0  0  0  0  0  0  0  0  0
    3.0354    2.9873    4.5990 H   0  0  0  0  0  0  0  0  0  0  0  0
    3.6326    4.5157    3.9161 H   0  0  0  0  0  0  0  0  0  0  0  0
    1.8866    4.2133    4.0157 H   0  0  0  0  0  0  0  0  0  0  0  0
    5.3287    3.2363    1.7222 N   0  0  0  0  0  0  0  0  0  0  0  0
    6.6072    2.6516    1.3374 C   0  0  0  0  0  0  0  0  0  0  0  0
    5.0842    4.1454    1.3317 H   0  0  0  0  0  0  0  0  0  0  0  0
    7.0335    2.0800    2.1687 H   0  0  0  0  0  0  0  0  0  0  0  0
    6.4816    1.9840    0.4789 H   0  0  0  0  0  0  0  0  0  0  0  0
    7.3158    3.4397    1.0650 H   0  0  0  0  0  0  0  0  0  0  0  0
  1  2  2  0  0  0  0
  1  3  1  0  0  0  0
  1  7  1  0  0  0  0
  3  4  1  0  0  0  0
  3  5  1  0  0  0  0
  3  6  1  0  0  0  0
  7  8  1  0  0  0  0
  7 12  1  0  0  0  0
  8  9  1  0  0  0  0
  8 11  1  0  0  0  0
  8 13  1  0  0  0  0
  9 10  2  0  0  0  0
  9 17  1  0  0  0  0
 11 14  1  0  0  0  0
 11 15  1  0  0  0  0
 11 16  1  0  0  0  0
 17 18  1  0  0  0  0
 17 26  1  0  0  0  0
 18 19  1  0  0  0  0
 18 21  1  0  0  0  0
 18 27  1  0  0  0  0
 19 20  2  0  0  0  0
 19 39  1  0  0  0  0
 21 22  1  0  0  0  0
 21 28  1  0  0  0  0
 21 29  1  0  0  0  0
 22 23  1  0  0  0  0
 22 30  1  0  0  0  0
 22 31  1  0  0  0  0
 23 24  1  0  0  0  0
 23 32  1  0  0  0  0
 23 33  1  0  0  0  0
 24 25  1  0  0  0  0
 24 34  1  0  0  0  0
 24 35  1  0  0  0  0
 25 36  1  0  0  0  0
 25 37  1  0  0  0  0
 25 38  1  0  0  0  0
 39 40  1  0  0  0  0
 39 44  1  0  0  0  0
 40 41  1  0  0  0  0
 40 43  1  0  0  0  0
 40 45  1  0  0  0  0
 41 42  2  0  0  0  0
 41 49  1  0  0  0  0
 43 46  1  0  0  0  0
 43 47  1  0  0  0  0
 43 48  1  0  0  0  0
 49 50  1  0  0  0  0
 49 51  1  0  0  0  0
 50 52  1  0  0  0  0
 50 53  1  0  0  0  0
 50 54  1  0  0  0  0
M  CHG  1  25   1
M  END
$$$$

  -OEChem-02062319113D

 54 53  0     1  0  0  0  0  0999 V2000
    3.7031    3.2223   -1.7780 C   0  0  0  0  0  0  0  0  0  0  0  0
    3.4583    4.1544   -1.0251 O   0  0  0  0  0  0  0  0  0  0  0  0
    5.0845    3.0892   -2.3890 C   0  0  0  0  0  0  0  0  0  0  0  0
    5.7267    3.9080   -2.0528 H   0  0  0  0  0  0  0  0  0  0  0  0
    5.5363    2.1412   -2.0865 H   0  0  0  0  0  0  0  0  0  0  0  0
    5.0157    3.1210   -3.4792 H   0  0  0  0  0  0  0  0  0  0  0  0
    2.7377    2.2746   -2.0535 N   0  0  0  0  0  0  0  0  0  0  0  0
    1.4530    2.1823   -1.3476 C   0  0  2  0  0  0  0  0  0  0  0  0
    1.1328    0.7266   -0.9245 C   0  0  0  0  0  0  0  0  0  0  0  0
    1.6092   -0.2141   -1.5418 O   0  0  0  0  0  0  0  0  0  0  0  0
    0.3592    2.7315   -2.2649 C   0  0  0  0  0  0  0  0  0  0  0  0
    3.0344    1.4538   -2.5795 H   0  0  0  0  0  0  0  0  0  0  0  0
    1.4971    2.8040   -0.4571 H   0  0  0  0  0  0  0  0  0  0  0  0
    0.2724    2.1215   -3.1696 H   0  0  0  0  0  0  0  0  0  0  0  0
   -0.6062    2.7364   -1.7500 H   0  0  0  0  0  0  0  0  0  0  0  0
    0.5950    3.7597   -2.5584 H   0  0  0  0  0  0  0  0  0  0  0  0
    0.5024    0.3081    0.2321 N   0  0  0  0  0  0  0  0  0  0  0  0
   -0.5104    1.0558    1.0003 C   0  0  2  0  0  0  0  0  0  0  0  0
   -0.0086    2.4108    1.5330 C   0  0  0  0  0  0  0  0  0  0  0  0
   -0.6469    3.4229    1.2952 O   0  0  0  0  0  0  0  0  0  0  0  0
   -0.9745    0.1960    2.1897 C   0  0  0  0  0  0  0  0  0  0  0  0
   -1.7397   -1.0603    1.7417 C   0  0  0  0  0  0  0  0  0  0  0  0
   -2.1945   -1.8712    2.9627 C   0  0  0  0  0  0  0  0  0  0  0  0
   -2.9480   -3.1245    2.5196 C   0  0  0  0  0  0  0  0  0  0  0  0
   -3.3446   -3.9011    3.7152 N   0  3  0  0  0  0  0  0  0  0  0  0
    0.5128   -0.7042    0.3141 H   0  0  0  0  0  0  0  0  0  0  0  0
   -1.3701    1.2642    0.3529 H   0  0  0  0  0  0  0  0  0  0  0  0
   -0.1046   -0.0918    2.7911 H   0  0  0  0  0  0  0  0  0  0  0  0
   -1.6298    0.8016    2.8265 H   0  0  0  0  0  0  0  0  0  0  0  0
   -2.6109   -0.7618    1.1470 H   0  0  0  0  0  0  0  0  0  0  0  0
   -1.0982   -1.6820    1.1079 H   0  0  0  0  0  0  0  0  0  0  0  0
   -2.8424   -1.2492    3.5907 H   0  0  0  0  0  0  0  0  0  0  0  0
   -1.3177   -2.1541    3.5558 H   0  0  0  0  0  0  0  0  0  0  0  0
   -3.8284   -2.8278    1.9304 H   0  0  0  0  0  0  0  0  0  0  0  0
   -2.3021   -3.7205    1.8579 H   0  0  0  0  0  0  0  0  0  0  0  0
   -3.8583   -4.7401    3.4356 H   0  0  0  0  0  0  0  0  0  0  0  0
   -3.9427   -3.3334    4.3192 H   0  0  0  0  0  0  0  0  0  0  0  0
   -2.5147   -4.1823    4.2417 H   0  0  0  0  0  0  0  0  0  0  0  0
    1.2343    2.4841    2.1277 N   0  0  0  0  0  0  0  0  0  0  0  0
    2.0475    3.7039    2.2037 C   0  0  2  0  0  0  0  0  0  0  0  0
    3.5466    3.3336    2.1524 C   0  0  0  0  0  0  0  0  0  0  0  0
    3.8875    2.1776    2.3937 O   0  0  0  0  0  0  0  0  0  0  0  0
    1.7168    4.4477    3.5000 C   0  0  0  0  0  0  0  0  0  0  0  0
    1.7686    1.6147    2.1625 H   0  0  0  0  0  0  0  0  0  0  0  0
    1.8332    4.3547    1.3485 H   0  0  0  0  0  0  0  0  0  0  0  0
    1.9385    3.8204    4.3692 H   0  0  0  0  0  0  0  0  0  0  0  0
    2.3067    5.3667    3.5734 H   0  0  0  0  0  0  0  0  0  0  0  0
    0.6562    4.7172    3.5237 H   0  0  0  0  0  0  0  0  0  0  0  0
    4.5006    4.2713    1.8097 N   0  0  0  0  0  0  0  0  0  0  0  0
    5.9032    3.9238    1.6185 C   0  0  0  0  0  0  0  0  0  0  0  0
    4.1494    5.0971    1.3286 H   0  0  0  0  0  0  0  0  0  0  0  0
    6.3245    3.5066    2.5392 H   0  0  0  0  0  0  0  0  0  0  0  0
    6.0099    3.1863    0.8165 H   0  0  0  0  0  0  0  0  0  0  0  0
    6.4792    4.8145    1.3492 H   0  0  0  0  0  0  0  0  0  0  0  0
  1  2  2  0  0  0  0
  1  3  1  0  0  0  0
  1  7  1  0  0  0  0
  3  4  1  0  0  0  0
  3  5  1  0  0  0  0
  3  6  1  0  0  0  0
  7  8  1  0  0  0  0
  7 12  1  0  0  0  0
  8  9  1  0  0  0  0
  8 11  1  0  0  0  0
  8 13  1  0  0  0  0
  9 10  2  0  0  0  0
  9 17  1  0  0  0  0
 11 14  1  0  0  0  0
 11 15  1  0  0  0  0
 11 16  1  0  0  0  0
 17 18  1  0  0  0  0
 17 26  1  0  0  0  0
 18 19  1  0  0  0  0
 18 21  1  0  0  0  0
 18 27  1  0  0  0  0
 19 20  2  0  0  0  0
 19 39  1  0  0  0  0
 21 22  1  0  0  0  0
 21 28  1  0  0  0  0
 21 29  1  0  0  0  0
 22 23  1  0  0  0  0
 22 30  1  0  0  0  0
 22 31  1  0  0  0  0
 23 24  1  0  0  0  0
 23 32  1  0  0  0  0
 23 33  1  0  0  0  0
 24 25  1  0  0  0  0
 24 34  1  0  0  0  0
 24 35  1  0  0  0  0
 25 36  1  0  0  0  0
 25 37  1  0  0  0  0
 25 38  1  0  0  0  0
 39 40  1  0  0  0  0
 39 44  1  0  0  0  0
 40 41  1  0  0  0  0
 40 43  1  0  0  0  0
 40 45  1  0  0  0  0
 41 42  2  0  0  0  0
 41 49  1  0  0  0  0
 43 46  1  0  0  0  0
 43 47  1  0  0  0  0
 43 48  1  0  0  0  0
 49 50  1  0  0  0  0
 49 51  1  0  0  0  0
 50 52  1  0  0  0  0
 50 53  1  0  0  0  0
 50 54  1  0  0  0  0
M  CHG  1  25   1
M  END
$$$$

  -OEChem-02062319113D

 54 53  0     1  0  0  0  0  0999 V2000
    3.5294    3.3823   -1.9098 C   0  0  0  0  0  0  0  0  0  0  0  0
    3.1165    4.3747   -1.3264 O   0  0  0  0  0  0  0  0  0  0  0  0
    4.9346    3.3674   -2.4792 C   0  0  0  0  0  0  0  0  0  0  0  0
    5.4465    4.3044   -2.2435 H   0  0  0  0  0  0  0  0  0  0  0  0
    5.5032    2.5392   -2.0497 H   0  0  0  0  0  0  0  0  0  0  0  0
    4.8965    3.2503   -3.5648 H   0  0  0  0  0  0  0  0  0  0  0  0
    2.7238    2.2682   -2.0316 N   0  0  0  0  0  0  0  0  0  0  0  0
    1.4232    2.1276   -1.3665 C   0  0  2  0  0  0  0  0  0  0  0  0
    1.1154    0.6649   -0.9653 C   0  0  0  0  0  0  0  0  0  0  0  0
    1.6757   -0.2562   -1.5405 O   0  0  0  0  0  0  0  0  0  0  0  0
    0.3397    2.6642   -2.3059 C   0  0  0  0  0  0  0  0  0  0  0  0
    3.1344    1.4303   -2.4410 H   0  0  0  0  0  0  0  0  0  0  0  0
    1.4399    2.7307   -0.4643 H   0  0  0  0  0  0  0  0  0  0  0  0
    0.3190    2.0876   -3.2361 H   0  0  0  0  0  0  0  0  0  0  0  0
   -0.6457    2.6033   -1.8351 H   0  0  0  0  0  0  0  0  0  0  0  0
    0.5360    3.7129   -2.5509 H   0  0  0  0  0  0  0  0  0  0  0  0
    0.5123    0.2255    0.1986 N   0  0  0  0  0  0  0  0  0  0  0  0
   -0.6895    0.8249    0.8113 C   0  0  2  0  0  0  0  0  0  0  0  0
   -0.5348    2.3044    1.2163 C   0  0  0  0  0  0  0  0  0  0  0  0
   -1.3495    3.1258    0.8293 O   0  0  0  0  0  0  0  0  0  0  0  0
   -1.0691    0.0075    2.0592 C   0  0  0  0  0  0  0  0  0  0  0  0
   -1.5270   -1.4193    1.7119 C   0  0  0  0  0  0  0  0  0  0  0  0
   -1.9169   -2.1769    2.9878 C   0  0  0  0  0  0  0  0  0  0  0  0
   -2.3691   -3.5963    2.6481 C   0  0  0  0  0  0  0  0  0  0  0  0
   -2.7130   -4.3084    3.8989 N   0  3  0  0  0  0  0  0  0  0  0  0
    0.6196   -0.7805    0.2874 H   0  0  0  0  0  0  0  0  0  0  0  0
   -1.5147    0.7811    0.0912 H   0  0  0  0  0  0  0  0  0  0  0  0
   -0.2117   -0.0326    2.7405 H   0  0  0  0  0  0  0  0  0  0  0  0
   -1.8831    0.5225    2.5826 H   0  0  0  0  0  0  0  0  0  0  0  0
   -2.3844   -1.3701    1.0307 H   0  0  0  0  0  0  0  0  0  0  0  0
   -0.7218   -1.9565    1.1992 H   0  0  0  0  0  0  0  0  0  0  0  0
   -2.7254   -1.6398    3.4964 H   0  0  0  0  0  0  0  0  0  0  0  0
   -1.0552   -2.2120    3.6639 H   0  0  0  0  0  0  0  0  0  0  0  0
   -3.2338   -3.5486    1.9697 H   0  0  0  0  0  0  0  0  0  0  0  0
   -1.5626   -4.1143    2.1080 H   0  0  0  0  0  0  0  0  0  0  0  0
   -3.0270   -5.2586    3.6881 H   0  0  0  0  0  0  0  0  0  0  0  0
   -3.4615   -3.8142    4.3890 H   0  0  0  0  0  0  0  0  0  0  0  0
   -1.8949   -4.3589    4.5097 H   0  0  0  0  0  0  0  0  0  0  0  0
    0.6058    2.7078    1.8800 N   0  0  0  0  0  0  0  0  0  0  0  0
    1.1276    4.0802    1.8928 C   0  0  2  0  0  0  0  0  0  0  0  0
    2.6688    4.0438    1.9975 C   0  0  0  0  0  0  0  0  0  0  0  0
    3.2185    3.0051    2.3580 O   0  0  0  0  0  0  0  0  0  0  0  0
    0.5184    4.8393    3.0737 C   0  0  0  0  0  0  0  0  0  0  0  0
    1.3041    1.9843    2.0601 H   0  0  0  0  0  0  0  0  0  0  0  0
    0.8659    4.5917    0.9597 H   0  0  0  0  0  0  0  0  0  0  0  0
    0.7681    4.3444    4.0175 H   0  0  0  0  0  0  0  0  0  0  0  0
    0.8997    5.8645    3.1060 H   0  0  0  0  0  0  0  0  0  0  0  0
   -0.5713    4.8800    2.9770 H   0  0  0  0  0  0  0  0  0  0  0  0
    3.4338    5.1430    1.6607 N   0  0  0  0  0  0  0  0  0  0  0  0
    4.8885    5.0848    1.5904 C   0  0  0  0  0  0  0  0  0  0  0  0
    2.9649    5.8608    1.1131 H   0  0  0  0  0  0  0  0  0  0  0  0
    5.3082    4.7947    2.5592 H   0  0  0  0  0  0  0  0  0  0  0  0
    5.2068    4.3581    0.8358 H   0  0  0  0  0  0  0  0  0  0  0  0
    5.2932    6.0647    1.3197 H   0  0  0  0  0  0  0  0  0  0  0  0
  1  2  2  0  0  0  0
  1  3  1  0  0  0  0
  1  7  1  0  0  0  0
  3  4  1  0  0  0  0
  3  5  1  0  0  0  0
  3  6  1  0  0  0  0
  7  8  1  0  0  0  0
  7 12  1  0  0  0  0
  8  9  1  0  0  0  0
  8 11  1  0  0  0  0
  8 13  1  0  0  0  0
  9 10  2  0  0  0  0
  9 17  1  0  0  0  0
 11 14  1  0  0  0  0
 11 15  1  0  0  0  0
 11 16  1  0  0  0  0
 17 18  1  0  0  0  0
 17 26  1  0  0  0  0
 18 19  1  0  0  0  0
 18 21  1  0  0  0  0
 18 27  1  0  0  0  0
 19 20  2  0  0  0  0
 19 39  1  0  0  0  0
 21 22  1  0  0  0  0
 21 28  1  0  0  0  0
 21 29  1  0  0  0  0
 22 23  1  0  0  0  0
 22 30  1  0  0  0  0
 22 31  1  0  0  0  0
 23 24  1  0  0  0  0
 23 32  1  0  0  0  0
 23 33  1  0  0  0  0
 24 25  1  0  0  0  0
 24 34  1  0  0  0  0
 24 35  1  0  0  0  0
 25 36  1  0  0  0  0
 25 37  1  0  0  0  0
 25 38  1  0  0  0  0
 39 40  1  0  0  0  0
 39 44  1  0  0  0  0
 40 41  1  0  0  0  0
 40 43  1  0  0  0  0
 40 45  1  0  0  0  0
 41 42  2  0  0  0  0
 41 49  1  0  0  0  0
 43 46  1  0  0  0  0
 43 47  1  0  0  0  0
 43 48  1  0  0  0  0
 49 50  1  0  0  0  0
 49 51  1  0  0  0  0
 50 52  1  0  0  0  0
 50 53  1  0  0  0  0
 50 54  1  0  0  0  0
M  CHG  1  25   1
M  END
$$$$

  -OEChem-02062319113D

 54 53  0     1  0  0  0  0  0999 V2000
    3.4076    3.4395   -2.0166 C   0  0  0  0  0  0  0  0  0  0  0  0
    2.9055    4.4365   -1.5182 O   0  0  0  0  0  0  0  0  0  0  0  0
    4.8011    3.5074   -2.6117 C   0  0  0  0  0  0  0  0  0  0  0  0
    5.1958    4.5243   -2.5314 H   0  0  0  0  0  0  0  0  0  0  0  0
    5.4695    2.8276   -2.0776 H   0  0  0  0  0  0  0  0  0  0  0  0
    4.7712    3.2248   -3.6668 H   0  0  0  0  0  0  0  0  0  0  0  0
    2.7030    2.2526   -2.0371 N   0  0  0  0  0  0  0  0  0  0  0  0
    1.3885    2.0722   -1.4093 C   0  0  2  0  0  0  0  0  0  0  0  0
    1.1021    0.6021   -1.0221 C   0  0  0  0  0  0  0  0  0  0  0  0
    1.7153   -0.2997   -1.5738 O   0  0  0  0  0  0  0  0  0  0  0  0
    0.3214    2.5781   -2.3881 C   0  0  0  0  0  0  0  0  0  0  0  0
    3.1667    1.4262   -2.4120 H   0  0  0  0  0  0  0  0  0  0  0  0
    1.3679    2.6699   -0.5012 H   0  0  0  0  0  0  0  0  0  0  0  0
   -0.6828    2.4451   -1.9781 H   0  0  0  0  0  0  0  0  0  0  0  0
    0.3822    2.0318   -3.3346 H   0  0  0  0  0  0  0  0  0  0  0  0
    0.4669    3.6434   -2.5925 H   0  0  0  0  0  0  0  0  0  0  0  0
    0.5462    0.1501    0.1597 N   0  0  0  0  0  0  0  0  0  0  0  0
   -0.7956    0.5470    0.6318 C   0  0  2  0  0  0  0  0  0  0  0  0
   -0.9873    2.0591    0.8700 C   0  0  0  0  0  0  0  0  0  0  0  0
   -1.9376    2.6368    0.3685 O   0  0  0  0  0  0  0  0  0  0  0  0
   -1.1004   -0.2019    1.9423 C   0  0  0  0  0  0  0  0  0  0  0  0
   -1.2239   -1.7219    1.7375 C   0  0  0  0  0  0  0  0  0  0  0  0
   -1.5850   -2.4118    3.0598 C   0  0  0  0  0  0  0  0  0  0  0  0
   -1.7074   -3.9218    2.8572 C   0  0  0  0  0  0  0  0  0  0  0  0
   -2.0415   -4.5591    4.1503 N   0  3  0  0  0  0  0  0  0  0  0  0
    0.7770   -0.8326    0.2739 H   0  0  0  0  0  0  0  0  0  0  0  0
   -1.5345    0.2567   -0.1246 H   0  0  0  0  0  0  0  0  0  0  0  0
   -0.3129    0.0120    2.6737 H   0  0  0  0  0  0  0  0  0  0  0  0
   -2.0436    0.1783    2.3519 H   0  0  0  0  0  0  0  0  0  0  0  0
   -1.9986   -1.9258    0.9893 H   0  0  0  0  0  0  0  0  0  0  0  0
   -0.2782   -2.1261    1.3609 H   0  0  0  0  0  0  0  0  0  0  0  0
   -2.5332   -2.0086    3.4328 H   0  0  0  0  0  0  0  0  0  0  0  0
   -0.8091   -2.1969    3.8034 H   0  0  0  0  0  0  0  0  0  0  0  0
   -2.4833   -4.1248    2.1043 H   0  0  0  0  0  0  0  0  0  0  0  0
   -0.7597   -4.3127    2.4579 H   0  0  0  0  0  0  0  0  0  0  0  0
   -2.1264   -5.5714    4.0327 H   0  0  0  0  0  0  0  0  0  0  0  0
   -2.9278   -4.1922    4.5029 H   0  0  0  0  0  0  0  0  0  0  0  0
   -1.3081   -4.3667    4.8355 H   0  0  0  0  0  0  0  0  0  0  0  0
   -0.0155    2.7691    1.5439 N   0  0  0  0  0  0  0  0  0  0  0  0
    0.1777    4.2229    1.4747 C   0  0  2  0  0  0  0  0  0  0  0  0
    1.6625    4.5568    1.7462 C   0  0  0  0  0  0  0  0  0  0  0  0
    2.3799    3.7030    2.2631 O   0  0  0  0  0  0  0  0  0  0  0  0
   -0.7293    4.9062    2.5022 C   0  0  0  0  0  0  0  0  0  0  0  0
    0.8010    2.2411    1.8575 H   0  0  0  0  0  0  0  0  0  0  0  0
   -0.0715    4.5849    0.4709 H   0  0  0  0  0  0  0  0  0  0  0  0
   -0.4908    4.5612    3.5131 H   0  0  0  0  0  0  0  0  0  0  0  0
   -0.5988    5.9919    2.4649 H   0  0  0  0  0  0  0  0  0  0  0  0
   -1.7796    4.6791    2.2943 H   0  0  0  0  0  0  0  0  0  0  0  0
    2.1971    5.7794    1.3900 N   0  0  0  0  0  0  0  0  0  0  0  0
    3.6261    6.0592    1.4693 C   0  0  0  0  0  0  0  0  0  0  0  0
    1.6339    6.3602    0.7750 H   0  0  0  0  0  0  0  0  0  0  0  0
    3.9801    5.9643    2.5013 H   0  0  0  0  0  0  0  0  0  0  0  0
    4.1890    5.3634    0.8380 H   0  0  0  0  0  0  0  0  0  0  0  0
    3.8309    7.0784    1.1277 H   0  0  0  0  0  0  0  0  0  0  0  0
  1  2  2  0  0  0  0
  1  3  1  0  0  0  0
  1  7  1  0  0  0  0
  3  4  1  0  0  0  0
  3  5  1  0  0  0  0
  3  6  1  0  0  0  0
  7  8  1  0  0  0  0
  7 12  1  0  0  0  0
  8  9  1  0  0  0  0
  8 11  1  0  0  0  0
  8 13  1  0  0  0  0
  9 10  2  0  0  0  0
  9 17  1  0  0  0  0
 11 14  1  0  0  0  0
 11 15  1  0  0  0  0
 11 16  1  0  0  0  0
 17 18  1  0  0  0  0
 17 26  1  0  0  0  0
 18 19  1  0  0  0  0
 18 21  1  0  0  0  0
 18 27  1  0  0  0  0
 19 20  2  0  0  0  0
 19 39  1  0  0  0  0
 21 22  1  0  0  0  0
 21 28  1  0  0  0  0
 21 29  1  0  0  0  0
 22 23  1  0  0  0  0
 22 30  1  0  0  0  0
 22 31  1  0  0  0  0
 23 24  1  0  0  0  0
 23 32  1  0  0  0  0
 23 33  1  0  0  0  0
 24 25  1  0  0  0  0
 24 34  1  0  0  0  0
 24 35  1  0  0  0  0
 25 36  1  0  0  0  0
 25 37  1  0  0  0  0
 25 38  1  0  0  0  0
 39 40  1  0  0  0  0
 39 44  1  0  0  0  0
 40 41  1  0  0  0  0
 40 43  1  0  0  0  0
 40 45  1  0  0  0  0
 41 42  2  0  0  0  0
 41 49  1  0  0  0  0
 43 46  1  0  0  0  0
 43 47  1  0  0  0  0
 43 48  1  0  0  0  0
 49 50  1  0  0  0  0
 49 51  1  0  0  0  0
 50 52  1  0  0  0  0
 50 53  1  0  0  0  0
 50 54  1  0  0  0  0
M  CHG  1  25   1
M  END
$$$$

  -OEChem-02062319113D

 54 53  0     1  0  0  0  0  0999 V2000
    3.7004    2.1291   -1.5674 C   0  0  0  0  0  0  0  0  0  0  0  0
    3.6323    1.9464   -0.3614 O   0  0  0  0  0  0  0  0  0  0  0  0
    5.0480    2.1106   -2.2624 C   0  0  0  0  0  0  0  0  0  0  0  0
    5.1203    2.9443   -2.9652 H   0  0  0  0  0  0  0  0  0  0  0  0
    5.8510    2.2028   -1.5255 H   0  0  0  0  0  0  0  0  0  0  0  0
    5.1722    1.1713   -2.8067 H   0  0  0  0  0  0  0  0  0  0  0  0
    2.5445    2.2999   -2.3037 N   0  0  0  0  0  0  0  0  0  0  0  0
    1.2146    2.1289   -1.7045 C   0  0  2  0  0  0  0  0  0  0  0  0
    0.9192    0.6507   -1.3529 C   0  0  0  0  0  0  0  0  0  0  0  0
    1.3351   -0.2623   -2.0508 O   0  0  0  0  0  0  0  0  0  0  0  0
    0.1779    2.6734   -2.6896 C   0  0  0  0  0  0  0  0  0  0  0  0
    2.6339    2.2170   -3.3122 H   0  0  0  0  0  0  0  0  0  0  0  0
    1.1766    2.7220   -0.7883 H   0  0  0  0  0  0  0  0  0  0  0  0
    0.2048    2.1075   -3.6263 H   0  0  0  0  0  0  0  0  0  0  0  0
   -0.8301    2.5986   -2.2716 H   0  0  0  0  0  0  0  0  0  0  0  0
    0.3813    3.7259   -2.9106 H   0  0  0  0  0  0  0  0  0  0  0  0
    0.4997    0.1986   -0.1212 N   0  0  0  0  0  0  0  0  0  0  0  0
   -0.8828    0.4022    0.3437 C   0  0  2  0  0  0  0  0  0  0  0  0
   -1.3545    1.8651    0.4634 C   0  0  0  0  0  0  0  0  0  0  0  0
   -2.4506    2.1697    0.0196 O   0  0  0  0  0  0  0  0  0  0  0  0
   -1.0280   -0.2662    1.7237 C   0  0  0  0  0  0  0  0  0  0  0  0
   -0.8126   -1.7885    1.6683 C   0  0  0  0  0  0  0  0  0  0  0  0
   -0.9650   -2.4028    3.0649 C   0  0  0  0  0  0  0  0  0  0  0  0
   -0.7096   -3.9077    3.0082 C   0  0  0  0  0  0  0  0  0  0  0  0
   -0.8371   -4.4714    4.3698 N   0  3  0  0  0  0  0  0  0  0  0  0
    0.8321   -0.7556   -0.0204 H   0  0  0  0  0  0  0  0  0  0  0  0
   -1.5632   -0.0868   -0.3636 H   0  0  0  0  0  0  0  0  0  0  0  0
   -0.3094    0.1838    2.4182 H   0  0  0  0  0  0  0  0  0  0  0  0
   -2.0333   -0.0634    2.1107 H   0  0  0  0  0  0  0  0  0  0  0  0
   -1.5421   -2.2337    0.9821 H   0  0  0  0  0  0  0  0  0  0  0  0
    0.1890   -2.0116    1.2855 H   0  0  0  0  0  0  0  0  0  0  0  0
   -1.9754   -2.2071    3.4412 H   0  0  0  0  0  0  0  0  0  0  0  0
   -0.2500   -1.9294    3.7474 H   0  0  0  0  0  0  0  0  0  0  0  0
   -1.4287   -4.3717    2.3170 H   0  0  0  0  0  0  0  0  0  0  0  0
    0.2954   -4.0885    2.5987 H   0  0  0  0  0  0  0  0  0  0  0  0
   -0.6754   -5.4809    4.3494 H   0  0  0  0  0  0  0  0  0  0  0  0
   -1.7744   -4.2934    4.7363 H   0  0  0  0  0  0  0  0  0  0  0  0
   -0.1509   -4.0392    4.9920 H   0  0  0  0  0  0  0  0  0  0  0  0
   -0.5634    2.8338    1.0472 N   0  0  0  0  0  0  0  0  0  0  0  0
   -0.8836    4.2679    1.0852 C   0  0  2  0  0  0  0  0  0  0  0  0
    0.3894    5.1149    1.2910 C   0  0  0  0  0  0  0  0  0  0  0  0
    1.4263    4.5679    1.6443 O   0  0  0  0  0  0  0  0  0  0  0  0
   -1.8834    4.5296    2.2175 C   0  0  0  0  0  0  0  0  0  0  0  0
    0.3876    2.5704    1.3176 H   0  0  0  0  0  0  0  0  0  0  0  0
   -1.3297    4.5674    0.1310 H   0  0  0  0  0  0  0  0  0  0  0  0
   -1.4597    4.2258    3.1800 H   0  0  0  0  0  0  0  0  0  0  0  0
   -2.1370    5.5927    2.2691 H   0  0  0  0  0  0  0  0  0  0  0  0
   -2.8069    3.9671    2.0494 H   0  0  0  0  0  0  0  0  0  0  0  0
    0.3808    6.4795    1.0707 N   0  0  0  0  0  0  0  0  0  0  0  0
    1.5546    7.3246    1.2616 C   0  0  0  0  0  0  0  0  0  0  0  0
   -0.4923    6.9091    0.7784 H   0  0  0  0  0  0  0  0  0  0  0  0
    1.8974    7.2769    2.3008 H   0  0  0  0  0  0  0  0  0  0  0  0
    2.3714    7.0009    0.6076 H   0  0  0  0  0  0  0  0  0  0  0  0
    1.3152    8.3659    1.0251 H   0  0  0  0  0  0  0  0  0  0  0  0
  1  2  2  0  0  0  0
  1  3  1  0  0  0  0
  1  7  1  0  0  0  0
  3  4  1  0  0  0  0
  3  5  1  0  0  0  0
  3  6  1  0  0  0  0
  7  8  1  0  0  0  0
  7 12  1  0  0  0  0
  8  9  1  0  0  0  0
  8 11  1  0  0  0  0
  8 13  1  0  0  0  0
  9 10  2  0  0  0  0
  9 17  1  0  0  0  0
 11 14  1  0  0  0  0
 11 15  1  0  0  0  0
 11 16  1  0  0  0  0
 17 18  1  0  0  0  0
 17 26  1  0  0  0  0
 18 19  1  0  0  0  0
 18 21  1  0  0  0  0
 18 27  1  0  0  0  0
 19 20  2  0  0  0  0
 19 39  1  0  0  0  0
 21 22  1  0  0  0  0
 21 28  1  0  0  0  0
 21 29  1  0  0  0  0
 22 23  1  0  0  0  0
 22 30  1  0  0  0  0
 22 31  1  0  0  0  0
 23 24  1  0  0  0  0
 23 32  1  0  0  0  0
 23 33  1  0  0  0  0
 24 25  1  0  0  0  0
 24 34  1  0  0  0  0
 24 35  1  0  0  0  0
 25 36  1  0  0  0  0
 25 37  1  0  0  0  0
 25 38  1  0  0  0  0
 39 40  1  0  0  0  0
 39 44  1  0  0  0  0
 40 41  1  0  0  0  0
 40 43  1  0  0  0  0
 40 45  1  0  0  0  0
 41 42  2  0  0  0  0
 41 49  1  0  0  0  0
 43 46  1  0  0  0  0
 43 47  1  0  0  0  0
 43 48  1  0  0  0  0
 49 50  1  0  0  0  0
 49 51  1  0  0  0  0
 50 52  1  0  0  0  0
 50 53  1  0  0  0  0
 50 54  1  0  0  0  0
M  CHG  1  25   1
M  END
$$$$

  -OEChem-02062319113D

 54 53  0     1  0  0  0  0  0999 V2000
    2.6914    2.4544   -0.3581 C   0  0  0  0  0  0  0  0  0  0  0  0
    2.0881    1.9730    0.5937 O   0  0  0  0  0  0  0  0  0  0  0  0
    3.9693    3.2362   -0.1270 C   0  0  0  0  0  0  0  0  0  0  0  0
    3.8568    4.2517   -0.5164 H   0  0  0  0  0  0  0  0  0  0  0  0
    4.1893    3.2952    0.9423 H   0  0  0  0  0  0  0  0  0  0  0  0
    4.8052    2.7480   -0.6337 H   0  0  0  0  0  0  0  0  0  0  0  0
    2.2410    2.2456   -1.6470 N   0  0  0  0  0  0  0  0  0  0  0  0
    0.8573    1.8821   -2.0038 C   0  0  2  0  0  0  0  0  0  0  0  0
    0.4518    0.4261   -1.6453 C   0  0  0  0  0  0  0  0  0  0  0  0
   -0.2020   -0.2436   -2.4322 O   0  0  0  0  0  0  0  0  0  0  0  0
    0.7193    2.1684   -3.5052 C   0  0  0  0  0  0  0  0  0  0  0  0
    2.7734    2.7333   -2.3628 H   0  0  0  0  0  0  0  0  0  0  0  0
    0.1660    2.5519   -1.4919 H   0  0  0  0  0  0  0  0  0  0  0  0
   -0.3139    2.0086   -3.8303 H   0  0  0  0  0  0  0  0  0  0  0  0
    1.3708    1.5069   -4.0855 H   0  0  0  0  0  0  0  0  0  0  0  0
    0.9857    3.2073   -3.7235 H   0  0  0  0  0  0  0  0  0  0  0  0
    0.3677   -0.0023   -0.3329 N   0  0  0  0  0  0  0  0  0  0  0  0
   -0.9187    0.1229    0.3801 C   0  0  2  0  0  0  0  0  0  0  0  0
   -1.4965    1.5484    0.5368 C   0  0  0  0  0  0  0  0  0  0  0  0
   -2.7044    1.7114    0.4536 O   0  0  0  0  0  0  0  0  0  0  0  0
   -0.7847   -0.5403    1.7600 C   0  0  0  0  0  0  0  0  0  0  0  0
   -0.5093   -2.0467    1.6260 C   0  0  0  0  0  0  0  0  0  0  0  0
   -0.4796   -2.7252    2.9988 C   0  0  0  0  0  0  0  0  0  0  0  0
   -0.2000   -4.2161    2.8252 C   0  0  0  0  0  0  0  0  0  0  0  0
   -0.1925   -4.8671    4.1531 N   0  3  0  0  0  0  0  0  0  0  0  0
    1.1297    0.4233    0.2008 H   0  0  0  0  0  0  0  0  0  0  0  0
   -1.6699   -0.4330   -0.1942 H   0  0  0  0  0  0  0  0  0  0  0  0
    0.0202   -0.0572    2.3247 H   0  0  0  0  0  0  0  0  0  0  0  0
   -1.7180   -0.3932    2.3154 H   0  0  0  0  0  0  0  0  0  0  0  0
   -1.2913   -2.5017    1.0070 H   0  0  0  0  0  0  0  0  0  0  0  0
    0.4494   -2.2025    1.1184 H   0  0  0  0  0  0  0  0  0  0  0  0
   -1.4435   -2.5777    3.4988 H   0  0  0  0  0  0  0  0  0  0  0  0
    0.2996   -2.2649    3.6162 H   0  0  0  0  0  0  0  0  0  0  0  0
   -0.9703   -4.6538    2.1731 H   0  0  0  0  0  0  0  0  0  0  0  0
    0.7658   -4.3445    2.3143 H   0  0  0  0  0  0  0  0  0  0  0  0
    0.0017   -5.8659    4.0531 H   0  0  0  0  0  0  0  0  0  0  0  0
   -1.1021   -4.7496    4.6037 H   0  0  0  0  0  0  0  0  0  0  0  0
    0.5273   -4.4465    4.7439 H   0  0  0  0  0  0  0  0  0  0  0  0
   -0.6987    2.6110    0.9239 N   0  0  0  0  0  0  0  0  0  0  0  0
   -1.1647    3.9964    1.0999 C   0  0  2  0  0  0  0  0  0  0  0  0
   -0.5159    4.9856    0.1067 C   0  0  0  0  0  0  0  0  0  0  0  0
    0.6253    4.8033   -0.3040 O   0  0  0  0  0  0  0  0  0  0  0  0
   -0.8369    4.4046    2.5376 C   0  0  0  0  0  0  0  0  0  0  0  0
    0.3140    2.4574    0.9104 H   0  0  0  0  0  0  0  0  0  0  0  0
   -2.2490    4.0563    0.9595 H   0  0  0  0  0  0  0  0  0  0  0  0
    0.2440    4.3665    2.7089 H   0  0  0  0  0  0  0  0  0  0  0  0
   -1.1853    5.4233    2.7357 H   0  0  0  0  0  0  0  0  0  0  0  0
   -1.3273    3.7283    3.2448 H   0  0  0  0  0  0  0  0  0  0  0  0
   -1.2020    6.1133   -0.3032 N   0  0  0  0  0  0  0  0  0  0  0  0
   -0.6534    7.0944   -1.2332 C   0  0  0  0  0  0  0  0  0  0  0  0
   -2.1565    6.2302    0.0259 H   0  0  0  0  0  0  0  0  0  0  0  0
    0.2731    7.5240   -0.8373 H   0  0  0  0  0  0  0  0  0  0  0  0
   -0.4414    6.6283   -2.2012 H   0  0  0  0  0  0  0  0  0  0  0  0
   -1.3686    7.9077   -1.3908 H   0  0  0  0  0  0  0  0  0  0  0  0
  1  2  2  0  0  0  0
  1  3  1  0  0  0  0
  1  7  1  0  0  0  0
  3  4  1  0  0  0  0
  3  5  1  0  0  0  0
  3  6  1  0  0  0  0
  7  8  1  0  0  0  0
  7 12  1  0  0  0  0
  8  9  1  0  0  0  0
  8 11  1  0  0  0  0
  8 13  1  0  0  0  0
  9 10  2  0  0  0  0
  9 17  1  0  0  0  0
 11 14  1  0  0  0  0
 11 15  1  0  0  0  0
 11 16  1  0  0  0  0
 17 18  1  0  0  0  0
 17 26  1  0  0  0  0
 18 19  1  0  0  0  0
 18 21  1  0  0  0  0
 18 27  1  0  0  0  0
 19 20  2  0  0  0  0
 19 39  1  0  0  0  0
 21 22  1  0  0  0  0
 21 28  1  0  0  0  0
 21 29  1  0  0  0  0
 22 23  1  0  0  0  0
 22 30  1  0  0  0  0
 22 31  1  0  0  0  0
 23 24  1  0  0  0  0
 23 32  1  0  0  0  0
 23 33  1  0  0  0  0
 24 25  1  0  0  0  0
 24 34  1  0  0  0  0
 24 35  1  0  0  0  0
 25 36  1  0  0  0  0
 25 37  1  0  0  0  0
 25 38  1  0  0  0  0
 39 40  1  0  0  0  0
 39 44  1  0  0  0  0
 40 41  1  0  0  0  0
 40 43  1  0  0  0  0
 40 45  1  0  0  0  0
 41 42  2  0  0  0  0
 41 49  1  0  0  0  0
 43 46  1  0  0  0  0
 43 47  1  0  0  0  0
 43 48  1  0  0  0  0
 49 50  1  0  0  0  0
 49 51  1  0  0  0  0
 50 52  1  0  0  0  0
 50 53  1  0  0  0  0
 50 54  1  0  0  0  0
M  CHG  1  25   1
M  END
$$$$

  -OEChem-02062319113D

 54 53  0     1  0  0  0  0  0999 V2000
    2.3346    2.6149   -0.4227 C   0  0  0  0  0  0  0  0  0  0  0  0
    1.6334    2.2031    0.4932 O   0  0  0  0  0  0  0  0  0  0  0  0
    3.4922    3.5484   -0.1274 C   0  0  0  0  0  0  0  0  0  0  0  0
    3.3260    4.5096   -0.6207 H   0  0  0  0  0  0  0  0  0  0  0  0
    3.5760    3.7178    0.9495 H   0  0  0  0  0  0  0  0  0  0  0  0
    4.4280    3.1162   -0.4896 H   0  0  0  0  0  0  0  0  0  0  0  0
    2.1225    2.1735   -1.7152 N   0  0  0  0  0  0  0  0  0  0  0  0
    0.8382    1.6468   -2.2159 C   0  0  2  0  0  0  0  0  0  0  0  0
    0.4862    0.2014   -1.7711 C   0  0  0  0  0  0  0  0  0  0  0  0
   -0.1172   -0.5539   -2.5198 O   0  0  0  0  0  0  0  0  0  0  0  0
    0.8862    1.7810   -3.7439 C   0  0  0  0  0  0  0  0  0  0  0  0
    2.7296    2.6009   -2.4096 H   0  0  0  0  0  0  0  0  0  0  0  0
    0.0307    2.2915   -1.8618 H   0  0  0  0  0  0  0  0  0  0  0  0
   -0.0787    1.5059   -4.1828 H   0  0  0  0  0  0  0  0  0  0  0  0
    1.6552    1.1250   -4.1639 H   0  0  0  0  0  0  0  0  0  0  0  0
    1.1068    2.8137   -4.0317 H   0  0  0  0  0  0  0  0  0  0  0  0
    0.4465   -0.1177   -0.4273 N   0  0  0  0  0  0  0  0  0  0  0  0
   -0.8645   -0.2961    0.2222 C   0  0  2  0  0  0  0  0  0  0  0  0
   -1.7791    0.9490    0.1801 C   0  0  0  0  0  0  0  0  0  0  0  0
   -2.9852    0.7942    0.0581 O   0  0  0  0  0  0  0  0  0  0  0  0
   -0.6499   -0.7426    1.6765 C   0  0  0  0  0  0  0  0  0  0  0  0
   -0.0115   -2.1385    1.7371 C   0  0  0  0  0  0  0  0  0  0  0  0
    0.0948   -2.6272    3.1849 C   0  0  0  0  0  0  0  0  0  0  0  0
    0.6997   -4.0284    3.2115 C   0  0  0  0  0  0  0  0  0  0  0  0
    0.7583   -4.5023    4.6112 N   0  3  0  0  0  0  0  0  0  0  0  0
    1.0591    0.5113    0.0964 H   0  0  0  0  0  0  0  0  0  0  0  0
   -1.4094   -1.0871   -0.3072 H   0  0  0  0  0  0  0  0  0  0  0  0
   -0.0183   -0.0146    2.1974 H   0  0  0  0  0  0  0  0  0  0  0  0
   -1.6203   -0.7669    2.1852 H   0  0  0  0  0  0  0  0  0  0  0  0
   -0.6222   -2.8387    1.1554 H   0  0  0  0  0  0  0  0  0  0  0  0
    0.9851   -2.1079    1.2821 H   0  0  0  0  0  0  0  0  0  0  0  0
   -0.9029   -2.6412    3.6375 H   0  0  0  0  0  0  0  0  0  0  0  0
    0.7197   -1.9340    3.7590 H   0  0  0  0  0  0  0  0  0  0  0  0
    0.0850   -4.6982    2.5921 H   0  0  0  0  0  0  0  0  0  0  0  0
    1.7016   -3.9988    2.7585 H   0  0  0  0  0  0  0  0  0  0  0  0
    1.1581   -5.4425    4.6474 H   0  0  0  0  0  0  0  0  0  0  0  0
   -0.1824   -4.5267    5.0101 H   0  0  0  0  0  0  0  0  0  0  0  0
    1.3387   -3.8728    5.1687 H   0  0  0  0  0  0  0  0  0  0  0  0
   -1.2912    2.2123    0.4679 N   0  0  0  0  0  0  0  0  0  0  0  0
   -2.0923    3.4462    0.4138 C   0  0  2  0  0  0  0  0  0  0  0  0
   -1.3950    4.5916   -0.3542 C   0  0  0  0  0  0  0  0  0  0  0  0
   -0.1995    4.5375   -0.6225 O   0  0  0  0  0  0  0  0  0  0  0  0
   -2.3882    3.8688    1.8549 C   0  0  0  0  0  0  0  0  0  0  0  0
   -0.2731    2.3188    0.5222 H   0  0  0  0  0  0  0  0  0  0  0  0
   -3.0402    3.2559   -0.1010 H   0  0  0  0  0  0  0  0  0  0  0  0
   -1.4571    4.0754    2.3921 H   0  0  0  0  0  0  0  0  0  0  0  0
   -3.0084    4.7701    1.8731 H   0  0  0  0  0  0  0  0  0  0  0  0
   -2.9250    3.0718    2.3787 H   0  0  0  0  0  0  0  0  0  0  0  0
   -2.1187    5.6985   -0.7567 N   0  0  0  0  0  0  0  0  0  0  0  0
   -1.5357    6.8189   -1.4863 C   0  0  0  0  0  0  0  0  0  0  0  0
   -3.1125    5.7148   -0.5445 H   0  0  0  0  0  0  0  0  0  0  0  0
   -0.7219    7.2707   -0.9093 H   0  0  0  0  0  0  0  0  0  0  0  0
   -1.1406    6.4852   -2.4516 H   0  0  0  0  0  0  0  0  0  0  0  0
   -2.2934    7.5867   -1.6700 H   0  0  0  0  0  0  0  0  0  0  0  0
  1  2  2  0  0  0  0
  1  3  1  0  0  0  0
  1  7  1  0  0  0  0
  3  4  1  0  0  0  0
  3  5  1  0  0  0  0
  3  6  1  0  0  0  0
  7  8  1  0  0  0  0
  7 12  1  0  0  0  0
  8  9  1  0  0  0  0
  8 11  1  0  0  0  0
  8 13  1  0  0  0  0
  9 10  2  0  0  0  0
  9 17  1  0  0  0  0
 11 14  1  0  0  0  0
 11 15  1  0  0  0  0
 11 16  1  0  0  0  0
 17 18  1  0  0  0  0
 17 26  1  0  0  0  0
 18 19  1  0  0  0  0
 18 21  1  0  0  0  0
 18 27  1  0  0  0  0
 19 20  2  0  0  0  0
 19 39  1  0  0  0  0
 21 22  1  0  0  0  0
 21 28  1  0  0  0  0
 21 29  1  0  0  0  0
 22 23  1  0  0  0  0
 22 30  1  0  0  0  0
 22 31  1  0  0  0  0
 23 24  1  0  0  0  0
 23 32  1  0  0  0  0
 23 33  1  0  0  0  0
 24 25  1  0  0  0  0
 24 34  1  0  0  0  0
 24 35  1  0  0  0  0
 25 36  1  0  0  0  0
 25 37  1  0  0  0  0
 25 38  1  0  0  0  0
 39 40  1  0  0  0  0
 39 44  1  0  0  0  0
 40 41  1  0  0  0  0
 40 43  1  0  0  0  0
 40 45  1  0  0  0  0
 41 42  2  0  0  0  0
 41 49  1  0  0  0  0
 43 46  1  0  0  0  0
 43 47  1  0  0  0  0
 43 48  1  0  0  0  0
 49 50  1  0  0  0  0
 49 51  1  0  0  0  0
 50 52  1  0  0  0  0
 50 53  1  0  0  0  0
 50 54  1  0  0  0  0
M  CHG  1  25   1
M  END
$$$$

  -OEChem-02062319113D

 54 53  0     1  0  0  0  0  0999 V2000
    2.0103    2.7820   -0.4180 C   0  0  0  0  0  0  0  0  0  0  0  0
    1.1934    2.3915    0.4058 O   0  0  0  0  0  0  0  0  0  0  0  0
    3.0115    3.8560   -0.0400 C   0  0  0  0  0  0  0  0  0  0  0  0
    2.9117    4.7095   -0.7157 H   0  0  0  0  0  0  0  0  0  0  0  0
    2.8309    4.1983    0.9828 H   0  0  0  0  0  0  0  0  0  0  0  0
    4.0291    3.4637   -0.1068 H   0  0  0  0  0  0  0  0  0  0  0  0
    2.0877    2.1789   -1.6592 N   0  0  0  0  0  0  0  0  0  0  0  0
    0.9505    1.5129   -2.3236 C   0  0  2  0  0  0  0  0  0  0  0  0
    0.5827    0.0966   -1.8071 C   0  0  0  0  0  0  0  0  0  0  0  0
    0.0489   -0.7214   -2.5428 O   0  0  0  0  0  0  0  0  0  0  0  0
    1.2746    1.5006   -3.8235 C   0  0  0  0  0  0  0  0  0  0  0  0
    2.7891    2.5788   -2.2770 H   0  0  0  0  0  0  0  0  0  0  0  0
    0.0570    2.1286   -2.1871 H   0  0  0  0  0  0  0  0  0  0  0  0
    2.1385    0.8596   -4.0262 H   0  0  0  0  0  0  0  0  0  0  0  0
    0.4211    1.1209   -4.3950 H   0  0  0  0  0  0  0  0  0  0  0  0
    1.4947    2.5124   -4.1779 H   0  0  0  0  0  0  0  0  0  0  0  0
    0.5454   -0.1586   -0.4497 N   0  0  0  0  0  0  0  0  0  0  0  0
   -0.7166   -0.6143    0.1567 C   0  0  2  0  0  0  0  0  0  0  0  0
   -1.8721    0.3970   -0.0159 C   0  0  0  0  0  0  0  0  0  0  0  0
   -3.0135   -0.0199   -0.1502 O   0  0  0  0  0  0  0  0  0  0  0  0
   -0.4941   -0.9247    1.6437 C   0  0  0  0  0  0  0  0  0  0  0  0
    0.4252   -2.1424    1.8224 C   0  0  0  0  0  0  0  0  0  0  0  0
    0.5245   -2.5350    3.3000 C   0  0  0  0  0  0  0  0  0  0  0  0
    1.3941   -3.7810    3.4514 C   0  0  0  0  0  0  0  0  0  0  0  0
    1.4195   -4.1799    4.8756 N   0  3  0  0  0  0  0  0  0  0  0  0
    1.0010    0.5943    0.0700 H   0  0  0  0  0  0  0  0  0  0  0  0
   -1.0392   -1.5336   -0.3465 H   0  0  0  0  0  0  0  0  0  0  0  0
   -0.0664   -0.0494    2.1450 H   0  0  0  0  0  0  0  0  0  0  0  0
   -1.4650   -1.1335    2.1070 H   0  0  0  0  0  0  0  0  0  0  0  0
    0.0244   -2.9833    1.2447 H   0  0  0  0  0  0  0  0  0  0  0  0
    1.4220   -1.9121    1.4297 H   0  0  0  0  0  0  0  0  0  0  0  0
   -0.4806   -2.7326    3.6890 H   0  0  0  0  0  0  0  0  0  0  0  0
    0.9531   -1.7034    3.8702 H   0  0  0  0  0  0  0  0  0  0  0  0
    0.9839   -4.5860    2.8235 H   0  0  0  0  0  0  0  0  0  0  0  0
    2.4063   -3.5646    3.0785 H   0  0  0  0  0  0  0  0  0  0  0  0
    2.0008   -5.0121    4.9972 H   0  0  0  0  0  0  0  0  0  0  0  0
    0.4714   -4.3887    5.1953 H   0  0  0  0  0  0  0  0  0  0  0  0
    1.8014   -3.4218    5.4442 H   0  0  0  0  0  0  0  0  0  0  0  0
   -1.6716    1.7484    0.2098 N   0  0  0  0  0  0  0  0  0  0  0  0
   -2.7013    2.7832    0.0266 C   0  0  2  0  0  0  0  0  0  0  0  0
   -2.2212    3.9633   -0.8480 C   0  0  0  0  0  0  0  0  0  0  0  0
   -1.0279    4.1389   -1.0713 O   0  0  0  0  0  0  0  0  0  0  0  0
   -3.1112    3.2746    1.4169 C   0  0  0  0  0  0  0  0  0  0  0  0
   -0.7001    2.0692    0.2770 H   0  0  0  0  0  0  0  0  0  0  0  0
   -3.5789    2.3580   -0.4717 H   0  0  0  0  0  0  0  0  0  0  0  0
   -2.2548    3.7199    1.9337 H   0  0  0  0  0  0  0  0  0  0  0  0
   -3.9027    4.0263    1.3423 H   0  0  0  0  0  0  0  0  0  0  0  0
   -3.4860    2.4390    2.0165 H   0  0  0  0  0  0  0  0  0  0  0  0
   -3.1393    4.8414   -1.3938 N   0  0  0  0  0  0  0  0  0  0  0  0
   -2.7690    5.9704   -2.2397 C   0  0  0  0  0  0  0  0  0  0  0  0
   -4.1246    4.6571   -1.2263 H   0  0  0  0  0  0  0  0  0  0  0  0
   -2.1015    6.6512   -1.7011 H   0  0  0  0  0  0  0  0  0  0  0  0
   -2.2603    5.6216   -3.1445 H   0  0  0  0  0  0  0  0  0  0  0  0
   -3.6621    6.5283   -2.5382 H   0  0  0  0  0  0  0  0  0  0  0  0
  1  2  2  0  0  0  0
  1  3  1  0  0  0  0
  1  7  1  0  0  0  0
  3  4  1  0  0  0  0
  3  5  1  0  0  0  0
  3  6  1  0  0  0  0
  7  8  1  0  0  0  0
  7 12  1  0  0  0  0
  8  9  1  0  0  0  0
  8 11  1  0  0  0  0
  8 13  1  0  0  0  0
  9 10  2  0  0  0  0
  9 17  1  0  0  0  0
 11 14  1  0  0  0  0
 11 15  1  0  0  0  0
 11 16  1  0  0  0  0
 17 18  1  0  0  0  0
 17 26  1  0  0  0  0
 18 19  1  0  0  0  0
 18 21  1  0  0  0  0
 18 27  1  0  0  0  0
 19 20  2  0  0  0  0
 19 39  1  0  0  0  0
 21 22  1  0  0  0  0
 21 28  1  0  0  0  0
 21 29  1  0  0  0  0
 22 23  1  0  0  0  0
 22 30  1  0  0  0  0
 22 31  1  0  0  0  0
 23 24  1  0  0  0  0
 23 32  1  0  0  0  0
 23 33  1  0  0  0  0
 24 25  1  0  0  0  0
 24 34  1  0  0  0  0
 24 35  1  0  0  0  0
 25 36  1  0  0  0  0
 25 37  1  0  0  0  0
 25 38  1  0  0  0  0
 39 40  1  0  0  0  0
 39 44  1  0  0  0  0
 40 41  1  0  0  0  0
 40 43  1  0  0  0  0
 40 45  1  0  0  0  0
 41 42  2  0  0  0  0
 41 49  1  0  0  0  0
 43 46  1  0  0  0  0
 43 47  1  0  0  0  0
 43 48  1  0  0  0  0
 49 50  1  0  0  0  0
 49 51  1  0  0  0  0
 50 52  1  0  0  0  0
 50 53  1  0  0  0  0
 50 54  1  0  0  0  0
M  CHG  1  25   1
M  END
$$$$

  -OEChem-02062319113D

 54 53  0     1  0  0  0  0  0999 V2000
    2.5459    2.5789   -0.3744 C   0  0  0  0  0  0  0  0  0  0  0  0
    1.7186    2.3168    0.4890 O   0  0  0  0  0  0  0  0  0  0  0  0
    3.8161    3.3226   -0.0099 C   0  0  0  0  0  0  0  0  0  0  0  0
    3.9374    4.1943   -0.6581 H   0  0  0  0  0  0  0  0  0  0  0  0
    3.7702    3.6626    1.0284 H   0  0  0  0  0  0  0  0  0  0  0  0
    4.6813    2.6662   -0.1298 H   0  0  0  0  0  0  0  0  0  0  0  0
    2.3553    2.1429   -1.6705 N   0  0  0  0  0  0  0  0  0  0  0  0
    1.0750    1.6368   -2.1916 C   0  0  2  0  0  0  0  0  0  0  0  0
    0.7470    0.1861   -1.7533 C   0  0  0  0  0  0  0  0  0  0  0  0
    0.3952   -0.6658   -2.5568 O   0  0  0  0  0  0  0  0  0  0  0  0
    1.1119    1.7966   -3.7168 C   0  0  0  0  0  0  0  0  0  0  0  0
    3.0607    2.4194   -2.3485 H   0  0  0  0  0  0  0  0  0  0  0  0
    0.2680    2.2727   -1.8166 H   0  0  0  0  0  0  0  0  0  0  0  0
    1.8873    1.1591   -4.1536 H   0  0  0  0  0  0  0  0  0  0  0  0
    0.1471    1.5137   -4.1507 H   0  0  0  0  0  0  0  0  0  0  0  0
    1.3152    2.8368   -3.9893 H   0  0  0  0  0  0  0  0  0  0  0  0
    0.5626   -0.0791   -0.4088 N   0  0  0  0  0  0  0  0  0  0  0  0
   -0.5536   -0.9138    0.0674 C   0  0  2  0  0  0  0  0  0  0  0  0
   -1.9361   -0.3417   -0.3051 C   0  0  0  0  0  0  0  0  0  0  0  0
   -2.8615   -1.1018   -0.5502 O   0  0  0  0  0  0  0  0  0  0  0  0
   -0.4537   -1.0871    1.5904 C   0  0  0  0  0  0  0  0  0  0  0  0
    0.7940   -1.8883    1.9896 C   0  0  0  0  0  0  0  0  0  0  0  0
    0.8121   -2.1266    3.5033 C   0  0  0  0  0  0  0  0  0  0  0  0
    2.0421   -2.9424    3.8915 C   0  0  0  0  0  0  0  0  0  0  0  0
    2.0203   -3.1750    5.3519 N   0  3  0  0  0  0  0  0  0  0  0  0
    0.8322    0.7104    0.1854 H   0  0  0  0  0  0  0  0  0  0  0  0
   -0.4865   -1.9000   -0.4072 H   0  0  0  0  0  0  0  0  0  0  0  0
   -0.4365   -0.1027    2.0712 H   0  0  0  0  0  0  0  0  0  0  0  0
   -1.3477   -1.6144    1.9426 H   0  0  0  0  0  0  0  0  0  0  0  0
    0.7914   -2.8488    1.4616 H   0  0  0  0  0  0  0  0  0  0  0  0
    1.6955   -1.3430    1.6880 H   0  0  0  0  0  0  0  0  0  0  0  0
   -0.0982   -2.6618    3.7961 H   0  0  0  0  0  0  0  0  0  0  0  0
    0.8215   -1.1614    4.0219 H   0  0  0  0  0  0  0  0  0  0  0  0
    2.0347   -3.8931    3.3379 H   0  0  0  0  0  0  0  0  0  0  0  0
    2.9485   -2.3982    3.5874 H   0  0  0  0  0  0  0  0  0  0  0  0
    2.8374   -3.7211    5.6333 H   0  0  0  0  0  0  0  0  0  0  0  0
    1.1743   -3.6870    5.6102 H   0  0  0  0  0  0  0  0  0  0  0  0
    2.0310   -2.2814    5.8478 H   0  0  0  0  0  0  0  0  0  0  0  0
   -2.1968    1.0048   -0.1339 N   0  0  0  0  0  0  0  0  0  0  0  0
   -3.4054    1.6653   -0.6446 C   0  0  2  0  0  0  0  0  0  0  0  0
   -3.0549    2.9867   -1.3609 C   0  0  0  0  0  0  0  0  0  0  0  0
   -1.9209    3.4473   -1.2740 O   0  0  0  0  0  0  0  0  0  0  0  0
   -4.3495    1.9121    0.5345 C   0  0  0  0  0  0  0  0  0  0  0  0
   -1.3813    1.6063   -0.0196 H   0  0  0  0  0  0  0  0  0  0  0  0
   -3.9066    1.0238   -1.3779 H   0  0  0  0  0  0  0  0  0  0  0  0
   -3.8776    2.5673    1.2736 H   0  0  0  0  0  0  0  0  0  0  0  0
   -5.2767    2.3820    0.1931 H   0  0  0  0  0  0  0  0  0  0  0  0
   -4.6027    0.9635    1.0186 H   0  0  0  0  0  0  0  0  0  0  0  0
   -3.9997    3.6535   -2.1174 N   0  0  0  0  0  0  0  0  0  0  0  0
   -3.7266    4.9005   -2.8233 C   0  0  0  0  0  0  0  0  0  0  0  0
   -4.9236    3.2370   -2.1947 H   0  0  0  0  0  0  0  0  0  0  0  0
   -3.4409    5.6867   -2.1163 H   0  0  0  0  0  0  0  0  0  0  0  0
   -2.9143    4.7637   -3.5451 H   0  0  0  0  0  0  0  0  0  0  0  0
   -4.6175    5.2320   -3.3658 H   0  0  0  0  0  0  0  0  0  0  0  0
  1  2  2  0  0  0  0
  1  3  1  0  0  0  0
  1  7  1  0  0  0  0
  3  4  1  0  0  0  0
  3  5  1  0  0  0  0
  3  6  1  0  0  0  0
  7  8  1  0  0  0  0
  7 12  1  0  0  0  0
  8  9  1  0  0  0  0
  8 11  1  0  0  0  0
  8 13  1  0  0  0  0
  9 10  2  0  0  0  0
  9 17  1  0  0  0  0
 11 14  1  0  0  0  0
 11 15  1  0  0  0  0
 11 16  1  0  0  0  0
 17 18  1  0  0  0  0
 17 26  1  0  0  0  0
 18 19  1  0  0  0  0
 18 21  1  0  0  0  0
 18 27  1  0  0  0  0
 19 20  2  0  0  0  0
 19 39  1  0  0  0  0
 21 22  1  0  0  0  0
 21 28  1  0  0  0  0
 21 29  1  0  0  0  0
 22 23  1  0  0  0  0
 22 30  1  0  0  0  0
 22 31  1  0  0  0  0
 23 24  1  0  0  0  0
 23 32  1  0  0  0  0
 23 33  1  0  0  0  0
 24 25  1  0  0  0  0
 24 34  1  0  0  0  0
 24 35  1  0  0  0  0
 25 36  1  0  0  0  0
 25 37  1  0  0  0  0
 25 38  1  0  0  0  0
 39 40  1  0  0  0  0
 39 44  1  0  0  0  0
 40 41  1  0  0  0  0
 40 43  1  0  0  0  0
 40 45  1  0  0  0  0
 41 42  2  0  0  0  0
 41 49  1  0  0  0  0
 43 46  1  0  0  0  0
 43 47  1  0  0  0  0
 43 48  1  0  0  0  0
 49 50  1  0  0  0  0
 49 51  1  0  0  0  0
 50 52  1  0  0  0  0
 50 53  1  0  0  0  0
 50 54  1  0  0  0  0
M  CHG  1  25   1
M  END
$$$$

  -OEChem-02062319113D

 54 53  0     1  0  0  0  0  0999 V2000
    2.6368    2.5658   -0.2174 C   0  0  0  0  0  0  0  0  0  0  0  0
    1.9054    2.2429    0.7110 O   0  0  0  0  0  0  0  0  0  0  0  0
    3.9940    3.1823    0.0638 C   0  0  0  0  0  0  0  0  0  0  0  0
    4.0611    4.1669   -0.4058 H   0  0  0  0  0  0  0  0  0  0  0  0
    4.1420    3.2972    1.1411 H   0  0  0  0  0  0  0  0  0  0  0  0
    4.7856    2.5435   -0.3354 H   0  0  0  0  0  0  0  0  0  0  0  0
    2.2513    2.3281   -1.5215 N   0  0  0  0  0  0  0  0  0  0  0  0
    0.9087    1.8797   -1.9221 C   0  0  2  0  0  0  0  0  0  0  0  0
    0.6470    0.3872   -1.6023 C   0  0  0  0  0  0  0  0  0  0  0  0
    0.4210   -0.4406   -2.4735 O   0  0  0  0  0  0  0  0  0  0  0  0
    0.7341    2.2015   -3.4112 C   0  0  0  0  0  0  0  0  0  0  0  0
    2.8943    2.6168   -2.2542 H   0  0  0  0  0  0  0  0  0  0  0  0
    0.1624    2.4634   -1.3727 H   0  0  0  0  0  0  0  0  0  0  0  0
    1.4511    1.6378   -4.0167 H   0  0  0  0  0  0  0  0  0  0  0  0
   -0.2777    1.9374   -3.7371 H   0  0  0  0  0  0  0  0  0  0  0  0
    0.8828    3.2702   -3.5917 H   0  0  0  0  0  0  0  0  0  0  0  0
    0.4515    0.0236   -0.2835 N   0  0  0  0  0  0  0  0  0  0  0  0
   -0.3861   -1.1122    0.1362 C   0  0  2  0  0  0  0  0  0  0  0  0
   -1.8528   -0.9714   -0.3137 C   0  0  0  0  0  0  0  0  0  0  0  0
   -2.4885   -1.9635   -0.6388 O   0  0  0  0  0  0  0  0  0  0  0  0
   -0.3191   -1.2621    1.6636 C   0  0  0  0  0  0  0  0  0  0  0  0
    1.0998   -1.6107    2.1357 C   0  0  0  0  0  0  0  0  0  0  0  0
    1.1208   -1.8294    3.6518 C   0  0  0  0  0  0  0  0  0  0  0  0
    2.5347   -2.1780    4.1082 C   0  0  0  0  0  0  0  0  0  0  0  0
    2.5240   -2.4082    5.5690 N   0  3  0  0  0  0  0  0  0  0  0  0
    0.6558    0.7661    0.3907 H   0  0  0  0  0  0  0  0  0  0  0  0
   -0.0007   -2.0262   -0.3307 H   0  0  0  0  0  0  0  0  0  0  0  0
   -0.6532   -0.3333    2.1389 H   0  0  0  0  0  0  0  0  0  0  0  0
   -1.0077   -2.0586    1.9684 H   0  0  0  0  0  0  0  0  0  0  0  0
    1.4376   -2.5189    1.6238 H   0  0  0  0  0  0  0  0  0  0  0  0
    1.7883   -0.8003    1.8705 H   0  0  0  0  0  0  0  0  0  0  0  0
    0.4317   -2.6413    3.9106 H   0  0  0  0  0  0  0  0  0  0  0  0
    0.7778   -0.9182    4.1550 H   0  0  0  0  0  0  0  0  0  0  0  0
    2.8796   -3.0722    3.5681 H   0  0  0  0  0  0  0  0  0  0  0  0
    3.2137   -1.3553    3.8393 H   0  0  0  0  0  0  0  0  0  0  0  0
    3.4673   -2.6236    5.8985 H   0  0  0  0  0  0  0  0  0  0  0  0
    1.9073   -3.1917    5.7937 H   0  0  0  0  0  0  0  0  0  0  0  0
    2.1866   -1.5726    6.0509 H   0  0  0  0  0  0  0  0  0  0  0  0
   -2.5026    0.2377   -0.1599 N   0  0  0  0  0  0  0  0  0  0  0  0
   -3.6997    0.5805   -0.9384 C   0  0  2  0  0  0  0  0  0  0  0  0
   -3.3816    1.7291   -1.9189 C   0  0  0  0  0  0  0  0  0  0  0  0
   -2.4102    2.4519   -1.7118 O   0  0  0  0  0  0  0  0  0  0  0  0
   -4.8064    0.9832    0.0379 C   0  0  0  0  0  0  0  0  0  0  0  0
   -1.8749    1.0224    0.0056 H   0  0  0  0  0  0  0  0  0  0  0  0
   -4.0437   -0.2755   -1.5290 H   0  0  0  0  0  0  0  0  0  0  0  0
   -4.4962    1.8455    0.6365 H   0  0  0  0  0  0  0  0  0  0  0  0
   -5.7197    1.2461   -0.5047 H   0  0  0  0  0  0  0  0  0  0  0  0
   -5.0336    0.1526    0.7133 H   0  0  0  0  0  0  0  0  0  0  0  0
   -4.1693    1.9525   -3.0318 N   0  0  0  0  0  0  0  0  0  0  0  0
   -3.8799    2.9857   -4.0196 C   0  0  0  0  0  0  0  0  0  0  0  0
   -4.9254    1.2979   -3.2137 H   0  0  0  0  0  0  0  0  0  0  0  0
   -3.8560    3.9730   -3.5459 H   0  0  0  0  0  0  0  0  0  0  0  0
   -2.9115    2.8002   -4.4966 H   0  0  0  0  0  0  0  0  0  0  0  0
   -4.6516    2.9957   -4.7956 H   0  0  0  0  0  0  0  0  0  0  0  0
  1  2  2  0  0  0  0
  1  3  1  0  0  0  0
  1  7  1  0  0  0  0
  3  4  1  0  0  0  0
  3  5  1  0  0  0  0
  3  6  1  0  0  0  0
  7  8  1  0  0  0  0
  7 12  1  0  0  0  0
  8  9  1  0  0  0  0
  8 11  1  0  0  0  0
  8 13  1  0  0  0  0
  9 10  2  0  0  0  0
  9 17  1  0  0  0  0
 11 14  1  0  0  0  0
 11 15  1  0  0  0  0
 11 16  1  0  0  0  0
 17 18  1  0  0  0  0
 17 26  1  0  0  0  0
 18 19  1  0  0  0  0
 18 21  1  0  0  0  0
 18 27  1  0  0  0  0
 19 20  2  0  0  0  0
 19 39  1  0  0  0  0
 21 22  1  0  0  0  0
 21 28  1  0  0  0  0
 21 29  1  0  0  0  0
 22 23  1  0  0  0  0
 22 30  1  0  0  0  0
 22 31  1  0  0  0  0
 23 24  1  0  0  0  0
 23 32  1  0  0  0  0
 23 33  1  0  0  0  0
 24 25  1  0  0  0  0
 24 34  1  0  0  0  0
 24 35  1  0  0  0  0
 25 36  1  0  0  0  0
 25 37  1  0  0  0  0
 25 38  1  0  0  0  0
 39 40  1  0  0  0  0
 39 44  1  0  0  0  0
 40 41  1  0  0  0  0
 40 43  1  0  0  0  0
 40 45  1  0  0  0  0
 41 42  2  0  0  0  0
 41 49  1  0  0  0  0
 43 46  1  0  0  0  0
 43 47  1  0  0  0  0
 43 48  1  0  0  0  0
 49 50  1  0  0  0  0
 49 51  1  0  0  0  0
 50 52  1  0  0  0  0
 50 53  1  0  0  0  0
 50 54  1  0  0  0  0
M  CHG  1  25   1
M  END
$$$$

  -OEChem-02062319113D

 54 53  0     1  0  0  0  0  0999 V2000
    2.3825    2.6439   -0.1729 C   0  0  0  0  0  0  0  0  0  0  0  0
    1.6475    2.2884    0.7404 O   0  0  0  0  0  0  0  0  0  0  0  0
    3.6720    3.3799    0.1372 C   0  0  0  0  0  0  0  0  0  0  0  0
    3.7127    4.3157   -0.4266 H   0  0  0  0  0  0  0  0  0  0  0  0
    3.7287    3.6130    1.2041 H   0  0  0  0  0  0  0  0  0  0  0  0
    4.5303    2.7613   -0.1366 H   0  0  0  0  0  0  0  0  0  0  0  0
    2.0702    2.3426   -1.4831 N   0  0  0  0  0  0  0  0  0  0  0  0
    0.7777    1.8021   -1.9338 C   0  0  2  0  0  0  0  0  0  0  0  0
    0.5740    0.3073   -1.5851 C   0  0  0  0  0  0  0  0  0  0  0  0
    0.4746   -0.5606   -2.4414 O   0  0  0  0  0  0  0  0  0  0  0  0
    0.6738    2.0648   -3.4413 C   0  0  0  0  0  0  0  0  0  0  0  0
    2.7188    2.6676   -2.1953 H   0  0  0  0  0  0  0  0  0  0  0  0
   -0.0326    2.3568   -1.4477 H   0  0  0  0  0  0  0  0  0  0  0  0
    1.4592    1.5282   -3.9835 H   0  0  0  0  0  0  0  0  0  0  0  0
   -0.2976    1.7255   -3.8158 H   0  0  0  0  0  0  0  0  0  0  0  0
    0.7671    3.1342   -3.6523 H   0  0  0  0  0  0  0  0  0  0  0  0
    0.4113   -0.0503   -0.2600 N   0  0  0  0  0  0  0  0  0  0  0  0
   -0.0971   -1.3536    0.1990 C   0  0  2  0  0  0  0  0  0  0  0  0
   -1.5198   -1.6258   -0.3260 C   0  0  0  0  0  0  0  0  0  0  0  0
   -1.8552   -2.7546   -0.6545 O   0  0  0  0  0  0  0  0  0  0  0  0
   -0.0781   -1.4086    1.7341 C   0  0  0  0  0  0  0  0  0  0  0  0
    1.3520   -1.3248    2.2882 C   0  0  0  0  0  0  0  0  0  0  0  0
    1.3393   -1.4288    3.8165 C   0  0  0  0  0  0  0  0  0  0  0  0
    2.7639   -1.3431    4.3567 C   0  0  0  0  0  0  0  0  0  0  0  0
    2.7246   -1.4527    5.8312 N   0  3  0  0  0  0  0  0  0  0  0  0
    0.5483    0.7081    0.4130 H   0  0  0  0  0  0  0  0  0  0  0  0
    0.5455   -2.1474   -0.1991 H   0  0  0  0  0  0  0  0  0  0  0  0
   -0.6833   -0.5894    2.1376 H   0  0  0  0  0  0  0  0  0  0  0  0
   -0.5362   -2.3506    2.0565 H   0  0  0  0  0  0  0  0  0  0  0  0
    1.9529   -2.1372    1.8637 H   0  0  0  0  0  0  0  0  0  0  0  0
    1.8118   -0.3762    1.9888 H   0  0  0  0  0  0  0  0  0  0  0  0
    0.8826   -2.3799    4.1122 H   0  0  0  0  0  0  0  0  0  0  0  0
    0.7319   -0.6162    4.2305 H   0  0  0  0  0  0  0  0  0  0  0  0
    3.3679   -2.1493    3.9144 H   0  0  0  0  0  0  0  0  0  0  0  0
    3.2135   -0.3902    4.0399 H   0  0  0  0  0  0  0  0  0  0  0  0
    3.6716   -1.4053    6.2133 H   0  0  0  0  0  0  0  0  0  0  0  0
    2.3013   -2.3424    6.1031 H   0  0  0  0  0  0  0  0  0  0  0  0
    2.1699   -0.6889    6.2227 H   0  0  0  0  0  0  0  0  0  0  0  0
   -2.4588   -0.6154   -0.2641 N   0  0  0  0  0  0  0  0  0  0  0  0
   -3.5699   -0.5555   -1.2202 C   0  0  2  0  0  0  0  0  0  0  0  0
   -3.3217    0.5827   -2.2342 C   0  0  0  0  0  0  0  0  0  0  0  0
   -2.5683    1.5078   -1.9374 O   0  0  0  0  0  0  0  0  0  0  0  0
   -4.8622   -0.3202   -0.4370 C   0  0  0  0  0  0  0  0  0  0  0  0
   -2.0435    0.2940   -0.0693 H   0  0  0  0  0  0  0  0  0  0  0  0
   -3.6605   -1.4933   -1.7793 H   0  0  0  0  0  0  0  0  0  0  0  0
   -4.8093    0.6215    0.1188 H   0  0  0  0  0  0  0  0  0  0  0  0
   -5.7185   -0.2765   -1.1170 H   0  0  0  0  0  0  0  0  0  0  0  0
   -5.0259   -1.1363    0.2736 H   0  0  0  0  0  0  0  0  0  0  0  0
   -3.9350    0.5748   -3.4723 N   0  0  0  0  0  0  0  0  0  0  0  0
   -3.6699    1.5743   -4.5005 C   0  0  0  0  0  0  0  0  0  0  0  0
   -4.4831   -0.2453   -3.7179 H   0  0  0  0  0  0  0  0  0  0  0  0
   -3.8445    2.5836   -4.1126 H   0  0  0  0  0  0  0  0  0  0  0  0
   -2.6330    1.5028   -4.8447 H   0  0  0  0  0  0  0  0  0  0  0  0
   -4.3312    1.4190   -5.3582 H   0  0  0  0  0  0  0  0  0  0  0  0
  1  2  2  0  0  0  0
  1  3  1  0  0  0  0
  1  7  1  0  0  0  0
  3  4  1  0  0  0  0
  3  5  1  0  0  0  0
  3  6  1  0  0  0  0
  7  8  1  0  0  0  0
  7 12  1  0  0  0  0
  8  9  1  0  0  0  0
  8 11  1  0  0  0  0
  8 13  1  0  0  0  0
  9 10  2  0  0  0  0
  9 17  1  0  0  0  0
 11 14  1  0  0  0  0
 11 15  1  0  0  0  0
 11 16  1  0  0  0  0
 17 18  1  0  0  0  0
 17 26  1  0  0  0  0
 18 19  1  0  0  0  0
 18 21  1  0  0  0  0
 18 27  1  0  0  0  0
 19 20  2  0  0  0  0
 19 39  1  0  0  0  0
 21 22  1  0  0  0  0
 21 28  1  0  0  0  0
 21 29  1  0  0  0  0
 22 23  1  0  0  0  0
 22 30  1  0  0  0  0
 22 31  1  0  0  0  0
 23 24  1  0  0  0  0
 23 32  1  0  0  0  0
 23 33  1  0  0  0  0
 24 25  1  0  0  0  0
 24 34  1  0  0  0  0
 24 35  1  0  0  0  0
 25 36  1  0  0  0  0
 25 37  1  0  0  0  0
 25 38  1  0  0  0  0
 39 40  1  0  0  0  0
 39 44  1  0  0  0  0
 40 41  1  0  0  0  0
 40 43  1  0  0  0  0
 40 45  1  0  0  0  0
 41 42  2  0  0  0  0
 41 49  1  0  0  0  0
 43 46  1  0  0  0  0
 43 47  1  0  0  0  0
 43 48  1  0  0  0  0
 49 50  1  0  0  0  0
 49 51  1  0  0  0  0
 50 52  1  0  0  0  0
 50 53  1  0  0  0  0
 50 54  1  0  0  0  0
M  CHG  1  25   1
M  END
$$$$
