
  -OEChem-02062319033D

 54 53  0     1  0  0  0  0  0999 V2000
    2.6714    2.8829   -3.0005 C   0  0  0  0  0  0  0  0  0  0  0  0
    3.1741    2.4398   -1.9745 O   0  0  0  0  0  0  0  0  0  0  0  0
    3.5527    3.3077   -4.1279 C   0  0  0  0  0  0  0  0  0  0  0  0
    3.8407    4.3691   -4.0597 H   0  0  0  0  0  0  0  0  0  0  0  0
    4.5024    2.7495   -4.1526 H   0  0  0  0  0  0  0  0  0  0  0  0
    3.1208    3.1887   -5.1345 H   0  0  0  0  0  0  0  0  0  0  0  0
    1.3174    3.0407   -3.2467 N   0  0  0  0  0  0  0  0  0  0  0  0
    0.2944    2.6927   -2.2960 C   0  0  2  0  0  0  0  0  0  0  0  0
    0.2976    1.1783   -2.1349 C   0  0  0  0  0  0  0  0  0  0  0  0
    0.7500    0.4142   -2.9850 O   0  0  0  0  0  0  0  0  0  0  0  0
   -1.0710    3.1886   -2.7460 C   0  0  0  0  0  0  0  0  0  0  0  0
    1.0312    3.4224   -4.1464 H   0  0  0  0  0  0  0  0  0  0  0  0
    0.5725    3.1622   -1.3461 H   0  0  0  0  0  0  0  0  0  0  0  0
   -1.3666    2.7292   -3.6963 H   0  0  0  0  0  0  0  0  0  0  0  0
   -1.8434    2.9482   -2.0082 H   0  0  0  0  0  0  0  0  0  0  0  0
   -1.0632    4.2744   -2.8901 H   0  0  0  0  0  0  0  0  0  0  0  0
   -0.3037    0.7742   -0.9484 N   0  0  0  0  0  0  0  0  0  0  0  0
   -0.4245   -0.6089   -0.5662 C   0  0  2  0  0  0  0  0  0  0  0  0
   -1.2382   -1.3432   -1.6268 C   0  0  0  0  0  0  0  0  0  0  0  0
   -0.9296   -2.4516   -2.0600 O   0  0  0  0  0  0  0  0  0  0  0  0
   -1.0049   -0.7654    0.8443 C   0  0  0  0  0  0  0  0  0  0  0  0
   -0.0751   -0.2749    1.9619 C   0  0  0  0  0  0  0  0  0  0  0  0
   -0.7084   -0.4844    3.3393 C   0  0  0  0  0  0  0  0  0  0  0  0
    0.2058    0.0254    4.4436 C   0  0  0  0  0  0  0  0  0  0  0  0
   -0.4570   -0.1755    5.7545 N   0  3  0  0  0  0  0  0  0  0  0  0
   -0.6416    1.4811   -0.2988 H   0  0  0  0  0  0  0  0  0  0  0  0
    0.5945   -1.0142   -0.5806 H   0  0  0  0  0  0  0  0  0  0  0  0
   -1.9501   -0.2100    0.9013 H   0  0  0  0  0  0  0  0  0  0  0  0
   -1.2485   -1.8199    1.0235 H   0  0  0  0  0  0  0  0  0  0  0  0
    0.8786   -0.8137    1.9188 H   0  0  0  0  0  0  0  0  0  0  0  0
    0.1464    0.7899    1.8249 H   0  0  0  0  0  0  0  0  0  0  0  0
   -0.9144   -1.5514    3.4904 H   0  0  0  0  0  0  0  0  0  0  0  0
   -1.6721    0.0381    3.3838 H   0  0  0  0  0  0  0  0  0  0  0  0
    1.1517   -0.5232    4.4787 H   0  0  0  0  0  0  0  0  0  0  0  0
    0.4046    1.0971    4.3492 H   0  0  0  0  0  0  0  0  0  0  0  0
   -0.0456    0.4319    6.4716 H   0  0  0  0  0  0  0  0  0  0  0  0
   -0.3595   -1.1469    6.0703 H   0  0  0  0  0  0  0  0  0  0  0  0
   -1.4588    0.0384    5.6968 H   0  0  0  0  0  0  0  0  0  0  0  0
   -2.3666   -0.6325   -2.0097 N   0  0  0  0  0  0  0  0  0  0  0  0
   -3.2981   -1.1377   -2.9899 C   0  0  2  0  0  0  0  0  0  0  0  0
   -4.2151    0.0068   -3.4008 C   0  0  0  0  0  0  0  0  0  0  0  0
   -4.4093    0.9963   -2.6979 O   0  0  0  0  0  0  0  0  0  0  0  0
   -4.1006   -2.3065   -2.4397 C   0  0  0  0  0  0  0  0  0  0  0  0
   -2.5432    0.2736   -1.5860 H   0  0  0  0  0  0  0  0  0  0  0  0
   -2.7054   -1.4595   -3.8531 H   0  0  0  0  0  0  0  0  0  0  0  0
   -4.7010   -2.0032   -1.5742 H   0  0  0  0  0  0  0  0  0  0  0  0
   -4.7864   -2.7068   -3.1937 H   0  0  0  0  0  0  0  0  0  0  0  0
   -3.4379   -3.1167   -2.1171 H   0  0  0  0  0  0  0  0  0  0  0  0
   -4.8246   -0.2270   -4.6256 N   0  0  0  0  0  0  0  0  0  0  0  0
   -5.7496    0.7053   -5.2266 C   0  0  0  0  0  0  0  0  0  0  0  0
   -4.5904   -1.0658   -5.1483 H   0  0  0  0  0  0  0  0  0  0  0  0
   -6.7771    0.4435   -4.9339 H   0  0  0  0  0  0  0  0  0  0  0  0
   -5.5188    1.7242   -4.8823 H   0  0  0  0  0  0  0  0  0  0  0  0
   -5.6574    0.6587   -6.3217 H   0  0  0  0  0  0  0  0  0  0  0  0
  1  3  1  0  0  0  0
  1  7  1  0  0  0  0
  1  2  2  0  0  0  0
 40 41  1  0  0  0  0
 41 49  1  0  0  0  0
 41 42  2  0  0  0  0
  8  9  1  0  0  0  0
  9 17  1  0  0  0  0
  9 10  2  0  0  0  0
 18 19  1  0  0  0  0
 19 39  1  0  0  0  0
 19 20  2  0  0  0  0
 40 43  1  0  0  0  0
  8 11  1  0  0  0  0
 49 50  1  0  0  0  0
 22 23  1  0  0  0  0
 21 22  1  0  0  0  0
 23 24  1  0  0  0  0
 18 21  1  0  0  0  0
 24 25  1  0  0  0  0
 39 40  1  0  0  0  0
  7  8  1  0  0  0  0
 17 18  1  0  0  0  0
  3  4  1  0  0  0  0
  3  5  1  0  0  0  0
  3  6  1  0  0  0  0
 43 46  1  0  0  0  0
 43 47  1  0  0  0  0
 43 48  1  0  0  0  0
 11 14  1  0  0  0  0
 11 15  1  0  0  0  0
 11 16  1  0  0  0  0
 50 52  1  0  0  0  0
 50 53  1  0  0  0  0
 50 54  1  0  0  0  0
 22 30  1  0  0  0  0
 22 31  1  0  0  0  0
 23 32  1  0  0  0  0
 23 33  1  0  0  0  0
 21 28  1  0  0  0  0
 21 29  1  0  0  0  0
 24 34  1  0  0  0  0
 24 35  1  0  0  0  0
 40 45  1  0  0  0  0
  8 13  1  0  0  0  0
 18 27  1  0  0  0  0
 49 51  1  0  0  0  0
  7 12  1  0  0  0  0
 39 44  1  0  0  0  0
 17 26  1  0  0  0  0
 25 36  1  0  0  0  0
 25 37  1  0  0  0  0
 25 38  1  0  0  0  0
M  CHG  1  25   1
M  END
$$$$

  -OEChem-02062319033D

 54 53  0     1  0  0  0  0  0999 V2000
    2.6714    2.8829   -3.0005 C   0  0  0  0  0  0  0  0  0  0  0  0
    3.1741    2.4398   -1.9745 O   0  0  0  0  0  0  0  0  0  0  0  0
    3.5527    3.3077   -4.1279 C   0  0  0  0  0  0  0  0  0  0  0  0
    3.8407    4.3691   -4.0597 H   0  0  0  0  0  0  0  0  0  0  0  0
    4.5024    2.7495   -4.1526 H   0  0  0  0  0  0  0  0  0  0  0  0
    3.1208    3.1887   -5.1345 H   0  0  0  0  0  0  0  0  0  0  0  0
    1.3174    3.0407   -3.2467 N   0  0  0  0  0  0  0  0  0  0  0  0
    0.2944    2.6927   -2.2960 C   0  0  2  0  0  0  0  0  0  0  0  0
    0.2976    1.1783   -2.1349 C   0  0  0  0  0  0  0  0  0  0  0  0
    0.7500    0.4142   -2.9850 O   0  0  0  0  0  0  0  0  0  0  0  0
   -1.0710    3.1886   -2.7460 C   0  0  0  0  0  0  0  0  0  0  0  0
    1.0312    3.4224   -4.1464 H   0  0  0  0  0  0  0  0  0  0  0  0
    0.5725    3.1622   -1.3461 H   0  0  0  0  0  0  0  0  0  0  0  0
   -1.3666    2.7292   -3.6963 H   0  0  0  0  0  0  0  0  0  0  0  0
   -1.8434    2.9482   -2.0082 H   0  0  0  0  0  0  0  0  0  0  0  0
   -1.0632    4.2744   -2.8901 H   0  0  0  0  0  0  0  0  0  0  0  0
   -0.3037    0.7742   -0.9484 N   0  0  0  0  0  0  0  0  0  0  0  0
   -0.1551   -0.5534   -0.4108 C   0  0  2  0  0  0  0  0  0  0  0  0
   -0.6941   -1.5578   -1.4242 C   0  0  0  0  0  0  0  0  0  0  0  0
   -0.1159   -2.6070   -1.7006 O   0  0  0  0  0  0  0  0  0  0  0  0
   -0.8094   -0.6898    0.9691 C   0  0  0  0  0  0  0  0  0  0  0  0
   -0.1097    0.1104    2.0756 C   0  0  0  0  0  0  0  0  0  0  0  0
   -0.8010   -0.0926    3.4258 C   0  0  0  0  0  0  0  0  0  0  0  0
   -0.1195    0.7215    4.5157 C   0  0  0  0  0  0  0  0  0  0  0  0
   -0.8356    0.5133    5.7972 N   0  3  0  0  0  0  0  0  0  0  0  0
   -0.8424    1.4502   -0.4111 H   0  0  0  0  0  0  0  0  0  0  0  0
    0.9247   -0.7181   -0.3125 H   0  0  0  0  0  0  0  0  0  0  0  0
   -1.8537   -0.3586    0.8995 H   0  0  0  0  0  0  0  0  0  0  0  0
   -0.8335   -1.7477    1.2584 H   0  0  0  0  0  0  0  0  0  0  0  0
    0.9381   -0.2012    2.1575 H   0  0  0  0  0  0  0  0  0  0  0  0
   -0.1129    1.1778    1.8255 H   0  0  0  0  0  0  0  0  0  0  0  0
   -0.7834   -1.1571    3.6910 H   0  0  0  0  0  0  0  0  0  0  0  0
   -1.8551    0.2013    3.3466 H   0  0  0  0  0  0  0  0  0  0  0  0
    0.9159    0.4066    4.6759 H   0  0  0  0  0  0  0  0  0  0  0  0
   -0.1501    1.7947    4.3057 H   0  0  0  0  0  0  0  0  0  0  0  0
   -0.6301    1.2685    6.4604 H   0  0  0  0  0  0  0  0  0  0  0  0
   -0.5581   -0.3732    6.2331 H   0  0  0  0  0  0  0  0  0  0  0  0
   -1.8509    0.4889    5.6515 H   0  0  0  0  0  0  0  0  0  0  0  0
   -1.9116   -1.1630   -1.9597 N   0  0  0  0  0  0  0  0  0  0  0  0
   -2.6218   -1.9636   -2.9284 C   0  0  2  0  0  0  0  0  0  0  0  0
   -3.7252   -1.1039   -3.5308 C   0  0  0  0  0  0  0  0  0  0  0  0
   -4.1900   -0.1162   -2.9656 O   0  0  0  0  0  0  0  0  0  0  0  0
   -3.1971   -3.2197   -2.2929 C   0  0  0  0  0  0  0  0  0  0  0  0
   -2.3167   -0.2811   -1.6602 H   0  0  0  0  0  0  0  0  0  0  0  0
   -1.8999   -2.2312   -3.7077 H   0  0  0  0  0  0  0  0  0  0  0  0
   -3.9225   -2.9716   -1.5095 H   0  0  0  0  0  0  0  0  0  0  0  0
   -3.7110   -3.8400   -3.0347 H   0  0  0  0  0  0  0  0  0  0  0  0
   -2.4056   -3.8220   -1.8342 H   0  0  0  0  0  0  0  0  0  0  0  0
   -4.1597   -1.5943   -4.7543 N   0  0  0  0  0  0  0  0  0  0  0  0
   -5.2082   -0.9616   -5.5199 C   0  0  0  0  0  0  0  0  0  0  0  0
   -3.7043   -2.4083   -5.1565 H   0  0  0  0  0  0  0  0  0  0  0  0
   -6.1762   -1.4164   -5.2627 H   0  0  0  0  0  0  0  0  0  0  0  0
   -5.2347    0.1131   -5.2870 H   0  0  0  0  0  0  0  0  0  0  0  0
   -5.0122   -1.0993   -6.5935 H   0  0  0  0  0  0  0  0  0  0  0  0
  1  3  1  0  0  0  0
  1  7  1  0  0  0  0
  1  2  2  0  0  0  0
 40 41  1  0  0  0  0
 41 49  1  0  0  0  0
 41 42  2  0  0  0  0
  8  9  1  0  0  0  0
  9 17  1  0  0  0  0
  9 10  2  0  0  0  0
 18 19  1  0  0  0  0
 19 39  1  0  0  0  0
 19 20  2  0  0  0  0
 40 43  1  0  0  0  0
  8 11  1  0  0  0  0
 49 50  1  0  0  0  0
 22 23  1  0  0  0  0
 21 22  1  0  0  0  0
 23 24  1  0  0  0  0
 18 21  1  0  0  0  0
 24 25  1  0  0  0  0
 39 40  1  0  0  0  0
  7  8  1  0  0  0  0
 17 18  1  0  0  0  0
  3  4  1  0  0  0  0
  3  5  1  0  0  0  0
  3  6  1  0  0  0  0
 43 46  1  0  0  0  0
 43 47  1  0  0  0  0
 43 48  1  0  0  0  0
 11 14  1  0  0  0  0
 11 15  1  0  0  0  0
 11 16  1  0  0  0  0
 50 52  1  0  0  0  0
 50 53  1  0  0  0  0
 50 54  1  0  0  0  0
 22 30  1  0  0  0  0
 22 31  1  0  0  0  0
 23 32  1  0  0  0  0
 23 33  1  0  0  0  0
 21 28  1  0  0  0  0
 21 29  1  0  0  0  0
 24 34  1  0  0  0  0
 24 35  1  0  0  0  0
 40 45  1  0  0  0  0
  8 13  1  0  0  0  0
 18 27  1  0  0  0  0
 49 51  1  0  0  0  0
  7 12  1  0  0  0  0
 39 44  1  0  0  0  0
 17 26  1  0  0  0  0
 25 36  1  0  0  0  0
 25 37  1  0  0  0  0
 25 38  1  0  0  0  0
M  CHG  1  25   1
M  END
$$$$

  -OEChem-02062319033D

 54 53  0     1  0  0  0  0  0999 V2000
    2.6714    2.8829   -3.0005 C   0  0  0  0  0  0  0  0  0  0  0  0
    3.1741    2.4398   -1.9745 O   0  0  0  0  0  0  0  0  0  0  0  0
    3.5527    3.3077   -4.1279 C   0  0  0  0  0  0  0  0  0  0  0  0
    3.8407    4.3691   -4.0597 H   0  0  0  0  0  0  0  0  0  0  0  0
    4.5024    2.7495   -4.1526 H   0  0  0  0  0  0  0  0  0  0  0  0
    3.1208    3.1887   -5.1345 H   0  0  0  0  0  0  0  0  0  0  0  0
    1.3174    3.0407   -3.2467 N   0  0  0  0  0  0  0  0  0  0  0  0
    0.2944    2.6927   -2.2960 C   0  0  2  0  0  0  0  0  0  0  0  0
    0.2976    1.1783   -2.1349 C   0  0  0  0  0  0  0  0  0  0  0  0
    0.7500    0.4142   -2.9850 O   0  0  0  0  0  0  0  0  0  0  0  0
   -1.0710    3.1886   -2.7460 C   0  0  0  0  0  0  0  0  0  0  0  0
    1.0312    3.4224   -4.1464 H   0  0  0  0  0  0  0  0  0  0  0  0
    0.5725    3.1622   -1.3461 H   0  0  0  0  0  0  0  0  0  0  0  0
   -1.3666    2.7292   -3.6963 H   0  0  0  0  0  0  0  0  0  0  0  0
   -1.8434    2.9482   -2.0082 H   0  0  0  0  0  0  0  0  0  0  0  0
   -1.0632    4.2744   -2.8901 H   0  0  0  0  0  0  0  0  0  0  0  0
   -0.3037    0.7742   -0.9484 N   0  0  0  0  0  0  0  0  0  0  0  0
    0.0812   -0.4229   -0.2466 C   0  0  2  0  0  0  0  0  0  0  0  0
   -0.1363   -1.6222   -1.1635 C   0  0  0  0  0  0  0  0  0  0  0  0
    0.6774   -2.5371   -1.2748 O   0  0  0  0  0  0  0  0  0  0  0  0
   -0.6466   -0.5596    1.0959 C   0  0  0  0  0  0  0  0  0  0  0  0
   -0.2368    0.4877    2.1396 C   0  0  0  0  0  0  0  0  0  0  0  0
   -0.9836    0.2751    3.4585 C   0  0  0  0  0  0  0  0  0  0  0  0
   -0.5930    1.3300    4.4831 C   0  0  0  0  0  0  0  0  0  0  0  0
   -1.3566    1.0997    5.7329 N   0  3  0  0  0  0  0  0  0  0  0  0
   -1.0210    1.3634   -0.5312 H   0  0  0  0  0  0  0  0  0  0  0  0
    1.1581   -0.3291   -0.0617 H   0  0  0  0  0  0  0  0  0  0  0  0
   -1.7276   -0.4811    0.9217 H   0  0  0  0  0  0  0  0  0  0  0  0
   -0.4663   -1.5600    1.5084 H   0  0  0  0  0  0  0  0  0  0  0  0
    0.8422    0.4303    2.3240 H   0  0  0  0  0  0  0  0  0  0  0  0
   -0.4492    1.4952    1.7632 H   0  0  0  0  0  0  0  0  0  0  0  0
   -0.7592   -0.7248    3.8506 H   0  0  0  0  0  0  0  0  0  0  0  0
   -2.0651    0.3142    3.2786 H   0  0  0  0  0  0  0  0  0  0  0  0
    0.4679    1.2747    4.7445 H   0  0  0  0  0  0  0  0  0  0  0  0
   -0.8368    2.3412    4.1439 H   0  0  0  0  0  0  0  0  0  0  0  0
   -1.3787    1.9463    6.3118 H   0  0  0  0  0  0  0  0  0  0  0  0
   -0.9331    0.3485    6.2889 H   0  0  0  0  0  0  0  0  0  0  0  0
   -2.3257    0.8324    5.5278 H   0  0  0  0  0  0  0  0  0  0  0  0
   -1.3586   -1.5693   -1.8179 N   0  0  0  0  0  0  0  0  0  0  0  0
   -1.7906   -2.6051   -2.7257 C   0  0  2  0  0  0  0  0  0  0  0  0
   -2.9968   -2.0830   -3.4952 C   0  0  0  0  0  0  0  0  0  0  0  0
   -3.7124   -1.1723   -3.0833 O   0  0  0  0  0  0  0  0  0  0  0  0
   -2.1338   -3.8858   -1.9809 C   0  0  0  0  0  0  0  0  0  0  0  0
   -1.9698   -0.7751   -1.6527 H   0  0  0  0  0  0  0  0  0  0  0  0
   -0.9624   -2.7825   -3.4204 H   0  0  0  0  0  0  0  0  0  0  0  0
   -2.9616   -3.7277   -1.2801 H   0  0  0  0  0  0  0  0  0  0  0  0
   -2.4339   -4.6792   -2.6734 H   0  0  0  0  0  0  0  0  0  0  0  0
   -1.2739   -4.2436   -1.4043 H   0  0  0  0  0  0  0  0  0  0  0  0
   -3.2056   -2.7826   -4.6755 N   0  0  0  0  0  0  0  0  0  0  0  0
   -4.2949   -2.4850   -5.5759 C   0  0  0  0  0  0  0  0  0  0  0  0
   -2.5512   -3.5103   -4.9475 H   0  0  0  0  0  0  0  0  0  0  0  0
   -5.1602   -3.1169   -5.3270 H   0  0  0  0  0  0  0  0  0  0  0  0
   -4.5739   -1.4256   -5.4762 H   0  0  0  0  0  0  0  0  0  0  0  0
   -3.9803   -2.6854   -6.6107 H   0  0  0  0  0  0  0  0  0  0  0  0
  1  3  1  0  0  0  0
  1  7  1  0  0  0  0
  1  2  2  0  0  0  0
 40 41  1  0  0  0  0
 41 49  1  0  0  0  0
 41 42  2  0  0  0  0
  8  9  1  0  0  0  0
  9 17  1  0  0  0  0
  9 10  2  0  0  0  0
 18 19  1  0  0  0  0
 19 39  1  0  0  0  0
 19 20  2  0  0  0  0
 40 43  1  0  0  0  0
  8 11  1  0  0  0  0
 49 50  1  0  0  0  0
 22 23  1  0  0  0  0
 21 22  1  0  0  0  0
 23 24  1  0  0  0  0
 18 21  1  0  0  0  0
 24 25  1  0  0  0  0
 39 40  1  0  0  0  0
  7  8  1  0  0  0  0
 17 18  1  0  0  0  0
  3  4  1  0  0  0  0
  3  5  1  0  0  0  0
  3  6  1  0  0  0  0
 43 46  1  0  0  0  0
 43 47  1  0  0  0  0
 43 48  1  0  0  0  0
 11 14  1  0  0  0  0
 11 15  1  0  0  0  0
 11 16  1  0  0  0  0
 50 52  1  0  0  0  0
 50 53  1  0  0  0  0
 50 54  1  0  0  0  0
 22 30  1  0  0  0  0
 22 31  1  0  0  0  0
 23 32  1  0  0  0  0
 23 33  1  0  0  0  0
 21 28  1  0  0  0  0
 21 29  1  0  0  0  0
 24 34  1  0  0  0  0
 24 35  1  0  0  0  0
 40 45  1  0  0  0  0
  8 13  1  0  0  0  0
 18 27  1  0  0  0  0
 49 51  1  0  0  0  0
  7 12  1  0  0  0  0
 39 44  1  0  0  0  0
 17 26  1  0  0  0  0
 25 36  1  0  0  0  0
 25 37  1  0  0  0  0
 25 38  1  0  0  0  0
M  CHG  1  25   1
M  END
$$$$

  -OEChem-02062319033D

 54 53  0     1  0  0  0  0  0999 V2000
    2.6714    2.8829   -3.0005 C   0  0  0  0  0  0  0  0  0  0  0  0
    3.1741    2.4398   -1.9745 O   0  0  0  0  0  0  0  0  0  0  0  0
    3.5527    3.3077   -4.1279 C   0  0  0  0  0  0  0  0  0  0  0  0
    3.8407    4.3691   -4.0597 H   0  0  0  0  0  0  0  0  0  0  0  0
    4.5024    2.7495   -4.1526 H   0  0  0  0  0  0  0  0  0  0  0  0
    3.1208    3.1887   -5.1345 H   0  0  0  0  0  0  0  0  0  0  0  0
    1.3174    3.0407   -3.2467 N   0  0  0  0  0  0  0  0  0  0  0  0
    0.2944    2.6927   -2.2960 C   0  0  2  0  0  0  0  0  0  0  0  0
    0.2976    1.1783   -2.1349 C   0  0  0  0  0  0  0  0  0  0  0  0
    0.7500    0.4142   -2.9850 O   0  0  0  0  0  0  0  0  0  0  0  0
   -1.0710    3.1886   -2.7460 C   0  0  0  0  0  0  0  0  0  0  0  0
    1.0312    3.4224   -4.1464 H   0  0  0  0  0  0  0  0  0  0  0  0
    0.5725    3.1622   -1.3461 H   0  0  0  0  0  0  0  0  0  0  0  0
   -1.3666    2.7292   -3.6963 H   0  0  0  0  0  0  0  0  0  0  0  0
   -1.8434    2.9482   -2.0082 H   0  0  0  0  0  0  0  0  0  0  0  0
   -1.0632    4.2744   -2.8901 H   0  0  0  0  0  0  0  0  0  0  0  0
   -0.3037    0.7742   -0.9484 N   0  0  0  0  0  0  0  0  0  0  0  0
    0.2682   -0.2263   -0.0849 C   0  0  2  0  0  0  0  0  0  0  0  0
    0.3970   -1.5320   -0.8625 C   0  0  0  0  0  0  0  0  0  0  0  0
    1.3962   -2.2466   -0.8117 O   0  0  0  0  0  0  0  0  0  0  0  0
   -0.5277   -0.3836    1.2161 C   0  0  0  0  0  0  0  0  0  0  0  0
   -0.4478    0.8313    2.1498 C   0  0  0  0  0  0  0  0  0  0  0  0
   -1.2436    0.5936    3.4353 C   0  0  0  0  0  0  0  0  0  0  0  0
   -1.1823    1.8096    4.3478 C   0  0  0  0  0  0  0  0  0  0  0  0
   -1.9846    1.5438    5.5660 N   0  3  0  0  0  0  0  0  0  0  0  0
   -1.1654    1.2266   -0.6509 H   0  0  0  0  0  0  0  0  0  0  0  0
    1.2788    0.1262    0.1545 H   0  0  0  0  0  0  0  0  0  0  0  0
   -1.5804   -0.5690    0.9663 H   0  0  0  0  0  0  0  0  0  0  0  0
   -0.1719   -1.2696    1.7565 H   0  0  0  0  0  0  0  0  0  0  0  0
    0.5977    1.0377    2.4070 H   0  0  0  0  0  0  0  0  0  0  0  0
   -0.8395    1.7205    1.6422 H   0  0  0  0  0  0  0  0  0  0  0  0
   -0.8432   -0.2840    3.9581 H   0  0  0  0  0  0  0  0  0  0  0  0
   -2.2879    0.3694    3.1846 H   0  0  0  0  0  0  0  0  0  0  0  0
   -0.1617    2.0220    4.6799 H   0  0  0  0  0  0  0  0  0  0  0  0
   -1.6086    2.6992    3.8747 H   0  0  0  0  0  0  0  0  0  0  0  0
   -2.2403    2.4190    6.0362 H   0  0  0  0  0  0  0  0  0  0  0  0
   -1.4589    0.9689    6.2337 H   0  0  0  0  0  0  0  0  0  0  0  0
   -2.8510    1.0454    5.3342 H   0  0  0  0  0  0  0  0  0  0  0  0
   -0.7454   -1.8237   -1.5938 N   0  0  0  0  0  0  0  0  0  0  0  0
   -0.8613   -3.0184   -2.3956 C   0  0  2  0  0  0  0  0  0  0  0  0
   -2.0796   -2.8639   -3.2964 C   0  0  0  0  0  0  0  0  0  0  0  0
   -3.0088   -2.1001   -3.0427 O   0  0  0  0  0  0  0  0  0  0  0  0
   -0.9829   -4.2594   -1.5250 C   0  0  0  0  0  0  0  0  0  0  0  0
   -1.5262   -1.1749   -1.5640 H   0  0  0  0  0  0  0  0  0  0  0  0
    0.0434   -3.0756   -3.0106 H   0  0  0  0  0  0  0  0  0  0  0  0
   -1.8836   -4.2201   -0.9016 H   0  0  0  0  0  0  0  0  0  0  0  0
   -1.0421   -5.1673   -2.1343 H   0  0  0  0  0  0  0  0  0  0  0  0
   -0.1201   -4.3528   -0.8568 H   0  0  0  0  0  0  0  0  0  0  0  0
   -2.0275   -3.7108   -4.3946 N   0  0  0  0  0  0  0  0  0  0  0  0
   -3.0720   -3.7609   -5.3908 C   0  0  0  0  0  0  0  0  0  0  0  0
   -1.2097   -4.2966   -4.5355 H   0  0  0  0  0  0  0  0  0  0  0  0
   -3.7983   -4.5422   -5.1223 H   0  0  0  0  0  0  0  0  0  0  0  0
   -3.5815   -2.7871   -5.4370 H   0  0  0  0  0  0  0  0  0  0  0  0
   -2.6318   -3.9913   -6.3722 H   0  0  0  0  0  0  0  0  0  0  0  0
  1  3  1  0  0  0  0
  1  7  1  0  0  0  0
  1  2  2  0  0  0  0
 40 41  1  0  0  0  0
 41 49  1  0  0  0  0
 41 42  2  0  0  0  0
  8  9  1  0  0  0  0
  9 17  1  0  0  0  0
  9 10  2  0  0  0  0
 18 19  1  0  0  0  0
 19 39  1  0  0  0  0
 19 20  2  0  0  0  0
 40 43  1  0  0  0  0
  8 11  1  0  0  0  0
 49 50  1  0  0  0  0
 22 23  1  0  0  0  0
 21 22  1  0  0  0  0
 23 24  1  0  0  0  0
 18 21  1  0  0  0  0
 24 25  1  0  0  0  0
 39 40  1  0  0  0  0
  7  8  1  0  0  0  0
 17 18  1  0  0  0  0
  3  4  1  0  0  0  0
  3  5  1  0  0  0  0
  3  6  1  0  0  0  0
 43 46  1  0  0  0  0
 43 47  1  0  0  0  0
 43 48  1  0  0  0  0
 11 14  1  0  0  0  0
 11 15  1  0  0  0  0
 11 16  1  0  0  0  0
 50 52  1  0  0  0  0
 50 53  1  0  0  0  0
 50 54  1  0  0  0  0
 22 30  1  0  0  0  0
 22 31  1  0  0  0  0
 23 32  1  0  0  0  0
 23 33  1  0  0  0  0
 21 28  1  0  0  0  0
 21 29  1  0  0  0  0
 24 34  1  0  0  0  0
 24 35  1  0  0  0  0
 40 45  1  0  0  0  0
  8 13  1  0  0  0  0
 18 27  1  0  0  0  0
 49 51  1  0  0  0  0
  7 12  1  0  0  0  0
 39 44  1  0  0  0  0
 17 26  1  0  0  0  0
 25 36  1  0  0  0  0
 25 37  1  0  0  0  0
 25 38  1  0  0  0  0
M  CHG  1  25   1
M  END
$$$$

  -OEChem-02062319033D

 54 53  0     1  0  0  0  0  0999 V2000
    2.6714    2.8829   -3.0005 C   0  0  0  0  0  0  0  0  0  0  0  0
    3.1741    2.4398   -1.9745 O   0  0  0  0  0  0  0  0  0  0  0  0
    3.5527    3.3077   -4.1279 C   0  0  0  0  0  0  0  0  0  0  0  0
    3.8407    4.3691   -4.0597 H   0  0  0  0  0  0  0  0  0  0  0  0
    4.5024    2.7495   -4.1526 H   0  0  0  0  0  0  0  0  0  0  0  0
    3.1208    3.1887   -5.1345 H   0  0  0  0  0  0  0  0  0  0  0  0
    1.3174    3.0407   -3.2467 N   0  0  0  0  0  0  0  0  0  0  0  0
    0.2944    2.6927   -2.2960 C   0  0  2  0  0  0  0  0  0  0  0  0
    0.2976    1.1783   -2.1349 C   0  0  0  0  0  0  0  0  0  0  0  0
    0.7500    0.4142   -2.9850 O   0  0  0  0  0  0  0  0  0  0  0  0
   -1.0710    3.1886   -2.7460 C   0  0  0  0  0  0  0  0  0  0  0  0
    1.0312    3.4224   -4.1464 H   0  0  0  0  0  0  0  0  0  0  0  0
    0.5725    3.1622   -1.3461 H   0  0  0  0  0  0  0  0  0  0  0  0
   -1.3666    2.7292   -3.6963 H   0  0  0  0  0  0  0  0  0  0  0  0
   -1.8434    2.9482   -2.0082 H   0  0  0  0  0  0  0  0  0  0  0  0
   -1.0632    4.2744   -2.8901 H   0  0  0  0  0  0  0  0  0  0  0  0
   -0.3037    0.7742   -0.9484 N   0  0  0  0  0  0  0  0  0  0  0  0
    0.3933    0.0230    0.0634 C   0  0  2  0  0  0  0  0  0  0  0  0
    0.8697   -1.2934   -0.5418 C   0  0  0  0  0  0  0  0  0  0  0  0
    1.9915   -1.7555   -0.3428 O   0  0  0  0  0  0  0  0  0  0  0  0
   -0.4607   -0.1740    1.3215 C   0  0  0  0  0  0  0  0  0  0  0  0
   -0.7282    1.1177    2.1052 C   0  0  0  0  0  0  0  0  0  0  0  0
   -1.5633    0.8412    3.3576 C   0  0  0  0  0  0  0  0  0  0  0  0
   -1.8473    2.1275    4.1191 C   0  0  0  0  0  0  0  0  0  0  0  0
   -2.6768    1.8154    5.3077 N   0  3  0  0  0  0  0  0  0  0  0  0
   -1.2657    1.0493   -0.7621 H   0  0  0  0  0  0  0  0  0  0  0  0
    1.2785    0.6169    0.3214 H   0  0  0  0  0  0  0  0  0  0  0  0
   -1.4222   -0.6165    1.0303 H   0  0  0  0  0  0  0  0  0  0  0  0
    0.0297   -0.8962    1.9858 H   0  0  0  0  0  0  0  0  0  0  0  0
    0.2210    1.5796    2.4007 H   0  0  0  0  0  0  0  0  0  0  0  0
   -1.2571    1.8385    1.4707 H   0  0  0  0  0  0  0  0  0  0  0  0
   -1.0299    0.1353    4.0063 H   0  0  0  0  0  0  0  0  0  0  0  0
   -2.5081    0.3629    3.0707 H   0  0  0  0  0  0  0  0  0  0  0  0
   -0.9302    2.5974    4.4865 H   0  0  0  0  0  0  0  0  0  0  0  0
   -2.4129    2.8444    3.5166 H   0  0  0  0  0  0  0  0  0  0  0  0
   -3.1562    2.6544    5.6522 H   0  0  0  0  0  0  0  0  0  0  0  0
   -2.0997    1.4460    6.0715 H   0  0  0  0  0  0  0  0  0  0  0  0
   -3.3908    1.1135    5.0839 H   0  0  0  0  0  0  0  0  0  0  0  0
   -0.1137   -1.9089   -1.3027 N   0  0  0  0  0  0  0  0  0  0  0  0
    0.1027   -3.1755   -1.9605 C   0  0  2  0  0  0  0  0  0  0  0  0
   -1.0362   -3.3933   -2.9479 C   0  0  0  0  0  0  0  0  0  0  0  0
   -2.1274   -2.8364   -2.8468 O   0  0  0  0  0  0  0  0  0  0  0  0
    0.1769   -4.3150   -0.9562 C   0  0  0  0  0  0  0  0  0  0  0  0
   -1.0161   -1.4531   -1.4002 H   0  0  0  0  0  0  0  0  0  0  0  0
    1.0488   -3.0908   -2.5063 H   0  0  0  0  0  0  0  0  0  0  0  0
   -0.7621   -4.4153   -0.3997 H   0  0  0  0  0  0  0  0  0  0  0  0
    0.3696   -5.2710   -1.4543 H   0  0  0  0  0  0  0  0  0  0  0  0
    0.9774   -4.1420   -0.2289 H   0  0  0  0  0  0  0  0  0  0  0  0
   -0.7056   -4.3157   -3.9308 N   0  0  0  0  0  0  0  0  0  0  0  0
   -1.6228   -4.7026   -4.9772 C   0  0  0  0  0  0  0  0  0  0  0  0
    0.2288   -4.7137   -3.9486 H   0  0  0  0  0  0  0  0  0  0  0  0
   -2.1833   -5.5953   -4.6626 H   0  0  0  0  0  0  0  0  0  0  0  0
   -2.3251   -3.8787   -5.1721 H   0  0  0  0  0  0  0  0  0  0  0  0
   -1.0588   -4.9282   -5.8942 H   0  0  0  0  0  0  0  0  0  0  0  0
  1  3  1  0  0  0  0
  1  7  1  0  0  0  0
  1  2  2  0  0  0  0
 40 41  1  0  0  0  0
 41 49  1  0  0  0  0
 41 42  2  0  0  0  0
  8  9  1  0  0  0  0
  9 17  1  0  0  0  0
  9 10  2  0  0  0  0
 18 19  1  0  0  0  0
 19 39  1  0  0  0  0
 19 20  2  0  0  0  0
 40 43  1  0  0  0  0
  8 11  1  0  0  0  0
 49 50  1  0  0  0  0
 22 23  1  0  0  0  0
 21 22  1  0  0  0  0
 23 24  1  0  0  0  0
 18 21  1  0  0  0  0
 24 25  1  0  0  0  0
 39 40  1  0  0  0  0
  7  8  1  0  0  0  0
 17 18  1  0  0  0  0
  3  4  1  0  0  0  0
  3  5  1  0  0  0  0
  3  6  1  0  0  0  0
 43 46  1  0  0  0  0
 43 47  1  0  0  0  0
 43 48  1  0  0  0  0
 11 14  1  0  0  0  0
 11 15  1  0  0  0  0
 11 16  1  0  0  0  0
 50 52  1  0  0  0  0
 50 53  1  0  0  0  0
 50 54  1  0  0  0  0
 22 30  1  0  0  0  0
 22 31  1  0  0  0  0
 23 32  1  0  0  0  0
 23 33  1  0  0  0  0
 21 28  1  0  0  0  0
 21 29  1  0  0  0  0
 24 34  1  0  0  0  0
 24 35  1  0  0  0  0
 40 45  1  0  0  0  0
  8 13  1  0  0  0  0
 18 27  1  0  0  0  0
 49 51  1  0  0  0  0
  7 12  1  0  0  0  0
 39 44  1  0  0  0  0
 17 26  1  0  0  0  0
 25 36  1  0  0  0  0
 25 37  1  0  0  0  0
 25 38  1  0  0  0  0
M  CHG  1  25   1
M  END
$$$$

  -OEChem-02062319033D

 54 53  0     1  0  0  0  0  0999 V2000
    2.6714    2.8829   -3.0005 C   0  0  0  0  0  0  0  0  0  0  0  0
    3.1741    2.4398   -1.9745 O   0  0  0  0  0  0  0  0  0  0  0  0
    3.5527    3.3077   -4.1279 C   0  0  0  0  0  0  0  0  0  0  0  0
    3.8407    4.3691   -4.0597 H   0  0  0  0  0  0  0  0  0  0  0  0
    4.5024    2.7495   -4.1526 H   0  0  0  0  0  0  0  0  0  0  0  0
    3.1208    3.1887   -5.1345 H   0  0  0  0  0  0  0  0  0  0  0  0
    1.3174    3.0407   -3.2467 N   0  0  0  0  0  0  0  0  0  0  0  0
    0.2944    2.6927   -2.2960 C   0  0  2  0  0  0  0  0  0  0  0  0
    0.2976    1.1783   -2.1349 C   0  0  0  0  0  0  0  0  0  0  0  0
    0.7500    0.4142   -2.9850 O   0  0  0  0  0  0  0  0  0  0  0  0
   -1.0710    3.1886   -2.7460 C   0  0  0  0  0  0  0  0  0  0  0  0
    1.0312    3.4224   -4.1464 H   0  0  0  0  0  0  0  0  0  0  0  0
    0.5725    3.1622   -1.3461 H   0  0  0  0  0  0  0  0  0  0  0  0
   -1.3666    2.7292   -3.6963 H   0  0  0  0  0  0  0  0  0  0  0  0
   -1.8434    2.9482   -2.0082 H   0  0  0  0  0  0  0  0  0  0  0  0
   -1.0632    4.2744   -2.8901 H   0  0  0  0  0  0  0  0  0  0  0  0
   -0.3037    0.7742   -0.9484 N   0  0  0  0  0  0  0  0  0  0  0  0
    0.4479    0.3081    0.1881 C   0  0  2  0  0  0  0  0  0  0  0  0
    1.2494   -0.9226   -0.2231 C   0  0  0  0  0  0  0  0  0  0  0  0
    2.4227   -1.0971    0.1000 O   0  0  0  0  0  0  0  0  0  0  0  0
   -0.4503    0.0551    1.4048 C   0  0  0  0  0  0  0  0  0  0  0  0
   -1.0589    1.3273    2.0090 C   0  0  0  0  0  0  0  0  0  0  0  0
   -1.9210    1.0011    3.2307 C   0  0  0  0  0  0  0  0  0  0  0  0
   -2.5426    2.2621    3.8126 C   0  0  0  0  0  0  0  0  0  0  0  0
   -3.3859    1.8959    4.9758 N   0  3  0  0  0  0  0  0  0  0  0  0
   -1.3150    0.8433   -0.8572 H   0  0  0  0  0  0  0  0  0  0  0  0
    1.1572    1.1095    0.4277 H   0  0  0  0  0  0  0  0  0  0  0  0
   -1.2637   -0.6203    1.1094 H   0  0  0  0  0  0  0  0  0  0  0  0
    0.1246   -0.4654    2.1806 H   0  0  0  0  0  0  0  0  0  0  0  0
   -0.2621    2.0192    2.3056 H   0  0  0  0  0  0  0  0  0  0  0  0
   -1.6736    1.8409    1.2605 H   0  0  0  0  0  0  0  0  0  0  0  0
   -1.3064    0.5044    3.9919 H   0  0  0  0  0  0  0  0  0  0  0  0
   -2.7108    0.2952    2.9450 H   0  0  0  0  0  0  0  0  0  0  0  0
   -1.7850    2.9619    4.1775 H   0  0  0  0  0  0  0  0  0  0  0  0
   -3.1950    2.7669    3.0939 H   0  0  0  0  0  0  0  0  0  0  0  0
   -4.0641    2.6364    5.1861 H   0  0  0  0  0  0  0  0  0  0  0  0
   -2.8118    1.7470    5.8131 H   0  0  0  0  0  0  0  0  0  0  0  0
   -3.9085    1.0320    4.7938 H   0  0  0  0  0  0  0  0  0  0  0  0
    0.4934   -1.8191   -0.9645 N   0  0  0  0  0  0  0  0  0  0  0  0
    1.0359   -3.0655   -1.4502 C   0  0  2  0  0  0  0  0  0  0  0  0
    0.0625   -3.6352   -2.4736 C   0  0  0  0  0  0  0  0  0  0  0  0
   -1.1280   -3.3308   -2.5088 O   0  0  0  0  0  0  0  0  0  0  0  0
    1.2667   -4.0489   -0.3134 C   0  0  0  0  0  0  0  0  0  0  0  0
   -0.4742   -1.5908   -1.1726 H   0  0  0  0  0  0  0  0  0  0  0  0
    1.9854   -2.8269   -1.9418 H   0  0  0  0  0  0  0  0  0  0  0  0
    0.3266   -4.2999    0.1912 H   0  0  0  0  0  0  0  0  0  0  0  0
    1.7048   -4.9831   -0.6797 H   0  0  0  0  0  0  0  0  0  0  0  0
    1.9437   -3.6257    0.4366 H   0  0  0  0  0  0  0  0  0  0  0  0
    0.6700   -4.5560   -3.3156 N   0  0  0  0  0  0  0  0  0  0  0  0
   -0.0462   -5.2457   -4.3632 C   0  0  0  0  0  0  0  0  0  0  0  0
    1.6663   -4.7330   -3.2268 H   0  0  0  0  0  0  0  0  0  0  0  0
   -0.4254   -6.2042   -3.9792 H   0  0  0  0  0  0  0  0  0  0  0  0
   -0.8904   -4.6258   -4.6995 H   0  0  0  0  0  0  0  0  0  0  0  0
    0.6317   -5.4322   -5.2092 H   0  0  0  0  0  0  0  0  0  0  0  0
  1  3  1  0  0  0  0
  1  7  1  0  0  0  0
  1  2  2  0  0  0  0
 40 41  1  0  0  0  0
 41 49  1  0  0  0  0
 41 42  2  0  0  0  0
  8  9  1  0  0  0  0
  9 17  1  0  0  0  0
  9 10  2  0  0  0  0
 18 19  1  0  0  0  0
 19 39  1  0  0  0  0
 19 20  2  0  0  0  0
 40 43  1  0  0  0  0
  8 11  1  0  0  0  0
 49 50  1  0  0  0  0
 22 23  1  0  0  0  0
 21 22  1  0  0  0  0
 23 24  1  0  0  0  0
 18 21  1  0  0  0  0
 24 25  1  0  0  0  0
 39 40  1  0  0  0  0
  7  8  1  0  0  0  0
 17 18  1  0  0  0  0
  3  4  1  0  0  0  0
  3  5  1  0  0  0  0
  3  6  1  0  0  0  0
 43 46  1  0  0  0  0
 43 47  1  0  0  0  0
 43 48  1  0  0  0  0
 11 14  1  0  0  0  0
 11 15  1  0  0  0  0
 11 16  1  0  0  0  0
 50 52  1  0  0  0  0
 50 53  1  0  0  0  0
 50 54  1  0  0  0  0
 22 30  1  0  0  0  0
 22 31  1  0  0  0  0
 23 32  1  0  0  0  0
 23 33  1  0  0  0  0
 21 28  1  0  0  0  0
 21 29  1  0  0  0  0
 24 34  1  0  0  0  0
 24 35  1  0  0  0  0
 40 45  1  0  0  0  0
  8 13  1  0  0  0  0
 18 27  1  0  0  0  0
 49 51  1  0  0  0  0
  7 12  1  0  0  0  0
 39 44  1  0  0  0  0
 17 26  1  0  0  0  0
 25 36  1  0  0  0  0
 25 37  1  0  0  0  0
 25 38  1  0  0  0  0
M  CHG  1  25   1
M  END
$$$$

  -OEChem-02062319033D

 54 53  0     1  0  0  0  0  0999 V2000
    2.6714    2.8829   -3.0005 C   0  0  0  0  0  0  0  0  0  0  0  0
    3.1741    2.4398   -1.9745 O   0  0  0  0  0  0  0  0  0  0  0  0
    3.5527    3.3077   -4.1279 C   0  0  0  0  0  0  0  0  0  0  0  0
    3.8407    4.3691   -4.0597 H   0  0  0  0  0  0  0  0  0  0  0  0
    4.5024    2.7495   -4.1526 H   0  0  0  0  0  0  0  0  0  0  0  0
    3.1208    3.1887   -5.1345 H   0  0  0  0  0  0  0  0  0  0  0  0
    1.3174    3.0407   -3.2467 N   0  0  0  0  0  0  0  0  0  0  0  0
    0.2944    2.6927   -2.2960 C   0  0  2  0  0  0  0  0  0  0  0  0
    0.2976    1.1783   -2.1349 C   0  0  0  0  0  0  0  0  0  0  0  0
    0.7500    0.4142   -2.9850 O   0  0  0  0  0  0  0  0  0  0  0  0
   -1.0710    3.1886   -2.7460 C   0  0  0  0  0  0  0  0  0  0  0  0
    1.0312    3.4224   -4.1464 H   0  0  0  0  0  0  0  0  0  0  0  0
    0.5725    3.1622   -1.3461 H   0  0  0  0  0  0  0  0  0  0  0  0
   -1.3666    2.7292   -3.6963 H   0  0  0  0  0  0  0  0  0  0  0  0
   -1.8434    2.9482   -2.0082 H   0  0  0  0  0  0  0  0  0  0  0  0
   -1.0632    4.2744   -2.8901 H   0  0  0  0  0  0  0  0  0  0  0  0
   -0.3037    0.7742   -0.9484 N   0  0  0  0  0  0  0  0  0  0  0  0
    0.4282    0.6095    0.2808 C   0  0  2  0  0  0  0  0  0  0  0  0
    1.5102   -0.4449    0.0718 C   0  0  0  0  0  0  0  0  0  0  0  0
    2.6605   -0.3163    0.4864 O   0  0  0  0  0  0  0  0  0  0  0  0
   -0.4971    0.2880    1.4604 C   0  0  0  0  0  0  0  0  0  0  0  0
   -1.4175    1.4461    1.8677 C   0  0  0  0  0  0  0  0  0  0  0  0
   -2.2923    1.0622    3.0634 C   0  0  0  0  0  0  0  0  0  0  0  0
   -3.2210    2.2042    3.4491 C   0  0  0  0  0  0  0  0  0  0  0  0
   -4.0637    1.7799    4.5929 N   0  3  0  0  0  0  0  0  0  0  0  0
   -1.3099    0.6229   -0.9297 H   0  0  0  0  0  0  0  0  0  0  0  0
    0.9233    1.5704    0.4662 H   0  0  0  0  0  0  0  0  0  0  0  0
   -1.1157   -0.5800    1.1980 H   0  0  0  0  0  0  0  0  0  0  0  0
    0.1066   -0.0065    2.3278 H   0  0  0  0  0  0  0  0  0  0  0  0
   -0.8186    2.3265    2.1282 H   0  0  0  0  0  0  0  0  0  0  0  0
   -2.0607    1.7277    1.0258 H   0  0  0  0  0  0  0  0  0  0  0  0
   -1.6540    0.7983    3.9158 H   0  0  0  0  0  0  0  0  0  0  0  0
   -2.8823    0.1710    2.8158 H   0  0  0  0  0  0  0  0  0  0  0  0
   -2.6679    3.0905    3.7739 H   0  0  0  0  0  0  0  0  0  0  0  0
   -3.9015    2.4720    2.6355 H   0  0  0  0  0  0  0  0  0  0  0  0
   -4.9019    2.3663    4.6696 H   0  0  0  0  0  0  0  0  0  0  0  0
   -3.5468    1.8516    5.4763 H   0  0  0  0  0  0  0  0  0  0  0  0
   -4.3686    0.8064    4.4838 H   0  0  0  0  0  0  0  0  0  0  0  0
    1.0345   -1.5604   -0.6022 N   0  0  0  0  0  0  0  0  0  0  0  0
    1.8747   -2.6960   -0.8994 C   0  0  2  0  0  0  0  0  0  0  0  0
    1.1414   -3.5730   -1.9057 C   0  0  0  0  0  0  0  0  0  0  0  0
   -0.0789   -3.5499   -2.0518 O   0  0  0  0  0  0  0  0  0  0  0  0
    2.2122   -3.4791    0.3598 C   0  0  0  0  0  0  0  0  0  0  0  0
    0.0625   -1.5786   -0.8964 H   0  0  0  0  0  0  0  0  0  0  0  0
    2.7893   -2.3019   -1.3557 H   0  0  0  0  0  0  0  0  0  0  0  0
    1.3082   -3.8817    0.8310 H   0  0  0  0  0  0  0  0  0  0  0  0
    2.8728   -4.3234    0.1368 H   0  0  0  0  0  0  0  0  0  0  0  0
    2.7130   -2.8391    1.0943 H   0  0  0  0  0  0  0  0  0  0  0  0
    2.0056   -4.4155   -2.5910 N   0  0  0  0  0  0  0  0  0  0  0  0
    1.5506   -5.3533   -3.5907 C   0  0  0  0  0  0  0  0  0  0  0  0
    3.0048   -4.3534   -2.4192 H   0  0  0  0  0  0  0  0  0  0  0  0
    1.3558   -6.3275   -3.1186 H   0  0  0  0  0  0  0  0  0  0  0  0
    0.6250   -4.9776   -4.0514 H   0  0  0  0  0  0  0  0  0  0  0  0
    2.3243   -5.4688   -4.3640 H   0  0  0  0  0  0  0  0  0  0  0  0
  1  3  1  0  0  0  0
  1  7  1  0  0  0  0
  1  2  2  0  0  0  0
 40 41  1  0  0  0  0
 41 49  1  0  0  0  0
 41 42  2  0  0  0  0
  8  9  1  0  0  0  0
  9 17  1  0  0  0  0
  9 10  2  0  0  0  0
 18 19  1  0  0  0  0
 19 39  1  0  0  0  0
 19 20  2  0  0  0  0
 40 43  1  0  0  0  0
  8 11  1  0  0  0  0
 49 50  1  0  0  0  0
 22 23  1  0  0  0  0
 21 22  1  0  0  0  0
 23 24  1  0  0  0  0
 18 21  1  0  0  0  0
 24 25  1  0  0  0  0
 39 40  1  0  0  0  0
  7  8  1  0  0  0  0
 17 18  1  0  0  0  0
  3  4  1  0  0  0  0
  3  5  1  0  0  0  0
  3  6  1  0  0  0  0
 43 46  1  0  0  0  0
 43 47  1  0  0  0  0
 43 48  1  0  0  0  0
 11 14  1  0  0  0  0
 11 15  1  0  0  0  0
 11 16  1  0  0  0  0
 50 52  1  0  0  0  0
 50 53  1  0  0  0  0
 50 54  1  0  0  0  0
 22 30  1  0  0  0  0
 22 31  1  0  0  0  0
 23 32  1  0  0  0  0
 23 33  1  0  0  0  0
 21 28  1  0  0  0  0
 21 29  1  0  0  0  0
 24 34  1  0  0  0  0
 24 35  1  0  0  0  0
 40 45  1  0  0  0  0
  8 13  1  0  0  0  0
 18 27  1  0  0  0  0
 49 51  1  0  0  0  0
  7 12  1  0  0  0  0
 39 44  1  0  0  0  0
 17 26  1  0  0  0  0
 25 36  1  0  0  0  0
 25 37  1  0  0  0  0
 25 38  1  0  0  0  0
M  CHG  1  25   1
M  END
$$$$

  -OEChem-02062319033D

 54 53  0     1  0  0  0  0  0999 V2000
    2.6714    2.8829   -3.0005 C   0  0  0  0  0  0  0  0  0  0  0  0
    3.1741    2.4398   -1.9745 O   0  0  0  0  0  0  0  0  0  0  0  0
    3.5527    3.3077   -4.1279 C   0  0  0  0  0  0  0  0  0  0  0  0
    3.8407    4.3691   -4.0597 H   0  0  0  0  0  0  0  0  0  0  0  0
    4.5024    2.7495   -4.1526 H   0  0  0  0  0  0  0  0  0  0  0  0
    3.1208    3.1887   -5.1345 H   0  0  0  0  0  0  0  0  0  0  0  0
    1.3174    3.0407   -3.2467 N   0  0  0  0  0  0  0  0  0  0  0  0
    0.2944    2.6927   -2.2960 C   0  0  2  0  0  0  0  0  0  0  0  0
    0.2976    1.1783   -2.1349 C   0  0  0  0  0  0  0  0  0  0  0  0
    0.7500    0.4142   -2.9850 O   0  0  0  0  0  0  0  0  0  0  0  0
   -1.0710    3.1886   -2.7460 C   0  0  0  0  0  0  0  0  0  0  0  0
    1.0312    3.4224   -4.1464 H   0  0  0  0  0  0  0  0  0  0  0  0
    0.5725    3.1622   -1.3461 H   0  0  0  0  0  0  0  0  0  0  0  0
   -1.3666    2.7292   -3.6963 H   0  0  0  0  0  0  0  0  0  0  0  0
   -1.8434    2.9482   -2.0082 H   0  0  0  0  0  0  0  0  0  0  0  0
   -1.0632    4.2744   -2.8901 H   0  0  0  0  0  0  0  0  0  0  0  0
   -0.3037    0.7742   -0.9484 N   0  0  0  0  0  0  0  0  0  0  0  0
    0.3357    0.9066    0.3351 C   0  0  2  0  0  0  0  0  0  0  0  0
    1.6345    0.1072    0.3228 C   0  0  0  0  0  0  0  0  0  0  0  0
    2.6886    0.5337    0.7901 O   0  0  0  0  0  0  0  0  0  0  0  0
   -0.5979    0.5089    1.4845 C   0  0  0  0  0  0  0  0  0  0  0  0
   -1.7795    1.4657    1.6910 C   0  0  0  0  0  0  0  0  0  0  0  0
   -2.6519    1.0206    2.8671 C   0  0  0  0  0  0  0  0  0  0  0  0
   -3.8360    1.9577    3.0535 C   0  0  0  0  0  0  0  0  0  0  0  0
   -4.6640    1.4753    4.1849 N   0  3  0  0  0  0  0  0  0  0  0  0
   -1.2509    0.4029   -0.9747 H   0  0  0  0  0  0  0  0  0  0  0  0
    0.5926    1.9682    0.4341 H   0  0  0  0  0  0  0  0  0  0  0  0
   -0.9884   -0.4985    1.2903 H   0  0  0  0  0  0  0  0  0  0  0  0
   -0.0233    0.4493    2.4171 H   0  0  0  0  0  0  0  0  0  0  0  0
   -1.4108    2.4805    1.8806 H   0  0  0  0  0  0  0  0  0  0  0  0
   -2.3919    1.5066    0.7827 H   0  0  0  0  0  0  0  0  0  0  0  0
   -2.0489    0.9968    3.7833 H   0  0  0  0  0  0  0  0  0  0  0  0
   -3.0107   -0.0013    2.6921 H   0  0  0  0  0  0  0  0  0  0  0  0
   -3.5188    2.9745    3.3032 H   0  0  0  0  0  0  0  0  0  0  0  0
   -4.4843    1.9797    2.1725 H   0  0  0  0  0  0  0  0  0  0  0  0
   -5.6127    1.8626    4.1378 H   0  0  0  0  0  0  0  0  0  0  0  0
   -4.2545    1.7525    5.0840 H   0  0  0  0  0  0  0  0  0  0  0  0
   -4.7400    0.4522    4.1750 H   0  0  0  0  0  0  0  0  0  0  0  0
    1.4727   -1.1504   -0.2405 N   0  0  0  0  0  0  0  0  0  0  0  0
    2.5617   -2.0921   -0.3456 C   0  0  2  0  0  0  0  0  0  0  0  0
    2.1271   -3.2110   -1.2829 C   0  0  0  0  0  0  0  0  0  0  0  0
    0.9484   -3.4786   -1.5069 O   0  0  0  0  0  0  0  0  0  0  0  0
    2.9490   -2.6445    1.0174 C   0  0  0  0  0  0  0  0  0  0  0  0
    0.5575   -1.4174   -0.5907 H   0  0  0  0  0  0  0  0  0  0  0  0
    3.4057   -1.5516   -0.7878 H   0  0  0  0  0  0  0  0  0  0  0  0
    2.1159   -3.1894    1.4761 H   0  0  0  0  0  0  0  0  0  0  0  0
    3.7937   -3.3368    0.9395 H   0  0  0  0  0  0  0  0  0  0  0  0
    3.2328   -1.8357    1.6994 H   0  0  0  0  0  0  0  0  0  0  0  0
    3.2100   -3.9035   -1.8063 N   0  0  0  0  0  0  0  0  0  0  0  0
    3.0586   -5.0180   -2.7124 C   0  0  0  0  0  0  0  0  0  0  0  0
    4.1530   -3.6006   -1.5810 H   0  0  0  0  0  0  0  0  0  0  0  0
    3.0388   -5.9569   -2.1396 H   0  0  0  0  0  0  0  0  0  0  0  0
    2.1177   -4.9102   -3.2720 H   0  0  0  0  0  0  0  0  0  0  0  0
    3.9038   -5.0358   -3.4161 H   0  0  0  0  0  0  0  0  0  0  0  0
  1  3  1  0  0  0  0
  1  7  1  0  0  0  0
  1  2  2  0  0  0  0
 40 41  1  0  0  0  0
 41 49  1  0  0  0  0
 41 42  2  0  0  0  0
  8  9  1  0  0  0  0
  9 17  1  0  0  0  0
  9 10  2  0  0  0  0
 18 19  1  0  0  0  0
 19 39  1  0  0  0  0
 19 20  2  0  0  0  0
 40 43  1  0  0  0  0
  8 11  1  0  0  0  0
 49 50  1  0  0  0  0
 22 23  1  0  0  0  0
 21 22  1  0  0  0  0
 23 24  1  0  0  0  0
 18 21  1  0  0  0  0
 24 25  1  0  0  0  0
 39 40  1  0  0  0  0
  7  8  1  0  0  0  0
 17 18  1  0  0  0  0
  3  4  1  0  0  0  0
  3  5  1  0  0  0  0
  3  6  1  0  0  0  0
 43 46  1  0  0  0  0
 43 47  1  0  0  0  0
 43 48  1  0  0  0  0
 11 14  1  0  0  0  0
 11 15  1  0  0  0  0
 11 16  1  0  0  0  0
 50 52  1  0  0  0  0
 50 53  1  0  0  0  0
 50 54  1  0  0  0  0
 22 30  1  0  0  0  0
 22 31  1  0  0  0  0
 23 32  1  0  0  0  0
 23 33  1  0  0  0  0
 21 28  1  0  0  0  0
 21 29  1  0  0  0  0
 24 34  1  0  0  0  0
 24 35  1  0  0  0  0
 40 45  1  0  0  0  0
  8 13  1  0  0  0  0
 18 27  1  0  0  0  0
 49 51  1  0  0  0  0
  7 12  1  0  0  0  0
 39 44  1  0  0  0  0
 17 26  1  0  0  0  0
 25 36  1  0  0  0  0
 25 37  1  0  0  0  0
 25 38  1  0  0  0  0
M  CHG  1  25   1
M  END
$$$$

  -OEChem-02062319033D

 54 53  0     1  0  0  0  0  0999 V2000
    2.6714    2.8829   -3.0005 C   0  0  0  0  0  0  0  0  0  0  0  0
    3.1741    2.4398   -1.9745 O   0  0  0  0  0  0  0  0  0  0  0  0
    3.5527    3.3077   -4.1279 C   0  0  0  0  0  0  0  0  0  0  0  0
    3.8407    4.3691   -4.0597 H   0  0  0  0  0  0  0  0  0  0  0  0
    4.5024    2.7495   -4.1526 H   0  0  0  0  0  0  0  0  0  0  0  0
    3.1208    3.1887   -5.1345 H   0  0  0  0  0  0  0  0  0  0  0  0
    1.3174    3.0407   -3.2467 N   0  0  0  0  0  0  0  0  0  0  0  0
    0.2944    2.6927   -2.2960 C   0  0  2  0  0  0  0  0  0  0  0  0
    0.2976    1.1783   -2.1349 C   0  0  0  0  0  0  0  0  0  0  0  0
    0.7500    0.4142   -2.9850 O   0  0  0  0  0  0  0  0  0  0  0  0
   -1.0710    3.1886   -2.7460 C   0  0  0  0  0  0  0  0  0  0  0  0
    1.0312    3.4224   -4.1464 H   0  0  0  0  0  0  0  0  0  0  0  0
    0.5725    3.1622   -1.3461 H   0  0  0  0  0  0  0  0  0  0  0  0
   -1.3666    2.7292   -3.6963 H   0  0  0  0  0  0  0  0  0  0  0  0
   -1.8434    2.9482   -2.0082 H   0  0  0  0  0  0  0  0  0  0  0  0
   -1.0632    4.2744   -2.8901 H   0  0  0  0  0  0  0  0  0  0  0  0
   -0.3037    0.7742   -0.9484 N   0  0  0  0  0  0  0  0  0  0  0  0
    0.1766    1.1793    0.3474 C   0  0  2  0  0  0  0  0  0  0  0  0
    1.6137    0.6960    0.5127 C   0  0  0  0  0  0  0  0  0  0  0  0
    2.5052    1.3949    0.9904 O   0  0  0  0  0  0  0  0  0  0  0  0
   -0.7459    0.7027    1.4755 C   0  0  0  0  0  0  0  0  0  0  0  0
   -2.1201    1.3849    1.4909 C   0  0  0  0  0  0  0  0  0  0  0  0
   -2.9752    0.8790    2.6550 C   0  0  0  0  0  0  0  0  0  0  0  0
   -4.3459    1.5395    2.6527 C   0  0  0  0  0  0  0  0  0  0  0  0
   -5.1458    1.0027    3.7799 N   0  3  0  0  0  0  0  0  0  0  0  0
   -1.1419    0.1985   -0.9891 H   0  0  0  0  0  0  0  0  0  0  0  0
    0.1878    2.2759    0.3337 H   0  0  0  0  0  0  0  0  0  0  0  0
   -0.8903   -0.3813    1.3800 H   0  0  0  0  0  0  0  0  0  0  0  0
   -0.2562    0.8708    2.4427 H   0  0  0  0  0  0  0  0  0  0  0  0
   -1.9981    2.4707    1.5796 H   0  0  0  0  0  0  0  0  0  0  0  0
   -2.6447    1.1927    0.5477 H   0  0  0  0  0  0  0  0  0  0  0  0
   -2.4642    1.0865    3.6034 H   0  0  0  0  0  0  0  0  0  0  0  0
   -3.0873   -0.2100    2.5821 H   0  0  0  0  0  0  0  0  0  0  0  0
   -4.2797    2.6219    2.7975 H   0  0  0  0  0  0  0  0  0  0  0  0
   -4.9036    1.3236    1.7366 H   0  0  0  0  0  0  0  0  0  0  0  0
   -6.1480    1.1594    3.6271 H   0  0  0  0  0  0  0  0  0  0  0  0
   -4.8866    1.4566    4.6629 H   0  0  0  0  0  0  0  0  0  0  0  0
   -4.9972   -0.0066    3.8884 H   0  0  0  0  0  0  0  0  0  0  0  0
    1.7783   -0.6171    0.0959 N   0  0  0  0  0  0  0  0  0  0  0  0
    3.0503   -1.2951    0.1734 C   0  0  2  0  0  0  0  0  0  0  0  0
    2.9524   -2.5740   -0.6477 C   0  0  0  0  0  0  0  0  0  0  0  0
    1.8840   -3.1218   -0.9113 O   0  0  0  0  0  0  0  0  0  0  0  0
    3.4269   -1.6019    1.6145 C   0  0  0  0  0  0  0  0  0  0  0  0
    0.9770   -1.1181   -0.2762 H   0  0  0  0  0  0  0  0  0  0  0  0
    3.7927   -0.6271   -0.2769 H   0  0  0  0  0  0  0  0  0  0  0  0
    2.6945   -2.2700    2.0824 H   0  0  0  0  0  0  0  0  0  0  0  0
    4.4050   -2.0905    1.6736 H   0  0  0  0  0  0  0  0  0  0  0  0
    3.4677   -0.6839    2.2106 H   0  0  0  0  0  0  0  0  0  0  0  0
    4.2013   -3.0552   -1.0151 N   0  0  0  0  0  0  0  0  0  0  0  0
    4.3750   -4.2627   -1.7881 C   0  0  0  0  0  0  0  0  0  0  0  0
    5.0328   -2.5260   -0.7693 H   0  0  0  0  0  0  0  0  0  0  0  0
    4.5089   -5.1175   -1.1088 H   0  0  0  0  0  0  0  0  0  0  0  0
    3.4860   -4.4281   -2.4145 H   0  0  0  0  0  0  0  0  0  0  0  0
    5.2625   -4.1624   -2.4302 H   0  0  0  0  0  0  0  0  0  0  0  0
  1  3  1  0  0  0  0
  1  7  1  0  0  0  0
  1  2  2  0  0  0  0
 40 41  1  0  0  0  0
 41 49  1  0  0  0  0
 41 42  2  0  0  0  0
  8  9  1  0  0  0  0
  9 17  1  0  0  0  0
  9 10  2  0  0  0  0
 18 19  1  0  0  0  0
 19 39  1  0  0  0  0
 19 20  2  0  0  0  0
 40 43  1  0  0  0  0
  8 11  1  0  0  0  0
 49 50  1  0  0  0  0
 22 23  1  0  0  0  0
 21 22  1  0  0  0  0
 23 24  1  0  0  0  0
 18 21  1  0  0  0  0
 24 25  1  0  0  0  0
 39 40  1  0  0  0  0
  7  8  1  0  0  0  0
 17 18  1  0  0  0  0
  3  4  1  0  0  0  0
  3  5  1  0  0  0  0
  3  6  1  0  0  0  0
 43 46  1  0  0  0  0
 43 47  1  0  0  0  0
 43 48  1  0  0  0  0
 11 14  1  0  0  0  0
 11 15  1  0  0  0  0
 11 16  1  0  0  0  0
 50 52  1  0  0  0  0
 50 53  1  0  0  0  0
 50 54  1  0  0  0  0
 22 30  1  0  0  0  0
 22 31  1  0  0  0  0
 23 32  1  0  0  0  0
 23 33  1  0  0  0  0
 21 28  1  0  0  0  0
 21 29  1  0  0  0  0
 24 34  1  0  0  0  0
 24 35  1  0  0  0  0
 40 45  1  0  0  0  0
  8 13  1  0  0  0  0
 18 27  1  0  0  0  0
 49 51  1  0  0  0  0
  7 12  1  0  0  0  0
 39 44  1  0  0  0  0
 17 26  1  0  0  0  0
 25 36  1  0  0  0  0
 25 37  1  0  0  0  0
 25 38  1  0  0  0  0
M  CHG  1  25   1
M  END
$$$$

  -OEChem-02062319033D

 54 53  0     1  0  0  0  0  0999 V2000
    2.6714    2.8829   -3.0005 C   0  0  0  0  0  0  0  0  0  0  0  0
    3.1741    2.4398   -1.9745 O   0  0  0  0  0  0  0  0  0  0  0  0
    3.5527    3.3077   -4.1279 C   0  0  0  0  0  0  0  0  0  0  0  0
    3.8407    4.3691   -4.0597 H   0  0  0  0  0  0  0  0  0  0  0  0
    4.5024    2.7495   -4.1526 H   0  0  0  0  0  0  0  0  0  0  0  0
    3.1208    3.1887   -5.1345 H   0  0  0  0  0  0  0  0  0  0  0  0
    1.3174    3.0407   -3.2467 N   0  0  0  0  0  0  0  0  0  0  0  0
    0.2944    2.6927   -2.2960 C   0  0  2  0  0  0  0  0  0  0  0  0
    0.2976    1.1783   -2.1349 C   0  0  0  0  0  0  0  0  0  0  0  0
    0.7500    0.4142   -2.9850 O   0  0  0  0  0  0  0  0  0  0  0  0
   -1.0710    3.1886   -2.7460 C   0  0  0  0  0  0  0  0  0  0  0  0
    1.0312    3.4224   -4.1464 H   0  0  0  0  0  0  0  0  0  0  0  0
    0.5725    3.1622   -1.3461 H   0  0  0  0  0  0  0  0  0  0  0  0
   -1.3666    2.7292   -3.6963 H   0  0  0  0  0  0  0  0  0  0  0  0
   -1.8434    2.9482   -2.0082 H   0  0  0  0  0  0  0  0  0  0  0  0
   -1.0632    4.2744   -2.8901 H   0  0  0  0  0  0  0  0  0  0  0  0
   -0.3037    0.7742   -0.9484 N   0  0  0  0  0  0  0  0  0  0  0  0
   -0.0382    1.4089    0.3167 C   0  0  2  0  0  0  0  0  0  0  0  0
    1.4492    1.2814    0.6288 C   0  0  0  0  0  0  0  0  0  0  0  0
    2.1227    2.2087    1.0737 O   0  0  0  0  0  0  0  0  0  0  0  0
   -0.9310    0.8562    1.4340 C   0  0  0  0  0  0  0  0  0  0  0  0
   -2.4163    1.2093    1.2810 C   0  0  0  0  0  0  0  0  0  0  0  0
   -3.2403    0.6470    2.4416 C   0  0  0  0  0  0  0  0  0  0  0  0
   -4.7159    0.9780    2.2740 C   0  0  0  0  0  0  0  0  0  0  0  0
   -5.4763    0.3945    3.4053 N   0  3  0  0  0  0  0  0  0  0  0  0
   -0.9904    0.0235   -0.9719 H   0  0  0  0  0  0  0  0  0  0  0  0
   -0.2637    2.4724    0.1718 H   0  0  0  0  0  0  0  0  0  0  0  0
   -0.8281   -0.2364    1.4608 H   0  0  0  0  0  0  0  0  0  0  0  0
   -0.5762    1.2294    2.4027 H   0  0  0  0  0  0  0  0  0  0  0  0
   -2.5406    2.2978    1.2459 H   0  0  0  0  0  0  0  0  0  0  0  0
   -2.8019    0.8073    0.3368 H   0  0  0  0  0  0  0  0  0  0  0  0
   -2.8717    1.0613    3.3883 H   0  0  0  0  0  0  0  0  0  0  0  0
   -3.1070   -0.4408    2.4936 H   0  0  0  0  0  0  0  0  0  0  0  0
   -4.8987    2.0565    2.2913 H   0  0  0  0  0  0  0  0  0  0  0  0
   -5.1310    0.5485    1.3574 H   0  0  0  0  0  0  0  0  0  0  0  0
   -6.4713    0.3048    3.1723 H   0  0  0  0  0  0  0  0  0  0  0  0
   -5.4002    0.9839    4.2417 H   0  0  0  0  0  0  0  0  0  0  0  0
   -5.1227   -0.5386    3.6436 H   0  0  0  0  0  0  0  0  0  0  0  0
    1.9303    0.0032    0.3842 N   0  0  0  0  0  0  0  0  0  0  0  0
    3.3072   -0.3592    0.6223 C   0  0  2  0  0  0  0  0  0  0  0  0
    3.5611   -1.7052   -0.0434 C   0  0  0  0  0  0  0  0  0  0  0  0
    2.6641   -2.5038   -0.3056 O   0  0  0  0  0  0  0  0  0  0  0  0
    3.6132   -0.4225    2.1106 C   0  0  0  0  0  0  0  0  0  0  0  0
    1.2924   -0.7011    0.0256 H   0  0  0  0  0  0  0  0  0  0  0  0
    3.9238    0.4085    0.1422 H   0  0  0  0  0  0  0  0  0  0  0  0
    3.0048   -1.1862    2.6087 H   0  0  0  0  0  0  0  0  0  0  0  0
    4.6649   -0.6695    2.2893 H   0  0  0  0  0  0  0  0  0  0  0  0
    3.4017    0.5378    2.5932 H   0  0  0  0  0  0  0  0  0  0  0  0
    4.9119   -1.9282   -0.2712 N   0  0  0  0  0  0  0  0  0  0  0  0
    5.4103   -3.1389   -0.8808 C   0  0  0  0  0  0  0  0  0  0  0  0
    5.5841   -1.2029   -0.0393 H   0  0  0  0  0  0  0  0  0  0  0  0
    5.6659   -3.8666   -0.0965 H   0  0  0  0  0  0  0  0  0  0  0  0
    4.6367   -3.5641   -1.5372 H   0  0  0  0  0  0  0  0  0  0  0  0
    6.3078   -2.9083   -1.4735 H   0  0  0  0  0  0  0  0  0  0  0  0
  1  3  1  0  0  0  0
  1  7  1  0  0  0  0
  1  2  2  0  0  0  0
 40 41  1  0  0  0  0
 41 49  1  0  0  0  0
 41 42  2  0  0  0  0
  8  9  1  0  0  0  0
  9 17  1  0  0  0  0
  9 10  2  0  0  0  0
 18 19  1  0  0  0  0
 19 39  1  0  0  0  0
 19 20  2  0  0  0  0
 40 43  1  0  0  0  0
  8 11  1  0  0  0  0
 49 50  1  0  0  0  0
 22 23  1  0  0  0  0
 21 22  1  0  0  0  0
 23 24  1  0  0  0  0
 18 21  1  0  0  0  0
 24 25  1  0  0  0  0
 39 40  1  0  0  0  0
  7  8  1  0  0  0  0
 17 18  1  0  0  0  0
  3  4  1  0  0  0  0
  3  5  1  0  0  0  0
  3  6  1  0  0  0  0
 43 46  1  0  0  0  0
 43 47  1  0  0  0  0
 43 48  1  0  0  0  0
 11 14  1  0  0  0  0
 11 15  1  0  0  0  0
 11 16  1  0  0  0  0
 50 52  1  0  0  0  0
 50 53  1  0  0  0  0
 50 54  1  0  0  0  0
 22 30  1  0  0  0  0
 22 31  1  0  0  0  0
 23 32  1  0  0  0  0
 23 33  1  0  0  0  0
 21 28  1  0  0  0  0
 21 29  1  0  0  0  0
 24 34  1  0  0  0  0
 24 35  1  0  0  0  0
 40 45  1  0  0  0  0
  8 13  1  0  0  0  0
 18 27  1  0  0  0  0
 49 51  1  0  0  0  0
  7 12  1  0  0  0  0
 39 44  1  0  0  0  0
 17 26  1  0  0  0  0
 25 36  1  0  0  0  0
 25 37  1  0  0  0  0
 25 38  1  0  0  0  0
M  CHG  1  25   1
M  END
$$$$

  -OEChem-02062319033D

 54 53  0     1  0  0  0  0  0999 V2000
    2.6714    2.8829   -3.0005 C   0  0  0  0  0  0  0  0  0  0  0  0
    3.1741    2.4398   -1.9745 O   0  0  0  0  0  0  0  0  0  0  0  0
    3.5527    3.3077   -4.1279 C   0  0  0  0  0  0  0  0  0  0  0  0
    3.8407    4.3691   -4.0597 H   0  0  0  0  0  0  0  0  0  0  0  0
    4.5024    2.7495   -4.1526 H   0  0  0  0  0  0  0  0  0  0  0  0
    3.1208    3.1887   -5.1345 H   0  0  0  0  0  0  0  0  0  0  0  0
    1.3174    3.0407   -3.2467 N   0  0  0  0  0  0  0  0  0  0  0  0
    0.2944    2.6927   -2.2960 C   0  0  2  0  0  0  0  0  0  0  0  0
    0.2976    1.1783   -2.1349 C   0  0  0  0  0  0  0  0  0  0  0  0
    0.7500    0.4142   -2.9850 O   0  0  0  0  0  0  0  0  0  0  0  0
   -1.0710    3.1886   -2.7460 C   0  0  0  0  0  0  0  0  0  0  0  0
    1.0312    3.4224   -4.1464 H   0  0  0  0  0  0  0  0  0  0  0  0
    0.5725    3.1622   -1.3461 H   0  0  0  0  0  0  0  0  0  0  0  0
   -1.3666    2.7292   -3.6963 H   0  0  0  0  0  0  0  0  0  0  0  0
   -1.8434    2.9482   -2.0082 H   0  0  0  0  0  0  0  0  0  0  0  0
   -1.0632    4.2744   -2.8901 H   0  0  0  0  0  0  0  0  0  0  0  0
   -0.3037    0.7742   -0.9484 N   0  0  0  0  0  0  0  0  0  0  0  0
   -0.2941    1.5798    0.2452 C   0  0  2  0  0  0  0  0  0  0  0  0
    1.1524    1.8235    0.6629 C   0  0  0  0  0  0  0  0  0  0  0  0
    1.5672    2.9196    1.0343 O   0  0  0  0  0  0  0  0  0  0  0  0
   -1.1406    0.9589    1.3628 C   0  0  0  0  0  0  0  0  0  0  0  0
   -2.6477    0.9507    1.0756 C   0  0  0  0  0  0  0  0  0  0  0  0
   -3.4291    0.3405    2.2416 C   0  0  0  0  0  0  0  0  0  0  0  0
   -4.9208    0.3115    1.9432 C   0  0  0  0  0  0  0  0  0  0  0  0
   -5.6330   -0.3079    3.0866 N   0  3  0  0  0  0  0  0  0  0  0  0
   -0.8067   -0.1102   -0.9244 H   0  0  0  0  0  0  0  0  0  0  0  0
   -0.7310    2.5443   -0.0405 H   0  0  0  0  0  0  0  0  0  0  0  0
   -0.8062   -0.0737    1.5273 H   0  0  0  0  0  0  0  0  0  0  0  0
   -0.9615    1.5006    2.2998 H   0  0  0  0  0  0  0  0  0  0  0  0
   -3.0014    1.9736    0.9020 H   0  0  0  0  0  0  0  0  0  0  0  0
   -2.8527    0.3767    0.1644 H   0  0  0  0  0  0  0  0  0  0  0  0
   -3.2435    0.9228    3.1528 H   0  0  0  0  0  0  0  0  0  0  0  0
   -3.0684   -0.6780    2.4324 H   0  0  0  0  0  0  0  0  0  0  0  0
   -5.3337    1.3170    1.8191 H   0  0  0  0  0  0  0  0  0  0  0  0
   -5.1508   -0.2929    1.0608 H   0  0  0  0  0  0  0  0  0  0  0  0
   -6.5606   -0.6430    2.8042 H   0  0  0  0  0  0  0  0  0  0  0  0
   -5.7602    0.3668    3.8491 H   0  0  0  0  0  0  0  0  0  0  0  0
   -5.1081   -1.1077    3.4573 H   0  0  0  0  0  0  0  0  0  0  0  0
    1.9185    0.6682    0.6046 N   0  0  0  0  0  0  0  0  0  0  0  0
    3.3147    0.6519    0.9705 C   0  0  2  0  0  0  0  0  0  0  0  0
    3.9117   -0.6639    0.4888 C   0  0  0  0  0  0  0  0  0  0  0  0
    3.2355   -1.6667    0.2691 O   0  0  0  0  0  0  0  0  0  0  0  0
    3.4953    0.8134    2.4718 C   0  0  0  0  0  0  0  0  0  0  0  0
    1.4822   -0.1949    0.2942 H   0  0  0  0  0  0  0  0  0  0  0  0
    3.7902    1.4848    0.4410 H   0  0  0  0  0  0  0  0  0  0  0  0
    3.0255   -0.0119    3.0191 H   0  0  0  0  0  0  0  0  0  0  0  0
    4.5557    0.8294    2.7444 H   0  0  0  0  0  0  0  0  0  0  0  0
    3.0393    1.7460    2.8211 H   0  0  0  0  0  0  0  0  0  0  0  0
    5.2933   -0.5993    0.3746 N   0  0  0  0  0  0  0  0  0  0  0  0
    6.0937   -1.7232   -0.0523 C   0  0  0  0  0  0  0  0  0  0  0  0
    5.7695    0.2787    0.5592 H   0  0  0  0  0  0  0  0  0  0  0  0
    6.4310   -2.2894    0.8283 H   0  0  0  0  0  0  0  0  0  0  0  0
    5.4913   -2.3772   -0.6999 H   0  0  0  0  0  0  0  0  0  0  0  0
    6.9685   -1.3590   -0.6111 H   0  0  0  0  0  0  0  0  0  0  0  0
  1  3  1  0  0  0  0
  1  7  1  0  0  0  0
  1  2  2  0  0  0  0
 40 41  1  0  0  0  0
 41 49  1  0  0  0  0
 41 42  2  0  0  0  0
  8  9  1  0  0  0  0
  9 17  1  0  0  0  0
  9 10  2  0  0  0  0
 18 19  1  0  0  0  0
 19 39  1  0  0  0  0
 19 20  2  0  0  0  0
 40 43  1  0  0  0  0
  8 11  1  0  0  0  0
 49 50  1  0  0  0  0
 22 23  1  0  0  0  0
 21 22  1  0  0  0  0
 23 24  1  0  0  0  0
 18 21  1  0  0  0  0
 24 25  1  0  0  0  0
 39 40  1  0  0  0  0
  7  8  1  0  0  0  0
 17 18  1  0  0  0  0
  3  4  1  0  0  0  0
  3  5  1  0  0  0  0
  3  6  1  0  0  0  0
 43 46  1  0  0  0  0
 43 47  1  0  0  0  0
 43 48  1  0  0  0  0
 11 14  1  0  0  0  0
 11 15  1  0  0  0  0
 11 16  1  0  0  0  0
 50 52  1  0  0  0  0
 50 53  1  0  0  0  0
 50 54  1  0  0  0  0
 22 30  1  0  0  0  0
 22 31  1  0  0  0  0
 23 32  1  0  0  0  0
 23 33  1  0  0  0  0
 21 28  1  0  0  0  0
 21 29  1  0  0  0  0
 24 34  1  0  0  0  0
 24 35  1  0  0  0  0
 40 45  1  0  0  0  0
  8 13  1  0  0  0  0
 18 27  1  0  0  0  0
 49 51  1  0  0  0  0
  7 12  1  0  0  0  0
 39 44  1  0  0  0  0
 17 26  1  0  0  0  0
 25 36  1  0  0  0  0
 25 37  1  0  0  0  0
 25 38  1  0  0  0  0
M  CHG  1  25   1
M  END
$$$$

  -OEChem-02062319033D

 54 53  0     1  0  0  0  0  0999 V2000
    2.6714    2.8829   -3.0005 C   0  0  0  0  0  0  0  0  0  0  0  0
    3.1741    2.4398   -1.9745 O   0  0  0  0  0  0  0  0  0  0  0  0
    3.5527    3.3077   -4.1279 C   0  0  0  0  0  0  0  0  0  0  0  0
    3.8407    4.3691   -4.0597 H   0  0  0  0  0  0  0  0  0  0  0  0
    4.5024    2.7495   -4.1526 H   0  0  0  0  0  0  0  0  0  0  0  0
    3.1208    3.1887   -5.1345 H   0  0  0  0  0  0  0  0  0  0  0  0
    1.3174    3.0407   -3.2467 N   0  0  0  0  0  0  0  0  0  0  0  0
    0.2944    2.6927   -2.2960 C   0  0  2  0  0  0  0  0  0  0  0  0
    0.2976    1.1783   -2.1349 C   0  0  0  0  0  0  0  0  0  0  0  0
    0.7500    0.4142   -2.9850 O   0  0  0  0  0  0  0  0  0  0  0  0
   -1.0710    3.1886   -2.7460 C   0  0  0  0  0  0  0  0  0  0  0  0
    1.0312    3.4224   -4.1464 H   0  0  0  0  0  0  0  0  0  0  0  0
    0.5725    3.1622   -1.3461 H   0  0  0  0  0  0  0  0  0  0  0  0
   -1.3666    2.7292   -3.6963 H   0  0  0  0  0  0  0  0  0  0  0  0
   -1.8434    2.9482   -2.0082 H   0  0  0  0  0  0  0  0  0  0  0  0
   -1.0632    4.2744   -2.8901 H   0  0  0  0  0  0  0  0  0  0  0  0
   -0.3037    0.7742   -0.9484 N   0  0  0  0  0  0  0  0  0  0  0  0
   -0.5737    1.6803    0.1378 C   0  0  2  0  0  0  0  0  0  0  0  0
    0.7432    2.2854    0.6129 C   0  0  0  0  0  0  0  0  0  0  0  0
    0.8765    3.4791    0.8749 O   0  0  0  0  0  0  0  0  0  0  0  0
   -1.3603    1.0038    1.2667 C   0  0  0  0  0  0  0  0  0  0  0  0
   -2.7988    0.6268    0.8888 C   0  0  0  0  0  0  0  0  0  0  0  0
   -3.5286   -0.0197    2.0685 C   0  0  0  0  0  0  0  0  0  0  0  0
   -4.9466   -0.4145    1.6829 C   0  0  0  0  0  0  0  0  0  0  0  0
   -5.6053   -1.0567    2.8457 N   0  3  0  0  0  0  0  0  0  0  0  0
   -0.6033   -0.1934   -0.8496 H   0  0  0  0  0  0  0  0  0  0  0  0
   -1.1824    2.4868   -0.2887 H   0  0  0  0  0  0  0  0  0  0  0  0
   -0.8260    0.0958    1.5750 H   0  0  0  0  0  0  0  0  0  0  0  0
   -1.3858    1.6659    2.1411 H   0  0  0  0  0  0  0  0  0  0  0  0
   -3.3489    1.5202    0.5715 H   0  0  0  0  0  0  0  0  0  0  0  0
   -2.7936   -0.0698    0.0423 H   0  0  0  0  0  0  0  0  0  0  0  0
   -3.5544    0.6806    2.9127 H   0  0  0  0  0  0  0  0  0  0  0  0
   -2.9741   -0.9054    2.4027 H   0  0  0  0  0  0  0  0  0  0  0  0
   -5.5549    0.4538    1.4130 H   0  0  0  0  0  0  0  0  0  0  0  0
   -4.9618   -1.1432    0.8670 H   0  0  0  0  0  0  0  0  0  0  0  0
   -6.4098   -1.6194    2.5481 H   0  0  0  0  0  0  0  0  0  0  0  0
   -5.9420   -0.3527    3.5119 H   0  0  0  0  0  0  0  0  0  0  0  0
   -4.9542   -1.6749    3.3421 H   0  0  0  0  0  0  0  0  0  0  0  0
    1.7435    1.3326    0.7423 N   0  0  0  0  0  0  0  0  0  0  0  0
    3.0725    1.6691    1.1941 C   0  0  2  0  0  0  0  0  0  0  0  0
    3.9803    0.4790    0.9127 C   0  0  0  0  0  0  0  0  0  0  0  0
    3.5593   -0.6676    0.7734 O   0  0  0  0  0  0  0  0  0  0  0  0
    3.0813    2.0216    2.6734 C   0  0  0  0  0  0  0  0  0  0  0  0
    1.5336    0.3661    0.5113 H   0  0  0  0  0  0  0  0  0  0  0  0
    3.4008    2.5282    0.5991 H   0  0  0  0  0  0  0  0  0  0  0  0
    2.7552    1.1728    3.2856 H   0  0  0  0  0  0  0  0  0  0  0  0
    4.0849    2.3041    3.0080 H   0  0  0  0  0  0  0  0  0  0  0  0
    2.4052    2.8586    2.8786 H   0  0  0  0  0  0  0  0  0  0  0  0
    5.3197    0.8408    0.8784 N   0  0  0  0  0  0  0  0  0  0  0  0
    6.3788   -0.1119    0.6408 C   0  0  0  0  0  0  0  0  0  0  0  0
    5.5762    1.8178    0.9854 H   0  0  0  0  0  0  0  0  0  0  0  0
    6.7521   -0.4934    1.6027 H   0  0  0  0  0  0  0  0  0  0  0  0
    5.9916   -0.9482    0.0402 H   0  0  0  0  0  0  0  0  0  0  0  0
    7.1995    0.3801    0.0983 H   0  0  0  0  0  0  0  0  0  0  0  0
  1  3  1  0  0  0  0
  1  7  1  0  0  0  0
  1  2  2  0  0  0  0
 40 41  1  0  0  0  0
 41 49  1  0  0  0  0
 41 42  2  0  0  0  0
  8  9  1  0  0  0  0
  9 17  1  0  0  0  0
  9 10  2  0  0  0  0
 18 19  1  0  0  0  0
 19 39  1  0  0  0  0
 19 20  2  0  0  0  0
 40 43  1  0  0  0  0
  8 11  1  0  0  0  0
 49 50  1  0  0  0  0
 22 23  1  0  0  0  0
 21 22  1  0  0  0  0
 23 24  1  0  0  0  0
 18 21  1  0  0  0  0
 24 25  1  0  0  0  0
 39 40  1  0  0  0  0
  7  8  1  0  0  0  0
 17 18  1  0  0  0  0
  3  4  1  0  0  0  0
  3  5  1  0  0  0  0
  3  6  1  0  0  0  0
 43 46  1  0  0  0  0
 43 47  1  0  0  0  0
 43 48  1  0  0  0  0
 11 14  1  0  0  0  0
 11 15  1  0  0  0  0
 11 16  1  0  0  0  0
 50 52  1  0  0  0  0
 50 53  1  0  0  0  0
 50 54  1  0  0  0  0
 22 30  1  0  0  0  0
 22 31  1  0  0  0  0
 23 32  1  0  0  0  0
 23 33  1  0  0  0  0
 21 28  1  0  0  0  0
 21 29  1  0  0  0  0
 24 34  1  0  0  0  0
 24 35  1  0  0  0  0
 40 45  1  0  0  0  0
  8 13  1  0  0  0  0
 18 27  1  0  0  0  0
 49 51  1  0  0  0  0
  7 12  1  0  0  0  0
 39 44  1  0  0  0  0
 17 26  1  0  0  0  0
 25 36  1  0  0  0  0
 25 37  1  0  0  0  0
 25 38  1  0  0  0  0
M  CHG  1  25   1
M  END
$$$$

  -OEChem-02062319033D

 54 53  0     1  0  0  0  0  0999 V2000
    2.6714    2.8829   -3.0005 C   0  0  0  0  0  0  0  0  0  0  0  0
    3.1741    2.4398   -1.9745 O   0  0  0  0  0  0  0  0  0  0  0  0
    3.5527    3.3077   -4.1279 C   0  0  0  0  0  0  0  0  0  0  0  0
    3.8407    4.3691   -4.0597 H   0  0  0  0  0  0  0  0  0  0  0  0
    4.5024    2.7495   -4.1526 H   0  0  0  0  0  0  0  0  0  0  0  0
    3.1208    3.1887   -5.1345 H   0  0  0  0  0  0  0  0  0  0  0  0
    1.3174    3.0407   -3.2467 N   0  0  0  0  0  0  0  0  0  0  0  0
    0.2944    2.6927   -2.2960 C   0  0  2  0  0  0  0  0  0  0  0  0
    0.2976    1.1783   -2.1349 C   0  0  0  0  0  0  0  0  0  0  0  0
    0.7500    0.4142   -2.9850 O   0  0  0  0  0  0  0  0  0  0  0  0
   -1.0710    3.1886   -2.7460 C   0  0  0  0  0  0  0  0  0  0  0  0
    1.0312    3.4224   -4.1464 H   0  0  0  0  0  0  0  0  0  0  0  0
    0.5725    3.1622   -1.3461 H   0  0  0  0  0  0  0  0  0  0  0  0
   -1.3666    2.7292   -3.6963 H   0  0  0  0  0  0  0  0  0  0  0  0
   -1.8434    2.9482   -2.0082 H   0  0  0  0  0  0  0  0  0  0  0  0
   -1.0632    4.2744   -2.8901 H   0  0  0  0  0  0  0  0  0  0  0  0
   -0.3037    0.7742   -0.9484 N   0  0  0  0  0  0  0  0  0  0  0  0
   -0.8579    1.7037    0.0017 C   0  0  2  0  0  0  0  0  0  0  0  0
    0.2498    2.6356    0.4821 C   0  0  0  0  0  0  0  0  0  0  0  0
    0.0978    3.8492    0.6063 O   0  0  0  0  0  0  0  0  0  0  0  0
   -1.5753    0.9880    1.1524 C   0  0  0  0  0  0  0  0  0  0  0  0
   -2.8590    0.2596    0.7332 C   0  0  0  0  0  0  0  0  0  0  0  0
   -3.5322   -0.4089    1.9341 C   0  0  0  0  0  0  0  0  0  0  0  0
   -4.7915   -1.1507    1.5108 C   0  0  0  0  0  0  0  0  0  0  0  0
   -5.3950   -1.8008    2.6988 N   0  3  0  0  0  0  0  0  0  0  0  0
   -0.3940   -0.2205   -0.7528 H   0  0  0  0  0  0  0  0  0  0  0  0
   -1.5869    2.3038   -0.5561 H   0  0  0  0  0  0  0  0  0  0  0  0
   -0.8862    0.2605    1.6006 H   0  0  0  0  0  0  0  0  0  0  0  0
   -1.8203    1.7141    1.9373 H   0  0  0  0  0  0  0  0  0  0  0  0
   -3.5596    0.9685    0.2768 H   0  0  0  0  0  0  0  0  0  0  0  0
   -2.6288   -0.5016   -0.0213 H   0  0  0  0  0  0  0  0  0  0  0  0
   -3.7831    0.3510    2.6846 H   0  0  0  0  0  0  0  0  0  0  0  0
   -2.8305   -1.1076    2.4066 H   0  0  0  0  0  0  0  0  0  0  0  0
   -5.5474   -0.4744    1.1008 H   0  0  0  0  0  0  0  0  0  0  0  0
   -4.5768   -1.9445    0.7892 H   0  0  0  0  0  0  0  0  0  0  0  0
   -6.0292   -2.5579    2.4214 H   0  0  0  0  0  0  0  0  0  0  0  0
   -5.9333   -1.1257    3.2531 H   0  0  0  0  0  0  0  0  0  0  0  0
   -4.6715   -2.2018    3.3059 H   0  0  0  0  0  0  0  0  0  0  0  0
    1.4174    1.9512    0.7876 N   0  0  0  0  0  0  0  0  0  0  0  0
    2.5970    2.6231    1.2781 C   0  0  2  0  0  0  0  0  0  0  0  0
    3.7621    1.6454    1.1995 C   0  0  0  0  0  0  0  0  0  0  0  0
    3.6135    0.4255    1.1731 O   0  0  0  0  0  0  0  0  0  0  0  0
    2.3993    3.1197    2.7018 C   0  0  0  0  0  0  0  0  0  0  0  0
    1.4429    0.9436    0.6620 H   0  0  0  0  0  0  0  0  0  0  0  0
    2.7824    3.4679    0.6057 H   0  0  0  0  0  0  0  0  0  0  0  0
    2.2124    2.2874    3.3901 H   0  0  0  0  0  0  0  0  0  0  0  0
    3.2845    3.6541    3.0622 H   0  0  0  0  0  0  0  0  0  0  0  0
    1.5426    3.7996    2.7620 H   0  0  0  0  0  0  0  0  0  0  0  0
    4.9891    2.2941    1.2058 N   0  0  0  0  0  0  0  0  0  0  0  0
    6.2461    1.5850    1.1515 C   0  0  0  0  0  0  0  0  0  0  0  0
    5.0175    3.3094    1.2102 H   0  0  0  0  0  0  0  0  0  0  0  0
    6.6073    1.3990    2.1737 H   0  0  0  0  0  0  0  0  0  0  0  0
    6.1036    0.6254    0.6328 H   0  0  0  0  0  0  0  0  0  0  0  0
    6.9852    2.1903    0.6061 H   0  0  0  0  0  0  0  0  0  0  0  0
  1  3  1  0  0  0  0
  1  7  1  0  0  0  0
  1  2  2  0  0  0  0
 40 41  1  0  0  0  0
 41 49  1  0  0  0  0
 41 42  2  0  0  0  0
  8  9  1  0  0  0  0
  9 17  1  0  0  0  0
  9 10  2  0  0  0  0
 18 19  1  0  0  0  0
 19 39  1  0  0  0  0
 19 20  2  0  0  0  0
 40 43  1  0  0  0  0
  8 11  1  0  0  0  0
 49 50  1  0  0  0  0
 22 23  1  0  0  0  0
 21 22  1  0  0  0  0
 23 24  1  0  0  0  0
 18 21  1  0  0  0  0
 24 25  1  0  0  0  0
 39 40  1  0  0  0  0
  7  8  1  0  0  0  0
 17 18  1  0  0  0  0
  3  4  1  0  0  0  0
  3  5  1  0  0  0  0
  3  6  1  0  0  0  0
 43 46  1  0  0  0  0
 43 47  1  0  0  0  0
 43 48  1  0  0  0  0
 11 14  1  0  0  0  0
 11 15  1  0  0  0  0
 11 16  1  0  0  0  0
 50 52  1  0  0  0  0
 50 53  1  0  0  0  0
 50 54  1  0  0  0  0
 22 30  1  0  0  0  0
 22 31  1  0  0  0  0
 23 32  1  0  0  0  0
 23 33  1  0  0  0  0
 21 28  1  0  0  0  0
 21 29  1  0  0  0  0
 24 34  1  0  0  0  0
 24 35  1  0  0  0  0
 40 45  1  0  0  0  0
  8 13  1  0  0  0  0
 18 27  1  0  0  0  0
 49 51  1  0  0  0  0
  7 12  1  0  0  0  0
 39 44  1  0  0  0  0
 17 26  1  0  0  0  0
 25 36  1  0  0  0  0
 25 37  1  0  0  0  0
 25 38  1  0  0  0  0
M  CHG  1  25   1
M  END
$$$$

  -OEChem-02062319033D

 54 53  0     1  0  0  0  0  0999 V2000
    2.6714    2.8829   -3.0005 C   0  0  0  0  0  0  0  0  0  0  0  0
    3.1741    2.4398   -1.9745 O   0  0  0  0  0  0  0  0  0  0  0  0
    3.5527    3.3077   -4.1279 C   0  0  0  0  0  0  0  0  0  0  0  0
    3.8407    4.3691   -4.0597 H   0  0  0  0  0  0  0  0  0  0  0  0
    4.5024    2.7495   -4.1526 H   0  0  0  0  0  0  0  0  0  0  0  0
    3.1208    3.1887   -5.1345 H   0  0  0  0  0  0  0  0  0  0  0  0
    1.3174    3.0407   -3.2467 N   0  0  0  0  0  0  0  0  0  0  0  0
    0.2944    2.6927   -2.2960 C   0  0  2  0  0  0  0  0  0  0  0  0
    0.2976    1.1783   -2.1349 C   0  0  0  0  0  0  0  0  0  0  0  0
    0.7500    0.4142   -2.9850 O   0  0  0  0  0  0  0  0  0  0  0  0
   -1.0710    3.1886   -2.7460 C   0  0  0  0  0  0  0  0  0  0  0  0
    1.0312    3.4224   -4.1464 H   0  0  0  0  0  0  0  0  0  0  0  0
    0.5725    3.1622   -1.3461 H   0  0  0  0  0  0  0  0  0  0  0  0
   -1.3666    2.7292   -3.6963 H   0  0  0  0  0  0  0  0  0  0  0  0
   -1.8434    2.9482   -2.0082 H   0  0  0  0  0  0  0  0  0  0  0  0
   -1.0632    4.2744   -2.8901 H   0  0  0  0  0  0  0  0  0  0  0  0
   -0.3037    0.7742   -0.9484 N   0  0  0  0  0  0  0  0  0  0  0  0
   -1.1273    1.6482   -0.1537 C   0  0  2  0  0  0  0  0  0  0  0  0
   -0.2943    2.8502    0.2795 C   0  0  0  0  0  0  0  0  0  0  0  0
   -0.7159    4.0046    0.2469 O   0  0  0  0  0  0  0  0  0  0  0  0
   -1.7708    0.9123    1.0276 C   0  0  0  0  0  0  0  0  0  0  0  0
   -2.8244   -0.1257    0.6195 C   0  0  0  0  0  0  0  0  0  0  0  0
   -3.4396   -0.8008    1.8476 C   0  0  0  0  0  0  0  0  0  0  0  0
   -4.4661   -1.8467    1.4386 C   0  0  0  0  0  0  0  0  0  0  0  0
   -5.0164   -2.4896    2.6561 N   0  3  0  0  0  0  0  0  0  0  0  0
   -0.1932   -0.1895   -0.6405 H   0  0  0  0  0  0  0  0  0  0  0  0
   -1.9172    2.0077   -0.8242 H   0  0  0  0  0  0  0  0  0  0  0  0
   -0.9825    0.4091    1.6024 H   0  0  0  0  0  0  0  0  0  0  0  0
   -2.2353    1.6419    1.7025 H   0  0  0  0  0  0  0  0  0  0  0  0
   -3.6191    0.3560    0.0381 H   0  0  0  0  0  0  0  0  0  0  0  0
   -2.3694   -0.8895   -0.0219 H   0  0  0  0  0  0  0  0  0  0  0  0
   -3.9140   -0.0433    2.4840 H   0  0  0  0  0  0  0  0  0  0  0  0
   -2.6475   -1.2707    2.4438 H   0  0  0  0  0  0  0  0  0  0  0  0
   -5.3116   -1.4042    0.9036 H   0  0  0  0  0  0  0  0  0  0  0  0
   -4.0221   -2.6421    0.8327 H   0  0  0  0  0  0  0  0  0  0  0  0
   -5.4447   -3.3946    2.4327 H   0  0  0  0  0  0  0  0  0  0  0  0
   -5.7347   -1.8994    3.0902 H   0  0  0  0  0  0  0  0  0  0  0  0
   -4.2794   -2.6523    3.3511 H   0  0  0  0  0  0  0  0  0  0  0  0
    0.9623    2.4816    0.7377 N   0  0  0  0  0  0  0  0  0  0  0  0
    1.9207    3.4491    1.2166 C   0  0  2  0  0  0  0  0  0  0  0  0
    3.2722    2.7561    1.3294 C   0  0  0  0  0  0  0  0  0  0  0  0
    3.3942    1.5380    1.4408 O   0  0  0  0  0  0  0  0  0  0  0  0
    1.4959    4.0330    2.5550 C   0  0  0  0  0  0  0  0  0  0  0  0
    1.2165    1.4983    0.7361 H   0  0  0  0  0  0  0  0  0  0  0  0
    1.9769    4.2396    0.4604 H   0  0  0  0  0  0  0  0  0  0  0  0
    1.4339    3.2557    3.3254 H   0  0  0  0  0  0  0  0  0  0  0  0
    2.2092    4.7873    2.9032 H   0  0  0  0  0  0  0  0  0  0  0  0
    0.5103    4.5049    2.4791 H   0  0  0  0  0  0  0  0  0  0  0  0
    4.3241    3.6614    1.3345 N   0  0  0  0  0  0  0  0  0  0  0  0
    5.7047    3.2519    1.4448 C   0  0  0  0  0  0  0  0  0  0  0  0
    4.1314    4.6520    1.2184 H   0  0  0  0  0  0  0  0  0  0  0  0
    6.0064    3.2588    2.5026 H   0  0  0  0  0  0  0  0  0  0  0  0
    5.8195    2.2365    1.0376 H   0  0  0  0  0  0  0  0  0  0  0  0
    6.3400    3.9483    0.8779 H   0  0  0  0  0  0  0  0  0  0  0  0
  1  3  1  0  0  0  0
  1  7  1  0  0  0  0
  1  2  2  0  0  0  0
 40 41  1  0  0  0  0
 41 49  1  0  0  0  0
 41 42  2  0  0  0  0
  8  9  1  0  0  0  0
  9 17  1  0  0  0  0
  9 10  2  0  0  0  0
 18 19  1  0  0  0  0
 19 39  1  0  0  0  0
 19 20  2  0  0  0  0
 40 43  1  0  0  0  0
  8 11  1  0  0  0  0
 49 50  1  0  0  0  0
 22 23  1  0  0  0  0
 21 22  1  0  0  0  0
 23 24  1  0  0  0  0
 18 21  1  0  0  0  0
 24 25  1  0  0  0  0
 39 40  1  0  0  0  0
  7  8  1  0  0  0  0
 17 18  1  0  0  0  0
  3  4  1  0  0  0  0
  3  5  1  0  0  0  0
  3  6  1  0  0  0  0
 43 46  1  0  0  0  0
 43 47  1  0  0  0  0
 43 48  1  0  0  0  0
 11 14  1  0  0  0  0
 11 15  1  0  0  0  0
 11 16  1  0  0  0  0
 50 52  1  0  0  0  0
 50 53  1  0  0  0  0
 50 54  1  0  0  0  0
 22 30  1  0  0  0  0
 22 31  1  0  0  0  0
 23 32  1  0  0  0  0
 23 33  1  0  0  0  0
 21 28  1  0  0  0  0
 21 29  1  0  0  0  0
 24 34  1  0  0  0  0
 24 35  1  0  0  0  0
 40 45  1  0  0  0  0
  8 13  1  0  0  0  0
 18 27  1  0  0  0  0
 49 51  1  0  0  0  0
  7 12  1  0  0  0  0
 39 44  1  0  0  0  0
 17 26  1  0  0  0  0
 25 36  1  0  0  0  0
 25 37  1  0  0  0  0
 25 38  1  0  0  0  0
M  CHG  1  25   1
M  END
$$$$

  -OEChem-02062319033D

 54 53  0     1  0  0  0  0  0999 V2000
    2.6714    2.8829   -3.0005 C   0  0  0  0  0  0  0  0  0  0  0  0
    3.1741    2.4398   -1.9745 O   0  0  0  0  0  0  0  0  0  0  0  0
    3.5527    3.3077   -4.1279 C   0  0  0  0  0  0  0  0  0  0  0  0
    3.8407    4.3691   -4.0597 H   0  0  0  0  0  0  0  0  0  0  0  0
    4.5024    2.7495   -4.1526 H   0  0  0  0  0  0  0  0  0  0  0  0
    3.1208    3.1887   -5.1345 H   0  0  0  0  0  0  0  0  0  0  0  0
    1.3174    3.0407   -3.2467 N   0  0  0  0  0  0  0  0  0  0  0  0
    0.2944    2.6927   -2.2960 C   0  0  2  0  0  0  0  0  0  0  0  0
    0.2976    1.1783   -2.1349 C   0  0  0  0  0  0  0  0  0  0  0  0
    0.7500    0.4142   -2.9850 O   0  0  0  0  0  0  0  0  0  0  0  0
   -1.0710    3.1886   -2.7460 C   0  0  0  0  0  0  0  0  0  0  0  0
    1.0312    3.4224   -4.1464 H   0  0  0  0  0  0  0  0  0  0  0  0
    0.5725    3.1622   -1.3461 H   0  0  0  0  0  0  0  0  0  0  0  0
   -1.3666    2.7292   -3.6963 H   0  0  0  0  0  0  0  0  0  0  0  0
   -1.8434    2.9482   -2.0082 H   0  0  0  0  0  0  0  0  0  0  0  0
   -1.0632    4.2744   -2.8901 H   0  0  0  0  0  0  0  0  0  0  0  0
   -0.3037    0.7742   -0.9484 N   0  0  0  0  0  0  0  0  0  0  0  0
   -1.3636    1.5177   -0.3178 C   0  0  2  0  0  0  0  0  0  0  0  0
   -0.8521    2.9146    0.0188 C   0  0  0  0  0  0  0  0  0  0  0  0
   -1.5092    3.9347   -0.1789 O   0  0  0  0  0  0  0  0  0  0  0  0
   -1.9336    0.7821    0.9007 C   0  0  0  0  0  0  0  0  0  0  0  0
   -2.6973   -0.5030    0.5555 C   0  0  0  0  0  0  0  0  0  0  0  0
   -3.2571   -1.1685    1.8149 C   0  0  0  0  0  0  0  0  0  0  0  0
   -3.9927   -2.4553    1.4713 C   0  0  0  0  0  0  0  0  0  0  0  0
   -4.4953   -3.0760    2.7205 N   0  3  0  0  0  0  0  0  0  0  0  0
   -0.0146   -0.1027   -0.5204 H   0  0  0  0  0  0  0  0  0  0  0  0
   -2.1506    1.6187   -1.0750 H   0  0  0  0  0  0  0  0  0  0  0  0
   -1.1086    0.5316    1.5802 H   0  0  0  0  0  0  0  0  0  0  0  0
   -2.6025    1.4542    1.4525 H   0  0  0  0  0  0  0  0  0  0  0  0
   -3.5233   -0.2755   -0.1284 H   0  0  0  0  0  0  0  0  0  0  0  0
   -2.0332   -1.2069    0.0404 H   0  0  0  0  0  0  0  0  0  0  0  0
   -3.9383   -0.4757    2.3244 H   0  0  0  0  0  0  0  0  0  0  0  0
   -2.4375   -1.3837    2.5118 H   0  0  0  0  0  0  0  0  0  0  0  0
   -4.8636   -2.2723    0.8350 H   0  0  0  0  0  0  0  0  0  0  0  0
   -3.3355   -3.1886    0.9946 H   0  0  0  0  0  0  0  0  0  0  0  0
   -4.6961   -4.0723    2.5812 H   0  0  0  0  0  0  0  0  0  0  0  0
   -5.3598   -2.6210    3.0345 H   0  0  0  0  0  0  0  0  0  0  0  0
   -3.8046   -2.9957    3.4748 H   0  0  0  0  0  0  0  0  0  0  0  0
    0.4093    2.8879    0.5959 N   0  0  0  0  0  0  0  0  0  0  0  0
    1.0895    4.0905    1.0139 C   0  0  2  0  0  0  0  0  0  0  0  0
    2.5438    3.7352    1.2938 C   0  0  0  0  0  0  0  0  0  0  0  0
    2.9166    2.5941    1.5585 O   0  0  0  0  0  0  0  0  0  0  0  0
    0.4325    4.6991    2.2430 C   0  0  0  0  0  0  0  0  0  0  0  0
    0.8696    1.9923    0.7286 H   0  0  0  0  0  0  0  0  0  0  0  0
    1.0394    4.7909    0.1731 H   0  0  0  0  0  0  0  0  0  0  0  0
    0.4730    4.0118    3.0960 H   0  0  0  0  0  0  0  0  0  0  0  0
    0.9321    5.6265    2.5419 H   0  0  0  0  0  0  0  0  0  0  0  0
   -0.6213    4.9265    2.0493 H   0  0  0  0  0  0  0  0  0  0  0  0
    3.3700    4.8497    1.2557 N   0  0  0  0  0  0  0  0  0  0  0  0
    4.7914    4.7753    1.5008 C   0  0  0  0  0  0  0  0  0  0  0  0
    2.9783    5.7539    1.0094 H   0  0  0  0  0  0  0  0  0  0  0  0
    4.9903    4.9594    2.5669 H   0  0  0  0  0  0  0  0  0  0  0  0
    5.1587    3.7753    1.2268 H   0  0  0  0  0  0  0  0  0  0  0  0
    5.3080    5.5344    0.8951 H   0  0  0  0  0  0  0  0  0  0  0  0
  1  3  1  0  0  0  0
  1  7  1  0  0  0  0
  1  2  2  0  0  0  0
 40 41  1  0  0  0  0
 41 49  1  0  0  0  0
 41 42  2  0  0  0  0
  8  9  1  0  0  0  0
  9 17  1  0  0  0  0
  9 10  2  0  0  0  0
 18 19  1  0  0  0  0
 19 39  1  0  0  0  0
 19 20  2  0  0  0  0
 40 43  1  0  0  0  0
  8 11  1  0  0  0  0
 49 50  1  0  0  0  0
 22 23  1  0  0  0  0
 21 22  1  0  0  0  0
 23 24  1  0  0  0  0
 18 21  1  0  0  0  0
 24 25  1  0  0  0  0
 39 40  1  0  0  0  0
  7  8  1  0  0  0  0
 17 18  1  0  0  0  0
  3  4  1  0  0  0  0
  3  5  1  0  0  0  0
  3  6  1  0  0  0  0
 43 46  1  0  0  0  0
 43 47  1  0  0  0  0
 43 48  1  0  0  0  0
 11 14  1  0  0  0  0
 11 15  1  0  0  0  0
 11 16  1  0  0  0  0
 50 52  1  0  0  0  0
 50 53  1  0  0  0  0
 50 54  1  0  0  0  0
 22 30  1  0  0  0  0
 22 31  1  0  0  0  0
 23 32  1  0  0  0  0
 23 33  1  0  0  0  0
 21 28  1  0  0  0  0
 21 29  1  0  0  0  0
 24 34  1  0  0  0  0
 24 35  1  0  0  0  0
 40 45  1  0  0  0  0
  8 13  1  0  0  0  0
 18 27  1  0  0  0  0
 49 51  1  0  0  0  0
  7 12  1  0  0  0  0
 39 44  1  0  0  0  0
 17 26  1  0  0  0  0
 25 36  1  0  0  0  0
 25 37  1  0  0  0  0
 25 38  1  0  0  0  0
M  CHG  1  25   1
M  END
$$$$

  -OEChem-02062319033D

 54 53  0     1  0  0  0  0  0999 V2000
    2.6714    2.8829   -3.0005 C   0  0  0  0  0  0  0  0  0  0  0  0
    3.1741    2.4398   -1.9745 O   0  0  0  0  0  0  0  0  0  0  0  0
    3.5527    3.3077   -4.1279 C   0  0  0  0  0  0  0  0  0  0  0  0
    3.8407    4.3691   -4.0597 H   0  0  0  0  0  0  0  0  0  0  0  0
    4.5024    2.7495   -4.1526 H   0  0  0  0  0  0  0  0  0  0  0  0
    3.1208    3.1887   -5.1345 H   0  0  0  0  0  0  0  0  0  0  0  0
    1.3174    3.0407   -3.2467 N   0  0  0  0  0  0  0  0  0  0  0  0
    0.2944    2.6927   -2.2960 C   0  0  2  0  0  0  0  0  0  0  0  0
    0.2976    1.1783   -2.1349 C   0  0  0  0  0  0  0  0  0  0  0  0
    0.7500    0.4142   -2.9850 O   0  0  0  0  0  0  0  0  0  0  0  0
   -1.0710    3.1886   -2.7460 C   0  0  0  0  0  0  0  0  0  0  0  0
    1.0312    3.4224   -4.1464 H   0  0  0  0  0  0  0  0  0  0  0  0
    0.5725    3.1622   -1.3461 H   0  0  0  0  0  0  0  0  0  0  0  0
   -1.3666    2.7292   -3.6963 H   0  0  0  0  0  0  0  0  0  0  0  0
   -1.8434    2.9482   -2.0082 H   0  0  0  0  0  0  0  0  0  0  0  0
   -1.0632    4.2744   -2.8901 H   0  0  0  0  0  0  0  0  0  0  0  0
   -0.3037    0.7742   -0.9484 N   0  0  0  0  0  0  0  0  0  0  0  0
   -1.5506    1.3211   -0.4796 C   0  0  2  0  0  0  0  0  0  0  0  0
   -1.3855    2.8244   -0.2822 C   0  0  0  0  0  0  0  0  0  0  0  0
   -2.2280    3.6442   -0.6420 O   0  0  0  0  0  0  0  0  0  0  0  0
   -2.0525    0.6062    0.7806 C   0  0  0  0  0  0  0  0  0  0  0  0
   -2.4864   -0.8466    0.5453 C   0  0  0  0  0  0  0  0  0  0  0  0
   -2.9971   -1.4870    1.8382 C   0  0  0  0  0  0  0  0  0  0  0  0
   -3.4034   -2.9349    1.6066 C   0  0  0  0  0  0  0  0  0  0  0  0
   -3.8674   -3.5201    2.8874 N   0  3  0  0  0  0  0  0  0  0  0  0
    0.1298    0.0340   -0.4007 H   0  0  0  0  0  0  0  0  0  0  0  0
   -2.2712    1.1634   -1.2912 H   0  0  0  0  0  0  0  0  0  0  0  0
   -1.2558    0.6195    1.5356 H   0  0  0  0  0  0  0  0  0  0  0  0
   -2.8969    1.1638    1.2044 H   0  0  0  0  0  0  0  0  0  0  0  0
   -3.2787   -0.8829   -0.2113 H   0  0  0  0  0  0  0  0  0  0  0  0
   -1.6429   -1.4322    0.1614 H   0  0  0  0  0  0  0  0  0  0  0  0
   -3.8543   -0.9165    2.2169 H   0  0  0  0  0  0  0  0  0  0  0  0
   -2.2147   -1.4388    2.6058 H   0  0  0  0  0  0  0  0  0  0  0  0
   -4.2340   -3.0195    0.8995 H   0  0  0  0  0  0  0  0  0  0  0  0
   -2.5637   -3.5466    1.2637 H   0  0  0  0  0  0  0  0  0  0  0  0
   -3.8345   -4.5450    2.8568 H   0  0  0  0  0  0  0  0  0  0  0  0
   -4.8340   -3.2415    3.0896 H   0  0  0  0  0  0  0  0  0  0  0  0
   -3.2793   -3.2088    3.6684 H   0  0  0  0  0  0  0  0  0  0  0  0
   -0.2039    3.1424    0.3718 N   0  0  0  0  0  0  0  0  0  0  0  0
    0.1603    4.5039    0.6838 C   0  0  2  0  0  0  0  0  0  0  0  0
    1.6267    4.5161    1.0950 C   0  0  0  0  0  0  0  0  0  0  0  0
    2.2130    3.5219    1.5179 O   0  0  0  0  0  0  0  0  0  0  0  0
   -0.7183    5.0727    1.7871 C   0  0  0  0  0  0  0  0  0  0  0  0
    0.4260    2.3921    0.6400 H   0  0  0  0  0  0  0  0  0  0  0  0
    0.0336    5.0840   -0.2367 H   0  0  0  0  0  0  0  0  0  0  0  0
   -0.6050    4.5043    2.7175 H   0  0  0  0  0  0  0  0  0  0  0  0
   -0.4597    6.1146    2.0028 H   0  0  0  0  0  0  0  0  0  0  0  0
   -1.7752    5.0357    1.5018 H   0  0  0  0  0  0  0  0  0  0  0  0
    2.1919    5.7779    0.9748 N   0  0  0  0  0  0  0  0  0  0  0  0
    3.5685    6.0512    1.3157 C   0  0  0  0  0  0  0  0  0  0  0  0
    1.6367    6.5402    0.5974 H   0  0  0  0  0  0  0  0  0  0  0  0
    3.6284    6.3847    2.3622 H   0  0  0  0  0  0  0  0  0  0  0  0
    4.1663    5.1368    1.1876 H   0  0  0  0  0  0  0  0  0  0  0  0
    3.9596    6.8403    0.6566 H   0  0  0  0  0  0  0  0  0  0  0  0
  1  3  1  0  0  0  0
  1  7  1  0  0  0  0
  1  2  2  0  0  0  0
 40 41  1  0  0  0  0
 41 49  1  0  0  0  0
 41 42  2  0  0  0  0
  8  9  1  0  0  0  0
  9 17  1  0  0  0  0
  9 10  2  0  0  0  0
 18 19  1  0  0  0  0
 19 39  1  0  0  0  0
 19 20  2  0  0  0  0
 40 43  1  0  0  0  0
  8 11  1  0  0  0  0
 49 50  1  0  0  0  0
 22 23  1  0  0  0  0
 21 22  1  0  0  0  0
 23 24  1  0  0  0  0
 18 21  1  0  0  0  0
 24 25  1  0  0  0  0
 39 40  1  0  0  0  0
  7  8  1  0  0  0  0
 17 18  1  0  0  0  0
  3  4  1  0  0  0  0
  3  5  1  0  0  0  0
  3  6  1  0  0  0  0
 43 46  1  0  0  0  0
 43 47  1  0  0  0  0
 43 48  1  0  0  0  0
 11 14  1  0  0  0  0
 11 15  1  0  0  0  0
 11 16  1  0  0  0  0
 50 52  1  0  0  0  0
 50 53  1  0  0  0  0
 50 54  1  0  0  0  0
 22 30  1  0  0  0  0
 22 31  1  0  0  0  0
 23 32  1  0  0  0  0
 23 33  1  0  0  0  0
 21 28  1  0  0  0  0
 21 29  1  0  0  0  0
 24 34  1  0  0  0  0
 24 35  1  0  0  0  0
 40 45  1  0  0  0  0
  8 13  1  0  0  0  0
 18 27  1  0  0  0  0
 49 51  1  0  0  0  0
  7 12  1  0  0  0  0
 39 44  1  0  0  0  0
 17 26  1  0  0  0  0
 25 36  1  0  0  0  0
 25 37  1  0  0  0  0
 25 38  1  0  0  0  0
M  CHG  1  25   1
M  END
$$$$

  -OEChem-02062319033D

 54 53  0     1  0  0  0  0  0999 V2000
    2.6714    2.8829   -3.0005 C   0  0  0  0  0  0  0  0  0  0  0  0
    3.1741    2.4398   -1.9745 O   0  0  0  0  0  0  0  0  0  0  0  0
    3.5527    3.3077   -4.1279 C   0  0  0  0  0  0  0  0  0  0  0  0
    3.8407    4.3691   -4.0597 H   0  0  0  0  0  0  0  0  0  0  0  0
    4.5024    2.7495   -4.1526 H   0  0  0  0  0  0  0  0  0  0  0  0
    3.1208    3.1887   -5.1345 H   0  0  0  0  0  0  0  0  0  0  0  0
    1.3174    3.0407   -3.2467 N   0  0  0  0  0  0  0  0  0  0  0  0
    0.2944    2.6927   -2.2960 C   0  0  2  0  0  0  0  0  0  0  0  0
    0.2976    1.1783   -2.1349 C   0  0  0  0  0  0  0  0  0  0  0  0
    0.7500    0.4142   -2.9850 O   0  0  0  0  0  0  0  0  0  0  0  0
   -1.0710    3.1886   -2.7460 C   0  0  0  0  0  0  0  0  0  0  0  0
    1.0312    3.4224   -4.1464 H   0  0  0  0  0  0  0  0  0  0  0  0
    0.5725    3.1622   -1.3461 H   0  0  0  0  0  0  0  0  0  0  0  0
   -1.3666    2.7292   -3.6963 H   0  0  0  0  0  0  0  0  0  0  0  0
   -1.8434    2.9482   -2.0082 H   0  0  0  0  0  0  0  0  0  0  0  0
   -1.0632    4.2744   -2.8901 H   0  0  0  0  0  0  0  0  0  0  0  0
   -0.3037    0.7742   -0.9484 N   0  0  0  0  0  0  0  0  0  0  0  0
   -1.6757    1.0717   -0.6279 C   0  0  2  0  0  0  0  0  0  0  0  0
   -1.8581    2.5858   -0.6029 C   0  0  0  0  0  0  0  0  0  0  0  0
   -2.8233    3.1531   -1.1109 O   0  0  0  0  0  0  0  0  0  0  0  0
   -2.1195    0.3965    0.6752 C   0  0  0  0  0  0  0  0  0  0  0  0
   -2.2060   -1.1330    0.5899 C   0  0  0  0  0  0  0  0  0  0  0  0
   -2.6773   -1.7346    1.9159 C   0  0  0  0  0  0  0  0  0  0  0  0
   -2.7384   -3.2528    1.8353 C   0  0  0  0  0  0  0  0  0  0  0  0
   -3.1752   -3.7917    3.1457 N   0  3  0  0  0  0  0  0  0  0  0  0
    0.2301    0.2114   -0.2895 H   0  0  0  0  0  0  0  0  0  0  0  0
   -2.2709    0.6727   -1.4581 H   0  0  0  0  0  0  0  0  0  0  0  0
   -1.4140    0.6670    1.4716 H   0  0  0  0  0  0  0  0  0  0  0  0
   -3.0985    0.7904    0.9751 H   0  0  0  0  0  0  0  0  0  0  0  0
   -2.9020   -1.4249   -0.2050 H   0  0  0  0  0  0  0  0  0  0  0  0
   -1.2253   -1.5502    0.3328 H   0  0  0  0  0  0  0  0  0  0  0  0
   -3.6676   -1.3357    2.1687 H   0  0  0  0  0  0  0  0  0  0  0  0
   -1.9945   -1.4323    2.7197 H   0  0  0  0  0  0  0  0  0  0  0  0
   -3.4655   -3.5950    1.0929 H   0  0  0  0  0  0  0  0  0  0  0  0
   -1.7593   -3.6918    1.6219 H   0  0  0  0  0  0  0  0  0  0  0  0
   -2.9185   -4.7804    3.2408 H   0  0  0  0  0  0  0  0  0  0  0  0
   -4.1931   -3.7185    3.2519 H   0  0  0  0  0  0  0  0  0  0  0  0
   -2.7395   -3.2768    3.9188 H   0  0  0  0  0  0  0  0  0  0  0  0
   -0.8355    3.2276    0.0807 N   0  0  0  0  0  0  0  0  0  0  0  0
   -0.8038    4.6609    0.2488 C   0  0  2  0  0  0  0  0  0  0  0  0
    0.5832    5.0455    0.7465 C   0  0  0  0  0  0  0  0  0  0  0  0
    1.3315    4.2581    1.3220 O   0  0  0  0  0  0  0  0  0  0  0  0
   -1.8782    5.1283    1.2183 C   0  0  0  0  0  0  0  0  0  0  0  0
   -0.0842    2.6703    0.4762 H   0  0  0  0  0  0  0  0  0  0  0  0
   -0.9718    5.0992   -0.7410 H   0  0  0  0  0  0  0  0  0  0  0  0
   -1.7265    4.6994    2.2156 H   0  0  0  0  0  0  0  0  0  0  0  0
   -1.8714    6.2183    1.3228 H   0  0  0  0  0  0  0  0  0  0  0  0
   -2.8727    4.8249    0.8739 H   0  0  0  0  0  0  0  0  0  0  0  0
    0.8700    6.3828    0.5110 N   0  0  0  0  0  0  0  0  0  0  0  0
    2.1193    6.9929    0.9020 C   0  0  0  0  0  0  0  0  0  0  0  0
    0.1982    6.9573    0.0105 H   0  0  0  0  0  0  0  0  0  0  0  0
    2.0135    7.4377    1.9025 H   0  0  0  0  0  0  0  0  0  0  0  0
    2.9099    6.2283    0.9226 H   0  0  0  0  0  0  0  0  0  0  0  0
    2.3865    7.7772    0.1785 H   0  0  0  0  0  0  0  0  0  0  0  0
  1  3  1  0  0  0  0
  1  7  1  0  0  0  0
  1  2  2  0  0  0  0
 40 41  1  0  0  0  0
 41 49  1  0  0  0  0
 41 42  2  0  0  0  0
  8  9  1  0  0  0  0
  9 17  1  0  0  0  0
  9 10  2  0  0  0  0
 18 19  1  0  0  0  0
 19 39  1  0  0  0  0
 19 20  2  0  0  0  0
 40 43  1  0  0  0  0
  8 11  1  0  0  0  0
 49 50  1  0  0  0  0
 22 23  1  0  0  0  0
 21 22  1  0  0  0  0
 23 24  1  0  0  0  0
 18 21  1  0  0  0  0
 24 25  1  0  0  0  0
 39 40  1  0  0  0  0
  7  8  1  0  0  0  0
 17 18  1  0  0  0  0
  3  4  1  0  0  0  0
  3  5  1  0  0  0  0
  3  6  1  0  0  0  0
 43 46  1  0  0  0  0
 43 47  1  0  0  0  0
 43 48  1  0  0  0  0
 11 14  1  0  0  0  0
 11 15  1  0  0  0  0
 11 16  1  0  0  0  0
 50 52  1  0  0  0  0
 50 53  1  0  0  0  0
 50 54  1  0  0  0  0
 22 30  1  0  0  0  0
 22 31  1  0  0  0  0
 23 32  1  0  0  0  0
 23 33  1  0  0  0  0
 21 28  1  0  0  0  0
 21 29  1  0  0  0  0
 24 34  1  0  0  0  0
 24 35  1  0  0  0  0
 40 45  1  0  0  0  0
  8 13  1  0  0  0  0
 18 27  1  0  0  0  0
 49 51  1  0  0  0  0
  7 12  1  0  0  0  0
 39 44  1  0  0  0  0
 17 26  1  0  0  0  0
 25 36  1  0  0  0  0
 25 37  1  0  0  0  0
 25 38  1  0  0  0  0
M  CHG  1  25   1
M  END
$$$$

  -OEChem-02062319033D

 54 53  0     1  0  0  0  0  0999 V2000
    2.6714    2.8829   -3.0005 C   0  0  0  0  0  0  0  0  0  0  0  0
    3.1741    2.4398   -1.9745 O   0  0  0  0  0  0  0  0  0  0  0  0
    3.5527    3.3077   -4.1279 C   0  0  0  0  0  0  0  0  0  0  0  0
    3.8407    4.3691   -4.0597 H   0  0  0  0  0  0  0  0  0  0  0  0
    4.5024    2.7495   -4.1526 H   0  0  0  0  0  0  0  0  0  0  0  0
    3.1208    3.1887   -5.1345 H   0  0  0  0  0  0  0  0  0  0  0  0
    1.3174    3.0407   -3.2467 N   0  0  0  0  0  0  0  0  0  0  0  0
    0.2944    2.6927   -2.2960 C   0  0  2  0  0  0  0  0  0  0  0  0
    0.2976    1.1783   -2.1349 C   0  0  0  0  0  0  0  0  0  0  0  0
    0.7500    0.4142   -2.9850 O   0  0  0  0  0  0  0  0  0  0  0  0
   -1.0710    3.1886   -2.7460 C   0  0  0  0  0  0  0  0  0  0  0  0
    1.0312    3.4224   -4.1464 H   0  0  0  0  0  0  0  0  0  0  0  0
    0.5725    3.1622   -1.3461 H   0  0  0  0  0  0  0  0  0  0  0  0
   -1.3666    2.7292   -3.6963 H   0  0  0  0  0  0  0  0  0  0  0  0
   -1.8434    2.9482   -2.0082 H   0  0  0  0  0  0  0  0  0  0  0  0
   -1.0632    4.2744   -2.8901 H   0  0  0  0  0  0  0  0  0  0  0  0
   -0.3037    0.7742   -0.9484 N   0  0  0  0  0  0  0  0  0  0  0  0
   -1.7303    0.7866   -0.7526 C   0  0  2  0  0  0  0  0  0  0  0  0
   -2.2378    2.2150   -0.9216 C   0  0  0  0  0  0  0  0  0  0  0  0
   -3.2545    2.4946   -1.5537 O   0  0  0  0  0  0  0  0  0  0  0  0
   -2.1299    0.1674    0.5919 C   0  0  0  0  0  0  0  0  0  0  0  0
   -1.8752   -1.3427    0.6861 C   0  0  0  0  0  0  0  0  0  0  0  0
   -2.3196   -1.8944    2.0427 C   0  0  0  0  0  0  0  0  0  0  0  0
   -2.0430   -3.3873    2.1418 C   0  0  0  0  0  0  0  0  0  0  0  0
   -2.4661   -3.8722    3.4776 N   0  3  0  0  0  0  0  0  0  0  0  0
    0.2794    0.4173   -0.1944 H   0  0  0  0  0  0  0  0  0  0  0  0
   -2.1497    0.1801   -1.5644 H   0  0  0  0  0  0  0  0  0  0  0  0
   -1.5725    0.6707    1.3925 H   0  0  0  0  0  0  0  0  0  0  0  0
   -3.1935    0.3596    0.7802 H   0  0  0  0  0  0  0  0  0  0  0  0
   -2.4190   -1.8645   -0.1100 H   0  0  0  0  0  0  0  0  0  0  0  0
   -0.8088   -1.5526    0.5431 H   0  0  0  0  0  0  0  0  0  0  0  0
   -3.3911   -1.7048    2.1831 H   0  0  0  0  0  0  0  0  0  0  0  0
   -1.7918   -1.3646    2.8454 H   0  0  0  0  0  0  0  0  0  0  0  0
   -2.6107   -3.9595    1.4020 H   0  0  0  0  0  0  0  0  0  0  0  0
   -0.9772   -3.6143    2.0446 H   0  0  0  0  0  0  0  0  0  0  0  0
   -2.0107   -4.7624    3.7069 H   0  0  0  0  0  0  0  0  0  0  0  0
   -3.4810   -4.0196    3.5102 H   0  0  0  0  0  0  0  0  0  0  0  0
   -2.2218   -3.1953    4.2088 H   0  0  0  0  0  0  0  0  0  0  0  0
   -1.4426    3.1378   -0.2575 N   0  0  0  0  0  0  0  0  0  0  0  0
   -1.7370    4.5509   -0.2615 C   0  0  2  0  0  0  0  0  0  0  0  0
   -0.5154    5.2874    0.2722 C   0  0  0  0  0  0  0  0  0  0  0  0
    0.3322    4.7526    0.9840 O   0  0  0  0  0  0  0  0  0  0  0  0
   -2.9680    4.8621    0.5755 C   0  0  0  0  0  0  0  0  0  0  0  0
   -0.6260    2.8080    0.2485 H   0  0  0  0  0  0  0  0  0  0  0  0
   -1.9084    4.8353   -1.3055 H   0  0  0  0  0  0  0  0  0  0  0  0
   -2.8152    4.5840    1.6246 H   0  0  0  0  0  0  0  0  0  0  0  0
   -3.2067    5.9304    0.5482 H   0  0  0  0  0  0  0  0  0  0  0  0
   -3.8390    4.3086    0.2084 H   0  0  0  0  0  0  0  0  0  0  0  0
   -0.5056    6.6232   -0.1042 N   0  0  0  0  0  0  0  0  0  0  0  0
    0.5427    7.5360    0.2880 C   0  0  0  0  0  0  0  0  0  0  0  0
   -1.2392    6.9766   -0.7113 H   0  0  0  0  0  0  0  0  0  0  0  0
    0.2555    8.0467    1.2190 H   0  0  0  0  0  0  0  0  0  0  0  0
    1.4752    6.9755    0.4500 H   0  0  0  0  0  0  0  0  0  0  0  0
    0.6961    8.2811   -0.5065 H   0  0  0  0  0  0  0  0  0  0  0  0
  1  3  1  0  0  0  0
  1  7  1  0  0  0  0
  1  2  2  0  0  0  0
 40 41  1  0  0  0  0
 41 49  1  0  0  0  0
 41 42  2  0  0  0  0
  8  9  1  0  0  0  0
  9 17  1  0  0  0  0
  9 10  2  0  0  0  0
 18 19  1  0  0  0  0
 19 39  1  0  0  0  0
 19 20  2  0  0  0  0
 40 43  1  0  0  0  0
  8 11  1  0  0  0  0
 49 50  1  0  0  0  0
 22 23  1  0  0  0  0
 21 22  1  0  0  0  0
 23 24  1  0  0  0  0
 18 21  1  0  0  0  0
 24 25  1  0  0  0  0
 39 40  1  0  0  0  0
  7  8  1  0  0  0  0
 17 18  1  0  0  0  0
  3  4  1  0  0  0  0
  3  5  1  0  0  0  0
  3  6  1  0  0  0  0
 43 46  1  0  0  0  0
 43 47  1  0  0  0  0
 43 48  1  0  0  0  0
 11 14  1  0  0  0  0
 11 15  1  0  0  0  0
 11 16  1  0  0  0  0
 50 52  1  0  0  0  0
 50 53  1  0  0  0  0
 50 54  1  0  0  0  0
 22 30  1  0  0  0  0
 22 31  1  0  0  0  0
 23 32  1  0  0  0  0
 23 33  1  0  0  0  0
 21 28  1  0  0  0  0
 21 29  1  0  0  0  0
 24 34  1  0  0  0  0
 24 35  1  0  0  0  0
 40 45  1  0  0  0  0
  8 13  1  0  0  0  0
 18 27  1  0  0  0  0
 49 51  1  0  0  0  0
  7 12  1  0  0  0  0
 39 44  1  0  0  0  0
 17 26  1  0  0  0  0
 25 36  1  0  0  0  0
 25 37  1  0  0  0  0
 25 38  1  0  0  0  0
M  CHG  1  25   1
M  END
$$$$

  -OEChem-02062319033D

 54 53  0     1  0  0  0  0  0999 V2000
    2.6714    2.8829   -3.0005 C   0  0  0  0  0  0  0  0  0  0  0  0
    3.1741    2.4398   -1.9745 O   0  0  0  0  0  0  0  0  0  0  0  0
    3.5527    3.3077   -4.1279 C   0  0  0  0  0  0  0  0  0  0  0  0
    3.8407    4.3691   -4.0597 H   0  0  0  0  0  0  0  0  0  0  0  0
    4.5024    2.7495   -4.1526 H   0  0  0  0  0  0  0  0  0  0  0  0
    3.1208    3.1887   -5.1345 H   0  0  0  0  0  0  0  0  0  0  0  0
    1.3174    3.0407   -3.2467 N   0  0  0  0  0  0  0  0  0  0  0  0
    0.2944    2.6927   -2.2960 C   0  0  2  0  0  0  0  0  0  0  0  0
    0.2976    1.1783   -2.1349 C   0  0  0  0  0  0  0  0  0  0  0  0
    0.7500    0.4142   -2.9850 O   0  0  0  0  0  0  0  0  0  0  0  0
   -1.0710    3.1886   -2.7460 C   0  0  0  0  0  0  0  0  0  0  0  0
    1.0312    3.4224   -4.1464 H   0  0  0  0  0  0  0  0  0  0  0  0
    0.5725    3.1622   -1.3461 H   0  0  0  0  0  0  0  0  0  0  0  0
   -1.3666    2.7292   -3.6963 H   0  0  0  0  0  0  0  0  0  0  0  0
   -1.8434    2.9482   -2.0082 H   0  0  0  0  0  0  0  0  0  0  0  0
   -1.0632    4.2744   -2.8901 H   0  0  0  0  0  0  0  0  0  0  0  0
   -0.3037    0.7742   -0.9484 N   0  0  0  0  0  0  0  0  0  0  0  0
   -1.7107    0.4853   -0.8453 C   0  0  2  0  0  0  0  0  0  0  0  0
   -2.4987    1.7373   -1.2165 C   0  0  0  0  0  0  0  0  0  0  0  0
   -3.4923    1.7138   -1.9401 O   0  0  0  0  0  0  0  0  0  0  0  0
   -2.0831   -0.0655    0.5363 C   0  0  0  0  0  0  0  0  0  0  0  0
   -1.5166   -1.4614    0.8274 C   0  0  0  0  0  0  0  0  0  0  0  0
   -1.9483   -1.9556    2.2100 C   0  0  0  0  0  0  0  0  0  0  0  0
   -1.3647   -3.3294    2.5052 C   0  0  0  0  0  0  0  0  0  0  0  0
   -1.7883   -3.7562    3.8605 N   0  3  0  0  0  0  0  0  0  0  0  0
    0.2743    0.6378   -0.1219 H   0  0  0  0  0  0  0  0  0  0  0  0
   -1.9158   -0.2808   -1.6029 H   0  0  0  0  0  0  0  0  0  0  0  0
   -1.7205    0.6305    1.3038 H   0  0  0  0  0  0  0  0  0  0  0  0
   -3.1754   -0.0993    0.6331 H   0  0  0  0  0  0  0  0  0  0  0  0
   -1.8624   -2.1717    0.0674 H   0  0  0  0  0  0  0  0  0  0  0  0
   -0.4217   -1.4394    0.7777 H   0  0  0  0  0  0  0  0  0  0  0  0
   -3.0435   -1.9987    2.2592 H   0  0  0  0  0  0  0  0  0  0  0  0
   -1.6203   -1.2404    2.9746 H   0  0  0  0  0  0  0  0  0  0  0  0
   -1.7278   -4.0881    1.8056 H   0  0  0  0  0  0  0  0  0  0  0  0
   -0.2707   -3.3194    2.5030 H   0  0  0  0  0  0  0  0  0  0  0  0
   -1.1728   -4.4924    4.2234 H   0  0  0  0  0  0  0  0  0  0  0  0
   -2.7460   -4.1241    3.8470 H   0  0  0  0  0  0  0  0  0  0  0  0
   -1.7617   -2.9697    4.5188 H   0  0  0  0  0  0  0  0  0  0  0  0
   -1.9837    2.8791   -0.6198 N   0  0  0  0  0  0  0  0  0  0  0  0
   -2.5757    4.1814   -0.8124 C   0  0  2  0  0  0  0  0  0  0  0  0
   -1.5944    5.2252   -0.2957 C   0  0  0  0  0  0  0  0  0  0  0  0
   -0.7169    4.9717    0.5270 O   0  0  0  0  0  0  0  0  0  0  0  0
   -3.9135    4.2923   -0.0977 C   0  0  0  0  0  0  0  0  0  0  0  0
   -1.1628    2.7958   -0.0276 H   0  0  0  0  0  0  0  0  0  0  0  0
   -2.7122    4.3103   -1.8916 H   0  0  0  0  0  0  0  0  0  0  0  0
   -3.7968    4.1658    0.9848 H   0  0  0  0  0  0  0  0  0  0  0  0
   -4.3746    5.2707   -0.2683 H   0  0  0  0  0  0  0  0  0  0  0  0
   -4.6083    3.5219   -0.4493 H   0  0  0  0  0  0  0  0  0  0  0  0
   -1.8411    6.4826   -0.8288 N   0  0  0  0  0  0  0  0  0  0  0  0
   -1.0541    7.6436   -0.4844 C   0  0  0  0  0  0  0  0  0  0  0  0
   -2.5777    6.5970   -1.5188 H   0  0  0  0  0  0  0  0  0  0  0  0
   -1.5256    8.1700    0.3585 H   0  0  0  0  0  0  0  0  0  0  0  0
   -0.0402    7.3273   -0.1980 H   0  0  0  0  0  0  0  0  0  0  0  0
   -0.9966    8.3178   -1.3517 H   0  0  0  0  0  0  0  0  0  0  0  0
  1  3  1  0  0  0  0
  1  7  1  0  0  0  0
  1  2  2  0  0  0  0
 40 41  1  0  0  0  0
 41 49  1  0  0  0  0
 41 42  2  0  0  0  0
  8  9  1  0  0  0  0
  9 17  1  0  0  0  0
  9 10  2  0  0  0  0
 18 19  1  0  0  0  0
 19 39  1  0  0  0  0
 19 20  2  0  0  0  0
 40 43  1  0  0  0  0
  8 11  1  0  0  0  0
 49 50  1  0  0  0  0
 22 23  1  0  0  0  0
 21 22  1  0  0  0  0
 23 24  1  0  0  0  0
 18 21  1  0  0  0  0
 24 25  1  0  0  0  0
 39 40  1  0  0  0  0
  7  8  1  0  0  0  0
 17 18  1  0  0  0  0
  3  4  1  0  0  0  0
  3  5  1  0  0  0  0
  3  6  1  0  0  0  0
 43 46  1  0  0  0  0
 43 47  1  0  0  0  0
 43 48  1  0  0  0  0
 11 14  1  0  0  0  0
 11 15  1  0  0  0  0
 11 16  1  0  0  0  0
 50 52  1  0  0  0  0
 50 53  1  0  0  0  0
 50 54  1  0  0  0  0
 22 30  1  0  0  0  0
 22 31  1  0  0  0  0
 23 32  1  0  0  0  0
 23 33  1  0  0  0  0
 21 28  1  0  0  0  0
 21 29  1  0  0  0  0
 24 34  1  0  0  0  0
 24 35  1  0  0  0  0
 40 45  1  0  0  0  0
  8 13  1  0  0  0  0
 18 27  1  0  0  0  0
 49 51  1  0  0  0  0
  7 12  1  0  0  0  0
 39 44  1  0  0  0  0
 17 26  1  0  0  0  0
 25 36  1  0  0  0  0
 25 37  1  0  0  0  0
 25 38  1  0  0  0  0
M  CHG  1  25   1
M  END
$$$$

  -OEChem-02062319033D

 54 53  0     1  0  0  0  0  0999 V2000
    2.6714    2.8829   -3.0005 C   0  0  0  0  0  0  0  0  0  0  0  0
    3.1741    2.4398   -1.9745 O   0  0  0  0  0  0  0  0  0  0  0  0
    3.5527    3.3077   -4.1279 C   0  0  0  0  0  0  0  0  0  0  0  0
    3.8407    4.3691   -4.0597 H   0  0  0  0  0  0  0  0  0  0  0  0
    4.5024    2.7495   -4.1526 H   0  0  0  0  0  0  0  0  0  0  0  0
    3.1208    3.1887   -5.1345 H   0  0  0  0  0  0  0  0  0  0  0  0
    1.3174    3.0407   -3.2467 N   0  0  0  0  0  0  0  0  0  0  0  0
    0.2944    2.6927   -2.2960 C   0  0  2  0  0  0  0  0  0  0  0  0
    0.2976    1.1783   -2.1349 C   0  0  0  0  0  0  0  0  0  0  0  0
    0.7500    0.4142   -2.9850 O   0  0  0  0  0  0  0  0  0  0  0  0
   -1.0710    3.1886   -2.7460 C   0  0  0  0  0  0  0  0  0  0  0  0
    1.0312    3.4224   -4.1464 H   0  0  0  0  0  0  0  0  0  0  0  0
    0.5725    3.1622   -1.3461 H   0  0  0  0  0  0  0  0  0  0  0  0
   -1.3666    2.7292   -3.6963 H   0  0  0  0  0  0  0  0  0  0  0  0
   -1.8434    2.9482   -2.0082 H   0  0  0  0  0  0  0  0  0  0  0  0
   -1.0632    4.2744   -2.8901 H   0  0  0  0  0  0  0  0  0  0  0  0
   -0.3037    0.7742   -0.9484 N   0  0  0  0  0  0  0  0  0  0  0  0
   -1.6181    0.1881   -0.8996 C   0  0  2  0  0  0  0  0  0  0  0  0
   -2.6229    1.1852   -1.4675 C   0  0  0  0  0  0  0  0  0  0  0  0
   -3.5205    0.8639   -2.2438 O   0  0  0  0  0  0  0  0  0  0  0  0
   -1.9823   -0.2864    0.5122 C   0  0  0  0  0  0  0  0  0  0  0  0
   -1.1547   -1.4810    1.0041 C   0  0  0  0  0  0  0  0  0  0  0  0
   -1.5888   -1.9140    2.4064 C   0  0  0  0  0  0  0  0  0  0  0  0
   -0.7496   -3.0829    2.9008 C   0  0  0  0  0  0  0  0  0  0  0  0
   -1.1880   -3.4516    4.2684 N   0  3  0  0  0  0  0  0  0  0  0  0
    0.2153    0.8577   -0.0769 H   0  0  0  0  0  0  0  0  0  0  0  0
   -1.5851   -0.6786   -1.5708 H   0  0  0  0  0  0  0  0  0  0  0  0
   -1.8479    0.5490    1.2115 H   0  0  0  0  0  0  0  0  0  0  0  0
   -3.0455   -0.5551    0.5437 H   0  0  0  0  0  0  0  0  0  0  0  0
   -1.2703   -2.3257    0.3150 H   0  0  0  0  0  0  0  0  0  0  0  0
   -0.0905   -1.2183    1.0209 H   0  0  0  0  0  0  0  0  0  0  0  0
   -2.6486   -2.1972    2.3917 H   0  0  0  0  0  0  0  0  0  0  0  0
   -1.4919   -1.0681    3.0983 H   0  0  0  0  0  0  0  0  0  0  0  0
   -0.8769   -3.9721    2.2762 H   0  0  0  0  0  0  0  0  0  0  0  0
    0.3120   -2.8271    2.9660 H   0  0  0  0  0  0  0  0  0  0  0  0
   -0.4620   -3.9886    4.7552 H   0  0  0  0  0  0  0  0  0  0  0  0
   -2.0384   -4.0251    4.2394 H   0  0  0  0  0  0  0  0  0  0  0  0
   -1.3903   -2.6155    4.8276 H   0  0  0  0  0  0  0  0  0  0  0  0
   -2.4220    2.4691   -0.9815 N   0  0  0  0  0  0  0  0  0  0  0  0
   -3.2628    3.5776   -1.3662 C   0  0  2  0  0  0  0  0  0  0  0  0
   -2.5801    4.8632   -0.9185 C   0  0  0  0  0  0  0  0  0  0  0  0
   -1.7442    4.9004   -0.0179 O   0  0  0  0  0  0  0  0  0  0  0  0
   -4.6503    3.4577   -0.7553 C   0  0  0  0  0  0  0  0  0  0  0  0
   -1.6577    2.6346   -0.3333 H   0  0  0  0  0  0  0  0  0  0  0  0
   -3.3287    3.5600   -2.4595 H   0  0  0  0  0  0  0  0  0  0  0  0
   -4.6045    3.4735    0.3398 H   0  0  0  0  0  0  0  0  0  0  0  0
   -5.2956    4.2841   -1.0710 H   0  0  0  0  0  0  0  0  0  0  0  0
   -5.1280    2.5185   -1.0544 H   0  0  0  0  0  0  0  0  0  0  0  0
   -3.0456    5.9707   -1.6135 N   0  0  0  0  0  0  0  0  0  0  0  0
   -2.5621    7.3083   -1.3627 C   0  0  0  0  0  0  0  0  0  0  0  0
   -3.7260    5.8443   -2.3570 H   0  0  0  0  0  0  0  0  0  0  0  0
   -3.2086    7.7994   -0.6205 H   0  0  0  0  0  0  0  0  0  0  0  0
   -1.5329    7.2598   -0.9774 H   0  0  0  0  0  0  0  0  0  0  0  0
   -2.5760    7.8847   -2.2995 H   0  0  0  0  0  0  0  0  0  0  0  0
  1  3  1  0  0  0  0
  1  7  1  0  0  0  0
  1  2  2  0  0  0  0
 40 41  1  0  0  0  0
 41 49  1  0  0  0  0
 41 42  2  0  0  0  0
  8  9  1  0  0  0  0
  9 17  1  0  0  0  0
  9 10  2  0  0  0  0
 18 19  1  0  0  0  0
 19 39  1  0  0  0  0
 19 20  2  0  0  0  0
 40 43  1  0  0  0  0
  8 11  1  0  0  0  0
 49 50  1  0  0  0  0
 22 23  1  0  0  0  0
 21 22  1  0  0  0  0
 23 24  1  0  0  0  0
 18 21  1  0  0  0  0
 24 25  1  0  0  0  0
 39 40  1  0  0  0  0
  7  8  1  0  0  0  0
 17 18  1  0  0  0  0
  3  4  1  0  0  0  0
  3  5  1  0  0  0  0
  3  6  1  0  0  0  0
 43 46  1  0  0  0  0
 43 47  1  0  0  0  0
 43 48  1  0  0  0  0
 11 14  1  0  0  0  0
 11 15  1  0  0  0  0
 11 16  1  0  0  0  0
 50 52  1  0  0  0  0
 50 53  1  0  0  0  0
 50 54  1  0  0  0  0
 22 30  1  0  0  0  0
 22 31  1  0  0  0  0
 23 32  1  0  0  0  0
 23 33  1  0  0  0  0
 21 28  1  0  0  0  0
 21 29  1  0  0  0  0
 24 34  1  0  0  0  0
 24 35  1  0  0  0  0
 40 45  1  0  0  0  0
  8 13  1  0  0  0  0
 18 27  1  0  0  0  0
 49 51  1  0  0  0  0
  7 12  1  0  0  0  0
 39 44  1  0  0  0  0
 17 26  1  0  0  0  0
 25 36  1  0  0  0  0
 25 37  1  0  0  0  0
 25 38  1  0  0  0  0
M  CHG  1  25   1
M  END
$$$$

  -OEChem-02062319033D

 54 53  0     1  0  0  0  0  0999 V2000
    2.6714    2.8829   -3.0005 C   0  0  0  0  0  0  0  0  0  0  0  0
    3.1741    2.4398   -1.9745 O   0  0  0  0  0  0  0  0  0  0  0  0
    3.5527    3.3077   -4.1279 C   0  0  0  0  0  0  0  0  0  0  0  0
    3.8407    4.3691   -4.0597 H   0  0  0  0  0  0  0  0  0  0  0  0
    4.5024    2.7495   -4.1526 H   0  0  0  0  0  0  0  0  0  0  0  0
    3.1208    3.1887   -5.1345 H   0  0  0  0  0  0  0  0  0  0  0  0
    1.3174    3.0407   -3.2467 N   0  0  0  0  0  0  0  0  0  0  0  0
    0.2944    2.6927   -2.2960 C   0  0  2  0  0  0  0  0  0  0  0  0
    0.2976    1.1783   -2.1349 C   0  0  0  0  0  0  0  0  0  0  0  0
    0.7500    0.4142   -2.9850 O   0  0  0  0  0  0  0  0  0  0  0  0
   -1.0710    3.1886   -2.7460 C   0  0  0  0  0  0  0  0  0  0  0  0
    1.0312    3.4224   -4.1464 H   0  0  0  0  0  0  0  0  0  0  0  0
    0.5725    3.1622   -1.3461 H   0  0  0  0  0  0  0  0  0  0  0  0
   -1.3666    2.7292   -3.6963 H   0  0  0  0  0  0  0  0  0  0  0  0
   -1.8434    2.9482   -2.0082 H   0  0  0  0  0  0  0  0  0  0  0  0
   -1.0632    4.2744   -2.8901 H   0  0  0  0  0  0  0  0  0  0  0  0
   -0.3037    0.7742   -0.9484 N   0  0  0  0  0  0  0  0  0  0  0  0
   -1.4590   -0.0846   -0.9119 C   0  0  2  0  0  0  0  0  0  0  0  0
   -2.6021    0.5964   -1.6574 C   0  0  0  0  0  0  0  0  0  0  0  0
   -3.3370    0.0026   -2.4441 O   0  0  0  0  0  0  0  0  0  0  0  0
   -1.8343   -0.4802    0.5212 C   0  0  0  0  0  0  0  0  0  0  0  0
   -0.8140   -1.4002    1.2042 C   0  0  0  0  0  0  0  0  0  0  0  0
   -1.2654   -1.7723    2.6185 C   0  0  0  0  0  0  0  0  0  0  0  0
   -0.2397   -2.6647    3.3017 C   0  0  0  0  0  0  0  0  0  0  0  0
   -0.7062   -2.9790    4.6735 N   0  3  0  0  0  0  0  0  0  0  0  0
    0.1063    1.0622   -0.0625 H   0  0  0  0  0  0  0  0  0  0  0  0
   -1.1802   -0.9863   -1.4704 H   0  0  0  0  0  0  0  0  0  0  0  0
   -1.9460    0.4318    1.1219 H   0  0  0  0  0  0  0  0  0  0  0  0
   -2.8126   -0.9766    0.5182 H   0  0  0  0  0  0  0  0  0  0  0  0
   -0.6829   -2.3159    0.6160 H   0  0  0  0  0  0  0  0  0  0  0  0
    0.1623   -0.9044    1.2559 H   0  0  0  0  0  0  0  0  0  0  0  0
   -2.2333   -2.2869    2.5716 H   0  0  0  0  0  0  0  0  0  0  0  0
   -1.4153   -0.8594    3.2083 H   0  0  0  0  0  0  0  0  0  0  0  0
   -0.1160   -3.6195    2.7819 H   0  0  0  0  0  0  0  0  0  0  0  0
    0.7314   -2.1710    3.4019 H   0  0  0  0  0  0  0  0  0  0  0  0
    0.0733   -3.2855    5.2659 H   0  0  0  0  0  0  0  0  0  0  0  0
   -1.4062   -3.7291    4.6605 H   0  0  0  0  0  0  0  0  0  0  0  0
   -1.1331   -2.1567    5.1142 H   0  0  0  0  0  0  0  0  0  0  0  0
   -2.7275    1.9358   -1.3179 N   0  0  0  0  0  0  0  0  0  0  0  0
   -3.7514    2.7805   -1.8852 C   0  0  2  0  0  0  0  0  0  0  0  0
   -3.4054    4.2262   -1.5536 C   0  0  0  0  0  0  0  0  0  0  0  0
   -2.6798    4.5435   -0.6135 O   0  0  0  0  0  0  0  0  0  0  0  0
   -5.1281    2.4152   -1.3524 C   0  0  0  0  0  0  0  0  0  0  0  0
   -2.0772    2.3353   -0.6478 H   0  0  0  0  0  0  0  0  0  0  0  0
   -3.7157    2.6355   -2.9704 H   0  0  0  0  0  0  0  0  0  0  0  0
   -5.1832    2.5541   -0.2665 H   0  0  0  0  0  0  0  0  0  0  0  0
   -5.9068    3.0378   -1.8051 H   0  0  0  0  0  0  0  0  0  0  0  0
   -5.3629    1.3668   -1.5657 H   0  0  0  0  0  0  0  0  0  0  0  0
   -4.0369    5.1223   -2.4047 N   0  0  0  0  0  0  0  0  0  0  0  0
   -3.8785    6.5531   -2.2870 C   0  0  0  0  0  0  0  0  0  0  0  0
   -4.6057    4.7697   -3.1688 H   0  0  0  0  0  0  0  0  0  0  0  0
   -4.6787    6.9600   -1.6513 H   0  0  0  0  0  0  0  0  0  0  0  0
   -2.9012    6.7777   -1.8349 H   0  0  0  0  0  0  0  0  0  0  0  0
   -3.9347    7.0114   -3.2854 H   0  0  0  0  0  0  0  0  0  0  0  0
  1  3  1  0  0  0  0
  1  7  1  0  0  0  0
  1  2  2  0  0  0  0
 40 41  1  0  0  0  0
 41 49  1  0  0  0  0
 41 42  2  0  0  0  0
  8  9  1  0  0  0  0
  9 17  1  0  0  0  0
  9 10  2  0  0  0  0
 18 19  1  0  0  0  0
 19 39  1  0  0  0  0
 19 20  2  0  0  0  0
 40 43  1  0  0  0  0
  8 11  1  0  0  0  0
 49 50  1  0  0  0  0
 22 23  1  0  0  0  0
 21 22  1  0  0  0  0
 23 24  1  0  0  0  0
 18 21  1  0  0  0  0
 24 25  1  0  0  0  0
 39 40  1  0  0  0  0
  7  8  1  0  0  0  0
 17 18  1  0  0  0  0
  3  4  1  0  0  0  0
  3  5  1  0  0  0  0
  3  6  1  0  0  0  0
 43 46  1  0  0  0  0
 43 47  1  0  0  0  0
 43 48  1  0  0  0  0
 11 14  1  0  0  0  0
 11 15  1  0  0  0  0
 11 16  1  0  0  0  0
 50 52  1  0  0  0  0
 50 53  1  0  0  0  0
 50 54  1  0  0  0  0
 22 30  1  0  0  0  0
 22 31  1  0  0  0  0
 23 32  1  0  0  0  0
 23 33  1  0  0  0  0
 21 28  1  0  0  0  0
 21 29  1  0  0  0  0
 24 34  1  0  0  0  0
 24 35  1  0  0  0  0
 40 45  1  0  0  0  0
  8 13  1  0  0  0  0
 18 27  1  0  0  0  0
 49 51  1  0  0  0  0
  7 12  1  0  0  0  0
 39 44  1  0  0  0  0
 17 26  1  0  0  0  0
 25 36  1  0  0  0  0
 25 37  1  0  0  0  0
 25 38  1  0  0  0  0
M  CHG  1  25   1
M  END
$$$$

  -OEChem-02062319033D

 54 53  0     1  0  0  0  0  0999 V2000
    2.6714    2.8829   -3.0005 C   0  0  0  0  0  0  0  0  0  0  0  0
    3.1741    2.4398   -1.9745 O   0  0  0  0  0  0  0  0  0  0  0  0
    3.5527    3.3077   -4.1279 C   0  0  0  0  0  0  0  0  0  0  0  0
    3.8407    4.3691   -4.0597 H   0  0  0  0  0  0  0  0  0  0  0  0
    4.5024    2.7495   -4.1526 H   0  0  0  0  0  0  0  0  0  0  0  0
    3.1208    3.1887   -5.1345 H   0  0  0  0  0  0  0  0  0  0  0  0
    1.3174    3.0407   -3.2467 N   0  0  0  0  0  0  0  0  0  0  0  0
    0.2944    2.6927   -2.2960 C   0  0  2  0  0  0  0  0  0  0  0  0
    0.2976    1.1783   -2.1349 C   0  0  0  0  0  0  0  0  0  0  0  0
    0.7500    0.4142   -2.9850 O   0  0  0  0  0  0  0  0  0  0  0  0
   -1.0710    3.1886   -2.7460 C   0  0  0  0  0  0  0  0  0  0  0  0
    1.0312    3.4224   -4.1464 H   0  0  0  0  0  0  0  0  0  0  0  0
    0.5725    3.1622   -1.3461 H   0  0  0  0  0  0  0  0  0  0  0  0
   -1.3666    2.7292   -3.6963 H   0  0  0  0  0  0  0  0  0  0  0  0
   -1.8434    2.9482   -2.0082 H   0  0  0  0  0  0  0  0  0  0  0  0
   -1.0632    4.2744   -2.8901 H   0  0  0  0  0  0  0  0  0  0  0  0
   -0.3037    0.7742   -0.9484 N   0  0  0  0  0  0  0  0  0  0  0  0
   -1.2442   -0.3142   -0.8812 C   0  0  2  0  0  0  0  0  0  0  0  0
   -2.4377    0.0110   -1.7735 C   0  0  0  0  0  0  0  0  0  0  0  0
   -2.9545   -0.8111   -2.5274 O   0  0  0  0  0  0  0  0  0  0  0  0
   -1.6492   -0.6336    0.5627 C   0  0  0  0  0  0  0  0  0  0  0  0
   -0.5179   -1.2246    1.4141 C   0  0  0  0  0  0  0  0  0  0  0  0
   -1.0003   -1.5404    2.8318 C   0  0  0  0  0  0  0  0  0  0  0  0
    0.1303   -2.1032    3.6804 C   0  0  0  0  0  0  0  0  0  0  0  0
   -0.3757   -2.3708    5.0481 N   0  3  0  0  0  0  0  0  0  0  0  0
   -0.0452    1.2372   -0.0797 H   0  0  0  0  0  0  0  0  0  0  0  0
   -0.7287   -1.1828   -1.3086 H   0  0  0  0  0  0  0  0  0  0  0  0
   -2.0081    0.2869    1.0411 H   0  0  0  0  0  0  0  0  0  0  0  0
   -2.4926   -1.3352    0.5582 H   0  0  0  0  0  0  0  0  0  0  0  0
   -0.1404   -2.1430    0.9498 H   0  0  0  0  0  0  0  0  0  0  0  0
    0.3195   -0.5190    1.4668 H   0  0  0  0  0  0  0  0  0  0  0  0
   -1.8258   -2.2617    2.7867 H   0  0  0  0  0  0  0  0  0  0  0  0
   -1.3956   -0.6286    3.2968 H   0  0  0  0  0  0  0  0  0  0  0  0
    0.5030   -3.0541    3.2881 H   0  0  0  0  0  0  0  0  0  0  0  0
    0.9587   -1.3959    3.7811 H   0  0  0  0  0  0  0  0  0  0  0  0
    0.3966   -2.4309    5.7207 H   0  0  0  0  0  0  0  0  0  0  0  0
   -0.8926   -3.2565    5.0817 H   0  0  0  0  0  0  0  0  0  0  0  0
   -1.0076   -1.6247    5.3590 H   0  0  0  0  0  0  0  0  0  0  0  0
   -2.8796    1.3155   -1.6062 N   0  0  0  0  0  0  0  0  0  0  0  0
   -4.0082    1.8446   -2.3341 C   0  0  2  0  0  0  0  0  0  0  0  0
   -4.0141    3.3574   -2.1579 C   0  0  0  0  0  0  0  0  0  0  0  0
   -3.4599    3.9255   -1.2192 O   0  0  0  0  0  0  0  0  0  0  0  0
   -5.3145    1.2358   -1.8485 C   0  0  0  0  0  0  0  0  0  0  0  0
   -2.3926    1.9183   -0.9496 H   0  0  0  0  0  0  0  0  0  0  0  0
   -3.8468    1.5999   -3.3896 H   0  0  0  0  0  0  0  0  0  0  0  0
   -5.4934    1.4703   -0.7928 H   0  0  0  0  0  0  0  0  0  0  0  0
   -6.1667    1.6168   -2.4208 H   0  0  0  0  0  0  0  0  0  0  0  0
   -5.2970    0.1451   -1.9483 H   0  0  0  0  0  0  0  0  0  0  0  0
   -4.7475    3.9953   -3.1486 N   0  0  0  0  0  0  0  0  0  0  0  0
   -4.9138    5.4292   -3.1943 C   0  0  0  0  0  0  0  0  0  0  0  0
   -5.1571    3.4465   -3.8988 H   0  0  0  0  0  0  0  0  0  0  0  0
   -5.8358    5.7091   -2.6636 H   0  0  0  0  0  0  0  0  0  0  0  0
   -4.0519    5.9138   -2.7122 H   0  0  0  0  0  0  0  0  0  0  0  0
   -4.9800    5.7573   -4.2422 H   0  0  0  0  0  0  0  0  0  0  0  0
  1  3  1  0  0  0  0
  1  7  1  0  0  0  0
  1  2  2  0  0  0  0
 40 41  1  0  0  0  0
 41 49  1  0  0  0  0
 41 42  2  0  0  0  0
  8  9  1  0  0  0  0
  9 17  1  0  0  0  0
  9 10  2  0  0  0  0
 18 19  1  0  0  0  0
 19 39  1  0  0  0  0
 19 20  2  0  0  0  0
 40 43  1  0  0  0  0
  8 11  1  0  0  0  0
 49 50  1  0  0  0  0
 22 23  1  0  0  0  0
 21 22  1  0  0  0  0
 23 24  1  0  0  0  0
 18 21  1  0  0  0  0
 24 25  1  0  0  0  0
 39 40  1  0  0  0  0
  7  8  1  0  0  0  0
 17 18  1  0  0  0  0
  3  4  1  0  0  0  0
  3  5  1  0  0  0  0
  3  6  1  0  0  0  0
 43 46  1  0  0  0  0
 43 47  1  0  0  0  0
 43 48  1  0  0  0  0
 11 14  1  0  0  0  0
 11 15  1  0  0  0  0
 11 16  1  0  0  0  0
 50 52  1  0  0  0  0
 50 53  1  0  0  0  0
 50 54  1  0  0  0  0
 22 30  1  0  0  0  0
 22 31  1  0  0  0  0
 23 32  1  0  0  0  0
 23 33  1  0  0  0  0
 21 28  1  0  0  0  0
 21 29  1  0  0  0  0
 24 34  1  0  0  0  0
 24 35  1  0  0  0  0
 40 45  1  0  0  0  0
  8 13  1  0  0  0  0
 18 27  1  0  0  0  0
 49 51  1  0  0  0  0
  7 12  1  0  0  0  0
 39 44  1  0  0  0  0
 17 26  1  0  0  0  0
 25 36  1  0  0  0  0
 25 37  1  0  0  0  0
 25 38  1  0  0  0  0
M  CHG  1  25   1
M  END
$$$$

  -OEChem-02062319033D

 54 53  0     1  0  0  0  0  0999 V2000
    2.6714    2.8829   -3.0005 C   0  0  0  0  0  0  0  0  0  0  0  0
    3.1741    2.4398   -1.9745 O   0  0  0  0  0  0  0  0  0  0  0  0
    3.5527    3.3077   -4.1279 C   0  0  0  0  0  0  0  0  0  0  0  0
    3.8407    4.3691   -4.0597 H   0  0  0  0  0  0  0  0  0  0  0  0
    4.5024    2.7495   -4.1526 H   0  0  0  0  0  0  0  0  0  0  0  0
    3.1208    3.1887   -5.1345 H   0  0  0  0  0  0  0  0  0  0  0  0
    1.3174    3.0407   -3.2467 N   0  0  0  0  0  0  0  0  0  0  0  0
    0.2944    2.6927   -2.2960 C   0  0  2  0  0  0  0  0  0  0  0  0
    0.2976    1.1783   -2.1349 C   0  0  0  0  0  0  0  0  0  0  0  0
    0.7500    0.4142   -2.9850 O   0  0  0  0  0  0  0  0  0  0  0  0
   -1.0710    3.1886   -2.7460 C   0  0  0  0  0  0  0  0  0  0  0  0
    1.0312    3.4224   -4.1464 H   0  0  0  0  0  0  0  0  0  0  0  0
    0.5725    3.1622   -1.3461 H   0  0  0  0  0  0  0  0  0  0  0  0
   -1.3666    2.7292   -3.6963 H   0  0  0  0  0  0  0  0  0  0  0  0
   -1.8434    2.9482   -2.0082 H   0  0  0  0  0  0  0  0  0  0  0  0
   -1.0632    4.2744   -2.8901 H   0  0  0  0  0  0  0  0  0  0  0  0
   -0.3037    0.7742   -0.9484 N   0  0  0  0  0  0  0  0  0  0  0  0
   -0.9883   -0.4851   -0.8097 C   0  0  2  0  0  0  0  0  0  0  0  0
   -2.1408   -0.5311   -1.8076 C   0  0  0  0  0  0  0  0  0  0  0  0
   -2.3990   -1.5220   -2.4880 O   0  0  0  0  0  0  0  0  0  0  0  0
   -1.4397   -0.7363    0.6339 C   0  0  0  0  0  0  0  0  0  0  0  0
   -0.2864   -0.9660    1.6195 C   0  0  0  0  0  0  0  0  0  0  0  0
   -0.8116   -1.2338    3.0318 C   0  0  0  0  0  0  0  0  0  0  0  0
    0.3351   -1.4368    4.0111 C   0  0  0  0  0  0  0  0  0  0  0  0
   -0.2189   -1.6684    5.3668 N   0  3  0  0  0  0  0  0  0  0  0  0
   -0.2289    1.3708   -0.1272 H   0  0  0  0  0  0  0  0  0  0  0  0
   -0.2614   -1.2547   -1.0963 H   0  0  0  0  0  0  0  0  0  0  0  0
   -2.0300    0.1242    0.9746 H   0  0  0  0  0  0  0  0  0  0  0  0
   -2.1073   -1.6064    0.6611 H   0  0  0  0  0  0  0  0  0  0  0  0
    0.3203   -1.8188    1.2936 H   0  0  0  0  0  0  0  0  0  0  0  0
    0.3703   -0.0884    1.6392 H   0  0  0  0  0  0  0  0  0  0  0  0
   -1.4539   -2.1232    3.0223 H   0  0  0  0  0  0  0  0  0  0  0  0
   -1.4342   -0.3915    3.3580 H   0  0  0  0  0  0  0  0  0  0  0  0
    0.9380   -2.3146    3.7603 H   0  0  0  0  0  0  0  0  0  0  0  0
    0.9786   -0.5545    4.0776 H   0  0  0  0  0  0  0  0  0  0  0  0
    0.4859   -1.4831    6.0888 H   0  0  0  0  0  0  0  0  0  0  0  0
   -0.5327   -2.6394    5.4742 H   0  0  0  0  0  0  0  0  0  0  0  0
   -1.0222   -1.0557    5.5454 H   0  0  0  0  0  0  0  0  0  0  0  0
   -2.8677    0.6505   -1.8267 N   0  0  0  0  0  0  0  0  0  0  0  0
   -4.0158    0.8336   -2.6822 C   0  0  2  0  0  0  0  0  0  0  0  0
   -4.3647    2.3161   -2.6902 C   0  0  0  0  0  0  0  0  0  0  0  0
   -4.0313    3.0885   -1.7939 O   0  0  0  0  0  0  0  0  0  0  0  0
   -5.1966   -0.0001   -2.2097 C   0  0  0  0  0  0  0  0  0  0  0  0
   -2.5825    1.4121   -1.2182 H   0  0  0  0  0  0  0  0  0  0  0  0
   -3.7131    0.5236   -3.6884 H   0  0  0  0  0  0  0  0  0  0  0  0
   -5.5141    0.2961   -1.2032 H   0  0  0  0  0  0  0  0  0  0  0  0
   -6.0576    0.1179   -2.8759 H   0  0  0  0  0  0  0  0  0  0  0  0
   -4.9346   -1.0631   -2.1761 H   0  0  0  0  0  0  0  0  0  0  0  0
   -5.1289    2.6664   -3.7944 N   0  0  0  0  0  0  0  0  0  0  0  0
   -5.5972    4.0135   -4.0228 C   0  0  0  0  0  0  0  0  0  0  0  0
   -5.3424    1.9649   -4.4973 H   0  0  0  0  0  0  0  0  0  0  0  0
   -6.6009    4.1319   -3.5885 H   0  0  0  0  0  0  0  0  0  0  0  0
   -4.9065    4.7269   -3.5495 H   0  0  0  0  0  0  0  0  0  0  0  0
   -5.6407    4.2080   -5.1046 H   0  0  0  0  0  0  0  0  0  0  0  0
  1  3  1  0  0  0  0
  1  7  1  0  0  0  0
  1  2  2  0  0  0  0
 40 41  1  0  0  0  0
 41 49  1  0  0  0  0
 41 42  2  0  0  0  0
  8  9  1  0  0  0  0
  9 17  1  0  0  0  0
  9 10  2  0  0  0  0
 18 19  1  0  0  0  0
 19 39  1  0  0  0  0
 19 20  2  0  0  0  0
 40 43  1  0  0  0  0
  8 11  1  0  0  0  0
 49 50  1  0  0  0  0
 22 23  1  0  0  0  0
 21 22  1  0  0  0  0
 23 24  1  0  0  0  0
 18 21  1  0  0  0  0
 24 25  1  0  0  0  0
 39 40  1  0  0  0  0
  7  8  1  0  0  0  0
 17 18  1  0  0  0  0
  3  4  1  0  0  0  0
  3  5  1  0  0  0  0
  3  6  1  0  0  0  0
 43 46  1  0  0  0  0
 43 47  1  0  0  0  0
 43 48  1  0  0  0  0
 11 14  1  0  0  0  0
 11 15  1  0  0  0  0
 11 16  1  0  0  0  0
 50 52  1  0  0  0  0
 50 53  1  0  0  0  0
 50 54  1  0  0  0  0
 22 30  1  0  0  0  0
 22 31  1  0  0  0  0
 23 32  1  0  0  0  0
 23 33  1  0  0  0  0
 21 28  1  0  0  0  0
 21 29  1  0  0  0  0
 24 34  1  0  0  0  0
 24 35  1  0  0  0  0
 40 45  1  0  0  0  0
  8 13  1  0  0  0  0
 18 27  1  0  0  0  0
 49 51  1  0  0  0  0
  7 12  1  0  0  0  0
 39 44  1  0  0  0  0
 17 26  1  0  0  0  0
 25 36  1  0  0  0  0
 25 37  1  0  0  0  0
 25 38  1  0  0  0  0
M  CHG  1  25   1
M  END
$$$$

  -OEChem-02062319033D

 54 53  0     1  0  0  0  0  0999 V2000
    2.6714    2.8829   -3.0005 C   0  0  0  0  0  0  0  0  0  0  0  0
    3.1741    2.4398   -1.9745 O   0  0  0  0  0  0  0  0  0  0  0  0
    3.5527    3.3077   -4.1279 C   0  0  0  0  0  0  0  0  0  0  0  0
    3.8407    4.3691   -4.0597 H   0  0  0  0  0  0  0  0  0  0  0  0
    4.5024    2.7495   -4.1526 H   0  0  0  0  0  0  0  0  0  0  0  0
    3.1208    3.1887   -5.1345 H   0  0  0  0  0  0  0  0  0  0  0  0
    1.3174    3.0407   -3.2467 N   0  0  0  0  0  0  0  0  0  0  0  0
    0.2944    2.6927   -2.2960 C   0  0  2  0  0  0  0  0  0  0  0  0
    0.2976    1.1783   -2.1349 C   0  0  0  0  0  0  0  0  0  0  0  0
    0.7500    0.4142   -2.9850 O   0  0  0  0  0  0  0  0  0  0  0  0
   -1.0710    3.1886   -2.7460 C   0  0  0  0  0  0  0  0  0  0  0  0
    1.0312    3.4224   -4.1464 H   0  0  0  0  0  0  0  0  0  0  0  0
    0.5725    3.1622   -1.3461 H   0  0  0  0  0  0  0  0  0  0  0  0
   -1.3666    2.7292   -3.6963 H   0  0  0  0  0  0  0  0  0  0  0  0
   -1.8434    2.9482   -2.0082 H   0  0  0  0  0  0  0  0  0  0  0  0
   -1.0632    4.2744   -2.8901 H   0  0  0  0  0  0  0  0  0  0  0  0
   -0.3037    0.7742   -0.9484 N   0  0  0  0  0  0  0  0  0  0  0  0
   -0.7087   -0.5856   -0.7023 C   0  0  2  0  0  0  0  0  0  0  0  0
   -1.7317   -0.9930   -1.7576 C   0  0  0  0  0  0  0  0  0  0  0  0
   -1.7084   -2.0816   -2.3286 O   0  0  0  0  0  0  0  0  0  0  0  0
   -1.2199   -0.7813    0.7300 C   0  0  0  0  0  0  0  0  0  0  0  0
   -0.1354   -0.6421    1.8063 C   0  0  0  0  0  0  0  0  0  0  0  0
   -0.7120   -0.8737    3.2049 C   0  0  0  0  0  0  0  0  0  0  0  0
    0.3609   -0.7107    4.2714 C   0  0  0  0  0  0  0  0  0  0  0  0
   -0.2467   -0.9196    5.6077 N   0  3  0  0  0  0  0  0  0  0  0  0
   -0.4323    1.4540   -0.2020 H   0  0  0  0  0  0  0  0  0  0  0  0
    0.1899   -1.1972   -0.8480 H   0  0  0  0  0  0  0  0  0  0  0  0
   -2.0102   -0.0453    0.9269 H   0  0  0  0  0  0  0  0  0  0  0  0
   -1.6830   -1.7717    0.8198 H   0  0  0  0  0  0  0  0  0  0  0  0
    0.6679   -1.3654    1.6242 H   0  0  0  0  0  0  0  0  0  0  0  0
    0.3113    0.3581    1.7613 H   0  0  0  0  0  0  0  0  0  0  0  0
   -1.1431   -1.8810    3.2623 H   0  0  0  0  0  0  0  0  0  0  0  0
   -1.5285   -0.1640    3.3877 H   0  0  0  0  0  0  0  0  0  0  0  0
    1.1592   -1.4514    4.1664 H   0  0  0  0  0  0  0  0  0  0  0  0
    0.7896    0.2958    4.2714 H   0  0  0  0  0  0  0  0  0  0  0  0
    0.3351   -0.5066    6.3449 H   0  0  0  0  0  0  0  0  0  0  0  0
   -0.3508   -1.9198    5.8114 H   0  0  0  0  0  0  0  0  0  0  0  0
   -1.1761   -0.4884    5.6606 H   0  0  0  0  0  0  0  0  0  0  0  0
   -2.6927   -0.0140   -1.9643 N   0  0  0  0  0  0  0  0  0  0  0  0
   -3.7736   -0.1836   -2.9059 C   0  0  2  0  0  0  0  0  0  0  0  0
   -4.4332    1.1732   -3.1141 C   0  0  0  0  0  0  0  0  0  0  0  0
   -4.3552    2.0893   -2.2982 O   0  0  0  0  0  0  0  0  0  0  0  0
   -4.7826   -1.2083   -2.4113 C   0  0  0  0  0  0  0  0  0  0  0  0
   -2.6338    0.8511   -1.4353 H   0  0  0  0  0  0  0  0  0  0  0  0
   -3.3238   -0.5199   -3.8464 H   0  0  0  0  0  0  0  0  0  0  0  0
   -5.2438   -0.8887   -1.4697 H   0  0  0  0  0  0  0  0  0  0  0  0
   -5.5867   -1.3568   -3.1396 H   0  0  0  0  0  0  0  0  0  0  0  0
   -4.3005   -2.1757   -2.2337 H   0  0  0  0  0  0  0  0  0  0  0  0
   -5.1552    1.2263   -4.2982 N   0  0  0  0  0  0  0  0  0  0  0  0
   -5.8823    2.4022   -4.7160 C   0  0  0  0  0  0  0  0  0  0  0  0
   -5.1492    0.4258   -4.9235 H   0  0  0  0  0  0  0  0  0  0  0  0
   -6.9220    2.3359   -4.3628 H   0  0  0  0  0  0  0  0  0  0  0  0
   -5.4068    3.2979   -4.2896 H   0  0  0  0  0  0  0  0  0  0  0  0
   -5.8717    2.4689   -5.8139 H   0  0  0  0  0  0  0  0  0  0  0  0
  1  3  1  0  0  0  0
  1  7  1  0  0  0  0
  1  2  2  0  0  0  0
 40 41  1  0  0  0  0
 41 49  1  0  0  0  0
 41 42  2  0  0  0  0
  8  9  1  0  0  0  0
  9 17  1  0  0  0  0
  9 10  2  0  0  0  0
 18 19  1  0  0  0  0
 19 39  1  0  0  0  0
 19 20  2  0  0  0  0
 40 43  1  0  0  0  0
  8 11  1  0  0  0  0
 49 50  1  0  0  0  0
 22 23  1  0  0  0  0
 21 22  1  0  0  0  0
 23 24  1  0  0  0  0
 18 21  1  0  0  0  0
 24 25  1  0  0  0  0
 39 40  1  0  0  0  0
  7  8  1  0  0  0  0
 17 18  1  0  0  0  0
  3  4  1  0  0  0  0
  3  5  1  0  0  0  0
  3  6  1  0  0  0  0
 43 46  1  0  0  0  0
 43 47  1  0  0  0  0
 43 48  1  0  0  0  0
 11 14  1  0  0  0  0
 11 15  1  0  0  0  0
 11 16  1  0  0  0  0
 50 52  1  0  0  0  0
 50 53  1  0  0  0  0
 50 54  1  0  0  0  0
 22 30  1  0  0  0  0
 22 31  1  0  0  0  0
 23 32  1  0  0  0  0
 23 33  1  0  0  0  0
 21 28  1  0  0  0  0
 21 29  1  0  0  0  0
 24 34  1  0  0  0  0
 24 35  1  0  0  0  0
 40 45  1  0  0  0  0
  8 13  1  0  0  0  0
 18 27  1  0  0  0  0
 49 51  1  0  0  0  0
  7 12  1  0  0  0  0
 39 44  1  0  0  0  0
 17 26  1  0  0  0  0
 25 36  1  0  0  0  0
 25 37  1  0  0  0  0
 25 38  1  0  0  0  0
M  CHG  1  25   1
M  END
$$$$
