@<TRIPOS>MOLECULE
default_name
   26    25     1     0     0
SMALL
No Charge or Current Charge


@<TRIPOS>ATOM
      1 H1          25.8020    25.2830    24.7870 H          1 ACE       0.112300
      2 CH3         25.8870    26.2170    24.2350 C.3        1 ACE      -0.366200
      3 H2          25.1890    26.9470    24.6400 H          1 ACE       0.112300
      4 H3          25.6720    26.0420    23.1820 H          1 ACE       0.112300
      5 C           27.2960    26.7430    24.3740 C.2        1 ACE       0.597200
      6 O           28.1230    26.1250    25.0340 O.2        1 ACE      -0.567900
      7 N           27.5680    27.8880    23.7550 N.am       2 THR      -0.415700
      8 H           26.8310    28.3550    23.2470 H          2 THR       0.271900
      9 CA          28.8740    28.5690    23.7700 C.3        2 THR      -0.038900
     10 HA          29.4140    28.2680    24.6670 H          2 THR       0.100700
     11 CB          29.7350    28.1850    22.5490 C.3        2 THR       0.365400
     12 HB          30.6830    28.7180    22.6190 H          2 THR       0.004300
     13 CG2         30.0470    26.6930    22.4510 C.3        2 THR      -0.243800
     14 HG21        29.1370    26.1270    22.2480 H          2 THR       0.064200
     15 HG22        30.7640    26.5170    21.6500 H          2 THR       0.064200
     16 HG23        30.4770    26.3460    23.3910 H          2 THR       0.064200
     17 OG1         29.1040    28.5580    21.3490 O.3        2 THR      -0.676100
     18 HG1         29.6250    28.2150    20.6200 H          2 THR       0.410200
     19 C           28.6960    30.0910    23.8330 C.2        2 THR       0.597300
     20 O           27.6080    30.6120    23.5880 O.2        2 THR      -0.567900
     21 N           29.7650    30.8150    24.1930 N.am       3 NME      -0.415700
     22 H           30.6220    30.3290    24.4000 H          3 NME       0.271900
     23 CH3         29.7620    32.2730    24.3020 C.3        3 NME      -0.149000
     24 HH31        28.9460    32.5930    24.9530 H          3 NME       0.097600
     25 HH32        30.7080    32.6260    24.7130 H          3 NME       0.097600
     26 HH33        29.6100    32.7150    23.3150 H          3 NME       0.097600
@<TRIPOS>BOND
     1     5     6 2   
     2     5     7 am  
     3     2     3 1   
     4     2     4 1   
     5     2     5 1   
     6     1     2 1   
     7    19    20 2   
     8    19    21 am  
     9    17    18 1   
    10    13    14 1   
    11    13    15 1   
    12    13    16 1   
    13    11    12 1   
    14    11    13 1   
    15    11    17 1   
    16     9    10 1   
    17     9    11 1   
    18     9    19 1   
    19     7     8 1   
    20     7     9 1   
    21    23    24 1   
    22    23    25 1   
    23    23    26 1   
    24    21    22 1   
    25    21    23 1   
@<TRIPOS>SUBSTRUCTURE
     1 ACE         1 TEMP              0 ****  ****    0 ROOT
