@<TRIPOS>MOLECULE
default_name
   33    32     1     0     0
SMALL
No Charge or Current Charge


@<TRIPOS>ATOM
      1 H1          26.0850    25.1820    24.6000 H          1 ACE       0.112300
      2 CH3         26.0840    26.1730    24.1470 C.3        1 ACE      -0.366200
      3 H2          25.3760    26.8130    24.6680 H          1 ACE       0.112300
      4 H3          25.8130    26.0940    23.0960 H          1 ACE       0.112300
      5 C           27.4700    26.7640    24.2610 C.2        1 ACE       0.597200
      6 O           28.3670    26.1300    24.8010 O.2        1 ACE      -0.567900
      7 N           27.6400    27.9840    23.7540 N.am       2 LYN      -0.415700
      8 H           26.8450    28.4520    23.3430 H          2 LYN       0.271900
      9 CA          28.9030    28.7270    23.7700 C.3        2 LYN      -0.072100
     10 HA          29.4570    28.4500    24.6680 H          2 LYN       0.099400
     11 CB          29.7310    28.3220    22.5350 C.3        2 LYN      -0.048400
     12 HB2         29.8070    27.2330    22.5100 H          2 LYN       0.034000
     13 HB3         29.2130    28.6480    21.6320 H          2 LYN       0.034000
     14 CG          31.1540    28.9020    22.5400 C.3        2 LYN       0.066100
     15 HG2         31.1060    29.9900    22.4870 H          2 LYN       0.010400
     16 HG3         31.6570    28.6110    23.4640 H          2 LYN       0.010400
     17 CD          31.9600    28.3850    21.3430 C.3        2 LYN      -0.037700
     18 HD2         32.0200    27.2970    21.3840 H          2 LYN       0.011500
     19 HD3         31.4680    28.6840    20.4170 H          2 LYN       0.011500
     20 CE          33.3710    28.9690    21.3770 C.3        2 LYN       0.326000
     21 HE2         33.3130    30.0560    21.3530 H          2 LYN      -0.033600
     22 HE3         33.8700    28.6570    22.2930 H          2 LYN      -0.033600
     23 NZ          34.1640    28.5120    20.2300 N.3        2 LYN      -1.035800
     24 HZ2         35.0830    28.9270    20.2770 H          2 LYN       0.386000
     25 HZ3         34.2480    27.5060    20.2650 H          2 LYN       0.386000
     26 C           28.6280    30.2390    23.8170 C.2        2 LYN       0.597300
     27 O           27.6630    30.7090    23.2180 O.2        2 LYN      -0.567900
     28 N           29.4810    30.9940    24.5190 N.am       3 NME      -0.415700
     29 H           30.2390    30.5320    24.9940 H          3 NME       0.271900
     30 CH3         29.3690    32.4460    24.6490 C.3        3 NME      -0.149000
     31 HH31        28.3800    32.7070    25.0320 H          3 NME       0.097600
     32 HH32        30.1310    32.8260    25.3310 H          3 NME       0.097600
     33 HH33        29.4950    32.9130    23.6700 H          3 NME       0.097600
@<TRIPOS>BOND
     1     5     6 2   
     2     5     7 am  
     3     2     3 1   
     4     2     4 1   
     5     2     5 1   
     6     1     2 1   
     7    26    27 2   
     8    26    28 am  
     9    23    24 1   
    10    23    25 1   
    11    20    21 1   
    12    20    22 1   
    13    20    23 1   
    14    17    18 1   
    15    17    19 1   
    16    17    20 1   
    17    14    15 1   
    18    14    16 1   
    19    14    17 1   
    20    11    12 1   
    21    11    13 1   
    22    11    14 1   
    23     9    10 1   
    24     9    11 1   
    25     9    26 1   
    26     7     8 1   
    27     7     9 1   
    28    30    31 1   
    29    30    32 1   
    30    30    33 1   
    31    28    29 1   
    32    28    30 1   
@<TRIPOS>SUBSTRUCTURE
     1 ACE         1 TEMP              0 ****  ****    0 ROOT
