
  -OEChem-02102214123D

 28 27  0     1  0  0  0  0  0999 V2000
   -3.1909   -3.7628    1.2891 H   0  0  0  0  0  0  0  0  0  0  0  0
   -3.1691   -2.7828    0.8044 C   0  0  0  0  0  0  0  0  0  0  0  0
   -3.8238   -2.1029    1.3547 H   0  0  0  0  0  0  0  0  0  0  0  0
   -3.5397   -2.8871   -0.2182 H   0  0  0  0  0  0  0  0  0  0  0  0
   -1.7532   -2.2388    0.7888 C   0  0  0  0  0  0  0  0  0  0  0  0
   -0.8408   -2.8919    1.2699 O   0  0  0  0  0  0  0  0  0  0  0  0
   -1.5022   -0.9955    0.2482 N   0  0  0  0  0  0  0  0  0  0  0  0
   -2.3027   -0.4438   -0.0577 H   0  0  0  0  0  0  0  0  0  0  0  0
   -0.1959   -0.3237    0.2657 C   0  0  1  0  0  0  0  0  0  0  0  0
    0.4662   -0.7941    1.0002 H   0  0  0  0  0  0  0  0  0  0  0  0
    0.4242   -0.4709   -1.1350 C   0  0  0  0  0  0  0  0  0  0  0  0
    0.5165   -1.5373   -1.3704 H   0  0  0  0  0  0  0  0  0  0  0  0
   -0.2519   -0.0256   -1.8743 H   0  0  0  0  0  0  0  0  0  0  0  0
    1.8116    0.1970   -1.2482 C   0  0  0  0  0  0  0  0  0  0  0  0
    1.7304    1.2646   -1.0276 H   0  0  0  0  0  0  0  0  0  0  0  0
    2.4892   -0.2488   -0.5151 H   0  0  0  0  0  0  0  0  0  0  0  0
    2.4533    0.0662   -2.6304 C   0  0  0  0  0  0  0  0  0  0  0  0
    1.8825   -0.5464   -3.5174 O   0  0  0  0  0  0  0  0  0  0  0  0
    3.6587    0.6576   -2.7927 O   0  0  0  0  0  0  0  0  0  0  0  0
    3.9157    0.4849   -3.7114 H   0  0  0  0  0  0  0  0  0  0  0  0
   -0.3709    1.1545    0.6717 C   0  0  0  0  0  0  0  0  0  0  0  0
   -1.2889    1.8139    0.1981 O   0  0  0  0  0  0  0  0  0  0  0  0
    0.4770    1.7369    1.5956 N   0  0  0  0  0  0  0  0  0  0  0  0
    1.1872    1.1475    2.0205 H   0  0  0  0  0  0  0  0  0  0  0  0
    0.3315    3.1123    2.0565 C   0  0  0  0  0  0  0  0  0  0  0  0
   -0.6450    3.2562    2.5309 H   0  0  0  0  0  0  0  0  0  0  0  0
    1.1098    3.3514    2.7877 H   0  0  0  0  0  0  0  0  0  0  0  0
    0.4213    3.8093    1.2166 H   0  0  0  0  0  0  0  0  0  0  0  0
  1  2  1  0  0  0  0
  2  3  1  0  0  0  0
  2  4  1  0  0  0  0
  2  5  1  0  0  0  0
  5  6  2  0  0  0  0
  5  7  1  0  0  0  0
  7  8  1  0  0  0  0
  7  9  1  0  0  0  0
  9 10  1  0  0  0  0
  9 11  1  0  0  0  0
  9 21  1  0  0  0  0
 11 12  1  0  0  0  0
 11 13  1  0  0  0  0
 11 14  1  0  0  0  0
 14 15  1  0  0  0  0
 14 16  1  0  0  0  0
 14 17  1  0  0  0  0
 17 18  2  0  0  0  0
 17 19  1  0  0  0  0
 19 20  1  0  0  0  0
 21 22  2  0  0  0  0
 21 23  1  0  0  0  0
 23 24  1  0  0  0  0
 23 25  1  0  0  0  0
 25 26  1  0  0  0  0
 25 27  1  0  0  0  0
 25 28  1  0  0  0  0
M  END
$$$$

  -OEChem-02102214123D

 28 27  0     1  0  0  0  0  0999 V2000
   -3.2118   -3.7428    1.2695 H   0  0  0  0  0  0  0  0  0  0  0  0
   -3.1788   -2.7616    0.7877 C   0  0  0  0  0  0  0  0  0  0  0  0
   -3.8336   -2.0788    1.3344 H   0  0  0  0  0  0  0  0  0  0  0  0
   -3.5411   -2.8606   -0.2384 H   0  0  0  0  0  0  0  0  0  0  0  0
   -1.7588   -2.2283    0.7853 C   0  0  0  0  0  0  0  0  0  0  0  0
   -0.8547   -2.8902    1.2700 O   0  0  0  0  0  0  0  0  0  0  0  0
   -1.4940   -0.9867    0.2475 N   0  0  0  0  0  0  0  0  0  0  0  0
   -2.2879   -0.4279   -0.0627 H   0  0  0  0  0  0  0  0  0  0  0  0
   -0.1831   -0.3247    0.2759 C   0  0  1  0  0  0  0  0  0  0  0  0
    0.4726   -0.7983    1.0140 H   0  0  0  0  0  0  0  0  0  0  0  0
    0.4402   -0.4821   -1.1233 C   0  0  0  0  0  0  0  0  0  0  0  0
    0.5146   -1.5467   -1.3723 H   0  0  0  0  0  0  0  0  0  0  0  0
   -0.2378   -0.0202   -1.8507 H   0  0  0  0  0  0  0  0  0  0  0  0
    1.8365    0.1671   -1.2526 C   0  0  0  0  0  0  0  0  0  0  0  0
    1.8305    1.1651   -0.8083 H   0  0  0  0  0  0  0  0  0  0  0  0
    2.5714   -0.4352   -0.7118 H   0  0  0  0  0  0  0  0  0  0  0  0
    2.3042    0.3355   -2.6989 C   0  0  0  0  0  0  0  0  0  0  0  0
    1.7585   -0.2881   -3.5941 O   0  0  0  0  0  0  0  0  0  0  0  0
    3.3365    1.1843   -2.9065 O   0  0  0  0  0  0  0  0  0  0  0  0
    3.5000    1.1713   -3.8620 H   0  0  0  0  0  0  0  0  0  0  0  0
   -0.3621    1.1537    0.6821 C   0  0  0  0  0  0  0  0  0  0  0  0
   -1.2755    1.8131    0.1993 O   0  0  0  0  0  0  0  0  0  0  0  0
    0.4757    1.7365    1.6153 N   0  0  0  0  0  0  0  0  0  0  0  0
    1.1816    1.1475    2.0481 H   0  0  0  0  0  0  0  0  0  0  0  0
    0.3252    3.1125    2.0733 C   0  0  0  0  0  0  0  0  0  0  0  0
   -0.6581    3.2588    2.5330 H   0  0  0  0  0  0  0  0  0  0  0  0
    1.0926    3.3504    2.8162 H   0  0  0  0  0  0  0  0  0  0  0  0
    0.4291    3.8090    1.2345 H   0  0  0  0  0  0  0  0  0  0  0  0
  1  2  1  0  0  0  0
  2  3  1  0  0  0  0
  2  4  1  0  0  0  0
  2  5  1  0  0  0  0
  5  6  2  0  0  0  0
  5  7  1  0  0  0  0
  7  8  1  0  0  0  0
  7  9  1  0  0  0  0
  9 10  1  0  0  0  0
  9 11  1  0  0  0  0
  9 21  1  0  0  0  0
 11 12  1  0  0  0  0
 11 13  1  0  0  0  0
 11 14  1  0  0  0  0
 14 15  1  0  0  0  0
 14 16  1  0  0  0  0
 14 17  1  0  0  0  0
 17 18  2  0  0  0  0
 17 19  1  0  0  0  0
 19 20  1  0  0  0  0
 21 22  2  0  0  0  0
 21 23  1  0  0  0  0
 23 24  1  0  0  0  0
 23 25  1  0  0  0  0
 25 26  1  0  0  0  0
 25 27  1  0  0  0  0
 25 28  1  0  0  0  0
M  END
$$$$

  -OEChem-02102214123D

 28 27  0     1  0  0  0  0  0999 V2000
   -3.2322   -3.7265    1.2497 H   0  0  0  0  0  0  0  0  0  0  0  0
   -3.1923   -2.7403    0.7789 C   0  0  0  0  0  0  0  0  0  0  0  0
   -3.8392   -2.0577    1.3354 H   0  0  0  0  0  0  0  0  0  0  0  0
   -3.5587   -2.8246   -0.2471 H   0  0  0  0  0  0  0  0  0  0  0  0
   -1.7679   -2.2191    0.7783 C   0  0  0  0  0  0  0  0  0  0  0  0
   -0.8698   -2.8898    1.2620 O   0  0  0  0  0  0  0  0  0  0  0  0
   -1.4917   -0.9798    0.2412 N   0  0  0  0  0  0  0  0  0  0  0  0
   -2.2814   -0.4121   -0.0641 H   0  0  0  0  0  0  0  0  0  0  0  0
   -0.1760   -0.3269    0.2775 C   0  0  1  0  0  0  0  0  0  0  0  0
    0.4714   -0.8037    1.0208 H   0  0  0  0  0  0  0  0  0  0  0  0
    0.4540   -0.4940   -1.1184 C   0  0  0  0  0  0  0  0  0  0  0  0
    0.5160   -1.5581   -1.3720 H   0  0  0  0  0  0  0  0  0  0  0  0
   -0.2235   -0.0255   -1.8421 H   0  0  0  0  0  0  0  0  0  0  0  0
    1.8583    0.1403   -1.2556 C   0  0  0  0  0  0  0  0  0  0  0  0
    1.9510    1.0100   -0.6020 H   0  0  0  0  0  0  0  0  0  0  0  0
    2.6195   -0.5819   -0.9484 H   0  0  0  0  0  0  0  0  0  0  0  0
    2.1673    0.6218   -2.6733 C   0  0  0  0  0  0  0  0  0  0  0  0
    1.7222    0.0037   -3.6260 O   0  0  0  0  0  0  0  0  0  0  0  0
    2.9485    1.7194   -2.7968 O   0  0  0  0  0  0  0  0  0  0  0  0
    3.0338    1.8762   -3.7498 H   0  0  0  0  0  0  0  0  0  0  0  0
   -0.3511    1.1531    0.6818 C   0  0  0  0  0  0  0  0  0  0  0  0
   -1.2616    1.8146    0.1964 O   0  0  0  0  0  0  0  0  0  0  0  0
    0.4826    1.7330    1.6206 N   0  0  0  0  0  0  0  0  0  0  0  0
    1.1879    1.1431    2.0531 H   0  0  0  0  0  0  0  0  0  0  0  0
    0.3375    3.1104    2.0761 C   0  0  0  0  0  0  0  0  0  0  0  0
   -0.6370    3.2557    2.5543 H   0  0  0  0  0  0  0  0  0  0  0  0
    1.1189    3.3529    2.8028 H   0  0  0  0  0  0  0  0  0  0  0  0
    0.4233    3.8040    1.2329 H   0  0  0  0  0  0  0  0  0  0  0  0
  1  2  1  0  0  0  0
  2  3  1  0  0  0  0
  2  4  1  0  0  0  0
  2  5  1  0  0  0  0
  5  6  2  0  0  0  0
  5  7  1  0  0  0  0
  7  8  1  0  0  0  0
  7  9  1  0  0  0  0
  9 10  1  0  0  0  0
  9 11  1  0  0  0  0
  9 21  1  0  0  0  0
 11 12  1  0  0  0  0
 11 13  1  0  0  0  0
 11 14  1  0  0  0  0
 14 15  1  0  0  0  0
 14 16  1  0  0  0  0
 14 17  1  0  0  0  0
 17 18  2  0  0  0  0
 17 19  1  0  0  0  0
 19 20  1  0  0  0  0
 21 22  2  0  0  0  0
 21 23  1  0  0  0  0
 23 24  1  0  0  0  0
 23 25  1  0  0  0  0
 25 26  1  0  0  0  0
 25 27  1  0  0  0  0
 25 28  1  0  0  0  0
M  END
$$$$

  -OEChem-02102214123D

 28 27  0     1  0  0  0  0  0999 V2000
   -3.2513   -3.7131    1.2455 H   0  0  0  0  0  0  0  0  0  0  0  0
   -3.2043   -2.7234    0.7825 C   0  0  0  0  0  0  0  0  0  0  0  0
   -3.8421   -2.0389    1.3469 H   0  0  0  0  0  0  0  0  0  0  0  0
   -3.5762   -2.7959   -0.2424 H   0  0  0  0  0  0  0  0  0  0  0  0
   -1.7755   -2.2148    0.7797 C   0  0  0  0  0  0  0  0  0  0  0  0
   -0.8822   -2.8920    1.2634 O   0  0  0  0  0  0  0  0  0  0  0  0
   -1.4894   -0.9799    0.2377 N   0  0  0  0  0  0  0  0  0  0  0  0
   -2.2745   -0.4063   -0.0683 H   0  0  0  0  0  0  0  0  0  0  0  0
   -0.1688   -0.3371    0.2736 C   0  0  1  0  0  0  0  0  0  0  0  0
    0.4763   -0.8173    1.0166 H   0  0  0  0  0  0  0  0  0  0  0  0
    0.4559   -0.5032   -1.1240 C   0  0  0  0  0  0  0  0  0  0  0  0
    0.5147   -1.5684   -1.3738 H   0  0  0  0  0  0  0  0  0  0  0  0
   -0.2232   -0.0394   -1.8493 H   0  0  0  0  0  0  0  0  0  0  0  0
    1.8649    0.1216   -1.2598 C   0  0  0  0  0  0  0  0  0  0  0  0
    2.0798    0.7889   -0.4230 H   0  0  0  0  0  0  0  0  0  0  0  0
    2.6180   -0.6709   -1.2371 H   0  0  0  0  0  0  0  0  0  0  0  0
    2.0336    0.9240   -2.5478 C   0  0  0  0  0  0  0  0  0  0  0  0
    1.7197    0.4101   -3.6083 O   0  0  0  0  0  0  0  0  0  0  0  0
    2.5341    2.1764   -2.4426 O   0  0  0  0  0  0  0  0  0  0  0  0
    2.5520    2.5296   -3.3452 H   0  0  0  0  0  0  0  0  0  0  0  0
   -0.3326    1.1464    0.6715 C   0  0  0  0  0  0  0  0  0  0  0  0
   -1.2387    1.8117    0.1828 O   0  0  0  0  0  0  0  0  0  0  0  0
    0.5034    1.7250    1.6089 N   0  0  0  0  0  0  0  0  0  0  0  0
    1.2073    1.1343    2.0421 H   0  0  0  0  0  0  0  0  0  0  0  0
    0.3749    3.1091    2.0488 C   0  0  0  0  0  0  0  0  0  0  0  0
   -0.5923    3.2682    2.5369 H   0  0  0  0  0  0  0  0  0  0  0  0
    1.1672    3.3546    2.7624 H   0  0  0  0  0  0  0  0  0  0  0  0
    0.4559    3.7915    1.1960 H   0  0  0  0  0  0  0  0  0  0  0  0
  1  2  1  0  0  0  0
  2  3  1  0  0  0  0
  2  4  1  0  0  0  0
  2  5  1  0  0  0  0
  5  6  2  0  0  0  0
  5  7  1  0  0  0  0
  7  8  1  0  0  0  0
  7  9  1  0  0  0  0
  9 10  1  0  0  0  0
  9 11  1  0  0  0  0
  9 21  1  0  0  0  0
 11 12  1  0  0  0  0
 11 13  1  0  0  0  0
 11 14  1  0  0  0  0
 14 15  1  0  0  0  0
 14 16  1  0  0  0  0
 14 17  1  0  0  0  0
 17 18  2  0  0  0  0
 17 19  1  0  0  0  0
 19 20  1  0  0  0  0
 21 22  2  0  0  0  0
 21 23  1  0  0  0  0
 23 24  1  0  0  0  0
 23 25  1  0  0  0  0
 25 26  1  0  0  0  0
 25 27  1  0  0  0  0
 25 28  1  0  0  0  0
M  END
$$$$

  -OEChem-02102214123D

 28 27  0     1  0  0  0  0  0999 V2000
   -3.2567   -3.7189    1.2584 H   0  0  0  0  0  0  0  0  0  0  0  0
   -3.2113   -2.7268    0.8007 C   0  0  0  0  0  0  0  0  0  0  0  0
   -3.8388   -2.0435    1.3778 H   0  0  0  0  0  0  0  0  0  0  0  0
   -3.5972   -2.7918   -0.2195 H   0  0  0  0  0  0  0  0  0  0  0  0
   -1.7801   -2.2244    0.7816 C   0  0  0  0  0  0  0  0  0  0  0  0
   -0.8846   -2.9075    1.2527 O   0  0  0  0  0  0  0  0  0  0  0  0
   -1.4937   -0.9905    0.2370 N   0  0  0  0  0  0  0  0  0  0  0  0
   -2.2799   -0.4116   -0.0558 H   0  0  0  0  0  0  0  0  0  0  0  0
   -0.1712   -0.3514    0.2641 C   0  0  1  0  0  0  0  0  0  0  0  0
    0.4784   -0.8357    1.0006 H   0  0  0  0  0  0  0  0  0  0  0  0
    0.4444   -0.5014   -1.1378 C   0  0  0  0  0  0  0  0  0  0  0  0
    0.5149   -1.5678   -1.3786 H   0  0  0  0  0  0  0  0  0  0  0  0
   -0.2347   -0.0514   -1.8717 H   0  0  0  0  0  0  0  0  0  0  0  0
    1.8512    0.1279   -1.2589 C   0  0  0  0  0  0  0  0  0  0  0  0
    2.1899    0.5344   -0.3033 H   0  0  0  0  0  0  0  0  0  0  0  0
    2.5670   -0.6487   -1.5435 H   0  0  0  0  0  0  0  0  0  0  0  0
    1.9041    1.2279   -2.3139 C   0  0  0  0  0  0  0  0  0  0  0  0
    1.7116    0.9315   -3.4807 O   0  0  0  0  0  0  0  0  0  0  0  0
    2.1545    2.4882   -1.8911 O   0  0  0  0  0  0  0  0  0  0  0  0
    2.1119    3.0449   -2.6834 H   0  0  0  0  0  0  0  0  0  0  0  0
   -0.3229    1.1335    0.6616 C   0  0  0  0  0  0  0  0  0  0  0  0
   -1.2272    1.8029    0.1749 O   0  0  0  0  0  0  0  0  0  0  0  0
    0.5224    1.7095    1.5918 N   0  0  0  0  0  0  0  0  0  0  0  0
    1.2483    1.1258    1.9968 H   0  0  0  0  0  0  0  0  0  0  0  0
    0.4461    3.1127    1.9794 C   0  0  0  0  0  0  0  0  0  0  0  0
   -0.5284    3.3348    2.4269 H   0  0  0  0  0  0  0  0  0  0  0  0
    1.2242    3.3458    2.7125 H   0  0  0  0  0  0  0  0  0  0  0  0
    0.5891    3.7590    1.1067 H   0  0  0  0  0  0  0  0  0  0  0  0
  1  2  1  0  0  0  0
  2  3  1  0  0  0  0
  2  4  1  0  0  0  0
  2  5  1  0  0  0  0
  5  6  2  0  0  0  0
  5  7  1  0  0  0  0
  7  8  1  0  0  0  0
  7  9  1  0  0  0  0
  9 10  1  0  0  0  0
  9 11  1  0  0  0  0
  9 21  1  0  0  0  0
 11 12  1  0  0  0  0
 11 13  1  0  0  0  0
 11 14  1  0  0  0  0
 14 15  1  0  0  0  0
 14 16  1  0  0  0  0
 14 17  1  0  0  0  0
 17 18  2  0  0  0  0
 17 19  1  0  0  0  0
 19 20  1  0  0  0  0
 21 22  2  0  0  0  0
 21 23  1  0  0  0  0
 23 24  1  0  0  0  0
 23 25  1  0  0  0  0
 25 26  1  0  0  0  0
 25 27  1  0  0  0  0
 25 28  1  0  0  0  0
M  END
$$$$

  -OEChem-02102214123D

 28 27  0     1  0  0  0  0  0999 V2000
   -3.2275   -3.7403    1.2655 H   0  0  0  0  0  0  0  0  0  0  0  0
   -3.1959   -2.7423    0.8196 C   0  0  0  0  0  0  0  0  0  0  0  0
   -3.8203   -2.0710    1.4140 H   0  0  0  0  0  0  0  0  0  0  0  0
   -3.5961   -2.7979   -0.1955 H   0  0  0  0  0  0  0  0  0  0  0  0
   -1.7686   -2.2292    0.7859 C   0  0  0  0  0  0  0  0  0  0  0  0
   -0.8614   -2.9104    1.2368 O   0  0  0  0  0  0  0  0  0  0  0  0
   -1.4975   -0.9906    0.2440 N   0  0  0  0  0  0  0  0  0  0  0  0
   -2.2915   -0.4141   -0.0321 H   0  0  0  0  0  0  0  0  0  0  0  0
   -0.1788   -0.3431    0.2550 C   0  0  1  0  0  0  0  0  0  0  0  0
    0.4806   -0.8265    0.9834 H   0  0  0  0  0  0  0  0  0  0  0  0
    0.4238   -0.4902   -1.1530 C   0  0  0  0  0  0  0  0  0  0  0  0
    0.5105   -1.5597   -1.3738 H   0  0  0  0  0  0  0  0  0  0  0  0
   -0.2616   -0.0639   -1.8950 H   0  0  0  0  0  0  0  0  0  0  0  0
    1.8232    0.1504   -1.2819 C   0  0  0  0  0  0  0  0  0  0  0  0
    2.2795    0.3016   -0.3002 H   0  0  0  0  0  0  0  0  0  0  0  0
    2.4751   -0.5326   -1.8346 H   0  0  0  0  0  0  0  0  0  0  0  0
    1.7916    1.4706   -2.0463 C   0  0  0  0  0  0  0  0  0  0  0  0
    1.5134    1.4538   -3.2330 O   0  0  0  0  0  0  0  0  0  0  0  0
    2.0732    2.6003   -1.3575 O   0  0  0  0  0  0  0  0  0  0  0  0
    1.9626    3.3266   -1.9903 H   0  0  0  0  0  0  0  0  0  0  0  0
   -0.3268    1.1387    0.6618 C   0  0  0  0  0  0  0  0  0  0  0  0
   -1.2412    1.8076    0.1936 O   0  0  0  0  0  0  0  0  0  0  0  0
    0.5323    1.7115    1.5809 N   0  0  0  0  0  0  0  0  0  0  0  0
    1.2860    1.1369    1.9458 H   0  0  0  0  0  0  0  0  0  0  0  0
    0.4701    3.1175    1.9597 C   0  0  0  0  0  0  0  0  0  0  0  0
   -0.4984    3.3490    2.4154 H   0  0  0  0  0  0  0  0  0  0  0  0
    1.2571    3.3502    2.6834 H   0  0  0  0  0  0  0  0  0  0  0  0
    0.6085    3.7565    1.0811 H   0  0  0  0  0  0  0  0  0  0  0  0
  1  2  1  0  0  0  0
  2  3  1  0  0  0  0
  2  4  1  0  0  0  0
  2  5  1  0  0  0  0
  5  6  2  0  0  0  0
  5  7  1  0  0  0  0
  7  8  1  0  0  0  0
  7  9  1  0  0  0  0
  9 10  1  0  0  0  0
  9 11  1  0  0  0  0
  9 21  1  0  0  0  0
 11 12  1  0  0  0  0
 11 13  1  0  0  0  0
 11 14  1  0  0  0  0
 14 15  1  0  0  0  0
 14 16  1  0  0  0  0
 14 17  1  0  0  0  0
 17 18  2  0  0  0  0
 17 19  1  0  0  0  0
 19 20  1  0  0  0  0
 21 22  2  0  0  0  0
 21 23  1  0  0  0  0
 23 24  1  0  0  0  0
 23 25  1  0  0  0  0
 25 26  1  0  0  0  0
 25 27  1  0  0  0  0
 25 28  1  0  0  0  0
M  END
$$$$

  -OEChem-02102214123D

 28 27  0     1  0  0  0  0  0999 V2000
   -3.1868   -3.7439    1.2866 H   0  0  0  0  0  0  0  0  0  0  0  0
   -3.1688   -2.7485    0.8340 C   0  0  0  0  0  0  0  0  0  0  0  0
   -3.7918   -2.0785    1.4316 H   0  0  0  0  0  0  0  0  0  0  0  0
   -3.5802   -2.8134   -0.1762 H   0  0  0  0  0  0  0  0  0  0  0  0
   -1.7464   -2.2239    0.7807 C   0  0  0  0  0  0  0  0  0  0  0  0
   -0.8266   -2.9007    1.2125 O   0  0  0  0  0  0  0  0  0  0  0  0
   -1.4950   -0.9785    0.2457 N   0  0  0  0  0  0  0  0  0  0  0  0
   -2.2986   -0.4070   -0.0129 H   0  0  0  0  0  0  0  0  0  0  0  0
   -0.1837   -0.3160    0.2502 C   0  0  1  0  0  0  0  0  0  0  0  0
    0.4811   -0.7918    0.9788 H   0  0  0  0  0  0  0  0  0  0  0  0
    0.4171   -0.4811   -1.1587 C   0  0  0  0  0  0  0  0  0  0  0  0
    0.5135   -1.5543   -1.3556 H   0  0  0  0  0  0  0  0  0  0  0  0
   -0.2746   -0.0774   -1.9072 H   0  0  0  0  0  0  0  0  0  0  0  0
    1.8095    0.1647   -1.3224 C   0  0  0  0  0  0  0  0  0  0  0  0
    2.3737    0.0945   -0.3883 H   0  0  0  0  0  0  0  0  0  0  0  0
    2.3688   -0.3926   -2.0794 H   0  0  0  0  0  0  0  0  0  0  0  0
    1.7511    1.6191   -1.7836 C   0  0  0  0  0  0  0  0  0  0  0  0
    1.2616    1.8676   -2.8716 O   0  0  0  0  0  0  0  0  0  0  0  0
    2.2610    2.5625   -0.9593 O   0  0  0  0  0  0  0  0  0  0  0  0
    2.1103    3.4074   -1.4109 H   0  0  0  0  0  0  0  0  0  0  0  0
   -0.3491    1.1600    0.6695 C   0  0  0  0  0  0  0  0  0  0  0  0
   -1.2868    1.8165    0.2317 O   0  0  0  0  0  0  0  0  0  0  0  0
    0.5106    1.7349    1.5866 N   0  0  0  0  0  0  0  0  0  0  0  0
    1.2928    1.1764    1.9152 H   0  0  0  0  0  0  0  0  0  0  0  0
    0.4052    3.1224    2.0204 C   0  0  0  0  0  0  0  0  0  0  0  0
   -0.5512    3.2940    2.5253 H   0  0  0  0  0  0  0  0  0  0  0  0
    1.2129    3.3628    2.7185 H   0  0  0  0  0  0  0  0  0  0  0  0
    0.4776    3.7992    1.1626 H   0  0  0  0  0  0  0  0  0  0  0  0
  1  2  1  0  0  0  0
  2  3  1  0  0  0  0
  2  4  1  0  0  0  0
  2  5  1  0  0  0  0
  5  6  2  0  0  0  0
  5  7  1  0  0  0  0
  7  8  1  0  0  0  0
  7  9  1  0  0  0  0
  9 10  1  0  0  0  0
  9 11  1  0  0  0  0
  9 21  1  0  0  0  0
 11 12  1  0  0  0  0
 11 13  1  0  0  0  0
 11 14  1  0  0  0  0
 14 15  1  0  0  0  0
 14 16  1  0  0  0  0
 14 17  1  0  0  0  0
 17 18  2  0  0  0  0
 17 19  1  0  0  0  0
 19 20  1  0  0  0  0
 21 22  2  0  0  0  0
 21 23  1  0  0  0  0
 23 24  1  0  0  0  0
 23 25  1  0  0  0  0
 25 26  1  0  0  0  0
 25 27  1  0  0  0  0
 25 28  1  0  0  0  0
M  END
$$$$

  -OEChem-02102214123D

 28 27  0     1  0  0  0  0  0999 V2000
   -3.1504   -3.7360    1.3303 H   0  0  0  0  0  0  0  0  0  0  0  0
   -3.1424   -2.7534    0.8504 C   0  0  0  0  0  0  0  0  0  0  0  0
   -3.7663   -2.0719    1.4337 H   0  0  0  0  0  0  0  0  0  0  0  0
   -3.5597   -2.8481   -0.1549 H   0  0  0  0  0  0  0  0  0  0  0  0
   -1.7242   -2.2210    0.7732 C   0  0  0  0  0  0  0  0  0  0  0  0
   -0.7922   -2.8984    1.1773 O   0  0  0  0  0  0  0  0  0  0  0  0
   -1.4893   -0.9676    0.2493 N   0  0  0  0  0  0  0  0  0  0  0  0
   -2.3008   -0.3940    0.0203 H   0  0  0  0  0  0  0  0  0  0  0  0
   -0.1840   -0.2929    0.2519 C   0  0  1  0  0  0  0  0  0  0  0  0
    0.4869   -0.7623    0.9790 H   0  0  0  0  0  0  0  0  0  0  0  0
    0.4150   -0.4658   -1.1598 C   0  0  0  0  0  0  0  0  0  0  0  0
    0.5047   -1.5398   -1.3560 H   0  0  0  0  0  0  0  0  0  0  0  0
   -0.2837   -0.0589   -1.9000 H   0  0  0  0  0  0  0  0  0  0  0  0
    1.8037    0.1760   -1.3692 C   0  0  0  0  0  0  0  0  0  0  0  0
    2.4624   -0.1054   -0.5428 H   0  0  0  0  0  0  0  0  0  0  0  0
    2.2422   -0.2299   -2.2852 H   0  0  0  0  0  0  0  0  0  0  0  0
    1.7929    1.6962   -1.5060 C   0  0  0  0  0  0  0  0  0  0  0  0
    1.1413    2.1960   -2.4054 O   0  0  0  0  0  0  0  0  0  0  0  0
    2.5262    2.4149   -0.6250 O   0  0  0  0  0  0  0  0  0  0  0  0
    2.3879    3.3421   -0.8742 H   0  0  0  0  0  0  0  0  0  0  0  0
   -0.3814    1.1743    0.6905 C   0  0  0  0  0  0  0  0  0  0  0  0
   -1.3573    1.8030    0.2975 O   0  0  0  0  0  0  0  0  0  0  0  0
    0.4685    1.7570    1.6119 N   0  0  0  0  0  0  0  0  0  0  0  0
    1.2857    1.2267    1.9006 H   0  0  0  0  0  0  0  0  0  0  0  0
    0.3089    3.1230    2.0947 C   0  0  0  0  0  0  0  0  0  0  0  0
   -0.6611    3.2441    2.5885 H   0  0  0  0  0  0  0  0  0  0  0  0
    1.0955    3.3633    2.8164 H   0  0  0  0  0  0  0  0  0  0  0  0
    0.3721    3.8333    1.2637 H   0  0  0  0  0  0  0  0  0  0  0  0
  1  2  1  0  0  0  0
  2  3  1  0  0  0  0
  2  4  1  0  0  0  0
  2  5  1  0  0  0  0
  5  6  2  0  0  0  0
  5  7  1  0  0  0  0
  7  8  1  0  0  0  0
  7  9  1  0  0  0  0
  9 10  1  0  0  0  0
  9 11  1  0  0  0  0
  9 21  1  0  0  0  0
 11 12  1  0  0  0  0
 11 13  1  0  0  0  0
 11 14  1  0  0  0  0
 14 15  1  0  0  0  0
 14 16  1  0  0  0  0
 14 17  1  0  0  0  0
 17 18  2  0  0  0  0
 17 19  1  0  0  0  0
 19 20  1  0  0  0  0
 21 22  2  0  0  0  0
 21 23  1  0  0  0  0
 23 24  1  0  0  0  0
 23 25  1  0  0  0  0
 25 26  1  0  0  0  0
 25 27  1  0  0  0  0
 25 28  1  0  0  0  0
M  END
$$$$

  -OEChem-02102214123D

 28 27  0     1  0  0  0  0  0999 V2000
   -3.1189   -3.7485    1.3222 H   0  0  0  0  0  0  0  0  0  0  0  0
   -3.1187   -2.7581    0.8585 C   0  0  0  0  0  0  0  0  0  0  0  0
   -3.7347   -2.0867    1.4618 H   0  0  0  0  0  0  0  0  0  0  0  0
   -3.5506   -2.8372   -0.1421 H   0  0  0  0  0  0  0  0  0  0  0  0
   -1.7023   -2.2222    0.7696 C   0  0  0  0  0  0  0  0  0  0  0  0
   -0.7633   -2.9026    1.1515 O   0  0  0  0  0  0  0  0  0  0  0  0
   -1.4775   -0.9620    0.2583 N   0  0  0  0  0  0  0  0  0  0  0  0
   -2.2941   -0.3831    0.0620 H   0  0  0  0  0  0  0  0  0  0  0  0
   -0.1764   -0.2788    0.2662 C   0  0  1  0  0  0  0  0  0  0  0  0
    0.5016   -0.7446    0.9890 H   0  0  0  0  0  0  0  0  0  0  0  0
    0.4151   -0.4438   -1.1531 C   0  0  0  0  0  0  0  0  0  0  0  0
    0.4863   -1.5154   -1.3691 H   0  0  0  0  0  0  0  0  0  0  0  0
   -0.2940   -0.0141   -1.8703 H   0  0  0  0  0  0  0  0  0  0  0  0
    1.8013    0.1875   -1.4172 C   0  0  0  0  0  0  0  0  0  0  0  0
    2.5316   -0.2913   -0.7587 H   0  0  0  0  0  0  0  0  0  0  0  0
    2.0977   -0.0385   -2.4453 H   0  0  0  0  0  0  0  0  0  0  0  0
    1.9071    1.6965   -1.2276 C   0  0  0  0  0  0  0  0  0  0  0  0
    1.2511    2.4200   -1.9543 O   0  0  0  0  0  0  0  0  0  0  0  0
    2.7416    2.1582   -0.2673 O   0  0  0  0  0  0  0  0  0  0  0  0
    2.6814    3.1250   -0.3210 H   0  0  0  0  0  0  0  0  0  0  0  0
   -0.4146    1.1780    0.7236 C   0  0  0  0  0  0  0  0  0  0  0  0
   -1.4192    1.7761    0.3544 O   0  0  0  0  0  0  0  0  0  0  0  0
    0.4146    1.7728    1.6565 N   0  0  0  0  0  0  0  0  0  0  0  0
    1.2594    1.2731    1.9211 H   0  0  0  0  0  0  0  0  0  0  0  0
    0.2093    3.1262    2.1572 C   0  0  0  0  0  0  0  0  0  0  0  0
   -0.7638    3.2078    2.6528 H   0  0  0  0  0  0  0  0  0  0  0  0
    0.9876    3.3838    2.8817 H   0  0  0  0  0  0  0  0  0  0  0  0
    0.2473    3.8482    1.3347 H   0  0  0  0  0  0  0  0  0  0  0  0
  1  2  1  0  0  0  0
  2  3  1  0  0  0  0
  2  4  1  0  0  0  0
  2  5  1  0  0  0  0
  5  6  2  0  0  0  0
  5  7  1  0  0  0  0
  7  8  1  0  0  0  0
  7  9  1  0  0  0  0
  9 10  1  0  0  0  0
  9 11  1  0  0  0  0
  9 21  1  0  0  0  0
 11 12  1  0  0  0  0
 11 13  1  0  0  0  0
 11 14  1  0  0  0  0
 14 15  1  0  0  0  0
 14 16  1  0  0  0  0
 14 17  1  0  0  0  0
 17 18  2  0  0  0  0
 17 19  1  0  0  0  0
 19 20  1  0  0  0  0
 21 22  2  0  0  0  0
 21 23  1  0  0  0  0
 23 24  1  0  0  0  0
 23 25  1  0  0  0  0
 25 26  1  0  0  0  0
 25 27  1  0  0  0  0
 25 28  1  0  0  0  0
M  END
$$$$

  -OEChem-02102214123D

 28 27  0     1  0  0  0  0  0999 V2000
   -3.0890   -3.7662    1.3176 H   0  0  0  0  0  0  0  0  0  0  0  0
   -3.0942   -2.7764    0.8527 C   0  0  0  0  0  0  0  0  0  0  0  0
   -3.7183   -2.1094    1.4524 H   0  0  0  0  0  0  0  0  0  0  0  0
   -3.5205   -2.8597   -0.1499 H   0  0  0  0  0  0  0  0  0  0  0  0
   -1.6818   -2.2297    0.7696 C   0  0  0  0  0  0  0  0  0  0  0  0
   -0.7384   -2.9074    1.1450 O   0  0  0  0  0  0  0  0  0  0  0  0
   -1.4652   -0.9632    0.2706 N   0  0  0  0  0  0  0  0  0  0  0  0
   -2.2858   -0.3883    0.0776 H   0  0  0  0  0  0  0  0  0  0  0  0
   -0.1690   -0.2698    0.2917 C   0  0  1  0  0  0  0  0  0  0  0  0
    0.5174   -0.7347    1.0074 H   0  0  0  0  0  0  0  0  0  0  0  0
    0.4097   -0.4154   -1.1365 C   0  0  0  0  0  0  0  0  0  0  0  0
    0.4633   -1.4827   -1.3779 H   0  0  0  0  0  0  0  0  0  0  0  0
   -0.3131    0.0360   -1.8259 H   0  0  0  0  0  0  0  0  0  0  0  0
    1.7907    0.2099   -1.4496 C   0  0  0  0  0  0  0  0  0  0  0  0
    2.5571   -0.4356   -1.0110 H   0  0  0  0  0  0  0  0  0  0  0  0
    1.9433    0.1949   -2.5327 H   0  0  0  0  0  0  0  0  0  0  0  0
    2.0576    1.6258   -0.9554 C   0  0  0  0  0  0  0  0  0  0  0  0
    1.5453    2.5544   -1.5528 O   0  0  0  0  0  0  0  0  0  0  0  0
    2.8718    1.7827    0.1152 O   0  0  0  0  0  0  0  0  0  0  0  0
    2.9487    2.7422    0.2373 H   0  0  0  0  0  0  0  0  0  0  0  0
   -0.4436    1.1774    0.7631 C   0  0  0  0  0  0  0  0  0  0  0  0
   -1.4520    1.7610    0.3804 O   0  0  0  0  0  0  0  0  0  0  0  0
    0.3615    1.7818    1.7109 N   0  0  0  0  0  0  0  0  0  0  0  0
    1.2159    1.2970    1.9746 H   0  0  0  0  0  0  0  0  0  0  0  0
    0.1405    3.1390    2.1948 C   0  0  0  0  0  0  0  0  0  0  0  0
   -0.8507    3.2265    2.6524 H   0  0  0  0  0  0  0  0  0  0  0  0
    0.8911    3.3998    2.9470 H   0  0  0  0  0  0  0  0  0  0  0  0
    0.2115    3.8552    1.3693 H   0  0  0  0  0  0  0  0  0  0  0  0
  1  2  1  0  0  0  0
  2  3  1  0  0  0  0
  2  4  1  0  0  0  0
  2  5  1  0  0  0  0
  5  6  2  0  0  0  0
  5  7  1  0  0  0  0
  7  8  1  0  0  0  0
  7  9  1  0  0  0  0
  9 10  1  0  0  0  0
  9 11  1  0  0  0  0
  9 21  1  0  0  0  0
 11 12  1  0  0  0  0
 11 13  1  0  0  0  0
 11 14  1  0  0  0  0
 14 15  1  0  0  0  0
 14 16  1  0  0  0  0
 14 17  1  0  0  0  0
 17 18  2  0  0  0  0
 17 19  1  0  0  0  0
 19 20  1  0  0  0  0
 21 22  2  0  0  0  0
 21 23  1  0  0  0  0
 23 24  1  0  0  0  0
 23 25  1  0  0  0  0
 25 26  1  0  0  0  0
 25 27  1  0  0  0  0
 25 28  1  0  0  0  0
M  END
$$$$

  -OEChem-02102214123D

 28 27  0     1  0  0  0  0  0999 V2000
   -3.0760   -3.7789    1.3178 H   0  0  0  0  0  0  0  0  0  0  0  0
   -3.0820   -2.7919    0.8470 C   0  0  0  0  0  0  0  0  0  0  0  0
   -3.7156   -2.1248    1.4364 H   0  0  0  0  0  0  0  0  0  0  0  0
   -3.4977   -2.8832   -0.1594 H   0  0  0  0  0  0  0  0  0  0  0  0
   -1.6716   -2.2383    0.7759 C   0  0  0  0  0  0  0  0  0  0  0  0
   -0.7281   -2.9107    1.1604 O   0  0  0  0  0  0  0  0  0  0  0  0
   -1.4578   -0.9691    0.2823 N   0  0  0  0  0  0  0  0  0  0  0  0
   -2.2797   -0.3994    0.0805 H   0  0  0  0  0  0  0  0  0  0  0  0
   -0.1657   -0.2684    0.3176 C   0  0  1  0  0  0  0  0  0  0  0  0
    0.5253   -0.7325    1.0294 H   0  0  0  0  0  0  0  0  0  0  0  0
    0.4050   -0.3902   -1.1164 C   0  0  0  0  0  0  0  0  0  0  0  0
    0.4499   -1.4526   -1.3798 H   0  0  0  0  0  0  0  0  0  0  0  0
   -0.3270    0.0749   -1.7868 H   0  0  0  0  0  0  0  0  0  0  0  0
    1.7816    0.2373   -1.4536 C   0  0  0  0  0  0  0  0  0  0  0  0
    2.5440   -0.5248   -1.2683 H   0  0  0  0  0  0  0  0  0  0  0  0
    1.8102    0.4603   -2.5245 H   0  0  0  0  0  0  0  0  0  0  0  0
    2.2235    1.4803   -0.6922 C   0  0  0  0  0  0  0  0  0  0  0  0
    1.9613    2.5725   -1.1615 O   0  0  0  0  0  0  0  0  0  0  0  0
    2.9224    1.3090    0.4556 O   0  0  0  0  0  0  0  0  0  0  0  0
    3.1774    2.2032    0.7328 H   0  0  0  0  0  0  0  0  0  0  0  0
   -0.4634    1.1739    0.7913 C   0  0  0  0  0  0  0  0  0  0  0  0
   -1.4559    1.7593    0.3710 O   0  0  0  0  0  0  0  0  0  0  0  0
    0.3218    1.7847    1.7506 N   0  0  0  0  0  0  0  0  0  0  0  0
    1.1630    1.2921    2.0415 H   0  0  0  0  0  0  0  0  0  0  0  0
    0.1159    3.1585    2.1921 C   0  0  0  0  0  0  0  0  0  0  0  0
   -0.8947    3.2853    2.5946 H   0  0  0  0  0  0  0  0  0  0  0  0
    0.8333    3.4150    2.9773 H   0  0  0  0  0  0  0  0  0  0  0  0
    0.2519    3.8528    1.3560 H   0  0  0  0  0  0  0  0  0  0  0  0
  1  2  1  0  0  0  0
  2  3  1  0  0  0  0
  2  4  1  0  0  0  0
  2  5  1  0  0  0  0
  5  6  2  0  0  0  0
  5  7  1  0  0  0  0
  7  8  1  0  0  0  0
  7  9  1  0  0  0  0
  9 10  1  0  0  0  0
  9 11  1  0  0  0  0
  9 21  1  0  0  0  0
 11 12  1  0  0  0  0
 11 13  1  0  0  0  0
 11 14  1  0  0  0  0
 14 15  1  0  0  0  0
 14 16  1  0  0  0  0
 14 17  1  0  0  0  0
 17 18  2  0  0  0  0
 17 19  1  0  0  0  0
 19 20  1  0  0  0  0
 21 22  2  0  0  0  0
 21 23  1  0  0  0  0
 23 24  1  0  0  0  0
 23 25  1  0  0  0  0
 25 26  1  0  0  0  0
 25 27  1  0  0  0  0
 25 28  1  0  0  0  0
M  END
$$$$

  -OEChem-02102214123D

 28 27  0     1  0  0  0  0  0999 V2000
   -3.1663   -3.7117    1.3262 H   0  0  0  0  0  0  0  0  0  0  0  0
   -3.1413   -2.7320    0.8409 C   0  0  0  0  0  0  0  0  0  0  0  0
   -3.7875   -2.0476    1.3958 H   0  0  0  0  0  0  0  0  0  0  0  0
   -3.5200   -2.8337   -0.1789 H   0  0  0  0  0  0  0  0  0  0  0  0
   -1.7219   -2.1979    0.8143 C   0  0  0  0  0  0  0  0  0  0  0  0
   -0.8058   -2.8672    1.2646 O   0  0  0  0  0  0  0  0  0  0  0  0
   -1.4694   -0.9512    0.2830 N   0  0  0  0  0  0  0  0  0  0  0  0
   -2.2734   -0.3812    0.0202 H   0  0  0  0  0  0  0  0  0  0  0  0
   -0.1690   -0.2677    0.3438 C   0  0  1  0  0  0  0  0  0  0  0  0
    0.4911   -0.7197    1.0920 H   0  0  0  0  0  0  0  0  0  0  0  0
    0.4436   -0.4319   -1.0672 C   0  0  0  0  0  0  0  0  0  0  0  0
    0.4834   -1.5026   -1.2961 H   0  0  0  0  0  0  0  0  0  0  0  0
   -0.2633    0.0176   -1.7741 H   0  0  0  0  0  0  0  0  0  0  0  0
    1.8400    0.1669   -1.3824 C   0  0  0  0  0  0  0  0  0  0  0  0
    2.5530   -0.6615   -1.4222 H   0  0  0  0  0  0  0  0  0  0  0  0
    1.8098    0.6055   -2.3848 H   0  0  0  0  0  0  0  0  0  0  0  0
    2.4349    1.1936   -0.4247 C   0  0  0  0  0  0  0  0  0  0  0  0
    2.5000    2.3546   -0.7864 O   0  0  0  0  0  0  0  0  0  0  0  0
    2.9169    0.7559    0.7636 O   0  0  0  0  0  0  0  0  0  0  0  0
    3.3598    1.5239    1.1584 H   0  0  0  0  0  0  0  0  0  0  0  0
   -0.4562    1.1966    0.7512 C   0  0  0  0  0  0  0  0  0  0  0  0
   -1.4052    1.7916    0.2514 O   0  0  0  0  0  0  0  0  0  0  0  0
    0.3031    1.8291    1.7166 N   0  0  0  0  0  0  0  0  0  0  0  0
    1.0967    1.3149    2.0900 H   0  0  0  0  0  0  0  0  0  0  0  0
    0.1147    3.2234    2.0971 C   0  0  0  0  0  0  0  0  0  0  0  0
   -0.9047    3.3869    2.4625 H   0  0  0  0  0  0  0  0  0  0  0  0
    0.8134    3.4972    2.8933 H   0  0  0  0  0  0  0  0  0  0  0  0
    0.2918    3.8802    1.2387 H   0  0  0  0  0  0  0  0  0  0  0  0
  1  2  1  0  0  0  0
  2  3  1  0  0  0  0
  2  4  1  0  0  0  0
  2  5  1  0  0  0  0
  5  6  2  0  0  0  0
  5  7  1  0  0  0  0
  7  8  1  0  0  0  0
  7  9  1  0  0  0  0
  9 10  1  0  0  0  0
  9 11  1  0  0  0  0
  9 21  1  0  0  0  0
 11 12  1  0  0  0  0
 11 13  1  0  0  0  0
 11 14  1  0  0  0  0
 14 15  1  0  0  0  0
 14 16  1  0  0  0  0
 14 17  1  0  0  0  0
 17 18  2  0  0  0  0
 17 19  1  0  0  0  0
 19 20  1  0  0  0  0
 21 22  2  0  0  0  0
 21 23  1  0  0  0  0
 23 24  1  0  0  0  0
 23 25  1  0  0  0  0
 25 26  1  0  0  0  0
 25 27  1  0  0  0  0
 25 28  1  0  0  0  0
M  END
$$$$

  -OEChem-02102214123D

 28 27  0     1  0  0  0  0  0999 V2000
   -3.3525   -3.6728    1.1918 H   0  0  0  0  0  0  0  0  0  0  0  0
   -3.2685   -2.6904    0.7188 C   0  0  0  0  0  0  0  0  0  0  0  0
   -3.9216   -1.9895    1.2445 H   0  0  0  0  0  0  0  0  0  0  0  0
   -3.5934   -2.7711   -0.3213 H   0  0  0  0  0  0  0  0  0  0  0  0
   -1.8330   -2.2038    0.7746 C   0  0  0  0  0  0  0  0  0  0  0  0
   -0.9671   -2.9089    1.2663 O   0  0  0  0  0  0  0  0  0  0  0  0
   -1.5110   -0.9671    0.2574 N   0  0  0  0  0  0  0  0  0  0  0  0
   -2.2819   -0.3720   -0.0440 H   0  0  0  0  0  0  0  0  0  0  0  0
   -0.1927   -0.3265    0.3769 C   0  0  1  0  0  0  0  0  0  0  0  0
    0.4030   -0.8096    1.1586 H   0  0  0  0  0  0  0  0  0  0  0  0
    0.4943   -0.5087   -0.9961 C   0  0  0  0  0  0  0  0  0  0  0  0
    0.5314   -1.5847   -1.1990 H   0  0  0  0  0  0  0  0  0  0  0  0
   -0.1600   -0.0659   -1.7556 H   0  0  0  0  0  0  0  0  0  0  0  0
    1.9251    0.0541   -1.2265 C   0  0  0  0  0  0  0  0  0  0  0  0
    2.5745   -0.7717   -1.5306 H   0  0  0  0  0  0  0  0  0  0  0  0
    1.8779    0.7457   -2.0730 H   0  0  0  0  0  0  0  0  0  0  0  0
    2.6324    0.7811   -0.0845 C   0  0  0  0  0  0  0  0  0  0  0  0
    2.7718    0.2171    0.9891 O   0  0  0  0  0  0  0  0  0  0  0  0
    3.0837    2.0324   -0.3325 O   0  0  0  0  0  0  0  0  0  0  0  0
    3.5211    2.3319    0.4784 H   0  0  0  0  0  0  0  0  0  0  0  0
   -0.4105    1.1521    0.7709 C   0  0  0  0  0  0  0  0  0  0  0  0
   -1.3012    1.7998    0.2312 O   0  0  0  0  0  0  0  0  0  0  0  0
    0.3466    1.7439    1.7639 N   0  0  0  0  0  0  0  0  0  0  0  0
    1.1057    1.1886    2.1576 H   0  0  0  0  0  0  0  0  0  0  0  0
    0.1966    3.1354    2.1696 C   0  0  0  0  0  0  0  0  0  0  0  0
   -0.8138    3.3161    2.5514 H   0  0  0  0  0  0  0  0  0  0  0  0
    0.9128    3.3782    2.9604 H   0  0  0  0  0  0  0  0  0  0  0  0
    0.3772    3.8032    1.3206 H   0  0  0  0  0  0  0  0  0  0  0  0
  1  2  1  0  0  0  0
  2  3  1  0  0  0  0
  2  4  1  0  0  0  0
  2  5  1  0  0  0  0
  5  6  2  0  0  0  0
  5  7  1  0  0  0  0
  7  8  1  0  0  0  0
  7  9  1  0  0  0  0
  9 10  1  0  0  0  0
  9 11  1  0  0  0  0
  9 21  1  0  0  0  0
 11 12  1  0  0  0  0
 11 13  1  0  0  0  0
 11 14  1  0  0  0  0
 14 15  1  0  0  0  0
 14 16  1  0  0  0  0
 14 17  1  0  0  0  0
 17 18  2  0  0  0  0
 17 19  1  0  0  0  0
 19 20  1  0  0  0  0
 21 22  2  0  0  0  0
 21 23  1  0  0  0  0
 23 24  1  0  0  0  0
 23 25  1  0  0  0  0
 25 26  1  0  0  0  0
 25 27  1  0  0  0  0
 25 28  1  0  0  0  0
M  END
$$$$

  -OEChem-02102214123D

 28 27  0     1  0  0  0  0  0999 V2000
   -3.3469   -3.7193    1.1746 H   0  0  0  0  0  0  0  0  0  0  0  0
   -3.2746   -2.7322    0.7094 C   0  0  0  0  0  0  0  0  0  0  0  0
   -3.9375   -2.0438    1.2392 H   0  0  0  0  0  0  0  0  0  0  0  0
   -3.5963   -2.8089   -0.3320 H   0  0  0  0  0  0  0  0  0  0  0  0
   -1.8452   -2.2282    0.7723 C   0  0  0  0  0  0  0  0  0  0  0  0
   -0.9759   -2.9200    1.2765 O   0  0  0  0  0  0  0  0  0  0  0  0
   -1.5349   -0.9909    0.2480 N   0  0  0  0  0  0  0  0  0  0  0  0
   -2.3113   -0.4129   -0.0706 H   0  0  0  0  0  0  0  0  0  0  0  0
   -0.2259   -0.3306    0.3629 C   0  0  1  0  0  0  0  0  0  0  0  0
    0.3549   -0.8125    1.1549 H   0  0  0  0  0  0  0  0  0  0  0  0
    0.4857   -0.5090   -0.9953 C   0  0  0  0  0  0  0  0  0  0  0  0
    0.5629   -1.5882   -1.1673 H   0  0  0  0  0  0  0  0  0  0  0  0
   -0.1628   -0.1066   -1.7814 H   0  0  0  0  0  0  0  0  0  0  0  0
    1.9080    0.0876   -1.1944 C   0  0  0  0  0  0  0  0  0  0  0  0
    2.5112   -0.6302   -1.7573 H   0  0  0  0  0  0  0  0  0  0  0  0
    1.7955    0.9723   -1.8285 H   0  0  0  0  0  0  0  0  0  0  0  0
    2.7298    0.5310    0.0190 C   0  0  0  0  0  0  0  0  0  0  0  0
    2.7157   -0.1267    1.0459 O   0  0  0  0  0  0  0  0  0  0  0  0
    3.4605    1.6604   -0.1259 O   0  0  0  0  0  0  0  0  0  0  0  0
    3.9420    1.7821    0.7061 H   0  0  0  0  0  0  0  0  0  0  0  0
   -0.4136    1.1516    0.7449 C   0  0  0  0  0  0  0  0  0  0  0  0
   -1.2891    1.8155    0.2011 O   0  0  0  0  0  0  0  0  0  0  0  0
    0.3679    1.7281    1.7275 N   0  0  0  0  0  0  0  0  0  0  0  0
    1.0912    1.1441    2.1450 H   0  0  0  0  0  0  0  0  0  0  0  0
    0.2566    3.1241    2.1297 C   0  0  0  0  0  0  0  0  0  0  0  0
   -0.7545    3.3394    2.4914 H   0  0  0  0  0  0  0  0  0  0  0  0
    0.9648    3.3438    2.9344 H   0  0  0  0  0  0  0  0  0  0  0  0
    0.4767    3.7842    1.2841 H   0  0  0  0  0  0  0  0  0  0  0  0
  1  2  1  0  0  0  0
  2  3  1  0  0  0  0
  2  4  1  0  0  0  0
  2  5  1  0  0  0  0
  5  6  2  0  0  0  0
  5  7  1  0  0  0  0
  7  8  1  0  0  0  0
  7  9  1  0  0  0  0
  9 10  1  0  0  0  0
  9 11  1  0  0  0  0
  9 21  1  0  0  0  0
 11 12  1  0  0  0  0
 11 13  1  0  0  0  0
 11 14  1  0  0  0  0
 14 15  1  0  0  0  0
 14 16  1  0  0  0  0
 14 17  1  0  0  0  0
 17 18  2  0  0  0  0
 17 19  1  0  0  0  0
 19 20  1  0  0  0  0
 21 22  2  0  0  0  0
 21 23  1  0  0  0  0
 23 24  1  0  0  0  0
 23 25  1  0  0  0  0
 25 26  1  0  0  0  0
 25 27  1  0  0  0  0
 25 28  1  0  0  0  0
M  END
$$$$

  -OEChem-02102214123D

 28 27  0     1  0  0  0  0  0999 V2000
   -3.3367   -3.7435    1.1920 H   0  0  0  0  0  0  0  0  0  0  0  0
   -3.2769   -2.7543    0.7296 C   0  0  0  0  0  0  0  0  0  0  0  0
   -3.9230   -2.0679    1.2823 H   0  0  0  0  0  0  0  0  0  0  0  0
   -3.6296   -2.8255   -0.3020 H   0  0  0  0  0  0  0  0  0  0  0  0
   -1.8460   -2.2511    0.7538 C   0  0  0  0  0  0  0  0  0  0  0  0
   -0.9648   -2.9432    1.2366 O   0  0  0  0  0  0  0  0  0  0  0  0
   -1.5505   -1.0108    0.2279 N   0  0  0  0  0  0  0  0  0  0  0  0
   -2.3370   -0.4353   -0.0699 H   0  0  0  0  0  0  0  0  0  0  0  0
   -0.2516   -0.3319    0.3497 C   0  0  1  0  0  0  0  0  0  0  0  0
    0.3116   -0.8107    1.1545 H   0  0  0  0  0  0  0  0  0  0  0  0
    0.4927   -0.4960   -0.9909 C   0  0  0  0  0  0  0  0  0  0  0  0
    0.5981   -1.5740   -1.1556 H   0  0  0  0  0  0  0  0  0  0  0  0
   -0.1455   -0.1103   -1.7936 H   0  0  0  0  0  0  0  0  0  0  0  0
    1.9080    0.1293   -1.1591 C   0  0  0  0  0  0  0  0  0  0  0  0
    2.4365   -0.4385   -1.9301 H   0  0  0  0  0  0  0  0  0  0  0  0
    1.7595    1.1387   -1.5542 H   0  0  0  0  0  0  0  0  0  0  0  0
    2.8686    0.2917    0.0268 C   0  0  0  0  0  0  0  0  0  0  0  0
    2.5988   -0.1312    1.1375 O   0  0  0  0  0  0  0  0  0  0  0  0
    4.0253    0.9343   -0.2528 O   0  0  0  0  0  0  0  0  0  0  0  0
    4.5355    0.9432    0.5712 H   0  0  0  0  0  0  0  0  0  0  0  0
   -0.4415    1.1504    0.7262 C   0  0  0  0  0  0  0  0  0  0  0  0
   -1.3291    1.8066    0.1926 O   0  0  0  0  0  0  0  0  0  0  0  0
    0.3381    1.7278    1.7088 N   0  0  0  0  0  0  0  0  0  0  0  0
    1.0944    1.1577    2.0879 H   0  0  0  0  0  0  0  0  0  0  0  0
    0.2222    3.1222    2.1147 C   0  0  0  0  0  0  0  0  0  0  0  0
   -0.7891    3.3328    2.4788 H   0  0  0  0  0  0  0  0  0  0  0  0
    0.9306    3.3417    2.9192 H   0  0  0  0  0  0  0  0  0  0  0  0
    0.4386    3.7857    1.2709 H   0  0  0  0  0  0  0  0  0  0  0  0
  1  2  1  0  0  0  0
  2  3  1  0  0  0  0
  2  4  1  0  0  0  0
  2  5  1  0  0  0  0
  5  6  2  0  0  0  0
  5  7  1  0  0  0  0
  7  8  1  0  0  0  0
  7  9  1  0  0  0  0
  9 10  1  0  0  0  0
  9 11  1  0  0  0  0
  9 21  1  0  0  0  0
 11 12  1  0  0  0  0
 11 13  1  0  0  0  0
 11 14  1  0  0  0  0
 14 15  1  0  0  0  0
 14 16  1  0  0  0  0
 14 17  1  0  0  0  0
 17 18  2  0  0  0  0
 17 19  1  0  0  0  0
 19 20  1  0  0  0  0
 21 22  2  0  0  0  0
 21 23  1  0  0  0  0
 23 24  1  0  0  0  0
 23 25  1  0  0  0  0
 25 26  1  0  0  0  0
 25 27  1  0  0  0  0
 25 28  1  0  0  0  0
M  END
$$$$

  -OEChem-02102214123D

 28 27  0     1  0  0  0  0  0999 V2000
   -3.0347   -3.8332    1.2000 H   0  0  0  0  0  0  0  0  0  0  0  0
   -3.0419   -2.8299    0.7649 C   0  0  0  0  0  0  0  0  0  0  0  0
   -3.6853   -2.1873    1.3709 H   0  0  0  0  0  0  0  0  0  0  0  0
   -3.4467   -2.8877   -0.2484 H   0  0  0  0  0  0  0  0  0  0  0  0
   -1.6347   -2.2655    0.7283 C   0  0  0  0  0  0  0  0  0  0  0  0
   -0.6973   -2.9281    1.1436 O   0  0  0  0  0  0  0  0  0  0  0  0
   -1.4188   -1.0002    0.2258 N   0  0  0  0  0  0  0  0  0  0  0  0
   -2.2415   -0.4394    0.0057 H   0  0  0  0  0  0  0  0  0  0  0  0
   -0.1396   -0.2819    0.3059 C   0  0  1  0  0  0  0  0  0  0  0  0
    0.5160   -0.7441    1.0512 H   0  0  0  0  0  0  0  0  0  0  0  0
    0.5088   -0.3327   -1.0925 C   0  0  0  0  0  0  0  0  0  0  0  0
    0.6425   -1.3875   -1.3579 H   0  0  0  0  0  0  0  0  0  0  0  0
   -0.1793    0.1037   -1.8249 H   0  0  0  0  0  0  0  0  0  0  0  0
    1.8790    0.3681   -1.2226 C   0  0  0  0  0  0  0  0  0  0  0  0
    2.3431    0.0790   -2.1699 H   0  0  0  0  0  0  0  0  0  0  0  0
    1.7268    1.4514   -1.2530 H   0  0  0  0  0  0  0  0  0  0  0  0
    2.8450    0.0499   -0.0823 C   0  0  0  0  0  0  0  0  0  0  0  0
    2.8759    0.7796    0.8954 O   0  0  0  0  0  0  0  0  0  0  0  0
    3.6103   -1.0571   -0.2135 O   0  0  0  0  0  0  0  0  0  0  0  0
    4.1397   -1.1240    0.5956 H   0  0  0  0  0  0  0  0  0  0  0  0
   -0.4340    1.1731    0.7448 C   0  0  0  0  0  0  0  0  0  0  0  0
   -1.4198    1.7470    0.2919 O   0  0  0  0  0  0  0  0  0  0  0  0
    0.3192    1.8023    1.7168 N   0  0  0  0  0  0  0  0  0  0  0  0
    1.2258    1.3824    1.9255 H   0  0  0  0  0  0  0  0  0  0  0  0
    0.0893    3.1816    2.1282 C   0  0  0  0  0  0  0  0  0  0  0  0
   -0.9401    3.3119    2.4786 H   0  0  0  0  0  0  0  0  0  0  0  0
    0.7659    3.4492    2.9457 H   0  0  0  0  0  0  0  0  0  0  0  0
    0.2661    3.8654    1.2915 H   0  0  0  0  0  0  0  0  0  0  0  0
  1  2  1  0  0  0  0
  2  3  1  0  0  0  0
  2  4  1  0  0  0  0
  2  5  1  0  0  0  0
  5  6  2  0  0  0  0
  5  7  1  0  0  0  0
  7  8  1  0  0  0  0
  7  9  1  0  0  0  0
  9 10  1  0  0  0  0
  9 11  1  0  0  0  0
  9 21  1  0  0  0  0
 11 12  1  0  0  0  0
 11 13  1  0  0  0  0
 11 14  1  0  0  0  0
 14 15  1  0  0  0  0
 14 16  1  0  0  0  0
 14 17  1  0  0  0  0
 17 18  2  0  0  0  0
 17 19  1  0  0  0  0
 19 20  1  0  0  0  0
 21 22  2  0  0  0  0
 21 23  1  0  0  0  0
 23 24  1  0  0  0  0
 23 25  1  0  0  0  0
 25 26  1  0  0  0  0
 25 27  1  0  0  0  0
 25 28  1  0  0  0  0
M  END
$$$$

  -OEChem-02102214123D

 28 27  0     1  0  0  0  0  0999 V2000
   -3.2743   -3.7473    1.2435 H   0  0  0  0  0  0  0  0  0  0  0  0
   -3.2279   -2.7650    0.7650 C   0  0  0  0  0  0  0  0  0  0  0  0
   -3.8859   -2.0793    1.3044 H   0  0  0  0  0  0  0  0  0  0  0  0
   -3.5760   -2.8586   -0.2665 H   0  0  0  0  0  0  0  0  0  0  0  0
   -1.8046   -2.2405    0.7850 C   0  0  0  0  0  0  0  0  0  0  0  0
   -0.9163   -2.9105    1.2845 O   0  0  0  0  0  0  0  0  0  0  0  0
   -1.5276   -1.0025    0.2441 N   0  0  0  0  0  0  0  0  0  0  0  0
   -2.3201   -0.4447   -0.0696 H   0  0  0  0  0  0  0  0  0  0  0  0
   -0.2252   -0.3234    0.3074 C   0  0  1  0  0  0  0  0  0  0  0  0
    0.3793   -0.7896    1.0898 H   0  0  0  0  0  0  0  0  0  0  0  0
    0.4622   -0.4947   -1.0632 C   0  0  0  0  0  0  0  0  0  0  0  0
    0.5609   -1.5675   -1.2629 H   0  0  0  0  0  0  0  0  0  0  0  0
   -0.1929   -0.0771   -1.8356 H   0  0  0  0  0  0  0  0  0  0  0  0
    1.8599    0.1581   -1.2074 C   0  0  0  0  0  0  0  0  0  0  0  0
    2.2103   -0.0221   -2.2275 H   0  0  0  0  0  0  0  0  0  0  0  0
    1.7595    1.2409   -1.0921 H   0  0  0  0  0  0  0  0  0  0  0  0
    2.9697   -0.3088   -0.2622 C   0  0  0  0  0  0  0  0  0  0  0  0
    2.7462   -1.1371    0.6017 O   0  0  0  0  0  0  0  0  0  0  0  0
    4.1832    0.2582   -0.4455 O   0  0  0  0  0  0  0  0  0  0  0  0
    4.7704   -0.1541    0.2067 H   0  0  0  0  0  0  0  0  0  0  0  0
   -0.3871    1.1602    0.6860 C   0  0  0  0  0  0  0  0  0  0  0  0
   -1.2736    1.8307    0.1695 O   0  0  0  0  0  0  0  0  0  0  0  0
    0.4423    1.7327    1.6318 N   0  0  0  0  0  0  0  0  0  0  0  0
    1.1199    1.1260    2.0874 H   0  0  0  0  0  0  0  0  0  0  0  0
    0.3145    3.1150    2.0766 C   0  0  0  0  0  0  0  0  0  0  0  0
   -0.6721    3.2855    2.5204 H   0  0  0  0  0  0  0  0  0  0  0  0
    1.0762    3.3427    2.8285 H   0  0  0  0  0  0  0  0  0  0  0  0
    0.4448    3.8019    1.2337 H   0  0  0  0  0  0  0  0  0  0  0  0
  1  2  1  0  0  0  0
  2  3  1  0  0  0  0
  2  4  1  0  0  0  0
  2  5  1  0  0  0  0
  5  6  2  0  0  0  0
  5  7  1  0  0  0  0
  7  8  1  0  0  0  0
  7  9  1  0  0  0  0
  9 10  1  0  0  0  0
  9 11  1  0  0  0  0
  9 21  1  0  0  0  0
 11 12  1  0  0  0  0
 11 13  1  0  0  0  0
 11 14  1  0  0  0  0
 14 15  1  0  0  0  0
 14 16  1  0  0  0  0
 14 17  1  0  0  0  0
 17 18  2  0  0  0  0
 17 19  1  0  0  0  0
 19 20  1  0  0  0  0
 21 22  2  0  0  0  0
 21 23  1  0  0  0  0
 23 24  1  0  0  0  0
 23 25  1  0  0  0  0
 25 26  1  0  0  0  0
 25 27  1  0  0  0  0
 25 28  1  0  0  0  0
M  END
$$$$

  -OEChem-02102214123D

 28 27  0     1  0  0  0  0  0999 V2000
   -3.0186   -3.8756    1.1291 H   0  0  0  0  0  0  0  0  0  0  0  0
   -3.0471   -2.8639    0.7149 C   0  0  0  0  0  0  0  0  0  0  0  0
   -3.7067   -2.2490    1.3320 H   0  0  0  0  0  0  0  0  0  0  0  0
   -3.4480   -2.9105   -0.3005 H   0  0  0  0  0  0  0  0  0  0  0  0
   -1.6522   -2.2682    0.6937 C   0  0  0  0  0  0  0  0  0  0  0  0
   -0.7043   -2.9158    1.1084 O   0  0  0  0  0  0  0  0  0  0  0  0
   -1.4591   -0.9979    0.1927 N   0  0  0  0  0  0  0  0  0  0  0  0
   -2.2909   -0.4606   -0.0479 H   0  0  0  0  0  0  0  0  0  0  0  0
   -0.1918   -0.2575    0.2585 C   0  0  1  0  0  0  0  0  0  0  0  0
    0.4492   -0.7115    1.0217 H   0  0  0  0  0  0  0  0  0  0  0  0
    0.5134   -0.3792   -1.1050 C   0  0  0  0  0  0  0  0  0  0  0  0
    0.6663   -1.4377   -1.3447 H   0  0  0  0  0  0  0  0  0  0  0  0
   -0.1454    0.0400   -1.8732 H   0  0  0  0  0  0  0  0  0  0  0  0
    1.8627    0.3634   -1.1585 C   0  0  0  0  0  0  0  0  0  0  0  0
    2.1817    0.4328   -2.2024 H   0  0  0  0  0  0  0  0  0  0  0  0
    1.7780    1.3872   -0.7848 H   0  0  0  0  0  0  0  0  0  0  0  0
    2.9430   -0.3881   -0.3933 C   0  0  0  0  0  0  0  0  0  0  0  0
    3.0866   -0.1166    0.7884 O   0  0  0  0  0  0  0  0  0  0  0  0
    3.6683   -1.3242   -1.0465 O   0  0  0  0  0  0  0  0  0  0  0  0
    4.2703   -1.7056   -0.3892 H   0  0  0  0  0  0  0  0  0  0  0  0
   -0.4225    1.2018    0.6970 C   0  0  0  0  0  0  0  0  0  0  0  0
   -1.3757    1.8311    0.2524 O   0  0  0  0  0  0  0  0  0  0  0  0
    0.3982    1.7768    1.6489 N   0  0  0  0  0  0  0  0  0  0  0  0
    1.2105    1.2394    1.9494 H   0  0  0  0  0  0  0  0  0  0  0  0
    0.2436    3.1478    2.1178 C   0  0  0  0  0  0  0  0  0  0  0  0
   -0.7271    3.2774    2.6078 H   0  0  0  0  0  0  0  0  0  0  0  0
    1.0300    3.3913    2.8388 H   0  0  0  0  0  0  0  0  0  0  0  0
    0.3125    3.8501    1.2804 H   0  0  0  0  0  0  0  0  0  0  0  0
  1  2  1  0  0  0  0
  2  3  1  0  0  0  0
  2  4  1  0  0  0  0
  2  5  1  0  0  0  0
  5  6  2  0  0  0  0
  5  7  1  0  0  0  0
  7  8  1  0  0  0  0
  7  9  1  0  0  0  0
  9 10  1  0  0  0  0
  9 11  1  0  0  0  0
  9 21  1  0  0  0  0
 11 12  1  0  0  0  0
 11 13  1  0  0  0  0
 11 14  1  0  0  0  0
 14 15  1  0  0  0  0
 14 16  1  0  0  0  0
 14 17  1  0  0  0  0
 17 18  2  0  0  0  0
 17 19  1  0  0  0  0
 19 20  1  0  0  0  0
 21 22  2  0  0  0  0
 21 23  1  0  0  0  0
 23 24  1  0  0  0  0
 23 25  1  0  0  0  0
 25 26  1  0  0  0  0
 25 27  1  0  0  0  0
 25 28  1  0  0  0  0
M  END
$$$$

  -OEChem-02102214123D

 28 27  0     1  0  0  0  0  0999 V2000
   -3.0488   -3.8405    1.0960 H   0  0  0  0  0  0  0  0  0  0  0  0
   -3.0551   -2.8317    0.6740 C   0  0  0  0  0  0  0  0  0  0  0  0
   -3.7308   -2.2074    1.2634 H   0  0  0  0  0  0  0  0  0  0  0  0
   -3.4205   -2.8826   -0.3545 H   0  0  0  0  0  0  0  0  0  0  0  0
   -1.6557   -2.2466    0.6976 C   0  0  0  0  0  0  0  0  0  0  0  0
   -0.7286   -2.8962    1.1536 O   0  0  0  0  0  0  0  0  0  0  0  0
   -1.4343   -0.9823    0.1940 N   0  0  0  0  0  0  0  0  0  0  0  0
   -2.2513   -0.4406   -0.0849 H   0  0  0  0  0  0  0  0  0  0  0  0
   -0.1586   -0.2582    0.2808 C   0  0  1  0  0  0  0  0  0  0  0  0
    0.4815   -0.7144    1.0439 H   0  0  0  0  0  0  0  0  0  0  0  0
    0.5409   -0.3841   -1.0848 C   0  0  0  0  0  0  0  0  0  0  0  0
    0.6622   -1.4426   -1.3422 H   0  0  0  0  0  0  0  0  0  0  0  0
   -0.1146    0.0604   -1.8418 H   0  0  0  0  0  0  0  0  0  0  0  0
    1.9047    0.3325   -1.1457 C   0  0  0  0  0  0  0  0  0  0  0  0
    2.0961    0.6296   -2.1808 H   0  0  0  0  0  0  0  0  0  0  0  0
    1.9228    1.2457   -0.5468 H   0  0  0  0  0  0  0  0  0  0  0  0
    3.0328   -0.5976   -0.7219 C   0  0  0  0  0  0  0  0  0  0  0  0
    3.3888   -0.5575    0.4439 O   0  0  0  0  0  0  0  0  0  0  0  0
    3.5693   -1.4273   -1.6459 O   0  0  0  0  0  0  0  0  0  0  0  0
    4.2425   -1.9463   -1.1797 H   0  0  0  0  0  0  0  0  0  0  0  0
   -0.4038    1.2032    0.7081 C   0  0  0  0  0  0  0  0  0  0  0  0
   -1.3391    1.8315    0.2254 O   0  0  0  0  0  0  0  0  0  0  0  0
    0.3869    1.7917    1.6775 N   0  0  0  0  0  0  0  0  0  0  0  0
    1.1444    1.2358    2.0682 H   0  0  0  0  0  0  0  0  0  0  0  0
    0.1893    3.1545    2.1546 C   0  0  0  0  0  0  0  0  0  0  0  0
   -0.7941    3.2560    2.6256 H   0  0  0  0  0  0  0  0  0  0  0  0
    0.9550    3.4116    2.8930 H   0  0  0  0  0  0  0  0  0  0  0  0
    0.2579    3.8654    1.3243 H   0  0  0  0  0  0  0  0  0  0  0  0
  1  2  1  0  0  0  0
  2  3  1  0  0  0  0
  2  4  1  0  0  0  0
  2  5  1  0  0  0  0
  5  6  2  0  0  0  0
  5  7  1  0  0  0  0
  7  8  1  0  0  0  0
  7  9  1  0  0  0  0
  9 10  1  0  0  0  0
  9 11  1  0  0  0  0
  9 21  1  0  0  0  0
 11 12  1  0  0  0  0
 11 13  1  0  0  0  0
 11 14  1  0  0  0  0
 14 15  1  0  0  0  0
 14 16  1  0  0  0  0
 14 17  1  0  0  0  0
 17 18  2  0  0  0  0
 17 19  1  0  0  0  0
 19 20  1  0  0  0  0
 21 22  2  0  0  0  0
 21 23  1  0  0  0  0
 23 24  1  0  0  0  0
 23 25  1  0  0  0  0
 25 26  1  0  0  0  0
 25 27  1  0  0  0  0
 25 28  1  0  0  0  0
M  END
$$$$

  -OEChem-02102214123D

 28 27  0     1  0  0  0  0  0999 V2000
   -3.0899   -3.8082    1.0601 H   0  0  0  0  0  0  0  0  0  0  0  0
   -3.0738   -2.8006    0.6357 C   0  0  0  0  0  0  0  0  0  0  0  0
   -3.7554   -2.1660    1.2071 H   0  0  0  0  0  0  0  0  0  0  0  0
   -3.4154   -2.8497   -0.4010 H   0  0  0  0  0  0  0  0  0  0  0  0
   -1.6685   -2.2325    0.6911 C   0  0  0  0  0  0  0  0  0  0  0  0
   -0.7614   -2.8870    1.1791 O   0  0  0  0  0  0  0  0  0  0  0  0
   -1.4205   -0.9733    0.1877 N   0  0  0  0  0  0  0  0  0  0  0  0
   -2.2231   -0.4249   -0.1190 H   0  0  0  0  0  0  0  0  0  0  0  0
   -0.1368   -0.2664    0.2942 C   0  0  1  0  0  0  0  0  0  0  0  0
    0.4937   -0.7296    1.0611 H   0  0  0  0  0  0  0  0  0  0  0  0
    0.5664   -0.3886   -1.0697 C   0  0  0  0  0  0  0  0  0  0  0  0
    0.6677   -1.4478   -1.3327 H   0  0  0  0  0  0  0  0  0  0  0  0
   -0.0802    0.0690   -1.8266 H   0  0  0  0  0  0  0  0  0  0  0  0
    1.9434    0.3076   -1.1242 C   0  0  0  0  0  0  0  0  0  0  0  0
    2.0251    0.8525   -2.0689 H   0  0  0  0  0  0  0  0  0  0  0  0
    2.0671    1.0385   -0.3223 H   0  0  0  0  0  0  0  0  0  0  0  0
    3.0832   -0.7020   -1.0752 C   0  0  0  0  0  0  0  0  0  0  0  0
    3.7084   -0.8062   -0.0339 O   0  0  0  0  0  0  0  0  0  0  0  0
    3.3417   -1.4327   -2.1843 O   0  0  0  0  0  0  0  0  0  0  0  0
    4.0794   -2.0172   -1.9515 H   0  0  0  0  0  0  0  0  0  0  0  0
   -0.3833    1.1986    0.7134 C   0  0  0  0  0  0  0  0  0  0  0  0
   -1.3032    1.8304    0.2059 O   0  0  0  0  0  0  0  0  0  0  0  0
    0.3878    1.7909    1.6965 N   0  0  0  0  0  0  0  0  0  0  0  0
    1.1115    1.2247    2.1323 H   0  0  0  0  0  0  0  0  0  0  0  0
    0.1630    3.1470    2.1819 C   0  0  0  0  0  0  0  0  0  0  0  0
   -0.8187    3.2241    2.6609 H   0  0  0  0  0  0  0  0  0  0  0  0
    0.9286    3.4179    2.9152 H   0  0  0  0  0  0  0  0  0  0  0  0
    0.2090    3.8638    1.3552 H   0  0  0  0  0  0  0  0  0  0  0  0
  1  2  1  0  0  0  0
  2  3  1  0  0  0  0
  2  4  1  0  0  0  0
  2  5  1  0  0  0  0
  5  6  2  0  0  0  0
  5  7  1  0  0  0  0
  7  8  1  0  0  0  0
  7  9  1  0  0  0  0
  9 10  1  0  0  0  0
  9 11  1  0  0  0  0
  9 21  1  0  0  0  0
 11 12  1  0  0  0  0
 11 13  1  0  0  0  0
 11 14  1  0  0  0  0
 14 15  1  0  0  0  0
 14 16  1  0  0  0  0
 14 17  1  0  0  0  0
 17 18  2  0  0  0  0
 17 19  1  0  0  0  0
 19 20  1  0  0  0  0
 21 22  2  0  0  0  0
 21 23  1  0  0  0  0
 23 24  1  0  0  0  0
 23 25  1  0  0  0  0
 25 26  1  0  0  0  0
 25 27  1  0  0  0  0
 25 28  1  0  0  0  0
M  END
$$$$

  -OEChem-02102214123D

 28 27  0     1  0  0  0  0  0999 V2000
   -3.1389   -3.7860    1.0250 H   0  0  0  0  0  0  0  0  0  0  0  0
   -3.1093   -2.7747    0.6096 C   0  0  0  0  0  0  0  0  0  0  0  0
   -3.7844   -2.1373    1.1856 H   0  0  0  0  0  0  0  0  0  0  0  0
   -3.4494   -2.8103   -0.4282 H   0  0  0  0  0  0  0  0  0  0  0  0
   -1.6969   -2.2248    0.6732 C   0  0  0  0  0  0  0  0  0  0  0  0
   -0.8019   -2.8910    1.1677 O   0  0  0  0  0  0  0  0  0  0  0  0
   -1.4280   -0.9680    0.1741 N   0  0  0  0  0  0  0  0  0  0  0  0
   -2.2205   -0.4084   -0.1386 H   0  0  0  0  0  0  0  0  0  0  0  0
   -0.1358   -0.2790    0.2951 C   0  0  1  0  0  0  0  0  0  0  0  0
    0.4825   -0.7546    1.0639 H   0  0  0  0  0  0  0  0  0  0  0  0
    0.5758   -0.3933   -1.0645 C   0  0  0  0  0  0  0  0  0  0  0  0
    0.6745   -1.4559   -1.3148 H   0  0  0  0  0  0  0  0  0  0  0  0
   -0.0561    0.0606   -1.8359 H   0  0  0  0  0  0  0  0  0  0  0  0
    1.9627    0.2885   -1.0964 C   0  0  0  0  0  0  0  0  0  0  0  0
    1.9616    1.0705   -1.8610 H   0  0  0  0  0  0  0  0  0  0  0  0
    2.1918    0.7677   -0.1414 H   0  0  0  0  0  0  0  0  0  0  0  0
    3.0774   -0.7005   -1.4220 C   0  0  0  0  0  0  0  0  0  0  0  0
    3.9229   -0.9157   -0.5707 O   0  0  0  0  0  0  0  0  0  0  0  0
    3.0782   -1.2818   -2.6442 O   0  0  0  0  0  0  0  0  0  0  0  0
    3.8479   -1.8710   -2.6567 H   0  0  0  0  0  0  0  0  0  0  0  0
   -0.3654    1.1887    0.7146 C   0  0  0  0  0  0  0  0  0  0  0  0
   -1.2682    1.8354    0.1956 O   0  0  0  0  0  0  0  0  0  0  0  0
    0.4029    1.7700    1.7064 N   0  0  0  0  0  0  0  0  0  0  0  0
    1.1010    1.1891    2.1629 H   0  0  0  0  0  0  0  0  0  0  0  0
    0.1938    3.1308    2.1861 C   0  0  0  0  0  0  0  0  0  0  0  0
   -0.7964    3.2278    2.6437 H   0  0  0  0  0  0  0  0  0  0  0  0
    0.9487    3.3882    2.9354 H   0  0  0  0  0  0  0  0  0  0  0  0
    0.2714    3.8453    1.3596 H   0  0  0  0  0  0  0  0  0  0  0  0
  1  2  1  0  0  0  0
  2  3  1  0  0  0  0
  2  4  1  0  0  0  0
  2  5  1  0  0  0  0
  5  6  2  0  0  0  0
  5  7  1  0  0  0  0
  7  8  1  0  0  0  0
  7  9  1  0  0  0  0
  9 10  1  0  0  0  0
  9 11  1  0  0  0  0
  9 21  1  0  0  0  0
 11 12  1  0  0  0  0
 11 13  1  0  0  0  0
 11 14  1  0  0  0  0
 14 15  1  0  0  0  0
 14 16  1  0  0  0  0
 14 17  1  0  0  0  0
 17 18  2  0  0  0  0
 17 19  1  0  0  0  0
 19 20  1  0  0  0  0
 21 22  2  0  0  0  0
 21 23  1  0  0  0  0
 23 24  1  0  0  0  0
 23 25  1  0  0  0  0
 25 26  1  0  0  0  0
 25 27  1  0  0  0  0
 25 28  1  0  0  0  0
M  END
$$$$

  -OEChem-02102214123D

 28 27  0     1  0  0  0  0  0999 V2000
   -3.0718   -3.8035    1.3181 H   0  0  0  0  0  0  0  0  0  0  0  0
   -3.0815   -2.8169    0.8466 C   0  0  0  0  0  0  0  0  0  0  0  0
   -3.7296   -2.1556    1.4268 H   0  0  0  0  0  0  0  0  0  0  0  0
   -3.4832   -2.9138   -0.1649 H   0  0  0  0  0  0  0  0  0  0  0  0
   -1.6757   -2.2492    0.7937 C   0  0  0  0  0  0  0  0  0  0  0  0
   -0.7391   -2.8884    1.2458 O   0  0  0  0  0  0  0  0  0  0  0  0
   -1.4607   -1.0010    0.2490 N   0  0  0  0  0  0  0  0  0  0  0  0
   -2.2795   -0.4616   -0.0292 H   0  0  0  0  0  0  0  0  0  0  0  0
   -0.1700   -0.2996    0.2482 C   0  0  1  0  0  0  0  0  0  0  0  0
    0.5155   -0.7570    0.9697 H   0  0  0  0  0  0  0  0  0  0  0  0
    0.4267   -0.4207   -1.1642 C   0  0  0  0  0  0  0  0  0  0  0  0
    0.5330   -1.4882   -1.3891 H   0  0  0  0  0  0  0  0  0  0  0  0
   -0.2671   -0.0014   -1.9015 H   0  0  0  0  0  0  0  0  0  0  0  0
    1.7973    0.2791   -1.3024 C   0  0  0  0  0  0  0  0  0  0  0  0
    1.6765    1.2346   -1.8210 H   0  0  0  0  0  0  0  0  0  0  0  0
    2.2136    0.4924   -0.3144 H   0  0  0  0  0  0  0  0  0  0  0  0
    2.8184   -0.5755   -2.0484 C   0  0  0  0  0  0  0  0  0  0  0  0
    2.5354   -0.9922   -3.1588 O   0  0  0  0  0  0  0  0  0  0  0  0
    3.9945   -0.8317   -1.4299 O   0  0  0  0  0  0  0  0  0  0  0  0
    4.4985   -1.3886   -2.0431 H   0  0  0  0  0  0  0  0  0  0  0  0
   -0.3732    1.1751    0.6556 C   0  0  0  0  0  0  0  0  0  0  0  0
   -1.3194    1.8080    0.2011 O   0  0  0  0  0  0  0  0  0  0  0  0
    0.4722    1.7801    1.5673 N   0  0  0  0  0  0  0  0  0  0  0  0
    1.1998    1.2079    1.9866 H   0  0  0  0  0  0  0  0  0  0  0  0
    0.2878    3.1465    2.0412 C   0  0  0  0  0  0  0  0  0  0  0  0
   -0.6638    3.2421    2.5747 H   0  0  0  0  0  0  0  0  0  0  0  0
    1.0970    3.4230    2.7237 H   0  0  0  0  0  0  0  0  0  0  0  0
    0.2917    3.8477    1.1999 H   0  0  0  0  0  0  0  0  0  0  0  0
  1  2  1  0  0  0  0
  2  3  1  0  0  0  0
  2  4  1  0  0  0  0
  2  5  1  0  0  0  0
  5  6  2  0  0  0  0
  5  7  1  0  0  0  0
  7  8  1  0  0  0  0
  7  9  1  0  0  0  0
  9 10  1  0  0  0  0
  9 11  1  0  0  0  0
  9 21  1  0  0  0  0
 11 12  1  0  0  0  0
 11 13  1  0  0  0  0
 11 14  1  0  0  0  0
 14 15  1  0  0  0  0
 14 16  1  0  0  0  0
 14 17  1  0  0  0  0
 17 18  2  0  0  0  0
 17 19  1  0  0  0  0
 19 20  1  0  0  0  0
 21 22  2  0  0  0  0
 21 23  1  0  0  0  0
 23 24  1  0  0  0  0
 23 25  1  0  0  0  0
 25 26  1  0  0  0  0
 25 27  1  0  0  0  0
 25 28  1  0  0  0  0
M  END
$$$$

  -OEChem-02102214123D

 28 27  0     1  0  0  0  0  0999 V2000
   -3.1194   -3.8037    1.2904 H   0  0  0  0  0  0  0  0  0  0  0  0
   -3.1190   -2.8162    0.8206 C   0  0  0  0  0  0  0  0  0  0  0  0
   -3.7789   -2.1558    1.3883 H   0  0  0  0  0  0  0  0  0  0  0  0
   -3.4992   -2.9113   -0.1993 H   0  0  0  0  0  0  0  0  0  0  0  0
   -1.7123   -2.2489    0.7967 C   0  0  0  0  0  0  0  0  0  0  0  0
   -0.7843   -2.8907    1.2626 O   0  0  0  0  0  0  0  0  0  0  0  0
   -1.4858   -1.0019    0.2536 N   0  0  0  0  0  0  0  0  0  0  0  0
   -2.2986   -0.4618   -0.0400 H   0  0  0  0  0  0  0  0  0  0  0  0
   -0.1905   -0.3087    0.2565 C   0  0  1  0  0  0  0  0  0  0  0  0
    0.4865   -0.7717    0.9821 H   0  0  0  0  0  0  0  0  0  0  0  0
    0.4136   -0.4369   -1.1514 C   0  0  0  0  0  0  0  0  0  0  0  0
    0.5257   -1.5060   -1.3653 H   0  0  0  0  0  0  0  0  0  0  0  0
   -0.2716   -0.0221   -1.8994 H   0  0  0  0  0  0  0  0  0  0  0  0
    1.7872    0.2574   -1.2722 C   0  0  0  0  0  0  0  0  0  0  0  0
    1.6521    1.3108   -1.5340 H   0  0  0  0  0  0  0  0  0  0  0  0
    2.3011    0.2176   -0.3078 H   0  0  0  0  0  0  0  0  0  0  0  0
    2.7091   -0.4010   -2.2974 C   0  0  0  0  0  0  0  0  0  0  0  0
    2.2318   -0.8784   -3.3132 O   0  0  0  0  0  0  0  0  0  0  0  0
    4.0332   -0.4097   -2.0202 O   0  0  0  0  0  0  0  0  0  0  0  0
    4.4556   -0.8593   -2.7682 H   0  0  0  0  0  0  0  0  0  0  0  0
   -0.3752    1.1683    0.6627 C   0  0  0  0  0  0  0  0  0  0  0  0
   -1.3115    1.8138    0.2058 O   0  0  0  0  0  0  0  0  0  0  0  0
    0.4777    1.7622    1.5749 N   0  0  0  0  0  0  0  0  0  0  0  0
    1.2010    1.1823    1.9906 H   0  0  0  0  0  0  0  0  0  0  0  0
    0.3170    3.1341    2.0414 C   0  0  0  0  0  0  0  0  0  0  0  0
   -0.6450    3.2556    2.5504 H   0  0  0  0  0  0  0  0  0  0  0  0
    1.1155    3.3916    2.7440 H   0  0  0  0  0  0  0  0  0  0  0  0
    0.3601    3.8326    1.1990 H   0  0  0  0  0  0  0  0  0  0  0  0
  1  2  1  0  0  0  0
  2  3  1  0  0  0  0
  2  4  1  0  0  0  0
  2  5  1  0  0  0  0
  5  6  2  0  0  0  0
  5  7  1  0  0  0  0
  7  8  1  0  0  0  0
  7  9  1  0  0  0  0
  9 10  1  0  0  0  0
  9 11  1  0  0  0  0
  9 21  1  0  0  0  0
 11 12  1  0  0  0  0
 11 13  1  0  0  0  0
 11 14  1  0  0  0  0
 14 15  1  0  0  0  0
 14 16  1  0  0  0  0
 14 17  1  0  0  0  0
 17 18  2  0  0  0  0
 17 19  1  0  0  0  0
 19 20  1  0  0  0  0
 21 22  2  0  0  0  0
 21 23  1  0  0  0  0
 23 24  1  0  0  0  0
 23 25  1  0  0  0  0
 25 26  1  0  0  0  0
 25 27  1  0  0  0  0
 25 28  1  0  0  0  0
M  END
$$$$

  -OEChem-02102214123D

 28 27  0     1  0  0  0  0  0999 V2000
   -3.1531   -3.7921    1.2797 H   0  0  0  0  0  0  0  0  0  0  0  0
   -3.1438   -2.8049    0.8091 C   0  0  0  0  0  0  0  0  0  0  0  0
   -3.8022   -2.1396    1.3730 H   0  0  0  0  0  0  0  0  0  0  0  0
   -3.5190   -2.8982   -0.2129 H   0  0  0  0  0  0  0  0  0  0  0  0
   -1.7336   -2.2463    0.7925 C   0  0  0  0  0  0  0  0  0  0  0  0
   -0.8120   -2.8928    1.2648 O   0  0  0  0  0  0  0  0  0  0  0  0
   -1.4974   -1.0001    0.2519 N   0  0  0  0  0  0  0  0  0  0  0  0
   -2.3051   -0.4563   -0.0491 H   0  0  0  0  0  0  0  0  0  0  0  0
   -0.1978   -0.3154    0.2605 C   0  0  1  0  0  0  0  0  0  0  0  0
    0.4727   -0.7821    0.9897 H   0  0  0  0  0  0  0  0  0  0  0  0
    0.4142   -0.4514   -1.1434 C   0  0  0  0  0  0  0  0  0  0  0  0
    0.5224   -1.5195   -1.3644 H   0  0  0  0  0  0  0  0  0  0  0  0
   -0.2657   -0.0258   -1.8903 H   0  0  0  0  0  0  0  0  0  0  0  0
    1.7922    0.2339   -1.2554 C   0  0  0  0  0  0  0  0  0  0  0  0
    1.6686    1.3204   -1.2691 H   0  0  0  0  0  0  0  0  0  0  0  0
    2.3955   -0.0256   -0.3809 H   0  0  0  0  0  0  0  0  0  0  0  0
    2.5836   -0.1787   -2.4970 C   0  0  0  0  0  0  0  0  0  0  0  0
    2.0083   -0.6859   -3.4456 O   0  0  0  0  0  0  0  0  0  0  0  0
    3.9152    0.0565   -2.4742 O   0  0  0  0  0  0  0  0  0  0  0  0
    4.2520   -0.2585   -3.3270 H   0  0  0  0  0  0  0  0  0  0  0  0
   -0.3762    1.1619    0.6683 C   0  0  0  0  0  0  0  0  0  0  0  0
   -1.3074    1.8133    0.2096 O   0  0  0  0  0  0  0  0  0  0  0  0
    0.4764    1.7497    1.5846 N   0  0  0  0  0  0  0  0  0  0  0  0
    1.1979    1.1663    1.9987 H   0  0  0  0  0  0  0  0  0  0  0  0
    0.3263    3.1240    2.0480 C   0  0  0  0  0  0  0  0  0  0  0  0
   -0.6375    3.2560    2.5510 H   0  0  0  0  0  0  0  0  0  0  0  0
    1.1228    3.3749    2.7551 H   0  0  0  0  0  0  0  0  0  0  0  0
    0.3817    3.8208    1.2048 H   0  0  0  0  0  0  0  0  0  0  0  0
  1  2  1  0  0  0  0
  2  3  1  0  0  0  0
  2  4  1  0  0  0  0
  2  5  1  0  0  0  0
  5  6  2  0  0  0  0
  5  7  1  0  0  0  0
  7  8  1  0  0  0  0
  7  9  1  0  0  0  0
  9 10  1  0  0  0  0
  9 11  1  0  0  0  0
  9 21  1  0  0  0  0
 11 12  1  0  0  0  0
 11 13  1  0  0  0  0
 11 14  1  0  0  0  0
 14 15  1  0  0  0  0
 14 16  1  0  0  0  0
 14 17  1  0  0  0  0
 17 18  2  0  0  0  0
 17 19  1  0  0  0  0
 19 20  1  0  0  0  0
 21 22  2  0  0  0  0
 21 23  1  0  0  0  0
 23 24  1  0  0  0  0
 23 25  1  0  0  0  0
 25 26  1  0  0  0  0
 25 27  1  0  0  0  0
 25 28  1  0  0  0  0
M  END
$$$$

  -OEChem-02102214123D

 28 27  0     1  0  0  0  0  0999 V2000
   -3.1956   -3.7772    1.2908 H   0  0  0  0  0  0  0  0  0  0  0  0
   -3.1774   -2.7990    0.8023 C   0  0  0  0  0  0  0  0  0  0  0  0
   -3.8381   -2.1208    1.3477 H   0  0  0  0  0  0  0  0  0  0  0  0
   -3.5440   -2.9097   -0.2211 H   0  0  0  0  0  0  0  0  0  0  0  0
   -1.7645   -2.2471    0.7890 C   0  0  0  0  0  0  0  0  0  0  0  0
   -0.8486   -2.8983    1.2660 O   0  0  0  0  0  0  0  0  0  0  0  0
   -1.5198   -1.0024    0.2480 N   0  0  0  0  0  0  0  0  0  0  0  0
   -2.3232   -0.4570   -0.0611 H   0  0  0  0  0  0  0  0  0  0  0  0
   -0.2166   -0.3239    0.2588 C   0  0  1  0  0  0  0  0  0  0  0  0
    0.4405   -0.8006    0.9935 H   0  0  0  0  0  0  0  0  0  0  0  0
    0.4085   -0.4653   -1.1392 C   0  0  0  0  0  0  0  0  0  0  0  0
    0.2882   -1.5002   -1.4798 H   0  0  0  0  0  0  0  0  0  0  0  0
   -0.1252    0.1794   -1.8472 H   0  0  0  0  0  0  0  0  0  0  0  0
    1.9116   -0.1189   -1.1352 C   0  0  0  0  0  0  0  0  0  0  0  0
    2.0514    0.9092   -0.7906 H   0  0  0  0  0  0  0  0  0  0  0  0
    2.4351   -0.7816   -0.4405 H   0  0  0  0  0  0  0  0  0  0  0  0
    2.5815   -0.2443   -2.5045 C   0  0  0  0  0  0  0  0  0  0  0  0
    1.9493   -0.6562   -3.4631 O   0  0  0  0  0  0  0  0  0  0  0  0
    3.8809    0.1241   -2.5739 O   0  0  0  0  0  0  0  0  0  0  0  0
    4.1451   -0.0137   -3.4965 H   0  0  0  0  0  0  0  0  0  0  0  0
   -0.3687    1.1566    0.6631 C   0  0  0  0  0  0  0  0  0  0  0  0
   -1.2873    1.8241    0.2026 O   0  0  0  0  0  0  0  0  0  0  0  0
    0.4959    1.7299    1.5772 N   0  0  0  0  0  0  0  0  0  0  0  0
    1.2056    1.1334    1.9930 H   0  0  0  0  0  0  0  0  0  0  0  0
    0.3775    3.1100    2.0317 C   0  0  0  0  0  0  0  0  0  0  0  0
   -0.5907    3.2724    2.5170 H   0  0  0  0  0  0  0  0  0  0  0  0
    1.1683    3.3407    2.7519 H   0  0  0  0  0  0  0  0  0  0  0  0
    0.4682    3.8004    1.1864 H   0  0  0  0  0  0  0  0  0  0  0  0
  1  2  1  0  0  0  0
  2  3  1  0  0  0  0
  2  4  1  0  0  0  0
  2  5  1  0  0  0  0
  5  6  2  0  0  0  0
  5  7  1  0  0  0  0
  7  8  1  0  0  0  0
  7  9  1  0  0  0  0
  9 10  1  0  0  0  0
  9 11  1  0  0  0  0
  9 21  1  0  0  0  0
 11 12  1  0  0  0  0
 11 13  1  0  0  0  0
 11 14  1  0  0  0  0
 14 15  1  0  0  0  0
 14 16  1  0  0  0  0
 14 17  1  0  0  0  0
 17 18  2  0  0  0  0
 17 19  1  0  0  0  0
 19 20  1  0  0  0  0
 21 22  2  0  0  0  0
 21 23  1  0  0  0  0
 23 24  1  0  0  0  0
 23 25  1  0  0  0  0
 25 26  1  0  0  0  0
 25 27  1  0  0  0  0
 25 28  1  0  0  0  0
M  END
$$$$

  -OEChem-02102214123D

 28 27  0     1  0  0  0  0  0999 V2000
   -3.2119   -3.7568    1.2912 H   0  0  0  0  0  0  0  0  0  0  0  0
   -3.1876   -2.7787    0.8027 C   0  0  0  0  0  0  0  0  0  0  0  0
   -3.8402   -2.0953    1.3513 H   0  0  0  0  0  0  0  0  0  0  0  0
   -3.5594   -2.8860   -0.2190 H   0  0  0  0  0  0  0  0  0  0  0  0
   -1.7698   -2.2396    0.7834 C   0  0  0  0  0  0  0  0  0  0  0  0
   -0.8577   -2.9001    1.2548 O   0  0  0  0  0  0  0  0  0  0  0  0
   -1.5157   -0.9968    0.2427 N   0  0  0  0  0  0  0  0  0  0  0  0
   -2.3154   -0.4422   -0.0601 H   0  0  0  0  0  0  0  0  0  0  0  0
   -0.2077   -0.3276    0.2580 C   0  0  1  0  0  0  0  0  0  0  0  0
    0.4456   -0.8075    0.9944 H   0  0  0  0  0  0  0  0  0  0  0  0
    0.4188   -0.4782   -1.1388 C   0  0  0  0  0  0  0  0  0  0  0  0
    0.2869   -1.5062   -1.4947 H   0  0  0  0  0  0  0  0  0  0  0  0
   -0.1124    0.1817   -1.8349 H   0  0  0  0  0  0  0  0  0  0  0  0
    1.9258   -0.1455   -1.1395 C   0  0  0  0  0  0  0  0  0  0  0  0
    2.1009    0.7742   -0.5755 H   0  0  0  0  0  0  0  0  0  0  0  0
    2.4784   -0.9501   -0.6466 H   0  0  0  0  0  0  0  0  0  0  0  0
    2.5098    0.0698   -2.5362 C   0  0  0  0  0  0  0  0  0  0  0  0
    1.9016   -0.3189   -3.5195 O   0  0  0  0  0  0  0  0  0  0  0  0
    3.7100    0.6898   -2.6013 O   0  0  0  0  0  0  0  0  0  0  0  0
    3.9298    0.7396   -3.5443 H   0  0  0  0  0  0  0  0  0  0  0  0
   -0.3604    1.1535    0.6623 C   0  0  0  0  0  0  0  0  0  0  0  0
   -1.2795    1.8197    0.2008 O   0  0  0  0  0  0  0  0  0  0  0  0
    0.4988    1.7279    1.5811 N   0  0  0  0  0  0  0  0  0  0  0  0
    1.2068    1.1324    2.0011 H   0  0  0  0  0  0  0  0  0  0  0  0
    0.3718    3.1061    2.0396 C   0  0  0  0  0  0  0  0  0  0  0  0
   -0.5981    3.2615    2.5240 H   0  0  0  0  0  0  0  0  0  0  0  0
    1.1603    3.3396    2.7615 H   0  0  0  0  0  0  0  0  0  0  0  0
    0.4593    3.7994    1.1963 H   0  0  0  0  0  0  0  0  0  0  0  0
  1  2  1  0  0  0  0
  2  3  1  0  0  0  0
  2  4  1  0  0  0  0
  2  5  1  0  0  0  0
  5  6  2  0  0  0  0
  5  7  1  0  0  0  0
  7  8  1  0  0  0  0
  7  9  1  0  0  0  0
  9 10  1  0  0  0  0
  9 11  1  0  0  0  0
  9 21  1  0  0  0  0
 11 12  1  0  0  0  0
 11 13  1  0  0  0  0
 11 14  1  0  0  0  0
 14 15  1  0  0  0  0
 14 16  1  0  0  0  0
 14 17  1  0  0  0  0
 17 18  2  0  0  0  0
 17 19  1  0  0  0  0
 19 20  1  0  0  0  0
 21 22  2  0  0  0  0
 21 23  1  0  0  0  0
 23 24  1  0  0  0  0
 23 25  1  0  0  0  0
 25 26  1  0  0  0  0
 25 27  1  0  0  0  0
 25 28  1  0  0  0  0
M  END
$$$$

  -OEChem-02102214123D

 28 27  0     1  0  0  0  0  0999 V2000
   -3.2405   -3.7418    1.2513 H   0  0  0  0  0  0  0  0  0  0  0  0
   -3.2033   -2.7519    0.7881 C   0  0  0  0  0  0  0  0  0  0  0  0
   -3.8480   -2.0743    1.3531 H   0  0  0  0  0  0  0  0  0  0  0  0
   -3.5748   -2.8285   -0.2366 H   0  0  0  0  0  0  0  0  0  0  0  0
   -1.7794   -2.2290    0.7837 C   0  0  0  0  0  0  0  0  0  0  0  0
   -0.8789   -2.8982    1.2651 O   0  0  0  0  0  0  0  0  0  0  0  0
   -1.5068   -0.9915    0.2403 N   0  0  0  0  0  0  0  0  0  0  0  0
   -2.2984   -0.4292   -0.0691 H   0  0  0  0  0  0  0  0  0  0  0  0
   -0.1928   -0.3350    0.2635 C   0  0  1  0  0  0  0  0  0  0  0  0
    0.4522   -0.8183    1.0048 H   0  0  0  0  0  0  0  0  0  0  0  0
    0.4365   -0.4966   -1.1311 C   0  0  0  0  0  0  0  0  0  0  0  0
    0.2906   -1.5207   -1.4920 H   0  0  0  0  0  0  0  0  0  0  0  0
   -0.0911    0.1703   -1.8233 H   0  0  0  0  0  0  0  0  0  0  0  0
    1.9482   -0.1824   -1.1388 C   0  0  0  0  0  0  0  0  0  0  0  0
    2.1783    0.5690   -0.3795 H   0  0  0  0  0  0  0  0  0  0  0  0
    2.5143   -1.0845   -0.8906 H   0  0  0  0  0  0  0  0  0  0  0  0
    2.4388    0.3685   -2.4769 C   0  0  0  0  0  0  0  0  0  0  0  0
    1.9646   -0.0676   -3.5125 O   0  0  0  0  0  0  0  0  0  0  0  0
    3.3975    1.3223   -2.4393 O   0  0  0  0  0  0  0  0  0  0  0  0
    3.5777    1.5500   -3.3643 H   0  0  0  0  0  0  0  0  0  0  0  0
   -0.3383    1.1495    0.6603 C   0  0  0  0  0  0  0  0  0  0  0  0
   -1.2498    1.8185    0.1877 O   0  0  0  0  0  0  0  0  0  0  0  0
    0.5155    1.7239    1.5840 N   0  0  0  0  0  0  0  0  0  0  0  0
    1.2153    1.1266    2.0148 H   0  0  0  0  0  0  0  0  0  0  0  0
    0.3876    3.1031    2.0394 C   0  0  0  0  0  0  0  0  0  0  0  0
   -0.5705    3.2517    2.5485 H   0  0  0  0  0  0  0  0  0  0  0  0
    1.1926    3.3474    2.7391 H   0  0  0  0  0  0  0  0  0  0  0  0
    0.4468    3.7939    1.1917 H   0  0  0  0  0  0  0  0  0  0  0  0
  1  2  1  0  0  0  0
  2  3  1  0  0  0  0
  2  4  1  0  0  0  0
  2  5  1  0  0  0  0
  5  6  2  0  0  0  0
  5  7  1  0  0  0  0
  7  8  1  0  0  0  0
  7  9  1  0  0  0  0
  9 10  1  0  0  0  0
  9 11  1  0  0  0  0
  9 21  1  0  0  0  0
 11 12  1  0  0  0  0
 11 13  1  0  0  0  0
 11 14  1  0  0  0  0
 14 15  1  0  0  0  0
 14 16  1  0  0  0  0
 14 17  1  0  0  0  0
 17 18  2  0  0  0  0
 17 19  1  0  0  0  0
 19 20  1  0  0  0  0
 21 22  2  0  0  0  0
 21 23  1  0  0  0  0
 23 24  1  0  0  0  0
 23 25  1  0  0  0  0
 25 26  1  0  0  0  0
 25 27  1  0  0  0  0
 25 28  1  0  0  0  0
M  END
$$$$

  -OEChem-02102214123D

 28 27  0     1  0  0  0  0  0999 V2000
   -3.2620   -3.7223    1.2522 H   0  0  0  0  0  0  0  0  0  0  0  0
   -3.2185   -2.7292    0.7964 C   0  0  0  0  0  0  0  0  0  0  0  0
   -3.8461   -2.0477    1.3757 H   0  0  0  0  0  0  0  0  0  0  0  0
   -3.6060   -2.7926   -0.2233 H   0  0  0  0  0  0  0  0  0  0  0  0
   -1.7881   -2.2248    0.7758 C   0  0  0  0  0  0  0  0  0  0  0  0
   -0.8913   -2.9054    1.2479 O   0  0  0  0  0  0  0  0  0  0  0  0
   -1.5059   -0.9904    0.2298 N   0  0  0  0  0  0  0  0  0  0  0  0
   -2.2946   -0.4157   -0.0643 H   0  0  0  0  0  0  0  0  0  0  0  0
   -0.1861   -0.3455    0.2528 C   0  0  1  0  0  0  0  0  0  0  0  0
    0.4522   -0.8349    0.9959 H   0  0  0  0  0  0  0  0  0  0  0  0
    0.4470   -0.5062   -1.1398 C   0  0  0  0  0  0  0  0  0  0  0  0
    0.2998   -1.5317   -1.4962 H   0  0  0  0  0  0  0  0  0  0  0  0
   -0.0778    0.1556   -1.8391 H   0  0  0  0  0  0  0  0  0  0  0  0
    1.9614   -0.2024   -1.1399 C   0  0  0  0  0  0  0  0  0  0  0  0
    2.2517    0.3131   -0.2212 H   0  0  0  0  0  0  0  0  0  0  0  0
    2.5251   -1.1389   -1.1764 H   0  0  0  0  0  0  0  0  0  0  0  0
    2.3750    0.6745   -2.3177 C   0  0  0  0  0  0  0  0  0  0  0  0
    2.1393    0.2859   -3.4488 O   0  0  0  0  0  0  0  0  0  0  0  0
    2.9813    1.8517   -2.0415 O   0  0  0  0  0  0  0  0  0  0  0  0
    3.1515    2.2682   -2.9004 H   0  0  0  0  0  0  0  0  0  0  0  0
   -0.3152    1.1411    0.6466 C   0  0  0  0  0  0  0  0  0  0  0  0
   -1.2247    1.8160    0.1782 O   0  0  0  0  0  0  0  0  0  0  0  0
    0.5446    1.7082    1.5690 N   0  0  0  0  0  0  0  0  0  0  0  0
    1.2517    1.1101    1.9865 H   0  0  0  0  0  0  0  0  0  0  0  0
    0.4346    3.0911    2.0176 C   0  0  0  0  0  0  0  0  0  0  0  0
   -0.5159    3.2504    2.5376 H   0  0  0  0  0  0  0  0  0  0  0  0
    1.2506    3.3325    2.7056 H   0  0  0  0  0  0  0  0  0  0  0  0
    0.4888    3.7763    1.1649 H   0  0  0  0  0  0  0  0  0  0  0  0
  1  2  1  0  0  0  0
  2  3  1  0  0  0  0
  2  4  1  0  0  0  0
  2  5  1  0  0  0  0
  5  6  2  0  0  0  0
  5  7  1  0  0  0  0
  7  8  1  0  0  0  0
  7  9  1  0  0  0  0
  9 10  1  0  0  0  0
  9 11  1  0  0  0  0
  9 21  1  0  0  0  0
 11 12  1  0  0  0  0
 11 13  1  0  0  0  0
 11 14  1  0  0  0  0
 14 15  1  0  0  0  0
 14 16  1  0  0  0  0
 14 17  1  0  0  0  0
 17 18  2  0  0  0  0
 17 19  1  0  0  0  0
 19 20  1  0  0  0  0
 21 22  2  0  0  0  0
 21 23  1  0  0  0  0
 23 24  1  0  0  0  0
 23 25  1  0  0  0  0
 25 26  1  0  0  0  0
 25 27  1  0  0  0  0
 25 28  1  0  0  0  0
M  END
$$$$

  -OEChem-02102214123D

 28 27  0     1  0  0  0  0  0999 V2000
   -3.2562   -3.7444    1.2414 H   0  0  0  0  0  0  0  0  0  0  0  0
   -3.2185   -2.7456    0.7977 C   0  0  0  0  0  0  0  0  0  0  0  0
   -3.8450   -2.0733    1.3889 H   0  0  0  0  0  0  0  0  0  0  0  0
   -3.6108   -2.7975   -0.2208 H   0  0  0  0  0  0  0  0  0  0  0  0
   -1.7896   -2.2374    0.7753 C   0  0  0  0  0  0  0  0  0  0  0  0
   -0.8880   -2.9238    1.2294 O   0  0  0  0  0  0  0  0  0  0  0  0
   -1.5124   -0.9981    0.2381 N   0  0  0  0  0  0  0  0  0  0  0  0
   -2.3040   -0.4191   -0.0391 H   0  0  0  0  0  0  0  0  0  0  0  0
   -0.1920   -0.3543    0.2539 C   0  0  1  0  0  0  0  0  0  0  0  0
    0.4503   -0.8531    0.9872 H   0  0  0  0  0  0  0  0  0  0  0  0
    0.4305   -0.4940   -1.1447 C   0  0  0  0  0  0  0  0  0  0  0  0
    0.2912   -1.5238   -1.4914 H   0  0  0  0  0  0  0  0  0  0  0  0
   -0.1024    0.1555   -1.8495 H   0  0  0  0  0  0  0  0  0  0  0  0
    1.9437   -0.1880   -1.1457 C   0  0  0  0  0  0  0  0  0  0  0  0
    2.3037    0.0390   -0.1391 H   0  0  0  0  0  0  0  0  0  0  0  0
    2.4912   -1.0702   -1.4905 H   0  0  0  0  0  0  0  0  0  0  0  0
    2.2826    0.9793   -2.0648 C   0  0  0  0  0  0  0  0  0  0  0  0
    2.2615    0.8010   -3.2702 O   0  0  0  0  0  0  0  0  0  0  0  0
    2.5711    2.1675   -1.4859 O   0  0  0  0  0  0  0  0  0  0  0  0
    2.7233    2.7860   -2.2169 H   0  0  0  0  0  0  0  0  0  0  0  0
   -0.3066    1.1295    0.6619 C   0  0  0  0  0  0  0  0  0  0  0  0
   -1.2139    1.8151    0.2046 O   0  0  0  0  0  0  0  0  0  0  0  0
    0.5679    1.6823    1.5787 N   0  0  0  0  0  0  0  0  0  0  0  0
    1.3184    1.0946    1.9293 H   0  0  0  0  0  0  0  0  0  0  0  0
    0.5373    3.0888    1.9598 C   0  0  0  0  0  0  0  0  0  0  0  0
   -0.4355    3.3492    2.3900 H   0  0  0  0  0  0  0  0  0  0  0  0
    1.3105    3.2962    2.7057 H   0  0  0  0  0  0  0  0  0  0  0  0
    0.7188    3.7247    1.0869 H   0  0  0  0  0  0  0  0  0  0  0  0
  1  2  1  0  0  0  0
  2  3  1  0  0  0  0
  2  4  1  0  0  0  0
  2  5  1  0  0  0  0
  5  6  2  0  0  0  0
  5  7  1  0  0  0  0
  7  8  1  0  0  0  0
  7  9  1  0  0  0  0
  9 10  1  0  0  0  0
  9 11  1  0  0  0  0
  9 21  1  0  0  0  0
 11 12  1  0  0  0  0
 11 13  1  0  0  0  0
 11 14  1  0  0  0  0
 14 15  1  0  0  0  0
 14 16  1  0  0  0  0
 14 17  1  0  0  0  0
 17 18  2  0  0  0  0
 17 19  1  0  0  0  0
 19 20  1  0  0  0  0
 21 22  2  0  0  0  0
 21 23  1  0  0  0  0
 23 24  1  0  0  0  0
 23 25  1  0  0  0  0
 25 26  1  0  0  0  0
 25 27  1  0  0  0  0
 25 28  1  0  0  0  0
M  END
$$$$

  -OEChem-02102214123D

 28 27  0     1  0  0  0  0  0999 V2000
   -3.2205   -3.7584    1.2577 H   0  0  0  0  0  0  0  0  0  0  0  0
   -3.1961   -2.7528    0.8285 C   0  0  0  0  0  0  0  0  0  0  0  0
   -3.8055   -2.0903    1.4479 H   0  0  0  0  0  0  0  0  0  0  0  0
   -3.6181   -2.7894   -0.1787 H   0  0  0  0  0  0  0  0  0  0  0  0
   -1.7687   -2.2428    0.7724 C   0  0  0  0  0  0  0  0  0  0  0  0
   -0.8546   -2.9327    1.1953 O   0  0  0  0  0  0  0  0  0  0  0  0
   -1.5070   -0.9981    0.2397 N   0  0  0  0  0  0  0  0  0  0  0  0
   -2.3069   -0.4188   -0.0119 H   0  0  0  0  0  0  0  0  0  0  0  0
   -0.1907   -0.3450    0.2436 C   0  0  1  0  0  0  0  0  0  0  0  0
    0.4614   -0.8411    0.9700 H   0  0  0  0  0  0  0  0  0  0  0  0
    0.4184   -0.4780   -1.1626 C   0  0  0  0  0  0  0  0  0  0  0  0
    0.2877   -1.5145   -1.4925 H   0  0  0  0  0  0  0  0  0  0  0  0
   -0.1271    0.1554   -1.8721 H   0  0  0  0  0  0  0  0  0  0  0  0
    1.9291   -0.1633   -1.1858 C   0  0  0  0  0  0  0  0  0  0  0  0
    2.3613   -0.2208   -0.1833 H   0  0  0  0  0  0  0  0  0  0  0  0
    2.4383   -0.9148   -1.7966 H   0  0  0  0  0  0  0  0  0  0  0  0
    2.2237    1.2031   -1.7950 C   0  0  0  0  0  0  0  0  0  0  0  0
    2.0957    1.3476   -2.9983 O   0  0  0  0  0  0  0  0  0  0  0  0
    2.6056    2.1941   -0.9568 O   0  0  0  0  0  0  0  0  0  0  0  0
    2.7183    2.9788   -1.5156 H   0  0  0  0  0  0  0  0  0  0  0  0
   -0.3174    1.1342    0.6631 C   0  0  0  0  0  0  0  0  0  0  0  0
   -1.2446    1.8090    0.2302 O   0  0  0  0  0  0  0  0  0  0  0  0
    0.5603    1.6912    1.5737 N   0  0  0  0  0  0  0  0  0  0  0  0
    1.3496    1.1256    1.8715 H   0  0  0  0  0  0  0  0  0  0  0  0
    0.5143    3.0940    1.9663 C   0  0  0  0  0  0  0  0  0  0  0  0
   -0.4495    3.3316    2.4290 H   0  0  0  0  0  0  0  0  0  0  0  0
    1.3066    3.3107    2.6894 H   0  0  0  0  0  0  0  0  0  0  0  0
    0.6557    3.7400    1.0933 H   0  0  0  0  0  0  0  0  0  0  0  0
  1  2  1  0  0  0  0
  2  3  1  0  0  0  0
  2  4  1  0  0  0  0
  2  5  1  0  0  0  0
  5  6  2  0  0  0  0
  5  7  1  0  0  0  0
  7  8  1  0  0  0  0
  7  9  1  0  0  0  0
  9 10  1  0  0  0  0
  9 11  1  0  0  0  0
  9 21  1  0  0  0  0
 11 12  1  0  0  0  0
 11 13  1  0  0  0  0
 11 14  1  0  0  0  0
 14 15  1  0  0  0  0
 14 16  1  0  0  0  0
 14 17  1  0  0  0  0
 17 18  2  0  0  0  0
 17 19  1  0  0  0  0
 19 20  1  0  0  0  0
 21 22  2  0  0  0  0
 21 23  1  0  0  0  0
 23 24  1  0  0  0  0
 23 25  1  0  0  0  0
 25 26  1  0  0  0  0
 25 27  1  0  0  0  0
 25 28  1  0  0  0  0
M  END
$$$$

  -OEChem-02102214123D

 28 27  0     1  0  0  0  0  0999 V2000
   -3.1786   -3.7653    1.2736 H   0  0  0  0  0  0  0  0  0  0  0  0
   -3.1672   -2.7587    0.8464 C   0  0  0  0  0  0  0  0  0  0  0  0
   -3.7733   -2.1019    1.4749 H   0  0  0  0  0  0  0  0  0  0  0  0
   -3.6022   -2.7964   -0.1552 H   0  0  0  0  0  0  0  0  0  0  0  0
   -1.7443   -2.2381    0.7734 C   0  0  0  0  0  0  0  0  0  0  0  0
   -0.8190   -2.9235    1.1791 O   0  0  0  0  0  0  0  0  0  0  0  0
   -1.4986   -0.9894    0.2428 N   0  0  0  0  0  0  0  0  0  0  0  0
   -2.3060   -0.4113    0.0118 H   0  0  0  0  0  0  0  0  0  0  0  0
   -0.1880   -0.3249    0.2381 C   0  0  1  0  0  0  0  0  0  0  0  0
    0.4739   -0.8116    0.9622 H   0  0  0  0  0  0  0  0  0  0  0  0
    0.4122   -0.4656   -1.1729 C   0  0  0  0  0  0  0  0  0  0  0  0
    0.2864   -1.5070   -1.4891 H   0  0  0  0  0  0  0  0  0  0  0  0
   -0.1426    0.1561   -1.8853 H   0  0  0  0  0  0  0  0  0  0  0  0
    1.9199   -0.1431   -1.2222 C   0  0  0  0  0  0  0  0  0  0  0  0
    2.4098   -0.4502   -0.2940 H   0  0  0  0  0  0  0  0  0  0  0  0
    2.3757   -0.7210   -2.0313 H   0  0  0  0  0  0  0  0  0  0  0  0
    2.2106    1.3285   -1.4991 C   0  0  0  0  0  0  0  0  0  0  0  0
    1.8805    1.7993   -2.5731 O   0  0  0  0  0  0  0  0  0  0  0  0
    2.8272    2.0398   -0.5274 O   0  0  0  0  0  0  0  0  0  0  0  0
    2.9185    2.9375   -0.8840 H   0  0  0  0  0  0  0  0  0  0  0  0
   -0.3399    1.1500    0.6654 C   0  0  0  0  0  0  0  0  0  0  0  0
   -1.2967    1.8017    0.2629 O   0  0  0  0  0  0  0  0  0  0  0  0
    0.5320    1.7198    1.5738 N   0  0  0  0  0  0  0  0  0  0  0  0
    1.3531    1.1817    1.8366 H   0  0  0  0  0  0  0  0  0  0  0  0
    0.4350    3.1079    2.0071 C   0  0  0  0  0  0  0  0  0  0  0  0
   -0.5233    3.2876    2.5059 H   0  0  0  0  0  0  0  0  0  0  0  0
    1.2394    3.3414    2.7114 H   0  0  0  0  0  0  0  0  0  0  0  0
    0.5182    3.7833    1.1492 H   0  0  0  0  0  0  0  0  0  0  0  0
  1  2  1  0  0  0  0
  2  3  1  0  0  0  0
  2  4  1  0  0  0  0
  2  5  1  0  0  0  0
  5  6  2  0  0  0  0
  5  7  1  0  0  0  0
  7  8  1  0  0  0  0
  7  9  1  0  0  0  0
  9 10  1  0  0  0  0
  9 11  1  0  0  0  0
  9 21  1  0  0  0  0
 11 12  1  0  0  0  0
 11 13  1  0  0  0  0
 11 14  1  0  0  0  0
 14 15  1  0  0  0  0
 14 16  1  0  0  0  0
 14 17  1  0  0  0  0
 17 18  2  0  0  0  0
 17 19  1  0  0  0  0
 19 20  1  0  0  0  0
 21 22  2  0  0  0  0
 21 23  1  0  0  0  0
 23 24  1  0  0  0  0
 23 25  1  0  0  0  0
 25 26  1  0  0  0  0
 25 27  1  0  0  0  0
 25 28  1  0  0  0  0
M  END
$$$$

  -OEChem-02102214123D

 28 27  0     1  0  0  0  0  0999 V2000
   -3.1464   -3.7424    1.3376 H   0  0  0  0  0  0  0  0  0  0  0  0
   -3.1393   -2.7562    0.8651 C   0  0  0  0  0  0  0  0  0  0  0  0
   -3.7461   -2.0741    1.4655 H   0  0  0  0  0  0  0  0  0  0  0  0
   -3.5768   -2.8393   -0.1326 H   0  0  0  0  0  0  0  0  0  0  0  0
   -1.7185   -2.2346    0.7643 C   0  0  0  0  0  0  0  0  0  0  0  0
   -0.7847   -2.9211    1.1481 O   0  0  0  0  0  0  0  0  0  0  0  0
   -1.4849   -0.9810    0.2403 N   0  0  0  0  0  0  0  0  0  0  0  0
   -2.2977   -0.4012    0.0327 H   0  0  0  0  0  0  0  0  0  0  0  0
   -0.1787   -0.3075    0.2353 C   0  0  1  0  0  0  0  0  0  0  0  0
    0.4922   -0.7879    0.9553 H   0  0  0  0  0  0  0  0  0  0  0  0
    0.4151   -0.4494   -1.1804 C   0  0  0  0  0  0  0  0  0  0  0  0
    0.2831   -1.4881   -1.5024 H   0  0  0  0  0  0  0  0  0  0  0  0
   -0.1442    0.1810   -1.8814 H   0  0  0  0  0  0  0  0  0  0  0  0
    1.9212   -0.1254   -1.2624 C   0  0  0  0  0  0  0  0  0  0  0  0
    2.4535   -0.6495   -0.4636 H   0  0  0  0  0  0  0  0  0  0  0  0
    2.3110   -0.5036   -2.2118 H   0  0  0  0  0  0  0  0  0  0  0  0
    2.2483    1.3627   -1.1941 C   0  0  0  0  0  0  0  0  0  0  0  0
    1.8260    2.0944   -2.0710 O   0  0  0  0  0  0  0  0  0  0  0  0
    2.9958    1.7968   -0.1527 O   0  0  0  0  0  0  0  0  0  0  0  0
    3.1052    2.7503   -0.2965 H   0  0  0  0  0  0  0  0  0  0  0  0
   -0.3636    1.1610    0.6755 C   0  0  0  0  0  0  0  0  0  0  0  0
   -1.3476    1.7875    0.2988 O   0  0  0  0  0  0  0  0  0  0  0  0
    0.4948    1.7422    1.5898 N   0  0  0  0  0  0  0  0  0  0  0  0
    1.3344    1.2255    1.8391 H   0  0  0  0  0  0  0  0  0  0  0  0
    0.3441    3.1120    2.0643 C   0  0  0  0  0  0  0  0  0  0  0  0
   -0.6244    3.2414    2.5589 H   0  0  0  0  0  0  0  0  0  0  0  0
    1.1329    3.3522    2.7836 H   0  0  0  0  0  0  0  0  0  0  0  0
    0.4096    3.8163    1.2283 H   0  0  0  0  0  0  0  0  0  0  0  0
  1  2  1  0  0  0  0
  2  3  1  0  0  0  0
  2  4  1  0  0  0  0
  2  5  1  0  0  0  0
  5  6  2  0  0  0  0
  5  7  1  0  0  0  0
  7  8  1  0  0  0  0
  7  9  1  0  0  0  0
  9 10  1  0  0  0  0
  9 11  1  0  0  0  0
  9 21  1  0  0  0  0
 11 12  1  0  0  0  0
 11 13  1  0  0  0  0
 11 14  1  0  0  0  0
 14 15  1  0  0  0  0
 14 16  1  0  0  0  0
 14 17  1  0  0  0  0
 17 18  2  0  0  0  0
 17 19  1  0  0  0  0
 19 20  1  0  0  0  0
 21 22  2  0  0  0  0
 21 23  1  0  0  0  0
 23 24  1  0  0  0  0
 23 25  1  0  0  0  0
 25 26  1  0  0  0  0
 25 27  1  0  0  0  0
 25 28  1  0  0  0  0
M  END
$$$$

  -OEChem-02102214123D

 28 27  0     1  0  0  0  0  0999 V2000
   -3.1121   -3.7597    1.3309 H   0  0  0  0  0  0  0  0  0  0  0  0
   -3.1119   -2.7731    0.8592 C   0  0  0  0  0  0  0  0  0  0  0  0
   -3.7284   -2.0973    1.4570 H   0  0  0  0  0  0  0  0  0  0  0  0
   -3.5434   -2.8597   -0.1408 H   0  0  0  0  0  0  0  0  0  0  0  0
   -1.6957   -2.2378    0.7661 C   0  0  0  0  0  0  0  0  0  0  0  0
   -0.7564   -2.9196    1.1445 O   0  0  0  0  0  0  0  0  0  0  0  0
   -1.4720   -0.9776    0.2538 N   0  0  0  0  0  0  0  0  0  0  0  0
   -2.2895   -0.4013    0.0540 H   0  0  0  0  0  0  0  0  0  0  0  0
   -0.1713   -0.2930    0.2586 C   0  0  1  0  0  0  0  0  0  0  0  0
    0.5082   -0.7700    0.9729 H   0  0  0  0  0  0  0  0  0  0  0  0
    0.4127   -0.4273   -1.1646 C   0  0  0  0  0  0  0  0  0  0  0  0
    0.2671   -1.4591   -1.5029 H   0  0  0  0  0  0  0  0  0  0  0  0
   -0.1555    0.2203   -1.8421 H   0  0  0  0  0  0  0  0  0  0  0  0
    1.9165   -0.1044   -1.2988 C   0  0  0  0  0  0  0  0  0  0  0  0
    2.4837   -0.8110   -0.6858 H   0  0  0  0  0  0  0  0  0  0  0  0
    2.2196   -0.2624   -2.3379 H   0  0  0  0  0  0  0  0  0  0  0  0
    2.3229    1.3096   -0.9015 C   0  0  0  0  0  0  0  0  0  0  0  0
    1.9693    2.2354   -1.6086 O   0  0  0  0  0  0  0  0  0  0  0  0
    3.0590    1.4668    0.2241 O   0  0  0  0  0  0  0  0  0  0  0  0
    3.2459    2.4178    0.2756 H   0  0  0  0  0  0  0  0  0  0  0  0
   -0.3929    1.1670    0.7140 C   0  0  0  0  0  0  0  0  0  0  0  0
   -1.3842    1.7782    0.3303 O   0  0  0  0  0  0  0  0  0  0  0  0
    0.4451    1.7577    1.6411 N   0  0  0  0  0  0  0  0  0  0  0  0
    1.2906    1.2513    1.8939 H   0  0  0  0  0  0  0  0  0  0  0  0
    0.2807    3.1311    2.1005 C   0  0  0  0  0  0  0  0  0  0  0  0
   -0.7024    3.2660    2.5643 H   0  0  0  0  0  0  0  0  0  0  0  0
    1.0474    3.3770    2.8416 H   0  0  0  0  0  0  0  0  0  0  0  0
    0.3722    3.8281    1.2607 H   0  0  0  0  0  0  0  0  0  0  0  0
  1  2  1  0  0  0  0
  2  3  1  0  0  0  0
  2  4  1  0  0  0  0
  2  5  1  0  0  0  0
  5  6  2  0  0  0  0
  5  7  1  0  0  0  0
  7  8  1  0  0  0  0
  7  9  1  0  0  0  0
  9 10  1  0  0  0  0
  9 11  1  0  0  0  0
  9 21  1  0  0  0  0
 11 12  1  0  0  0  0
 11 13  1  0  0  0  0
 11 14  1  0  0  0  0
 14 15  1  0  0  0  0
 14 16  1  0  0  0  0
 14 17  1  0  0  0  0
 17 18  2  0  0  0  0
 17 19  1  0  0  0  0
 19 20  1  0  0  0  0
 21 22  2  0  0  0  0
 21 23  1  0  0  0  0
 23 24  1  0  0  0  0
 23 25  1  0  0  0  0
 25 26  1  0  0  0  0
 25 27  1  0  0  0  0
 25 28  1  0  0  0  0
M  END
$$$$

  -OEChem-02102214123D

 28 27  0     1  0  0  0  0  0999 V2000
   -3.0840   -3.7835    1.3156 H   0  0  0  0  0  0  0  0  0  0  0  0
   -3.0881   -2.7963    0.8448 C   0  0  0  0  0  0  0  0  0  0  0  0
   -3.7213   -2.1283    1.4337 H   0  0  0  0  0  0  0  0  0  0  0  0
   -3.5033   -2.8873   -0.1618 H   0  0  0  0  0  0  0  0  0  0  0  0
   -1.6770   -2.2442    0.7741 C   0  0  0  0  0  0  0  0  0  0  0  0
   -0.7353   -2.9166    1.1627 O   0  0  0  0  0  0  0  0  0  0  0  0
   -1.4610   -0.9802    0.2682 N   0  0  0  0  0  0  0  0  0  0  0  0
   -2.2821   -0.4128    0.0586 H   0  0  0  0  0  0  0  0  0  0  0  0
   -0.1673   -0.2823    0.2885 C   0  0  1  0  0  0  0  0  0  0  0  0
    0.5172   -0.7546    1.0013 H   0  0  0  0  0  0  0  0  0  0  0  0
    0.4124   -0.4058   -1.1389 C   0  0  0  0  0  0  0  0  0  0  0  0
    0.2565   -1.4305   -1.4942 H   0  0  0  0  0  0  0  0  0  0  0  0
   -0.1654    0.2547   -1.7956 H   0  0  0  0  0  0  0  0  0  0  0  0
    1.9127   -0.0796   -1.3177 C   0  0  0  0  0  0  0  0  0  0  0  0
    2.4918   -0.9228   -0.9295 H   0  0  0  0  0  0  0  0  0  0  0  0
    2.1325   -0.0040   -2.3868 H   0  0  0  0  0  0  0  0  0  0  0  0
    2.4280    1.1785   -0.6295 C   0  0  0  0  0  0  0  0  0  0  0  0
    2.2780    2.2472   -1.1931 O   0  0  0  0  0  0  0  0  0  0  0  0
    3.0421    1.0471    0.5709 O   0  0  0  0  0  0  0  0  0  0  0  0
    3.3631    1.9363    0.7911 H   0  0  0  0  0  0  0  0  0  0  0  0
   -0.4195    1.1723    0.7474 C   0  0  0  0  0  0  0  0  0  0  0  0
   -1.4017    1.7777    0.3323 O   0  0  0  0  0  0  0  0  0  0  0  0
    0.3957    1.7734    1.6876 N   0  0  0  0  0  0  0  0  0  0  0  0
    1.2241    1.2592    1.9788 H   0  0  0  0  0  0  0  0  0  0  0  0
    0.2287    3.1546    2.1223 C   0  0  0  0  0  0  0  0  0  0  0  0
   -0.7683    3.3051    2.5499 H   0  0  0  0  0  0  0  0  0  0  0  0
    0.9714    3.4039    2.8862 H   0  0  0  0  0  0  0  0  0  0  0  0
    0.3563    3.8386    1.2765 H   0  0  0  0  0  0  0  0  0  0  0  0
  1  2  1  0  0  0  0
  2  3  1  0  0  0  0
  2  4  1  0  0  0  0
  2  5  1  0  0  0  0
  5  6  2  0  0  0  0
  5  7  1  0  0  0  0
  7  8  1  0  0  0  0
  7  9  1  0  0  0  0
  9 10  1  0  0  0  0
  9 11  1  0  0  0  0
  9 21  1  0  0  0  0
 11 12  1  0  0  0  0
 11 13  1  0  0  0  0
 11 14  1  0  0  0  0
 14 15  1  0  0  0  0
 14 16  1  0  0  0  0
 14 17  1  0  0  0  0
 17 18  2  0  0  0  0
 17 19  1  0  0  0  0
 19 20  1  0  0  0  0
 21 22  2  0  0  0  0
 21 23  1  0  0  0  0
 23 24  1  0  0  0  0
 23 25  1  0  0  0  0
 25 26  1  0  0  0  0
 25 27  1  0  0  0  0
 25 28  1  0  0  0  0
M  END
$$$$

  -OEChem-02102214123D

 28 27  0     1  0  0  0  0  0999 V2000
   -3.1044   -3.7738    1.3183 H   0  0  0  0  0  0  0  0  0  0  0  0
   -3.1001   -2.7930    0.8346 C   0  0  0  0  0  0  0  0  0  0  0  0
   -3.7480   -2.1191    1.4004 H   0  0  0  0  0  0  0  0  0  0  0  0
   -3.4925   -2.8985   -0.1796 H   0  0  0  0  0  0  0  0  0  0  0  0
   -1.6889   -2.2387    0.7890 C   0  0  0  0  0  0  0  0  0  0  0  0
   -0.7572   -2.9009    1.2169 O   0  0  0  0  0  0  0  0  0  0  0  0
   -1.4625   -0.9830    0.2667 N   0  0  0  0  0  0  0  0  0  0  0  0
   -2.2789   -0.4240    0.0202 H   0  0  0  0  0  0  0  0  0  0  0  0
   -0.1723   -0.2795    0.3122 C   0  0  1  0  0  0  0  0  0  0  0  0
    0.4943   -0.7406    1.0492 H   0  0  0  0  0  0  0  0  0  0  0  0
    0.4420   -0.4153   -1.0996 C   0  0  0  0  0  0  0  0  0  0  0  0
    0.2894   -1.4414   -1.4520 H   0  0  0  0  0  0  0  0  0  0  0  0
   -0.1259    0.2403   -1.7695 H   0  0  0  0  0  0  0  0  0  0  0  0
    1.9456   -0.0896   -1.2732 C   0  0  0  0  0  0  0  0  0  0  0  0
    2.5066   -1.0144   -1.1112 H   0  0  0  0  0  0  0  0  0  0  0  0
    2.1227    0.2130   -2.3099 H   0  0  0  0  0  0  0  0  0  0  0  0
    2.5580    0.9545   -0.3455 C   0  0  0  0  0  0  0  0  0  0  0  0
    2.6932    2.0887   -0.7670 O   0  0  0  0  0  0  0  0  0  0  0  0
    2.9567    0.5672    0.8901 O   0  0  0  0  0  0  0  0  0  0  0  0
    3.4230    1.3336    1.2606 H   0  0  0  0  0  0  0  0  0  0  0  0
   -0.4378    1.1827    0.7365 C   0  0  0  0  0  0  0  0  0  0  0  0
   -1.3923    1.7891    0.2625 O   0  0  0  0  0  0  0  0  0  0  0  0
    0.3505    1.7996    1.6881 N   0  0  0  0  0  0  0  0  0  0  0  0
    1.1431    1.2707    2.0435 H   0  0  0  0  0  0  0  0  0  0  0  0
    0.1965    3.1969    2.0723 C   0  0  0  0  0  0  0  0  0  0  0  0
   -0.8145    3.3824    2.4504 H   0  0  0  0  0  0  0  0  0  0  0  0
    0.9111    3.4546    2.8597 H   0  0  0  0  0  0  0  0  0  0  0  0
    0.3771    3.8504    1.2122 H   0  0  0  0  0  0  0  0  0  0  0  0
  1  2  1  0  0  0  0
  2  3  1  0  0  0  0
  2  4  1  0  0  0  0
  2  5  1  0  0  0  0
  5  6  2  0  0  0  0
  5  7  1  0  0  0  0
  7  8  1  0  0  0  0
  7  9  1  0  0  0  0
  9 10  1  0  0  0  0
  9 11  1  0  0  0  0
  9 21  1  0  0  0  0
 11 12  1  0  0  0  0
 11 13  1  0  0  0  0
 11 14  1  0  0  0  0
 14 15  1  0  0  0  0
 14 16  1  0  0  0  0
 14 17  1  0  0  0  0
 17 18  2  0  0  0  0
 17 19  1  0  0  0  0
 19 20  1  0  0  0  0
 21 22  2  0  0  0  0
 21 23  1  0  0  0  0
 23 24  1  0  0  0  0
 23 25  1  0  0  0  0
 25 26  1  0  0  0  0
 25 27  1  0  0  0  0
 25 28  1  0  0  0  0
M  END
$$$$

  -OEChem-02102214123D

 28 27  0     1  0  0  0  0  0999 V2000
   -3.3149   -3.7219    1.1571 H   0  0  0  0  0  0  0  0  0  0  0  0
   -3.2483   -2.7311    0.6987 C   0  0  0  0  0  0  0  0  0  0  0  0
   -3.8996   -2.0456    1.2461 H   0  0  0  0  0  0  0  0  0  0  0  0
   -3.5892   -2.7985   -0.3372 H   0  0  0  0  0  0  0  0  0  0  0  0
   -1.8168   -2.2307    0.7400 C   0  0  0  0  0  0  0  0  0  0  0  0
   -0.9368   -2.9368    1.2047 O   0  0  0  0  0  0  0  0  0  0  0  0
   -1.5151   -0.9816    0.2394 N   0  0  0  0  0  0  0  0  0  0  0  0
   -2.2973   -0.3927   -0.0440 H   0  0  0  0  0  0  0  0  0  0  0  0
   -0.2036   -0.3250    0.3501 C   0  0  1  0  0  0  0  0  0  0  0  0
    0.3886   -0.8254    1.1229 H   0  0  0  0  0  0  0  0  0  0  0  0
    0.4910   -0.4855   -1.0212 C   0  0  0  0  0  0  0  0  0  0  0  0
    0.3242   -1.5099   -1.3724 H   0  0  0  0  0  0  0  0  0  0  0  0
   -0.0209    0.1779   -1.7272 H   0  0  0  0  0  0  0  0  0  0  0  0
    2.0164   -0.2113   -1.1243 C   0  0  0  0  0  0  0  0  0  0  0  0
    2.5261   -1.1751   -1.2147 H   0  0  0  0  0  0  0  0  0  0  0  0
    2.2064    0.3347   -2.0531 H   0  0  0  0  0  0  0  0  0  0  0  0
    2.7040    0.5345    0.0179 C   0  0  0  0  0  0  0  0  0  0  0  0
    2.7763    0.0152    1.1200 O   0  0  0  0  0  0  0  0  0  0  0  0
    3.2034    1.7605   -0.2611 O   0  0  0  0  0  0  0  0  0  0  0  0
    3.6170    2.0810    0.5542 H   0  0  0  0  0  0  0  0  0  0  0  0
   -0.3954    1.1487    0.7701 C   0  0  0  0  0  0  0  0  0  0  0  0
   -1.2914    1.8138    0.2621 O   0  0  0  0  0  0  0  0  0  0  0  0
    0.3918    1.7129    1.7554 N   0  0  0  0  0  0  0  0  0  0  0  0
    1.1361    1.1329    2.1420 H   0  0  0  0  0  0  0  0  0  0  0  0
    0.2613    3.0952    2.1971 C   0  0  0  0  0  0  0  0  0  0  0  0
   -0.7477    3.2812    2.5801 H   0  0  0  0  0  0  0  0  0  0  0  0
    0.9780    3.3066    2.9965 H   0  0  0  0  0  0  0  0  0  0  0  0
    0.4551    3.7819    1.3663 H   0  0  0  0  0  0  0  0  0  0  0  0
  1  2  1  0  0  0  0
  2  3  1  0  0  0  0
  2  4  1  0  0  0  0
  2  5  1  0  0  0  0
  5  6  2  0  0  0  0
  5  7  1  0  0  0  0
  7  8  1  0  0  0  0
  7  9  1  0  0  0  0
  9 10  1  0  0  0  0
  9 11  1  0  0  0  0
  9 21  1  0  0  0  0
 11 12  1  0  0  0  0
 11 13  1  0  0  0  0
 11 14  1  0  0  0  0
 14 15  1  0  0  0  0
 14 16  1  0  0  0  0
 14 17  1  0  0  0  0
 17 18  2  0  0  0  0
 17 19  1  0  0  0  0
 19 20  1  0  0  0  0
 21 22  2  0  0  0  0
 21 23  1  0  0  0  0
 23 24  1  0  0  0  0
 23 25  1  0  0  0  0
 25 26  1  0  0  0  0
 25 27  1  0  0  0  0
 25 28  1  0  0  0  0
M  END
$$$$

  -OEChem-02102214123D

 28 27  0     1  0  0  0  0  0999 V2000
   -3.3614   -3.7097    1.1794 H   0  0  0  0  0  0  0  0  0  0  0  0
   -3.2894   -2.7237    0.7117 C   0  0  0  0  0  0  0  0  0  0  0  0
   -3.9402   -2.0306    1.2500 H   0  0  0  0  0  0  0  0  0  0  0  0
   -3.6270   -2.7996   -0.3246 H   0  0  0  0  0  0  0  0  0  0  0  0
   -1.8563   -2.2281    0.7540 C   0  0  0  0  0  0  0  0  0  0  0  0
   -0.9840   -2.9280    1.2411 O   0  0  0  0  0  0  0  0  0  0  0  0
   -1.5481   -0.9885    0.2332 N   0  0  0  0  0  0  0  0  0  0  0  0
   -2.3272   -0.4093   -0.0759 H   0  0  0  0  0  0  0  0  0  0  0  0
   -0.2389   -0.3263    0.3419 C   0  0  1  0  0  0  0  0  0  0  0  0
    0.3236   -0.8199    1.1379 H   0  0  0  0  0  0  0  0  0  0  0  0
    0.4883   -0.5141   -1.0073 C   0  0  0  0  0  0  0  0  0  0  0  0
    0.3451   -1.5567   -1.3124 H   0  0  0  0  0  0  0  0  0  0  0  0
   -0.0193    0.1058   -1.7549 H   0  0  0  0  0  0  0  0  0  0  0  0
    2.0158   -0.2308   -1.0908 C   0  0  0  0  0  0  0  0  0  0  0  0
    2.5132   -1.1386   -1.4444 H   0  0  0  0  0  0  0  0  0  0  0  0
    2.1681    0.5308   -1.8614 H   0  0  0  0  0  0  0  0  0  0  0  0
    2.7708    0.2299    0.1583 C   0  0  0  0  0  0  0  0  0  0  0  0
    2.7144   -0.4233    1.1857 O   0  0  0  0  0  0  0  0  0  0  0  0
    3.4891    1.3709    0.0463 O   0  0  0  0  0  0  0  0  0  0  0  0
    3.9320    1.4990    0.8985 H   0  0  0  0  0  0  0  0  0  0  0  0
   -0.3913    1.1570    0.7293 C   0  0  0  0  0  0  0  0  0  0  0  0
   -1.2619    1.8390    0.2013 O   0  0  0  0  0  0  0  0  0  0  0  0
    0.4156    1.7114    1.7041 N   0  0  0  0  0  0  0  0  0  0  0  0
    1.0975    1.0981    2.1477 H   0  0  0  0  0  0  0  0  0  0  0  0
    0.3129    3.0984    2.1383 C   0  0  0  0  0  0  0  0  0  0  0  0
   -0.6847    3.3003    2.5423 H   0  0  0  0  0  0  0  0  0  0  0  0
    1.0510    3.3069    2.9186 H   0  0  0  0  0  0  0  0  0  0  0  0
    0.4964    3.7765    1.2982 H   0  0  0  0  0  0  0  0  0  0  0  0
  1  2  1  0  0  0  0
  2  3  1  0  0  0  0
  2  4  1  0  0  0  0
  2  5  1  0  0  0  0
  5  6  2  0  0  0  0
  5  7  1  0  0  0  0
  7  8  1  0  0  0  0
  7  9  1  0  0  0  0
  9 10  1  0  0  0  0
  9 11  1  0  0  0  0
  9 21  1  0  0  0  0
 11 12  1  0  0  0  0
 11 13  1  0  0  0  0
 11 14  1  0  0  0  0
 14 15  1  0  0  0  0
 14 16  1  0  0  0  0
 14 17  1  0  0  0  0
 17 18  2  0  0  0  0
 17 19  1  0  0  0  0
 19 20  1  0  0  0  0
 21 22  2  0  0  0  0
 21 23  1  0  0  0  0
 23 24  1  0  0  0  0
 23 25  1  0  0  0  0
 25 26  1  0  0  0  0
 25 27  1  0  0  0  0
 25 28  1  0  0  0  0
M  END
$$$$

  -OEChem-02102214123D

 28 27  0     1  0  0  0  0  0999 V2000
   -3.0679   -3.8322    1.1938 H   0  0  0  0  0  0  0  0  0  0  0  0
   -3.0663   -2.8262    0.7653 C   0  0  0  0  0  0  0  0  0  0  0  0
   -3.7138   -2.1849    1.3682 H   0  0  0  0  0  0  0  0  0  0  0  0
   -3.4604   -2.8763   -0.2526 H   0  0  0  0  0  0  0  0  0  0  0  0
   -1.6560   -2.2678    0.7479 C   0  0  0  0  0  0  0  0  0  0  0  0
   -0.7293   -2.9317    1.1844 O   0  0  0  0  0  0  0  0  0  0  0  0
   -1.4273   -1.0057    0.2425 N   0  0  0  0  0  0  0  0  0  0  0  0
   -2.2446   -0.4424    0.0084 H   0  0  0  0  0  0  0  0  0  0  0  0
   -0.1449   -0.2919    0.3275 C   0  0  1  0  0  0  0  0  0  0  0  0
    0.4969   -0.7622    1.0789 H   0  0  0  0  0  0  0  0  0  0  0  0
    0.5097   -0.3395   -1.0709 C   0  0  0  0  0  0  0  0  0  0  0  0
    0.4096   -1.3688   -1.4330 H   0  0  0  0  0  0  0  0  0  0  0  0
   -0.0597    0.2956   -1.7588 H   0  0  0  0  0  0  0  0  0  0  0  0
    2.0147    0.0193   -1.1748 C   0  0  0  0  0  0  0  0  0  0  0  0
    2.4999   -0.6774   -1.8647 H   0  0  0  0  0  0  0  0  0  0  0  0
    2.0977    1.0165   -1.6179 H   0  0  0  0  0  0  0  0  0  0  0  0
    2.8053    0.0359    0.1316 C   0  0  0  0  0  0  0  0  0  0  0  0
    2.8991    1.0752    0.7622 O   0  0  0  0  0  0  0  0  0  0  0  0
    3.3564   -1.1320    0.5313 O   0  0  0  0  0  0  0  0  0  0  0  0
    3.8192   -0.9529    1.3636 H   0  0  0  0  0  0  0  0  0  0  0  0
   -0.4410    1.1660    0.7588 C   0  0  0  0  0  0  0  0  0  0  0  0
   -1.4356    1.7282    0.3095 O   0  0  0  0  0  0  0  0  0  0  0  0
    0.3019    1.8047    1.7329 N   0  0  0  0  0  0  0  0  0  0  0  0
    1.2293    1.4204    1.9103 H   0  0  0  0  0  0  0  0  0  0  0  0
    0.0547    3.1857    2.1285 C   0  0  0  0  0  0  0  0  0  0  0  0
   -0.9707    3.3030    2.4945 H   0  0  0  0  0  0  0  0  0  0  0  0
    0.7403    3.4761    2.9303 H   0  0  0  0  0  0  0  0  0  0  0  0
    0.2059    3.8607    1.2796 H   0  0  0  0  0  0  0  0  0  0  0  0
  1  2  1  0  0  0  0
  2  3  1  0  0  0  0
  2  4  1  0  0  0  0
  2  5  1  0  0  0  0
  5  6  2  0  0  0  0
  5  7  1  0  0  0  0
  7  8  1  0  0  0  0
  7  9  1  0  0  0  0
  9 10  1  0  0  0  0
  9 11  1  0  0  0  0
  9 21  1  0  0  0  0
 11 12  1  0  0  0  0
 11 13  1  0  0  0  0
 11 14  1  0  0  0  0
 14 15  1  0  0  0  0
 14 16  1  0  0  0  0
 14 17  1  0  0  0  0
 17 18  2  0  0  0  0
 17 19  1  0  0  0  0
 19 20  1  0  0  0  0
 21 22  2  0  0  0  0
 21 23  1  0  0  0  0
 23 24  1  0  0  0  0
 23 25  1  0  0  0  0
 25 26  1  0  0  0  0
 25 27  1  0  0  0  0
 25 28  1  0  0  0  0
M  END
$$$$

  -OEChem-02102214123D

 28 27  0     1  0  0  0  0  0999 V2000
   -3.0791   -3.8340    1.2095 H   0  0  0  0  0  0  0  0  0  0  0  0
   -3.0774   -2.8400    0.7535 C   0  0  0  0  0  0  0  0  0  0  0  0
   -3.7369   -2.1873    1.3306 H   0  0  0  0  0  0  0  0  0  0  0  0
   -3.4571   -2.9200   -0.2680 H   0  0  0  0  0  0  0  0  0  0  0  0
   -1.6705   -2.2732    0.7396 C   0  0  0  0  0  0  0  0  0  0  0  0
   -0.7412   -2.9316    1.1789 O   0  0  0  0  0  0  0  0  0  0  0  0
   -1.4472   -1.0119    0.2288 N   0  0  0  0  0  0  0  0  0  0  0  0
   -2.2665   -0.4570   -0.0166 H   0  0  0  0  0  0  0  0  0  0  0  0
   -0.1696   -0.2902    0.3157 C   0  0  1  0  0  0  0  0  0  0  0  0
    0.4555   -0.7574    1.0821 H   0  0  0  0  0  0  0  0  0  0  0  0
    0.5151   -0.3532   -1.0666 C   0  0  0  0  0  0  0  0  0  0  0  0
    0.4379   -1.3894   -1.4144 H   0  0  0  0  0  0  0  0  0  0  0  0
   -0.0395    0.2665   -1.7797 H   0  0  0  0  0  0  0  0  0  0  0  0
    2.0168    0.0226   -1.1183 C   0  0  0  0  0  0  0  0  0  0  0  0
    2.4852   -0.4865   -1.9655 H   0  0  0  0  0  0  0  0  0  0  0  0
    2.0965    1.0977   -1.3058 H   0  0  0  0  0  0  0  0  0  0  0  0
    2.8215   -0.2806    0.1445 C   0  0  0  0  0  0  0  0  0  0  0  0
    2.8489    0.5442    1.0441 O   0  0  0  0  0  0  0  0  0  0  0  0
    3.4550   -1.4735    0.2035 O   0  0  0  0  0  0  0  0  0  0  0  0
    3.8879   -1.5145    1.0696 H   0  0  0  0  0  0  0  0  0  0  0  0
   -0.4344    1.1737    0.7361 C   0  0  0  0  0  0  0  0  0  0  0  0
   -1.4086    1.7614    0.2767 O   0  0  0  0  0  0  0  0  0  0  0  0
    0.3313    1.7933    1.7043 N   0  0  0  0  0  0  0  0  0  0  0  0
    1.2233    1.3489    1.9265 H   0  0  0  0  0  0  0  0  0  0  0  0
    0.1330    3.1803    2.1047 C   0  0  0  0  0  0  0  0  0  0  0  0
   -0.8922    3.3357    2.4572 H   0  0  0  0  0  0  0  0  0  0  0  0
    0.8179    3.4391    2.9180 H   0  0  0  0  0  0  0  0  0  0  0  0
    0.3223    3.8532    1.2619 H   0  0  0  0  0  0  0  0  0  0  0  0
  1  2  1  0  0  0  0
  2  3  1  0  0  0  0
  2  4  1  0  0  0  0
  2  5  1  0  0  0  0
  5  6  2  0  0  0  0
  5  7  1  0  0  0  0
  7  8  1  0  0  0  0
  7  9  1  0  0  0  0
  9 10  1  0  0  0  0
  9 11  1  0  0  0  0
  9 21  1  0  0  0  0
 11 12  1  0  0  0  0
 11 13  1  0  0  0  0
 11 14  1  0  0  0  0
 14 15  1  0  0  0  0
 14 16  1  0  0  0  0
 14 17  1  0  0  0  0
 17 18  2  0  0  0  0
 17 19  1  0  0  0  0
 19 20  1  0  0  0  0
 21 22  2  0  0  0  0
 21 23  1  0  0  0  0
 23 24  1  0  0  0  0
 23 25  1  0  0  0  0
 25 26  1  0  0  0  0
 25 27  1  0  0  0  0
 25 28  1  0  0  0  0
M  END
$$$$

  -OEChem-02102214123D

 28 27  0     1  0  0  0  0  0999 V2000
   -3.2115   -3.7498    1.3353 H   0  0  0  0  0  0  0  0  0  0  0  0
   -3.1883   -2.7658    0.8586 C   0  0  0  0  0  0  0  0  0  0  0  0
   -3.8142   -2.0808    1.4355 H   0  0  0  0  0  0  0  0  0  0  0  0
   -3.5926   -2.8548   -0.1526 H   0  0  0  0  0  0  0  0  0  0  0  0
   -1.7646   -2.2449    0.8029 C   0  0  0  0  0  0  0  0  0  0  0  0
   -0.8491   -2.9215    1.2427 O   0  0  0  0  0  0  0  0  0  0  0  0
   -1.5108   -1.0036    0.2574 N   0  0  0  0  0  0  0  0  0  0  0  0
   -2.3155   -0.4323    0.0036 H   0  0  0  0  0  0  0  0  0  0  0  0
   -0.2014   -0.3358    0.2632 C   0  0  1  0  0  0  0  0  0  0  0  0
    0.4237   -0.8212    1.0166 H   0  0  0  0  0  0  0  0  0  0  0  0
    0.4397   -0.4767   -1.1310 C   0  0  0  0  0  0  0  0  0  0  0  0
    0.3155   -1.5171   -1.4519 H   0  0  0  0  0  0  0  0  0  0  0  0
   -0.1006    0.1513   -1.8479 H   0  0  0  0  0  0  0  0  0  0  0  0
    1.9496   -0.1519   -1.1975 C   0  0  0  0  0  0  0  0  0  0  0  0
    2.3426   -0.4877   -2.1621 H   0  0  0  0  0  0  0  0  0  0  0  0
    2.0776    0.9335   -1.1576 H   0  0  0  0  0  0  0  0  0  0  0  0
    2.7965   -0.7588   -0.0799 C   0  0  0  0  0  0  0  0  0  0  0  0
    3.3921   -1.7945   -0.3128 O   0  0  0  0  0  0  0  0  0  0  0  0
    2.8658   -0.1086    1.1090 O   0  0  0  0  0  0  0  0  0  0  0  0
    3.4584   -0.6521    1.6552 H   0  0  0  0  0  0  0  0  0  0  0  0
   -0.3280    1.1483    0.6616 C   0  0  0  0  0  0  0  0  0  0  0  0
   -1.2677    1.8128    0.2396 O   0  0  0  0  0  0  0  0  0  0  0  0
    0.5517    1.7080    1.5676 N   0  0  0  0  0  0  0  0  0  0  0  0
    1.3819    1.1608    1.7955 H   0  0  0  0  0  0  0  0  0  0  0  0
    0.4949    3.1055    1.9772 C   0  0  0  0  0  0  0  0  0  0  0  0
   -0.4685    3.3272    2.4485 H   0  0  0  0  0  0  0  0  0  0  0  0
    1.2886    3.3201    2.6992 H   0  0  0  0  0  0  0  0  0  0  0  0
    0.6241    3.7650    1.1127 H   0  0  0  0  0  0  0  0  0  0  0  0
  1  2  1  0  0  0  0
  2  3  1  0  0  0  0
  2  4  1  0  0  0  0
  2  5  1  0  0  0  0
  5  6  2  0  0  0  0
  5  7  1  0  0  0  0
  7  8  1  0  0  0  0
  7  9  1  0  0  0  0
  9 10  1  0  0  0  0
  9 11  1  0  0  0  0
  9 21  1  0  0  0  0
 11 12  1  0  0  0  0
 11 13  1  0  0  0  0
 11 14  1  0  0  0  0
 14 15  1  0  0  0  0
 14 16  1  0  0  0  0
 14 17  1  0  0  0  0
 17 18  2  0  0  0  0
 17 19  1  0  0  0  0
 19 20  1  0  0  0  0
 21 22  2  0  0  0  0
 21 23  1  0  0  0  0
 23 24  1  0  0  0  0
 23 25  1  0  0  0  0
 25 26  1  0  0  0  0
 25 27  1  0  0  0  0
 25 28  1  0  0  0  0
M  END
$$$$

  -OEChem-02102214123D

 28 27  0     1  0  0  0  0  0999 V2000
   -3.1211   -3.8081    1.3365 H   0  0  0  0  0  0  0  0  0  0  0  0
   -3.1319   -2.8181    0.8722 C   0  0  0  0  0  0  0  0  0  0  0  0
   -3.7639   -2.1561    1.4691 H   0  0  0  0  0  0  0  0  0  0  0  0
   -3.5526   -2.9052   -0.1325 H   0  0  0  0  0  0  0  0  0  0  0  0
   -1.7230   -2.2608    0.7969 C   0  0  0  0  0  0  0  0  0  0  0  0
   -0.7832   -2.9186    1.2140 O   0  0  0  0  0  0  0  0  0  0  0  0
   -1.5099   -1.0084    0.2591 N   0  0  0  0  0  0  0  0  0  0  0  0
   -2.3321   -0.4580    0.0162 H   0  0  0  0  0  0  0  0  0  0  0  0
   -0.2143   -0.3151    0.2329 C   0  0  1  0  0  0  0  0  0  0  0  0
    0.4349   -0.7941    0.9700 H   0  0  0  0  0  0  0  0  0  0  0  0
    0.4052   -0.4621   -1.1695 C   0  0  0  0  0  0  0  0  0  0  0  0
    0.2944   -1.5020   -1.4971 H   0  0  0  0  0  0  0  0  0  0  0  0
   -0.1485    0.1651   -1.8765 H   0  0  0  0  0  0  0  0  0  0  0  0
    1.9030   -0.0980   -1.2223 C   0  0  0  0  0  0  0  0  0  0  0  0
    2.2590   -0.2132   -2.2505 H   0  0  0  0  0  0  0  0  0  0  0  0
    2.0403    0.9520   -0.9496 H   0  0  0  0  0  0  0  0  0  0  0  0
    2.7706   -0.9600   -0.3108 C   0  0  0  0  0  0  0  0  0  0  0  0
    3.2668   -1.9746   -0.7657 O   0  0  0  0  0  0  0  0  0  0  0  0
    2.9502   -0.5426    0.9673 O   0  0  0  0  0  0  0  0  0  0  0  0
    3.5076   -1.2233    1.3794 H   0  0  0  0  0  0  0  0  0  0  0  0
   -0.3271    1.1630    0.6486 C   0  0  0  0  0  0  0  0  0  0  0  0
   -1.2689    1.8401    0.2538 O   0  0  0  0  0  0  0  0  0  0  0  0
    0.5899    1.7048    1.5292 N   0  0  0  0  0  0  0  0  0  0  0  0
    1.3804    1.1203    1.7969 H   0  0  0  0  0  0  0  0  0  0  0  0
    0.5468    3.0903    1.9790 C   0  0  0  0  0  0  0  0  0  0  0  0
   -0.3876    3.2903    2.5139 H   0  0  0  0  0  0  0  0  0  0  0  0
    1.3823    3.2941    2.6556 H   0  0  0  0  0  0  0  0  0  0  0  0
    0.6176    3.7731    1.1257 H   0  0  0  0  0  0  0  0  0  0  0  0
  1  2  1  0  0  0  0
  2  3  1  0  0  0  0
  2  4  1  0  0  0  0
  2  5  1  0  0  0  0
  5  6  2  0  0  0  0
  5  7  1  0  0  0  0
  7  8  1  0  0  0  0
  7  9  1  0  0  0  0
  9 10  1  0  0  0  0
  9 11  1  0  0  0  0
  9 21  1  0  0  0  0
 11 12  1  0  0  0  0
 11 13  1  0  0  0  0
 11 14  1  0  0  0  0
 14 15  1  0  0  0  0
 14 16  1  0  0  0  0
 14 17  1  0  0  0  0
 17 18  2  0  0  0  0
 17 19  1  0  0  0  0
 19 20  1  0  0  0  0
 21 22  2  0  0  0  0
 21 23  1  0  0  0  0
 23 24  1  0  0  0  0
 23 25  1  0  0  0  0
 25 26  1  0  0  0  0
 25 27  1  0  0  0  0
 25 28  1  0  0  0  0
M  END
$$$$

  -OEChem-02102214123D

 28 27  0     1  0  0  0  0  0999 V2000
   -3.0533   -3.8205    1.3405 H   0  0  0  0  0  0  0  0  0  0  0  0
   -3.0761   -2.8281    0.8815 C   0  0  0  0  0  0  0  0  0  0  0  0
   -3.7131   -2.1759    1.4838 H   0  0  0  0  0  0  0  0  0  0  0  0
   -3.4992   -2.9141   -0.1222 H   0  0  0  0  0  0  0  0  0  0  0  0
   -1.6735   -2.2560    0.8037 C   0  0  0  0  0  0  0  0  0  0  0  0
   -0.7251   -2.9040    1.2170 O   0  0  0  0  0  0  0  0  0  0  0  0
   -1.4747   -1.0032    0.2621 N   0  0  0  0  0  0  0  0  0  0  0  0
   -2.3023   -0.4610    0.0193 H   0  0  0  0  0  0  0  0  0  0  0  0
   -0.1847   -0.3010    0.2265 C   0  0  1  0  0  0  0  0  0  0  0  0
    0.4914   -0.7690    0.9483 H   0  0  0  0  0  0  0  0  0  0  0  0
    0.4058   -0.4469   -1.1879 C   0  0  0  0  0  0  0  0  0  0  0  0
    0.2827   -1.4799   -1.5331 H   0  0  0  0  0  0  0  0  0  0  0  0
   -0.1568    0.1955   -1.8745 H   0  0  0  0  0  0  0  0  0  0  0  0
    1.8993   -0.0755   -1.2495 C   0  0  0  0  0  0  0  0  0  0  0  0
    2.1899    0.0483   -2.2970 H   0  0  0  0  0  0  0  0  0  0  0  0
    2.0867    0.8775   -0.7485 H   0  0  0  0  0  0  0  0  0  0  0  0
    2.7800   -1.1584   -0.6381 C   0  0  0  0  0  0  0  0  0  0  0  0
    3.1792   -2.0626   -1.3503 O   0  0  0  0  0  0  0  0  0  0  0  0
    3.0682   -1.0554    0.6815 O   0  0  0  0  0  0  0  0  0  0  0  0
    3.5944   -1.8430    0.8935 H   0  0  0  0  0  0  0  0  0  0  0  0
   -0.3265    1.1752    0.6435 C   0  0  0  0  0  0  0  0  0  0  0  0
   -1.2738    1.8375    0.2367 O   0  0  0  0  0  0  0  0  0  0  0  0
    0.5784    1.7403    1.5223 N   0  0  0  0  0  0  0  0  0  0  0  0
    1.3334    1.1493    1.8629 H   0  0  0  0  0  0  0  0  0  0  0  0
    0.4828    3.1146    1.9978 C   0  0  0  0  0  0  0  0  0  0  0  0
   -0.4436    3.2600    2.5632 H   0  0  0  0  0  0  0  0  0  0  0  0
    1.3282    3.3486    2.6520 H   0  0  0  0  0  0  0  0  0  0  0  0
    0.4950    3.8138    1.1550 H   0  0  0  0  0  0  0  0  0  0  0  0
  1  2  1  0  0  0  0
  2  3  1  0  0  0  0
  2  4  1  0  0  0  0
  2  5  1  0  0  0  0
  5  6  2  0  0  0  0
  5  7  1  0  0  0  0
  7  8  1  0  0  0  0
  7  9  1  0  0  0  0
  9 10  1  0  0  0  0
  9 11  1  0  0  0  0
  9 21  1  0  0  0  0
 11 12  1  0  0  0  0
 11 13  1  0  0  0  0
 11 14  1  0  0  0  0
 14 15  1  0  0  0  0
 14 16  1  0  0  0  0
 14 17  1  0  0  0  0
 17 18  2  0  0  0  0
 17 19  1  0  0  0  0
 19 20  1  0  0  0  0
 21 22  2  0  0  0  0
 21 23  1  0  0  0  0
 23 24  1  0  0  0  0
 23 25  1  0  0  0  0
 25 26  1  0  0  0  0
 25 27  1  0  0  0  0
 25 28  1  0  0  0  0
M  END
$$$$

  -OEChem-02102214123D

 28 27  0     1  0  0  0  0  0999 V2000
   -3.0612   -3.8370    1.1175 H   0  0  0  0  0  0  0  0  0  0  0  0
   -3.0599   -2.8378    0.6730 C   0  0  0  0  0  0  0  0  0  0  0  0
   -3.7414   -2.1991    1.2400 H   0  0  0  0  0  0  0  0  0  0  0  0
   -3.4128   -2.9110   -0.3585 H   0  0  0  0  0  0  0  0  0  0  0  0
   -1.6595   -2.2554    0.7007 C   0  0  0  0  0  0  0  0  0  0  0  0
   -0.7383   -2.9014    1.1730 O   0  0  0  0  0  0  0  0  0  0  0  0
   -1.4305   -0.9977    0.1834 N   0  0  0  0  0  0  0  0  0  0  0  0
   -2.2435   -0.4592   -0.1125 H   0  0  0  0  0  0  0  0  0  0  0  0
   -0.1543   -0.2746    0.2733 C   0  0  1  0  0  0  0  0  0  0  0  0
    0.4718   -0.7335    1.0465 H   0  0  0  0  0  0  0  0  0  0  0  0
    0.5593   -0.4052   -1.0830 C   0  0  0  0  0  0  0  0  0  0  0  0
    0.4716   -1.4326   -1.4549 H   0  0  0  0  0  0  0  0  0  0  0  0
    0.0533    0.2440   -1.8060 H   0  0  0  0  0  0  0  0  0  0  0  0
    2.0460   -0.0108   -1.0008 C   0  0  0  0  0  0  0  0  0  0  0  0
    2.3650    0.3580   -1.9796 H   0  0  0  0  0  0  0  0  0  0  0  0
    2.2089    0.7977   -0.2835 H   0  0  0  0  0  0  0  0  0  0  0  0
    2.9243   -1.2074   -0.6579 C   0  0  0  0  0  0  0  0  0  0  0  0
    3.3898   -1.2648    0.4673 O   0  0  0  0  0  0  0  0  0  0  0  0
    3.1425   -2.1417   -1.6117 O   0  0  0  0  0  0  0  0  0  0  0  0
    3.6918   -2.8232   -1.1948 H   0  0  0  0  0  0  0  0  0  0  0  0
   -0.3784    1.1959    0.6787 C   0  0  0  0  0  0  0  0  0  0  0  0
   -1.2982    1.8314    0.1764 O   0  0  0  0  0  0  0  0  0  0  0  0
    0.4134    1.7892    1.6441 N   0  0  0  0  0  0  0  0  0  0  0  0
    1.1319    1.2169    2.0808 H   0  0  0  0  0  0  0  0  0  0  0  0
    0.2145    3.1554    2.1121 C   0  0  0  0  0  0  0  0  0  0  0  0
   -0.7792    3.2667    2.5588 H   0  0  0  0  0  0  0  0  0  0  0  0
    0.9640    3.4096    2.8678 H   0  0  0  0  0  0  0  0  0  0  0  0
    0.3082    3.8627    1.2813 H   0  0  0  0  0  0  0  0  0  0  0  0
  1  2  1  0  0  0  0
  2  3  1  0  0  0  0
  2  4  1  0  0  0  0
  2  5  1  0  0  0  0
  5  6  2  0  0  0  0
  5  7  1  0  0  0  0
  7  8  1  0  0  0  0
  7  9  1  0  0  0  0
  9 10  1  0  0  0  0
  9 11  1  0  0  0  0
  9 21  1  0  0  0  0
 11 12  1  0  0  0  0
 11 13  1  0  0  0  0
 11 14  1  0  0  0  0
 14 15  1  0  0  0  0
 14 16  1  0  0  0  0
 14 17  1  0  0  0  0
 17 18  2  0  0  0  0
 17 19  1  0  0  0  0
 19 20  1  0  0  0  0
 21 22  2  0  0  0  0
 21 23  1  0  0  0  0
 23 24  1  0  0  0  0
 23 25  1  0  0  0  0
 25 26  1  0  0  0  0
 25 27  1  0  0  0  0
 25 28  1  0  0  0  0
M  END
$$$$

  -OEChem-02102214123D

 28 27  0     1  0  0  0  0  0999 V2000
   -3.1189   -3.8053    1.0787 H   0  0  0  0  0  0  0  0  0  0  0  0
   -3.0961   -2.8074    0.6318 C   0  0  0  0  0  0  0  0  0  0  0  0
   -3.7813   -2.1590    1.1831 H   0  0  0  0  0  0  0  0  0  0  0  0
   -3.4285   -2.8787   -0.4066 H   0  0  0  0  0  0  0  0  0  0  0  0
   -1.6897   -2.2418    0.6876 C   0  0  0  0  0  0  0  0  0  0  0  0
   -0.7875   -2.8953    1.1856 O   0  0  0  0  0  0  0  0  0  0  0  0
   -1.4352   -0.9883    0.1725 N   0  0  0  0  0  0  0  0  0  0  0  0
   -2.2348   -0.4419   -0.1443 H   0  0  0  0  0  0  0  0  0  0  0  0
   -0.1508   -0.2823    0.2792 C   0  0  1  0  0  0  0  0  0  0  0  0
    0.4617   -0.7502    1.0576 H   0  0  0  0  0  0  0  0  0  0  0  0
    0.5755   -0.4164   -1.0701 C   0  0  0  0  0  0  0  0  0  0  0  0
    0.4735   -1.4430   -1.4408 H   0  0  0  0  0  0  0  0  0  0  0  0
    0.0848    0.2374   -1.7999 H   0  0  0  0  0  0  0  0  0  0  0  0
    2.0695   -0.0420   -0.9743 C   0  0  0  0  0  0  0  0  0  0  0  0
    2.3332    0.5738   -1.8388 H   0  0  0  0  0  0  0  0  0  0  0  0
    2.2772    0.5523   -0.0808 H   0  0  0  0  0  0  0  0  0  0  0  0
    2.9704   -1.2720   -0.9972 C   0  0  0  0  0  0  0  0  0  0  0  0
    3.6170   -1.5235    0.0048 O   0  0  0  0  0  0  0  0  0  0  0  0
    3.0191   -2.0132   -2.1284 O   0  0  0  0  0  0  0  0  0  0  0  0
    3.6262   -2.7449   -1.9388 H   0  0  0  0  0  0  0  0  0  0  0  0
   -0.3643    1.1918    0.6800 C   0  0  0  0  0  0  0  0  0  0  0  0
   -1.2703    1.8364    0.1646 O   0  0  0  0  0  0  0  0  0  0  0  0
    0.4193    1.7787    1.6562 N   0  0  0  0  0  0  0  0  0  0  0  0
    1.1128    1.1949    2.1166 H   0  0  0  0  0  0  0  0  0  0  0  0
    0.2168    3.1421    2.1310 C   0  0  0  0  0  0  0  0  0  0  0  0
   -0.7774    3.2485    2.5777 H   0  0  0  0  0  0  0  0  0  0  0  0
    0.9656    3.3943    2.8880 H   0  0  0  0  0  0  0  0  0  0  0  0
    0.3095    3.8540    1.3039 H   0  0  0  0  0  0  0  0  0  0  0  0
  1  2  1  0  0  0  0
  2  3  1  0  0  0  0
  2  4  1  0  0  0  0
  2  5  1  0  0  0  0
  5  6  2  0  0  0  0
  5  7  1  0  0  0  0
  7  8  1  0  0  0  0
  7  9  1  0  0  0  0
  9 10  1  0  0  0  0
  9 11  1  0  0  0  0
  9 21  1  0  0  0  0
 11 12  1  0  0  0  0
 11 13  1  0  0  0  0
 11 14  1  0  0  0  0
 14 15  1  0  0  0  0
 14 16  1  0  0  0  0
 14 17  1  0  0  0  0
 17 18  2  0  0  0  0
 17 19  1  0  0  0  0
 19 20  1  0  0  0  0
 21 22  2  0  0  0  0
 21 23  1  0  0  0  0
 23 24  1  0  0  0  0
 23 25  1  0  0  0  0
 25 26  1  0  0  0  0
 25 27  1  0  0  0  0
 25 28  1  0  0  0  0
M  END
$$$$

  -OEChem-02102214123D

 28 27  0     1  0  0  0  0  0999 V2000
   -3.0443   -3.8206    1.3237 H   0  0  0  0  0  0  0  0  0  0  0  0
   -3.0633   -2.8305    0.8601 C   0  0  0  0  0  0  0  0  0  0  0  0
   -3.7068   -2.1764    1.4535 H   0  0  0  0  0  0  0  0  0  0  0  0
   -3.4768   -2.9215   -0.1472 H   0  0  0  0  0  0  0  0  0  0  0  0
   -1.6605   -2.2568    0.7946 C   0  0  0  0  0  0  0  0  0  0  0  0
   -0.7168   -2.8942    1.2338 O   0  0  0  0  0  0  0  0  0  0  0  0
   -1.4578   -1.0068    0.2488 N   0  0  0  0  0  0  0  0  0  0  0  0
   -2.2833   -0.4730   -0.0192 H   0  0  0  0  0  0  0  0  0  0  0  0
   -0.1726   -0.2945    0.2337 C   0  0  1  0  0  0  0  0  0  0  0  0
    0.5101   -0.7558    0.9552 H   0  0  0  0  0  0  0  0  0  0  0  0
    0.4274   -0.4201   -1.1770 C   0  0  0  0  0  0  0  0  0  0  0  0
    0.3048   -1.4549   -1.5177 H   0  0  0  0  0  0  0  0  0  0  0  0
   -0.1352    0.2134   -1.8721 H   0  0  0  0  0  0  0  0  0  0  0  0
    1.9238   -0.0367   -1.2210 C   0  0  0  0  0  0  0  0  0  0  0  0
    2.0616    0.8078   -1.9024 H   0  0  0  0  0  0  0  0  0  0  0  0
    2.2760    0.2826   -0.2368 H   0  0  0  0  0  0  0  0  0  0  0  0
    2.8020   -1.1894   -1.6969 C   0  0  0  0  0  0  0  0  0  0  0  0
    2.6922   -1.5707   -2.8497 O   0  0  0  0  0  0  0  0  0  0  0  0
    3.6572   -1.7373   -0.8033 O   0  0  0  0  0  0  0  0  0  0  0  0
    4.1018   -2.4606   -1.2714 H   0  0  0  0  0  0  0  0  0  0  0  0
   -0.3567    1.1819    0.6401 C   0  0  0  0  0  0  0  0  0  0  0  0
   -1.3117    1.8168    0.2080 O   0  0  0  0  0  0  0  0  0  0  0  0
    0.5087    1.7807    1.5368 N   0  0  0  0  0  0  0  0  0  0  0  0
    1.2314    1.1987    1.9509 H   0  0  0  0  0  0  0  0  0  0  0  0
    0.3277    3.1395    2.0337 C   0  0  0  0  0  0  0  0  0  0  0  0
   -0.5787    3.2055    2.6445 H   0  0  0  0  0  0  0  0  0  0  0  0
    1.1833    3.4349    2.6483 H   0  0  0  0  0  0  0  0  0  0  0  0
    0.2434    3.8462    1.2011 H   0  0  0  0  0  0  0  0  0  0  0  0
  1  2  1  0  0  0  0
  2  3  1  0  0  0  0
  2  4  1  0  0  0  0
  2  5  1  0  0  0  0
  5  6  2  0  0  0  0
  5  7  1  0  0  0  0
  7  8  1  0  0  0  0
  7  9  1  0  0  0  0
  9 10  1  0  0  0  0
  9 11  1  0  0  0  0
  9 21  1  0  0  0  0
 11 12  1  0  0  0  0
 11 13  1  0  0  0  0
 11 14  1  0  0  0  0
 14 15  1  0  0  0  0
 14 16  1  0  0  0  0
 14 17  1  0  0  0  0
 17 18  2  0  0  0  0
 17 19  1  0  0  0  0
 19 20  1  0  0  0  0
 21 22  2  0  0  0  0
 21 23  1  0  0  0  0
 23 24  1  0  0  0  0
 23 25  1  0  0  0  0
 25 26  1  0  0  0  0
 25 27  1  0  0  0  0
 25 28  1  0  0  0  0
M  END
$$$$

  -OEChem-02102214123D

 28 27  0     1  0  0  0  0  0999 V2000
   -3.0828   -3.8276    1.2985 H   0  0  0  0  0  0  0  0  0  0  0  0
   -3.0963   -2.8387    0.8316 C   0  0  0  0  0  0  0  0  0  0  0  0
   -3.7556   -2.1858    1.4088 H   0  0  0  0  0  0  0  0  0  0  0  0
   -3.4877   -2.9343   -0.1841 H   0  0  0  0  0  0  0  0  0  0  0  0
   -1.6948   -2.2592    0.7934 C   0  0  0  0  0  0  0  0  0  0  0  0
   -0.7564   -2.8968    1.2438 O   0  0  0  0  0  0  0  0  0  0  0  0
   -1.4851   -1.0084    0.2516 N   0  0  0  0  0  0  0  0  0  0  0  0
   -2.3069   -0.4746   -0.0279 H   0  0  0  0  0  0  0  0  0  0  0  0
   -0.1974   -0.3000    0.2453 C   0  0  1  0  0  0  0  0  0  0  0  0
    0.4758   -0.7670    0.9720 H   0  0  0  0  0  0  0  0  0  0  0  0
    0.4143   -0.4205   -1.1607 C   0  0  0  0  0  0  0  0  0  0  0  0
    0.3038   -1.4626   -1.4825 H   0  0  0  0  0  0  0  0  0  0  0  0
   -0.1423    0.1979   -1.8740 H   0  0  0  0  0  0  0  0  0  0  0  0
    1.9120   -0.0395   -1.1879 C   0  0  0  0  0  0  0  0  0  0  0  0
    2.0292    0.9622   -1.6109 H   0  0  0  0  0  0  0  0  0  0  0  0
    2.3142   -0.0133   -0.1716 H   0  0  0  0  0  0  0  0  0  0  0  0
    2.7623   -1.0218   -1.9898 C   0  0  0  0  0  0  0  0  0  0  0  0
    2.4051   -1.3308   -3.1140 O   0  0  0  0  0  0  0  0  0  0  0  0
    3.8846   -1.4989   -1.4042 O   0  0  0  0  0  0  0  0  0  0  0  0
    4.2807   -2.1068   -2.0472 H   0  0  0  0  0  0  0  0  0  0  0  0
   -0.3696    1.1769    0.6531 C   0  0  0  0  0  0  0  0  0  0  0  0
   -1.3136    1.8235    0.2142 O   0  0  0  0  0  0  0  0  0  0  0  0
    0.4977    1.7664    1.5541 N   0  0  0  0  0  0  0  0  0  0  0  0
    1.2239    1.1829    1.9600 H   0  0  0  0  0  0  0  0  0  0  0  0
    0.3438    3.1358    2.0301 C   0  0  0  0  0  0  0  0  0  0  0  0
   -0.6028    3.2493    2.5690 H   0  0  0  0  0  0  0  0  0  0  0  0
    1.1623    3.3954    2.7083 H   0  0  0  0  0  0  0  0  0  0  0  0
    0.3569    3.8379    1.1896 H   0  0  0  0  0  0  0  0  0  0  0  0
  1  2  1  0  0  0  0
  2  3  1  0  0  0  0
  2  4  1  0  0  0  0
  2  5  1  0  0  0  0
  5  6  2  0  0  0  0
  5  7  1  0  0  0  0
  7  8  1  0  0  0  0
  7  9  1  0  0  0  0
  9 10  1  0  0  0  0
  9 11  1  0  0  0  0
  9 21  1  0  0  0  0
 11 12  1  0  0  0  0
 11 13  1  0  0  0  0
 11 14  1  0  0  0  0
 14 15  1  0  0  0  0
 14 16  1  0  0  0  0
 14 17  1  0  0  0  0
 17 18  2  0  0  0  0
 17 19  1  0  0  0  0
 19 20  1  0  0  0  0
 21 22  2  0  0  0  0
 21 23  1  0  0  0  0
 23 24  1  0  0  0  0
 23 25  1  0  0  0  0
 25 26  1  0  0  0  0
 25 27  1  0  0  0  0
 25 28  1  0  0  0  0
M  END
$$$$

  -OEChem-02102214123D

 28 27  0     1  0  0  0  0  0999 V2000
   -3.1234   -3.8182    1.2809 H   0  0  0  0  0  0  0  0  0  0  0  0
   -3.1277   -2.8299    0.8127 C   0  0  0  0  0  0  0  0  0  0  0  0
   -3.7926   -2.1743    1.3801 H   0  0  0  0  0  0  0  0  0  0  0  0
   -3.5054   -2.9258   -0.2082 H   0  0  0  0  0  0  0  0  0  0  0  0
   -1.7241   -2.2546    0.7933 C   0  0  0  0  0  0  0  0  0  0  0  0
   -0.7947   -2.8938    1.2601 O   0  0  0  0  0  0  0  0  0  0  0  0
   -1.5020   -1.0058    0.2521 N   0  0  0  0  0  0  0  0  0  0  0  0
   -2.3167   -0.4704   -0.0444 H   0  0  0  0  0  0  0  0  0  0  0  0
   -0.2094   -0.3068    0.2534 C   0  0  1  0  0  0  0  0  0  0  0  0
    0.4562   -0.7775    0.9841 H   0  0  0  0  0  0  0  0  0  0  0  0
    0.4077   -0.4311   -1.1494 C   0  0  0  0  0  0  0  0  0  0  0  0
    0.3003   -1.4754   -1.4652 H   0  0  0  0  0  0  0  0  0  0  0  0
   -0.1406    0.1862   -1.8698 H   0  0  0  0  0  0  0  0  0  0  0  0
    1.9069   -0.0606   -1.1632 C   0  0  0  0  0  0  0  0  0  0  0  0
    2.0218    1.0165   -1.3130 H   0  0  0  0  0  0  0  0  0  0  0  0
    2.3551   -0.3111   -0.1977 H   0  0  0  0  0  0  0  0  0  0  0  0
    2.7094   -0.8040   -2.2311 C   0  0  0  0  0  0  0  0  0  0  0  0
    2.1733   -1.1063   -3.2842 O   0  0  0  0  0  0  0  0  0  0  0  0
    4.0039   -1.0769   -1.9489 O   0  0  0  0  0  0  0  0  0  0  0  0
    4.3504   -1.5419   -2.7260 H   0  0  0  0  0  0  0  0  0  0  0  0
   -0.3727    1.1716    0.6592 C   0  0  0  0  0  0  0  0  0  0  0  0
   -1.3083    1.8256    0.2135 O   0  0  0  0  0  0  0  0  0  0  0  0
    0.4938    1.7552    1.5650 N   0  0  0  0  0  0  0  0  0  0  0  0
    1.2156    1.1678    1.9728 H   0  0  0  0  0  0  0  0  0  0  0  0
    0.3516    3.1281    2.0346 C   0  0  0  0  0  0  0  0  0  0  0  0
   -0.6059    3.2597    2.5498 H   0  0  0  0  0  0  0  0  0  0  0  0
    1.1572    3.3751    2.7328 H   0  0  0  0  0  0  0  0  0  0  0  0
    0.3980    3.8278    1.1933 H   0  0  0  0  0  0  0  0  0  0  0  0
  1  2  1  0  0  0  0
  2  3  1  0  0  0  0
  2  4  1  0  0  0  0
  2  5  1  0  0  0  0
  5  6  2  0  0  0  0
  5  7  1  0  0  0  0
  7  8  1  0  0  0  0
  7  9  1  0  0  0  0
  9 10  1  0  0  0  0
  9 11  1  0  0  0  0
  9 21  1  0  0  0  0
 11 12  1  0  0  0  0
 11 13  1  0  0  0  0
 11 14  1  0  0  0  0
 14 15  1  0  0  0  0
 14 16  1  0  0  0  0
 14 17  1  0  0  0  0
 17 18  2  0  0  0  0
 17 19  1  0  0  0  0
 19 20  1  0  0  0  0
 21 22  2  0  0  0  0
 21 23  1  0  0  0  0
 23 24  1  0  0  0  0
 23 25  1  0  0  0  0
 25 26  1  0  0  0  0
 25 27  1  0  0  0  0
 25 28  1  0  0  0  0
M  END
$$$$

  -OEChem-02102214123D

 28 27  0     1  0  0  0  0  0999 V2000
   -3.1533   -3.8006    1.2843 H   0  0  0  0  0  0  0  0  0  0  0  0
   -3.1495   -2.8138    0.8130 C   0  0  0  0  0  0  0  0  0  0  0  0
   -3.8043   -2.1490    1.3816 H   0  0  0  0  0  0  0  0  0  0  0  0
   -3.5329   -2.9080   -0.2059 H   0  0  0  0  0  0  0  0  0  0  0  0
   -1.7407   -2.2531    0.7853 C   0  0  0  0  0  0  0  0  0  0  0  0
   -0.8138   -2.9014    1.2447 O   0  0  0  0  0  0  0  0  0  0  0  0
   -1.5123   -1.0052    0.2452 N   0  0  0  0  0  0  0  0  0  0  0  0
   -2.3252   -0.4613   -0.0409 H   0  0  0  0  0  0  0  0  0  0  0  0
   -0.2162   -0.3139    0.2495 C   0  0  1  0  0  0  0  0  0  0  0  0
    0.4453   -0.7869    0.9826 H   0  0  0  0  0  0  0  0  0  0  0  0
    0.4063   -0.4435   -1.1499 C   0  0  0  0  0  0  0  0  0  0  0  0
    0.2991   -1.4843   -1.4768 H   0  0  0  0  0  0  0  0  0  0  0  0
   -0.1345    0.1848   -1.8667 H   0  0  0  0  0  0  0  0  0  0  0  0
    1.9052   -0.0799   -1.1469 C   0  0  0  0  0  0  0  0  0  0  0  0
    2.0240    1.0015   -1.0380 H   0  0  0  0  0  0  0  0  0  0  0  0
    2.3915   -0.5598   -0.2928 H   0  0  0  0  0  0  0  0  0  0  0  0
    2.6507   -0.5284   -2.4043 C   0  0  0  0  0  0  0  0  0  0  0  0
    2.0284   -0.8029   -3.4168 O   0  0  0  0  0  0  0  0  0  0  0  0
    3.9995   -0.5855   -2.3216 O   0  0  0  0  0  0  0  0  0  0  0  0
    4.3046   -0.8816   -3.1929 H   0  0  0  0  0  0  0  0  0  0  0  0
   -0.3752    1.1646    0.6565 C   0  0  0  0  0  0  0  0  0  0  0  0
   -1.3103    1.8214    0.2140 O   0  0  0  0  0  0  0  0  0  0  0  0
    0.4916    1.7432    1.5650 N   0  0  0  0  0  0  0  0  0  0  0  0
    1.2185    1.1557    1.9634 H   0  0  0  0  0  0  0  0  0  0  0  0
    0.3547    3.1162    2.0355 C   0  0  0  0  0  0  0  0  0  0  0  0
   -0.5999    3.2494    2.5554 H   0  0  0  0  0  0  0  0  0  0  0  0
    1.1641    3.3614    2.7299 H   0  0  0  0  0  0  0  0  0  0  0  0
    0.3980    3.8160    1.1941 H   0  0  0  0  0  0  0  0  0  0  0  0
  1  2  1  0  0  0  0
  2  3  1  0  0  0  0
  2  4  1  0  0  0  0
  2  5  1  0  0  0  0
  5  6  2  0  0  0  0
  5  7  1  0  0  0  0
  7  8  1  0  0  0  0
  7  9  1  0  0  0  0
  9 10  1  0  0  0  0
  9 11  1  0  0  0  0
  9 21  1  0  0  0  0
 11 12  1  0  0  0  0
 11 13  1  0  0  0  0
 11 14  1  0  0  0  0
 14 15  1  0  0  0  0
 14 16  1  0  0  0  0
 14 17  1  0  0  0  0
 17 18  2  0  0  0  0
 17 19  1  0  0  0  0
 19 20  1  0  0  0  0
 21 22  2  0  0  0  0
 21 23  1  0  0  0  0
 23 24  1  0  0  0  0
 23 25  1  0  0  0  0
 25 26  1  0  0  0  0
 25 27  1  0  0  0  0
 25 28  1  0  0  0  0
M  END
$$$$

  -OEChem-02102214123D

 28 27  0     1  0  0  0  0  0999 V2000
   -3.1917   -3.7853    1.2966 H   0  0  0  0  0  0  0  0  0  0  0  0
   -3.1809   -2.8079    0.8063 C   0  0  0  0  0  0  0  0  0  0  0  0
   -3.8406   -2.1318    1.3554 H   0  0  0  0  0  0  0  0  0  0  0  0
   -3.5541   -2.9218   -0.2144 H   0  0  0  0  0  0  0  0  0  0  0  0
   -1.7701   -2.2509    0.7827 C   0  0  0  0  0  0  0  0  0  0  0  0
   -0.8476   -2.9025    1.2463 O   0  0  0  0  0  0  0  0  0  0  0  0
   -1.5343   -1.0029    0.2450 N   0  0  0  0  0  0  0  0  0  0  0  0
   -2.3425   -0.4595   -0.0545 H   0  0  0  0  0  0  0  0  0  0  0  0
   -0.2336   -0.3187    0.2473 C   0  0  1  0  0  0  0  0  0  0  0  0
    0.4186   -0.7986    0.9846 H   0  0  0  0  0  0  0  0  0  0  0  0
    0.3997   -0.4545   -1.1492 C   0  0  0  0  0  0  0  0  0  0  0  0
    0.0753   -1.3986   -1.6019 H   0  0  0  0  0  0  0  0  0  0  0  0
    0.0518    0.3563   -1.7999 H   0  0  0  0  0  0  0  0  0  0  0  0
    1.9392   -0.4617   -1.0707 C   0  0  0  0  0  0  0  0  0  0  0  0
    2.2849    0.4661   -0.6067 H   0  0  0  0  0  0  0  0  0  0  0  0
    2.2671   -1.2953   -0.4430 H   0  0  0  0  0  0  0  0  0  0  0  0
    2.6310   -0.5942   -2.4283 C   0  0  0  0  0  0  0  0  0  0  0  0
    1.9714   -0.7659   -3.4401 O   0  0  0  0  0  0  0  0  0  0  0  0
    3.9805   -0.5040   -2.4272 O   0  0  0  0  0  0  0  0  0  0  0  0
    4.2519   -0.6077   -3.3521 H   0  0  0  0  0  0  0  0  0  0  0  0
   -0.3705    1.1612    0.6567 C   0  0  0  0  0  0  0  0  0  0  0  0
   -1.2955    1.8332    0.2161 O   0  0  0  0  0  0  0  0  0  0  0  0
    0.5092    1.7254    1.5619 N   0  0  0  0  0  0  0  0  0  0  0  0
    1.2238    1.1243    1.9624 H   0  0  0  0  0  0  0  0  0  0  0  0
    0.4015    3.1026    2.0278 C   0  0  0  0  0  0  0  0  0  0  0  0
   -0.5612    3.2658    2.5238 H   0  0  0  0  0  0  0  0  0  0  0  0
    1.2002    3.3242    2.7422 H   0  0  0  0  0  0  0  0  0  0  0  0
    0.4869    3.7987    1.1867 H   0  0  0  0  0  0  0  0  0  0  0  0
  1  2  1  0  0  0  0
  2  3  1  0  0  0  0
  2  4  1  0  0  0  0
  2  5  1  0  0  0  0
  5  6  2  0  0  0  0
  5  7  1  0  0  0  0
  7  8  1  0  0  0  0
  7  9  1  0  0  0  0
  9 10  1  0  0  0  0
  9 11  1  0  0  0  0
  9 21  1  0  0  0  0
 11 12  1  0  0  0  0
 11 13  1  0  0  0  0
 11 14  1  0  0  0  0
 14 15  1  0  0  0  0
 14 16  1  0  0  0  0
 14 17  1  0  0  0  0
 17 18  2  0  0  0  0
 17 19  1  0  0  0  0
 19 20  1  0  0  0  0
 21 22  2  0  0  0  0
 21 23  1  0  0  0  0
 23 24  1  0  0  0  0
 23 25  1  0  0  0  0
 25 26  1  0  0  0  0
 25 27  1  0  0  0  0
 25 28  1  0  0  0  0
M  END
$$$$

  -OEChem-02102214123D

 28 27  0     1  0  0  0  0  0999 V2000
   -3.2160   -3.7700    1.2747 H   0  0  0  0  0  0  0  0  0  0  0  0
   -3.1963   -2.7821    0.8061 C   0  0  0  0  0  0  0  0  0  0  0  0
   -3.8391   -2.1084    1.3778 H   0  0  0  0  0  0  0  0  0  0  0  0
   -3.5837   -2.8676   -0.2120 H   0  0  0  0  0  0  0  0  0  0  0  0
   -1.7780   -2.2444    0.7773 C   0  0  0  0  0  0  0  0  0  0  0  0
   -0.8618   -2.9077    1.2367 O   0  0  0  0  0  0  0  0  0  0  0  0
   -1.5289   -0.9996    0.2387 N   0  0  0  0  0  0  0  0  0  0  0  0
   -2.3321   -0.4461   -0.0559 H   0  0  0  0  0  0  0  0  0  0  0  0
   -0.2228   -0.3257    0.2457 C   0  0  1  0  0  0  0  0  0  0  0  0
    0.4243   -0.8090    0.9853 H   0  0  0  0  0  0  0  0  0  0  0  0
    0.4129   -0.4734   -1.1488 C   0  0  0  0  0  0  0  0  0  0  0  0
    0.0800   -1.4075   -1.6152 H   0  0  0  0  0  0  0  0  0  0  0  0
    0.0728    0.3491   -1.7892 H   0  0  0  0  0  0  0  0  0  0  0  0
    1.9526   -0.4944   -1.0710 C   0  0  0  0  0  0  0  0  0  0  0  0
    2.2928    0.3012   -0.4029 H   0  0  0  0  0  0  0  0  0  0  0  0
    2.2874   -1.4484   -0.6537 H   0  0  0  0  0  0  0  0  0  0  0  0
    2.6381   -0.2771   -2.4204 C   0  0  0  0  0  0  0  0  0  0  0  0
    2.0219   -0.4750   -3.4545 O   0  0  0  0  0  0  0  0  0  0  0  0
    3.9280    0.1290   -2.3892 O   0  0  0  0  0  0  0  0  0  0  0  0
    4.2003    0.2104   -3.3161 H   0  0  0  0  0  0  0  0  0  0  0  0
   -0.3571    1.1561    0.6525 C   0  0  0  0  0  0  0  0  0  0  0  0
   -1.2816    1.8269    0.2088 O   0  0  0  0  0  0  0  0  0  0  0  0
    0.5170    1.7227    1.5619 N   0  0  0  0  0  0  0  0  0  0  0  0
    1.2279    1.1225    1.9699 H   0  0  0  0  0  0  0  0  0  0  0  0
    0.3977    3.0977    2.0327 C   0  0  0  0  0  0  0  0  0  0  0  0
   -0.5517    3.2414    2.5592 H   0  0  0  0  0  0  0  0  0  0  0  0
    1.2147    3.3350    2.7208 H   0  0  0  0  0  0  0  0  0  0  0  0
    0.4426    3.7969    1.1910 H   0  0  0  0  0  0  0  0  0  0  0  0
  1  2  1  0  0  0  0
  2  3  1  0  0  0  0
  2  4  1  0  0  0  0
  2  5  1  0  0  0  0
  5  6  2  0  0  0  0
  5  7  1  0  0  0  0
  7  8  1  0  0  0  0
  7  9  1  0  0  0  0
  9 10  1  0  0  0  0
  9 11  1  0  0  0  0
  9 21  1  0  0  0  0
 11 12  1  0  0  0  0
 11 13  1  0  0  0  0
 11 14  1  0  0  0  0
 14 15  1  0  0  0  0
 14 16  1  0  0  0  0
 14 17  1  0  0  0  0
 17 18  2  0  0  0  0
 17 19  1  0  0  0  0
 19 20  1  0  0  0  0
 21 22  2  0  0  0  0
 21 23  1  0  0  0  0
 23 24  1  0  0  0  0
 23 25  1  0  0  0  0
 25 26  1  0  0  0  0
 25 27  1  0  0  0  0
 25 28  1  0  0  0  0
M  END
$$$$

  -OEChem-02102214123D

 28 27  0     1  0  0  0  0  0999 V2000
   -3.2363   -3.7600    1.2458 H   0  0  0  0  0  0  0  0  0  0  0  0
   -3.2091   -2.7643    0.7944 C   0  0  0  0  0  0  0  0  0  0  0  0
   -3.8501   -2.0964    1.3748 H   0  0  0  0  0  0  0  0  0  0  0  0
   -3.5924   -2.8304   -0.2268 H   0  0  0  0  0  0  0  0  0  0  0  0
   -1.7878   -2.2347    0.7798 C   0  0  0  0  0  0  0  0  0  0  0  0
   -0.8799   -2.9033    1.2480 O   0  0  0  0  0  0  0  0  0  0  0  0
   -1.5264   -0.9938    0.2380 N   0  0  0  0  0  0  0  0  0  0  0  0
   -2.3238   -0.4342   -0.0610 H   0  0  0  0  0  0  0  0  0  0  0  0
   -0.2148   -0.3312    0.2475 C   0  0  1  0  0  0  0  0  0  0  0  0
    0.4245   -0.8188    0.9909 H   0  0  0  0  0  0  0  0  0  0  0  0
    0.4232   -0.4916   -1.1449 C   0  0  0  0  0  0  0  0  0  0  0  0
    0.0818   -1.4210   -1.6145 H   0  0  0  0  0  0  0  0  0  0  0  0
    0.0871    0.3341   -1.7835 H   0  0  0  0  0  0  0  0  0  0  0  0
    1.9639   -0.5269   -1.0704 C   0  0  0  0  0  0  0  0  0  0  0  0
    2.3062    0.0787   -0.2270 H   0  0  0  0  0  0  0  0  0  0  0  0
    2.3048   -1.5521   -0.9003 H   0  0  0  0  0  0  0  0  0  0  0  0
    2.6341    0.0295   -2.3253 C   0  0  0  0  0  0  0  0  0  0  0  0
    2.1573   -0.2267   -3.4182 O   0  0  0  0  0  0  0  0  0  0  0  0
    3.7419    0.7867   -2.1535 O   0  0  0  0  0  0  0  0  0  0  0  0
    4.0248    1.0442   -3.0445 H   0  0  0  0  0  0  0  0  0  0  0  0
   -0.3369    1.1529    0.6488 C   0  0  0  0  0  0  0  0  0  0  0  0
   -1.2556    1.8295    0.2019 O   0  0  0  0  0  0  0  0  0  0  0  0
    0.5391    1.7146    1.5592 N   0  0  0  0  0  0  0  0  0  0  0  0
    1.2464    1.1111    1.9685 H   0  0  0  0  0  0  0  0  0  0  0  0
    0.4263    3.0899    2.0298 C   0  0  0  0  0  0  0  0  0  0  0  0
   -0.5185    3.2350    2.5643 H   0  0  0  0  0  0  0  0  0  0  0  0
    1.2496    3.3269    2.7106 H   0  0  0  0  0  0  0  0  0  0  0  0
    0.4649    3.7878    1.1866 H   0  0  0  0  0  0  0  0  0  0  0  0
  1  2  1  0  0  0  0
  2  3  1  0  0  0  0
  2  4  1  0  0  0  0
  2  5  1  0  0  0  0
  5  6  2  0  0  0  0
  5  7  1  0  0  0  0
  7  8  1  0  0  0  0
  7  9  1  0  0  0  0
  9 10  1  0  0  0  0
  9 11  1  0  0  0  0
  9 21  1  0  0  0  0
 11 12  1  0  0  0  0
 11 13  1  0  0  0  0
 11 14  1  0  0  0  0
 14 15  1  0  0  0  0
 14 16  1  0  0  0  0
 14 17  1  0  0  0  0
 17 18  2  0  0  0  0
 17 19  1  0  0  0  0
 19 20  1  0  0  0  0
 21 22  2  0  0  0  0
 21 23  1  0  0  0  0
 23 24  1  0  0  0  0
 23 25  1  0  0  0  0
 25 26  1  0  0  0  0
 25 27  1  0  0  0  0
 25 28  1  0  0  0  0
M  END
$$$$

  -OEChem-02102214123D

 28 27  0     1  0  0  0  0  0999 V2000
   -3.2606   -3.7408    1.2396 H   0  0  0  0  0  0  0  0  0  0  0  0
   -3.2248   -2.7403    0.7995 C   0  0  0  0  0  0  0  0  0  0  0  0
   -3.8468   -2.0696    1.3971 H   0  0  0  0  0  0  0  0  0  0  0  0
   -3.6244   -2.7885   -0.2164 H   0  0  0  0  0  0  0  0  0  0  0  0
   -1.7959   -2.2316    0.7700 C   0  0  0  0  0  0  0  0  0  0  0  0
   -0.8930   -2.9145    1.2271 O   0  0  0  0  0  0  0  0  0  0  0  0
   -1.5223   -0.9931    0.2287 N   0  0  0  0  0  0  0  0  0  0  0  0
   -2.3160   -0.4197   -0.0537 H   0  0  0  0  0  0  0  0  0  0  0  0
   -0.2044   -0.3424    0.2393 C   0  0  1  0  0  0  0  0  0  0  0  0
    0.4255   -0.8371    0.9860 H   0  0  0  0  0  0  0  0  0  0  0  0
    0.4390   -0.5032   -1.1506 C   0  0  0  0  0  0  0  0  0  0  0  0
    0.0937   -1.4337   -1.6144 H   0  0  0  0  0  0  0  0  0  0  0  0
    0.1034    0.3174   -1.7962 H   0  0  0  0  0  0  0  0  0  0  0  0
    1.9807   -0.5512   -1.0780 C   0  0  0  0  0  0  0  0  0  0  0  0
    2.3306   -0.2013   -0.1032 H   0  0  0  0  0  0  0  0  0  0  0  0
    2.3255   -1.5826   -1.1957 H   0  0  0  0  0  0  0  0  0  0  0  0
    2.6325    0.3229   -2.1445 C   0  0  0  0  0  0  0  0  0  0  0  0
    2.4202    0.0690   -3.3177 O   0  0  0  0  0  0  0  0  0  0  0  0
    3.4070    1.3517   -1.7288 O   0  0  0  0  0  0  0  0  0  0  0  0
    3.7165    1.7902   -2.5365 H   0  0  0  0  0  0  0  0  0  0  0  0
   -0.3118    1.1430    0.6406 C   0  0  0  0  0  0  0  0  0  0  0  0
   -1.2310    1.8246    0.2020 O   0  0  0  0  0  0  0  0  0  0  0  0
    0.5694    1.6959    1.5511 N   0  0  0  0  0  0  0  0  0  0  0  0
    1.2894    1.0928    1.9384 H   0  0  0  0  0  0  0  0  0  0  0  0
    0.4718    3.0724    2.0222 C   0  0  0  0  0  0  0  0  0  0  0  0
   -0.4637    3.2234    2.5713 H   0  0  0  0  0  0  0  0  0  0  0  0
    1.3070    3.3045    2.6901 H   0  0  0  0  0  0  0  0  0  0  0  0
    0.5014    3.7702    1.1786 H   0  0  0  0  0  0  0  0  0  0  0  0
  1  2  1  0  0  0  0
  2  3  1  0  0  0  0
  2  4  1  0  0  0  0
  2  5  1  0  0  0  0
  5  6  2  0  0  0  0
  5  7  1  0  0  0  0
  7  8  1  0  0  0  0
  7  9  1  0  0  0  0
  9 10  1  0  0  0  0
  9 11  1  0  0  0  0
  9 21  1  0  0  0  0
 11 12  1  0  0  0  0
 11 13  1  0  0  0  0
 11 14  1  0  0  0  0
 14 15  1  0  0  0  0
 14 16  1  0  0  0  0
 14 17  1  0  0  0  0
 17 18  2  0  0  0  0
 17 19  1  0  0  0  0
 19 20  1  0  0  0  0
 21 22  2  0  0  0  0
 21 23  1  0  0  0  0
 23 24  1  0  0  0  0
 23 25  1  0  0  0  0
 25 26  1  0  0  0  0
 25 27  1  0  0  0  0
 25 28  1  0  0  0  0
M  END
$$$$

  -OEChem-02102214123D

 28 27  0     1  0  0  0  0  0999 V2000
   -3.2715   -3.7451    1.2331 H   0  0  0  0  0  0  0  0  0  0  0  0
   -3.2329   -2.7403    0.8034 C   0  0  0  0  0  0  0  0  0  0  0  0
   -3.8363   -2.0699    1.4202 H   0  0  0  0  0  0  0  0  0  0  0  0
   -3.6521   -2.7724   -0.2051 H   0  0  0  0  0  0  0  0  0  0  0  0
   -1.7990   -2.2479    0.7531 C   0  0  0  0  0  0  0  0  0  0  0  0
   -0.8951   -2.9508    1.1765 O   0  0  0  0  0  0  0  0  0  0  0  0
   -1.5218   -1.0029    0.2285 N   0  0  0  0  0  0  0  0  0  0  0  0
   -2.3152   -0.4147   -0.0225 H   0  0  0  0  0  0  0  0  0  0  0  0
   -0.1999   -0.3601    0.2420 C   0  0  1  0  0  0  0  0  0  0  0  0
    0.4266   -0.8704    0.9806 H   0  0  0  0  0  0  0  0  0  0  0  0
    0.4396   -0.4915   -1.1525 C   0  0  0  0  0  0  0  0  0  0  0  0
    0.0935   -1.4226   -1.6146 H   0  0  0  0  0  0  0  0  0  0  0  0
    0.0973    0.3267   -1.7976 H   0  0  0  0  0  0  0  0  0  0  0  0
    1.9811   -0.5476   -1.0891 C   0  0  0  0  0  0  0  0  0  0  0  0
    2.3423   -0.5084   -0.0584 H   0  0  0  0  0  0  0  0  0  0  0  0
    2.3285   -1.4934   -1.5160 H   0  0  0  0  0  0  0  0  0  0  0  0
    2.6080    0.6032   -1.8652 C   0  0  0  0  0  0  0  0  0  0  0  0
    2.8556    0.4491   -3.0480 O   0  0  0  0  0  0  0  0  0  0  0  0
    2.8381    1.7545   -1.1927 O   0  0  0  0  0  0  0  0  0  0  0  0
    3.2059    2.3708   -1.8450 H   0  0  0  0  0  0  0  0  0  0  0  0
   -0.2928    1.1197    0.6653 C   0  0  0  0  0  0  0  0  0  0  0  0
   -1.2105    1.8132    0.2417 O   0  0  0  0  0  0  0  0  0  0  0  0
    0.5981    1.6524    1.5780 N   0  0  0  0  0  0  0  0  0  0  0  0
    1.3731    1.0666    1.8745 H   0  0  0  0  0  0  0  0  0  0  0  0
    0.5830    3.0534    1.9794 C   0  0  0  0  0  0  0  0  0  0  0  0
   -0.3752    3.3094    2.4438 H   0  0  0  0  0  0  0  0  0  0  0  0
    1.3800    3.2481    2.7037 H   0  0  0  0  0  0  0  0  0  0  0  0
    0.7385    3.7016    1.1104 H   0  0  0  0  0  0  0  0  0  0  0  0
  1  2  1  0  0  0  0
  2  3  1  0  0  0  0
  2  4  1  0  0  0  0
  2  5  1  0  0  0  0
  5  6  2  0  0  0  0
  5  7  1  0  0  0  0
  7  8  1  0  0  0  0
  7  9  1  0  0  0  0
  9 10  1  0  0  0  0
  9 11  1  0  0  0  0
  9 21  1  0  0  0  0
 11 12  1  0  0  0  0
 11 13  1  0  0  0  0
 11 14  1  0  0  0  0
 14 15  1  0  0  0  0
 14 16  1  0  0  0  0
 14 17  1  0  0  0  0
 17 18  2  0  0  0  0
 17 19  1  0  0  0  0
 19 20  1  0  0  0  0
 21 22  2  0  0  0  0
 21 23  1  0  0  0  0
 23 24  1  0  0  0  0
 23 25  1  0  0  0  0
 25 26  1  0  0  0  0
 25 27  1  0  0  0  0
 25 28  1  0  0  0  0
M  END
$$$$

  -OEChem-02102214123D

 28 27  0     1  0  0  0  0  0999 V2000
   -3.2476   -3.7923    1.1039 H   0  0  0  0  0  0  0  0  0  0  0  0
   -3.2056   -2.7851    0.6800 C   0  0  0  0  0  0  0  0  0  0  0  0
   -3.8614   -2.1311    1.2595 H   0  0  0  0  0  0  0  0  0  0  0  0
   -3.5603   -2.8230   -0.3526 H   0  0  0  0  0  0  0  0  0  0  0  0
   -1.7831   -2.2596    0.7203 C   0  0  0  0  0  0  0  0  0  0  0  0
   -0.8976   -2.9300    1.2270 O   0  0  0  0  0  0  0  0  0  0  0  0
   -1.4947   -1.0232    0.1817 N   0  0  0  0  0  0  0  0  0  0  0  0
   -2.2812   -0.4586   -0.1368 H   0  0  0  0  0  0  0  0  0  0  0  0
   -0.1982   -0.3399    0.2981 C   0  0  1  0  0  0  0  0  0  0  0  0
    0.3674   -0.8036    1.1126 H   0  0  0  0  0  0  0  0  0  0  0  0
    0.5794   -0.4859   -1.0231 C   0  0  0  0  0  0  0  0  0  0  0  0
    0.3115   -1.4491   -1.4711 H   0  0  0  0  0  0  0  0  0  0  0  0
    0.2784    0.2899   -1.7371 H   0  0  0  0  0  0  0  0  0  0  0  0
    2.1068   -0.4913   -0.8057 C   0  0  0  0  0  0  0  0  0  0  0  0
    2.3703   -0.7245    0.2296 H   0  0  0  0  0  0  0  0  0  0  0  0
    2.5480   -1.2739   -1.4297 H   0  0  0  0  0  0  0  0  0  0  0  0
    2.7358    0.8329   -1.2192 C   0  0  0  0  0  0  0  0  0  0  0  0
    2.9904    1.6400   -0.3410 O   0  0  0  0  0  0  0  0  0  0  0  0
    2.9653    1.0533   -2.5339 O   0  0  0  0  0  0  0  0  0  0  0  0
    3.3477    1.9421   -2.5939 H   0  0  0  0  0  0  0  0  0  0  0  0
   -0.3813    1.1480    0.6610 C   0  0  0  0  0  0  0  0  0  0  0  0
   -1.2873    1.7871    0.1373 O   0  0  0  0  0  0  0  0  0  0  0  0
    0.3981    1.7416    1.6355 N   0  0  0  0  0  0  0  0  0  0  0  0
    1.2198    1.2276    1.9416 H   0  0  0  0  0  0  0  0  0  0  0  0
    0.3212    3.1636    1.9457 C   0  0  0  0  0  0  0  0  0  0  0  0
   -0.6932    3.4352    2.2564 H   0  0  0  0  0  0  0  0  0  0  0  0
    1.0083    3.4092    2.7611 H   0  0  0  0  0  0  0  0  0  0  0  0
    0.5943    3.7612    1.0696 H   0  0  0  0  0  0  0  0  0  0  0  0
  1  2  1  0  0  0  0
  2  3  1  0  0  0  0
  2  4  1  0  0  0  0
  2  5  1  0  0  0  0
  5  6  2  0  0  0  0
  5  7  1  0  0  0  0
  7  8  1  0  0  0  0
  7  9  1  0  0  0  0
  9 10  1  0  0  0  0
  9 11  1  0  0  0  0
  9 21  1  0  0  0  0
 11 12  1  0  0  0  0
 11 13  1  0  0  0  0
 11 14  1  0  0  0  0
 14 15  1  0  0  0  0
 14 16  1  0  0  0  0
 14 17  1  0  0  0  0
 17 18  2  0  0  0  0
 17 19  1  0  0  0  0
 19 20  1  0  0  0  0
 21 22  2  0  0  0  0
 21 23  1  0  0  0  0
 23 24  1  0  0  0  0
 23 25  1  0  0  0  0
 25 26  1  0  0  0  0
 25 27  1  0  0  0  0
 25 28  1  0  0  0  0
M  END
$$$$

  -OEChem-02102214123D

 28 27  0     1  0  0  0  0  0999 V2000
   -3.1759   -3.7824    1.3046 H   0  0  0  0  0  0  0  0  0  0  0  0
   -3.1694   -2.8040    0.8159 C   0  0  0  0  0  0  0  0  0  0  0  0
   -3.8041   -2.1214    1.3862 H   0  0  0  0  0  0  0  0  0  0  0  0
   -3.5754   -2.9108   -0.1929 H   0  0  0  0  0  0  0  0  0  0  0  0
   -1.7542   -2.2621    0.7487 C   0  0  0  0  0  0  0  0  0  0  0  0
   -0.8203   -2.9366    1.1534 O   0  0  0  0  0  0  0  0  0  0  0  0
   -1.5263   -1.0057    0.2284 N   0  0  0  0  0  0  0  0  0  0  0  0
   -2.3425   -0.4369    0.0051 H   0  0  0  0  0  0  0  0  0  0  0  0
   -0.2304   -0.3124    0.2525 C   0  0  1  0  0  0  0  0  0  0  0  0
    0.4131   -0.7908    0.9975 H   0  0  0  0  0  0  0  0  0  0  0  0
    0.4225   -0.4247   -1.1399 C   0  0  0  0  0  0  0  0  0  0  0  0
    0.1214   -1.3841   -1.5747 H   0  0  0  0  0  0  0  0  0  0  0  0
    0.0434    0.3554   -1.8099 H   0  0  0  0  0  0  0  0  0  0  0  0
    1.9690   -0.4258   -1.0800 C   0  0  0  0  0  0  0  0  0  0  0  0
    2.3148   -0.9423   -0.1805 H   0  0  0  0  0  0  0  0  0  0  0  0
    2.3369   -0.9993   -1.9355 H   0  0  0  0  0  0  0  0  0  0  0  0
    2.6402    0.9474   -1.1591 C   0  0  0  0  0  0  0  0  0  0  0  0
    1.9741    1.9495   -1.3501 O   0  0  0  0  0  0  0  0  0  0  0  0
    3.9811    0.9714   -0.9875 O   0  0  0  0  0  0  0  0  0  0  0  0
    4.2432    1.9003   -1.0804 H   0  0  0  0  0  0  0  0  0  0  0  0
   -0.4114    1.1582    0.6823 C   0  0  0  0  0  0  0  0  0  0  0  0
   -1.3918    1.7845    0.2945 O   0  0  0  0  0  0  0  0  0  0  0  0
    0.4393    1.7331    1.6084 N   0  0  0  0  0  0  0  0  0  0  0  0
    1.2469    1.1934    1.9034 H   0  0  0  0  0  0  0  0  0  0  0  0
    0.3363    3.1280    2.0181 C   0  0  0  0  0  0  0  0  0  0  0  0
   -0.6432    3.3255    2.4662 H   0  0  0  0  0  0  0  0  0  0  0  0
    1.1075    3.3638    2.7576 H   0  0  0  0  0  0  0  0  0  0  0  0
    0.4693    3.7896    1.1552 H   0  0  0  0  0  0  0  0  0  0  0  0
  1  2  1  0  0  0  0
  2  3  1  0  0  0  0
  2  4  1  0  0  0  0
  2  5  1  0  0  0  0
  5  6  2  0  0  0  0
  5  7  1  0  0  0  0
  7  8  1  0  0  0  0
  7  9  1  0  0  0  0
  9 10  1  0  0  0  0
  9 11  1  0  0  0  0
  9 21  1  0  0  0  0
 11 12  1  0  0  0  0
 11 13  1  0  0  0  0
 11 14  1  0  0  0  0
 14 15  1  0  0  0  0
 14 16  1  0  0  0  0
 14 17  1  0  0  0  0
 17 18  2  0  0  0  0
 17 19  1  0  0  0  0
 19 20  1  0  0  0  0
 21 22  2  0  0  0  0
 21 23  1  0  0  0  0
 23 24  1  0  0  0  0
 23 25  1  0  0  0  0
 25 26  1  0  0  0  0
 25 27  1  0  0  0  0
 25 28  1  0  0  0  0
M  END
$$$$

  -OEChem-02102214123D

 28 27  0     1  0  0  0  0  0999 V2000
   -3.1305   -3.7755    1.2971 H   0  0  0  0  0  0  0  0  0  0  0  0
   -3.1317   -2.7689    0.8700 C   0  0  0  0  0  0  0  0  0  0  0  0
   -3.7179   -2.1120    1.5172 H   0  0  0  0  0  0  0  0  0  0  0  0
   -3.5970   -2.8060   -0.1179 H   0  0  0  0  0  0  0  0  0  0  0  0
   -1.7117   -2.2486    0.7548 C   0  0  0  0  0  0  0  0  0  0  0  0
   -0.7741   -2.9396    1.1207 O   0  0  0  0  0  0  0  0  0  0  0  0
   -1.4842   -0.9911    0.2371 N   0  0  0  0  0  0  0  0  0  0  0  0
   -2.2998   -0.4099    0.0462 H   0  0  0  0  0  0  0  0  0  0  0  0
   -0.1782   -0.3168    0.2239 C   0  0  1  0  0  0  0  0  0  0  0  0
    0.4906   -0.8063    0.9399 H   0  0  0  0  0  0  0  0  0  0  0  0
    0.4164   -0.4349   -1.1947 C   0  0  0  0  0  0  0  0  0  0  0  0
    0.0729   -1.3758   -1.6382 H   0  0  0  0  0  0  0  0  0  0  0  0
    0.0441    0.3759   -1.8318 H   0  0  0  0  0  0  0  0  0  0  0  0
    1.9569   -0.4637   -1.2017 C   0  0  0  0  0  0  0  0  0  0  0  0
    2.3221   -1.1817   -0.4614 H   0  0  0  0  0  0  0  0  0  0  0  0
    2.2987   -0.8098   -2.1815 H   0  0  0  0  0  0  0  0  0  0  0  0
    2.5874    0.8997   -0.9443 C   0  0  0  0  0  0  0  0  0  0  0  0
    2.5614    1.7302   -1.8343 O   0  0  0  0  0  0  0  0  0  0  0  0
    3.1379    1.1240    0.2725 O   0  0  0  0  0  0  0  0  0  0  0  0
    3.5076    2.0202    0.2231 H   0  0  0  0  0  0  0  0  0  0  0  0
   -0.3426    1.1507    0.6739 C   0  0  0  0  0  0  0  0  0  0  0  0
   -1.3221    1.7901    0.3070 O   0  0  0  0  0  0  0  0  0  0  0  0
    0.5334    1.7180    1.5796 N   0  0  0  0  0  0  0  0  0  0  0  0
    1.3780    1.1935    1.7994 H   0  0  0  0  0  0  0  0  0  0  0  0
    0.4128    3.0915    2.0526 C   0  0  0  0  0  0  0  0  0  0  0  0
   -0.5521    3.2423    2.5483 H   0  0  0  0  0  0  0  0  0  0  0  0
    1.2071    3.3156    2.7712 H   0  0  0  0  0  0  0  0  0  0  0  0
    0.4929    3.7936    1.2159 H   0  0  0  0  0  0  0  0  0  0  0  0
  1  2  1  0  0  0  0
  2  3  1  0  0  0  0
  2  4  1  0  0  0  0
  2  5  1  0  0  0  0
  5  6  2  0  0  0  0
  5  7  1  0  0  0  0
  7  8  1  0  0  0  0
  7  9  1  0  0  0  0
  9 10  1  0  0  0  0
  9 11  1  0  0  0  0
  9 21  1  0  0  0  0
 11 12  1  0  0  0  0
 11 13  1  0  0  0  0
 11 14  1  0  0  0  0
 14 15  1  0  0  0  0
 14 16  1  0  0  0  0
 14 17  1  0  0  0  0
 17 18  2  0  0  0  0
 17 19  1  0  0  0  0
 19 20  1  0  0  0  0
 21 22  2  0  0  0  0
 21 23  1  0  0  0  0
 23 24  1  0  0  0  0
 23 25  1  0  0  0  0
 25 26  1  0  0  0  0
 25 27  1  0  0  0  0
 25 28  1  0  0  0  0
M  END
$$$$

  -OEChem-02102214123D

 28 27  0     1  0  0  0  0  0999 V2000
   -3.0920   -3.7875    1.3200 H   0  0  0  0  0  0  0  0  0  0  0  0
   -3.0996   -2.7950    0.8612 C   0  0  0  0  0  0  0  0  0  0  0  0
   -3.7102   -2.1283    1.4748 H   0  0  0  0  0  0  0  0  0  0  0  0
   -3.5427   -2.8702   -0.1347 H   0  0  0  0  0  0  0  0  0  0  0  0
   -1.6858   -2.2551    0.7590 C   0  0  0  0  0  0  0  0  0  0  0  0
   -0.7421   -2.9361    1.1276 O   0  0  0  0  0  0  0  0  0  0  0  0
   -1.4709   -0.9924    0.2487 N   0  0  0  0  0  0  0  0  0  0  0  0
   -2.2925   -0.4211    0.0534 H   0  0  0  0  0  0  0  0  0  0  0  0
   -0.1731   -0.3021    0.2447 C   0  0  1  0  0  0  0  0  0  0  0  0
    0.5058   -0.7868    0.9548 H   0  0  0  0  0  0  0  0  0  0  0  0
    0.4138   -0.4123   -1.1794 C   0  0  0  0  0  0  0  0  0  0  0  0
    0.0647   -1.3445   -1.6371 H   0  0  0  0  0  0  0  0  0  0  0  0
    0.0337    0.4111   -1.7951 H   0  0  0  0  0  0  0  0  0  0  0  0
    1.9544   -0.4294   -1.2278 C   0  0  0  0  0  0  0  0  0  0  0  0
    2.3193   -1.3053   -0.6832 H   0  0  0  0  0  0  0  0  0  0  0  0
    2.2759   -0.5373   -2.2679 H   0  0  0  0  0  0  0  0  0  0  0  0
    2.6199    0.8131   -0.6473 C   0  0  0  0  0  0  0  0  0  0  0  0
    2.6945    1.8071   -1.3464 O   0  0  0  0  0  0  0  0  0  0  0  0
    3.0975    0.7533    0.6189 O   0  0  0  0  0  0  0  0  0  0  0  0
    3.5403    1.6051    0.7636 H   0  0  0  0  0  0  0  0  0  0  0  0
   -0.3689    1.1596    0.7027 C   0  0  0  0  0  0  0  0  0  0  0  0
   -1.3449    1.7914    0.3144 O   0  0  0  0  0  0  0  0  0  0  0  0
    0.4902    1.7360    1.6182 N   0  0  0  0  0  0  0  0  0  0  0  0
    1.3092    1.1953    1.8892 H   0  0  0  0  0  0  0  0  0  0  0  0
    0.3614    3.1120    2.0813 C   0  0  0  0  0  0  0  0  0  0  0  0
   -0.6184    3.2708    2.5443 H   0  0  0  0  0  0  0  0  0  0  0  0
    1.1331    3.3349    2.8244 H   0  0  0  0  0  0  0  0  0  0  0  0
    0.4730    3.8096    1.2444 H   0  0  0  0  0  0  0  0  0  0  0  0
  1  2  1  0  0  0  0
  2  3  1  0  0  0  0
  2  4  1  0  0  0  0
  2  5  1  0  0  0  0
  5  6  2  0  0  0  0
  5  7  1  0  0  0  0
  7  8  1  0  0  0  0
  7  9  1  0  0  0  0
  9 10  1  0  0  0  0
  9 11  1  0  0  0  0
  9 21  1  0  0  0  0
 11 12  1  0  0  0  0
 11 13  1  0  0  0  0
 11 14  1  0  0  0  0
 14 15  1  0  0  0  0
 14 16  1  0  0  0  0
 14 17  1  0  0  0  0
 17 18  2  0  0  0  0
 17 19  1  0  0  0  0
 19 20  1  0  0  0  0
 21 22  2  0  0  0  0
 21 23  1  0  0  0  0
 23 24  1  0  0  0  0
 23 25  1  0  0  0  0
 25 26  1  0  0  0  0
 25 27  1  0  0  0  0
 25 28  1  0  0  0  0
M  END
$$$$

  -OEChem-02102214123D

 28 27  0     1  0  0  0  0  0999 V2000
   -3.0609   -3.8219    1.2885 H   0  0  0  0  0  0  0  0  0  0  0  0
   -3.0772   -2.8225    0.8450 C   0  0  0  0  0  0  0  0  0  0  0  0
   -3.7031   -2.1737    1.4623 H   0  0  0  0  0  0  0  0  0  0  0  0
   -3.5087   -2.8884   -0.1567 H   0  0  0  0  0  0  0  0  0  0  0  0
   -1.6698   -2.2625    0.7663 C   0  0  0  0  0  0  0  0  0  0  0  0
   -0.7230   -2.9304    1.1499 O   0  0  0  0  0  0  0  0  0  0  0  0
   -1.4651   -0.9974    0.2581 N   0  0  0  0  0  0  0  0  0  0  0  0
   -2.2916   -0.4383    0.0494 H   0  0  0  0  0  0  0  0  0  0  0  0
   -0.1762   -0.2900    0.2664 C   0  0  1  0  0  0  0  0  0  0  0  0
    0.5016   -0.7694    0.9805 H   0  0  0  0  0  0  0  0  0  0  0  0
    0.4202   -0.3963   -1.1547 C   0  0  0  0  0  0  0  0  0  0  0  0
    0.0712   -1.3230   -1.6234 H   0  0  0  0  0  0  0  0  0  0  0  0
    0.0331    0.4327   -1.7581 H   0  0  0  0  0  0  0  0  0  0  0  0
    1.9624   -0.3971   -1.2325 C   0  0  0  0  0  0  0  0  0  0  0  0
    2.3210   -1.3799   -0.9126 H   0  0  0  0  0  0  0  0  0  0  0  0
    2.2659   -0.2664   -2.2755 H   0  0  0  0  0  0  0  0  0  0  0  0
    2.6746    0.6473   -0.3776 C   0  0  0  0  0  0  0  0  0  0  0  0
    2.9404    1.7196   -0.8894 O   0  0  0  0  0  0  0  0  0  0  0  0
    2.9956    0.3332    0.9006 O   0  0  0  0  0  0  0  0  0  0  0  0
    3.5361    1.0742    1.2186 H   0  0  0  0  0  0  0  0  0  0  0  0
   -0.3930    1.1690    0.7215 C   0  0  0  0  0  0  0  0  0  0  0  0
   -1.3648    1.7948    0.3132 O   0  0  0  0  0  0  0  0  0  0  0  0
    0.4515    1.7536    1.6446 N   0  0  0  0  0  0  0  0  0  0  0  0
    1.2455    1.2012    1.9606 H   0  0  0  0  0  0  0  0  0  0  0  0
    0.3098    3.1299    2.1027 C   0  0  0  0  0  0  0  0  0  0  0  0
   -0.6737    3.2828    2.5600 H   0  0  0  0  0  0  0  0  0  0  0  0
    1.0762    3.3625    2.8482 H   0  0  0  0  0  0  0  0  0  0  0  0
    0.4201    3.8249    1.2635 H   0  0  0  0  0  0  0  0  0  0  0  0
  1  2  1  0  0  0  0
  2  3  1  0  0  0  0
  2  4  1  0  0  0  0
  2  5  1  0  0  0  0
  5  6  2  0  0  0  0
  5  7  1  0  0  0  0
  7  8  1  0  0  0  0
  7  9  1  0  0  0  0
  9 10  1  0  0  0  0
  9 11  1  0  0  0  0
  9 21  1  0  0  0  0
 11 12  1  0  0  0  0
 11 13  1  0  0  0  0
 11 14  1  0  0  0  0
 14 15  1  0  0  0  0
 14 16  1  0  0  0  0
 14 17  1  0  0  0  0
 17 18  2  0  0  0  0
 17 19  1  0  0  0  0
 19 20  1  0  0  0  0
 21 22  2  0  0  0  0
 21 23  1  0  0  0  0
 23 24  1  0  0  0  0
 23 25  1  0  0  0  0
 25 26  1  0  0  0  0
 25 27  1  0  0  0  0
 25 28  1  0  0  0  0
M  END
$$$$

  -OEChem-02102214123D

 28 27  0     1  0  0  0  0  0999 V2000
   -3.0479   -3.8689    1.2163 H   0  0  0  0  0  0  0  0  0  0  0  0
   -3.0722   -2.8533    0.8114 C   0  0  0  0  0  0  0  0  0  0  0  0
   -3.7078   -2.2343    1.4494 H   0  0  0  0  0  0  0  0  0  0  0  0
   -3.4977   -2.8856   -0.1945 H   0  0  0  0  0  0  0  0  0  0  0  0
   -1.6703   -2.2764    0.7614 C   0  0  0  0  0  0  0  0  0  0  0  0
   -0.7243   -2.9343    1.1634 O   0  0  0  0  0  0  0  0  0  0  0  0
   -1.4707   -1.0088    0.2562 N   0  0  0  0  0  0  0  0  0  0  0  0
   -2.3000   -0.4622    0.0274 H   0  0  0  0  0  0  0  0  0  0  0  0
   -0.1916   -0.2838    0.2855 C   0  0  1  0  0  0  0  0  0  0  0  0
    0.4686   -0.7612    1.0161 H   0  0  0  0  0  0  0  0  0  0  0  0
    0.4365   -0.3869   -1.1235 C   0  0  0  0  0  0  0  0  0  0  0  0
    0.1016   -1.3146   -1.6007 H   0  0  0  0  0  0  0  0  0  0  0  0
    0.0463    0.4385   -1.7298 H   0  0  0  0  0  0  0  0  0  0  0  0
    1.9823   -0.3665   -1.1993 C   0  0  0  0  0  0  0  0  0  0  0  0
    2.3345   -1.3996   -1.1259 H   0  0  0  0  0  0  0  0  0  0  0  0
    2.2866    0.0071   -2.1818 H   0  0  0  0  0  0  0  0  0  0  0  0
    2.7167    0.4227   -0.1176 C   0  0  0  0  0  0  0  0  0  0  0  0
    3.0563    1.5631   -0.3758 O   0  0  0  0  0  0  0  0  0  0  0  0
    2.9716   -0.1769    1.0690 O   0  0  0  0  0  0  0  0  0  0  0  0
    3.5457    0.4335    1.5576 H   0  0  0  0  0  0  0  0  0  0  0  0
   -0.4175    1.1757    0.7336 C   0  0  0  0  0  0  0  0  0  0  0  0
   -1.3793    1.8013    0.3021 O   0  0  0  0  0  0  0  0  0  0  0  0
    0.4138    1.7640    1.6667 N   0  0  0  0  0  0  0  0  0  0  0  0
    1.1955    1.2120    2.0073 H   0  0  0  0  0  0  0  0  0  0  0  0
    0.2801    3.1487    2.1006 C   0  0  0  0  0  0  0  0  0  0  0  0
   -0.7064    3.3188    2.5446 H   0  0  0  0  0  0  0  0  0  0  0  0
    1.0412    3.3857    2.8503 H   0  0  0  0  0  0  0  0  0  0  0  0
    0.4074    3.8286    1.2515 H   0  0  0  0  0  0  0  0  0  0  0  0
  1  2  1  0  0  0  0
  2  3  1  0  0  0  0
  2  4  1  0  0  0  0
  2  5  1  0  0  0  0
  5  6  2  0  0  0  0
  5  7  1  0  0  0  0
  7  8  1  0  0  0  0
  7  9  1  0  0  0  0
  9 10  1  0  0  0  0
  9 11  1  0  0  0  0
  9 21  1  0  0  0  0
 11 12  1  0  0  0  0
 11 13  1  0  0  0  0
 11 14  1  0  0  0  0
 14 15  1  0  0  0  0
 14 16  1  0  0  0  0
 14 17  1  0  0  0  0
 17 18  2  0  0  0  0
 17 19  1  0  0  0  0
 19 20  1  0  0  0  0
 21 22  2  0  0  0  0
 21 23  1  0  0  0  0
 23 24  1  0  0  0  0
 23 25  1  0  0  0  0
 25 26  1  0  0  0  0
 25 27  1  0  0  0  0
 25 28  1  0  0  0  0
M  END
$$$$

  -OEChem-02102214123D

 28 27  0     1  0  0  0  0  0999 V2000
   -3.0948   -3.8181    1.2057 H   0  0  0  0  0  0  0  0  0  0  0  0
   -3.0957   -2.8013    0.8031 C   0  0  0  0  0  0  0  0  0  0  0  0
   -3.7101   -2.1677    1.4474 H   0  0  0  0  0  0  0  0  0  0  0  0
   -3.5300   -2.8198   -0.1994 H   0  0  0  0  0  0  0  0  0  0  0  0
   -1.6794   -2.2612    0.7450 C   0  0  0  0  0  0  0  0  0  0  0  0
   -0.7490   -2.9403    1.1486 O   0  0  0  0  0  0  0  0  0  0  0  0
   -1.4484   -0.9996    0.2391 N   0  0  0  0  0  0  0  0  0  0  0  0
   -2.2653   -0.4247    0.0327 H   0  0  0  0  0  0  0  0  0  0  0  0
   -0.1587   -0.2960    0.3086 C   0  0  1  0  0  0  0  0  0  0  0  0
    0.4799   -0.7725    1.0591 H   0  0  0  0  0  0  0  0  0  0  0  0
    0.4989   -0.3662   -1.0904 C   0  0  0  0  0  0  0  0  0  0  0  0
    0.1553   -1.2757   -1.5953 H   0  0  0  0  0  0  0  0  0  0  0  0
    0.1302    0.4779   -1.6842 H   0  0  0  0  0  0  0  0  0  0  0  0
    2.0490   -0.3731   -1.1489 C   0  0  0  0  0  0  0  0  0  0  0  0
    2.3700   -1.3895   -1.3967 H   0  0  0  0  0  0  0  0  0  0  0  0
    2.3751    0.2717   -1.9700 H   0  0  0  0  0  0  0  0  0  0  0  0
    2.8067    0.0368    0.1109 C   0  0  0  0  0  0  0  0  0  0  0  0
    2.8459    1.2149    0.4197 O   0  0  0  0  0  0  0  0  0  0  0  0
    3.3919   -0.9440    0.8354 O   0  0  0  0  0  0  0  0  0  0  0  0
    3.8468   -0.5141    1.5750 H   0  0  0  0  0  0  0  0  0  0  0  0
   -0.4372    1.1641    0.7471 C   0  0  0  0  0  0  0  0  0  0  0  0
   -1.4435    1.7278    0.3263 O   0  0  0  0  0  0  0  0  0  0  0  0
    0.3238    1.7951    1.7126 N   0  0  0  0  0  0  0  0  0  0  0  0
    1.2585    1.4182    1.8543 H   0  0  0  0  0  0  0  0  0  0  0  0
    0.0872    3.1775    2.1113 C   0  0  0  0  0  0  0  0  0  0  0  0
   -0.9295    3.2971    2.5003 H   0  0  0  0  0  0  0  0  0  0  0  0
    0.7912    3.4695    2.8964 H   0  0  0  0  0  0  0  0  0  0  0  0
    0.2195    3.8504    1.2576 H   0  0  0  0  0  0  0  0  0  0  0  0
  1  2  1  0  0  0  0
  2  3  1  0  0  0  0
  2  4  1  0  0  0  0
  2  5  1  0  0  0  0
  5  6  2  0  0  0  0
  5  7  1  0  0  0  0
  7  8  1  0  0  0  0
  7  9  1  0  0  0  0
  9 10  1  0  0  0  0
  9 11  1  0  0  0  0
  9 21  1  0  0  0  0
 11 12  1  0  0  0  0
 11 13  1  0  0  0  0
 11 14  1  0  0  0  0
 14 15  1  0  0  0  0
 14 16  1  0  0  0  0
 14 17  1  0  0  0  0
 17 18  2  0  0  0  0
 17 19  1  0  0  0  0
 19 20  1  0  0  0  0
 21 22  2  0  0  0  0
 21 23  1  0  0  0  0
 23 24  1  0  0  0  0
 23 25  1  0  0  0  0
 25 26  1  0  0  0  0
 25 27  1  0  0  0  0
 25 28  1  0  0  0  0
M  END
$$$$

  -OEChem-02102214123D

 28 27  0     1  0  0  0  0  0999 V2000
   -3.1294   -3.7945    1.2425 H   0  0  0  0  0  0  0  0  0  0  0  0
   -3.1147   -2.8030    0.7812 C   0  0  0  0  0  0  0  0  0  0  0  0
   -3.7593   -2.1362    1.3590 H   0  0  0  0  0  0  0  0  0  0  0  0
   -3.5029   -2.8821   -0.2371 H   0  0  0  0  0  0  0  0  0  0  0  0
   -1.6989   -2.2592    0.7548 C   0  0  0  0  0  0  0  0  0  0  0  0
   -0.7778   -2.9304    1.1920 O   0  0  0  0  0  0  0  0  0  0  0  0
   -1.4584   -1.0036    0.2382 N   0  0  0  0  0  0  0  0  0  0  0  0
   -2.2711   -0.4344    0.0019 H   0  0  0  0  0  0  0  0  0  0  0  0
   -0.1713   -0.2976    0.3270 C   0  0  1  0  0  0  0  0  0  0  0  0
    0.4427   -0.7668    1.1011 H   0  0  0  0  0  0  0  0  0  0  0  0
    0.5216   -0.3739   -1.0553 C   0  0  0  0  0  0  0  0  0  0  0  0
    0.1991   -1.3034   -1.5377 H   0  0  0  0  0  0  0  0  0  0  0  0
    0.1505    0.4448   -1.6822 H   0  0  0  0  0  0  0  0  0  0  0  0
    2.0748   -0.3764   -1.0950 C   0  0  0  0  0  0  0  0  0  0  0  0
    2.4031   -1.2825   -1.6134 H   0  0  0  0  0  0  0  0  0  0  0  0
    2.4064    0.4716   -1.7012 H   0  0  0  0  0  0  0  0  0  0  0  0
    2.8244   -0.3072    0.2342 C   0  0  0  0  0  0  0  0  0  0  0  0
    2.8183    0.7346    0.8685 O   0  0  0  0  0  0  0  0  0  0  0  0
    3.4581   -1.4284    0.6465 O   0  0  0  0  0  0  0  0  0  0  0  0
    3.8673   -1.2203    1.4997 H   0  0  0  0  0  0  0  0  0  0  0  0
   -0.4450    1.1695    0.7403 C   0  0  0  0  0  0  0  0  0  0  0  0
   -1.4312    1.7414    0.2850 O   0  0  0  0  0  0  0  0  0  0  0  0
    0.3045    1.8043    1.7116 N   0  0  0  0  0  0  0  0  0  0  0  0
    1.2211    1.3978    1.9004 H   0  0  0  0  0  0  0  0  0  0  0  0
    0.0815    3.1930    2.0951 C   0  0  0  0  0  0  0  0  0  0  0  0
   -0.9477    3.3356    2.4416 H   0  0  0  0  0  0  0  0  0  0  0  0
    0.7584    3.4731    2.9078 H   0  0  0  0  0  0  0  0  0  0  0  0
    0.2634    3.8593    1.2454 H   0  0  0  0  0  0  0  0  0  0  0  0
  1  2  1  0  0  0  0
  2  3  1  0  0  0  0
  2  4  1  0  0  0  0
  2  5  1  0  0  0  0
  5  6  2  0  0  0  0
  5  7  1  0  0  0  0
  7  8  1  0  0  0  0
  7  9  1  0  0  0  0
  9 10  1  0  0  0  0
  9 11  1  0  0  0  0
  9 21  1  0  0  0  0
 11 12  1  0  0  0  0
 11 13  1  0  0  0  0
 11 14  1  0  0  0  0
 14 15  1  0  0  0  0
 14 16  1  0  0  0  0
 14 17  1  0  0  0  0
 17 18  2  0  0  0  0
 17 19  1  0  0  0  0
 19 20  1  0  0  0  0
 21 22  2  0  0  0  0
 21 23  1  0  0  0  0
 23 24  1  0  0  0  0
 23 25  1  0  0  0  0
 25 26  1  0  0  0  0
 25 27  1  0  0  0  0
 25 28  1  0  0  0  0
M  END
$$$$

  -OEChem-02102214123D

 28 27  0     1  0  0  0  0  0999 V2000
   -3.1272   -3.8257    1.2252 H   0  0  0  0  0  0  0  0  0  0  0  0
   -3.1198   -2.8393    0.7533 C   0  0  0  0  0  0  0  0  0  0  0  0
   -3.7921   -2.1791    1.3066 H   0  0  0  0  0  0  0  0  0  0  0  0
   -3.4800   -2.9374   -0.2735 H   0  0  0  0  0  0  0  0  0  0  0  0
   -1.7142   -2.2689    0.7564 C   0  0  0  0  0  0  0  0  0  0  0  0
   -0.7905   -2.9233    1.2135 O   0  0  0  0  0  0  0  0  0  0  0  0
   -1.4852   -1.0131    0.2343 N   0  0  0  0  0  0  0  0  0  0  0  0
   -2.3019   -0.4630   -0.0295 H   0  0  0  0  0  0  0  0  0  0  0  0
   -0.2070   -0.2905    0.3176 C   0  0  1  0  0  0  0  0  0  0  0  0
    0.3880   -0.7554    1.1074 H   0  0  0  0  0  0  0  0  0  0  0  0
    0.5135   -0.3878   -1.0481 C   0  0  0  0  0  0  0  0  0  0  0  0
    0.2261   -1.3467   -1.4938 H   0  0  0  0  0  0  0  0  0  0  0  0
    0.1359    0.3934   -1.7173 H   0  0  0  0  0  0  0  0  0  0  0  0
    2.0659   -0.3636   -1.0496 C   0  0  0  0  0  0  0  0  0  0  0  0
    2.4279   -1.1026   -1.7704 H   0  0  0  0  0  0  0  0  0  0  0  0
    2.3903    0.6169   -1.4103 H   0  0  0  0  0  0  0  0  0  0  0  0
    2.7744   -0.6033    0.2828 C   0  0  0  0  0  0  0  0  0  0  0  0
    2.7906    0.2937    1.1116 O   0  0  0  0  0  0  0  0  0  0  0  0
    3.3444   -1.8135    0.4781 O   0  0  0  0  0  0  0  0  0  0  0  0
    3.7143   -1.8044    1.3738 H   0  0  0  0  0  0  0  0  0  0  0  0
   -0.4376    1.1825    0.7199 C   0  0  0  0  0  0  0  0  0  0  0  0
   -1.4014    1.7865    0.2606 O   0  0  0  0  0  0  0  0  0  0  0  0
    0.3493    1.7893    1.6790 N   0  0  0  0  0  0  0  0  0  0  0  0
    1.2237    1.3159    1.9113 H   0  0  0  0  0  0  0  0  0  0  0  0
    0.1834    3.1796    2.0828 C   0  0  0  0  0  0  0  0  0  0  0  0
   -0.8340    3.3549    2.4482 H   0  0  0  0  0  0  0  0  0  0  0  0
    0.8835    3.4239    2.8875 H   0  0  0  0  0  0  0  0  0  0  0  0
    0.3756    3.8498    1.2384 H   0  0  0  0  0  0  0  0  0  0  0  0
  1  2  1  0  0  0  0
  2  3  1  0  0  0  0
  2  4  1  0  0  0  0
  2  5  1  0  0  0  0
  5  6  2  0  0  0  0
  5  7  1  0  0  0  0
  7  8  1  0  0  0  0
  7  9  1  0  0  0  0
  9 10  1  0  0  0  0
  9 11  1  0  0  0  0
  9 21  1  0  0  0  0
 11 12  1  0  0  0  0
 11 13  1  0  0  0  0
 11 14  1  0  0  0  0
 14 15  1  0  0  0  0
 14 16  1  0  0  0  0
 14 17  1  0  0  0  0
 17 18  2  0  0  0  0
 17 19  1  0  0  0  0
 19 20  1  0  0  0  0
 21 22  2  0  0  0  0
 21 23  1  0  0  0  0
 23 24  1  0  0  0  0
 23 25  1  0  0  0  0
 25 26  1  0  0  0  0
 25 27  1  0  0  0  0
 25 28  1  0  0  0  0
M  END
$$$$

  -OEChem-02102214123D

 28 27  0     1  0  0  0  0  0999 V2000
   -3.2904   -3.7417    1.2944 H   0  0  0  0  0  0  0  0  0  0  0  0
   -3.2508   -2.7587    0.8172 C   0  0  0  0  0  0  0  0  0  0  0  0
   -3.8882   -2.0698    1.3765 H   0  0  0  0  0  0  0  0  0  0  0  0
   -3.6293   -2.8475   -0.2039 H   0  0  0  0  0  0  0  0  0  0  0  0
   -1.8240   -2.2442    0.7971 C   0  0  0  0  0  0  0  0  0  0  0  0
   -0.9231   -2.9243    1.2611 O   0  0  0  0  0  0  0  0  0  0  0  0
   -1.5522   -1.0053    0.2544 N   0  0  0  0  0  0  0  0  0  0  0  0
   -2.3489   -0.4343   -0.0239 H   0  0  0  0  0  0  0  0  0  0  0  0
   -0.2395   -0.3428    0.2777 C   0  0  1  0  0  0  0  0  0  0  0  0
    0.3451   -0.8321    1.0580 H   0  0  0  0  0  0  0  0  0  0  0  0
    0.4480   -0.5015   -1.0964 C   0  0  0  0  0  0  0  0  0  0  0  0
    0.1191   -1.4607   -1.5115 H   0  0  0  0  0  0  0  0  0  0  0  0
    0.0945    0.2771   -1.7812 H   0  0  0  0  0  0  0  0  0  0  0  0
    1.9972   -0.5387   -1.1028 C   0  0  0  0  0  0  0  0  0  0  0  0
    2.3331   -1.0924   -1.9849 H   0  0  0  0  0  0  0  0  0  0  0  0
    2.3580    0.4878   -1.2130 H   0  0  0  0  0  0  0  0  0  0  0  0
    2.6854   -1.1149    0.1342 C   0  0  0  0  0  0  0  0  0  0  0  0
    3.1502   -2.2373    0.0605 O   0  0  0  0  0  0  0  0  0  0  0  0
    2.7852   -0.3364    1.2417 O   0  0  0  0  0  0  0  0  0  0  0  0
    3.2720   -0.8813    1.8828 H   0  0  0  0  0  0  0  0  0  0  0  0
   -0.3342    1.1439    0.6685 C   0  0  0  0  0  0  0  0  0  0  0  0
   -1.2527    1.8304    0.2356 O   0  0  0  0  0  0  0  0  0  0  0  0
    0.5534    1.6800    1.5807 N   0  0  0  0  0  0  0  0  0  0  0  0
    1.3619    1.1070    1.8221 H   0  0  0  0  0  0  0  0  0  0  0  0
    0.5378    3.0812    1.9804 C   0  0  0  0  0  0  0  0  0  0  0  0
   -0.4186    3.3348    2.4497 H   0  0  0  0  0  0  0  0  0  0  0  0
    1.3377    3.2775    2.7008 H   0  0  0  0  0  0  0  0  0  0  0  0
    0.6869    3.7303    1.1111 H   0  0  0  0  0  0  0  0  0  0  0  0
  1  2  1  0  0  0  0
  2  3  1  0  0  0  0
  2  4  1  0  0  0  0
  2  5  1  0  0  0  0
  5  6  2  0  0  0  0
  5  7  1  0  0  0  0
  7  8  1  0  0  0  0
  7  9  1  0  0  0  0
  9 10  1  0  0  0  0
  9 11  1  0  0  0  0
  9 21  1  0  0  0  0
 11 12  1  0  0  0  0
 11 13  1  0  0  0  0
 11 14  1  0  0  0  0
 14 15  1  0  0  0  0
 14 16  1  0  0  0  0
 14 17  1  0  0  0  0
 17 18  2  0  0  0  0
 17 19  1  0  0  0  0
 19 20  1  0  0  0  0
 21 22  2  0  0  0  0
 21 23  1  0  0  0  0
 23 24  1  0  0  0  0
 23 25  1  0  0  0  0
 25 26  1  0  0  0  0
 25 27  1  0  0  0  0
 25 28  1  0  0  0  0
M  END
$$$$

  -OEChem-02102214123D

 28 27  0     1  0  0  0  0  0999 V2000
   -3.2052   -3.7564    1.3758 H   0  0  0  0  0  0  0  0  0  0  0  0
   -3.1899   -2.7939    0.8569 C   0  0  0  0  0  0  0  0  0  0  0  0
   -3.8333   -2.0937    1.3952 H   0  0  0  0  0  0  0  0  0  0  0  0
   -3.5793   -2.9324   -0.1546 H   0  0  0  0  0  0  0  0  0  0  0  0
   -1.7730   -2.2555    0.7970 C   0  0  0  0  0  0  0  0  0  0  0  0
   -0.8485   -2.9186    1.2391 O   0  0  0  0  0  0  0  0  0  0  0  0
   -1.5380   -1.0081    0.2564 N   0  0  0  0  0  0  0  0  0  0  0  0
   -2.3504   -0.4512   -0.0034 H   0  0  0  0  0  0  0  0  0  0  0  0
   -0.2346   -0.3286    0.2451 C   0  0  1  0  0  0  0  0  0  0  0  0
    0.3801   -0.8110    1.0060 H   0  0  0  0  0  0  0  0  0  0  0  0
    0.4150   -0.4786   -1.1481 C   0  0  0  0  0  0  0  0  0  0  0  0
    0.0897   -1.4367   -1.5689 H   0  0  0  0  0  0  0  0  0  0  0  0
    0.0455    0.3066   -1.8170 H   0  0  0  0  0  0  0  0  0  0  0  0
    1.9604   -0.4916   -1.1585 C   0  0  0  0  0  0  0  0  0  0  0  0
    2.3069   -0.8170   -2.1440 H   0  0  0  0  0  0  0  0  0  0  0  0
    2.3188    0.5311   -1.0114 H   0  0  0  0  0  0  0  0  0  0  0  0
    2.6159   -1.3684   -0.0949 C   0  0  0  0  0  0  0  0  0  0  0  0
    2.9161   -2.5105   -0.3911 O   0  0  0  0  0  0  0  0  0  0  0  0
    2.8545   -0.8207    1.1231 O   0  0  0  0  0  0  0  0  0  0  0  0
    3.2615   -1.5338    1.6424 H   0  0  0  0  0  0  0  0  0  0  0  0
   -0.3241    1.1529    0.6504 C   0  0  0  0  0  0  0  0  0  0  0  0
   -1.2538    1.8428    0.2491 O   0  0  0  0  0  0  0  0  0  0  0  0
    0.5932    1.6810    1.5385 N   0  0  0  0  0  0  0  0  0  0  0  0
    1.3618    1.0793    1.8297 H   0  0  0  0  0  0  0  0  0  0  0  0
    0.5455    3.0568    2.0167 C   0  0  0  0  0  0  0  0  0  0  0  0
   -0.3948    3.2455    2.5454 H   0  0  0  0  0  0  0  0  0  0  0  0
    1.3734    3.2467    2.7066 H   0  0  0  0  0  0  0  0  0  0  0  0
    0.6253    3.7573    1.1788 H   0  0  0  0  0  0  0  0  0  0  0  0
  1  2  1  0  0  0  0
  2  3  1  0  0  0  0
  2  4  1  0  0  0  0
  2  5  1  0  0  0  0
  5  6  2  0  0  0  0
  5  7  1  0  0  0  0
  7  8  1  0  0  0  0
  7  9  1  0  0  0  0
  9 10  1  0  0  0  0
  9 11  1  0  0  0  0
  9 21  1  0  0  0  0
 11 12  1  0  0  0  0
 11 13  1  0  0  0  0
 11 14  1  0  0  0  0
 14 15  1  0  0  0  0
 14 16  1  0  0  0  0
 14 17  1  0  0  0  0
 17 18  2  0  0  0  0
 17 19  1  0  0  0  0
 19 20  1  0  0  0  0
 21 22  2  0  0  0  0
 21 23  1  0  0  0  0
 23 24  1  0  0  0  0
 23 25  1  0  0  0  0
 25 26  1  0  0  0  0
 25 27  1  0  0  0  0
 25 28  1  0  0  0  0
M  END
$$$$

  -OEChem-02102214123D

 28 27  0     1  0  0  0  0  0999 V2000
   -3.1218   -3.7849    1.3923 H   0  0  0  0  0  0  0  0  0  0  0  0
   -3.1237   -2.8261    0.8665 C   0  0  0  0  0  0  0  0  0  0  0  0
   -3.7769   -2.1330    1.4019 H   0  0  0  0  0  0  0  0  0  0  0  0
   -3.5139   -2.9783   -0.1426 H   0  0  0  0  0  0  0  0  0  0  0  0
   -1.7160   -2.2650    0.7972 C   0  0  0  0  0  0  0  0  0  0  0  0
   -0.7765   -2.9169    1.2248 O   0  0  0  0  0  0  0  0  0  0  0  0
   -1.5049   -1.0115    0.2609 N   0  0  0  0  0  0  0  0  0  0  0  0
   -2.3268   -0.4639    0.0111 H   0  0  0  0  0  0  0  0  0  0  0  0
   -0.2089   -0.3193    0.2339 C   0  0  1  0  0  0  0  0  0  0  0  0
    0.4404   -0.7959    0.9712 H   0  0  0  0  0  0  0  0  0  0  0  0
    0.4042   -0.4500   -1.1769 C   0  0  0  0  0  0  0  0  0  0  0  0
    0.0727   -1.3951   -1.6220 H   0  0  0  0  0  0  0  0  0  0  0  0
    0.0300    0.3566   -1.8173 H   0  0  0  0  0  0  0  0  0  0  0  0
    1.9455   -0.4492   -1.1841 C   0  0  0  0  0  0  0  0  0  0  0  0
    2.2983   -0.5260   -2.2168 H   0  0  0  0  0  0  0  0  0  0  0  0
    2.3135    0.4996   -0.7841 H   0  0  0  0  0  0  0  0  0  0  0  0
    2.5556   -1.5925   -0.3788 C   0  0  0  0  0  0  0  0  0  0  0  0
    2.7167   -2.6675   -0.9284 O   0  0  0  0  0  0  0  0  0  0  0  0
    2.8939   -1.3482    0.9101 O   0  0  0  0  0  0  0  0  0  0  0  0
    3.2170   -2.1968    1.2538 H   0  0  0  0  0  0  0  0  0  0  0  0
   -0.3228    1.1577    0.6533 C   0  0  0  0  0  0  0  0  0  0  0  0
   -1.2621    1.8362    0.2547 O   0  0  0  0  0  0  0  0  0  0  0  0
    0.5924    1.7019    1.5344 N   0  0  0  0  0  0  0  0  0  0  0  0
    1.3369    1.0961    1.8717 H   0  0  0  0  0  0  0  0  0  0  0  0
    0.5155    3.0718    2.0255 C   0  0  0  0  0  0  0  0  0  0  0  0
   -0.4156    3.2279    2.5807 H   0  0  0  0  0  0  0  0  0  0  0  0
    1.3560    3.2819    2.6942 H   0  0  0  0  0  0  0  0  0  0  0  0
    0.5522    3.7807    1.1915 H   0  0  0  0  0  0  0  0  0  0  0  0
  1  2  1  0  0  0  0
  2  3  1  0  0  0  0
  2  4  1  0  0  0  0
  2  5  1  0  0  0  0
  5  6  2  0  0  0  0
  5  7  1  0  0  0  0
  7  8  1  0  0  0  0
  7  9  1  0  0  0  0
  9 10  1  0  0  0  0
  9 11  1  0  0  0  0
  9 21  1  0  0  0  0
 11 12  1  0  0  0  0
 11 13  1  0  0  0  0
 11 14  1  0  0  0  0
 14 15  1  0  0  0  0
 14 16  1  0  0  0  0
 14 17  1  0  0  0  0
 17 18  2  0  0  0  0
 17 19  1  0  0  0  0
 19 20  1  0  0  0  0
 21 22  2  0  0  0  0
 21 23  1  0  0  0  0
 23 24  1  0  0  0  0
 23 25  1  0  0  0  0
 25 26  1  0  0  0  0
 25 27  1  0  0  0  0
 25 28  1  0  0  0  0
M  END
$$$$

  -OEChem-02102214123D

 28 27  0     1  0  0  0  0  0999 V2000
   -3.0445   -3.8142    1.3935 H   0  0  0  0  0  0  0  0  0  0  0  0
   -3.0638   -2.8542    0.8698 C   0  0  0  0  0  0  0  0  0  0  0  0
   -3.7184   -2.1697    1.4146 H   0  0  0  0  0  0  0  0  0  0  0  0
   -3.4635   -3.0084   -0.1354 H   0  0  0  0  0  0  0  0  0  0  0  0
   -1.6640   -2.2765    0.7850 C   0  0  0  0  0  0  0  0  0  0  0  0
   -0.7096   -2.9254    1.1835 O   0  0  0  0  0  0  0  0  0  0  0  0
   -1.4754   -1.0161    0.2569 N   0  0  0  0  0  0  0  0  0  0  0  0
   -2.3070   -0.4756    0.0240 H   0  0  0  0  0  0  0  0  0  0  0  0
   -0.1880   -0.3085    0.2218 C   0  0  1  0  0  0  0  0  0  0  0  0
    0.4886   -0.7833    0.9384 H   0  0  0  0  0  0  0  0  0  0  0  0
    0.4018   -0.4278   -1.1978 C   0  0  0  0  0  0  0  0  0  0  0  0
    0.0667   -1.3619   -1.6638 H   0  0  0  0  0  0  0  0  0  0  0  0
    0.0247    0.3935   -1.8172 H   0  0  0  0  0  0  0  0  0  0  0  0
    1.9407   -0.4094   -1.1910 C   0  0  0  0  0  0  0  0  0  0  0  0
    2.3016   -0.2365   -2.2092 H   0  0  0  0  0  0  0  0  0  0  0  0
    2.3129    0.4095   -0.5697 H   0  0  0  0  0  0  0  0  0  0  0  0
    2.5183   -1.7323   -0.7000 C   0  0  0  0  0  0  0  0  0  0  0  0
    2.6300   -2.6517   -1.4920 O   0  0  0  0  0  0  0  0  0  0  0  0
    2.8671   -1.8153    0.6051 O   0  0  0  0  0  0  0  0  0  0  0  0
    3.1359   -2.7372    0.7448 H   0  0  0  0  0  0  0  0  0  0  0  0
   -0.3252    1.1632    0.6564 C   0  0  0  0  0  0  0  0  0  0  0  0
   -1.2745    1.8296    0.2613 O   0  0  0  0  0  0  0  0  0  0  0  0
    0.5844    1.7219    1.5348 N   0  0  0  0  0  0  0  0  0  0  0  0
    1.3233    1.1212    1.8918 H   0  0  0  0  0  0  0  0  0  0  0  0
    0.4800    3.0882    2.0326 C   0  0  0  0  0  0  0  0  0  0  0  0
   -0.4411    3.2158    2.6109 H   0  0  0  0  0  0  0  0  0  0  0  0
    1.3307    3.3216    2.6801 H   0  0  0  0  0  0  0  0  0  0  0  0
    0.4747    3.8002    1.2005 H   0  0  0  0  0  0  0  0  0  0  0  0
  1  2  1  0  0  0  0
  2  3  1  0  0  0  0
  2  4  1  0  0  0  0
  2  5  1  0  0  0  0
  5  6  2  0  0  0  0
  5  7  1  0  0  0  0
  7  8  1  0  0  0  0
  7  9  1  0  0  0  0
  9 10  1  0  0  0  0
  9 11  1  0  0  0  0
  9 21  1  0  0  0  0
 11 12  1  0  0  0  0
 11 13  1  0  0  0  0
 11 14  1  0  0  0  0
 14 15  1  0  0  0  0
 14 16  1  0  0  0  0
 14 17  1  0  0  0  0
 17 18  2  0  0  0  0
 17 19  1  0  0  0  0
 19 20  1  0  0  0  0
 21 22  2  0  0  0  0
 21 23  1  0  0  0  0
 23 24  1  0  0  0  0
 23 25  1  0  0  0  0
 25 26  1  0  0  0  0
 25 27  1  0  0  0  0
 25 28  1  0  0  0  0
M  END
$$$$

  -OEChem-02102214123D

 28 27  0     1  0  0  0  0  0999 V2000
   -3.0122   -3.8322    1.3692 H   0  0  0  0  0  0  0  0  0  0  0  0
   -3.0387   -2.8601    0.8687 C   0  0  0  0  0  0  0  0  0  0  0  0
   -3.6877   -2.1896    1.4372 H   0  0  0  0  0  0  0  0  0  0  0  0
   -3.4509   -2.9914   -0.1346 H   0  0  0  0  0  0  0  0  0  0  0  0
   -1.6405   -2.2785    0.7805 C   0  0  0  0  0  0  0  0  0  0  0  0
   -0.6831   -2.9267    1.1724 O   0  0  0  0  0  0  0  0  0  0  0  0
   -1.4571   -1.0173    0.2530 N   0  0  0  0  0  0  0  0  0  0  0  0
   -2.2915   -0.4804    0.0211 H   0  0  0  0  0  0  0  0  0  0  0  0
   -0.1745   -0.3009    0.2177 C   0  0  1  0  0  0  0  0  0  0  0  0
    0.5141   -0.7744    0.9260 H   0  0  0  0  0  0  0  0  0  0  0  0
    0.4095   -0.4184   -1.2026 C   0  0  0  0  0  0  0  0  0  0  0  0
    0.0698   -1.3461   -1.6776 H   0  0  0  0  0  0  0  0  0  0  0  0
    0.0316    0.4083   -1.8146 H   0  0  0  0  0  0  0  0  0  0  0  0
    1.9488   -0.3903   -1.1873 C   0  0  0  0  0  0  0  0  0  0  0  0
    2.3074    0.0274   -2.1325 H   0  0  0  0  0  0  0  0  0  0  0  0
    2.3259    0.2505   -0.3859 H   0  0  0  0  0  0  0  0  0  0  0  0
    2.5257   -1.7941   -1.0495 C   0  0  0  0  0  0  0  0  0  0  0  0
    2.5906   -2.5038   -2.0386 O   0  0  0  0  0  0  0  0  0  0  0  0
    2.9188   -2.1833    0.1850 O   0  0  0  0  0  0  0  0  0  0  0  0
    3.1772   -3.1141    0.0996 H   0  0  0  0  0  0  0  0  0  0  0  0
   -0.3317    1.1694    0.6537 C   0  0  0  0  0  0  0  0  0  0  0  0
   -1.2909    1.8212    0.2579 O   0  0  0  0  0  0  0  0  0  0  0  0
    0.5661    1.7442    1.5341 N   0  0  0  0  0  0  0  0  0  0  0  0
    1.3028    1.1519    1.9076 H   0  0  0  0  0  0  0  0  0  0  0  0
    0.4288    3.1049    2.0396 C   0  0  0  0  0  0  0  0  0  0  0  0
   -0.4875    3.2031    2.6311 H   0  0  0  0  0  0  0  0  0  0  0  0
    1.2815    3.3604    2.6760 H   0  0  0  0  0  0  0  0  0  0  0  0
    0.3916    3.8203    1.2112 H   0  0  0  0  0  0  0  0  0  0  0  0
  1  2  1  0  0  0  0
  2  3  1  0  0  0  0
  2  4  1  0  0  0  0
  2  5  1  0  0  0  0
  5  6  2  0  0  0  0
  5  7  1  0  0  0  0
  7  8  1  0  0  0  0
  7  9  1  0  0  0  0
  9 10  1  0  0  0  0
  9 11  1  0  0  0  0
  9 21  1  0  0  0  0
 11 12  1  0  0  0  0
 11 13  1  0  0  0  0
 11 14  1  0  0  0  0
 14 15  1  0  0  0  0
 14 16  1  0  0  0  0
 14 17  1  0  0  0  0
 17 18  2  0  0  0  0
 17 19  1  0  0  0  0
 19 20  1  0  0  0  0
 21 22  2  0  0  0  0
 21 23  1  0  0  0  0
 23 24  1  0  0  0  0
 23 25  1  0  0  0  0
 25 26  1  0  0  0  0
 25 27  1  0  0  0  0
 25 28  1  0  0  0  0
M  END
$$$$

  -OEChem-02102214123D

 28 27  0     1  0  0  0  0  0999 V2000
   -3.0268   -3.8530    1.3064 H   0  0  0  0  0  0  0  0  0  0  0  0
   -3.0556   -2.8563    0.8572 C   0  0  0  0  0  0  0  0  0  0  0  0
   -3.6970   -2.2139    1.4656 H   0  0  0  0  0  0  0  0  0  0  0  0
   -3.4773   -2.9348   -0.1478 H   0  0  0  0  0  0  0  0  0  0  0  0
   -1.6570   -2.2739    0.7864 C   0  0  0  0  0  0  0  0  0  0  0  0
   -0.7049   -2.9155    1.2008 O   0  0  0  0  0  0  0  0  0  0  0  0
   -1.4678   -1.0159    0.2539 N   0  0  0  0  0  0  0  0  0  0  0  0
   -2.2994   -0.4845    0.0006 H   0  0  0  0  0  0  0  0  0  0  0  0
   -0.1857   -0.2980    0.2266 C   0  0  1  0  0  0  0  0  0  0  0  0
    0.4959   -0.7690    0.9429 H   0  0  0  0  0  0  0  0  0  0  0  0
    0.4114   -0.4193   -1.1881 C   0  0  0  0  0  0  0  0  0  0  0  0
    0.0703   -1.3500   -1.6559 H   0  0  0  0  0  0  0  0  0  0  0  0
    0.0346    0.4009   -1.8095 H   0  0  0  0  0  0  0  0  0  0  0  0
    1.9542   -0.3892   -1.1708 C   0  0  0  0  0  0  0  0  0  0  0  0
    2.3051    0.2616   -1.9770 H   0  0  0  0  0  0  0  0  0  0  0  0
    2.3333    0.0277   -0.2342 H   0  0  0  0  0  0  0  0  0  0  0  0
    2.5571   -1.7714   -1.3973 C   0  0  0  0  0  0  0  0  0  0  0  0
    2.4585   -2.2823   -2.5001 O   0  0  0  0  0  0  0  0  0  0  0  0
    3.1681   -2.3642   -0.3464 O   0  0  0  0  0  0  0  0  0  0  0  0
    3.4396   -3.2413   -0.6574 H   0  0  0  0  0  0  0  0  0  0  0  0
   -0.3487    1.1747    0.6524 C   0  0  0  0  0  0  0  0  0  0  0  0
   -1.3046    1.8235    0.2439 O   0  0  0  0  0  0  0  0  0  0  0  0
    0.5400    1.7556    1.5379 N   0  0  0  0  0  0  0  0  0  0  0  0
    1.2755    1.1676    1.9202 H   0  0  0  0  0  0  0  0  0  0  0  0
    0.3926    3.1170    2.0388 C   0  0  0  0  0  0  0  0  0  0  0  0
   -0.5499    3.2244    2.5859 H   0  0  0  0  0  0  0  0  0  0  0  0
    1.2159    3.3626    2.7164 H   0  0  0  0  0  0  0  0  0  0  0  0
    0.4023    3.8334    1.2105 H   0  0  0  0  0  0  0  0  0  0  0  0
  1  2  1  0  0  0  0
  2  3  1  0  0  0  0
  2  4  1  0  0  0  0
  2  5  1  0  0  0  0
  5  6  2  0  0  0  0
  5  7  1  0  0  0  0
  7  8  1  0  0  0  0
  7  9  1  0  0  0  0
  9 10  1  0  0  0  0
  9 11  1  0  0  0  0
  9 21  1  0  0  0  0
 11 12  1  0  0  0  0
 11 13  1  0  0  0  0
 11 14  1  0  0  0  0
 14 15  1  0  0  0  0
 14 16  1  0  0  0  0
 14 17  1  0  0  0  0
 17 18  2  0  0  0  0
 17 19  1  0  0  0  0
 19 20  1  0  0  0  0
 21 22  2  0  0  0  0
 21 23  1  0  0  0  0
 23 24  1  0  0  0  0
 23 25  1  0  0  0  0
 25 26  1  0  0  0  0
 25 27  1  0  0  0  0
 25 28  1  0  0  0  0
M  END
$$$$

  -OEChem-02102214123D

 28 27  0     1  0  0  0  0  0999 V2000
   -3.0543   -3.8482    1.2896 H   0  0  0  0  0  0  0  0  0  0  0  0
   -3.0777   -2.8523    0.8383 C   0  0  0  0  0  0  0  0  0  0  0  0
   -3.7325   -2.2110    1.4332 H   0  0  0  0  0  0  0  0  0  0  0  0
   -3.4805   -2.9343   -0.1741 H   0  0  0  0  0  0  0  0  0  0  0  0
   -1.6793   -2.2663    0.7929 C   0  0  0  0  0  0  0  0  0  0  0  0
   -0.7350   -2.9023    1.2330 O   0  0  0  0  0  0  0  0  0  0  0  0
   -1.4803   -1.0120    0.2552 N   0  0  0  0  0  0  0  0  0  0  0  0
   -2.3070   -0.4826   -0.0180 H   0  0  0  0  0  0  0  0  0  0  0  0
   -0.1959   -0.2968    0.2390 C   0  0  1  0  0  0  0  0  0  0  0  0
    0.4736   -0.7668    0.9670 H   0  0  0  0  0  0  0  0  0  0  0  0
    0.4174   -0.4175   -1.1695 C   0  0  0  0  0  0  0  0  0  0  0  0
    0.0810   -1.3591   -1.6189 H   0  0  0  0  0  0  0  0  0  0  0  0
    0.0398    0.3874   -1.8100 H   0  0  0  0  0  0  0  0  0  0  0  0
    1.9634   -0.3909   -1.1480 C   0  0  0  0  0  0  0  0  0  0  0  0
    2.3166    0.4609   -1.7361 H   0  0  0  0  0  0  0  0  0  0  0  0
    2.3392   -0.2546   -0.1306 H   0  0  0  0  0  0  0  0  0  0  0  0
    2.5837   -1.6594   -1.7276 C   0  0  0  0  0  0  0  0  0  0  0  0
    2.3261   -1.9660   -2.8796 O   0  0  0  0  0  0  0  0  0  0  0  0
    3.3983   -2.3811   -0.9243 O   0  0  0  0  0  0  0  0  0  0  0  0
    3.6705   -3.1516   -1.4456 H   0  0  0  0  0  0  0  0  0  0  0  0
   -0.3597    1.1787    0.6537 C   0  0  0  0  0  0  0  0  0  0  0  0
   -1.3102    1.8265    0.2313 O   0  0  0  0  0  0  0  0  0  0  0  0
    0.5194    1.7639    1.5460 N   0  0  0  0  0  0  0  0  0  0  0  0
    1.2511    1.1785    1.9387 H   0  0  0  0  0  0  0  0  0  0  0  0
    0.3650    3.1277    2.0385 C   0  0  0  0  0  0  0  0  0  0  0  0
   -0.5744    3.2313    2.5919 H   0  0  0  0  0  0  0  0  0  0  0  0
    1.1911    3.3849    2.7083 H   0  0  0  0  0  0  0  0  0  0  0  0
    0.3630    3.8387    1.2054 H   0  0  0  0  0  0  0  0  0  0  0  0
  1  2  1  0  0  0  0
  2  3  1  0  0  0  0
  2  4  1  0  0  0  0
  2  5  1  0  0  0  0
  5  6  2  0  0  0  0
  5  7  1  0  0  0  0
  7  8  1  0  0  0  0
  7  9  1  0  0  0  0
  9 10  1  0  0  0  0
  9 11  1  0  0  0  0
  9 21  1  0  0  0  0
 11 12  1  0  0  0  0
 11 13  1  0  0  0  0
 11 14  1  0  0  0  0
 14 15  1  0  0  0  0
 14 16  1  0  0  0  0
 14 17  1  0  0  0  0
 17 18  2  0  0  0  0
 17 19  1  0  0  0  0
 19 20  1  0  0  0  0
 21 22  2  0  0  0  0
 21 23  1  0  0  0  0
 23 24  1  0  0  0  0
 23 25  1  0  0  0  0
 25 26  1  0  0  0  0
 25 27  1  0  0  0  0
 25 28  1  0  0  0  0
M  END
$$$$

  -OEChem-02102214123D

 28 27  0     1  0  0  0  0  0999 V2000
   -3.0900   -3.8363    1.2803 H   0  0  0  0  0  0  0  0  0  0  0  0
   -3.1030   -2.8438    0.8215 C   0  0  0  0  0  0  0  0  0  0  0  0
   -3.7600   -2.1942    1.4049 H   0  0  0  0  0  0  0  0  0  0  0  0
   -3.4961   -2.9307   -0.1944 H   0  0  0  0  0  0  0  0  0  0  0  0
   -1.7011   -2.2654    0.7865 C   0  0  0  0  0  0  0  0  0  0  0  0
   -0.7631   -2.9052    1.2349 O   0  0  0  0  0  0  0  0  0  0  0  0
   -1.4922   -1.0121    0.2498 N   0  0  0  0  0  0  0  0  0  0  0  0
   -2.3148   -0.4793   -0.0295 H   0  0  0  0  0  0  0  0  0  0  0  0
   -0.2062   -0.2995    0.2480 C   0  0  1  0  0  0  0  0  0  0  0  0
    0.4512   -0.7691    0.9862 H   0  0  0  0  0  0  0  0  0  0  0  0
    0.4243   -0.4165   -1.1539 C   0  0  0  0  0  0  0  0  0  0  0  0
    0.1013   -1.3715   -1.5842 H   0  0  0  0  0  0  0  0  0  0  0  0
    0.0467    0.3716   -1.8150 H   0  0  0  0  0  0  0  0  0  0  0  0
    1.9707   -0.3925   -1.1208 C   0  0  0  0  0  0  0  0  0  0  0  0
    2.3292    0.5919   -1.4340 H   0  0  0  0  0  0  0  0  0  0  0  0
    2.3336   -0.5613   -0.1036 H   0  0  0  0  0  0  0  0  0  0  0  0
    2.6051   -1.4593   -2.0115 C   0  0  0  0  0  0  0  0  0  0  0  0
    2.2007   -1.5911   -3.1546 O   0  0  0  0  0  0  0  0  0  0  0  0
    3.6046   -2.2016   -1.4824 O   0  0  0  0  0  0  0  0  0  0  0  0
    3.8696   -2.8215   -2.1789 H   0  0  0  0  0  0  0  0  0  0  0  0
   -0.3719    1.1767    0.6590 C   0  0  0  0  0  0  0  0  0  0  0  0
   -1.3167    1.8258    0.2258 O   0  0  0  0  0  0  0  0  0  0  0  0
    0.4980    1.7612    1.5609 N   0  0  0  0  0  0  0  0  0  0  0  0
    1.2288    1.1773    1.9576 H   0  0  0  0  0  0  0  0  0  0  0  0
    0.3501    3.1308    2.0390 C   0  0  0  0  0  0  0  0  0  0  0  0
   -0.5931    3.2471    2.5832 H   0  0  0  0  0  0  0  0  0  0  0  0
    1.1728    3.3881    2.7131 H   0  0  0  0  0  0  0  0  0  0  0  0
    0.3608    3.8333    1.1988 H   0  0  0  0  0  0  0  0  0  0  0  0
  1  2  1  0  0  0  0
  2  3  1  0  0  0  0
  2  4  1  0  0  0  0
  2  5  1  0  0  0  0
  5  6  2  0  0  0  0
  5  7  1  0  0  0  0
  7  8  1  0  0  0  0
  7  9  1  0  0  0  0
  9 10  1  0  0  0  0
  9 11  1  0  0  0  0
  9 21  1  0  0  0  0
 11 12  1  0  0  0  0
 11 13  1  0  0  0  0
 11 14  1  0  0  0  0
 14 15  1  0  0  0  0
 14 16  1  0  0  0  0
 14 17  1  0  0  0  0
 17 18  2  0  0  0  0
 17 19  1  0  0  0  0
 19 20  1  0  0  0  0
 21 22  2  0  0  0  0
 21 23  1  0  0  0  0
 23 24  1  0  0  0  0
 23 25  1  0  0  0  0
 25 26  1  0  0  0  0
 25 27  1  0  0  0  0
 25 28  1  0  0  0  0
M  END
$$$$

  -OEChem-02102214123D

 28 27  0     1  0  0  0  0  0999 V2000
   -3.1228   -3.8231    1.2812 H   0  0  0  0  0  0  0  0  0  0  0  0
   -3.1302   -2.8342    0.8143 C   0  0  0  0  0  0  0  0  0  0  0  0
   -3.7862   -2.1775    1.3909 H   0  0  0  0  0  0  0  0  0  0  0  0
   -3.5208   -2.9275   -0.2020 H   0  0  0  0  0  0  0  0  0  0  0  0
   -1.7255   -2.2621    0.7787 C   0  0  0  0  0  0  0  0  0  0  0  0
   -0.7910   -2.9059    1.2288 O   0  0  0  0  0  0  0  0  0  0  0  0
   -1.5094   -1.0094    0.2435 N   0  0  0  0  0  0  0  0  0  0  0  0
   -2.3280   -0.4731   -0.0406 H   0  0  0  0  0  0  0  0  0  0  0  0
   -0.2196   -0.3037    0.2474 C   0  0  1  0  0  0  0  0  0  0  0  0
    0.4327   -0.7755    0.9890 H   0  0  0  0  0  0  0  0  0  0  0  0
    0.4192   -0.4208   -1.1501 C   0  0  0  0  0  0  0  0  0  0  0  0
    0.1042   -1.3791   -1.5793 H   0  0  0  0  0  0  0  0  0  0  0  0
    0.0500    0.3666   -1.8169 H   0  0  0  0  0  0  0  0  0  0  0  0
    1.9631   -0.4035   -1.0967 C   0  0  0  0  0  0  0  0  0  0  0  0
    2.3242    0.6280   -1.1243 H   0  0  0  0  0  0  0  0  0  0  0  0
    2.3056   -0.8498   -0.1590 H   0  0  0  0  0  0  0  0  0  0  0  0
    2.6195   -1.1971   -2.2264 C   0  0  0  0  0  0  0  0  0  0  0  0
    2.0834   -1.2363   -3.3216 O   0  0  0  0  0  0  0  0  0  0  0  0
    3.7941   -1.8085   -1.9491 O   0  0  0  0  0  0  0  0  0  0  0  0
    4.0580   -2.2580   -2.7665 H   0  0  0  0  0  0  0  0  0  0  0  0
   -0.3786    1.1732    0.6590 C   0  0  0  0  0  0  0  0  0  0  0  0
   -1.3198    1.8277    0.2263 O   0  0  0  0  0  0  0  0  0  0  0  0
    0.4918    1.7510    1.5648 N   0  0  0  0  0  0  0  0  0  0  0  0
    1.2214    1.1635    1.9581 H   0  0  0  0  0  0  0  0  0  0  0  0
    0.3560    3.1230    2.0397 C   0  0  0  0  0  0  0  0  0  0  0  0
   -0.5937    3.2534    2.5694 H   0  0  0  0  0  0  0  0  0  0  0  0
    1.1717    3.3689    2.7265 H   0  0  0  0  0  0  0  0  0  0  0  0
    0.3897    3.8247    1.1994 H   0  0  0  0  0  0  0  0  0  0  0  0
  1  2  1  0  0  0  0
  2  3  1  0  0  0  0
  2  4  1  0  0  0  0
  2  5  1  0  0  0  0
  5  6  2  0  0  0  0
  5  7  1  0  0  0  0
  7  8  1  0  0  0  0
  7  9  1  0  0  0  0
  9 10  1  0  0  0  0
  9 11  1  0  0  0  0
  9 21  1  0  0  0  0
 11 12  1  0  0  0  0
 11 13  1  0  0  0  0
 11 14  1  0  0  0  0
 14 15  1  0  0  0  0
 14 16  1  0  0  0  0
 14 17  1  0  0  0  0
 17 18  2  0  0  0  0
 17 19  1  0  0  0  0
 19 20  1  0  0  0  0
 21 22  2  0  0  0  0
 21 23  1  0  0  0  0
 23 24  1  0  0  0  0
 23 25  1  0  0  0  0
 25 26  1  0  0  0  0
 25 27  1  0  0  0  0
 25 28  1  0  0  0  0
M  END
$$$$

  -OEChem-02102214123D

 28 27  0     1  0  0  0  0  0999 V2000
   -3.1639   -3.8031    1.2795 H   0  0  0  0  0  0  0  0  0  0  0  0
   -3.1595   -2.8163    0.8084 C   0  0  0  0  0  0  0  0  0  0  0  0
   -3.8141   -2.1514    1.3768 H   0  0  0  0  0  0  0  0  0  0  0  0
   -3.5427   -2.9104   -0.2106 H   0  0  0  0  0  0  0  0  0  0  0  0
   -1.7503   -2.2561    0.7810 C   0  0  0  0  0  0  0  0  0  0  0  0
   -0.8229   -2.9063    1.2368 O   0  0  0  0  0  0  0  0  0  0  0  0
   -1.5227   -1.0061    0.2451 N   0  0  0  0  0  0  0  0  0  0  0  0
   -2.3360   -0.4638   -0.0426 H   0  0  0  0  0  0  0  0  0  0  0  0
   -0.2270   -0.3125    0.2490 C   0  0  1  0  0  0  0  0  0  0  0  0
    0.4250   -0.7884    0.9883 H   0  0  0  0  0  0  0  0  0  0  0  0
    0.4083   -0.4376   -1.1483 C   0  0  0  0  0  0  0  0  0  0  0  0
    0.0892   -1.3902   -1.5870 H   0  0  0  0  0  0  0  0  0  0  0  0
    0.0500    0.3606   -1.8085 H   0  0  0  0  0  0  0  0  0  0  0  0
    1.9497   -0.4342   -1.0812 C   0  0  0  0  0  0  0  0  0  0  0  0
    2.3061    0.5725   -0.8475 H   0  0  0  0  0  0  0  0  0  0  0  0
    2.2790   -1.1024   -0.2802 H   0  0  0  0  0  0  0  0  0  0  0  0
    2.6281   -0.9098   -2.3673 C   0  0  0  0  0  0  0  0  0  0  0  0
    1.9853   -0.9991   -3.4004 O   0  0  0  0  0  0  0  0  0  0  0  0
    3.9476   -1.1957   -2.2861 O   0  0  0  0  0  0  0  0  0  0  0  0
    4.2121   -1.4742   -3.1763 H   0  0  0  0  0  0  0  0  0  0  0  0
   -0.3760    1.1657    0.6599 C   0  0  0  0  0  0  0  0  0  0  0  0
   -1.3103    1.8278    0.2238 O   0  0  0  0  0  0  0  0  0  0  0  0
    0.4973    1.7381    1.5662 N   0  0  0  0  0  0  0  0  0  0  0  0
    1.2218    1.1459    1.9621 H   0  0  0  0  0  0  0  0  0  0  0  0
    0.3720    3.1128    2.0356 C   0  0  0  0  0  0  0  0  0  0  0  0
   -0.5808    3.2550    2.5564 H   0  0  0  0  0  0  0  0  0  0  0  0
    1.1841    3.3526    2.7287 H   0  0  0  0  0  0  0  0  0  0  0  0
    0.4203    3.8110    1.1931 H   0  0  0  0  0  0  0  0  0  0  0  0
  1  2  1  0  0  0  0
  2  3  1  0  0  0  0
  2  4  1  0  0  0  0
  2  5  1  0  0  0  0
  5  6  2  0  0  0  0
  5  7  1  0  0  0  0
  7  8  1  0  0  0  0
  7  9  1  0  0  0  0
  9 10  1  0  0  0  0
  9 11  1  0  0  0  0
  9 21  1  0  0  0  0
 11 12  1  0  0  0  0
 11 13  1  0  0  0  0
 11 14  1  0  0  0  0
 14 15  1  0  0  0  0
 14 16  1  0  0  0  0
 14 17  1  0  0  0  0
 17 18  2  0  0  0  0
 17 19  1  0  0  0  0
 19 20  1  0  0  0  0
 21 22  2  0  0  0  0
 21 23  1  0  0  0  0
 23 24  1  0  0  0  0
 23 25  1  0  0  0  0
 25 26  1  0  0  0  0
 25 27  1  0  0  0  0
 25 28  1  0  0  0  0
M  END
$$$$

  -OEChem-02102214123D

 28 27  0     1  0  0  0  0  0999 V2000
   -3.1884   -3.7823    1.2955 H   0  0  0  0  0  0  0  0  0  0  0  0
   -3.1804   -2.8005    0.8140 C   0  0  0  0  0  0  0  0  0  0  0  0
   -3.8260   -2.1254    1.3809 H   0  0  0  0  0  0  0  0  0  0  0  0
   -3.5723   -2.9023   -0.2009 H   0  0  0  0  0  0  0  0  0  0  0  0
   -1.7670   -2.2515    0.7699 C   0  0  0  0  0  0  0  0  0  0  0  0
   -0.8391   -2.9129    1.2084 O   0  0  0  0  0  0  0  0  0  0  0  0
   -1.5349   -1.0004    0.2383 N   0  0  0  0  0  0  0  0  0  0  0  0
   -2.3462   -0.4487   -0.0371 H   0  0  0  0  0  0  0  0  0  0  0  0
   -0.2342   -0.3160    0.2389 C   0  0  1  0  0  0  0  0  0  0  0  0
    0.4157   -0.7940    0.9793 H   0  0  0  0  0  0  0  0  0  0  0  0
    0.4061   -0.4431   -1.1586 C   0  0  0  0  0  0  0  0  0  0  0  0
   -0.1079   -1.2256   -1.7285 H   0  0  0  0  0  0  0  0  0  0  0  0
    0.2868    0.4928   -1.7173 H   0  0  0  0  0  0  0  0  0  0  0  0
    1.8971   -0.8193   -1.0562 C   0  0  0  0  0  0  0  0  0  0  0  0
    2.4258   -0.0552   -0.4802 H   0  0  0  0  0  0  0  0  0  0  0  0
    1.9941   -1.7706   -0.5243 H   0  0  0  0  0  0  0  0  0  0  0  0
    2.5986   -0.9625   -2.4075 C   0  0  0  0  0  0  0  0  0  0  0  0
    1.9616   -0.8638   -3.4432 O   0  0  0  0  0  0  0  0  0  0  0  0
    3.9315   -1.1888   -2.3739 O   0  0  0  0  0  0  0  0  0  0  0  0
    4.2110   -1.2558   -3.2998 H   0  0  0  0  0  0  0  0  0  0  0  0
   -0.3748    1.1610    0.6579 C   0  0  0  0  0  0  0  0  0  0  0  0
   -1.3083    1.8291    0.2296 O   0  0  0  0  0  0  0  0  0  0  0  0
    0.5053    1.7241    1.5633 N   0  0  0  0  0  0  0  0  0  0  0  0
    1.2281    1.1262    1.9537 H   0  0  0  0  0  0  0  0  0  0  0  0
    0.3911    3.0978    2.0383 C   0  0  0  0  0  0  0  0  0  0  0  0
   -0.5644    3.2474    2.5521 H   0  0  0  0  0  0  0  0  0  0  0  0
    1.2001    3.3247    2.7394 H   0  0  0  0  0  0  0  0  0  0  0  0
    0.4541    3.7996    1.1997 H   0  0  0  0  0  0  0  0  0  0  0  0
  1  2  1  0  0  0  0
  2  3  1  0  0  0  0
  2  4  1  0  0  0  0
  2  5  1  0  0  0  0
  5  6  2  0  0  0  0
  5  7  1  0  0  0  0
  7  8  1  0  0  0  0
  7  9  1  0  0  0  0
  9 10  1  0  0  0  0
  9 11  1  0  0  0  0
  9 21  1  0  0  0  0
 11 12  1  0  0  0  0
 11 13  1  0  0  0  0
 11 14  1  0  0  0  0
 14 15  1  0  0  0  0
 14 16  1  0  0  0  0
 14 17  1  0  0  0  0
 17 18  2  0  0  0  0
 17 19  1  0  0  0  0
 19 20  1  0  0  0  0
 21 22  2  0  0  0  0
 21 23  1  0  0  0  0
 23 24  1  0  0  0  0
 23 25  1  0  0  0  0
 25 26  1  0  0  0  0
 25 27  1  0  0  0  0
 25 28  1  0  0  0  0
M  END
$$$$

  -OEChem-02102214123D

 28 27  0     1  0  0  0  0  0999 V2000
   -3.2096   -3.7704    1.2742 H   0  0  0  0  0  0  0  0  0  0  0  0
   -3.1962   -2.7782    0.8143 C   0  0  0  0  0  0  0  0  0  0  0  0
   -3.8278   -2.1081    1.4026 H   0  0  0  0  0  0  0  0  0  0  0  0
   -3.6010   -2.8536   -0.1978 H   0  0  0  0  0  0  0  0  0  0  0  0
   -1.7776   -2.2434    0.7666 C   0  0  0  0  0  0  0  0  0  0  0  0
   -0.8561   -2.9120    1.2079 O   0  0  0  0  0  0  0  0  0  0  0  0
   -1.5342   -0.9957    0.2320 N   0  0  0  0  0  0  0  0  0  0  0  0
   -2.3407   -0.4365   -0.0425 H   0  0  0  0  0  0  0  0  0  0  0  0
   -0.2281   -0.3219    0.2349 C   0  0  1  0  0  0  0  0  0  0  0  0
    0.4157   -0.8040    0.9783 H   0  0  0  0  0  0  0  0  0  0  0  0
    0.4134   -0.4637   -1.1606 C   0  0  0  0  0  0  0  0  0  0  0  0
   -0.1057   -1.2340   -1.7420 H   0  0  0  0  0  0  0  0  0  0  0  0
    0.3054    0.4795   -1.7091 H   0  0  0  0  0  0  0  0  0  0  0  0
    1.9013   -0.8526   -1.0578 C   0  0  0  0  0  0  0  0  0  0  0  0
    2.3841   -0.2343   -0.2961 H   0  0  0  0  0  0  0  0  0  0  0  0
    1.9877   -1.8971   -0.7446 H   0  0  0  0  0  0  0  0  0  0  0  0
    2.6779   -0.6596   -2.3605 C   0  0  0  0  0  0  0  0  0  0  0  0
    2.0812   -0.6263   -3.4239 O   0  0  0  0  0  0  0  0  0  0  0  0
    4.0206   -0.5349   -2.2570 O   0  0  0  0  0  0  0  0  0  0  0  0
    4.3453   -0.4303   -3.1645 H   0  0  0  0  0  0  0  0  0  0  0  0
   -0.3611    1.1575    0.6497 C   0  0  0  0  0  0  0  0  0  0  0  0
   -1.2934    1.8274    0.2215 O   0  0  0  0  0  0  0  0  0  0  0  0
    0.5184    1.7191    1.5569 N   0  0  0  0  0  0  0  0  0  0  0  0
    1.2368    1.1188    1.9514 H   0  0  0  0  0  0  0  0  0  0  0  0
    0.3978    3.0889    2.0420 C   0  0  0  0  0  0  0  0  0  0  0  0
   -0.5450    3.2219    2.5832 H   0  0  0  0  0  0  0  0  0  0  0  0
    1.2233    3.3249    2.7203 H   0  0  0  0  0  0  0  0  0  0  0  0
    0.4268    3.7961    1.2062 H   0  0  0  0  0  0  0  0  0  0  0  0
  1  2  1  0  0  0  0
  2  3  1  0  0  0  0
  2  4  1  0  0  0  0
  2  5  1  0  0  0  0
  5  6  2  0  0  0  0
  5  7  1  0  0  0  0
  7  8  1  0  0  0  0
  7  9  1  0  0  0  0
  9 10  1  0  0  0  0
  9 11  1  0  0  0  0
  9 21  1  0  0  0  0
 11 12  1  0  0  0  0
 11 13  1  0  0  0  0
 11 14  1  0  0  0  0
 14 15  1  0  0  0  0
 14 16  1  0  0  0  0
 14 17  1  0  0  0  0
 17 18  2  0  0  0  0
 17 19  1  0  0  0  0
 19 20  1  0  0  0  0
 21 22  2  0  0  0  0
 21 23  1  0  0  0  0
 23 24  1  0  0  0  0
 23 25  1  0  0  0  0
 25 26  1  0  0  0  0
 25 27  1  0  0  0  0
 25 28  1  0  0  0  0
M  END
$$$$

  -OEChem-02102214123D

 28 27  0     1  0  0  0  0  0999 V2000
   -3.2294   -3.7682    1.2408 H   0  0  0  0  0  0  0  0  0  0  0  0
   -3.2086   -2.7687    0.7974 C   0  0  0  0  0  0  0  0  0  0  0  0
   -3.8476   -2.1078    1.3879 H   0  0  0  0  0  0  0  0  0  0  0  0
   -3.5997   -2.8276   -0.2213 H   0  0  0  0  0  0  0  0  0  0  0  0
   -1.7889   -2.2348    0.7764 C   0  0  0  0  0  0  0  0  0  0  0  0
   -0.8763   -2.9044    1.2342 O   0  0  0  0  0  0  0  0  0  0  0  0
   -1.5333   -0.9913    0.2375 N   0  0  0  0  0  0  0  0  0  0  0  0
   -2.3341   -0.4305   -0.0498 H   0  0  0  0  0  0  0  0  0  0  0  0
   -0.2222   -0.3270    0.2410 C   0  0  1  0  0  0  0  0  0  0  0  0
    0.4124   -0.8124    0.9894 H   0  0  0  0  0  0  0  0  0  0  0  0
    0.4201   -0.4839   -1.1537 C   0  0  0  0  0  0  0  0  0  0  0  0
   -0.1062   -1.2476   -1.7372 H   0  0  0  0  0  0  0  0  0  0  0  0
    0.3146    0.4601   -1.7016 H   0  0  0  0  0  0  0  0  0  0  0  0
    1.9073   -0.8845   -1.0605 C   0  0  0  0  0  0  0  0  0  0  0  0
    2.3455   -0.4642   -0.1511 H   0  0  0  0  0  0  0  0  0  0  0  0
    1.9969   -1.9728   -0.9978 H   0  0  0  0  0  0  0  0  0  0  0  0
    2.7377   -0.3702   -2.2348 C   0  0  0  0  0  0  0  0  0  0  0  0
    2.2647   -0.4056   -3.3583 O   0  0  0  0  0  0  0  0  0  0  0  0
    3.9740    0.1058   -1.9608 O   0  0  0  0  0  0  0  0  0  0  0  0
    4.3465    0.3756   -2.8144 H   0  0  0  0  0  0  0  0  0  0  0  0
   -0.3404    1.1557    0.6487 C   0  0  0  0  0  0  0  0  0  0  0  0
   -1.2658    1.8329    0.2169 O   0  0  0  0  0  0  0  0  0  0  0  0
    0.5434    1.7120    1.5549 N   0  0  0  0  0  0  0  0  0  0  0  0
    1.2585    1.1072    1.9490 H   0  0  0  0  0  0  0  0  0  0  0  0
    0.4310    3.0823    2.0408 C   0  0  0  0  0  0  0  0  0  0  0  0
   -0.5111    3.2204    2.5817 H   0  0  0  0  0  0  0  0  0  0  0  0
    1.2575    3.3126    2.7201 H   0  0  0  0  0  0  0  0  0  0  0  0
    0.4643    3.7902    1.2057 H   0  0  0  0  0  0  0  0  0  0  0  0
  1  2  1  0  0  0  0
  2  3  1  0  0  0  0
  2  4  1  0  0  0  0
  2  5  1  0  0  0  0
  5  6  2  0  0  0  0
  5  7  1  0  0  0  0
  7  8  1  0  0  0  0
  7  9  1  0  0  0  0
  9 10  1  0  0  0  0
  9 11  1  0  0  0  0
  9 21  1  0  0  0  0
 11 12  1  0  0  0  0
 11 13  1  0  0  0  0
 11 14  1  0  0  0  0
 14 15  1  0  0  0  0
 14 16  1  0  0  0  0
 14 17  1  0  0  0  0
 17 18  2  0  0  0  0
 17 19  1  0  0  0  0
 19 20  1  0  0  0  0
 21 22  2  0  0  0  0
 21 23  1  0  0  0  0
 23 24  1  0  0  0  0
 23 25  1  0  0  0  0
 25 26  1  0  0  0  0
 25 27  1  0  0  0  0
 25 28  1  0  0  0  0
M  END
$$$$

  -OEChem-02102214123D

 28 27  0     1  0  0  0  0  0999 V2000
   -3.2813   -3.7430    1.2344 H   0  0  0  0  0  0  0  0  0  0  0  0
   -3.2426   -2.7429    0.7937 C   0  0  0  0  0  0  0  0  0  0  0  0
   -3.8574   -2.0689    1.3952 H   0  0  0  0  0  0  0  0  0  0  0  0
   -3.6484   -2.7887   -0.2198 H   0  0  0  0  0  0  0  0  0  0  0  0
   -1.8108   -2.2433    0.7555 C   0  0  0  0  0  0  0  0  0  0  0  0
   -0.9087   -2.9383    1.1953 O   0  0  0  0  0  0  0  0  0  0  0  0
   -1.5337   -1.0002    0.2262 N   0  0  0  0  0  0  0  0  0  0  0  0
   -2.3257   -0.4185   -0.0432 H   0  0  0  0  0  0  0  0  0  0  0  0
   -0.2121   -0.3569    0.2415 C   0  0  1  0  0  0  0  0  0  0  0  0
    0.4046   -0.8579    0.9943 H   0  0  0  0  0  0  0  0  0  0  0  0
    0.4422   -0.5040   -1.1489 C   0  0  0  0  0  0  0  0  0  0  0  0
   -0.0901   -1.2598   -1.7369 H   0  0  0  0  0  0  0  0  0  0  0  0
    0.3432    0.4417   -1.6954 H   0  0  0  0  0  0  0  0  0  0  0  0
    1.9243   -0.9261   -1.0613 C   0  0  0  0  0  0  0  0  0  0  0  0
    2.3136   -0.7864   -0.0495 H   0  0  0  0  0  0  0  0  0  0  0  0
    2.0221   -1.9888   -1.3026 H   0  0  0  0  0  0  0  0  0  0  0  0
    2.7939   -0.1055   -2.0056 C   0  0  0  0  0  0  0  0  0  0  0  0
    2.7758   -0.3703   -3.1948 O   0  0  0  0  0  0  0  0  0  0  0  0
    3.5242    0.9010   -1.4720 O   0  0  0  0  0  0  0  0  0  0  0  0
    3.9908    1.3099   -2.2173 H   0  0  0  0  0  0  0  0  0  0  0  0
   -0.3064    1.1247    0.6582 C   0  0  0  0  0  0  0  0  0  0  0  0
   -1.2190    1.8189    0.2259 O   0  0  0  0  0  0  0  0  0  0  0  0
    0.5817    1.6609    1.5718 N   0  0  0  0  0  0  0  0  0  0  0  0
    1.3238    1.0601    1.9192 H   0  0  0  0  0  0  0  0  0  0  0  0
    0.5312    3.0491    2.0139 C   0  0  0  0  0  0  0  0  0  0  0  0
   -0.4177    3.2557    2.5200 H   0  0  0  0  0  0  0  0  0  0  0  0
    1.3475    3.2542    2.7131 H   0  0  0  0  0  0  0  0  0  0  0  0
    0.6300    3.7267    1.1593 H   0  0  0  0  0  0  0  0  0  0  0  0
  1  2  1  0  0  0  0
  2  3  1  0  0  0  0
  2  4  1  0  0  0  0
  2  5  1  0  0  0  0
  5  6  2  0  0  0  0
  5  7  1  0  0  0  0
  7  8  1  0  0  0  0
  7  9  1  0  0  0  0
  9 10  1  0  0  0  0
  9 11  1  0  0  0  0
  9 21  1  0  0  0  0
 11 12  1  0  0  0  0
 11 13  1  0  0  0  0
 11 14  1  0  0  0  0
 14 15  1  0  0  0  0
 14 16  1  0  0  0  0
 14 17  1  0  0  0  0
 17 18  2  0  0  0  0
 17 19  1  0  0  0  0
 19 20  1  0  0  0  0
 21 22  2  0  0  0  0
 21 23  1  0  0  0  0
 23 24  1  0  0  0  0
 23 25  1  0  0  0  0
 25 26  1  0  0  0  0
 25 27  1  0  0  0  0
 25 28  1  0  0  0  0
M  END
$$$$

  -OEChem-02102214123D

 28 27  0     1  0  0  0  0  0999 V2000
   -3.1761   -3.7848    1.3189 H   0  0  0  0  0  0  0  0  0  0  0  0
   -3.1735   -2.8083    0.8268 C   0  0  0  0  0  0  0  0  0  0  0  0
   -3.8115   -2.1267    1.3944 H   0  0  0  0  0  0  0  0  0  0  0  0
   -3.5783   -2.9206   -0.1818 H   0  0  0  0  0  0  0  0  0  0  0  0
   -1.7607   -2.2604    0.7593 C   0  0  0  0  0  0  0  0  0  0  0  0
   -0.8254   -2.9276    1.1723 O   0  0  0  0  0  0  0  0  0  0  0  0
   -1.5379   -1.0053    0.2331 N   0  0  0  0  0  0  0  0  0  0  0  0
   -2.3559   -0.4467   -0.0073 H   0  0  0  0  0  0  0  0  0  0  0  0
   -0.2428   -0.3095    0.2429 C   0  0  1  0  0  0  0  0  0  0  0  0
    0.3929   -0.7855    0.9951 H   0  0  0  0  0  0  0  0  0  0  0  0
    0.4125   -0.4218   -1.1520 C   0  0  0  0  0  0  0  0  0  0  0  0
   -0.0862   -1.2188   -1.7142 H   0  0  0  0  0  0  0  0  0  0  0  0
    0.2305    0.4998   -1.7148 H   0  0  0  0  0  0  0  0  0  0  0  0
    1.9220   -0.7855   -1.0851 C   0  0  0  0  0  0  0  0  0  0  0  0
    2.2369   -0.9459   -0.0514 H   0  0  0  0  0  0  0  0  0  0  0  0
    2.0683   -1.7357   -1.6065 H   0  0  0  0  0  0  0  0  0  0  0  0
    2.8904    0.2272   -1.7042 C   0  0  0  0  0  0  0  0  0  0  0  0
    2.4763    1.1838   -2.3360 O   0  0  0  0  0  0  0  0  0  0  0  0
    4.2056   -0.0055   -1.4939 O   0  0  0  0  0  0  0  0  0  0  0  0
    4.6757    0.7095   -1.9496 H   0  0  0  0  0  0  0  0  0  0  0  0
   -0.3981    1.1650    0.6665 C   0  0  0  0  0  0  0  0  0  0  0  0
   -1.3588    1.8130    0.2675 O   0  0  0  0  0  0  0  0  0  0  0  0
    0.4731    1.7324    1.5779 N   0  0  0  0  0  0  0  0  0  0  0  0
    1.2439    1.1622    1.9133 H   0  0  0  0  0  0  0  0  0  0  0  0
    0.3624    3.1121    2.0360 C   0  0  0  0  0  0  0  0  0  0  0  0
   -0.6074    3.2806    2.5163 H   0  0  0  0  0  0  0  0  0  0  0  0
    1.1503    3.3343    2.7622 H   0  0  0  0  0  0  0  0  0  0  0  0
    0.4633    3.8043    1.1932 H   0  0  0  0  0  0  0  0  0  0  0  0
  1  2  1  0  0  0  0
  2  3  1  0  0  0  0
  2  4  1  0  0  0  0
  2  5  1  0  0  0  0
  5  6  2  0  0  0  0
  5  7  1  0  0  0  0
  7  8  1  0  0  0  0
  7  9  1  0  0  0  0
  9 10  1  0  0  0  0
  9 11  1  0  0  0  0
  9 21  1  0  0  0  0
 11 12  1  0  0  0  0
 11 13  1  0  0  0  0
 11 14  1  0  0  0  0
 14 15  1  0  0  0  0
 14 16  1  0  0  0  0
 14 17  1  0  0  0  0
 17 18  2  0  0  0  0
 17 19  1  0  0  0  0
 19 20  1  0  0  0  0
 21 22  2  0  0  0  0
 21 23  1  0  0  0  0
 23 24  1  0  0  0  0
 23 25  1  0  0  0  0
 25 26  1  0  0  0  0
 25 27  1  0  0  0  0
 25 28  1  0  0  0  0
M  END
$$$$

  -OEChem-02102214123D

 28 27  0     1  0  0  0  0  0999 V2000
   -3.2684   -3.7745    1.1642 H   0  0  0  0  0  0  0  0  0  0  0  0
   -3.2270   -2.7725    0.7277 C   0  0  0  0  0  0  0  0  0  0  0  0
   -3.8683   -2.1072    1.3110 H   0  0  0  0  0  0  0  0  0  0  0  0
   -3.5997   -2.8197   -0.2983 H   0  0  0  0  0  0  0  0  0  0  0  0
   -1.8009   -2.2560    0.7367 C   0  0  0  0  0  0  0  0  0  0  0  0
   -0.9071   -2.9360    1.2156 O   0  0  0  0  0  0  0  0  0  0  0  0
   -1.5179   -1.0208    0.1929 N   0  0  0  0  0  0  0  0  0  0  0  0
   -2.3092   -0.4468   -0.0959 H   0  0  0  0  0  0  0  0  0  0  0  0
   -0.2144   -0.3467    0.2837 C   0  0  1  0  0  0  0  0  0  0  0  0
    0.3513   -0.8059    1.1001 H   0  0  0  0  0  0  0  0  0  0  0  0
    0.5577   -0.4957   -1.0439 C   0  0  0  0  0  0  0  0  0  0  0  0
    0.0968   -1.3041   -1.6219 H   0  0  0  0  0  0  0  0  0  0  0  0
    0.4672    0.4123   -1.6519 H   0  0  0  0  0  0  0  0  0  0  0  0
    2.0373   -0.8756   -0.8233 C   0  0  0  0  0  0  0  0  0  0  0  0
    2.2144   -1.2956    0.1706 H   0  0  0  0  0  0  0  0  0  0  0  0
    2.3105   -1.6510   -1.5449 H   0  0  0  0  0  0  0  0  0  0  0  0
    2.9558    0.3161   -1.0555 C   0  0  0  0  0  0  0  0  0  0  0  0
    3.0750    1.1211   -0.1462 O   0  0  0  0  0  0  0  0  0  0  0  0
    3.5698    0.4378   -2.2547 O   0  0  0  0  0  0  0  0  0  0  0  0
    4.0894    1.2549   -2.2091 H   0  0  0  0  0  0  0  0  0  0  0  0
   -0.3765    1.1425    0.6519 C   0  0  0  0  0  0  0  0  0  0  0  0
   -1.3032    1.7840    0.1684 O   0  0  0  0  0  0  0  0  0  0  0  0
    0.4306    1.7253    1.6104 N   0  0  0  0  0  0  0  0  0  0  0  0
    1.2809    1.2222    1.8532 H   0  0  0  0  0  0  0  0  0  0  0  0
    0.3502    3.1406    1.9492 C   0  0  0  0  0  0  0  0  0  0  0  0
   -0.6544    3.3947    2.3037 H   0  0  0  0  0  0  0  0  0  0  0  0
    1.0650    3.3798    2.7425 H   0  0  0  0  0  0  0  0  0  0  0  0
    0.5823    3.7574    1.0746 H   0  0  0  0  0  0  0  0  0  0  0  0
  1  2  1  0  0  0  0
  2  3  1  0  0  0  0
  2  4  1  0  0  0  0
  2  5  1  0  0  0  0
  5  6  2  0  0  0  0
  5  7  1  0  0  0  0
  7  8  1  0  0  0  0
  7  9  1  0  0  0  0
  9 10  1  0  0  0  0
  9 11  1  0  0  0  0
  9 21  1  0  0  0  0
 11 12  1  0  0  0  0
 11 13  1  0  0  0  0
 11 14  1  0  0  0  0
 14 15  1  0  0  0  0
 14 16  1  0  0  0  0
 14 17  1  0  0  0  0
 17 18  2  0  0  0  0
 17 19  1  0  0  0  0
 19 20  1  0  0  0  0
 21 22  2  0  0  0  0
 21 23  1  0  0  0  0
 23 24  1  0  0  0  0
 23 25  1  0  0  0  0
 25 26  1  0  0  0  0
 25 27  1  0  0  0  0
 25 28  1  0  0  0  0
M  END
$$$$

  -OEChem-02102214123D

 28 27  0     1  0  0  0  0  0999 V2000
   -3.3001   -3.7360    1.1567 H   0  0  0  0  0  0  0  0  0  0  0  0
   -3.2470   -2.7285    0.7347 C   0  0  0  0  0  0  0  0  0  0  0  0
   -3.8631   -2.0597    1.3404 H   0  0  0  0  0  0  0  0  0  0  0  0
   -3.6403   -2.7521   -0.2846 H   0  0  0  0  0  0  0  0  0  0  0  0
   -1.8108   -2.2406    0.7256 C   0  0  0  0  0  0  0  0  0  0  0  0
   -0.9256   -2.9356    1.1987 O   0  0  0  0  0  0  0  0  0  0  0  0
   -1.5101   -1.0109    0.1791 N   0  0  0  0  0  0  0  0  0  0  0  0
   -2.2939   -0.4221   -0.1005 H   0  0  0  0  0  0  0  0  0  0  0  0
   -0.1978   -0.3547    0.2734 C   0  0  1  0  0  0  0  0  0  0  0  0
    0.3653   -0.8155    1.0915 H   0  0  0  0  0  0  0  0  0  0  0  0
    0.5738   -0.5230   -1.0527 C   0  0  0  0  0  0  0  0  0  0  0  0
    0.1036   -1.3280   -1.6279 H   0  0  0  0  0  0  0  0  0  0  0  0
    0.5064    0.3836   -1.6657 H   0  0  0  0  0  0  0  0  0  0  0  0
    2.0430   -0.9244   -0.8187 C   0  0  0  0  0  0  0  0  0  0  0  0
    2.1487   -1.5734    0.0560 H   0  0  0  0  0  0  0  0  0  0  0  0
    2.3899   -1.4987   -1.6825 H   0  0  0  0  0  0  0  0  0  0  0  0
    2.9441    0.2957   -0.6874 C   0  0  0  0  0  0  0  0  0  0  0  0
    3.0577    0.8018    0.4176 O   0  0  0  0  0  0  0  0  0  0  0  0
    3.5455    0.7748   -1.8002 O   0  0  0  0  0  0  0  0  0  0  0  0
    4.0574    1.5486   -1.5197 H   0  0  0  0  0  0  0  0  0  0  0  0
   -0.3568    1.1366    0.6376 C   0  0  0  0  0  0  0  0  0  0  0  0
   -1.2813    1.7785    0.1505 O   0  0  0  0  0  0  0  0  0  0  0  0
    0.4444    1.7209    1.5996 N   0  0  0  0  0  0  0  0  0  0  0  0
    1.3055    1.2260    1.8297 H   0  0  0  0  0  0  0  0  0  0  0  0
    0.3472    3.1311    1.9546 C   0  0  0  0  0  0  0  0  0  0  0  0
   -0.6545    3.3638    2.3310 H   0  0  0  0  0  0  0  0  0  0  0  0
    1.0730    3.3739    2.7368 H   0  0  0  0  0  0  0  0  0  0  0  0
    0.5516    3.7614    1.0827 H   0  0  0  0  0  0  0  0  0  0  0  0
  1  2  1  0  0  0  0
  2  3  1  0  0  0  0
  2  4  1  0  0  0  0
  2  5  1  0  0  0  0
  5  6  2  0  0  0  0
  5  7  1  0  0  0  0
  7  8  1  0  0  0  0
  7  9  1  0  0  0  0
  9 10  1  0  0  0  0
  9 11  1  0  0  0  0
  9 21  1  0  0  0  0
 11 12  1  0  0  0  0
 11 13  1  0  0  0  0
 11 14  1  0  0  0  0
 14 15  1  0  0  0  0
 14 16  1  0  0  0  0
 14 17  1  0  0  0  0
 17 18  2  0  0  0  0
 17 19  1  0  0  0  0
 19 20  1  0  0  0  0
 21 22  2  0  0  0  0
 21 23  1  0  0  0  0
 23 24  1  0  0  0  0
 23 25  1  0  0  0  0
 25 26  1  0  0  0  0
 25 27  1  0  0  0  0
 25 28  1  0  0  0  0
M  END
$$$$

  -OEChem-02102214123D

 28 27  0     1  0  0  0  0  0999 V2000
   -3.3110   -3.7183    1.1593 H   0  0  0  0  0  0  0  0  0  0  0  0
   -3.2533   -2.7103    0.7389 C   0  0  0  0  0  0  0  0  0  0  0  0
   -3.8701   -2.0404    1.3428 H   0  0  0  0  0  0  0  0  0  0  0  0
   -3.6421   -2.7319   -0.2820 H   0  0  0  0  0  0  0  0  0  0  0  0
   -1.8155   -2.2270    0.7356 C   0  0  0  0  0  0  0  0  0  0  0  0
   -0.9341   -2.9271    1.2079 O   0  0  0  0  0  0  0  0  0  0  0  0
   -1.5074   -0.9999    0.1871 N   0  0  0  0  0  0  0  0  0  0  0  0
   -2.2869   -0.4081   -0.0978 H   0  0  0  0  0  0  0  0  0  0  0  0
   -0.1904   -0.3528    0.2787 C   0  0  1  0  0  0  0  0  0  0  0  0
    0.3778   -0.8175    1.0917 H   0  0  0  0  0  0  0  0  0  0  0  0
    0.5667   -0.5433   -1.0541 C   0  0  0  0  0  0  0  0  0  0  0  0
    0.0804   -1.3396   -1.6280 H   0  0  0  0  0  0  0  0  0  0  0  0
    0.5119    0.3668   -1.6626 H   0  0  0  0  0  0  0  0  0  0  0  0
    2.0337   -0.9592   -0.8387 C   0  0  0  0  0  0  0  0  0  0  0  0
    2.0947   -1.7823   -0.1196 H   0  0  0  0  0  0  0  0  0  0  0  0
    2.4397   -1.3269   -1.7852 H   0  0  0  0  0  0  0  0  0  0  0  0
    2.9053    0.2007   -0.3727 C   0  0  0  0  0  0  0  0  0  0  0  0
    2.9786    0.4244    0.8253 O   0  0  0  0  0  0  0  0  0  0  0  0
    3.5314    0.9425   -1.3146 O   0  0  0  0  0  0  0  0  0  0  0  0
    4.0276    1.6254   -0.8383 H   0  0  0  0  0  0  0  0  0  0  0  0
   -0.3470    1.1393    0.6418 C   0  0  0  0  0  0  0  0  0  0  0  0
   -1.2571    1.7900    0.1398 O   0  0  0  0  0  0  0  0  0  0  0  0
    0.4544    1.7234    1.6034 N   0  0  0  0  0  0  0  0  0  0  0  0
    1.2847    1.2002    1.8840 H   0  0  0  0  0  0  0  0  0  0  0  0
    0.3633    3.1320    1.9651 C   0  0  0  0  0  0  0  0  0  0  0  0
   -0.6400    3.3687    2.3346 H   0  0  0  0  0  0  0  0  0  0  0  0
    1.0843    3.3667    2.7540 H   0  0  0  0  0  0  0  0  0  0  0  0
    0.5782    3.7650    1.0979 H   0  0  0  0  0  0  0  0  0  0  0  0
  1  2  1  0  0  0  0
  2  3  1  0  0  0  0
  2  4  1  0  0  0  0
  2  5  1  0  0  0  0
  5  6  2  0  0  0  0
  5  7  1  0  0  0  0
  7  8  1  0  0  0  0
  7  9  1  0  0  0  0
  9 10  1  0  0  0  0
  9 11  1  0  0  0  0
  9 21  1  0  0  0  0
 11 12  1  0  0  0  0
 11 13  1  0  0  0  0
 11 14  1  0  0  0  0
 14 15  1  0  0  0  0
 14 16  1  0  0  0  0
 14 17  1  0  0  0  0
 17 18  2  0  0  0  0
 17 19  1  0  0  0  0
 19 20  1  0  0  0  0
 21 22  2  0  0  0  0
 21 23  1  0  0  0  0
 23 24  1  0  0  0  0
 23 25  1  0  0  0  0
 25 26  1  0  0  0  0
 25 27  1  0  0  0  0
 25 28  1  0  0  0  0
M  END
$$$$

  -OEChem-02102214123D

 28 27  0     1  0  0  0  0  0999 V2000
   -3.3312   -3.6935    1.1972 H   0  0  0  0  0  0  0  0  0  0  0  0
   -3.2684   -2.6949    0.7559 C   0  0  0  0  0  0  0  0  0  0  0  0
   -3.8739   -2.0079    1.3520 H   0  0  0  0  0  0  0  0  0  0  0  0
   -3.6666   -2.7335   -0.2608 H   0  0  0  0  0  0  0  0  0  0  0  0
   -1.8265   -2.2244    0.7303 C   0  0  0  0  0  0  0  0  0  0  0  0
   -0.9448   -2.9323    1.1901 O   0  0  0  0  0  0  0  0  0  0  0  0
   -1.5174   -0.9971    0.1822 N   0  0  0  0  0  0  0  0  0  0  0  0
   -2.2976   -0.4040   -0.0976 H   0  0  0  0  0  0  0  0  0  0  0  0
   -0.1999   -0.3502    0.2726 C   0  0  1  0  0  0  0  0  0  0  0  0
    0.3600   -0.8226    1.0865 H   0  0  0  0  0  0  0  0  0  0  0  0
    0.5585   -0.5618   -1.0572 C   0  0  0  0  0  0  0  0  0  0  0  0
    0.0659   -1.3523   -1.6336 H   0  0  0  0  0  0  0  0  0  0  0  0
    0.5089    0.3514   -1.6613 H   0  0  0  0  0  0  0  0  0  0  0  0
    2.0302   -0.9778   -0.8631 C   0  0  0  0  0  0  0  0  0  0  0  0
    2.0697   -1.9331   -0.3299 H   0  0  0  0  0  0  0  0  0  0  0  0
    2.4921   -1.1310   -1.8426 H   0  0  0  0  0  0  0  0  0  0  0  0
    2.8545    0.0504   -0.0928 C   0  0  0  0  0  0  0  0  0  0  0  0
    2.8521    0.0191    1.1278 O   0  0  0  0  0  0  0  0  0  0  0  0
    3.5243    0.9771   -0.8152 O   0  0  0  0  0  0  0  0  0  0  0  0
    3.9840    1.5421   -0.1761 H   0  0  0  0  0  0  0  0  0  0  0  0
   -0.3400    1.1426    0.6354 C   0  0  0  0  0  0  0  0  0  0  0  0
   -1.2289    1.8115    0.1207 O   0  0  0  0  0  0  0  0  0  0  0  0
    0.4726    1.7135    1.5955 N   0  0  0  0  0  0  0  0  0  0  0  0
    1.2425    1.1432    1.9479 H   0  0  0  0  0  0  0  0  0  0  0  0
    0.3947    3.1158    1.9830 C   0  0  0  0  0  0  0  0  0  0  0  0
   -0.6120    3.3599    2.3381 H   0  0  0  0  0  0  0  0  0  0  0  0
    1.1036    3.3246    2.7900 H   0  0  0  0  0  0  0  0  0  0  0  0
    0.6350    3.7621    1.1325 H   0  0  0  0  0  0  0  0  0  0  0  0
  1  2  1  0  0  0  0
  2  3  1  0  0  0  0
  2  4  1  0  0  0  0
  2  5  1  0  0  0  0
  5  6  2  0  0  0  0
  5  7  1  0  0  0  0
  7  8  1  0  0  0  0
  7  9  1  0  0  0  0
  9 10  1  0  0  0  0
  9 11  1  0  0  0  0
  9 21  1  0  0  0  0
 11 12  1  0  0  0  0
 11 13  1  0  0  0  0
 11 14  1  0  0  0  0
 14 15  1  0  0  0  0
 14 16  1  0  0  0  0
 14 17  1  0  0  0  0
 17 18  2  0  0  0  0
 17 19  1  0  0  0  0
 19 20  1  0  0  0  0
 21 22  2  0  0  0  0
 21 23  1  0  0  0  0
 23 24  1  0  0  0  0
 23 25  1  0  0  0  0
 25 26  1  0  0  0  0
 25 27  1  0  0  0  0
 25 28  1  0  0  0  0
M  END
$$$$

  -OEChem-02102214123D

 28 27  0     1  0  0  0  0  0999 V2000
   -3.1726   -3.7376    1.2875 H   0  0  0  0  0  0  0  0  0  0  0  0
   -3.1500   -2.7508    0.8168 C   0  0  0  0  0  0  0  0  0  0  0  0
   -3.7727   -2.0680    1.4000 H   0  0  0  0  0  0  0  0  0  0  0  0
   -3.5575   -2.8322   -0.1937 H   0  0  0  0  0  0  0  0  0  0  0  0
   -1.7263   -2.2314    0.7592 C   0  0  0  0  0  0  0  0  0  0  0  0
   -0.8051   -2.9222    1.1655 O   0  0  0  0  0  0  0  0  0  0  0  0
   -1.4755   -0.9793    0.2404 N   0  0  0  0  0  0  0  0  0  0  0  0
   -2.2821   -0.3897    0.0340 H   0  0  0  0  0  0  0  0  0  0  0  0
   -0.1730   -0.2999    0.3089 C   0  0  1  0  0  0  0  0  0  0  0  0
    0.4609   -0.7673    1.0695 H   0  0  0  0  0  0  0  0  0  0  0  0
    0.4940   -0.4025   -1.0851 C   0  0  0  0  0  0  0  0  0  0  0  0
   -0.0423   -1.1375   -1.6951 H   0  0  0  0  0  0  0  0  0  0  0  0
    0.3892    0.5625   -1.5936 H   0  0  0  0  0  0  0  0  0  0  0  0
    1.9913   -0.8004   -1.0886 C   0  0  0  0  0  0  0  0  0  0  0  0
    2.0397   -1.8746   -0.8845 H   0  0  0  0  0  0  0  0  0  0  0  0
    2.3908   -0.6453   -2.0943 H   0  0  0  0  0  0  0  0  0  0  0  0
    2.9423   -0.1261   -0.1002 C   0  0  0  0  0  0  0  0  0  0  0  0
    2.6821    0.9769    0.3467 O   0  0  0  0  0  0  0  0  0  0  0  0
    4.0654   -0.8092    0.2183 O   0  0  0  0  0  0  0  0  0  0  0  0
    4.5640   -0.2479    0.8309 H   0  0  0  0  0  0  0  0  0  0  0  0
   -0.4442    1.1670    0.7329 C   0  0  0  0  0  0  0  0  0  0  0  0
   -1.4444    1.7365    0.3042 O   0  0  0  0  0  0  0  0  0  0  0  0
    0.3163    1.7964    1.6992 N   0  0  0  0  0  0  0  0  0  0  0  0
    1.2504    1.4118    1.8318 H   0  0  0  0  0  0  0  0  0  0  0  0
    0.0928    3.1830    2.0901 C   0  0  0  0  0  0  0  0  0  0  0  0
   -0.9286    3.3176    2.4616 H   0  0  0  0  0  0  0  0  0  0  0  0
    0.7873    3.4670    2.8864 H   0  0  0  0  0  0  0  0  0  0  0  0
    0.2490    3.8513    1.2367 H   0  0  0  0  0  0  0  0  0  0  0  0
  1  2  1  0  0  0  0
  2  3  1  0  0  0  0
  2  4  1  0  0  0  0
  2  5  1  0  0  0  0
  5  6  2  0  0  0  0
  5  7  1  0  0  0  0
  7  8  1  0  0  0  0
  7  9  1  0  0  0  0
  9 10  1  0  0  0  0
  9 11  1  0  0  0  0
  9 21  1  0  0  0  0
 11 12  1  0  0  0  0
 11 13  1  0  0  0  0
 11 14  1  0  0  0  0
 14 15  1  0  0  0  0
 14 16  1  0  0  0  0
 14 17  1  0  0  0  0
 17 18  2  0  0  0  0
 17 19  1  0  0  0  0
 19 20  1  0  0  0  0
 21 22  2  0  0  0  0
 21 23  1  0  0  0  0
 23 24  1  0  0  0  0
 23 25  1  0  0  0  0
 25 26  1  0  0  0  0
 25 27  1  0  0  0  0
 25 28  1  0  0  0  0
M  END
$$$$

  -OEChem-02102214123D

 28 27  0     1  0  0  0  0  0999 V2000
   -3.1737   -3.7486    1.2819 H   0  0  0  0  0  0  0  0  0  0  0  0
   -3.1523   -2.7604    0.8139 C   0  0  0  0  0  0  0  0  0  0  0  0
   -3.7757   -2.0804    1.3996 H   0  0  0  0  0  0  0  0  0  0  0  0
   -3.5608   -2.8392   -0.1964 H   0  0  0  0  0  0  0  0  0  0  0  0
   -1.7287   -2.2392    0.7571 C   0  0  0  0  0  0  0  0  0  0  0  0
   -0.8082   -2.9258    1.1715 O   0  0  0  0  0  0  0  0  0  0  0  0
   -1.4785   -0.9879    0.2356 N   0  0  0  0  0  0  0  0  0  0  0  0
   -2.2862   -0.4035    0.0201 H   0  0  0  0  0  0  0  0  0  0  0  0
   -0.1806   -0.3004    0.3134 C   0  0  1  0  0  0  0  0  0  0  0  0
    0.4379   -0.7667    1.0864 H   0  0  0  0  0  0  0  0  0  0  0  0
    0.5098   -0.3997   -1.0703 C   0  0  0  0  0  0  0  0  0  0  0  0
   -0.0192   -1.1302   -1.6919 H   0  0  0  0  0  0  0  0  0  0  0  0
    0.4041    0.5681   -1.5735 H   0  0  0  0  0  0  0  0  0  0  0  0
    2.0136   -0.7831   -1.0773 C   0  0  0  0  0  0  0  0  0  0  0  0
    2.0619   -1.8750   -1.1357 H   0  0  0  0  0  0  0  0  0  0  0  0
    2.4749   -0.3932   -1.9887 H   0  0  0  0  0  0  0  0  0  0  0  0
    2.8906   -0.3798    0.1089 C   0  0  0  0  0  0  0  0  0  0  0  0
    2.7259    0.7030    0.6447 O   0  0  0  0  0  0  0  0  0  0  0  0
    3.8414   -1.2618    0.4935 O   0  0  0  0  0  0  0  0  0  0  0  0
    4.3089   -0.8561    1.2389 H   0  0  0  0  0  0  0  0  0  0  0  0
   -0.4471    1.1690    0.7274 C   0  0  0  0  0  0  0  0  0  0  0  0
   -1.4378    1.7431    0.2839 O   0  0  0  0  0  0  0  0  0  0  0  0
    0.3109    1.7988    1.6948 N   0  0  0  0  0  0  0  0  0  0  0  0
    1.2336    1.3954    1.8566 H   0  0  0  0  0  0  0  0  0  0  0  0
    0.0947    3.1875    2.0822 C   0  0  0  0  0  0  0  0  0  0  0  0
   -0.9302    3.3318    2.4403 H   0  0  0  0  0  0  0  0  0  0  0  0
    0.7811    3.4658    2.8874 H   0  0  0  0  0  0  0  0  0  0  0  0
    0.2677    3.8540    1.2309 H   0  0  0  0  0  0  0  0  0  0  0  0
  1  2  1  0  0  0  0
  2  3  1  0  0  0  0
  2  4  1  0  0  0  0
  2  5  1  0  0  0  0
  5  6  2  0  0  0  0
  5  7  1  0  0  0  0
  7  8  1  0  0  0  0
  7  9  1  0  0  0  0
  9 10  1  0  0  0  0
  9 11  1  0  0  0  0
  9 21  1  0  0  0  0
 11 12  1  0  0  0  0
 11 13  1  0  0  0  0
 11 14  1  0  0  0  0
 14 15  1  0  0  0  0
 14 16  1  0  0  0  0
 14 17  1  0  0  0  0
 17 18  2  0  0  0  0
 17 19  1  0  0  0  0
 19 20  1  0  0  0  0
 21 22  2  0  0  0  0
 21 23  1  0  0  0  0
 23 24  1  0  0  0  0
 23 25  1  0  0  0  0
 25 26  1  0  0  0  0
 25 27  1  0  0  0  0
 25 28  1  0  0  0  0
M  END
$$$$

  -OEChem-02102214123D

 28 27  0     1  0  0  0  0  0999 V2000
   -3.1701   -3.7824    1.2671 H   0  0  0  0  0  0  0  0  0  0  0  0
   -3.1525   -2.7989    0.7891 C   0  0  0  0  0  0  0  0  0  0  0  0
   -3.8046   -2.1239    1.3487 H   0  0  0  0  0  0  0  0  0  0  0  0
   -3.5298   -2.8961   -0.2318 H   0  0  0  0  0  0  0  0  0  0  0  0
   -1.7373   -2.2529    0.7669 C   0  0  0  0  0  0  0  0  0  0  0  0
   -0.8163   -2.9221    1.2079 O   0  0  0  0  0  0  0  0  0  0  0  0
   -1.4965   -1.0010    0.2411 N   0  0  0  0  0  0  0  0  0  0  0  0
   -2.3084   -0.4356   -0.0051 H   0  0  0  0  0  0  0  0  0  0  0  0
   -0.2084   -0.2954    0.3178 C   0  0  1  0  0  0  0  0  0  0  0  0
    0.3896   -0.7585    1.1067 H   0  0  0  0  0  0  0  0  0  0  0  0
    0.5073   -0.4056   -1.0529 C   0  0  0  0  0  0  0  0  0  0  0  0
   -0.0013   -1.1627   -1.6597 H   0  0  0  0  0  0  0  0  0  0  0  0
    0.3808    0.5452   -1.5829 H   0  0  0  0  0  0  0  0  0  0  0  0
    2.0200   -0.7612   -1.0512 C   0  0  0  0  0  0  0  0  0  0  0  0
    2.1080   -1.8034   -1.3731 H   0  0  0  0  0  0  0  0  0  0  0  0
    2.5271   -0.1531   -1.8051 H   0  0  0  0  0  0  0  0  0  0  0  0
    2.8032   -0.6414    0.2575 C   0  0  0  0  0  0  0  0  0  0  0  0
    2.7432    0.3974    0.8960 O   0  0  0  0  0  0  0  0  0  0  0  0
    3.5486   -1.7053    0.6343 O   0  0  0  0  0  0  0  0  0  0  0  0
    3.9669   -1.4658    1.4747 H   0  0  0  0  0  0  0  0  0  0  0  0
   -0.4465    1.1786    0.7207 C   0  0  0  0  0  0  0  0  0  0  0  0
   -1.4211    1.7730    0.2707 O   0  0  0  0  0  0  0  0  0  0  0  0
    0.3351    1.7926    1.6795 N   0  0  0  0  0  0  0  0  0  0  0  0
    1.2322    1.3455    1.8722 H   0  0  0  0  0  0  0  0  0  0  0  0
    0.1602    3.1857    2.0701 C   0  0  0  0  0  0  0  0  0  0  0  0
   -0.8583    3.3577    2.4340 H   0  0  0  0  0  0  0  0  0  0  0  0
    0.8585    3.4431    2.8722 H   0  0  0  0  0  0  0  0  0  0  0  0
    0.3470    3.8485    1.2188 H   0  0  0  0  0  0  0  0  0  0  0  0
  1  2  1  0  0  0  0
  2  3  1  0  0  0  0
  2  4  1  0  0  0  0
  2  5  1  0  0  0  0
  5  6  2  0  0  0  0
  5  7  1  0  0  0  0
  7  8  1  0  0  0  0
  7  9  1  0  0  0  0
  9 10  1  0  0  0  0
  9 11  1  0  0  0  0
  9 21  1  0  0  0  0
 11 12  1  0  0  0  0
 11 13  1  0  0  0  0
 11 14  1  0  0  0  0
 14 15  1  0  0  0  0
 14 16  1  0  0  0  0
 14 17  1  0  0  0  0
 17 18  2  0  0  0  0
 17 19  1  0  0  0  0
 19 20  1  0  0  0  0
 21 22  2  0  0  0  0
 21 23  1  0  0  0  0
 23 24  1  0  0  0  0
 23 25  1  0  0  0  0
 25 26  1  0  0  0  0
 25 27  1  0  0  0  0
 25 28  1  0  0  0  0
M  END
$$$$

  -OEChem-02102214123D

 28 27  0     1  0  0  0  0  0999 V2000
   -3.1584   -3.8250    1.2431 H   0  0  0  0  0  0  0  0  0  0  0  0
   -3.1525   -2.8411    0.7659 C   0  0  0  0  0  0  0  0  0  0  0  0
   -3.8240   -2.1784    1.3174 H   0  0  0  0  0  0  0  0  0  0  0  0
   -3.5144   -2.9449   -0.2598 H   0  0  0  0  0  0  0  0  0  0  0  0
   -1.7475   -2.2696    0.7624 C   0  0  0  0  0  0  0  0  0  0  0  0
   -0.8210   -2.9227    1.2156 O   0  0  0  0  0  0  0  0  0  0  0  0
   -1.5230   -1.0144    0.2363 N   0  0  0  0  0  0  0  0  0  0  0  0
   -2.3419   -0.4686   -0.0281 H   0  0  0  0  0  0  0  0  0  0  0  0
   -0.2454   -0.2893    0.3082 C   0  0  1  0  0  0  0  0  0  0  0  0
    0.3293   -0.7488    1.1138 H   0  0  0  0  0  0  0  0  0  0  0  0
    0.5008   -0.4099   -1.0456 C   0  0  0  0  0  0  0  0  0  0  0  0
    0.0235   -1.2081   -1.6244 H   0  0  0  0  0  0  0  0  0  0  0  0
    0.3487    0.5127   -1.6170 H   0  0  0  0  0  0  0  0  0  0  0  0
    2.0217   -0.7335   -1.0165 C   0  0  0  0  0  0  0  0  0  0  0  0
    2.1835   -1.6526   -1.5876 H   0  0  0  0  0  0  0  0  0  0  0  0
    2.5559    0.0629   -1.5421 H   0  0  0  0  0  0  0  0  0  0  0  0
    2.6972   -0.9141    0.3429 C   0  0  0  0  0  0  0  0  0  0  0  0
    2.7346    0.0373    1.1096 O   0  0  0  0  0  0  0  0  0  0  0  0
    3.2310   -2.1245    0.6240 O   0  0  0  0  0  0  0  0  0  0  0  0
    3.5851   -2.0688    1.5241 H   0  0  0  0  0  0  0  0  0  0  0  0
   -0.4443    1.1871    0.7068 C   0  0  0  0  0  0  0  0  0  0  0  0
   -1.4003    1.8107    0.2585 O   0  0  0  0  0  0  0  0  0  0  0  0
    0.3722    1.7726    1.6544 N   0  0  0  0  0  0  0  0  0  0  0  0
    1.2304    1.2691    1.8843 H   0  0  0  0  0  0  0  0  0  0  0  0
    0.2528    3.1684    2.0550 C   0  0  0  0  0  0  0  0  0  0  0  0
   -0.7488    3.3702    2.4495 H   0  0  0  0  0  0  0  0  0  0  0  0
    0.9828    3.3999    2.8366 H   0  0  0  0  0  0  0  0  0  0  0  0
    0.4355    3.8293    1.2013 H   0  0  0  0  0  0  0  0  0  0  0  0
  1  2  1  0  0  0  0
  2  3  1  0  0  0  0
  2  4  1  0  0  0  0
  2  5  1  0  0  0  0
  5  6  2  0  0  0  0
  5  7  1  0  0  0  0
  7  8  1  0  0  0  0
  7  9  1  0  0  0  0
  9 10  1  0  0  0  0
  9 11  1  0  0  0  0
  9 21  1  0  0  0  0
 11 12  1  0  0  0  0
 11 13  1  0  0  0  0
 11 14  1  0  0  0  0
 14 15  1  0  0  0  0
 14 16  1  0  0  0  0
 14 17  1  0  0  0  0
 17 18  2  0  0  0  0
 17 19  1  0  0  0  0
 19 20  1  0  0  0  0
 21 22  2  0  0  0  0
 21 23  1  0  0  0  0
 23 24  1  0  0  0  0
 23 25  1  0  0  0  0
 25 26  1  0  0  0  0
 25 27  1  0  0  0  0
 25 28  1  0  0  0  0
M  END
$$$$

  -OEChem-02102214123D

 28 27  0     1  0  0  0  0  0999 V2000
   -3.1308   -3.8544    1.2285 H   0  0  0  0  0  0  0  0  0  0  0  0
   -3.1378   -2.8699    0.7522 C   0  0  0  0  0  0  0  0  0  0  0  0
   -3.8177   -2.2164    1.3044 H   0  0  0  0  0  0  0  0  0  0  0  0
   -3.4987   -2.9772   -0.2735 H   0  0  0  0  0  0  0  0  0  0  0  0
   -1.7403   -2.2801    0.7495 C   0  0  0  0  0  0  0  0  0  0  0  0
   -0.8081   -2.9180    1.2130 O   0  0  0  0  0  0  0  0  0  0  0  0
   -1.5311   -1.0227    0.2212 N   0  0  0  0  0  0  0  0  0  0  0  0
   -2.3550   -0.4929   -0.0591 H   0  0  0  0  0  0  0  0  0  0  0  0
   -0.2614   -0.2832    0.2893 C   0  0  1  0  0  0  0  0  0  0  0  0
    0.2983   -0.7335    1.1081 H   0  0  0  0  0  0  0  0  0  0  0  0
    0.5054   -0.4145   -1.0525 C   0  0  0  0  0  0  0  0  0  0  0  0
    0.0549   -1.2467   -1.6045 H   0  0  0  0  0  0  0  0  0  0  0  0
    0.3386    0.4822   -1.6599 H   0  0  0  0  0  0  0  0  0  0  0  0
    2.0282   -0.7149   -0.9905 C   0  0  0  0  0  0  0  0  0  0  0  0
    2.2722   -1.4533   -1.7600 H   0  0  0  0  0  0  0  0  0  0  0  0
    2.5675    0.2013   -1.2480 H   0  0  0  0  0  0  0  0  0  0  0  0
    2.5941   -1.2047    0.3400 C   0  0  0  0  0  0  0  0  0  0  0  0
    2.7529   -0.3864    1.2354 O   0  0  0  0  0  0  0  0  0  0  0  0
    2.8822   -2.5198    0.4612 O   0  0  0  0  0  0  0  0  0  0  0  0
    3.1606   -2.6580    1.3789 H   0  0  0  0  0  0  0  0  0  0  0  0
   -0.4341    1.1941    0.6837 C   0  0  0  0  0  0  0  0  0  0  0  0
   -1.3706    1.8416    0.2304 O   0  0  0  0  0  0  0  0  0  0  0  0
    0.4070    1.7576    1.6237 N   0  0  0  0  0  0  0  0  0  0  0  0
    1.2176    1.2067    1.9082 H   0  0  0  0  0  0  0  0  0  0  0  0
    0.3111    3.1466    2.0527 C   0  0  0  0  0  0  0  0  0  0  0  0
   -0.6795    3.3506    2.4726 H   0  0  0  0  0  0  0  0  0  0  0  0
    1.0604    3.3569    2.8219 H   0  0  0  0  0  0  0  0  0  0  0  0
    0.4820    3.8213    1.2074 H   0  0  0  0  0  0  0  0  0  0  0  0
  1  2  1  0  0  0  0
  2  3  1  0  0  0  0
  2  4  1  0  0  0  0
  2  5  1  0  0  0  0
  5  6  2  0  0  0  0
  5  7  1  0  0  0  0
  7  8  1  0  0  0  0
  7  9  1  0  0  0  0
  9 10  1  0  0  0  0
  9 11  1  0  0  0  0
  9 21  1  0  0  0  0
 11 12  1  0  0  0  0
 11 13  1  0  0  0  0
 11 14  1  0  0  0  0
 14 15  1  0  0  0  0
 14 16  1  0  0  0  0
 14 17  1  0  0  0  0
 17 18  2  0  0  0  0
 17 19  1  0  0  0  0
 19 20  1  0  0  0  0
 21 22  2  0  0  0  0
 21 23  1  0  0  0  0
 23 24  1  0  0  0  0
 23 25  1  0  0  0  0
 25 26  1  0  0  0  0
 25 27  1  0  0  0  0
 25 28  1  0  0  0  0
M  END
$$$$

  -OEChem-02102214123D

 28 27  0     1  0  0  0  0  0999 V2000
   -3.2800   -3.7397    1.3356 H   0  0  0  0  0  0  0  0  0  0  0  0
   -3.2427   -2.7731    0.8253 C   0  0  0  0  0  0  0  0  0  0  0  0
   -3.8973   -2.0728    1.3496 H   0  0  0  0  0  0  0  0  0  0  0  0
   -3.6019   -2.9010   -0.1987 H   0  0  0  0  0  0  0  0  0  0  0  0
   -1.8214   -2.2438    0.8121 C   0  0  0  0  0  0  0  0  0  0  0  0
   -0.9189   -2.9044    1.3007 O   0  0  0  0  0  0  0  0  0  0  0  0
   -1.5585   -1.0047    0.2658 N   0  0  0  0  0  0  0  0  0  0  0  0
   -2.3562   -0.4447   -0.0304 H   0  0  0  0  0  0  0  0  0  0  0  0
   -0.2459   -0.3421    0.2788 C   0  0  1  0  0  0  0  0  0  0  0  0
    0.3427   -0.8161    1.0628 H   0  0  0  0  0  0  0  0  0  0  0  0
    0.4348   -0.4947   -1.1056 C   0  0  0  0  0  0  0  0  0  0  0  0
   -0.0910   -1.2935   -1.6405 H   0  0  0  0  0  0  0  0  0  0  0  0
    0.2924    0.4174   -1.6959 H   0  0  0  0  0  0  0  0  0  0  0  0
    1.9333   -0.8878   -1.1215 C   0  0  0  0  0  0  0  0  0  0  0  0
    2.1563   -1.3951   -2.0652 H   0  0  0  0  0  0  0  0  0  0  0  0
    2.5228    0.0332   -1.1064 H   0  0  0  0  0  0  0  0  0  0  0  0
    2.4393   -1.7499    0.0333 C   0  0  0  0  0  0  0  0  0  0  0  0
    2.5808   -2.9436   -0.1601 O   0  0  0  0  0  0  0  0  0  0  0  0
    2.7556   -1.1370    1.2013 O   0  0  0  0  0  0  0  0  0  0  0  0
    3.0493   -1.8547    1.7863 H   0  0  0  0  0  0  0  0  0  0  0  0
   -0.3386    1.1435    0.6704 C   0  0  0  0  0  0  0  0  0  0  0  0
   -1.2456    1.8379    0.2268 O   0  0  0  0  0  0  0  0  0  0  0  0
    0.5568    1.6778    1.5773 N   0  0  0  0  0  0  0  0  0  0  0  0
    1.3028    1.0710    1.9116 H   0  0  0  0  0  0  0  0  0  0  0  0
    0.5180    3.0662    2.0187 C   0  0  0  0  0  0  0  0  0  0  0  0
   -0.4277    3.2798    2.5278 H   0  0  0  0  0  0  0  0  0  0  0  0
    1.3381    3.2650    2.7153 H   0  0  0  0  0  0  0  0  0  0  0  0
    0.6188    3.7431    1.1639 H   0  0  0  0  0  0  0  0  0  0  0  0
  1  2  1  0  0  0  0
  2  3  1  0  0  0  0
  2  4  1  0  0  0  0
  2  5  1  0  0  0  0
  5  6  2  0  0  0  0
  5  7  1  0  0  0  0
  7  8  1  0  0  0  0
  7  9  1  0  0  0  0
  9 10  1  0  0  0  0
  9 11  1  0  0  0  0
  9 21  1  0  0  0  0
 11 12  1  0  0  0  0
 11 13  1  0  0  0  0
 11 14  1  0  0  0  0
 14 15  1  0  0  0  0
 14 16  1  0  0  0  0
 14 17  1  0  0  0  0
 17 18  2  0  0  0  0
 17 19  1  0  0  0  0
 19 20  1  0  0  0  0
 21 22  2  0  0  0  0
 21 23  1  0  0  0  0
 23 24  1  0  0  0  0
 23 25  1  0  0  0  0
 25 26  1  0  0  0  0
 25 27  1  0  0  0  0
 25 28  1  0  0  0  0
M  END
$$$$

  -OEChem-02102214123D

 28 27  0     1  0  0  0  0  0999 V2000
   -3.1949   -3.7528    1.3900 H   0  0  0  0  0  0  0  0  0  0  0  0
   -3.1699   -2.8068    0.8418 C   0  0  0  0  0  0  0  0  0  0  0  0
   -3.8467   -2.1002    1.3281 H   0  0  0  0  0  0  0  0  0  0  0  0
   -3.5115   -2.9824   -0.1811 H   0  0  0  0  0  0  0  0  0  0  0  0
   -1.7595   -2.2492    0.8265 C   0  0  0  0  0  0  0  0  0  0  0  0
   -0.8424   -2.8924    1.3124 O   0  0  0  0  0  0  0  0  0  0  0  0
   -1.5217   -1.0048    0.2803 N   0  0  0  0  0  0  0  0  0  0  0  0
   -2.3286   -0.4570   -0.0140 H   0  0  0  0  0  0  0  0  0  0  0  0
   -0.2141   -0.3340    0.2683 C   0  0  1  0  0  0  0  0  0  0  0  0
    0.4159   -0.8011    1.0258 H   0  0  0  0  0  0  0  0  0  0  0  0
    0.4175   -0.4640   -1.1411 C   0  0  0  0  0  0  0  0  0  0  0  0
   -0.1201   -1.2490   -1.6848 H   0  0  0  0  0  0  0  0  0  0  0  0
    0.2713    0.4640   -1.7054 H   0  0  0  0  0  0  0  0  0  0  0  0
    1.9120   -0.8533   -1.1712 C   0  0  0  0  0  0  0  0  0  0  0  0
    2.1916   -1.1268   -2.1930 H   0  0  0  0  0  0  0  0  0  0  0  0
    2.5074    0.0214   -0.8956 H   0  0  0  0  0  0  0  0  0  0  0  0
    2.3000   -1.9938   -0.2334 C   0  0  0  0  0  0  0  0  0  0  0  0
    2.2313   -3.1332   -0.6584 O   0  0  0  0  0  0  0  0  0  0  0  0
    2.7257   -1.6811    1.0142 O   0  0  0  0  0  0  0  0  0  0  0  0
    2.8762   -2.5355    1.4503 H   0  0  0  0  0  0  0  0  0  0  0  0
   -0.3274    1.1479    0.6732 C   0  0  0  0  0  0  0  0  0  0  0  0
   -1.2504    1.8306    0.2442 O   0  0  0  0  0  0  0  0  0  0  0  0
    0.5726    1.6960    1.5674 N   0  0  0  0  0  0  0  0  0  0  0  0
    1.3008    1.0873    1.9330 H   0  0  0  0  0  0  0  0  0  0  0  0
    0.4892    3.0696    2.0477 C   0  0  0  0  0  0  0  0  0  0  0  0
   -0.4624    3.2386    2.5627 H   0  0  0  0  0  0  0  0  0  0  0  0
    1.3030    3.2749    2.7497 H   0  0  0  0  0  0  0  0  0  0  0  0
    0.5674    3.7735    1.2124 H   0  0  0  0  0  0  0  0  0  0  0  0
  1  2  1  0  0  0  0
  2  3  1  0  0  0  0
  2  4  1  0  0  0  0
  2  5  1  0  0  0  0
  5  6  2  0  0  0  0
  5  7  1  0  0  0  0
  7  8  1  0  0  0  0
  7  9  1  0  0  0  0
  9 10  1  0  0  0  0
  9 11  1  0  0  0  0
  9 21  1  0  0  0  0
 11 12  1  0  0  0  0
 11 13  1  0  0  0  0
 11 14  1  0  0  0  0
 14 15  1  0  0  0  0
 14 16  1  0  0  0  0
 14 17  1  0  0  0  0
 17 18  2  0  0  0  0
 17 19  1  0  0  0  0
 19 20  1  0  0  0  0
 21 22  2  0  0  0  0
 21 23  1  0  0  0  0
 23 24  1  0  0  0  0
 23 25  1  0  0  0  0
 25 26  1  0  0  0  0
 25 27  1  0  0  0  0
 25 28  1  0  0  0  0
M  END
$$$$

  -OEChem-02102214123D

 28 27  0     1  0  0  0  0  0999 V2000
   -3.0825   -3.8258    1.3345 H   0  0  0  0  0  0  0  0  0  0  0  0
   -3.0938   -2.8435    0.8539 C   0  0  0  0  0  0  0  0  0  0  0  0
   -3.7475   -2.1794    1.4244 H   0  0  0  0  0  0  0  0  0  0  0  0
   -3.4889   -2.9515   -0.1590 H   0  0  0  0  0  0  0  0  0  0  0  0
   -1.6904   -2.2711    0.8029 C   0  0  0  0  0  0  0  0  0  0  0  0
   -0.7514   -2.9140    1.2471 O   0  0  0  0  0  0  0  0  0  0  0  0
   -1.4827   -1.0162    0.2684 N   0  0  0  0  0  0  0  0  0  0  0  0
   -2.3033   -0.4746    0.0013 H   0  0  0  0  0  0  0  0  0  0  0  0
   -0.1855   -0.3266    0.2440 C   0  0  1  0  0  0  0  0  0  0  0  0
    0.4758   -0.7934    0.9777 H   0  0  0  0  0  0  0  0  0  0  0  0
    0.4169   -0.4357   -1.1776 C   0  0  0  0  0  0  0  0  0  0  0  0
   -0.1200   -1.2072   -1.7414 H   0  0  0  0  0  0  0  0  0  0  0  0
    0.2731    0.5070   -1.7172 H   0  0  0  0  0  0  0  0  0  0  0  0
    1.9112   -0.8081   -1.1831 C   0  0  0  0  0  0  0  0  0  0  0  0
    2.2714   -0.8498   -2.2151 H   0  0  0  0  0  0  0  0  0  0  0  0
    2.4860   -0.0356   -0.6652 H   0  0  0  0  0  0  0  0  0  0  0  0
    2.1785   -2.1555   -0.5172 C   0  0  0  0  0  0  0  0  0  0  0  0
    1.9988   -3.1671   -1.1728 O   0  0  0  0  0  0  0  0  0  0  0  0
    2.5917   -2.1569    0.7719 O   0  0  0  0  0  0  0  0  0  0  0  0
    2.5990   -3.0912    1.0360 H   0  0  0  0  0  0  0  0  0  0  0  0
   -0.3222    1.1478    0.6709 C   0  0  0  0  0  0  0  0  0  0  0  0
   -1.2614    1.8180    0.2577 O   0  0  0  0  0  0  0  0  0  0  0  0
    0.5767    1.7075    1.5594 N   0  0  0  0  0  0  0  0  0  0  0  0
    1.3053    1.1050    1.9334 H   0  0  0  0  0  0  0  0  0  0  0  0
    0.4655    3.0746    2.0537 C   0  0  0  0  0  0  0  0  0  0  0  0
   -0.4720    3.2081    2.6040 H   0  0  0  0  0  0  0  0  0  0  0  0
    1.2975    3.3030    2.7269 H   0  0  0  0  0  0  0  0  0  0  0  0
    0.4897    3.7862    1.2216 H   0  0  0  0  0  0  0  0  0  0  0  0
  1  2  1  0  0  0  0
  2  3  1  0  0  0  0
  2  4  1  0  0  0  0
  2  5  1  0  0  0  0
  5  6  2  0  0  0  0
  5  7  1  0  0  0  0
  7  8  1  0  0  0  0
  7  9  1  0  0  0  0
  9 10  1  0  0  0  0
  9 11  1  0  0  0  0
  9 21  1  0  0  0  0
 11 12  1  0  0  0  0
 11 13  1  0  0  0  0
 11 14  1  0  0  0  0
 14 15  1  0  0  0  0
 14 16  1  0  0  0  0
 14 17  1  0  0  0  0
 17 18  2  0  0  0  0
 17 19  1  0  0  0  0
 19 20  1  0  0  0  0
 21 22  2  0  0  0  0
 21 23  1  0  0  0  0
 23 24  1  0  0  0  0
 23 25  1  0  0  0  0
 25 26  1  0  0  0  0
 25 27  1  0  0  0  0
 25 28  1  0  0  0  0
M  END
$$$$

  -OEChem-02102214123D

 28 27  0     1  0  0  0  0  0999 V2000
   -3.0247   -3.8497    1.3417 H   0  0  0  0  0  0  0  0  0  0  0  0
   -3.0489   -2.8730    0.8506 C   0  0  0  0  0  0  0  0  0  0  0  0
   -3.7002   -2.2079    1.4229 H   0  0  0  0  0  0  0  0  0  0  0  0
   -3.4565   -2.9945   -0.1559 H   0  0  0  0  0  0  0  0  0  0  0  0
   -1.6501   -2.2909    0.7742 C   0  0  0  0  0  0  0  0  0  0  0  0
   -0.6957   -2.9406    1.1726 O   0  0  0  0  0  0  0  0  0  0  0  0
   -1.4639   -1.0265    0.2544 N   0  0  0  0  0  0  0  0  0  0  0  0
   -2.2962   -0.4889    0.0167 H   0  0  0  0  0  0  0  0  0  0  0  0
   -0.1780   -0.3155    0.2221 C   0  0  1  0  0  0  0  0  0  0  0  0
    0.5036   -0.7886    0.9364 H   0  0  0  0  0  0  0  0  0  0  0  0
    0.4095   -0.4178   -1.2026 C   0  0  0  0  0  0  0  0  0  0  0  0
   -0.1231   -1.1812   -1.7817 H   0  0  0  0  0  0  0  0  0  0  0  0
    0.2665    0.5332   -1.7274 H   0  0  0  0  0  0  0  0  0  0  0  0
    1.9071   -0.7672   -1.1767 C   0  0  0  0  0  0  0  0  0  0  0  0
    2.3394   -0.5827   -2.1643 H   0  0  0  0  0  0  0  0  0  0  0  0
    2.4383   -0.1331   -0.4615 H   0  0  0  0  0  0  0  0  0  0  0  0
    2.1230   -2.2363   -0.8290 C   0  0  0  0  0  0  0  0  0  0  0  0
    1.9024   -3.0788   -1.6824 O   0  0  0  0  0  0  0  0  0  0  0  0
    2.5233   -2.5242    0.4309 O   0  0  0  0  0  0  0  0  0  0  0  0
    2.4761   -3.4903    0.5060 H   0  0  0  0  0  0  0  0  0  0  0  0
   -0.3281    1.1520    0.6683 C   0  0  0  0  0  0  0  0  0  0  0  0
   -1.2815    1.8135    0.2747 O   0  0  0  0  0  0  0  0  0  0  0  0
    0.5746    1.7147    1.5511 N   0  0  0  0  0  0  0  0  0  0  0  0
    1.3120    1.1171    1.9145 H   0  0  0  0  0  0  0  0  0  0  0  0
    0.4505    3.0746    2.0622 C   0  0  0  0  0  0  0  0  0  0  0  0
   -0.4827    3.1895    2.6235 H   0  0  0  0  0  0  0  0  0  0  0  0
    1.2863    3.3061    2.7294 H   0  0  0  0  0  0  0  0  0  0  0  0
    0.4569    3.7961    1.2383 H   0  0  0  0  0  0  0  0  0  0  0  0
  1  2  1  0  0  0  0
  2  3  1  0  0  0  0
  2  4  1  0  0  0  0
  2  5  1  0  0  0  0
  5  6  2  0  0  0  0
  5  7  1  0  0  0  0
  7  8  1  0  0  0  0
  7  9  1  0  0  0  0
  9 10  1  0  0  0  0
  9 11  1  0  0  0  0
  9 21  1  0  0  0  0
 11 12  1  0  0  0  0
 11 13  1  0  0  0  0
 11 14  1  0  0  0  0
 14 15  1  0  0  0  0
 14 16  1  0  0  0  0
 14 17  1  0  0  0  0
 17 18  2  0  0  0  0
 17 19  1  0  0  0  0
 19 20  1  0  0  0  0
 21 22  2  0  0  0  0
 21 23  1  0  0  0  0
 23 24  1  0  0  0  0
 23 25  1  0  0  0  0
 25 26  1  0  0  0  0
 25 27  1  0  0  0  0
 25 28  1  0  0  0  0
M  END
$$$$

  -OEChem-02102214123D

 28 27  0     1  0  0  0  0  0999 V2000
   -3.0278   -3.8449    1.3430 H   0  0  0  0  0  0  0  0  0  0  0  0
   -3.0528   -2.8743    0.8399 C   0  0  0  0  0  0  0  0  0  0  0  0
   -3.7065   -2.2037    1.4027 H   0  0  0  0  0  0  0  0  0  0  0  0
   -3.4584   -3.0087   -0.1658 H   0  0  0  0  0  0  0  0  0  0  0  0
   -1.6548   -2.2907    0.7587 C   0  0  0  0  0  0  0  0  0  0  0  0
   -0.6971   -2.9429    1.1435 O   0  0  0  0  0  0  0  0  0  0  0  0
   -1.4720   -1.0238    0.2446 N   0  0  0  0  0  0  0  0  0  0  0  0
   -2.3069   -0.4865    0.0155 H   0  0  0  0  0  0  0  0  0  0  0  0
   -0.1901   -0.3052    0.2171 C   0  0  1  0  0  0  0  0  0  0  0  0
    0.4896   -0.7820    0.9315 H   0  0  0  0  0  0  0  0  0  0  0  0
    0.4061   -0.4138   -1.2021 C   0  0  0  0  0  0  0  0  0  0  0  0
   -0.1253   -1.1733   -1.7873 H   0  0  0  0  0  0  0  0  0  0  0  0
    0.2653    0.5382   -1.7262 H   0  0  0  0  0  0  0  0  0  0  0  0
    1.9080   -0.7536   -1.1586 C   0  0  0  0  0  0  0  0  0  0  0  0
    2.3918   -0.3421   -2.0490 H   0  0  0  0  0  0  0  0  0  0  0  0
    2.3906   -0.2986   -0.2894 H   0  0  0  0  0  0  0  0  0  0  0  0
    2.1449   -2.2599   -1.1619 C   0  0  0  0  0  0  0  0  0  0  0  0
    1.8790   -2.8986   -2.1664 O   0  0  0  0  0  0  0  0  0  0  0  0
    2.6318   -2.8098   -0.0263 O   0  0  0  0  0  0  0  0  0  0  0  0
    2.6277   -3.7680   -0.1729 H   0  0  0  0  0  0  0  0  0  0  0  0
   -0.3449    1.1608    0.6671 C   0  0  0  0  0  0  0  0  0  0  0  0
   -1.3025    1.8187    0.2779 O   0  0  0  0  0  0  0  0  0  0  0  0
    0.5546    1.7248    1.5525 N   0  0  0  0  0  0  0  0  0  0  0  0
    1.2943    1.1301    1.9158 H   0  0  0  0  0  0  0  0  0  0  0  0
    0.4254    3.0840    2.0640 C   0  0  0  0  0  0  0  0  0  0  0  0
   -0.5060    3.1936    2.6295 H   0  0  0  0  0  0  0  0  0  0  0  0
    1.2632    3.3211    2.7270 H   0  0  0  0  0  0  0  0  0  0  0  0
    0.4237    3.8050    1.2396 H   0  0  0  0  0  0  0  0  0  0  0  0
  1  2  1  0  0  0  0
  2  3  1  0  0  0  0
  2  4  1  0  0  0  0
  2  5  1  0  0  0  0
  5  6  2  0  0  0  0
  5  7  1  0  0  0  0
  7  8  1  0  0  0  0
  7  9  1  0  0  0  0
  9 10  1  0  0  0  0
  9 11  1  0  0  0  0
  9 21  1  0  0  0  0
 11 12  1  0  0  0  0
 11 13  1  0  0  0  0
 11 14  1  0  0  0  0
 14 15  1  0  0  0  0
 14 16  1  0  0  0  0
 14 17  1  0  0  0  0
 17 18  2  0  0  0  0
 17 19  1  0  0  0  0
 19 20  1  0  0  0  0
 21 22  2  0  0  0  0
 21 23  1  0  0  0  0
 23 24  1  0  0  0  0
 23 25  1  0  0  0  0
 25 26  1  0  0  0  0
 25 27  1  0  0  0  0
 25 28  1  0  0  0  0
M  END
$$$$

  -OEChem-02102214123D

 28 27  0     1  0  0  0  0  0999 V2000
   -3.0517   -3.8366    1.3197 H   0  0  0  0  0  0  0  0  0  0  0  0
   -3.0694   -2.8621    0.8238 C   0  0  0  0  0  0  0  0  0  0  0  0
   -3.7383   -2.1979    1.3765 H   0  0  0  0  0  0  0  0  0  0  0  0
   -3.4513   -2.9903   -0.1920 H   0  0  0  0  0  0  0  0  0  0  0  0
   -1.6724   -2.2731    0.7793 C   0  0  0  0  0  0  0  0  0  0  0  0
   -0.7247   -2.9145    1.2043 O   0  0  0  0  0  0  0  0  0  0  0  0
   -1.4781   -1.0134    0.2523 N   0  0  0  0  0  0  0  0  0  0  0  0
   -2.3064   -0.4820   -0.0121 H   0  0  0  0  0  0  0  0  0  0  0  0
   -0.1934   -0.2993    0.2336 C   0  0  1  0  0  0  0  0  0  0  0  0
    0.4753   -0.7712    0.9609 H   0  0  0  0  0  0  0  0  0  0  0  0
    0.4151   -0.4171   -1.1808 C   0  0  0  0  0  0  0  0  0  0  0  0
   -0.1251   -1.1751   -1.7594 H   0  0  0  0  0  0  0  0  0  0  0  0
    0.2768    0.5305   -1.7134 H   0  0  0  0  0  0  0  0  0  0  0  0
    1.9204   -0.7631   -1.1439 C   0  0  0  0  0  0  0  0  0  0  0  0
    2.4439   -0.1388   -1.8736 H   0  0  0  0  0  0  0  0  0  0  0  0
    2.3562   -0.5419   -0.1660 H   0  0  0  0  0  0  0  0  0  0  0  0
    2.1967   -2.2187   -1.5106 C   0  0  0  0  0  0  0  0  0  0  0  0
    1.8616   -2.6251   -2.6108 O   0  0  0  0  0  0  0  0  0  0  0  0
    2.8124   -2.9866   -0.5832 O   0  0  0  0  0  0  0  0  0  0  0  0
    2.8562   -3.8773   -0.9626 H   0  0  0  0  0  0  0  0  0  0  0  0
   -0.3536    1.1722    0.6644 C   0  0  0  0  0  0  0  0  0  0  0  0
   -1.3038    1.8265    0.2515 O   0  0  0  0  0  0  0  0  0  0  0  0
    0.5331    1.7466    1.5562 N   0  0  0  0  0  0  0  0  0  0  0  0
    1.2603    1.1524    1.9444 H   0  0  0  0  0  0  0  0  0  0  0  0
    0.3847    3.1046    2.0661 C   0  0  0  0  0  0  0  0  0  0  0  0
   -0.5312    3.1926    2.6598 H   0  0  0  0  0  0  0  0  0  0  0  0
    1.2363    3.3657    2.7015 H   0  0  0  0  0  0  0  0  0  0  0  0
    0.3392    3.8224    1.2402 H   0  0  0  0  0  0  0  0  0  0  0  0
  1  2  1  0  0  0  0
  2  3  1  0  0  0  0
  2  4  1  0  0  0  0
  2  5  1  0  0  0  0
  5  6  2  0  0  0  0
  5  7  1  0  0  0  0
  7  8  1  0  0  0  0
  7  9  1  0  0  0  0
  9 10  1  0  0  0  0
  9 11  1  0  0  0  0
  9 21  1  0  0  0  0
 11 12  1  0  0  0  0
 11 13  1  0  0  0  0
 11 14  1  0  0  0  0
 14 15  1  0  0  0  0
 14 16  1  0  0  0  0
 14 17  1  0  0  0  0
 17 18  2  0  0  0  0
 17 19  1  0  0  0  0
 19 20  1  0  0  0  0
 21 22  2  0  0  0  0
 21 23  1  0  0  0  0
 23 24  1  0  0  0  0
 23 25  1  0  0  0  0
 25 26  1  0  0  0  0
 25 27  1  0  0  0  0
 25 28  1  0  0  0  0
M  END
$$$$

  -OEChem-02102214123D

 28 27  0     1  0  0  0  0  0999 V2000
   -3.0774   -3.8418    1.2743 H   0  0  0  0  0  0  0  0  0  0  0  0
   -3.0920   -2.8466    0.8214 C   0  0  0  0  0  0  0  0  0  0  0  0
   -3.7504   -2.2017    1.4086 H   0  0  0  0  0  0  0  0  0  0  0  0
   -3.4845   -2.9280   -0.1951 H   0  0  0  0  0  0  0  0  0  0  0  0
   -1.6911   -2.2660    0.7896 C   0  0  0  0  0  0  0  0  0  0  0  0
   -0.7528   -2.9059    1.2369 O   0  0  0  0  0  0  0  0  0  0  0  0
   -1.4835   -1.0118    0.2550 N   0  0  0  0  0  0  0  0  0  0  0  0
   -2.3061   -0.4788   -0.0236 H   0  0  0  0  0  0  0  0  0  0  0  0
   -0.1962   -0.3015    0.2485 C   0  0  1  0  0  0  0  0  0  0  0  0
    0.4588   -0.7678    0.9908 H   0  0  0  0  0  0  0  0  0  0  0  0
    0.4329   -0.4198   -1.1587 C   0  0  0  0  0  0  0  0  0  0  0  0
   -0.1033   -1.1917   -1.7221 H   0  0  0  0  0  0  0  0  0  0  0  0
    0.2890    0.5157   -1.7110 H   0  0  0  0  0  0  0  0  0  0  0  0
    1.9413   -0.7690   -1.1240 C   0  0  0  0  0  0  0  0  0  0  0  0
    2.5046    0.0307   -1.6128 H   0  0  0  0  0  0  0  0  0  0  0  0
    2.3081   -0.8344   -0.0966 H   0  0  0  0  0  0  0  0  0  0  0  0
    2.2712   -2.0804   -1.8348 C   0  0  0  0  0  0  0  0  0  0  0  0
    1.8854   -2.2445   -2.9804 O   0  0  0  0  0  0  0  0  0  0  0  0
    2.9991   -2.9942   -1.1532 O   0  0  0  0  0  0  0  0  0  0  0  0
    3.0862   -3.7581   -1.7433 H   0  0  0  0  0  0  0  0  0  0  0  0
   -0.3640    1.1736    0.6650 C   0  0  0  0  0  0  0  0  0  0  0  0
   -1.3122    1.8213    0.2371 O   0  0  0  0  0  0  0  0  0  0  0  0
    0.5074    1.7585    1.5651 N   0  0  0  0  0  0  0  0  0  0  0  0
    1.2374    1.1739    1.9621 H   0  0  0  0  0  0  0  0  0  0  0  0
    0.3490    3.1224    2.0564 C   0  0  0  0  0  0  0  0  0  0  0  0
   -0.5856    3.2205    2.6187 H   0  0  0  0  0  0  0  0  0  0  0  0
    1.1805    3.3867    2.7168 H   0  0  0  0  0  0  0  0  0  0  0  0
    0.3336    3.8317    1.2220 H   0  0  0  0  0  0  0  0  0  0  0  0
  1  2  1  0  0  0  0
  2  3  1  0  0  0  0
  2  4  1  0  0  0  0
  2  5  1  0  0  0  0
  5  6  2  0  0  0  0
  5  7  1  0  0  0  0
  7  8  1  0  0  0  0
  7  9  1  0  0  0  0
  9 10  1  0  0  0  0
  9 11  1  0  0  0  0
  9 21  1  0  0  0  0
 11 12  1  0  0  0  0
 11 13  1  0  0  0  0
 11 14  1  0  0  0  0
 14 15  1  0  0  0  0
 14 16  1  0  0  0  0
 14 17  1  0  0  0  0
 17 18  2  0  0  0  0
 17 19  1  0  0  0  0
 19 20  1  0  0  0  0
 21 22  2  0  0  0  0
 21 23  1  0  0  0  0
 23 24  1  0  0  0  0
 23 25  1  0  0  0  0
 25 26  1  0  0  0  0
 25 27  1  0  0  0  0
 25 28  1  0  0  0  0
M  END
$$$$

  -OEChem-02102214123D

 28 27  0     1  0  0  0  0  0999 V2000
   -3.1009   -3.8266    1.2816 H   0  0  0  0  0  0  0  0  0  0  0  0
   -3.1123   -2.8352    0.8201 C   0  0  0  0  0  0  0  0  0  0  0  0
   -3.7658   -2.1822    1.4036 H   0  0  0  0  0  0  0  0  0  0  0  0
   -3.5083   -2.9235   -0.1944 H   0  0  0  0  0  0  0  0  0  0  0  0
   -1.7088   -2.2618    0.7789 C   0  0  0  0  0  0  0  0  0  0  0  0
   -0.7711   -2.9057    1.2221 O   0  0  0  0  0  0  0  0  0  0  0  0
   -1.4967   -1.0087    0.2434 N   0  0  0  0  0  0  0  0  0  0  0  0
   -2.3176   -0.4711   -0.0318 H   0  0  0  0  0  0  0  0  0  0  0  0
   -0.2080   -0.3008    0.2468 C   0  0  1  0  0  0  0  0  0  0  0  0
    0.4367   -0.7638    0.9996 H   0  0  0  0  0  0  0  0  0  0  0  0
    0.4411   -0.4170   -1.1515 C   0  0  0  0  0  0  0  0  0  0  0  0
   -0.0805   -1.2103   -1.6993 H   0  0  0  0  0  0  0  0  0  0  0  0
    0.2924    0.5043   -1.7259 H   0  0  0  0  0  0  0  0  0  0  0  0
    1.9488   -0.7662   -1.0977 C   0  0  0  0  0  0  0  0  0  0  0  0
    2.5408    0.1323   -1.2908 H   0  0  0  0  0  0  0  0  0  0  0  0
    2.2227   -1.1287   -0.1036 H   0  0  0  0  0  0  0  0  0  0  0  0
    2.3559   -1.8521   -2.0934 C   0  0  0  0  0  0  0  0  0  0  0  0
    1.9217   -1.8057   -3.2326 O   0  0  0  0  0  0  0  0  0  0  0  0
    3.2072   -2.8090   -1.6578 O   0  0  0  0  0  0  0  0  0  0  0  0
    3.3409   -3.4074   -2.4084 H   0  0  0  0  0  0  0  0  0  0  0  0
   -0.3759    1.1748    0.6593 C   0  0  0  0  0  0  0  0  0  0  0  0
   -1.3230    1.8231    0.2301 O   0  0  0  0  0  0  0  0  0  0  0  0
    0.4908    1.7561    1.5660 N   0  0  0  0  0  0  0  0  0  0  0  0
    1.2229    1.1716    1.9592 H   0  0  0  0  0  0  0  0  0  0  0  0
    0.3368    3.1208    2.0558 C   0  0  0  0  0  0  0  0  0  0  0  0
   -0.6065    3.2273    2.6019 H   0  0  0  0  0  0  0  0  0  0  0  0
    1.1589    3.3764    2.7312 H   0  0  0  0  0  0  0  0  0  0  0  0
    0.3431    3.8309    1.2221 H   0  0  0  0  0  0  0  0  0  0  0  0
  1  2  1  0  0  0  0
  2  3  1  0  0  0  0
  2  4  1  0  0  0  0
  2  5  1  0  0  0  0
  5  6  2  0  0  0  0
  5  7  1  0  0  0  0
  7  8  1  0  0  0  0
  7  9  1  0  0  0  0
  9 10  1  0  0  0  0
  9 11  1  0  0  0  0
  9 21  1  0  0  0  0
 11 12  1  0  0  0  0
 11 13  1  0  0  0  0
 11 14  1  0  0  0  0
 14 15  1  0  0  0  0
 14 16  1  0  0  0  0
 14 17  1  0  0  0  0
 17 18  2  0  0  0  0
 17 19  1  0  0  0  0
 19 20  1  0  0  0  0
 21 22  2  0  0  0  0
 21 23  1  0  0  0  0
 23 24  1  0  0  0  0
 23 25  1  0  0  0  0
 25 26  1  0  0  0  0
 25 27  1  0  0  0  0
 25 28  1  0  0  0  0
M  END
$$$$

  -OEChem-02102214123D

 28 27  0     1  0  0  0  0  0999 V2000
   -3.1388   -3.8113    1.2777 H   0  0  0  0  0  0  0  0  0  0  0  0
   -3.1399   -2.8220    0.8118 C   0  0  0  0  0  0  0  0  0  0  0  0
   -3.7917   -2.1616    1.3888 H   0  0  0  0  0  0  0  0  0  0  0  0
   -3.5309   -2.9121   -0.2046 H   0  0  0  0  0  0  0  0  0  0  0  0
   -1.7319   -2.2584    0.7769 C   0  0  0  0  0  0  0  0  0  0  0  0
   -0.8003   -2.9082    1.2249 O   0  0  0  0  0  0  0  0  0  0  0  0
   -1.5097   -1.0064    0.2432 N   0  0  0  0  0  0  0  0  0  0  0  0
   -2.3255   -0.4640   -0.0372 H   0  0  0  0  0  0  0  0  0  0  0  0
   -0.2166   -0.3069    0.2507 C   0  0  1  0  0  0  0  0  0  0  0  0
    0.4283   -0.7736    1.0013 H   0  0  0  0  0  0  0  0  0  0  0  0
    0.4325   -0.4218   -1.1464 C   0  0  0  0  0  0  0  0  0  0  0  0
   -0.0846   -1.2189   -1.6929 H   0  0  0  0  0  0  0  0  0  0  0  0
    0.2905    0.4989   -1.7237 H   0  0  0  0  0  0  0  0  0  0  0  0
    1.9342   -0.7811   -1.0759 C   0  0  0  0  0  0  0  0  0  0  0  0
    2.5295    0.1302   -0.9759 H   0  0  0  0  0  0  0  0  0  0  0  0
    2.1234   -1.4013   -0.1951 H   0  0  0  0  0  0  0  0  0  0  0  0
    2.4341   -1.5810   -2.2796 C   0  0  0  0  0  0  0  0  0  0  0  0
    1.8889   -1.4460   -3.3628 O   0  0  0  0  0  0  0  0  0  0  0  0
    3.4970   -2.3930   -2.0774 O   0  0  0  0  0  0  0  0  0  0  0  0
    3.6750   -2.8132   -2.9325 H   0  0  0  0  0  0  0  0  0  0  0  0
   -0.3779    1.1694    0.6642 C   0  0  0  0  0  0  0  0  0  0  0  0
   -1.3188    1.8229    0.2294 O   0  0  0  0  0  0  0  0  0  0  0  0
    0.4878    1.7481    1.5739 N   0  0  0  0  0  0  0  0  0  0  0  0
    1.2194    1.1632    1.9675 H   0  0  0  0  0  0  0  0  0  0  0  0
    0.3452    3.1189    2.0503 C   0  0  0  0  0  0  0  0  0  0  0  0
   -0.6086    3.2455    2.5735 H   0  0  0  0  0  0  0  0  0  0  0  0
    1.1552    3.3660    2.7432 H   0  0  0  0  0  0  0  0  0  0  0  0
    0.3827    3.8222    1.2116 H   0  0  0  0  0  0  0  0  0  0  0  0
  1  2  1  0  0  0  0
  2  3  1  0  0  0  0
  2  4  1  0  0  0  0
  2  5  1  0  0  0  0
  5  6  2  0  0  0  0
  5  7  1  0  0  0  0
  7  8  1  0  0  0  0
  7  9  1  0  0  0  0
  9 10  1  0  0  0  0
  9 11  1  0  0  0  0
  9 21  1  0  0  0  0
 11 12  1  0  0  0  0
 11 13  1  0  0  0  0
 11 14  1  0  0  0  0
 14 15  1  0  0  0  0
 14 16  1  0  0  0  0
 14 17  1  0  0  0  0
 17 18  2  0  0  0  0
 17 19  1  0  0  0  0
 19 20  1  0  0  0  0
 21 22  2  0  0  0  0
 21 23  1  0  0  0  0
 23 24  1  0  0  0  0
 23 25  1  0  0  0  0
 25 26  1  0  0  0  0
 25 27  1  0  0  0  0
 25 28  1  0  0  0  0
M  END
$$$$

  -OEChem-02102214123D

 28 27  0     1  0  0  0  0  0999 V2000
   -3.1589   -3.7993    1.2794 H   0  0  0  0  0  0  0  0  0  0  0  0
   -3.1587   -2.8094    0.8148 C   0  0  0  0  0  0  0  0  0  0  0  0
   -3.8024   -2.1465    1.3981 H   0  0  0  0  0  0  0  0  0  0  0  0
   -3.5581   -2.8955   -0.1986 H   0  0  0  0  0  0  0  0  0  0  0  0
   -1.7483   -2.2534    0.7694 C   0  0  0  0  0  0  0  0  0  0  0  0
   -0.8171   -2.9082    1.2108 O   0  0  0  0  0  0  0  0  0  0  0  0
   -1.5230   -1.0018    0.2364 N   0  0  0  0  0  0  0  0  0  0  0  0
   -2.3374   -0.4543   -0.0385 H   0  0  0  0  0  0  0  0  0  0  0  0
   -0.2262   -0.3094    0.2421 C   0  0  1  0  0  0  0  0  0  0  0  0
    0.4211   -0.7808    0.9883 H   0  0  0  0  0  0  0  0  0  0  0  0
    0.4222   -0.4288   -1.1533 C   0  0  0  0  0  0  0  0  0  0  0  0
   -0.0899   -1.2218   -1.7104 H   0  0  0  0  0  0  0  0  0  0  0  0
    0.2924    0.4981   -1.7239 H   0  0  0  0  0  0  0  0  0  0  0  0
    1.9181   -0.7957   -1.0614 C   0  0  0  0  0  0  0  0  0  0  0  0
    2.4888    0.0656   -0.7045 H   0  0  0  0  0  0  0  0  0  0  0  0
    2.0460   -1.6083   -0.3398 H   0  0  0  0  0  0  0  0  0  0  0  0
    2.5210   -1.2756   -2.3828 C   0  0  0  0  0  0  0  0  0  0  0  0
    1.9192   -1.0958   -3.4287 O   0  0  0  0  0  0  0  0  0  0  0  0
    3.7330   -1.8719   -2.3164 O   0  0  0  0  0  0  0  0  0  0  0  0
    3.9605   -2.1084   -3.2286 H   0  0  0  0  0  0  0  0  0  0  0  0
   -0.3795    1.1671    0.6582 C   0  0  0  0  0  0  0  0  0  0  0  0
   -1.3188    1.8263    0.2286 O   0  0  0  0  0  0  0  0  0  0  0  0
    0.4917    1.7383    1.5672 N   0  0  0  0  0  0  0  0  0  0  0  0
    1.2214    1.1483    1.9566 H   0  0  0  0  0  0  0  0  0  0  0  0
    0.3580    3.1083    2.0480 C   0  0  0  0  0  0  0  0  0  0  0  0
   -0.5911    3.2369    2.5791 H   0  0  0  0  0  0  0  0  0  0  0  0
    1.1748    3.3505    2.7348 H   0  0  0  0  0  0  0  0  0  0  0  0
    0.3913    3.8133    1.2105 H   0  0  0  0  0  0  0  0  0  0  0  0
  1  2  1  0  0  0  0
  2  3  1  0  0  0  0
  2  4  1  0  0  0  0
  2  5  1  0  0  0  0
  5  6  2  0  0  0  0
  5  7  1  0  0  0  0
  7  8  1  0  0  0  0
  7  9  1  0  0  0  0
  9 10  1  0  0  0  0
  9 11  1  0  0  0  0
  9 21  1  0  0  0  0
 11 12  1  0  0  0  0
 11 13  1  0  0  0  0
 11 14  1  0  0  0  0
 14 15  1  0  0  0  0
 14 16  1  0  0  0  0
 14 17  1  0  0  0  0
 17 18  2  0  0  0  0
 17 19  1  0  0  0  0
 19 20  1  0  0  0  0
 21 22  2  0  0  0  0
 21 23  1  0  0  0  0
 23 24  1  0  0  0  0
 23 25  1  0  0  0  0
 25 26  1  0  0  0  0
 25 27  1  0  0  0  0
 25 28  1  0  0  0  0
M  END
$$$$

  -OEChem-02102214123D

 28 27  0     1  0  0  0  0  0999 V2000
   -3.1829   -3.7726    1.2925 H   0  0  0  0  0  0  0  0  0  0  0  0
   -3.1731   -2.7897    0.8133 C   0  0  0  0  0  0  0  0  0  0  0  0
   -3.8139   -2.1133    1.3841 H   0  0  0  0  0  0  0  0  0  0  0  0
   -3.5692   -2.8873   -0.2003 H   0  0  0  0  0  0  0  0  0  0  0  0
   -1.7580   -2.2459    0.7649 C   0  0  0  0  0  0  0  0  0  0  0  0
   -0.8306   -2.9114    1.1987 O   0  0  0  0  0  0  0  0  0  0  0  0
   -1.5232   -0.9950    0.2343 N   0  0  0  0  0  0  0  0  0  0  0  0
   -2.3333   -0.4371   -0.0324 H   0  0  0  0  0  0  0  0  0  0  0  0
   -0.2202   -0.3155    0.2410 C   0  0  1  0  0  0  0  0  0  0  0  0
    0.4315   -0.7861    0.9847 H   0  0  0  0  0  0  0  0  0  0  0  0
    0.4203   -0.4335   -1.1590 C   0  0  0  0  0  0  0  0  0  0  0  0
   -0.2496   -0.9790   -1.8335 H   0  0  0  0  0  0  0  0  0  0  0  0
    0.5672    0.5627   -1.5928 H   0  0  0  0  0  0  0  0  0  0  0  0
    1.7734   -1.1680   -1.0875 C   0  0  0  0  0  0  0  0  0  0  0  0
    2.4479   -0.6258   -0.4195 H   0  0  0  0  0  0  0  0  0  0  0  0
    1.6182   -2.1673   -0.6690 H   0  0  0  0  0  0  0  0  0  0  0  0
    2.4712   -1.3242   -2.4393 C   0  0  0  0  0  0  0  0  0  0  0  0
    1.9103   -0.9695   -3.4632 O   0  0  0  0  0  0  0  0  0  0  0  0
    3.7157   -1.8532   -2.4193 O   0  0  0  0  0  0  0  0  0  0  0  0
    4.0048   -1.8832   -3.3440 H   0  0  0  0  0  0  0  0  0  0  0  0
   -0.3750    1.1597    0.6627 C   0  0  0  0  0  0  0  0  0  0  0  0
   -1.3120    1.8215    0.2318 O   0  0  0  0  0  0  0  0  0  0  0  0
    0.4942    1.7272    1.5759 N   0  0  0  0  0  0  0  0  0  0  0  0
    1.2240    1.1362    1.9636 H   0  0  0  0  0  0  0  0  0  0  0  0
    0.3660    3.0984    2.0546 C   0  0  0  0  0  0  0  0  0  0  0  0
   -0.5962    3.2405    2.5580 H   0  0  0  0  0  0  0  0  0  0  0  0
    1.1653    3.3276    2.7660 H   0  0  0  0  0  0  0  0  0  0  0  0
    0.4344    3.8036    1.2194 H   0  0  0  0  0  0  0  0  0  0  0  0
  1  2  1  0  0  0  0
  2  3  1  0  0  0  0
  2  4  1  0  0  0  0
  2  5  1  0  0  0  0
  5  6  2  0  0  0  0
  5  7  1  0  0  0  0
  7  8  1  0  0  0  0
  7  9  1  0  0  0  0
  9 10  1  0  0  0  0
  9 11  1  0  0  0  0
  9 21  1  0  0  0  0
 11 12  1  0  0  0  0
 11 13  1  0  0  0  0
 11 14  1  0  0  0  0
 14 15  1  0  0  0  0
 14 16  1  0  0  0  0
 14 17  1  0  0  0  0
 17 18  2  0  0  0  0
 17 19  1  0  0  0  0
 19 20  1  0  0  0  0
 21 22  2  0  0  0  0
 21 23  1  0  0  0  0
 23 24  1  0  0  0  0
 23 25  1  0  0  0  0
 25 26  1  0  0  0  0
 25 27  1  0  0  0  0
 25 28  1  0  0  0  0
M  END
$$$$

  -OEChem-02102214123D

 28 27  0     1  0  0  0  0  0999 V2000
   -3.2026   -3.7569    1.2906 H   0  0  0  0  0  0  0  0  0  0  0  0
   -3.1870   -2.7709    0.8179 C   0  0  0  0  0  0  0  0  0  0  0  0
   -3.8145   -2.0916    1.3997 H   0  0  0  0  0  0  0  0  0  0  0  0
   -3.5944   -2.8576   -0.1922 H   0  0  0  0  0  0  0  0  0  0  0  0
   -1.7668   -2.2413    0.7596 C   0  0  0  0  0  0  0  0  0  0  0  0
   -0.8434   -2.9139    1.1908 O   0  0  0  0  0  0  0  0  0  0  0  0
   -1.5234   -0.9924    0.2284 N   0  0  0  0  0  0  0  0  0  0  0  0
   -2.3301   -0.4266   -0.0324 H   0  0  0  0  0  0  0  0  0  0  0  0
   -0.2161   -0.3210    0.2379 C   0  0  1  0  0  0  0  0  0  0  0  0
    0.4287   -0.7963    0.9844 H   0  0  0  0  0  0  0  0  0  0  0  0
    0.4244   -0.4496   -1.1614 C   0  0  0  0  0  0  0  0  0  0  0  0
   -0.2456   -0.9801   -1.8471 H   0  0  0  0  0  0  0  0  0  0  0  0
    0.5801    0.5513   -1.5811 H   0  0  0  0  0  0  0  0  0  0  0  0
    1.7741   -1.1926   -1.0967 C   0  0  0  0  0  0  0  0  0  0  0  0
    2.3644   -0.8015   -0.2633 H   0  0  0  0  0  0  0  0  0  0  0  0
    1.5973   -2.2559   -0.9093 H   0  0  0  0  0  0  0  0  0  0  0  0
    2.6225   -1.0432   -2.3601 C   0  0  0  0  0  0  0  0  0  0  0  0
    2.0987   -0.6983   -3.4066 O   0  0  0  0  0  0  0  0  0  0  0  0
    3.9436   -1.3087   -2.2423 O   0  0  0  0  0  0  0  0  0  0  0  0
    4.3188   -1.1765   -3.1264 H   0  0  0  0  0  0  0  0  0  0  0  0
   -0.3650    1.1558    0.6581 C   0  0  0  0  0  0  0  0  0  0  0  0
   -1.3009    1.8193    0.2274 O   0  0  0  0  0  0  0  0  0  0  0  0
    0.5032    1.7216    1.5733 N   0  0  0  0  0  0  0  0  0  0  0  0
    1.2309    1.1293    1.9631 H   0  0  0  0  0  0  0  0  0  0  0  0
    0.3691    3.0898    2.0594 C   0  0  0  0  0  0  0  0  0  0  0  0
   -0.5889    3.2218    2.5734 H   0  0  0  0  0  0  0  0  0  0  0  0
    1.1741    3.3229    2.7631 H   0  0  0  0  0  0  0  0  0  0  0  0
    0.4226    3.7993    1.2267 H   0  0  0  0  0  0  0  0  0  0  0  0
  1  2  1  0  0  0  0
  2  3  1  0  0  0  0
  2  4  1  0  0  0  0
  2  5  1  0  0  0  0
  5  6  2  0  0  0  0
  5  7  1  0  0  0  0
  7  8  1  0  0  0  0
  7  9  1  0  0  0  0
  9 10  1  0  0  0  0
  9 11  1  0  0  0  0
  9 21  1  0  0  0  0
 11 12  1  0  0  0  0
 11 13  1  0  0  0  0
 11 14  1  0  0  0  0
 14 15  1  0  0  0  0
 14 16  1  0  0  0  0
 14 17  1  0  0  0  0
 17 18  2  0  0  0  0
 17 19  1  0  0  0  0
 19 20  1  0  0  0  0
 21 22  2  0  0  0  0
 21 23  1  0  0  0  0
 23 24  1  0  0  0  0
 23 25  1  0  0  0  0
 25 26  1  0  0  0  0
 25 27  1  0  0  0  0
 25 28  1  0  0  0  0
M  END
$$$$

  -OEChem-02102214123D

 28 27  0     1  0  0  0  0  0999 V2000
   -3.2315   -3.7522    1.2517 H   0  0  0  0  0  0  0  0  0  0  0  0
   -3.2078   -2.7529    0.8081 C   0  0  0  0  0  0  0  0  0  0  0  0
   -3.8323   -2.0862    1.4078 H   0  0  0  0  0  0  0  0  0  0  0  0
   -3.6136   -2.8079   -0.2050 H   0  0  0  0  0  0  0  0  0  0  0  0
   -1.7837   -2.2321    0.7685 C   0  0  0  0  0  0  0  0  0  0  0  0
   -0.8720   -2.9077    1.2192 O   0  0  0  0  0  0  0  0  0  0  0  0
   -1.5241   -0.9891    0.2310 N   0  0  0  0  0  0  0  0  0  0  0  0
   -2.3231   -0.4195   -0.0443 H   0  0  0  0  0  0  0  0  0  0  0  0
   -0.2100   -0.3310    0.2407 C   0  0  1  0  0  0  0  0  0  0  0  0
    0.4236   -0.8079    0.9948 H   0  0  0  0  0  0  0  0  0  0  0  0
    0.4315   -0.4772   -1.1584 C   0  0  0  0  0  0  0  0  0  0  0  0
   -0.2443   -0.9973   -1.8464 H   0  0  0  0  0  0  0  0  0  0  0  0
    0.5935    0.5232   -1.5772 H   0  0  0  0  0  0  0  0  0  0  0  0
    1.7769   -1.2331   -1.1063 C   0  0  0  0  0  0  0  0  0  0  0  0
    2.2744   -1.0426   -0.1515 H   0  0  0  0  0  0  0  0  0  0  0  0
    1.6001   -2.3103   -1.1753 H   0  0  0  0  0  0  0  0  0  0  0  0
    2.7464   -0.8004   -2.2042 C   0  0  0  0  0  0  0  0  0  0  0  0
    2.3195   -0.6055   -3.3299 O   0  0  0  0  0  0  0  0  0  0  0  0
    4.0468   -0.6482   -1.8630 O   0  0  0  0  0  0  0  0  0  0  0  0
    4.5029   -0.3832   -2.6764 H   0  0  0  0  0  0  0  0  0  0  0  0
   -0.3426    1.1499    0.6513 C   0  0  0  0  0  0  0  0  0  0  0  0
   -1.2719    1.8207    0.2180 O   0  0  0  0  0  0  0  0  0  0  0  0
    0.5306    1.7096    1.5655 N   0  0  0  0  0  0  0  0  0  0  0  0
    1.2510    1.1101    1.9577 H   0  0  0  0  0  0  0  0  0  0  0  0
    0.4018    3.0752    2.0601 C   0  0  0  0  0  0  0  0  0  0  0  0
   -0.5424    3.1992    2.6009 H   0  0  0  0  0  0  0  0  0  0  0  0
    1.2249    3.3103    2.7420 H   0  0  0  0  0  0  0  0  0  0  0  0
    0.4282    3.7883    1.2292 H   0  0  0  0  0  0  0  0  0  0  0  0
  1  2  1  0  0  0  0
  2  3  1  0  0  0  0
  2  4  1  0  0  0  0
  2  5  1  0  0  0  0
  5  6  2  0  0  0  0
  5  7  1  0  0  0  0
  7  8  1  0  0  0  0
  7  9  1  0  0  0  0
  9 10  1  0  0  0  0
  9 11  1  0  0  0  0
  9 21  1  0  0  0  0
 11 12  1  0  0  0  0
 11 13  1  0  0  0  0
 11 14  1  0  0  0  0
 14 15  1  0  0  0  0
 14 16  1  0  0  0  0
 14 17  1  0  0  0  0
 17 18  2  0  0  0  0
 17 19  1  0  0  0  0
 19 20  1  0  0  0  0
 21 22  2  0  0  0  0
 21 23  1  0  0  0  0
 23 24  1  0  0  0  0
 23 25  1  0  0  0  0
 25 26  1  0  0  0  0
 25 27  1  0  0  0  0
 25 28  1  0  0  0  0
M  END
$$$$

  -OEChem-02102214123D

 28 27  0     1  0  0  0  0  0999 V2000
   -3.3097   -3.7219    1.2130 H   0  0  0  0  0  0  0  0  0  0  0  0
   -3.2589   -2.7175    0.7836 C   0  0  0  0  0  0  0  0  0  0  0  0
   -3.8636   -2.0423    1.3937 H   0  0  0  0  0  0  0  0  0  0  0  0
   -3.6672   -2.7467   -0.2294 H   0  0  0  0  0  0  0  0  0  0  0  0
   -1.8208   -2.2367    0.7476 C   0  0  0  0  0  0  0  0  0  0  0  0
   -0.9270   -2.9461    1.1817 O   0  0  0  0  0  0  0  0  0  0  0  0
   -1.5265   -0.9959    0.2227 N   0  0  0  0  0  0  0  0  0  0  0  0
   -2.3104   -0.3973   -0.0341 H   0  0  0  0  0  0  0  0  0  0  0  0
   -0.1953   -0.3728    0.2485 C   0  0  1  0  0  0  0  0  0  0  0  0
    0.4153   -0.8706    1.0075 H   0  0  0  0  0  0  0  0  0  0  0  0
    0.4591   -0.5141   -1.1458 C   0  0  0  0  0  0  0  0  0  0  0  0
   -0.2259   -1.0147   -1.8389 H   0  0  0  0  0  0  0  0  0  0  0  0
    0.6351    0.4866   -1.5580 H   0  0  0  0  0  0  0  0  0  0  0  0
    1.7874   -1.3020   -1.1099 C   0  0  0  0  0  0  0  0  0  0  0  0
    2.1718   -1.3891   -0.0908 H   0  0  0  0  0  0  0  0  0  0  0  0
    1.6211   -2.3184   -1.4802 H   0  0  0  0  0  0  0  0  0  0  0  0
    2.8637   -0.6149   -1.9407 C   0  0  0  0  0  0  0  0  0  0  0  0
    3.1318   -1.0636   -3.0413 O   0  0  0  0  0  0  0  0  0  0  0  0
    3.4626    0.4764   -1.4088 O   0  0  0  0  0  0  0  0  0  0  0  0
    4.1023    0.7742   -2.0741 H   0  0  0  0  0  0  0  0  0  0  0  0
   -0.2902    1.1077    0.6712 C   0  0  0  0  0  0  0  0  0  0  0  0
   -1.1972    1.8069    0.2342 O   0  0  0  0  0  0  0  0  0  0  0  0
    0.5907    1.6361    1.5961 N   0  0  0  0  0  0  0  0  0  0  0  0
    1.3319    1.0323    1.9404 H   0  0  0  0  0  0  0  0  0  0  0  0
    0.5382    3.0205    2.0496 C   0  0  0  0  0  0  0  0  0  0  0  0
   -0.4183    3.2267    2.5414 H   0  0  0  0  0  0  0  0  0  0  0  0
    1.3432    3.2155    2.7647 H   0  0  0  0  0  0  0  0  0  0  0  0
    0.6545    3.7057    1.2032 H   0  0  0  0  0  0  0  0  0  0  0  0
  1  2  1  0  0  0  0
  2  3  1  0  0  0  0
  2  4  1  0  0  0  0
  2  5  1  0  0  0  0
  5  6  2  0  0  0  0
  5  7  1  0  0  0  0
  7  8  1  0  0  0  0
  7  9  1  0  0  0  0
  9 10  1  0  0  0  0
  9 11  1  0  0  0  0
  9 21  1  0  0  0  0
 11 12  1  0  0  0  0
 11 13  1  0  0  0  0
 11 14  1  0  0  0  0
 14 15  1  0  0  0  0
 14 16  1  0  0  0  0
 14 17  1  0  0  0  0
 17 18  2  0  0  0  0
 17 19  1  0  0  0  0
 19 20  1  0  0  0  0
 21 22  2  0  0  0  0
 21 23  1  0  0  0  0
 23 24  1  0  0  0  0
 23 25  1  0  0  0  0
 25 26  1  0  0  0  0
 25 27  1  0  0  0  0
 25 28  1  0  0  0  0
M  END
$$$$

  -OEChem-02102214123D

 28 27  0     1  0  0  0  0  0999 V2000
   -3.2355   -3.7809    1.2256 H   0  0  0  0  0  0  0  0  0  0  0  0
   -3.2046   -2.7895    0.7652 C   0  0  0  0  0  0  0  0  0  0  0  0
   -3.8530   -2.1174    1.3324 H   0  0  0  0  0  0  0  0  0  0  0  0
   -3.5763   -2.8659   -0.2594 H   0  0  0  0  0  0  0  0  0  0  0  0
   -1.7838   -2.2584    0.7626 C   0  0  0  0  0  0  0  0  0  0  0  0
   -0.8814   -2.9245    1.2450 O   0  0  0  0  0  0  0  0  0  0  0  0
   -1.5147   -1.0233    0.2114 N   0  0  0  0  0  0  0  0  0  0  0  0
   -2.3107   -0.4581   -0.0818 H   0  0  0  0  0  0  0  0  0  0  0  0
   -0.2142   -0.3420    0.2896 C   0  0  1  0  0  0  0  0  0  0  0  0
    0.3672   -0.7836    1.1042 H   0  0  0  0  0  0  0  0  0  0  0  0
    0.5398   -0.4879   -1.0516 C   0  0  0  0  0  0  0  0  0  0  0  0
   -0.0763   -1.0591   -1.7544 H   0  0  0  0  0  0  0  0  0  0  0  0
    0.6843    0.4994   -1.5065 H   0  0  0  0  0  0  0  0  0  0  0  0
    1.8982   -1.2116   -0.9002 C   0  0  0  0  0  0  0  0  0  0  0  0
    2.0807   -1.5384    0.1267 H   0  0  0  0  0  0  0  0  0  0  0  0
    1.8899   -2.1135   -1.5193 H   0  0  0  0  0  0  0  0  0  0  0  0
    3.0578   -0.3293   -1.3446 C   0  0  0  0  0  0  0  0  0  0  0  0
    3.3328    0.6377   -0.6529 O   0  0  0  0  0  0  0  0  0  0  0  0
    3.7102   -0.6469   -2.4864 O   0  0  0  0  0  0  0  0  0  0  0  0
    4.3960    0.0287   -2.5996 H   0  0  0  0  0  0  0  0  0  0  0  0
   -0.3911    1.1463    0.6546 C   0  0  0  0  0  0  0  0  0  0  0  0
   -1.3141    1.7845    0.1606 O   0  0  0  0  0  0  0  0  0  0  0  0
    0.4162    1.7390    1.6071 N   0  0  0  0  0  0  0  0  0  0  0  0
    1.2229    1.2091    1.9264 H   0  0  0  0  0  0  0  0  0  0  0  0
    0.3245    3.1509    1.9576 C   0  0  0  0  0  0  0  0  0  0  0  0
   -0.6777    3.3903    2.3286 H   0  0  0  0  0  0  0  0  0  0  0  0
    1.0486    3.3937    2.7413 H   0  0  0  0  0  0  0  0  0  0  0  0
    0.5361    3.7763    1.0840 H   0  0  0  0  0  0  0  0  0  0  0  0
  1  2  1  0  0  0  0
  2  3  1  0  0  0  0
  2  4  1  0  0  0  0
  2  5  1  0  0  0  0
  5  6  2  0  0  0  0
  5  7  1  0  0  0  0
  7  8  1  0  0  0  0
  7  9  1  0  0  0  0
  9 10  1  0  0  0  0
  9 11  1  0  0  0  0
  9 21  1  0  0  0  0
 11 12  1  0  0  0  0
 11 13  1  0  0  0  0
 11 14  1  0  0  0  0
 14 15  1  0  0  0  0
 14 16  1  0  0  0  0
 14 17  1  0  0  0  0
 17 18  2  0  0  0  0
 17 19  1  0  0  0  0
 19 20  1  0  0  0  0
 21 22  2  0  0  0  0
 21 23  1  0  0  0  0
 23 24  1  0  0  0  0
 23 25  1  0  0  0  0
 25 26  1  0  0  0  0
 25 27  1  0  0  0  0
 25 28  1  0  0  0  0
M  END
$$$$

  -OEChem-02102214123D

 28 27  0     1  0  0  0  0  0999 V2000
   -3.2628   -3.7590    1.2279 H   0  0  0  0  0  0  0  0  0  0  0  0
   -3.2287   -2.7632    0.7771 C   0  0  0  0  0  0  0  0  0  0  0  0
   -3.8556   -2.0886    1.3651 H   0  0  0  0  0  0  0  0  0  0  0  0
   -3.6238   -2.8227   -0.2399 H   0  0  0  0  0  0  0  0  0  0  0  0
   -1.8012   -2.2515    0.7483 C   0  0  0  0  0  0  0  0  0  0  0  0
   -0.8971   -2.9345    1.2032 O   0  0  0  0  0  0  0  0  0  0  0  0
   -1.5280   -1.0170    0.1985 N   0  0  0  0  0  0  0  0  0  0  0  0
   -2.3237   -0.4372   -0.0655 H   0  0  0  0  0  0  0  0  0  0  0  0
   -0.2214   -0.3475    0.2678 C   0  0  1  0  0  0  0  0  0  0  0  0
    0.3608   -0.7934    1.0800 H   0  0  0  0  0  0  0  0  0  0  0  0
    0.5343   -0.4946   -1.0705 C   0  0  0  0  0  0  0  0  0  0  0  0
   -0.0828   -1.0792   -1.7613 H   0  0  0  0  0  0  0  0  0  0  0  0
    0.6836    0.4831   -1.5436 H   0  0  0  0  0  0  0  0  0  0  0  0
    1.8823   -1.2275   -0.8963 C   0  0  0  0  0  0  0  0  0  0  0  0
    1.9258   -1.8029    0.0328 H   0  0  0  0  0  0  0  0  0  0  0  0
    1.9939   -1.9462   -1.7134 H   0  0  0  0  0  0  0  0  0  0  0  0
    3.0564   -0.2596   -0.9658 C   0  0  0  0  0  0  0  0  0  0  0  0
    3.1330    0.6000   -0.1016 O   0  0  0  0  0  0  0  0  0  0  0  0
    3.9411   -0.3866   -1.9815 O   0  0  0  0  0  0  0  0  0  0  0  0
    4.5987    0.3141   -1.8557 H   0  0  0  0  0  0  0  0  0  0  0  0
   -0.3806    1.1409    0.6391 C   0  0  0  0  0  0  0  0  0  0  0  0
   -1.3191    1.7813    0.1776 O   0  0  0  0  0  0  0  0  0  0  0  0
    0.4420    1.7210    1.5858 N   0  0  0  0  0  0  0  0  0  0  0  0
    1.2873    1.2097    1.8301 H   0  0  0  0  0  0  0  0  0  0  0  0
    0.3505    3.1275    1.9564 C   0  0  0  0  0  0  0  0  0  0  0  0
   -0.6434    3.3554    2.3560 H   0  0  0  0  0  0  0  0  0  0  0  0
    1.0925    3.3645    2.7249 H   0  0  0  0  0  0  0  0  0  0  0  0
    0.5353    3.7663    1.0862 H   0  0  0  0  0  0  0  0  0  0  0  0
  1  2  1  0  0  0  0
  2  3  1  0  0  0  0
  2  4  1  0  0  0  0
  2  5  1  0  0  0  0
  5  6  2  0  0  0  0
  5  7  1  0  0  0  0
  7  8  1  0  0  0  0
  7  9  1  0  0  0  0
  9 10  1  0  0  0  0
  9 11  1  0  0  0  0
  9 21  1  0  0  0  0
 11 12  1  0  0  0  0
 11 13  1  0  0  0  0
 11 14  1  0  0  0  0
 14 15  1  0  0  0  0
 14 16  1  0  0  0  0
 14 17  1  0  0  0  0
 17 18  2  0  0  0  0
 17 19  1  0  0  0  0
 19 20  1  0  0  0  0
 21 22  2  0  0  0  0
 21 23  1  0  0  0  0
 23 24  1  0  0  0  0
 23 25  1  0  0  0  0
 25 26  1  0  0  0  0
 25 27  1  0  0  0  0
 25 28  1  0  0  0  0
M  END
$$$$

  -OEChem-02102214123D

 28 27  0     1  0  0  0  0  0999 V2000
   -3.2769   -3.7352    1.2425 H   0  0  0  0  0  0  0  0  0  0  0  0
   -3.2368   -2.7425    0.7856 C   0  0  0  0  0  0  0  0  0  0  0  0
   -3.8471   -2.0571    1.3784 H   0  0  0  0  0  0  0  0  0  0  0  0
   -3.6465   -2.8031   -0.2254 H   0  0  0  0  0  0  0  0  0  0  0  0
   -1.8043   -2.2469    0.7339 C   0  0  0  0  0  0  0  0  0  0  0  0
   -0.8991   -2.9439    1.1649 O   0  0  0  0  0  0  0  0  0  0  0  0
   -1.5295   -1.0097    0.1912 N   0  0  0  0  0  0  0  0  0  0  0  0
   -2.3254   -0.4191   -0.0469 H   0  0  0  0  0  0  0  0  0  0  0  0
   -0.2186   -0.3480    0.2563 C   0  0  1  0  0  0  0  0  0  0  0  0
    0.3705   -0.8036    1.0592 H   0  0  0  0  0  0  0  0  0  0  0  0
    0.5273   -0.4943   -1.0874 C   0  0  0  0  0  0  0  0  0  0  0  0
   -0.0967   -1.0717   -1.7780 H   0  0  0  0  0  0  0  0  0  0  0  0
    0.6913    0.4834   -1.5556 H   0  0  0  0  0  0  0  0  0  0  0  0
    1.8673   -1.2368   -0.9128 C   0  0  0  0  0  0  0  0  0  0  0  0
    1.8007   -2.0032   -0.1345 H   0  0  0  0  0  0  0  0  0  0  0  0
    2.0989   -1.7546   -1.8481 H   0  0  0  0  0  0  0  0  0  0  0  0
    3.0195   -0.2834   -0.6134 C   0  0  0  0  0  0  0  0  0  0  0  0
    2.9398    0.4212    0.3818 O   0  0  0  0  0  0  0  0  0  0  0  0
    4.0663   -0.2564   -1.4701 O   0  0  0  0  0  0  0  0  0  0  0  0
    4.6875    0.3989   -1.1183 H   0  0  0  0  0  0  0  0  0  0  0  0
   -0.3758    1.1377    0.6406 C   0  0  0  0  0  0  0  0  0  0  0  0
   -1.3219    1.7795    0.1961 O   0  0  0  0  0  0  0  0  0  0  0  0
    0.4522    1.7093    1.5871 N   0  0  0  0  0  0  0  0  0  0  0  0
    1.3213    1.2116    1.7799 H   0  0  0  0  0  0  0  0  0  0  0  0
    0.3564    3.1109    1.9751 C   0  0  0  0  0  0  0  0  0  0  0  0
   -0.6385    3.3303    2.3769 H   0  0  0  0  0  0  0  0  0  0  0  0
    1.0967    3.3407    2.7474 H   0  0  0  0  0  0  0  0  0  0  0  0
    0.5394    3.7607    1.1130 H   0  0  0  0  0  0  0  0  0  0  0  0
  1  2  1  0  0  0  0
  2  3  1  0  0  0  0
  2  4  1  0  0  0  0
  2  5  1  0  0  0  0
  5  6  2  0  0  0  0
  5  7  1  0  0  0  0
  7  8  1  0  0  0  0
  7  9  1  0  0  0  0
  9 10  1  0  0  0  0
  9 11  1  0  0  0  0
  9 21  1  0  0  0  0
 11 12  1  0  0  0  0
 11 13  1  0  0  0  0
 11 14  1  0  0  0  0
 14 15  1  0  0  0  0
 14 16  1  0  0  0  0
 14 17  1  0  0  0  0
 17 18  2  0  0  0  0
 17 19  1  0  0  0  0
 19 20  1  0  0  0  0
 21 22  2  0  0  0  0
 21 23  1  0  0  0  0
 23 24  1  0  0  0  0
 23 25  1  0  0  0  0
 25 26  1  0  0  0  0
 25 27  1  0  0  0  0
 25 28  1  0  0  0  0
M  END
$$$$

  -OEChem-02102214123D

 28 27  0     1  0  0  0  0  0999 V2000
   -3.2668   -3.7403    1.2266 H   0  0  0  0  0  0  0  0  0  0  0  0
   -3.2303   -2.7386    0.7893 C   0  0  0  0  0  0  0  0  0  0  0  0
   -3.8386   -2.0656    1.3983 H   0  0  0  0  0  0  0  0  0  0  0  0
   -3.6446   -2.7793   -0.2209 H   0  0  0  0  0  0  0  0  0  0  0  0
   -1.7984   -2.2408    0.7409 C   0  0  0  0  0  0  0  0  0  0  0  0
   -0.8923   -2.9399    1.1663 O   0  0  0  0  0  0  0  0  0  0  0  0
   -1.5256   -1.0006    0.2040 N   0  0  0  0  0  0  0  0  0  0  0  0
   -2.3225   -0.4109   -0.0333 H   0  0  0  0  0  0  0  0  0  0  0  0
   -0.2162   -0.3353    0.2724 C   0  0  1  0  0  0  0  0  0  0  0  0
    0.3803   -0.7978    1.0660 H   0  0  0  0  0  0  0  0  0  0  0  0
    0.5140   -0.4810   -1.0818 C   0  0  0  0  0  0  0  0  0  0  0  0
   -0.1218   -1.0421   -1.7750 H   0  0  0  0  0  0  0  0  0  0  0  0
    0.6807    0.5036   -1.5332 H   0  0  0  0  0  0  0  0  0  0  0  0
    1.8611   -1.2235   -0.9548 C   0  0  0  0  0  0  0  0  0  0  0  0
    1.7268   -2.1385   -0.3695 H   0  0  0  0  0  0  0  0  0  0  0  0
    2.1795   -1.5254   -1.9567 H   0  0  0  0  0  0  0  0  0  0  0  0
    2.9917   -0.3991   -0.3371 C   0  0  0  0  0  0  0  0  0  0  0  0
    2.7801    0.2478    0.6770 O   0  0  0  0  0  0  0  0  0  0  0  0
    4.1913   -0.4316   -0.9618 O   0  0  0  0  0  0  0  0  0  0  0  0
    4.7839    0.1310   -0.4408 H   0  0  0  0  0  0  0  0  0  0  0  0
   -0.3943    1.1476    0.6639 C   0  0  0  0  0  0  0  0  0  0  0  0
   -1.3392    1.7837    0.2083 O   0  0  0  0  0  0  0  0  0  0  0  0
    0.4207    1.7282    1.6155 N   0  0  0  0  0  0  0  0  0  0  0  0
    1.2850    1.2278    1.8265 H   0  0  0  0  0  0  0  0  0  0  0  0
    0.3140    3.1285    2.0039 C   0  0  0  0  0  0  0  0  0  0  0  0
   -0.6871    3.3436    2.3920 H   0  0  0  0  0  0  0  0  0  0  0  0
    1.0426    3.3594    2.7869 H   0  0  0  0  0  0  0  0  0  0  0  0
    0.5068    3.7802    1.1454 H   0  0  0  0  0  0  0  0  0  0  0  0
  1  2  1  0  0  0  0
  2  3  1  0  0  0  0
  2  4  1  0  0  0  0
  2  5  1  0  0  0  0
  5  6  2  0  0  0  0
  5  7  1  0  0  0  0
  7  8  1  0  0  0  0
  7  9  1  0  0  0  0
  9 10  1  0  0  0  0
  9 11  1  0  0  0  0
  9 21  1  0  0  0  0
 11 12  1  0  0  0  0
 11 13  1  0  0  0  0
 11 14  1  0  0  0  0
 14 15  1  0  0  0  0
 14 16  1  0  0  0  0
 14 17  1  0  0  0  0
 17 18  2  0  0  0  0
 17 19  1  0  0  0  0
 19 20  1  0  0  0  0
 21 22  2  0  0  0  0
 21 23  1  0  0  0  0
 23 24  1  0  0  0  0
 23 25  1  0  0  0  0
 25 26  1  0  0  0  0
 25 27  1  0  0  0  0
 25 28  1  0  0  0  0
M  END
$$$$

  -OEChem-02102214123D

 28 27  0     1  0  0  0  0  0999 V2000
   -3.2007   -3.7382    1.3057 H   0  0  0  0  0  0  0  0  0  0  0  0
   -3.1793   -2.7599    0.8176 C   0  0  0  0  0  0  0  0  0  0  0  0
   -3.7983   -2.0662    1.3919 H   0  0  0  0  0  0  0  0  0  0  0  0
   -3.5924   -2.8585   -0.1891 H   0  0  0  0  0  0  0  0  0  0  0  0
   -1.7551   -2.2435    0.7436 C   0  0  0  0  0  0  0  0  0  0  0  0
   -0.8306   -2.9359    1.1400 O   0  0  0  0  0  0  0  0  0  0  0  0
   -1.5090   -0.9925    0.2194 N   0  0  0  0  0  0  0  0  0  0  0  0
   -2.3174   -0.4062    0.0137 H   0  0  0  0  0  0  0  0  0  0  0  0
   -0.2073   -0.3119    0.2777 C   0  0  1  0  0  0  0  0  0  0  0  0
    0.4144   -0.7760    1.0501 H   0  0  0  0  0  0  0  0  0  0  0  0
    0.4904   -0.4177   -1.0984 C   0  0  0  0  0  0  0  0  0  0  0  0
   -0.1608   -0.9495   -1.8004 H   0  0  0  0  0  0  0  0  0  0  0  0
    0.6444    0.5863   -1.5101 H   0  0  0  0  0  0  0  0  0  0  0  0
    1.8533   -1.1471   -1.0490 C   0  0  0  0  0  0  0  0  0  0  0  0
    1.6812   -2.1728   -0.7081 H   0  0  0  0  0  0  0  0  0  0  0  0
    2.2487   -1.2048   -2.0667 H   0  0  0  0  0  0  0  0  0  0  0  0
    2.9470   -0.5450   -0.1630 C   0  0  0  0  0  0  0  0  0  0  0  0
    2.7259    0.4521    0.5059 O   0  0  0  0  0  0  0  0  0  0  0  0
    4.1424   -1.1768   -0.1786 O   0  0  0  0  0  0  0  0  0  0  0  0
    4.7188   -0.6858    0.4260 H   0  0  0  0  0  0  0  0  0  0  0  0
   -0.4246    1.1608    0.6950 C   0  0  0  0  0  0  0  0  0  0  0  0
   -1.4053    1.7668    0.2740 O   0  0  0  0  0  0  0  0  0  0  0  0
    0.3802    1.7557    1.6464 N   0  0  0  0  0  0  0  0  0  0  0  0
    1.2816    1.3040    1.8018 H   0  0  0  0  0  0  0  0  0  0  0  0
    0.2299    3.1496    2.0444 C   0  0  0  0  0  0  0  0  0  0  0  0
   -0.7754    3.3290    2.4398 H   0  0  0  0  0  0  0  0  0  0  0  0
    0.9551    3.3997    2.8246 H   0  0  0  0  0  0  0  0  0  0  0  0
    0.3960    3.8127    1.1890 H   0  0  0  0  0  0  0  0  0  0  0  0
  1  2  1  0  0  0  0
  2  3  1  0  0  0  0
  2  4  1  0  0  0  0
  2  5  1  0  0  0  0
  5  6  2  0  0  0  0
  5  7  1  0  0  0  0
  7  8  1  0  0  0  0
  7  9  1  0  0  0  0
  9 10  1  0  0  0  0
  9 11  1  0  0  0  0
  9 21  1  0  0  0  0
 11 12  1  0  0  0  0
 11 13  1  0  0  0  0
 11 14  1  0  0  0  0
 14 15  1  0  0  0  0
 14 16  1  0  0  0  0
 14 17  1  0  0  0  0
 17 18  2  0  0  0  0
 17 19  1  0  0  0  0
 19 20  1  0  0  0  0
 21 22  2  0  0  0  0
 21 23  1  0  0  0  0
 23 24  1  0  0  0  0
 23 25  1  0  0  0  0
 25 26  1  0  0  0  0
 25 27  1  0  0  0  0
 25 28  1  0  0  0  0
M  END
$$$$

  -OEChem-02102214123D

 28 27  0     1  0  0  0  0  0999 V2000
   -3.1747   -3.7708    1.2922 H   0  0  0  0  0  0  0  0  0  0  0  0
   -3.1643   -2.7892    0.8103 C   0  0  0  0  0  0  0  0  0  0  0  0
   -3.8005   -2.1095    1.3823 H   0  0  0  0  0  0  0  0  0  0  0  0
   -3.5654   -2.8888   -0.2011 H   0  0  0  0  0  0  0  0  0  0  0  0
   -1.7477   -2.2495    0.7546 C   0  0  0  0  0  0  0  0  0  0  0  0
   -0.8183   -2.9277    1.1636 O   0  0  0  0  0  0  0  0  0  0  0  0
   -1.5126   -0.9963    0.2300 N   0  0  0  0  0  0  0  0  0  0  0  0
   -2.3262   -0.4231    0.0087 H   0  0  0  0  0  0  0  0  0  0  0  0
   -0.2182   -0.3015    0.2872 C   0  0  1  0  0  0  0  0  0  0  0  0
    0.3963   -0.7636    1.0654 H   0  0  0  0  0  0  0  0  0  0  0  0
    0.4834   -0.4109   -1.0883 C   0  0  0  0  0  0  0  0  0  0  0  0
   -0.1660   -0.9365   -1.7965 H   0  0  0  0  0  0  0  0  0  0  0  0
    0.6306    0.5980   -1.4902 H   0  0  0  0  0  0  0  0  0  0  0  0
    1.8593   -1.1210   -1.0652 C   0  0  0  0  0  0  0  0  0  0  0  0
    1.6713   -2.1941   -0.9603 H   0  0  0  0  0  0  0  0  0  0  0  0
    2.3526   -0.9694   -2.0289 H   0  0  0  0  0  0  0  0  0  0  0  0
    2.8474   -0.7365    0.0398 C   0  0  0  0  0  0  0  0  0  0  0  0
    2.7259    0.3263    0.6296 O   0  0  0  0  0  0  0  0  0  0  0  0
    3.8460   -1.6136    0.2890 O   0  0  0  0  0  0  0  0  0  0  0  0
    4.3782   -1.2271    1.0003 H   0  0  0  0  0  0  0  0  0  0  0  0
   -0.4322    1.1717    0.7021 C   0  0  0  0  0  0  0  0  0  0  0  0
   -1.4081    1.7820    0.2771 O   0  0  0  0  0  0  0  0  0  0  0  0
    0.3793    1.7638    1.6499 N   0  0  0  0  0  0  0  0  0  0  0  0
    1.2727    1.3000    1.8162 H   0  0  0  0  0  0  0  0  0  0  0  0
    0.2400    3.1582    2.0500 C   0  0  0  0  0  0  0  0  0  0  0  0
   -0.7641    3.3460    2.4445 H   0  0  0  0  0  0  0  0  0  0  0  0
    0.9666    3.4002    2.8314 H   0  0  0  0  0  0  0  0  0  0  0  0
    0.4128    3.8214    1.1961 H   0  0  0  0  0  0  0  0  0  0  0  0
  1  2  1  0  0  0  0
  2  3  1  0  0  0  0
  2  4  1  0  0  0  0
  2  5  1  0  0  0  0
  5  6  2  0  0  0  0
  5  7  1  0  0  0  0
  7  8  1  0  0  0  0
  7  9  1  0  0  0  0
  9 10  1  0  0  0  0
  9 11  1  0  0  0  0
  9 21  1  0  0  0  0
 11 12  1  0  0  0  0
 11 13  1  0  0  0  0
 11 14  1  0  0  0  0
 14 15  1  0  0  0  0
 14 16  1  0  0  0  0
 14 17  1  0  0  0  0
 17 18  2  0  0  0  0
 17 19  1  0  0  0  0
 19 20  1  0  0  0  0
 21 22  2  0  0  0  0
 21 23  1  0  0  0  0
 23 24  1  0  0  0  0
 23 25  1  0  0  0  0
 25 26  1  0  0  0  0
 25 27  1  0  0  0  0
 25 28  1  0  0  0  0
M  END
$$$$

  -OEChem-02102214123D

 28 27  0     1  0  0  0  0  0999 V2000
   -3.1630   -3.8014    1.2793 H   0  0  0  0  0  0  0  0  0  0  0  0
   -3.1589   -2.8202    0.7967 C   0  0  0  0  0  0  0  0  0  0  0  0
   -3.8145   -2.1496    1.3573 H   0  0  0  0  0  0  0  0  0  0  0  0
   -3.5418   -2.9267   -0.2211 H   0  0  0  0  0  0  0  0  0  0  0  0
   -1.7497   -2.2598    0.7623 C   0  0  0  0  0  0  0  0  0  0  0  0
   -0.8175   -2.9239    1.1873 O   0  0  0  0  0  0  0  0  0  0  0  0
   -1.5260   -1.0048    0.2361 N   0  0  0  0  0  0  0  0  0  0  0  0
   -2.3452   -0.4465   -0.0010 H   0  0  0  0  0  0  0  0  0  0  0  0
   -0.2407   -0.2936    0.2940 C   0  0  1  0  0  0  0  0  0  0  0  0
    0.3531   -0.7509    1.0885 H   0  0  0  0  0  0  0  0  0  0  0  0
    0.4819   -0.4136   -1.0719 C   0  0  0  0  0  0  0  0  0  0  0  0
   -0.1578   -0.9462   -1.7839 H   0  0  0  0  0  0  0  0  0  0  0  0
    0.6164    0.5962   -1.4758 H   0  0  0  0  0  0  0  0  0  0  0  0
    1.8741   -1.0979   -1.0601 C   0  0  0  0  0  0  0  0  0  0  0  0
    1.7068   -2.1692   -1.2087 H   0  0  0  0  0  0  0  0  0  0  0  0
    2.4578   -0.7412   -1.9129 H   0  0  0  0  0  0  0  0  0  0  0  0
    2.7305   -0.9664    0.2024 C   0  0  0  0  0  0  0  0  0  0  0  0
    2.7287    0.0883    0.8210 O   0  0  0  0  0  0  0  0  0  0  0  0
    3.4807   -2.0354    0.5544 O   0  0  0  0  0  0  0  0  0  0  0  0
    3.9470   -1.7885    1.3668 H   0  0  0  0  0  0  0  0  0  0  0  0
   -0.4398    1.1812    0.7022 C   0  0  0  0  0  0  0  0  0  0  0  0
   -1.4068    1.8026    0.2746 O   0  0  0  0  0  0  0  0  0  0  0  0
    0.3853    1.7624    1.6448 N   0  0  0  0  0  0  0  0  0  0  0  0
    1.2600    1.2721    1.8347 H   0  0  0  0  0  0  0  0  0  0  0  0
    0.2698    3.1584    2.0460 C   0  0  0  0  0  0  0  0  0  0  0  0
   -0.7292    3.3610    2.4464 H   0  0  0  0  0  0  0  0  0  0  0  0
    1.0048    3.3895    2.8230 H   0  0  0  0  0  0  0  0  0  0  0  0
    0.4480    3.8192    1.1911 H   0  0  0  0  0  0  0  0  0  0  0  0
  1  2  1  0  0  0  0
  2  3  1  0  0  0  0
  2  4  1  0  0  0  0
  2  5  1  0  0  0  0
  5  6  2  0  0  0  0
  5  7  1  0  0  0  0
  7  8  1  0  0  0  0
  7  9  1  0  0  0  0
  9 10  1  0  0  0  0
  9 11  1  0  0  0  0
  9 21  1  0  0  0  0
 11 12  1  0  0  0  0
 11 13  1  0  0  0  0
 11 14  1  0  0  0  0
 14 15  1  0  0  0  0
 14 16  1  0  0  0  0
 14 17  1  0  0  0  0
 17 18  2  0  0  0  0
 17 19  1  0  0  0  0
 19 20  1  0  0  0  0
 21 22  2  0  0  0  0
 21 23  1  0  0  0  0
 23 24  1  0  0  0  0
 23 25  1  0  0  0  0
 25 26  1  0  0  0  0
 25 27  1  0  0  0  0
 25 28  1  0  0  0  0
M  END
$$$$

  -OEChem-02102214123D

 28 27  0     1  0  0  0  0  0999 V2000
   -3.1565   -3.8282    1.2577 H   0  0  0  0  0  0  0  0  0  0  0  0
   -3.1586   -2.8459    0.7774 C   0  0  0  0  0  0  0  0  0  0  0  0
   -3.8313   -2.1854    1.3296 H   0  0  0  0  0  0  0  0  0  0  0  0
   -3.5246   -2.9547   -0.2463 H   0  0  0  0  0  0  0  0  0  0  0  0
   -1.7566   -2.2671    0.7654 C   0  0  0  0  0  0  0  0  0  0  0  0
   -0.8245   -2.9153    1.2144 O   0  0  0  0  0  0  0  0  0  0  0  0
   -1.5405   -1.0117    0.2360 N   0  0  0  0  0  0  0  0  0  0  0  0
   -2.3621   -0.4697   -0.0278 H   0  0  0  0  0  0  0  0  0  0  0  0
   -0.2631   -0.2861    0.2972 C   0  0  1  0  0  0  0  0  0  0  0  0
    0.3065   -0.7341    1.1113 H   0  0  0  0  0  0  0  0  0  0  0  0
    0.4852   -0.4211   -1.0558 C   0  0  0  0  0  0  0  0  0  0  0  0
   -0.1418   -0.9776   -1.7607 H   0  0  0  0  0  0  0  0  0  0  0  0
    0.6003    0.5821   -1.4815 H   0  0  0  0  0  0  0  0  0  0  0  0
    1.8913   -1.0831   -1.0407 C   0  0  0  0  0  0  0  0  0  0  0  0
    1.7815   -2.0913   -1.4519 H   0  0  0  0  0  0  0  0  0  0  0  0
    2.5540   -0.5340   -1.7152 H   0  0  0  0  0  0  0  0  0  0  0  0
    2.6013   -1.2348    0.3058 C   0  0  0  0  0  0  0  0  0  0  0  0
    2.7263   -0.2462    1.0160 O   0  0  0  0  0  0  0  0  0  0  0  0
    3.0796   -2.4569    0.6325 O   0  0  0  0  0  0  0  0  0  0  0  0
    3.4634   -2.3753    1.5181 H   0  0  0  0  0  0  0  0  0  0  0  0
   -0.4432    1.1910    0.6956 C   0  0  0  0  0  0  0  0  0  0  0  0
   -1.3928    1.8293    0.2556 O   0  0  0  0  0  0  0  0  0  0  0  0
    0.3954    1.7592    1.6346 N   0  0  0  0  0  0  0  0  0  0  0  0
    1.2367    1.2321    1.8707 H   0  0  0  0  0  0  0  0  0  0  0  0
    0.3033    3.1550    2.0423 C   0  0  0  0  0  0  0  0  0  0  0  0
   -0.6883    3.3698    2.4544 H   0  0  0  0  0  0  0  0  0  0  0  0
    1.0498    3.3738    2.8118 H   0  0  0  0  0  0  0  0  0  0  0  0
    0.4806    3.8161    1.1876 H   0  0  0  0  0  0  0  0  0  0  0  0
  1  2  1  0  0  0  0
  2  3  1  0  0  0  0
  2  4  1  0  0  0  0
  2  5  1  0  0  0  0
  5  6  2  0  0  0  0
  5  7  1  0  0  0  0
  7  8  1  0  0  0  0
  7  9  1  0  0  0  0
  9 10  1  0  0  0  0
  9 11  1  0  0  0  0
  9 21  1  0  0  0  0
 11 12  1  0  0  0  0
 11 13  1  0  0  0  0
 11 14  1  0  0  0  0
 14 15  1  0  0  0  0
 14 16  1  0  0  0  0
 14 17  1  0  0  0  0
 17 18  2  0  0  0  0
 17 19  1  0  0  0  0
 19 20  1  0  0  0  0
 21 22  2  0  0  0  0
 21 23  1  0  0  0  0
 23 24  1  0  0  0  0
 23 25  1  0  0  0  0
 25 26  1  0  0  0  0
 25 27  1  0  0  0  0
 25 28  1  0  0  0  0
M  END
$$$$

  -OEChem-02102214123D

 28 27  0     1  0  0  0  0  0999 V2000
   -3.2365   -4.0208    0.7746 H   0  0  0  0  0  0  0  0  0  0  0  0
   -3.2688   -2.9282    0.7413 C   0  0  0  0  0  0  0  0  0  0  0  0
   -3.5212   -2.5537    1.7363 H   0  0  0  0  0  0  0  0  0  0  0  0
   -4.0445   -2.6211    0.0359 H   0  0  0  0  0  0  0  0  0  0  0  0
   -1.9241   -2.3760    0.3059 C   0  0  0  0  0  0  0  0  0  0  0  0
   -1.0038   -3.1544    0.1223 O   0  0  0  0  0  0  0  0  0  0  0  0
   -1.7799   -1.0036    0.2076 N   0  0  0  0  0  0  0  0  0  0  0  0
   -2.5752   -0.4649    0.5486 H   0  0  0  0  0  0  0  0  0  0  0  0
   -0.6101   -0.1865   -0.1850 C   0  0  1  0  0  0  0  0  0  0  0  0
   -1.0971    0.4025   -0.9700 H   0  0  0  0  0  0  0  0  0  0  0  0
    0.4467   -0.8757   -1.1297 C   0  0  0  0  0  0  0  0  0  0  0  0
    0.0364   -1.8051   -1.5276 H   0  0  0  0  0  0  0  0  0  0  0  0
    0.4969   -0.2188   -2.0058 H   0  0  0  0  0  0  0  0  0  0  0  0
    1.9436   -1.1269   -0.7939 C   0  0  0  0  0  0  0  0  0  0  0  0
    2.1086   -2.2068   -0.8589 H   0  0  0  0  0  0  0  0  0  0  0  0
    2.5558   -0.6709   -1.5784 H   0  0  0  0  0  0  0  0  0  0  0  0
    2.5087   -0.7019    0.5481 C   0  0  0  0  0  0  0  0  0  0  0  0
    3.2740    0.2482    0.5741 O   0  0  0  0  0  0  0  0  0  0  0  0
    2.1304   -1.3902    1.6480 O   0  0  0  0  0  0  0  0  0  0  0  0
    2.5933   -0.9974    2.4028 H   0  0  0  0  0  0  0  0  0  0  0  0
   -0.4010    1.0183    0.7819 C   0  0  0  0  0  0  0  0  0  0  0  0
   -1.4276    1.5705    1.1664 O   0  0  0  0  0  0  0  0  0  0  0  0
    0.7765    1.4710    1.3455 N   0  0  0  0  0  0  0  0  0  0  0  0
    1.6483    1.1502    0.9332 H   0  0  0  0  0  0  0  0  0  0  0  0
    0.8442    2.5967    2.2717 C   0  0  0  0  0  0  0  0  0  0  0  0
    0.2455    2.3947    3.1661 H   0  0  0  0  0  0  0  0  0  0  0  0
    1.8795    2.7664    2.5826 H   0  0  0  0  0  0  0  0  0  0  0  0
    0.4710    3.5099    1.7963 H   0  0  0  0  0  0  0  0  0  0  0  0
  1  2  1  0  0  0  0
  2  3  1  0  0  0  0
  2  4  1  0  0  0  0
  2  5  1  0  0  0  0
  5  6  2  0  0  0  0
  5  7  1  0  0  0  0
  7  8  1  0  0  0  0
  7  9  1  0  0  0  0
  9 10  1  0  0  0  0
  9 11  1  0  0  0  0
  9 21  1  0  0  0  0
 11 12  1  0  0  0  0
 11 13  1  0  0  0  0
 11 14  1  0  0  0  0
 14 15  1  0  0  0  0
 14 16  1  0  0  0  0
 14 17  1  0  0  0  0
 17 18  2  0  0  0  0
 17 19  1  0  0  0  0
 19 20  1  0  0  0  0
 21 22  2  0  0  0  0
 21 23  1  0  0  0  0
 23 24  1  0  0  0  0
 23 25  1  0  0  0  0
 25 26  1  0  0  0  0
 25 27  1  0  0  0  0
 25 28  1  0  0  0  0
M  END
$$$$

  -OEChem-02102214123D

 28 27  0     1  0  0  0  0  0999 V2000
   -3.2200   -4.0532    0.8100 H   0  0  0  0  0  0  0  0  0  0  0  0
   -3.2564   -2.9605    0.7794 C   0  0  0  0  0  0  0  0  0  0  0  0
   -3.4640   -2.5879    1.7855 H   0  0  0  0  0  0  0  0  0  0  0  0
   -4.0642   -2.6540    0.1105 H   0  0  0  0  0  0  0  0  0  0  0  0
   -1.9346   -2.4045    0.2829 C   0  0  0  0  0  0  0  0  0  0  0  0
   -1.0356   -3.1848    0.0215 O   0  0  0  0  0  0  0  0  0  0  0  0
   -1.7945   -1.0303    0.2035 N   0  0  0  0  0  0  0  0  0  0  0  0
   -2.5740   -0.5019    0.5929 H   0  0  0  0  0  0  0  0  0  0  0  0
   -0.6443   -0.1988   -0.2155 C   0  0  1  0  0  0  0  0  0  0  0  0
   -1.1634    0.3927   -0.9777 H   0  0  0  0  0  0  0  0  0  0  0  0
    0.4071   -0.8425   -1.1918 C   0  0  0  0  0  0  0  0  0  0  0  0
    0.0277   -1.7967   -1.5581 H   0  0  0  0  0  0  0  0  0  0  0  0
    0.4158   -0.2041   -2.0826 H   0  0  0  0  0  0  0  0  0  0  0  0
    1.9080   -1.0393   -0.8474 C   0  0  0  0  0  0  0  0  0  0  0  0
    2.2056   -2.0326   -1.1959 H   0  0  0  0  0  0  0  0  0  0  0  0
    2.4874   -0.3126   -1.4256 H   0  0  0  0  0  0  0  0  0  0  0  0
    2.3460   -0.9285    0.6061 C   0  0  0  0  0  0  0  0  0  0  0  0
    3.2269   -0.1279    0.8745 O   0  0  0  0  0  0  0  0  0  0  0  0
    1.7375   -1.7076    1.5265 O   0  0  0  0  0  0  0  0  0  0  0  0
    2.1527   -1.5146    2.3798 H   0  0  0  0  0  0  0  0  0  0  0  0
   -0.3940    0.9930    0.7552 C   0  0  0  0  0  0  0  0  0  0  0  0
   -1.3992    1.5545    1.1792 O   0  0  0  0  0  0  0  0  0  0  0  0
    0.8124    1.4309    1.2685 N   0  0  0  0  0  0  0  0  0  0  0  0
    1.6685    1.0309    0.8936 H   0  0  0  0  0  0  0  0  0  0  0  0
    0.9359    2.5320    2.2173 C   0  0  0  0  0  0  0  0  0  0  0  0
    0.3836    2.3106    3.1366 H   0  0  0  0  0  0  0  0  0  0  0  0
    1.9875    2.6886    2.4768 H   0  0  0  0  0  0  0  0  0  0  0  0
    0.5445    3.4586    1.7847 H   0  0  0  0  0  0  0  0  0  0  0  0
  1  2  1  0  0  0  0
  2  3  1  0  0  0  0
  2  4  1  0  0  0  0
  2  5  1  0  0  0  0
  5  6  2  0  0  0  0
  5  7  1  0  0  0  0
  7  8  1  0  0  0  0
  7  9  1  0  0  0  0
  9 10  1  0  0  0  0
  9 11  1  0  0  0  0
  9 21  1  0  0  0  0
 11 12  1  0  0  0  0
 11 13  1  0  0  0  0
 11 14  1  0  0  0  0
 14 15  1  0  0  0  0
 14 16  1  0  0  0  0
 14 17  1  0  0  0  0
 17 18  2  0  0  0  0
 17 19  1  0  0  0  0
 19 20  1  0  0  0  0
 21 22  2  0  0  0  0
 21 23  1  0  0  0  0
 23 24  1  0  0  0  0
 23 25  1  0  0  0  0
 25 26  1  0  0  0  0
 25 27  1  0  0  0  0
 25 28  1  0  0  0  0
M  END
$$$$

  -OEChem-02102214123D

 28 27  0     1  0  0  0  0  0999 V2000
   -3.1217   -3.8268    1.2009 H   0  0  0  0  0  0  0  0  0  0  0  0
   -3.0887   -2.8512    0.7081 C   0  0  0  0  0  0  0  0  0  0  0  0
   -3.8075   -2.1868    1.1936 H   0  0  0  0  0  0  0  0  0  0  0  0
   -3.3684   -2.9769   -0.3406 H   0  0  0  0  0  0  0  0  0  0  0  0
   -1.6937   -2.2636    0.8038 C   0  0  0  0  0  0  0  0  0  0  0  0
   -0.8159   -2.8724    1.3961 O   0  0  0  0  0  0  0  0  0  0  0  0
   -1.4352   -1.0305    0.2413 N   0  0  0  0  0  0  0  0  0  0  0  0
   -2.2266   -0.5137   -0.1396 H   0  0  0  0  0  0  0  0  0  0  0  0
   -0.1535   -0.3154    0.3295 C   0  0  1  0  0  0  0  0  0  0  0  0
    0.4283   -0.7179    1.1603 H   0  0  0  0  0  0  0  0  0  0  0  0
    0.6050   -0.4382   -1.0235 C   0  0  0  0  0  0  0  0  0  0  0  0
   -0.0173   -1.0261   -1.7069 H   0  0  0  0  0  0  0  0  0  0  0  0
    0.7138    0.5500   -1.4842 H   0  0  0  0  0  0  0  0  0  0  0  0
    1.9957   -1.1176   -0.9864 C   0  0  0  0  0  0  0  0  0  0  0  0
    2.2032   -1.5698   -1.9603 H   0  0  0  0  0  0  0  0  0  0  0  0
    2.7548   -0.3476   -0.8194 H   0  0  0  0  0  0  0  0  0  0  0  0
    2.1700   -2.1796    0.0936 C   0  0  0  0  0  0  0  0  0  0  0  0
    2.6888   -1.8558    1.1506 O   0  0  0  0  0  0  0  0  0  0  0  0
    1.7113   -3.4222   -0.1767 O   0  0  0  0  0  0  0  0  0  0  0  0
    1.7271   -3.9013    0.6668 H   0  0  0  0  0  0  0  0  0  0  0  0
   -0.3876    1.1698    0.6694 C   0  0  0  0  0  0  0  0  0  0  0  0
   -1.2931    1.7869    0.1199 O   0  0  0  0  0  0  0  0  0  0  0  0
    0.3834    1.7979    1.6292 N   0  0  0  0  0  0  0  0  0  0  0  0
    1.0969    1.2433    2.0964 H   0  0  0  0  0  0  0  0  0  0  0  0
    0.1778    3.1807    2.0416 C   0  0  0  0  0  0  0  0  0  0  0  0
   -0.8270    3.3115    2.4570 H   0  0  0  0  0  0  0  0  0  0  0  0
    0.9073    3.4598    2.8078 H   0  0  0  0  0  0  0  0  0  0  0  0
    0.2969    3.8565    1.1882 H   0  0  0  0  0  0  0  0  0  0  0  0
  1  2  1  0  0  0  0
  2  3  1  0  0  0  0
  2  4  1  0  0  0  0
  2  5  1  0  0  0  0
  5  6  2  0  0  0  0
  5  7  1  0  0  0  0
  7  8  1  0  0  0  0
  7  9  1  0  0  0  0
  9 10  1  0  0  0  0
  9 11  1  0  0  0  0
  9 21  1  0  0  0  0
 11 12  1  0  0  0  0
 11 13  1  0  0  0  0
 11 14  1  0  0  0  0
 14 15  1  0  0  0  0
 14 16  1  0  0  0  0
 14 17  1  0  0  0  0
 17 18  2  0  0  0  0
 17 19  1  0  0  0  0
 19 20  1  0  0  0  0
 21 22  2  0  0  0  0
 21 23  1  0  0  0  0
 23 24  1  0  0  0  0
 23 25  1  0  0  0  0
 25 26  1  0  0  0  0
 25 27  1  0  0  0  0
 25 28  1  0  0  0  0
M  END
$$$$

  -OEChem-02102214123D

 28 27  0     1  0  0  0  0  0999 V2000
   -3.1668   -3.7894    1.3525 H   0  0  0  0  0  0  0  0  0  0  0  0
   -3.1363   -2.8333    0.8226 C   0  0  0  0  0  0  0  0  0  0  0  0
   -3.8375   -2.1442    1.2992 H   0  0  0  0  0  0  0  0  0  0  0  0
   -3.4419   -2.9950   -0.2139 H   0  0  0  0  0  0  0  0  0  0  0  0
   -1.7336   -2.2577    0.8631 C   0  0  0  0  0  0  0  0  0  0  0  0
   -0.8346   -2.8773    1.4113 O   0  0  0  0  0  0  0  0  0  0  0  0
   -1.4885   -1.0166    0.3120 N   0  0  0  0  0  0  0  0  0  0  0  0
   -2.2866   -0.4848   -0.0313 H   0  0  0  0  0  0  0  0  0  0  0  0
   -0.1774   -0.3525    0.2953 C   0  0  1  0  0  0  0  0  0  0  0  0
    0.4819   -0.8052    1.0386 H   0  0  0  0  0  0  0  0  0  0  0  0
    0.4305   -0.4450   -1.1308 C   0  0  0  0  0  0  0  0  0  0  0  0
   -0.2772   -0.9712   -1.7810 H   0  0  0  0  0  0  0  0  0  0  0  0
    0.5536    0.5578   -1.5551 H   0  0  0  0  0  0  0  0  0  0  0  0
    1.7831   -1.1826   -1.2214 C   0  0  0  0  0  0  0  0  0  0  0  0
    2.0177   -1.3883   -2.2699 H   0  0  0  0  0  0  0  0  0  0  0  0
    2.5701   -0.5310   -0.8321 H   0  0  0  0  0  0  0  0  0  0  0  0
    1.8235   -2.4905   -0.4355 C   0  0  0  0  0  0  0  0  0  0  0  0
    1.3933   -3.4929   -0.9797 O   0  0  0  0  0  0  0  0  0  0  0  0
    2.3253   -2.4717    0.8215 O   0  0  0  0  0  0  0  0  0  0  0  0
    2.1340   -3.3535    1.1812 H   0  0  0  0  0  0  0  0  0  0  0  0
   -0.3255    1.1282    0.7008 C   0  0  0  0  0  0  0  0  0  0  0  0
   -1.2423    1.7991    0.2405 O   0  0  0  0  0  0  0  0  0  0  0  0
    0.5538    1.7019    1.6000 N   0  0  0  0  0  0  0  0  0  0  0  0
    1.2687    1.1040    2.0058 H   0  0  0  0  0  0  0  0  0  0  0  0
    0.4432    3.0822    2.0558 C   0  0  0  0  0  0  0  0  0  0  0  0
   -0.5141    3.2426    2.5629 H   0  0  0  0  0  0  0  0  0  0  0  0
    1.2500    3.3158    2.7573 H   0  0  0  0  0  0  0  0  0  0  0  0
    0.5126    3.7721    1.2083 H   0  0  0  0  0  0  0  0  0  0  0  0
  1  2  1  0  0  0  0
  2  3  1  0  0  0  0
  2  4  1  0  0  0  0
  2  5  1  0  0  0  0
  5  6  2  0  0  0  0
  5  7  1  0  0  0  0
  7  8  1  0  0  0  0
  7  9  1  0  0  0  0
  9 10  1  0  0  0  0
  9 11  1  0  0  0  0
  9 21  1  0  0  0  0
 11 12  1  0  0  0  0
 11 13  1  0  0  0  0
 11 14  1  0  0  0  0
 14 15  1  0  0  0  0
 14 16  1  0  0  0  0
 14 17  1  0  0  0  0
 17 18  2  0  0  0  0
 17 19  1  0  0  0  0
 19 20  1  0  0  0  0
 21 22  2  0  0  0  0
 21 23  1  0  0  0  0
 23 24  1  0  0  0  0
 23 25  1  0  0  0  0
 25 26  1  0  0  0  0
 25 27  1  0  0  0  0
 25 28  1  0  0  0  0
M  END
$$$$

  -OEChem-02102214123D

 28 27  0     1  0  0  0  0  0999 V2000
   -3.0930   -3.8408    1.3222 H   0  0  0  0  0  0  0  0  0  0  0  0
   -3.0803   -2.8781    0.8036 C   0  0  0  0  0  0  0  0  0  0  0  0
   -3.7837   -2.2031    1.2970 H   0  0  0  0  0  0  0  0  0  0  0  0
   -3.3967   -3.0312   -0.2310 H   0  0  0  0  0  0  0  0  0  0  0  0
   -1.6838   -2.2868    0.8330 C   0  0  0  0  0  0  0  0  0  0  0  0
   -0.7682   -2.9124    1.3455 O   0  0  0  0  0  0  0  0  0  0  0  0
   -1.4636   -1.0327    0.3010 N   0  0  0  0  0  0  0  0  0  0  0  0
   -2.2756   -0.5126   -0.0274 H   0  0  0  0  0  0  0  0  0  0  0  0
   -0.1666   -0.3409    0.2686 C   0  0  1  0  0  0  0  0  0  0  0  0
    0.5195   -0.8037    0.9845 H   0  0  0  0  0  0  0  0  0  0  0  0
    0.4123   -0.4251   -1.1670 C   0  0  0  0  0  0  0  0  0  0  0  0
   -0.2900   -0.9548   -1.8208 H   0  0  0  0  0  0  0  0  0  0  0  0
    0.5287    0.5817   -1.5834 H   0  0  0  0  0  0  0  0  0  0  0  0
    1.7733   -1.1424   -1.2231 C   0  0  0  0  0  0  0  0  0  0  0  0
    2.1375   -1.1610   -2.2543 H   0  0  0  0  0  0  0  0  0  0  0  0
    2.5066   -0.5960   -0.6236 H   0  0  0  0  0  0  0  0  0  0  0  0
    1.6778   -2.5757   -0.7119 C   0  0  0  0  0  0  0  0  0  0  0  0
    1.1175   -3.4046   -1.4098 O   0  0  0  0  0  0  0  0  0  0  0  0
    2.1822   -2.8366    0.5159 O   0  0  0  0  0  0  0  0  0  0  0  0
    1.8586   -3.7235    0.7433 H   0  0  0  0  0  0  0  0  0  0  0  0
   -0.3239    1.1313    0.6996 C   0  0  0  0  0  0  0  0  0  0  0  0
   -1.2584    1.7976    0.2700 O   0  0  0  0  0  0  0  0  0  0  0  0
    0.5686    1.7019    1.5876 N   0  0  0  0  0  0  0  0  0  0  0  0
    1.2922    1.1033    1.9764 H   0  0  0  0  0  0  0  0  0  0  0  0
    0.4501    3.0725    2.0702 C   0  0  0  0  0  0  0  0  0  0  0  0
   -0.5055    3.2167    2.5852 H   0  0  0  0  0  0  0  0  0  0  0  0
    1.2587    3.2978    2.7721 H   0  0  0  0  0  0  0  0  0  0  0  0
    0.5104    3.7791    1.2357 H   0  0  0  0  0  0  0  0  0  0  0  0
  1  2  1  0  0  0  0
  2  3  1  0  0  0  0
  2  4  1  0  0  0  0
  2  5  1  0  0  0  0
  5  6  2  0  0  0  0
  5  7  1  0  0  0  0
  7  8  1  0  0  0  0
  7  9  1  0  0  0  0
  9 10  1  0  0  0  0
  9 11  1  0  0  0  0
  9 21  1  0  0  0  0
 11 12  1  0  0  0  0
 11 13  1  0  0  0  0
 11 14  1  0  0  0  0
 14 15  1  0  0  0  0
 14 16  1  0  0  0  0
 14 17  1  0  0  0  0
 17 18  2  0  0  0  0
 17 19  1  0  0  0  0
 19 20  1  0  0  0  0
 21 22  2  0  0  0  0
 21 23  1  0  0  0  0
 23 24  1  0  0  0  0
 23 25  1  0  0  0  0
 25 26  1  0  0  0  0
 25 27  1  0  0  0  0
 25 28  1  0  0  0  0
M  END
$$$$

  -OEChem-02102214123D

 28 27  0     1  0  0  0  0  0999 V2000
   -3.0660   -3.8512    1.2910 H   0  0  0  0  0  0  0  0  0  0  0  0
   -3.0698   -2.8761    0.7959 C   0  0  0  0  0  0  0  0  0  0  0  0
   -3.7522   -2.2119    1.3317 H   0  0  0  0  0  0  0  0  0  0  0  0
   -3.4243   -3.0030   -0.2300 H   0  0  0  0  0  0  0  0  0  0  0  0
   -1.6718   -2.2881    0.7887 C   0  0  0  0  0  0  0  0  0  0  0  0
   -0.7399   -2.9255    1.2544 O   0  0  0  0  0  0  0  0  0  0  0  0
   -1.4646   -1.0277    0.2675 N   0  0  0  0  0  0  0  0  0  0  0  0
   -2.2850   -0.5010   -0.0283 H   0  0  0  0  0  0  0  0  0  0  0  0
   -0.1737   -0.3249    0.2453 C   0  0  1  0  0  0  0  0  0  0  0  0
    0.5103   -0.7945    0.9605 H   0  0  0  0  0  0  0  0  0  0  0  0
    0.4121   -0.4175   -1.1829 C   0  0  0  0  0  0  0  0  0  0  0  0
   -0.2825   -0.9332   -1.8557 H   0  0  0  0  0  0  0  0  0  0  0  0
    0.5451    0.5915   -1.5884 H   0  0  0  0  0  0  0  0  0  0  0  0
    1.7769   -1.1291   -1.1917 C   0  0  0  0  0  0  0  0  0  0  0  0
    2.2690   -0.9551   -2.1525 H   0  0  0  0  0  0  0  0  0  0  0  0
    2.4266   -0.7215   -0.4121 H   0  0  0  0  0  0  0  0  0  0  0  0
    1.6296   -2.6364   -1.0071 C   0  0  0  0  0  0  0  0  0  0  0  0
    0.9716   -3.2709   -1.8156 O   0  0  0  0  0  0  0  0  0  0  0  0
    2.2263   -3.1849    0.0753 O   0  0  0  0  0  0  0  0  0  0  0  0
    1.9072   -4.0999    0.1134 H   0  0  0  0  0  0  0  0  0  0  0  0
   -0.3378    1.1434    0.6868 C   0  0  0  0  0  0  0  0  0  0  0  0
   -1.2790    1.8056    0.2659 O   0  0  0  0  0  0  0  0  0  0  0  0
    0.5498    1.7125    1.5807 N   0  0  0  0  0  0  0  0  0  0  0  0
    1.2795    1.1176    1.9630 H   0  0  0  0  0  0  0  0  0  0  0  0
    0.4170    3.0762    2.0784 C   0  0  0  0  0  0  0  0  0  0  0  0
   -0.5289    3.1972    2.6169 H   0  0  0  0  0  0  0  0  0  0  0  0
    1.2377    3.3111    2.7632 H   0  0  0  0  0  0  0  0  0  0  0  0
    0.4445    3.7908    1.2490 H   0  0  0  0  0  0  0  0  0  0  0  0
  1  2  1  0  0  0  0
  2  3  1  0  0  0  0
  2  4  1  0  0  0  0
  2  5  1  0  0  0  0
  5  6  2  0  0  0  0
  5  7  1  0  0  0  0
  7  8  1  0  0  0  0
  7  9  1  0  0  0  0
  9 10  1  0  0  0  0
  9 11  1  0  0  0  0
  9 21  1  0  0  0  0
 11 12  1  0  0  0  0
 11 13  1  0  0  0  0
 11 14  1  0  0  0  0
 14 15  1  0  0  0  0
 14 16  1  0  0  0  0
 14 17  1  0  0  0  0
 17 18  2  0  0  0  0
 17 19  1  0  0  0  0
 19 20  1  0  0  0  0
 21 22  2  0  0  0  0
 21 23  1  0  0  0  0
 23 24  1  0  0  0  0
 23 25  1  0  0  0  0
 25 26  1  0  0  0  0
 25 27  1  0  0  0  0
 25 28  1  0  0  0  0
M  END
$$$$

  -OEChem-02102214123D

 28 27  0     1  0  0  0  0  0999 V2000
   -3.0728   -3.8366    1.2833 H   0  0  0  0  0  0  0  0  0  0  0  0
   -3.0816   -2.8559    0.7993 C   0  0  0  0  0  0  0  0  0  0  0  0
   -3.7478   -2.1934    1.3571 H   0  0  0  0  0  0  0  0  0  0  0  0
   -3.4597   -2.9691   -0.2197 H   0  0  0  0  0  0  0  0  0  0  0  0
   -1.6808   -2.2756    0.7681 C   0  0  0  0  0  0  0  0  0  0  0  0
   -0.7413   -2.9212    1.2055 O   0  0  0  0  0  0  0  0  0  0  0  0
   -1.4746   -1.0150    0.2484 N   0  0  0  0  0  0  0  0  0  0  0  0
   -2.2960   -0.4806   -0.0305 H   0  0  0  0  0  0  0  0  0  0  0  0
   -0.1842   -0.3122    0.2413 C   0  0  1  0  0  0  0  0  0  0  0  0
    0.4865   -0.7811    0.9686 H   0  0  0  0  0  0  0  0  0  0  0  0
    0.4173   -0.4192   -1.1784 C   0  0  0  0  0  0  0  0  0  0  0  0
   -0.2770   -0.9191   -1.8631 H   0  0  0  0  0  0  0  0  0  0  0  0
    0.5640    0.5902   -1.5786 H   0  0  0  0  0  0  0  0  0  0  0  0
    1.7849   -1.1339   -1.1683 C   0  0  0  0  0  0  0  0  0  0  0  0
    2.3813   -0.7642   -2.0070 H   0  0  0  0  0  0  0  0  0  0  0  0
    2.3407   -0.9058   -0.2548 H   0  0  0  0  0  0  0  0  0  0  0  0
    1.6625   -2.6472   -1.3386 C   0  0  0  0  0  0  0  0  0  0  0  0
    0.9912   -3.0955   -2.2540 O   0  0  0  0  0  0  0  0  0  0  0  0
    2.3262   -3.4195   -0.4489 O   0  0  0  0  0  0  0  0  0  0  0  0
    2.0707   -4.3322   -0.6508 H   0  0  0  0  0  0  0  0  0  0  0  0
   -0.3525    1.1563    0.6808 C   0  0  0  0  0  0  0  0  0  0  0  0
   -1.2947    1.8151    0.2568 O   0  0  0  0  0  0  0  0  0  0  0  0
    0.5242    1.7267    1.5848 N   0  0  0  0  0  0  0  0  0  0  0  0
    1.2567    1.1360    1.9681 H   0  0  0  0  0  0  0  0  0  0  0  0
    0.3804    3.0886    2.0852 C   0  0  0  0  0  0  0  0  0  0  0  0
   -0.5668    3.2014    2.6231 H   0  0  0  0  0  0  0  0  0  0  0  0
    1.1988    3.3287    2.7708 H   0  0  0  0  0  0  0  0  0  0  0  0
    0.4029    3.8053    1.2574 H   0  0  0  0  0  0  0  0  0  0  0  0
  1  2  1  0  0  0  0
  2  3  1  0  0  0  0
  2  4  1  0  0  0  0
  2  5  1  0  0  0  0
  5  6  2  0  0  0  0
  5  7  1  0  0  0  0
  7  8  1  0  0  0  0
  7  9  1  0  0  0  0
  9 10  1  0  0  0  0
  9 11  1  0  0  0  0
  9 21  1  0  0  0  0
 11 12  1  0  0  0  0
 11 13  1  0  0  0  0
 11 14  1  0  0  0  0
 14 15  1  0  0  0  0
 14 16  1  0  0  0  0
 14 17  1  0  0  0  0
 17 18  2  0  0  0  0
 17 19  1  0  0  0  0
 19 20  1  0  0  0  0
 21 22  2  0  0  0  0
 21 23  1  0  0  0  0
 23 24  1  0  0  0  0
 23 25  1  0  0  0  0
 25 26  1  0  0  0  0
 25 27  1  0  0  0  0
 25 28  1  0  0  0  0
M  END
$$$$

  -OEChem-02102214123D

 28 27  0     1  0  0  0  0  0999 V2000
   -3.0997   -3.8075    1.3133 H   0  0  0  0  0  0  0  0  0  0  0  0
   -3.0982   -2.8392    0.8053 C   0  0  0  0  0  0  0  0  0  0  0  0
   -3.7692   -2.1612    1.3381 H   0  0  0  0  0  0  0  0  0  0  0  0
   -3.4638   -2.9760   -0.2152 H   0  0  0  0  0  0  0  0  0  0  0  0
   -1.6945   -2.2649    0.7778 C   0  0  0  0  0  0  0  0  0  0  0  0
   -0.7596   -2.9114    1.2231 O   0  0  0  0  0  0  0  0  0  0  0  0
   -1.4791   -1.0092    0.2503 N   0  0  0  0  0  0  0  0  0  0  0  0
   -2.2971   -0.4708   -0.0314 H   0  0  0  0  0  0  0  0  0  0  0  0
   -0.1866   -0.3095    0.2510 C   0  0  1  0  0  0  0  0  0  0  0  0
    0.4722   -0.7724    0.9919 H   0  0  0  0  0  0  0  0  0  0  0  0
    0.4313   -0.4227   -1.1626 C   0  0  0  0  0  0  0  0  0  0  0  0
   -0.2664   -0.9213   -1.8444 H   0  0  0  0  0  0  0  0  0  0  0  0
    0.5767    0.5850   -1.5677 H   0  0  0  0  0  0  0  0  0  0  0  0
    1.8037   -1.1386   -1.1589 C   0  0  0  0  0  0  0  0  0  0  0  0
    2.4872   -0.5854   -1.8087 H   0  0  0  0  0  0  0  0  0  0  0  0
    2.2492   -1.1405   -0.1608 H   0  0  0  0  0  0  0  0  0  0  0  0
    1.7484   -2.5716   -1.6882 C   0  0  0  0  0  0  0  0  0  0  0  0
    1.1515   -2.8060   -2.7265 O   0  0  0  0  0  0  0  0  0  0  0  0
    2.4015   -3.5159   -0.9731 O   0  0  0  0  0  0  0  0  0  0  0  0
    2.2297   -4.3560   -1.4241 H   0  0  0  0  0  0  0  0  0  0  0  0
   -0.3606    1.1624    0.6776 C   0  0  0  0  0  0  0  0  0  0  0  0
   -1.3020    1.8152    0.2428 O   0  0  0  0  0  0  0  0  0  0  0  0
    0.5057    1.7403    1.5869 N   0  0  0  0  0  0  0  0  0  0  0  0
    1.2312    1.1513    1.9860 H   0  0  0  0  0  0  0  0  0  0  0  0
    0.3499    3.1025    2.0831 C   0  0  0  0  0  0  0  0  0  0  0  0
   -0.5794    3.1979    2.6546 H   0  0  0  0  0  0  0  0  0  0  0  0
    1.1875    3.3659    2.7360 H   0  0  0  0  0  0  0  0  0  0  0  0
    0.3261    3.8139    1.2507 H   0  0  0  0  0  0  0  0  0  0  0  0
  1  2  1  0  0  0  0
  2  3  1  0  0  0  0
  2  4  1  0  0  0  0
  2  5  1  0  0  0  0
  5  6  2  0  0  0  0
  5  7  1  0  0  0  0
  7  8  1  0  0  0  0
  7  9  1  0  0  0  0
  9 10  1  0  0  0  0
  9 11  1  0  0  0  0
  9 21  1  0  0  0  0
 11 12  1  0  0  0  0
 11 13  1  0  0  0  0
 11 14  1  0  0  0  0
 14 15  1  0  0  0  0
 14 16  1  0  0  0  0
 14 17  1  0  0  0  0
 17 18  2  0  0  0  0
 17 19  1  0  0  0  0
 19 20  1  0  0  0  0
 21 22  2  0  0  0  0
 21 23  1  0  0  0  0
 23 24  1  0  0  0  0
 23 25  1  0  0  0  0
 25 26  1  0  0  0  0
 25 27  1  0  0  0  0
 25 28  1  0  0  0  0
M  END
$$$$

  -OEChem-02102214123D

 28 27  0     1  0  0  0  0  0999 V2000
   -3.0888   -3.8386    1.2563 H   0  0  0  0  0  0  0  0  0  0  0  0
   -3.0974   -2.8430    0.8038 C   0  0  0  0  0  0  0  0  0  0  0  0
   -3.7631   -2.1982    1.3825 H   0  0  0  0  0  0  0  0  0  0  0  0
   -3.4764   -2.9239   -0.2179 H   0  0  0  0  0  0  0  0  0  0  0  0
   -1.6962   -2.2620    0.7910 C   0  0  0  0  0  0  0  0  0  0  0  0
   -0.7644   -2.9001    1.2545 O   0  0  0  0  0  0  0  0  0  0  0  0
   -1.4785   -1.0104    0.2548 N   0  0  0  0  0  0  0  0  0  0  0  0
   -2.2946   -0.4751   -0.0379 H   0  0  0  0  0  0  0  0  0  0  0  0
   -0.1868   -0.3088    0.2629 C   0  0  1  0  0  0  0  0  0  0  0  0
    0.4639   -0.7613    1.0166 H   0  0  0  0  0  0  0  0  0  0  0  0
    0.4483   -0.4217   -1.1445 C   0  0  0  0  0  0  0  0  0  0  0  0
   -0.2458   -0.9440   -1.8125 H   0  0  0  0  0  0  0  0  0  0  0  0
    0.5787    0.5791   -1.5714 H   0  0  0  0  0  0  0  0  0  0  0  0
    1.8253   -1.1335   -1.1399 C   0  0  0  0  0  0  0  0  0  0  0  0
    2.5849   -0.4467   -1.5226 H   0  0  0  0  0  0  0  0  0  0  0  0
    2.1246   -1.4064   -0.1248 H   0  0  0  0  0  0  0  0  0  0  0  0
    1.8617   -2.4001   -1.9952 C   0  0  0  0  0  0  0  0  0  0  0  0
    1.3875   -2.3741   -3.1193 O   0  0  0  0  0  0  0  0  0  0  0  0
    2.4541   -3.4926   -1.4612 O   0  0  0  0  0  0  0  0  0  0  0  0
    2.3693   -4.1930   -2.1253 H   0  0  0  0  0  0  0  0  0  0  0  0
   -0.3683    1.1665    0.6754 C   0  0  0  0  0  0  0  0  0  0  0  0
   -1.3085    1.8128    0.2283 O   0  0  0  0  0  0  0  0  0  0  0  0
    0.4871    1.7542    1.5889 N   0  0  0  0  0  0  0  0  0  0  0  0
    1.2192    1.1748    1.9898 H   0  0  0  0  0  0  0  0  0  0  0  0
    0.3269    3.1222    2.0677 C   0  0  0  0  0  0  0  0  0  0  0  0
   -0.6302    3.2367    2.5875 H   0  0  0  0  0  0  0  0  0  0  0  0
    1.1318    3.3765    2.7641 H   0  0  0  0  0  0  0  0  0  0  0  0
    0.3595    3.8279    1.2307 H   0  0  0  0  0  0  0  0  0  0  0  0
  1  2  1  0  0  0  0
  2  3  1  0  0  0  0
  2  4  1  0  0  0  0
  2  5  1  0  0  0  0
  5  6  2  0  0  0  0
  5  7  1  0  0  0  0
  7  8  1  0  0  0  0
  7  9  1  0  0  0  0
  9 10  1  0  0  0  0
  9 11  1  0  0  0  0
  9 21  1  0  0  0  0
 11 12  1  0  0  0  0
 11 13  1  0  0  0  0
 11 14  1  0  0  0  0
 14 15  1  0  0  0  0
 14 16  1  0  0  0  0
 14 17  1  0  0  0  0
 17 18  2  0  0  0  0
 17 19  1  0  0  0  0
 19 20  1  0  0  0  0
 21 22  2  0  0  0  0
 21 23  1  0  0  0  0
 23 24  1  0  0  0  0
 23 25  1  0  0  0  0
 25 26  1  0  0  0  0
 25 27  1  0  0  0  0
 25 28  1  0  0  0  0
M  END
$$$$

  -OEChem-02102214123D

 28 27  0     1  0  0  0  0  0999 V2000
   -3.1228   -3.8053    1.2746 H   0  0  0  0  0  0  0  0  0  0  0  0
   -3.1218   -2.8118    0.8175 C   0  0  0  0  0  0  0  0  0  0  0  0
   -3.7698   -2.1544    1.4022 H   0  0  0  0  0  0  0  0  0  0  0  0
   -3.5158   -2.8914   -0.1986 H   0  0  0  0  0  0  0  0  0  0  0  0
   -1.7122   -2.2527    0.7835 C   0  0  0  0  0  0  0  0  0  0  0  0
   -0.7843   -2.8999    1.2424 O   0  0  0  0  0  0  0  0  0  0  0  0
   -1.4842   -1.0053    0.2426 N   0  0  0  0  0  0  0  0  0  0  0  0
   -2.2969   -0.4602   -0.0422 H   0  0  0  0  0  0  0  0  0  0  0  0
   -0.1880   -0.3122    0.2562 C   0  0  1  0  0  0  0  0  0  0  0  0
    0.4571   -0.7626    1.0163 H   0  0  0  0  0  0  0  0  0  0  0  0
    0.4644   -0.4228   -1.1430 C   0  0  0  0  0  0  0  0  0  0  0  0
   -0.2221   -0.9683   -1.8002 H   0  0  0  0  0  0  0  0  0  0  0  0
    0.5903    0.5697   -1.5898 H   0  0  0  0  0  0  0  0  0  0  0  0
    1.8371   -1.1405   -1.1183 C   0  0  0  0  0  0  0  0  0  0  0  0
    2.6412   -0.4030   -1.1852 H   0  0  0  0  0  0  0  0  0  0  0  0
    1.9646   -1.6792   -0.1752 H   0  0  0  0  0  0  0  0  0  0  0  0
    2.0134   -2.1737   -2.2321 C   0  0  0  0  0  0  0  0  0  0  0  0
    1.5542   -1.9441   -3.3391 O   0  0  0  0  0  0  0  0  0  0  0  0
    2.7114   -3.2934   -1.9336 O   0  0  0  0  0  0  0  0  0  0  0  0
    2.7200   -3.8247   -2.7439 H   0  0  0  0  0  0  0  0  0  0  0  0
   -0.3703    1.1647    0.6615 C   0  0  0  0  0  0  0  0  0  0  0  0
   -1.3133    1.8070    0.2144 O   0  0  0  0  0  0  0  0  0  0  0  0
    0.4786    1.7550    1.5794 N   0  0  0  0  0  0  0  0  0  0  0  0
    1.2061    1.1758    1.9888 H   0  0  0  0  0  0  0  0  0  0  0  0
    0.3022    3.1176    2.0677 C   0  0  0  0  0  0  0  0  0  0  0  0
   -0.6455    3.2101    2.6086 H   0  0  0  0  0  0  0  0  0  0  0  0
    1.1171    3.3850    2.7474 H   0  0  0  0  0  0  0  0  0  0  0  0
    0.3024    3.8278    1.2339 H   0  0  0  0  0  0  0  0  0  0  0  0
  1  2  1  0  0  0  0
  2  3  1  0  0  0  0
  2  4  1  0  0  0  0
  2  5  1  0  0  0  0
  5  6  2  0  0  0  0
  5  7  1  0  0  0  0
  7  8  1  0  0  0  0
  7  9  1  0  0  0  0
  9 10  1  0  0  0  0
  9 11  1  0  0  0  0
  9 21  1  0  0  0  0
 11 12  1  0  0  0  0
 11 13  1  0  0  0  0
 11 14  1  0  0  0  0
 14 15  1  0  0  0  0
 14 16  1  0  0  0  0
 14 17  1  0  0  0  0
 17 18  2  0  0  0  0
 17 19  1  0  0  0  0
 19 20  1  0  0  0  0
 21 22  2  0  0  0  0
 21 23  1  0  0  0  0
 23 24  1  0  0  0  0
 23 25  1  0  0  0  0
 25 26  1  0  0  0  0
 25 27  1  0  0  0  0
 25 28  1  0  0  0  0
M  END
$$$$

  -OEChem-02102214123D

 28 27  0     1  0  0  0  0  0999 V2000
   -3.1368   -3.7955    1.2742 H   0  0  0  0  0  0  0  0  0  0  0  0
   -3.1350   -2.8033    0.8144 C   0  0  0  0  0  0  0  0  0  0  0  0
   -3.7781   -2.1423    1.4003 H   0  0  0  0  0  0  0  0  0  0  0  0
   -3.5338   -2.8842   -0.1997 H   0  0  0  0  0  0  0  0  0  0  0  0
   -1.7240   -2.2486    0.7730 C   0  0  0  0  0  0  0  0  0  0  0  0
   -0.7947   -2.9013    1.2214 O   0  0  0  0  0  0  0  0  0  0  0  0
   -1.4951   -0.9996    0.2360 N   0  0  0  0  0  0  0  0  0  0  0  0
   -2.3077   -0.4490   -0.0385 H   0  0  0  0  0  0  0  0  0  0  0  0
   -0.1970   -0.3102    0.2504 C   0  0  1  0  0  0  0  0  0  0  0  0
    0.4511   -0.7663    1.0052 H   0  0  0  0  0  0  0  0  0  0  0  0
    0.4550   -0.4207   -1.1473 C   0  0  0  0  0  0  0  0  0  0  0  0
   -0.2238   -0.9787   -1.8024 H   0  0  0  0  0  0  0  0  0  0  0  0
    0.5834    0.5686   -1.6008 H   0  0  0  0  0  0  0  0  0  0  0  0
    1.8205   -1.1435   -1.0995 C   0  0  0  0  0  0  0  0  0  0  0  0
    2.6158   -0.4266   -0.8801 H   0  0  0  0  0  0  0  0  0  0  0  0
    1.8098   -1.8869   -0.2967 H   0  0  0  0  0  0  0  0  0  0  0  0
    2.1640   -1.9043   -2.3810 C   0  0  0  0  0  0  0  0  0  0  0  0
    1.6842   -1.5460   -3.4443 O   0  0  0  0  0  0  0  0  0  0  0  0
    3.0249   -2.9413   -2.2658 O   0  0  0  0  0  0  0  0  0  0  0  0
    3.1265   -3.3013   -3.1598 H   0  0  0  0  0  0  0  0  0  0  0  0
   -0.3741    1.1657    0.6616 C   0  0  0  0  0  0  0  0  0  0  0  0
   -1.3151    1.8126    0.2170 O   0  0  0  0  0  0  0  0  0  0  0  0
    0.4775    1.7504    1.5805 N   0  0  0  0  0  0  0  0  0  0  0  0
    1.2066    1.1693    1.9843 H   0  0  0  0  0  0  0  0  0  0  0  0
    0.3109    3.1153    2.0661 C   0  0  0  0  0  0  0  0  0  0  0  0
   -0.6457    3.2221    2.5885 H   0  0  0  0  0  0  0  0  0  0  0  0
    1.1155    3.3709    2.7623 H   0  0  0  0  0  0  0  0  0  0  0  0
    0.3379    3.8252    1.2325 H   0  0  0  0  0  0  0  0  0  0  0  0
  1  2  1  0  0  0  0
  2  3  1  0  0  0  0
  2  4  1  0  0  0  0
  2  5  1  0  0  0  0
  5  6  2  0  0  0  0
  5  7  1  0  0  0  0
  7  8  1  0  0  0  0
  7  9  1  0  0  0  0
  9 10  1  0  0  0  0
  9 11  1  0  0  0  0
  9 21  1  0  0  0  0
 11 12  1  0  0  0  0
 11 13  1  0  0  0  0
 11 14  1  0  0  0  0
 14 15  1  0  0  0  0
 14 16  1  0  0  0  0
 14 17  1  0  0  0  0
 17 18  2  0  0  0  0
 17 19  1  0  0  0  0
 19 20  1  0  0  0  0
 21 22  2  0  0  0  0
 21 23  1  0  0  0  0
 23 24  1  0  0  0  0
 23 25  1  0  0  0  0
 25 26  1  0  0  0  0
 25 27  1  0  0  0  0
 25 28  1  0  0  0  0
M  END
$$$$

  -OEChem-02102214123D

 28 27  0     1  0  0  0  0  0999 V2000
   -3.1500   -3.7928    1.2664 H   0  0  0  0  0  0  0  0  0  0  0  0
   -3.1498   -2.7975    0.8133 C   0  0  0  0  0  0  0  0  0  0  0  0
   -3.7895   -2.1399    1.4068 H   0  0  0  0  0  0  0  0  0  0  0  0
   -3.5538   -2.8713   -0.1992 H   0  0  0  0  0  0  0  0  0  0  0  0
   -1.7383   -2.2442    0.7679 C   0  0  0  0  0  0  0  0  0  0  0  0
   -0.8083   -2.9005    1.2100 O   0  0  0  0  0  0  0  0  0  0  0  0
   -1.5092   -0.9941    0.2332 N   0  0  0  0  0  0  0  0  0  0  0  0
   -2.3216   -0.4413   -0.0377 H   0  0  0  0  0  0  0  0  0  0  0  0
   -0.2092   -0.3080    0.2409 C   0  0  1  0  0  0  0  0  0  0  0  0
    0.4429   -0.7704    0.9892 H   0  0  0  0  0  0  0  0  0  0  0  0
    0.4379   -0.4223   -1.1571 C   0  0  0  0  0  0  0  0  0  0  0  0
   -0.2336   -0.9806   -1.8195 H   0  0  0  0  0  0  0  0  0  0  0  0
    0.5736    0.5686   -1.6056 H   0  0  0  0  0  0  0  0  0  0  0  0
    1.7970   -1.1488   -1.0892 C   0  0  0  0  0  0  0  0  0  0  0  0
    2.5425   -0.4979   -0.6253 H   0  0  0  0  0  0  0  0  0  0  0  0
    1.6928   -2.0410   -0.4635 H   0  0  0  0  0  0  0  0  0  0  0  0
    2.3235   -1.6151   -2.4474 C   0  0  0  0  0  0  0  0  0  0  0  0
    1.8221   -1.1888   -3.4749 O   0  0  0  0  0  0  0  0  0  0  0  0
    3.3612   -2.4825   -2.4314 O   0  0  0  0  0  0  0  0  0  0  0  0
    3.5643   -2.6687   -3.3606 H   0  0  0  0  0  0  0  0  0  0  0  0
   -0.3756    1.1678    0.6573 C   0  0  0  0  0  0  0  0  0  0  0  0
   -1.3194    1.8196    0.2259 O   0  0  0  0  0  0  0  0  0  0  0  0
    0.4866    1.7450    1.5713 N   0  0  0  0  0  0  0  0  0  0  0  0
    1.2172    1.1592    1.9655 H   0  0  0  0  0  0  0  0  0  0  0  0
    0.3298    3.1077    2.0659 C   0  0  0  0  0  0  0  0  0  0  0  0
   -0.6226    3.2156    2.5956 H   0  0  0  0  0  0  0  0  0  0  0  0
    1.1406    3.3554    2.7576 H   0  0  0  0  0  0  0  0  0  0  0  0
    0.3543    3.8222    1.2362 H   0  0  0  0  0  0  0  0  0  0  0  0
  1  2  1  0  0  0  0
  2  3  1  0  0  0  0
  2  4  1  0  0  0  0
  2  5  1  0  0  0  0
  5  6  2  0  0  0  0
  5  7  1  0  0  0  0
  7  8  1  0  0  0  0
  7  9  1  0  0  0  0
  9 10  1  0  0  0  0
  9 11  1  0  0  0  0
  9 21  1  0  0  0  0
 11 12  1  0  0  0  0
 11 13  1  0  0  0  0
 11 14  1  0  0  0  0
 14 15  1  0  0  0  0
 14 16  1  0  0  0  0
 14 17  1  0  0  0  0
 17 18  2  0  0  0  0
 17 19  1  0  0  0  0
 19 20  1  0  0  0  0
 21 22  2  0  0  0  0
 21 23  1  0  0  0  0
 23 24  1  0  0  0  0
 23 25  1  0  0  0  0
 25 26  1  0  0  0  0
 25 27  1  0  0  0  0
 25 28  1  0  0  0  0
M  END
$$$$

  -OEChem-02102214123D

 28 27  0     1  0  0  0  0  0999 V2000
   -3.1833   -3.7637    1.2909 H   0  0  0  0  0  0  0  0  0  0  0  0
   -3.1669   -2.7848    0.8037 C   0  0  0  0  0  0  0  0  0  0  0  0
   -3.8151   -2.1037    1.3604 H   0  0  0  0  0  0  0  0  0  0  0  0
   -3.5498   -2.8911   -0.2142 H   0  0  0  0  0  0  0  0  0  0  0  0
   -1.7512   -2.2415    0.7700 C   0  0  0  0  0  0  0  0  0  0  0  0
   -0.8301   -2.9039    1.2214 O   0  0  0  0  0  0  0  0  0  0  0  0
   -1.5081   -0.9941    0.2357 N   0  0  0  0  0  0  0  0  0  0  0  0
   -2.3139   -0.4349   -0.0416 H   0  0  0  0  0  0  0  0  0  0  0  0
   -0.2028   -0.3191    0.2524 C   0  0  1  0  0  0  0  0  0  0  0  0
    0.4526   -0.7816    0.9978 H   0  0  0  0  0  0  0  0  0  0  0  0
    0.4371   -0.4272   -1.1468 C   0  0  0  0  0  0  0  0  0  0  0  0
   -0.3231   -0.6909   -1.8908 H   0  0  0  0  0  0  0  0  0  0  0  0
    0.8517    0.5433   -1.4433 H   0  0  0  0  0  0  0  0  0  0  0  0
    1.5722   -1.4701   -1.1548 C   0  0  0  0  0  0  0  0  0  0  0  0
    2.3340   -1.1870   -0.4235 H   0  0  0  0  0  0  0  0  0  0  0  0
    1.1693   -2.4428   -0.8567 H   0  0  0  0  0  0  0  0  0  0  0  0
    2.2578   -1.6347   -2.5116 C   0  0  0  0  0  0  0  0  0  0  0  0
    1.8232   -1.0520   -3.4916 O   0  0  0  0  0  0  0  0  0  0  0  0
    3.3486   -2.4333   -2.5459 O   0  0  0  0  0  0  0  0  0  0  0  0
    3.6499   -2.4297   -3.4670 H   0  0  0  0  0  0  0  0  0  0  0  0
   -0.3716    1.1566    0.6672 C   0  0  0  0  0  0  0  0  0  0  0  0
   -1.3062    1.8132    0.2231 O   0  0  0  0  0  0  0  0  0  0  0  0
    0.4843    1.7294    1.5895 N   0  0  0  0  0  0  0  0  0  0  0  0
    1.2174    1.1444    1.9800 H   0  0  0  0  0  0  0  0  0  0  0  0
    0.3480    3.1018    2.0619 C   0  0  0  0  0  0  0  0  0  0  0  0
   -0.6281    3.2493    2.5361 H   0  0  0  0  0  0  0  0  0  0  0  0
    1.1266    3.3280    2.7969 H   0  0  0  0  0  0  0  0  0  0  0  0
    0.4445    3.8051    1.2280 H   0  0  0  0  0  0  0  0  0  0  0  0
  1  2  1  0  0  0  0
  2  3  1  0  0  0  0
  2  4  1  0  0  0  0
  2  5  1  0  0  0  0
  5  6  2  0  0  0  0
  5  7  1  0  0  0  0
  7  8  1  0  0  0  0
  7  9  1  0  0  0  0
  9 10  1  0  0  0  0
  9 11  1  0  0  0  0
  9 21  1  0  0  0  0
 11 12  1  0  0  0  0
 11 13  1  0  0  0  0
 11 14  1  0  0  0  0
 14 15  1  0  0  0  0
 14 16  1  0  0  0  0
 14 17  1  0  0  0  0
 17 18  2  0  0  0  0
 17 19  1  0  0  0  0
 19 20  1  0  0  0  0
 21 22  2  0  0  0  0
 21 23  1  0  0  0  0
 23 24  1  0  0  0  0
 23 25  1  0  0  0  0
 25 26  1  0  0  0  0
 25 27  1  0  0  0  0
 25 28  1  0  0  0  0
M  END
$$$$

  -OEChem-02102214123D

 28 27  0     1  0  0  0  0  0999 V2000
   -3.1933   -3.7508    1.2922 H   0  0  0  0  0  0  0  0  0  0  0  0
   -3.1728   -2.7700    0.8088 C   0  0  0  0  0  0  0  0  0  0  0  0
   -3.8126   -2.0865    1.3721 H   0  0  0  0  0  0  0  0  0  0  0  0
   -3.5624   -2.8694   -0.2071 H   0  0  0  0  0  0  0  0  0  0  0  0
   -1.7535   -2.2365    0.7678 C   0  0  0  0  0  0  0  0  0  0  0  0
   -0.8339   -2.9064    1.2111 O   0  0  0  0  0  0  0  0  0  0  0  0
   -1.5054   -0.9903    0.2327 N   0  0  0  0  0  0  0  0  0  0  0  0
   -2.3092   -0.4246   -0.0373 H   0  0  0  0  0  0  0  0  0  0  0  0
   -0.1973   -0.3214    0.2515 C   0  0  1  0  0  0  0  0  0  0  0  0
    0.4534   -0.7850    0.9998 H   0  0  0  0  0  0  0  0  0  0  0  0
    0.4383   -0.4360   -1.1502 C   0  0  0  0  0  0  0  0  0  0  0  0
   -0.3181   -0.6809   -1.9043 H   0  0  0  0  0  0  0  0  0  0  0  0
    0.8615    0.5367   -1.4277 H   0  0  0  0  0  0  0  0  0  0  0  0
    1.5699   -1.4849   -1.1709 C   0  0  0  0  0  0  0  0  0  0  0  0
    2.2092   -1.3493   -0.2945 H   0  0  0  0  0  0  0  0  0  0  0  0
    1.1373   -2.4880   -1.1131 H   0  0  0  0  0  0  0  0  0  0  0  0
    2.4736   -1.4032   -2.4014 C   0  0  0  0  0  0  0  0  0  0  0  0
    2.1130   -0.7707   -3.3805 O   0  0  0  0  0  0  0  0  0  0  0  0
    3.6571   -2.0545   -2.3322 O   0  0  0  0  0  0  0  0  0  0  0  0
    4.0898   -1.9088   -3.1871 H   0  0  0  0  0  0  0  0  0  0  0  0
   -0.3648    1.1552    0.6655 C   0  0  0  0  0  0  0  0  0  0  0  0
   -1.3010    1.8105    0.2227 O   0  0  0  0  0  0  0  0  0  0  0  0
    0.4883    1.7290    1.5897 N   0  0  0  0  0  0  0  0  0  0  0  0
    1.2197    1.1441    1.9836 H   0  0  0  0  0  0  0  0  0  0  0  0
    0.3419    3.0976    2.0705 C   0  0  0  0  0  0  0  0  0  0  0  0
   -0.6356    3.2351    2.5448 H   0  0  0  0  0  0  0  0  0  0  0  0
    1.1182    3.3251    2.8073 H   0  0  0  0  0  0  0  0  0  0  0  0
    0.4339    3.8070    1.2412 H   0  0  0  0  0  0  0  0  0  0  0  0
  1  2  1  0  0  0  0
  2  3  1  0  0  0  0
  2  4  1  0  0  0  0
  2  5  1  0  0  0  0
  5  6  2  0  0  0  0
  5  7  1  0  0  0  0
  7  8  1  0  0  0  0
  7  9  1  0  0  0  0
  9 10  1  0  0  0  0
  9 11  1  0  0  0  0
  9 21  1  0  0  0  0
 11 12  1  0  0  0  0
 11 13  1  0  0  0  0
 11 14  1  0  0  0  0
 14 15  1  0  0  0  0
 14 16  1  0  0  0  0
 14 17  1  0  0  0  0
 17 18  2  0  0  0  0
 17 19  1  0  0  0  0
 19 20  1  0  0  0  0
 21 22  2  0  0  0  0
 21 23  1  0  0  0  0
 23 24  1  0  0  0  0
 23 25  1  0  0  0  0
 25 26  1  0  0  0  0
 25 27  1  0  0  0  0
 25 28  1  0  0  0  0
M  END
$$$$

  -OEChem-02102214123D

 28 27  0     1  0  0  0  0  0999 V2000
   -3.2289   -3.7478    1.2479 H   0  0  0  0  0  0  0  0  0  0  0  0
   -3.1991   -2.7492    0.8033 C   0  0  0  0  0  0  0  0  0  0  0  0
   -3.8259   -2.0800    1.3975 H   0  0  0  0  0  0  0  0  0  0  0  0
   -3.5976   -2.8042   -0.2126 H   0  0  0  0  0  0  0  0  0  0  0  0
   -1.7734   -2.2323    0.7725 C   0  0  0  0  0  0  0  0  0  0  0  0
   -0.8647   -2.9114    1.2243 O   0  0  0  0  0  0  0  0  0  0  0  0
   -1.5072   -0.9910    0.2352 N   0  0  0  0  0  0  0  0  0  0  0  0
   -2.3025   -0.4176   -0.0435 H   0  0  0  0  0  0  0  0  0  0  0  0
   -0.1913   -0.3377    0.2572 C   0  0  1  0  0  0  0  0  0  0  0  0
    0.4498   -0.8046    1.0113 H   0  0  0  0  0  0  0  0  0  0  0  0
    0.4418   -0.4629   -1.1464 C   0  0  0  0  0  0  0  0  0  0  0  0
   -0.3176   -0.6896   -1.9031 H   0  0  0  0  0  0  0  0  0  0  0  0
    0.8721    0.5087   -1.4165 H   0  0  0  0  0  0  0  0  0  0  0  0
    1.5646   -1.5233   -1.1899 C   0  0  0  0  0  0  0  0  0  0  0  0
    2.0601   -1.5852   -0.2175 H   0  0  0  0  0  0  0  0  0  0  0  0
    1.1339   -2.5067   -1.3979 H   0  0  0  0  0  0  0  0  0  0  0  0
    2.6479   -1.2119   -2.2208 C   0  0  0  0  0  0  0  0  0  0  0  0
    2.3275   -0.7256   -3.2925 O   0  0  0  0  0  0  0  0  0  0  0  0
    3.9278   -1.4913   -1.8826 O   0  0  0  0  0  0  0  0  0  0  0  0
    4.4644   -1.2416   -2.6504 H   0  0  0  0  0  0  0  0  0  0  0  0
   -0.3448    1.1422    0.6664 C   0  0  0  0  0  0  0  0  0  0  0  0
   -1.2695    1.8063    0.2127 O   0  0  0  0  0  0  0  0  0  0  0  0
    0.5091    1.7122    1.5925 N   0  0  0  0  0  0  0  0  0  0  0  0
    1.2295    1.1212    1.9977 H   0  0  0  0  0  0  0  0  0  0  0  0
    0.3708    3.0841    2.0666 C   0  0  0  0  0  0  0  0  0  0  0  0
   -0.5774    3.2108    2.5997 H   0  0  0  0  0  0  0  0  0  0  0  0
    1.1886    3.3333    2.7495 H   0  0  0  0  0  0  0  0  0  0  0  0
    0.3986    3.7856    1.2259 H   0  0  0  0  0  0  0  0  0  0  0  0
  1  2  1  0  0  0  0
  2  3  1  0  0  0  0
  2  4  1  0  0  0  0
  2  5  1  0  0  0  0
  5  6  2  0  0  0  0
  5  7  1  0  0  0  0
  7  8  1  0  0  0  0
  7  9  1  0  0  0  0
  9 10  1  0  0  0  0
  9 11  1  0  0  0  0
  9 21  1  0  0  0  0
 11 12  1  0  0  0  0
 11 13  1  0  0  0  0
 11 14  1  0  0  0  0
 14 15  1  0  0  0  0
 14 16  1  0  0  0  0
 14 17  1  0  0  0  0
 17 18  2  0  0  0  0
 17 19  1  0  0  0  0
 19 20  1  0  0  0  0
 21 22  2  0  0  0  0
 21 23  1  0  0  0  0
 23 24  1  0  0  0  0
 23 25  1  0  0  0  0
 25 26  1  0  0  0  0
 25 27  1  0  0  0  0
 25 28  1  0  0  0  0
M  END
$$$$

  -OEChem-02102214123D

 28 27  0     1  0  0  0  0  0999 V2000
   -3.3135   -3.7115    1.2070 H   0  0  0  0  0  0  0  0  0  0  0  0
   -3.2556   -2.7055    0.7823 C   0  0  0  0  0  0  0  0  0  0  0  0
   -3.8554   -2.0288    1.3956 H   0  0  0  0  0  0  0  0  0  0  0  0
   -3.6641   -2.7272   -0.2309 H   0  0  0  0  0  0  0  0  0  0  0  0
   -1.8144   -2.2337    0.7493 C   0  0  0  0  0  0  0  0  0  0  0  0
   -0.9256   -2.9452    1.1905 O   0  0  0  0  0  0  0  0  0  0  0  0
   -1.5119   -0.9959    0.2227 N   0  0  0  0  0  0  0  0  0  0  0  0
   -2.2911   -0.3917   -0.0352 H   0  0  0  0  0  0  0  0  0  0  0  0
   -0.1766   -0.3832    0.2532 C   0  0  1  0  0  0  0  0  0  0  0  0
    0.4473   -0.8727    1.0070 H   0  0  0  0  0  0  0  0  0  0  0  0
    0.4599   -0.5097   -1.1491 C   0  0  0  0  0  0  0  0  0  0  0  0
   -0.3068   -0.7127   -1.9049 H   0  0  0  0  0  0  0  0  0  0  0  0
    0.9070    0.4552   -1.4160 H   0  0  0  0  0  0  0  0  0  0  0  0
    1.5529   -1.6002   -1.2106 C   0  0  0  0  0  0  0  0  0  0  0  0
    1.8690   -1.9027   -0.2093 H   0  0  0  0  0  0  0  0  0  0  0  0
    1.1504   -2.4917   -1.7015 H   0  0  0  0  0  0  0  0  0  0  0  0
    2.7935   -1.1146   -1.9500 C   0  0  0  0  0  0  0  0  0  0  0  0
    3.0254   -1.5588   -3.0607 O   0  0  0  0  0  0  0  0  0  0  0  0
    3.5767   -0.2007   -1.3295 O   0  0  0  0  0  0  0  0  0  0  0  0
    4.3033   -0.0190   -1.9455 H   0  0  0  0  0  0  0  0  0  0  0  0
   -0.2853    1.0970    0.6751 C   0  0  0  0  0  0  0  0  0  0  0  0
   -1.1901    1.7919    0.2267 O   0  0  0  0  0  0  0  0  0  0  0  0
    0.5835    1.6325    1.6075 N   0  0  0  0  0  0  0  0  0  0  0  0
    1.3105    1.0270    1.9785 H   0  0  0  0  0  0  0  0  0  0  0  0
    0.4996    3.0090    2.0807 C   0  0  0  0  0  0  0  0  0  0  0  0
   -0.4635    3.1877    2.5705 H   0  0  0  0  0  0  0  0  0  0  0  0
    1.2969    3.2111    2.8024 H   0  0  0  0  0  0  0  0  0  0  0  0
    0.6047    3.7092    1.2451 H   0  0  0  0  0  0  0  0  0  0  0  0
  1  2  1  0  0  0  0
  2  3  1  0  0  0  0
  2  4  1  0  0  0  0
  2  5  1  0  0  0  0
  5  6  2  0  0  0  0
  5  7  1  0  0  0  0
  7  8  1  0  0  0  0
  7  9  1  0  0  0  0
  9 10  1  0  0  0  0
  9 11  1  0  0  0  0
  9 21  1  0  0  0  0
 11 12  1  0  0  0  0
 11 13  1  0  0  0  0
 11 14  1  0  0  0  0
 14 15  1  0  0  0  0
 14 16  1  0  0  0  0
 14 17  1  0  0  0  0
 17 18  2  0  0  0  0
 17 19  1  0  0  0  0
 19 20  1  0  0  0  0
 21 22  2  0  0  0  0
 21 23  1  0  0  0  0
 23 24  1  0  0  0  0
 23 25  1  0  0  0  0
 25 26  1  0  0  0  0
 25 27  1  0  0  0  0
 25 28  1  0  0  0  0
M  END
$$$$

  -OEChem-02102214123D

 28 27  0     1  0  0  0  0  0999 V2000
   -3.2318   -3.7627    1.2469 H   0  0  0  0  0  0  0  0  0  0  0  0
   -3.1993   -2.7679    0.7936 C   0  0  0  0  0  0  0  0  0  0  0  0
   -3.8390   -2.0960    1.3711 H   0  0  0  0  0  0  0  0  0  0  0  0
   -3.5797   -2.8339   -0.2287 H   0  0  0  0  0  0  0  0  0  0  0  0
   -1.7758   -2.2444    0.7828 C   0  0  0  0  0  0  0  0  0  0  0  0
   -0.8742   -2.9096    1.2683 O   0  0  0  0  0  0  0  0  0  0  0  0
   -1.5041   -1.0154    0.2207 N   0  0  0  0  0  0  0  0  0  0  0  0
   -2.2986   -0.4480   -0.0723 H   0  0  0  0  0  0  0  0  0  0  0  0
   -0.1994   -0.3427    0.2888 C   0  0  1  0  0  0  0  0  0  0  0  0
    0.4017   -0.7709    1.0968 H   0  0  0  0  0  0  0  0  0  0  0  0
    0.5306   -0.4921   -1.0632 C   0  0  0  0  0  0  0  0  0  0  0  0
   -0.1837   -0.7868   -1.8396 H   0  0  0  0  0  0  0  0  0  0  0  0
    0.9329    0.4800   -1.3719 H   0  0  0  0  0  0  0  0  0  0  0  0
    1.6739   -1.5321   -0.9996 C   0  0  0  0  0  0  0  0  0  0  0  0
    1.7342   -2.0136   -0.0197 H   0  0  0  0  0  0  0  0  0  0  0  0
    1.4672   -2.3253   -1.7239 H   0  0  0  0  0  0  0  0  0  0  0  0
    3.0302   -0.9182   -1.3273 C   0  0  0  0  0  0  0  0  0  0  0  0
    3.4464   -0.0272   -0.6042 O   0  0  0  0  0  0  0  0  0  0  0  0
    3.6982   -1.3801   -2.4093 O   0  0  0  0  0  0  0  0  0  0  0  0
    4.5220   -0.8714   -2.4521 H   0  0  0  0  0  0  0  0  0  0  0  0
   -0.3829    1.1470    0.6445 C   0  0  0  0  0  0  0  0  0  0  0  0
   -1.3054    1.7817    0.1451 O   0  0  0  0  0  0  0  0  0  0  0  0
    0.4231    1.7487    1.5925 N   0  0  0  0  0  0  0  0  0  0  0  0
    1.2107    1.2116    1.9462 H   0  0  0  0  0  0  0  0  0  0  0  0
    0.3020    3.1520    1.9677 C   0  0  0  0  0  0  0  0  0  0  0  0
   -0.6860    3.3500    2.3964 H   0  0  0  0  0  0  0  0  0  0  0  0
    1.0600    3.4110    2.7131 H   0  0  0  0  0  0  0  0  0  0  0  0
    0.4424    3.7960    1.0931 H   0  0  0  0  0  0  0  0  0  0  0  0
  1  2  1  0  0  0  0
  2  3  1  0  0  0  0
  2  4  1  0  0  0  0
  2  5  1  0  0  0  0
  5  6  2  0  0  0  0
  5  7  1  0  0  0  0
  7  8  1  0  0  0  0
  7  9  1  0  0  0  0
  9 10  1  0  0  0  0
  9 11  1  0  0  0  0
  9 21  1  0  0  0  0
 11 12  1  0  0  0  0
 11 13  1  0  0  0  0
 11 14  1  0  0  0  0
 14 15  1  0  0  0  0
 14 16  1  0  0  0  0
 14 17  1  0  0  0  0
 17 18  2  0  0  0  0
 17 19  1  0  0  0  0
 19 20  1  0  0  0  0
 21 22  2  0  0  0  0
 21 23  1  0  0  0  0
 23 24  1  0  0  0  0
 23 25  1  0  0  0  0
 25 26  1  0  0  0  0
 25 27  1  0  0  0  0
 25 28  1  0  0  0  0
M  END
$$$$

  -OEChem-02102214123D

 28 27  0     1  0  0  0  0  0999 V2000
   -3.2477   -3.7514    1.2687 H   0  0  0  0  0  0  0  0  0  0  0  0
   -3.2176   -2.7635    0.8006 C   0  0  0  0  0  0  0  0  0  0  0  0
   -3.8483   -2.0815    1.3761 H   0  0  0  0  0  0  0  0  0  0  0  0
   -3.6106   -2.8429   -0.2159 H   0  0  0  0  0  0  0  0  0  0  0  0
   -1.7922   -2.2460    0.7654 C   0  0  0  0  0  0  0  0  0  0  0  0
   -0.8851   -2.9226    1.2239 O   0  0  0  0  0  0  0  0  0  0  0  0
   -1.5250   -1.0125    0.2104 N   0  0  0  0  0  0  0  0  0  0  0  0
   -2.3229   -0.4370   -0.0560 H   0  0  0  0  0  0  0  0  0  0  0  0
   -0.2177   -0.3429    0.2655 C   0  0  1  0  0  0  0  0  0  0  0  0
    0.3893   -0.7805    1.0650 H   0  0  0  0  0  0  0  0  0  0  0  0
    0.5119   -0.4825   -1.0857 C   0  0  0  0  0  0  0  0  0  0  0  0
   -0.2066   -0.7950   -1.8510 H   0  0  0  0  0  0  0  0  0  0  0  0
    0.9093    0.4856   -1.4129 H   0  0  0  0  0  0  0  0  0  0  0  0
    1.6503   -1.5230   -1.0055 C   0  0  0  0  0  0  0  0  0  0  0  0
    1.5282   -2.1975   -0.1529 H   0  0  0  0  0  0  0  0  0  0  0  0
    1.6130   -2.1446   -1.9046 H   0  0  0  0  0  0  0  0  0  0  0  0
    3.0252   -0.8657   -0.9512 C   0  0  0  0  0  0  0  0  0  0  0  0
    3.2151    0.0003   -0.1105 O   0  0  0  0  0  0  0  0  0  0  0  0
    3.9639   -1.2690   -1.8383 O   0  0  0  0  0  0  0  0  0  0  0  0
    4.7569   -0.7460   -1.6467 H   0  0  0  0  0  0  0  0  0  0  0  0
   -0.3816    1.1444    0.6361 C   0  0  0  0  0  0  0  0  0  0  0  0
   -1.3152    1.7880    0.1695 O   0  0  0  0  0  0  0  0  0  0  0  0
    0.4480    1.7257    1.5759 N   0  0  0  0  0  0  0  0  0  0  0  0
    1.2655    1.1928    1.8642 H   0  0  0  0  0  0  0  0  0  0  0  0
    0.3469    3.1248    1.9711 C   0  0  0  0  0  0  0  0  0  0  0  0
   -0.6406    3.3323    2.3966 H   0  0  0  0  0  0  0  0  0  0  0  0
    1.1033    3.3596    2.7262 H   0  0  0  0  0  0  0  0  0  0  0  0
    0.5036    3.7797    1.1075 H   0  0  0  0  0  0  0  0  0  0  0  0
  1  2  1  0  0  0  0
  2  3  1  0  0  0  0
  2  4  1  0  0  0  0
  2  5  1  0  0  0  0
  5  6  2  0  0  0  0
  5  7  1  0  0  0  0
  7  8  1  0  0  0  0
  7  9  1  0  0  0  0
  9 10  1  0  0  0  0
  9 11  1  0  0  0  0
  9 21  1  0  0  0  0
 11 12  1  0  0  0  0
 11 13  1  0  0  0  0
 11 14  1  0  0  0  0
 14 15  1  0  0  0  0
 14 16  1  0  0  0  0
 14 17  1  0  0  0  0
 17 18  2  0  0  0  0
 17 19  1  0  0  0  0
 19 20  1  0  0  0  0
 21 22  2  0  0  0  0
 21 23  1  0  0  0  0
 23 24  1  0  0  0  0
 23 25  1  0  0  0  0
 25 26  1  0  0  0  0
 25 27  1  0  0  0  0
 25 28  1  0  0  0  0
M  END
$$$$

  -OEChem-02102214123D

 28 27  0     1  0  0  0  0  0999 V2000
   -3.2551   -3.7471    1.2833 H   0  0  0  0  0  0  0  0  0  0  0  0
   -3.2255   -2.7644    0.8044 C   0  0  0  0  0  0  0  0  0  0  0  0
   -3.8457   -2.0732    1.3801 H   0  0  0  0  0  0  0  0  0  0  0  0
   -3.6309   -2.8522   -0.2064 H   0  0  0  0  0  0  0  0  0  0  0  0
   -1.7985   -2.2537    0.7467 C   0  0  0  0  0  0  0  0  0  0  0  0
   -0.8857   -2.9397    1.1792 O   0  0  0  0  0  0  0  0  0  0  0  0
   -1.5395   -1.0129    0.2043 N   0  0  0  0  0  0  0  0  0  0  0  0
   -2.3426   -0.4341   -0.0384 H   0  0  0  0  0  0  0  0  0  0  0  0
   -0.2334   -0.3397    0.2474 C   0  0  1  0  0  0  0  0  0  0  0  0
    0.3790   -0.7901    1.0361 H   0  0  0  0  0  0  0  0  0  0  0  0
    0.4932   -0.4699   -1.1064 C   0  0  0  0  0  0  0  0  0  0  0  0
   -0.2254   -0.7888   -1.8689 H   0  0  0  0  0  0  0  0  0  0  0  0
    0.8906    0.4979   -1.4346 H   0  0  0  0  0  0  0  0  0  0  0  0
    1.6343   -1.5040   -1.0228 C   0  0  0  0  0  0  0  0  0  0  0  0
    1.3780   -2.3229   -0.3437 H   0  0  0  0  0  0  0  0  0  0  0  0
    1.7751   -1.9425   -2.0147 H   0  0  0  0  0  0  0  0  0  0  0  0
    2.9621   -0.8759   -0.6021 C   0  0  0  0  0  0  0  0  0  0  0  0
    2.9575   -0.0290    0.2802 O   0  0  0  0  0  0  0  0  0  0  0  0
    4.0839   -1.2918   -1.2336 O   0  0  0  0  0  0  0  0  0  0  0  0
    4.8166   -0.7988   -0.8346 H   0  0  0  0  0  0  0  0  0  0  0  0
   -0.3840    1.1432    0.6381 C   0  0  0  0  0  0  0  0  0  0  0  0
   -1.3313    1.7928    0.2089 O   0  0  0  0  0  0  0  0  0  0  0  0
    0.4676    1.7042    1.5701 N   0  0  0  0  0  0  0  0  0  0  0  0
    1.3105    1.1765    1.7922 H   0  0  0  0  0  0  0  0  0  0  0  0
    0.3838    3.0984    1.9854 C   0  0  0  0  0  0  0  0  0  0  0  0
   -0.6005    3.3114    2.4155 H   0  0  0  0  0  0  0  0  0  0  0  0
    1.1437    3.3132    2.7429 H   0  0  0  0  0  0  0  0  0  0  0  0
    0.5467    3.7638    1.1311 H   0  0  0  0  0  0  0  0  0  0  0  0
  1  2  1  0  0  0  0
  2  3  1  0  0  0  0
  2  4  1  0  0  0  0
  2  5  1  0  0  0  0
  5  6  2  0  0  0  0
  5  7  1  0  0  0  0
  7  8  1  0  0  0  0
  7  9  1  0  0  0  0
  9 10  1  0  0  0  0
  9 11  1  0  0  0  0
  9 21  1  0  0  0  0
 11 12  1  0  0  0  0
 11 13  1  0  0  0  0
 11 14  1  0  0  0  0
 14 15  1  0  0  0  0
 14 16  1  0  0  0  0
 14 17  1  0  0  0  0
 17 18  2  0  0  0  0
 17 19  1  0  0  0  0
 19 20  1  0  0  0  0
 21 22  2  0  0  0  0
 21 23  1  0  0  0  0
 23 24  1  0  0  0  0
 23 25  1  0  0  0  0
 25 26  1  0  0  0  0
 25 27  1  0  0  0  0
 25 28  1  0  0  0  0
M  END
$$$$

  -OEChem-02102214123D

 28 27  0     1  0  0  0  0  0999 V2000
   -3.2189   -3.7641    1.2987 H   0  0  0  0  0  0  0  0  0  0  0  0
   -3.2018   -2.7900    0.8020 C   0  0  0  0  0  0  0  0  0  0  0  0
   -3.8355   -2.0985    1.3623 H   0  0  0  0  0  0  0  0  0  0  0  0
   -3.6011   -2.9018   -0.2089 H   0  0  0  0  0  0  0  0  0  0  0  0
   -1.7821   -2.2591    0.7409 C   0  0  0  0  0  0  0  0  0  0  0  0
   -0.8568   -2.9422    1.1508 O   0  0  0  0  0  0  0  0  0  0  0  0
   -1.5421   -1.0083    0.2123 N   0  0  0  0  0  0  0  0  0  0  0  0
   -2.3533   -0.4346   -0.0146 H   0  0  0  0  0  0  0  0  0  0  0  0
   -0.2424   -0.3221    0.2526 C   0  0  1  0  0  0  0  0  0  0  0  0
    0.3766   -0.7818    1.0299 H   0  0  0  0  0  0  0  0  0  0  0  0
    0.4707   -0.4332   -1.1110 C   0  0  0  0  0  0  0  0  0  0  0  0
   -0.2525   -0.7376   -1.8751 H   0  0  0  0  0  0  0  0  0  0  0  0
    0.8653    0.5418   -1.4193 H   0  0  0  0  0  0  0  0  0  0  0  0
    1.6260   -1.4550   -1.0663 C   0  0  0  0  0  0  0  0  0  0  0  0
    1.2828   -2.3837   -0.6006 H   0  0  0  0  0  0  0  0  0  0  0  0
    1.9154   -1.6934   -2.0935 H   0  0  0  0  0  0  0  0  0  0  0  0
    2.8804   -0.9675   -0.3348 C   0  0  0  0  0  0  0  0  0  0  0  0
    2.8104   -0.0170    0.4324 O   0  0  0  0  0  0  0  0  0  0  0  0
    4.0290   -1.6358   -0.5874 O   0  0  0  0  0  0  0  0  0  0  0  0
    4.7126   -1.2137   -0.0459 H   0  0  0  0  0  0  0  0  0  0  0  0
   -0.4026    1.1544    0.6641 C   0  0  0  0  0  0  0  0  0  0  0  0
   -1.3590    1.8013    0.2509 O   0  0  0  0  0  0  0  0  0  0  0  0
    0.4531    1.7100    1.5952 N   0  0  0  0  0  0  0  0  0  0  0  0
    1.3106    1.1910    1.7825 H   0  0  0  0  0  0  0  0  0  0  0  0
    0.3771    3.1053    2.0080 C   0  0  0  0  0  0  0  0  0  0  0  0
   -0.6041    3.3235    2.4428 H   0  0  0  0  0  0  0  0  0  0  0  0
    1.1417    3.3183    2.7613 H   0  0  0  0  0  0  0  0  0  0  0  0
    0.5384    3.7682    1.1514 H   0  0  0  0  0  0  0  0  0  0  0  0
  1  2  1  0  0  0  0
  2  3  1  0  0  0  0
  2  4  1  0  0  0  0
  2  5  1  0  0  0  0
  5  6  2  0  0  0  0
  5  7  1  0  0  0  0
  7  8  1  0  0  0  0
  7  9  1  0  0  0  0
  9 10  1  0  0  0  0
  9 11  1  0  0  0  0
  9 21  1  0  0  0  0
 11 12  1  0  0  0  0
 11 13  1  0  0  0  0
 11 14  1  0  0  0  0
 14 15  1  0  0  0  0
 14 16  1  0  0  0  0
 14 17  1  0  0  0  0
 17 18  2  0  0  0  0
 17 19  1  0  0  0  0
 19 20  1  0  0  0  0
 21 22  2  0  0  0  0
 21 23  1  0  0  0  0
 23 24  1  0  0  0  0
 23 25  1  0  0  0  0
 25 26  1  0  0  0  0
 25 27  1  0  0  0  0
 25 28  1  0  0  0  0
M  END
$$$$

  -OEChem-02102214123D

 28 27  0     1  0  0  0  0  0999 V2000
   -3.1789   -3.7865    1.2914 H   0  0  0  0  0  0  0  0  0  0  0  0
   -3.1755   -2.8048    0.8097 C   0  0  0  0  0  0  0  0  0  0  0  0
   -3.8073   -2.1270    1.3888 H   0  0  0  0  0  0  0  0  0  0  0  0
   -3.5867   -2.9046   -0.1977 H   0  0  0  0  0  0  0  0  0  0  0  0
   -1.7608   -2.2622    0.7393 C   0  0  0  0  0  0  0  0  0  0  0  0
   -0.8257   -2.9394    1.1368 O   0  0  0  0  0  0  0  0  0  0  0  0
   -1.5353   -1.0067    0.2156 N   0  0  0  0  0  0  0  0  0  0  0  0
   -2.3532   -0.4376    0.0011 H   0  0  0  0  0  0  0  0  0  0  0  0
   -0.2425   -0.3086    0.2568 C   0  0  1  0  0  0  0  0  0  0  0  0
    0.3736   -0.7676    1.0354 H   0  0  0  0  0  0  0  0  0  0  0  0
    0.4657   -0.4159   -1.1120 C   0  0  0  0  0  0  0  0  0  0  0  0
   -0.2583   -0.7073   -1.8802 H   0  0  0  0  0  0  0  0  0  0  0  0
    0.8577    0.5654   -1.4027 H   0  0  0  0  0  0  0  0  0  0  0  0
    1.6370   -1.4225   -1.1055 C   0  0  0  0  0  0  0  0  0  0  0  0
    1.2424   -2.4153   -0.8689 H   0  0  0  0  0  0  0  0  0  0  0  0
    2.0671   -1.4705   -2.1094 H   0  0  0  0  0  0  0  0  0  0  0  0
    2.7722   -1.1202   -0.1206 C   0  0  0  0  0  0  0  0  0  0  0  0
    2.7734   -0.0751    0.5158 O   0  0  0  0  0  0  0  0  0  0  0  0
    3.7500   -2.0494   -0.0235 O   0  0  0  0  0  0  0  0  0  0  0  0
    4.3776   -1.7154    0.6347 H   0  0  0  0  0  0  0  0  0  0  0  0
   -0.4139    1.1647    0.6752 C   0  0  0  0  0  0  0  0  0  0  0  0
   -1.3783    1.8046    0.2700 O   0  0  0  0  0  0  0  0  0  0  0  0
    0.4396    1.7222    1.6071 N   0  0  0  0  0  0  0  0  0  0  0  0
    1.3015    1.2088    1.7901 H   0  0  0  0  0  0  0  0  0  0  0  0
    0.3520    3.1139    2.0295 C   0  0  0  0  0  0  0  0  0  0  0  0
   -0.6355    3.3246    2.4534 H   0  0  0  0  0  0  0  0  0  0  0  0
    1.1060    3.3247    2.7940 H   0  0  0  0  0  0  0  0  0  0  0  0
    0.5209    3.7833    1.1795 H   0  0  0  0  0  0  0  0  0  0  0  0
  1  2  1  0  0  0  0
  2  3  1  0  0  0  0
  2  4  1  0  0  0  0
  2  5  1  0  0  0  0
  5  6  2  0  0  0  0
  5  7  1  0  0  0  0
  7  8  1  0  0  0  0
  7  9  1  0  0  0  0
  9 10  1  0  0  0  0
  9 11  1  0  0  0  0
  9 21  1  0  0  0  0
 11 12  1  0  0  0  0
 11 13  1  0  0  0  0
 11 14  1  0  0  0  0
 14 15  1  0  0  0  0
 14 16  1  0  0  0  0
 14 17  1  0  0  0  0
 17 18  2  0  0  0  0
 17 19  1  0  0  0  0
 19 20  1  0  0  0  0
 21 22  2  0  0  0  0
 21 23  1  0  0  0  0
 23 24  1  0  0  0  0
 23 25  1  0  0  0  0
 25 26  1  0  0  0  0
 25 27  1  0  0  0  0
 25 28  1  0  0  0  0
M  END
$$$$

  -OEChem-02102214123D

 28 27  0     1  0  0  0  0  0999 V2000
   -3.1558   -3.8050    1.2887 H   0  0  0  0  0  0  0  0  0  0  0  0
   -3.1590   -2.8235    0.8062 C   0  0  0  0  0  0  0  0  0  0  0  0
   -3.8057   -2.1529    1.3772 H   0  0  0  0  0  0  0  0  0  0  0  0
   -3.5579   -2.9292   -0.2055 H   0  0  0  0  0  0  0  0  0  0  0  0
   -1.7502   -2.2637    0.7514 C   0  0  0  0  0  0  0  0  0  0  0  0
   -0.8128   -2.9262    1.1677 O   0  0  0  0  0  0  0  0  0  0  0  0
   -1.5327   -1.0083    0.2235 N   0  0  0  0  0  0  0  0  0  0  0  0
   -2.3536   -0.4524   -0.0120 H   0  0  0  0  0  0  0  0  0  0  0  0
   -0.2468   -0.2982    0.2707 C   0  0  1  0  0  0  0  0  0  0  0  0
    0.3545   -0.7485    1.0633 H   0  0  0  0  0  0  0  0  0  0  0  0
    0.4681   -0.4146   -1.0968 C   0  0  0  0  0  0  0  0  0  0  0  0
   -0.2533   -0.6939   -1.8718 H   0  0  0  0  0  0  0  0  0  0  0  0
    0.8587    0.5715   -1.3730 H   0  0  0  0  0  0  0  0  0  0  0  0
    1.6577   -1.4037   -1.1237 C   0  0  0  0  0  0  0  0  0  0  0  0
    1.2471   -2.4180   -1.1317 H   0  0  0  0  0  0  0  0  0  0  0  0
    2.2182   -1.2692   -2.0526 H   0  0  0  0  0  0  0  0  0  0  0  0
    2.6397   -1.3265    0.0495 C   0  0  0  0  0  0  0  0  0  0  0  0
    2.7709   -0.2726    0.6576 O   0  0  0  0  0  0  0  0  0  0  0  0
    3.3472   -2.4438    0.3333 O   0  0  0  0  0  0  0  0  0  0  0  0
    3.9024   -2.2291    1.0974 H   0  0  0  0  0  0  0  0  0  0  0  0
   -0.4225    1.1763    0.6800 C   0  0  0  0  0  0  0  0  0  0  0  0
   -1.3803    1.8167    0.2610 O   0  0  0  0  0  0  0  0  0  0  0  0
    0.4274    1.7364    1.6136 N   0  0  0  0  0  0  0  0  0  0  0  0
    1.2754    1.2120    1.8265 H   0  0  0  0  0  0  0  0  0  0  0  0
    0.3354    3.1260    2.0417 C   0  0  0  0  0  0  0  0  0  0  0  0
   -0.6543    3.3333    2.4622 H   0  0  0  0  0  0  0  0  0  0  0  0
    1.0855    3.3342    2.8107 H   0  0  0  0  0  0  0  0  0  0  0  0
    0.5074    3.7998    1.1959 H   0  0  0  0  0  0  0  0  0  0  0  0
  1  2  1  0  0  0  0
  2  3  1  0  0  0  0
  2  4  1  0  0  0  0
  2  5  1  0  0  0  0
  5  6  2  0  0  0  0
  5  7  1  0  0  0  0
  7  8  1  0  0  0  0
  7  9  1  0  0  0  0
  9 10  1  0  0  0  0
  9 11  1  0  0  0  0
  9 21  1  0  0  0  0
 11 12  1  0  0  0  0
 11 13  1  0  0  0  0
 11 14  1  0  0  0  0
 14 15  1  0  0  0  0
 14 16  1  0  0  0  0
 14 17  1  0  0  0  0
 17 18  2  0  0  0  0
 17 19  1  0  0  0  0
 19 20  1  0  0  0  0
 21 22  2  0  0  0  0
 21 23  1  0  0  0  0
 23 24  1  0  0  0  0
 23 25  1  0  0  0  0
 25 26  1  0  0  0  0
 25 27  1  0  0  0  0
 25 28  1  0  0  0  0
M  END
$$$$

  -OEChem-02102214123D

 28 27  0     1  0  0  0  0  0999 V2000
   -3.1519   -3.8130    1.2719 H   0  0  0  0  0  0  0  0  0  0  0  0
   -3.1499   -2.8300    0.7924 C   0  0  0  0  0  0  0  0  0  0  0  0
   -3.8206   -2.1674    1.3449 H   0  0  0  0  0  0  0  0  0  0  0  0
   -3.5154   -2.9366   -0.2318 H   0  0  0  0  0  0  0  0  0  0  0  0
   -1.7460   -2.2562    0.7820 C   0  0  0  0  0  0  0  0  0  0  0  0
   -0.8187   -2.9016    1.2447 O   0  0  0  0  0  0  0  0  0  0  0  0
   -1.5216   -1.0074    0.2417 N   0  0  0  0  0  0  0  0  0  0  0  0
   -2.3385   -0.4620   -0.0295 H   0  0  0  0  0  0  0  0  0  0  0  0
   -0.2384   -0.2935    0.3013 C   0  0  1  0  0  0  0  0  0  0  0  0
    0.3476   -0.7267    1.1124 H   0  0  0  0  0  0  0  0  0  0  0  0
    0.4847   -0.4238   -1.0644 C   0  0  0  0  0  0  0  0  0  0  0  0
   -0.2371   -0.6874   -1.8447 H   0  0  0  0  0  0  0  0  0  0  0  0
    0.8778    0.5640   -1.3299 H   0  0  0  0  0  0  0  0  0  0  0  0
    1.6842   -1.4038   -1.1276 C   0  0  0  0  0  0  0  0  0  0  0  0
    1.2860   -2.3865   -1.3975 H   0  0  0  0  0  0  0  0  0  0  0  0
    2.3627   -1.0987   -1.9286 H   0  0  0  0  0  0  0  0  0  0  0  0
    2.4978   -1.6020    0.1527 C   0  0  0  0  0  0  0  0  0  0  0  0
    2.7831   -0.6212    0.8264 O   0  0  0  0  0  0  0  0  0  0  0  0
    2.8960   -2.8590    0.4544 O   0  0  0  0  0  0  0  0  0  0  0  0
    3.3633   -2.8022    1.3007 H   0  0  0  0  0  0  0  0  0  0  0  0
   -0.4270    1.1853    0.6885 C   0  0  0  0  0  0  0  0  0  0  0  0
   -1.3692    1.8220    0.2307 O   0  0  0  0  0  0  0  0  0  0  0  0
    0.4032    1.7629    1.6296 N   0  0  0  0  0  0  0  0  0  0  0  0
    1.2199    1.2250    1.9155 H   0  0  0  0  0  0  0  0  0  0  0  0
    0.2957    3.1568    2.0407 C   0  0  0  0  0  0  0  0  0  0  0  0
   -0.6987    3.3596    2.4523 H   0  0  0  0  0  0  0  0  0  0  0  0
    1.0395    3.3824    2.8109 H   0  0  0  0  0  0  0  0  0  0  0  0
    0.4661    3.8218    1.1877 H   0  0  0  0  0  0  0  0  0  0  0  0
  1  2  1  0  0  0  0
  2  3  1  0  0  0  0
  2  4  1  0  0  0  0
  2  5  1  0  0  0  0
  5  6  2  0  0  0  0
  5  7  1  0  0  0  0
  7  8  1  0  0  0  0
  7  9  1  0  0  0  0
  9 10  1  0  0  0  0
  9 11  1  0  0  0  0
  9 21  1  0  0  0  0
 11 12  1  0  0  0  0
 11 13  1  0  0  0  0
 11 14  1  0  0  0  0
 14 15  1  0  0  0  0
 14 16  1  0  0  0  0
 14 17  1  0  0  0  0
 17 18  2  0  0  0  0
 17 19  1  0  0  0  0
 19 20  1  0  0  0  0
 21 22  2  0  0  0  0
 21 23  1  0  0  0  0
 23 24  1  0  0  0  0
 23 25  1  0  0  0  0
 25 26  1  0  0  0  0
 25 27  1  0  0  0  0
 25 28  1  0  0  0  0
M  END
$$$$

  -OEChem-02102214123D

 28 27  0     1  0  0  0  0  0999 V2000
   -3.2093   -4.0491    0.7550 H   0  0  0  0  0  0  0  0  0  0  0  0
   -3.2638   -2.9570    0.7270 C   0  0  0  0  0  0  0  0  0  0  0  0
   -3.4563   -2.5893    1.7380 H   0  0  0  0  0  0  0  0  0  0  0  0
   -4.0902   -2.6627    0.0756 H   0  0  0  0  0  0  0  0  0  0  0  0
   -1.9616   -2.3788    0.2046 C   0  0  0  0  0  0  0  0  0  0  0  0
   -1.0704   -3.1451   -0.1207 O   0  0  0  0  0  0  0  0  0  0  0  0
   -1.8268   -1.0021    0.1640 N   0  0  0  0  0  0  0  0  0  0  0  0
   -2.5924   -0.4854    0.5948 H   0  0  0  0  0  0  0  0  0  0  0  0
   -0.6776   -0.1650   -0.2446 C   0  0  1  0  0  0  0  0  0  0  0  0
   -1.1734    0.4399   -1.0119 H   0  0  0  0  0  0  0  0  0  0  0  0
    0.3671   -0.8523   -1.1899 C   0  0  0  0  0  0  0  0  0  0  0  0
   -0.1218   -1.6381   -1.7723 H   0  0  0  0  0  0  0  0  0  0  0  0
    0.6115   -0.0768   -1.9243 H   0  0  0  0  0  0  0  0  0  0  0  0
    1.7600   -1.3688   -0.7325 C   0  0  0  0  0  0  0  0  0  0  0  0
    1.6857   -2.4595   -0.6816 H   0  0  0  0  0  0  0  0  0  0  0  0
    2.4908   -1.1437   -1.5154 H   0  0  0  0  0  0  0  0  0  0  0  0
    2.3417   -0.9418    0.6019 C   0  0  0  0  0  0  0  0  0  0  0  0
    3.1880   -0.0623    0.5982 O   0  0  0  0  0  0  0  0  0  0  0  0
    1.8845   -1.5385    1.7260 O   0  0  0  0  0  0  0  0  0  0  0  0
    2.3678   -1.1476    2.4688 H   0  0  0  0  0  0  0  0  0  0  0  0
   -0.4077    1.0014    0.7502 C   0  0  0  0  0  0  0  0  0  0  0  0
   -1.4039    1.5518    1.2083 O   0  0  0  0  0  0  0  0  0  0  0  0
    0.8091    1.4170    1.2556 N   0  0  0  0  0  0  0  0  0  0  0  0
    1.6526    1.0592    0.8127 H   0  0  0  0  0  0  0  0  0  0  0  0
    0.9547    2.5059    2.2155 C   0  0  0  0  0  0  0  0  0  0  0  0
    0.4175    2.2756    3.1417 H   0  0  0  0  0  0  0  0  0  0  0  0
    2.0114    2.6541    2.4582 H   0  0  0  0  0  0  0  0  0  0  0  0
    0.5601    3.4397    1.8013 H   0  0  0  0  0  0  0  0  0  0  0  0
  1  2  1  0  0  0  0
  2  3  1  0  0  0  0
  2  4  1  0  0  0  0
  2  5  1  0  0  0  0
  5  6  2  0  0  0  0
  5  7  1  0  0  0  0
  7  8  1  0  0  0  0
  7  9  1  0  0  0  0
  9 10  1  0  0  0  0
  9 11  1  0  0  0  0
  9 21  1  0  0  0  0
 11 12  1  0  0  0  0
 11 13  1  0  0  0  0
 11 14  1  0  0  0  0
 14 15  1  0  0  0  0
 14 16  1  0  0  0  0
 14 17  1  0  0  0  0
 17 18  2  0  0  0  0
 17 19  1  0  0  0  0
 19 20  1  0  0  0  0
 21 22  2  0  0  0  0
 21 23  1  0  0  0  0
 23 24  1  0  0  0  0
 23 25  1  0  0  0  0
 25 26  1  0  0  0  0
 25 27  1  0  0  0  0
 25 28  1  0  0  0  0
M  END
$$$$

  -OEChem-02102214123D

 28 27  0     1  0  0  0  0  0999 V2000
   -3.1658   -3.7996    1.2506 H   0  0  0  0  0  0  0  0  0  0  0  0
   -3.1333   -2.8171    0.7715 C   0  0  0  0  0  0  0  0  0  0  0  0
   -3.8447   -2.1564    1.2727 H   0  0  0  0  0  0  0  0  0  0  0  0
   -3.4238   -2.9267   -0.2761 H   0  0  0  0  0  0  0  0  0  0  0  0
   -1.7348   -2.2369    0.8628 C   0  0  0  0  0  0  0  0  0  0  0  0
   -0.8641   -2.8380    1.4721 O   0  0  0  0  0  0  0  0  0  0  0  0
   -1.4649   -1.0141    0.2845 N   0  0  0  0  0  0  0  0  0  0  0  0
   -2.2506   -0.4931   -0.1024 H   0  0  0  0  0  0  0  0  0  0  0  0
   -0.1741   -0.3151    0.3619 C   0  0  1  0  0  0  0  0  0  0  0  0
    0.4129   -0.7087    1.1920 H   0  0  0  0  0  0  0  0  0  0  0  0
    0.5589   -0.4453   -1.0038 C   0  0  0  0  0  0  0  0  0  0  0  0
   -0.1752   -0.7054   -1.7741 H   0  0  0  0  0  0  0  0  0  0  0  0
    0.9470    0.5415   -1.2804 H   0  0  0  0  0  0  0  0  0  0  0  0
    1.7530   -1.4328   -1.1111 C   0  0  0  0  0  0  0  0  0  0  0  0
    1.5249   -2.1589   -1.8968 H   0  0  0  0  0  0  0  0  0  0  0  0
    2.6394   -0.8813   -1.4375 H   0  0  0  0  0  0  0  0  0  0  0  0
    2.1325   -2.2177    0.1409 C   0  0  0  0  0  0  0  0  0  0  0  0
    2.6896   -1.6235    1.0519 O   0  0  0  0  0  0  0  0  0  0  0  0
    1.8436   -3.5384    0.1655 O   0  0  0  0  0  0  0  0  0  0  0  0
    2.0201   -3.8361    1.0707 H   0  0  0  0  0  0  0  0  0  0  0  0
   -0.4021    1.1751    0.6859 C   0  0  0  0  0  0  0  0  0  0  0  0
   -1.3005    1.7923    0.1247 O   0  0  0  0  0  0  0  0  0  0  0  0
    0.3722    1.8096    1.6386 N   0  0  0  0  0  0  0  0  0  0  0  0
    1.0991    1.2620    2.0935 H   0  0  0  0  0  0  0  0  0  0  0  0
    0.1951    3.2063    2.0158 C   0  0  0  0  0  0  0  0  0  0  0  0
   -0.8134    3.3719    2.4091 H   0  0  0  0  0  0  0  0  0  0  0  0
    0.9177    3.4839    2.7894 H   0  0  0  0  0  0  0  0  0  0  0  0
    0.3474    3.8593    1.1500 H   0  0  0  0  0  0  0  0  0  0  0  0
  1  2  1  0  0  0  0
  2  3  1  0  0  0  0
  2  4  1  0  0  0  0
  2  5  1  0  0  0  0
  5  6  2  0  0  0  0
  5  7  1  0  0  0  0
  7  8  1  0  0  0  0
  7  9  1  0  0  0  0
  9 10  1  0  0  0  0
  9 11  1  0  0  0  0
  9 21  1  0  0  0  0
 11 12  1  0  0  0  0
 11 13  1  0  0  0  0
 11 14  1  0  0  0  0
 14 15  1  0  0  0  0
 14 16  1  0  0  0  0
 14 17  1  0  0  0  0
 17 18  2  0  0  0  0
 17 19  1  0  0  0  0
 19 20  1  0  0  0  0
 21 22  2  0  0  0  0
 21 23  1  0  0  0  0
 23 24  1  0  0  0  0
 23 25  1  0  0  0  0
 25 26  1  0  0  0  0
 25 27  1  0  0  0  0
 25 28  1  0  0  0  0
M  END
$$$$

  -OEChem-02102214123D

 28 27  0     1  0  0  0  0  0999 V2000
   -3.1666   -3.8083    1.2292 H   0  0  0  0  0  0  0  0  0  0  0  0
   -3.1169   -2.8276    0.7480 C   0  0  0  0  0  0  0  0  0  0  0  0
   -3.8490   -2.1664    1.2181 H   0  0  0  0  0  0  0  0  0  0  0  0
   -3.3651   -2.9426   -0.3100 H   0  0  0  0  0  0  0  0  0  0  0  0
   -1.7244   -2.2438    0.8923 C   0  0  0  0  0  0  0  0  0  0  0  0
   -0.8868   -2.8281    1.5619 O   0  0  0  0  0  0  0  0  0  0  0  0
   -1.4340   -1.0300    0.3049 N   0  0  0  0  0  0  0  0  0  0  0  0
   -2.2046   -0.5257   -0.1313 H   0  0  0  0  0  0  0  0  0  0  0  0
   -0.1399   -0.3344    0.3756 C   0  0  1  0  0  0  0  0  0  0  0  0
    0.4629   -0.7213    1.1998 H   0  0  0  0  0  0  0  0  0  0  0  0
    0.5906   -0.4568   -0.9933 C   0  0  0  0  0  0  0  0  0  0  0  0
   -0.1495   -0.7385   -1.7503 H   0  0  0  0  0  0  0  0  0  0  0  0
    0.9671    0.5284   -1.2913 H   0  0  0  0  0  0  0  0  0  0  0  0
    1.7804   -1.4468   -1.0953 C   0  0  0  0  0  0  0  0  0  0  0  0
    1.7116   -1.9872   -2.0437 H   0  0  0  0  0  0  0  0  0  0  0  0
    2.7107   -0.8718   -1.1227 H   0  0  0  0  0  0  0  0  0  0  0  0
    1.9098   -2.4671    0.0292 C   0  0  0  0  0  0  0  0  0  0  0  0
    2.5198   -2.1471    1.0375 O   0  0  0  0  0  0  0  0  0  0  0  0
    1.3290   -3.6742   -0.1546 O   0  0  0  0  0  0  0  0  0  0  0  0
    1.3319   -4.1016    0.7168 H   0  0  0  0  0  0  0  0  0  0  0  0
   -0.3800    1.1584    0.6822 C   0  0  0  0  0  0  0  0  0  0  0  0
   -1.2740    1.7653    0.1026 O   0  0  0  0  0  0  0  0  0  0  0  0
    0.3848    1.8116    1.6302 N   0  0  0  0  0  0  0  0  0  0  0  0
    1.0871    1.2666    2.1245 H   0  0  0  0  0  0  0  0  0  0  0  0
    0.1734    3.2035    2.0080 C   0  0  0  0  0  0  0  0  0  0  0  0
   -0.8387    3.3441    2.4017 H   0  0  0  0  0  0  0  0  0  0  0  0
    0.8889    3.4990    2.7813 H   0  0  0  0  0  0  0  0  0  0  0  0
    0.3092    3.8605    1.1424 H   0  0  0  0  0  0  0  0  0  0  0  0
  1  2  1  0  0  0  0
  2  3  1  0  0  0  0
  2  4  1  0  0  0  0
  2  5  1  0  0  0  0
  5  6  2  0  0  0  0
  5  7  1  0  0  0  0
  7  8  1  0  0  0  0
  7  9  1  0  0  0  0
  9 10  1  0  0  0  0
  9 11  1  0  0  0  0
  9 21  1  0  0  0  0
 11 12  1  0  0  0  0
 11 13  1  0  0  0  0
 11 14  1  0  0  0  0
 14 15  1  0  0  0  0
 14 16  1  0  0  0  0
 14 17  1  0  0  0  0
 17 18  2  0  0  0  0
 17 19  1  0  0  0  0
 19 20  1  0  0  0  0
 21 22  2  0  0  0  0
 21 23  1  0  0  0  0
 23 24  1  0  0  0  0
 23 25  1  0  0  0  0
 25 26  1  0  0  0  0
 25 27  1  0  0  0  0
 25 28  1  0  0  0  0
M  END
$$$$

  -OEChem-02102214123D

 28 27  0     1  0  0  0  0  0999 V2000
   -3.1342   -3.8422    1.2804 H   0  0  0  0  0  0  0  0  0  0  0  0
   -3.0892   -2.8655    0.7905 C   0  0  0  0  0  0  0  0  0  0  0  0
   -3.8283   -2.2052    1.2506 H   0  0  0  0  0  0  0  0  0  0  0  0
   -3.3313   -2.9916   -0.2675 H   0  0  0  0  0  0  0  0  0  0  0  0
   -1.7016   -2.2706    0.9351 C   0  0  0  0  0  0  0  0  0  0  0  0
   -0.8615   -2.8508    1.6040 O   0  0  0  0  0  0  0  0  0  0  0  0
   -1.4209   -1.0574    0.3417 N   0  0  0  0  0  0  0  0  0  0  0  0
   -2.1990   -0.5680   -0.0979 H   0  0  0  0  0  0  0  0  0  0  0  0
   -0.1310   -0.3480    0.3728 C   0  0  1  0  0  0  0  0  0  0  0  0
    0.5073   -0.7379    1.1713 H   0  0  0  0  0  0  0  0  0  0  0  0
    0.5653   -0.4673   -1.0130 C   0  0  0  0  0  0  0  0  0  0  0  0
   -0.1869   -0.7736   -1.7483 H   0  0  0  0  0  0  0  0  0  0  0  0
    0.9234    0.5175   -1.3337 H   0  0  0  0  0  0  0  0  0  0  0  0
    1.7582   -1.4470   -1.1114 C   0  0  0  0  0  0  0  0  0  0  0  0
    1.8435   -1.8091   -2.1395 H   0  0  0  0  0  0  0  0  0  0  0  0
    2.6778   -0.8993   -0.8840 H   0  0  0  0  0  0  0  0  0  0  0  0
    1.6924   -2.6474   -0.1768 C   0  0  0  0  0  0  0  0  0  0  0  0
    2.3421   -2.6075    0.8554 O   0  0  0  0  0  0  0  0  0  0  0  0
    0.9090   -3.6884   -0.5388 O   0  0  0  0  0  0  0  0  0  0  0  0
    0.8476   -4.2438    0.2559 H   0  0  0  0  0  0  0  0  0  0  0  0
   -0.3745    1.1438    0.6806 C   0  0  0  0  0  0  0  0  0  0  0  0
   -1.2819    1.7442    0.1153 O   0  0  0  0  0  0  0  0  0  0  0  0
    0.4114    1.8075    1.6036 N   0  0  0  0  0  0  0  0  0  0  0  0
    1.1132    1.2644    2.1000 H   0  0  0  0  0  0  0  0  0  0  0  0
    0.1992    3.2001    1.9792 C   0  0  0  0  0  0  0  0  0  0  0  0
   -0.8012    3.3343    2.4040 H   0  0  0  0  0  0  0  0  0  0  0  0
    0.9366    3.5072    2.7271 H   0  0  0  0  0  0  0  0  0  0  0  0
    0.3012    3.8528    1.1057 H   0  0  0  0  0  0  0  0  0  0  0  0
  1  2  1  0  0  0  0
  2  3  1  0  0  0  0
  2  4  1  0  0  0  0
  2  5  1  0  0  0  0
  5  6  2  0  0  0  0
  5  7  1  0  0  0  0
  7  8  1  0  0  0  0
  7  9  1  0  0  0  0
  9 10  1  0  0  0  0
  9 11  1  0  0  0  0
  9 21  1  0  0  0  0
 11 12  1  0  0  0  0
 11 13  1  0  0  0  0
 11 14  1  0  0  0  0
 14 15  1  0  0  0  0
 14 16  1  0  0  0  0
 14 17  1  0  0  0  0
 17 18  2  0  0  0  0
 17 19  1  0  0  0  0
 19 20  1  0  0  0  0
 21 22  2  0  0  0  0
 21 23  1  0  0  0  0
 23 24  1  0  0  0  0
 23 25  1  0  0  0  0
 25 26  1  0  0  0  0
 25 27  1  0  0  0  0
 25 28  1  0  0  0  0
M  END
$$$$

  -OEChem-02102214123D

 28 27  0     1  0  0  0  0  0999 V2000
   -3.1980   -3.8397    1.1989 H   0  0  0  0  0  0  0  0  0  0  0  0
   -3.1418   -2.8633    0.7096 C   0  0  0  0  0  0  0  0  0  0  0  0
   -3.8837   -2.1995    1.1600 H   0  0  0  0  0  0  0  0  0  0  0  0
   -3.3701   -2.9888   -0.3516 H   0  0  0  0  0  0  0  0  0  0  0  0
   -1.7532   -2.2753    0.8717 C   0  0  0  0  0  0  0  0  0  0  0  0
   -0.9114   -2.8742    1.5245 O   0  0  0  0  0  0  0  0  0  0  0  0
   -1.4720   -1.0377    0.3293 N   0  0  0  0  0  0  0  0  0  0  0  0
   -2.2430   -0.5351   -0.1068 H   0  0  0  0  0  0  0  0  0  0  0  0
   -0.1576   -0.3747    0.3283 C   0  0  1  0  0  0  0  0  0  0  0  0
    0.5168   -0.8370    1.0559 H   0  0  0  0  0  0  0  0  0  0  0  0
    0.4526   -0.4302   -1.0998 C   0  0  0  0  0  0  0  0  0  0  0  0
   -0.3434   -0.6614   -1.8164 H   0  0  0  0  0  0  0  0  0  0  0  0
    0.8442    0.5550   -1.3774 H   0  0  0  0  0  0  0  0  0  0  0  0
    1.5927   -1.4537   -1.2820 C   0  0  0  0  0  0  0  0  0  0  0  0
    1.8030   -1.5852   -2.3473 H   0  0  0  0  0  0  0  0  0  0  0  0
    2.5013   -1.0647   -0.8140 H   0  0  0  0  0  0  0  0  0  0  0  0
    1.2861   -2.8108   -0.6641 C   0  0  0  0  0  0  0  0  0  0  0  0
    0.5117   -3.5489   -1.2511 O   0  0  0  0  0  0  0  0  0  0  0  0
    1.8493   -3.0983    0.5318 O   0  0  0  0  0  0  0  0  0  0  0  0
    1.3597   -3.8686    0.8660 H   0  0  0  0  0  0  0  0  0  0  0  0
   -0.3288    1.1045    0.7332 C   0  0  0  0  0  0  0  0  0  0  0  0
   -1.2268    1.7749    0.2364 O   0  0  0  0  0  0  0  0  0  0  0  0
    0.5292    1.6873    1.6471 N   0  0  0  0  0  0  0  0  0  0  0  0
    1.2247    1.0905    2.0862 H   0  0  0  0  0  0  0  0  0  0  0  0
    0.4001    3.0693    2.0936 C   0  0  0  0  0  0  0  0  0  0  0  0
   -0.5831    3.2362    2.5462 H   0  0  0  0  0  0  0  0  0  0  0  0
    1.1672    3.2998    2.8393 H   0  0  0  0  0  0  0  0  0  0  0  0
    0.5205    3.7569    1.2498 H   0  0  0  0  0  0  0  0  0  0  0  0
  1  2  1  0  0  0  0
  2  3  1  0  0  0  0
  2  4  1  0  0  0  0
  2  5  1  0  0  0  0
  5  6  2  0  0  0  0
  5  7  1  0  0  0  0
  7  8  1  0  0  0  0
  7  9  1  0  0  0  0
  9 10  1  0  0  0  0
  9 11  1  0  0  0  0
  9 21  1  0  0  0  0
 11 12  1  0  0  0  0
 11 13  1  0  0  0  0
 11 14  1  0  0  0  0
 14 15  1  0  0  0  0
 14 16  1  0  0  0  0
 14 17  1  0  0  0  0
 17 18  2  0  0  0  0
 17 19  1  0  0  0  0
 19 20  1  0  0  0  0
 21 22  2  0  0  0  0
 21 23  1  0  0  0  0
 23 24  1  0  0  0  0
 23 25  1  0  0  0  0
 25 26  1  0  0  0  0
 25 27  1  0  0  0  0
 25 28  1  0  0  0  0
M  END
$$$$

  -OEChem-02102214123D

 28 27  0     1  0  0  0  0  0999 V2000
   -3.1486   -3.8383    1.2641 H   0  0  0  0  0  0  0  0  0  0  0  0
   -3.1105   -2.8707    0.7563 C   0  0  0  0  0  0  0  0  0  0  0  0
   -3.8475   -2.2044    1.2107 H   0  0  0  0  0  0  0  0  0  0  0  0
   -3.3603   -3.0160   -0.2976 H   0  0  0  0  0  0  0  0  0  0  0  0
   -1.7234   -2.2701    0.8774 C   0  0  0  0  0  0  0  0  0  0  0  0
   -0.8503   -2.8707    1.4854 O   0  0  0  0  0  0  0  0  0  0  0  0
   -1.4687   -1.0291    0.3311 N   0  0  0  0  0  0  0  0  0  0  0  0
   -2.2545   -0.5330   -0.0857 H   0  0  0  0  0  0  0  0  0  0  0  0
   -0.1615   -0.3546    0.3024 C   0  0  1  0  0  0  0  0  0  0  0  0
    0.5303   -0.8193    1.0132 H   0  0  0  0  0  0  0  0  0  0  0  0
    0.4160   -0.4284   -1.1344 C   0  0  0  0  0  0  0  0  0  0  0  0
   -0.3842   -0.6623   -1.8457 H   0  0  0  0  0  0  0  0  0  0  0  0
    0.8133    0.5515   -1.4215 H   0  0  0  0  0  0  0  0  0  0  0  0
    1.5550   -1.4548   -1.2830 C   0  0  0  0  0  0  0  0  0  0  0  0
    1.9241   -1.4445   -2.3121 H   0  0  0  0  0  0  0  0  0  0  0  0
    2.3875   -1.1736   -0.6319 H   0  0  0  0  0  0  0  0  0  0  0  0
    1.1209   -2.8757   -0.9434 C   0  0  0  0  0  0  0  0  0  0  0  0
    0.2014   -3.3759   -1.5720 O   0  0  0  0  0  0  0  0  0  0  0  0
    1.7666   -3.4934    0.0717 O   0  0  0  0  0  0  0  0  0  0  0  0
    1.2426   -4.2854    0.2704 H   0  0  0  0  0  0  0  0  0  0  0  0
   -0.3283    1.1234    0.7126 C   0  0  0  0  0  0  0  0  0  0  0  0
   -1.2425    1.7903    0.2416 O   0  0  0  0  0  0  0  0  0  0  0  0
    0.5493    1.7078    1.6068 N   0  0  0  0  0  0  0  0  0  0  0  0
    1.2535    1.1112    2.0317 H   0  0  0  0  0  0  0  0  0  0  0  0
    0.4184    3.0843    2.0694 C   0  0  0  0  0  0  0  0  0  0  0  0
   -0.5442    3.2309    2.5708 H   0  0  0  0  0  0  0  0  0  0  0  0
    1.2172    3.3229    2.7783 H   0  0  0  0  0  0  0  0  0  0  0  0
    0.4859    3.7799    1.2262 H   0  0  0  0  0  0  0  0  0  0  0  0
  1  2  1  0  0  0  0
  2  3  1  0  0  0  0
  2  4  1  0  0  0  0
  2  5  1  0  0  0  0
  5  6  2  0  0  0  0
  5  7  1  0  0  0  0
  7  8  1  0  0  0  0
  7  9  1  0  0  0  0
  9 10  1  0  0  0  0
  9 11  1  0  0  0  0
  9 21  1  0  0  0  0
 11 12  1  0  0  0  0
 11 13  1  0  0  0  0
 11 14  1  0  0  0  0
 14 15  1  0  0  0  0
 14 16  1  0  0  0  0
 14 17  1  0  0  0  0
 17 18  2  0  0  0  0
 17 19  1  0  0  0  0
 19 20  1  0  0  0  0
 21 22  2  0  0  0  0
 21 23  1  0  0  0  0
 23 24  1  0  0  0  0
 23 25  1  0  0  0  0
 25 26  1  0  0  0  0
 25 27  1  0  0  0  0
 25 28  1  0  0  0  0
M  END
$$$$

  -OEChem-02102214123D

 28 27  0     1  0  0  0  0  0999 V2000
   -3.1181   -3.8367    1.2615 H   0  0  0  0  0  0  0  0  0  0  0  0
   -3.0976   -2.8685    0.7537 C   0  0  0  0  0  0  0  0  0  0  0  0
   -3.8234   -2.2050    1.2300 H   0  0  0  0  0  0  0  0  0  0  0  0
   -3.3771   -3.0137   -0.2928 H   0  0  0  0  0  0  0  0  0  0  0  0
   -1.7093   -2.2640    0.8353 C   0  0  0  0  0  0  0  0  0  0  0  0
   -0.8070   -2.8766    1.3858 O   0  0  0  0  0  0  0  0  0  0  0  0
   -1.4750   -1.0154    0.2988 N   0  0  0  0  0  0  0  0  0  0  0  0
   -2.2717   -0.5113   -0.0864 H   0  0  0  0  0  0  0  0  0  0  0  0
   -0.1743   -0.3313    0.2862 C   0  0  1  0  0  0  0  0  0  0  0  0
    0.5096   -0.7942    1.0051 H   0  0  0  0  0  0  0  0  0  0  0  0
    0.4101   -0.4211   -1.1427 C   0  0  0  0  0  0  0  0  0  0  0  0
   -0.3773   -0.6418   -1.8725 H   0  0  0  0  0  0  0  0  0  0  0  0
    0.8240    0.5545   -1.4206 H   0  0  0  0  0  0  0  0  0  0  0  0
    1.5518   -1.4525   -1.2388 C   0  0  0  0  0  0  0  0  0  0  0  0
    2.0962   -1.2963   -2.1739 H   0  0  0  0  0  0  0  0  0  0  0  0
    2.2613   -1.3042   -0.4200 H   0  0  0  0  0  0  0  0  0  0  0  0
    1.0632   -2.9005   -1.2277 C   0  0  0  0  0  0  0  0  0  0  0  0
    0.0774   -3.2078   -1.8801 O   0  0  0  0  0  0  0  0  0  0  0  0
    1.7703   -3.7784   -0.4803 O   0  0  0  0  0  0  0  0  0  0  0  0
    1.2647   -4.6051   -0.4990 H   0  0  0  0  0  0  0  0  0  0  0  0
   -0.3440    1.1435    0.7057 C   0  0  0  0  0  0  0  0  0  0  0  0
   -1.2584    1.8118    0.2376 O   0  0  0  0  0  0  0  0  0  0  0  0
    0.5275    1.7228    1.6093 N   0  0  0  0  0  0  0  0  0  0  0  0
    1.2369    1.1274    2.0273 H   0  0  0  0  0  0  0  0  0  0  0  0
    0.3976    3.0992    2.0722 C   0  0  0  0  0  0  0  0  0  0  0  0
   -0.5747    3.2521    2.5525 H   0  0  0  0  0  0  0  0  0  0  0  0
    1.1824    3.3303    2.7990 H   0  0  0  0  0  0  0  0  0  0  0  0
    0.4888    3.7955    1.2319 H   0  0  0  0  0  0  0  0  0  0  0  0
  1  2  1  0  0  0  0
  2  3  1  0  0  0  0
  2  4  1  0  0  0  0
  2  5  1  0  0  0  0
  5  6  2  0  0  0  0
  5  7  1  0  0  0  0
  7  8  1  0  0  0  0
  7  9  1  0  0  0  0
  9 10  1  0  0  0  0
  9 11  1  0  0  0  0
  9 21  1  0  0  0  0
 11 12  1  0  0  0  0
 11 13  1  0  0  0  0
 11 14  1  0  0  0  0
 14 15  1  0  0  0  0
 14 16  1  0  0  0  0
 14 17  1  0  0  0  0
 17 18  2  0  0  0  0
 17 19  1  0  0  0  0
 19 20  1  0  0  0  0
 21 22  2  0  0  0  0
 21 23  1  0  0  0  0
 23 24  1  0  0  0  0
 23 25  1  0  0  0  0
 25 26  1  0  0  0  0
 25 27  1  0  0  0  0
 25 28  1  0  0  0  0
M  END
$$$$

  -OEChem-02102214123D

 28 27  0     1  0  0  0  0  0999 V2000
   -3.1178   -3.8240    1.2384 H   0  0  0  0  0  0  0  0  0  0  0  0
   -3.1028   -2.8529    0.7358 C   0  0  0  0  0  0  0  0  0  0  0  0
   -3.8347   -2.1970    1.2131 H   0  0  0  0  0  0  0  0  0  0  0  0
   -3.3776   -2.9944   -0.3125 H   0  0  0  0  0  0  0  0  0  0  0  0
   -1.7188   -2.2395    0.8251 C   0  0  0  0  0  0  0  0  0  0  0  0
   -0.8116   -2.8505    1.3697 O   0  0  0  0  0  0  0  0  0  0  0  0
   -1.4861   -0.9919    0.2855 N   0  0  0  0  0  0  0  0  0  0  0  0
   -2.2797   -0.4878   -0.1057 H   0  0  0  0  0  0  0  0  0  0  0  0
   -0.1850   -0.3114    0.2905 C   0  0  1  0  0  0  0  0  0  0  0  0
    0.4837   -0.7685    1.0263 H   0  0  0  0  0  0  0  0  0  0  0  0
    0.4085   -0.4311   -1.1304 C   0  0  0  0  0  0  0  0  0  0  0  0
   -0.3717   -0.6287   -1.8738 H   0  0  0  0  0  0  0  0  0  0  0  0
    0.8459    0.5358   -1.4030 H   0  0  0  0  0  0  0  0  0  0  0  0
    1.5455   -1.4764   -1.1927 C   0  0  0  0  0  0  0  0  0  0  0  0
    2.2406   -1.1845   -1.9844 H   0  0  0  0  0  0  0  0  0  0  0  0
    2.1122   -1.4893   -0.2581 H   0  0  0  0  0  0  0  0  0  0  0  0
    1.0801   -2.8992   -1.5178 C   0  0  0  0  0  0  0  0  0  0  0  0
    0.0106   -3.0888   -2.0764 O   0  0  0  0  0  0  0  0  0  0  0  0
    1.9228   -3.8980   -1.1688 O   0  0  0  0  0  0  0  0  0  0  0  0
    1.4627   -4.7199   -1.3962 H   0  0  0  0  0  0  0  0  0  0  0  0
   -0.3527    1.1660    0.7020 C   0  0  0  0  0  0  0  0  0  0  0  0
   -1.2596    1.8358    0.2218 O   0  0  0  0  0  0  0  0  0  0  0  0
    0.5084    1.7450    1.6157 N   0  0  0  0  0  0  0  0  0  0  0  0
    1.2125    1.1492    2.0418 H   0  0  0  0  0  0  0  0  0  0  0  0
    0.3775    3.1228    2.0748 C   0  0  0  0  0  0  0  0  0  0  0  0
   -0.5980    3.2790    2.5474 H   0  0  0  0  0  0  0  0  0  0  0  0
    1.1572    3.3536    2.8071 H   0  0  0  0  0  0  0  0  0  0  0  0
    0.4765    3.8177    1.2342 H   0  0  0  0  0  0  0  0  0  0  0  0
  1  2  1  0  0  0  0
  2  3  1  0  0  0  0
  2  4  1  0  0  0  0
  2  5  1  0  0  0  0
  5  6  2  0  0  0  0
  5  7  1  0  0  0  0
  7  8  1  0  0  0  0
  7  9  1  0  0  0  0
  9 10  1  0  0  0  0
  9 11  1  0  0  0  0
  9 21  1  0  0  0  0
 11 12  1  0  0  0  0
 11 13  1  0  0  0  0
 11 14  1  0  0  0  0
 14 15  1  0  0  0  0
 14 16  1  0  0  0  0
 14 17  1  0  0  0  0
 17 18  2  0  0  0  0
 17 19  1  0  0  0  0
 19 20  1  0  0  0  0
 21 22  2  0  0  0  0
 21 23  1  0  0  0  0
 23 24  1  0  0  0  0
 23 25  1  0  0  0  0
 25 26  1  0  0  0  0
 25 27  1  0  0  0  0
 25 28  1  0  0  0  0
M  END
$$$$

  -OEChem-02102214123D

 28 27  0     1  0  0  0  0  0999 V2000
   -3.1641   -3.7966    1.2235 H   0  0  0  0  0  0  0  0  0  0  0  0
   -3.1386   -2.8186    0.7351 C   0  0  0  0  0  0  0  0  0  0  0  0
   -3.8705   -2.1646    1.2149 H   0  0  0  0  0  0  0  0  0  0  0  0
   -3.4050   -2.9439   -0.3173 H   0  0  0  0  0  0  0  0  0  0  0  0
   -1.7517   -2.2151    0.8457 C   0  0  0  0  0  0  0  0  0  0  0  0
   -0.8656   -2.8174    1.4333 O   0  0  0  0  0  0  0  0  0  0  0  0
   -1.4963   -0.9796    0.2887 N   0  0  0  0  0  0  0  0  0  0  0  0
   -2.2739   -0.4785   -0.1366 H   0  0  0  0  0  0  0  0  0  0  0  0
   -0.1879   -0.3145    0.3109 C   0  0  1  0  0  0  0  0  0  0  0  0
    0.4602   -0.7627    1.0698 H   0  0  0  0  0  0  0  0  0  0  0  0
    0.4300   -0.4597   -1.0978 C   0  0  0  0  0  0  0  0  0  0  0  0
   -0.3434   -0.6462   -1.8509 H   0  0  0  0  0  0  0  0  0  0  0  0
    0.8835    0.4991   -1.3724 H   0  0  0  0  0  0  0  0  0  0  0  0
    1.5589   -1.5200   -1.1409 C   0  0  0  0  0  0  0  0  0  0  0  0
    2.3900   -1.1076   -1.7197 H   0  0  0  0  0  0  0  0  0  0  0  0
    1.9433   -1.7334   -0.1405 H   0  0  0  0  0  0  0  0  0  0  0  0
    1.1757   -2.8479   -1.8030 C   0  0  0  0  0  0  0  0  0  0  0  0
    0.0225   -3.0720   -2.1360 O   0  0  0  0  0  0  0  0  0  0  0  0
    2.1844   -3.7298   -1.9896 O   0  0  0  0  0  0  0  0  0  0  0  0
    1.7762   -4.5132   -2.3883 H   0  0  0  0  0  0  0  0  0  0  0  0
   -0.3516    1.1712    0.6936 C   0  0  0  0  0  0  0  0  0  0  0  0
   -1.2398    1.8416    0.1800 O   0  0  0  0  0  0  0  0  0  0  0  0
    0.4936    1.7585    1.6169 N   0  0  0  0  0  0  0  0  0  0  0  0
    1.1754    1.1616    2.0763 H   0  0  0  0  0  0  0  0  0  0  0  0
    0.3577    3.1424    2.0559 C   0  0  0  0  0  0  0  0  0  0  0  0
   -0.6226    3.3038    2.5166 H   0  0  0  0  0  0  0  0  0  0  0  0
    1.1300    3.3839    2.7925 H   0  0  0  0  0  0  0  0  0  0  0  0
    0.4649    3.8262    1.2073 H   0  0  0  0  0  0  0  0  0  0  0  0
  1  2  1  0  0  0  0
  2  3  1  0  0  0  0
  2  4  1  0  0  0  0
  2  5  1  0  0  0  0
  5  6  2  0  0  0  0
  5  7  1  0  0  0  0
  7  8  1  0  0  0  0
  7  9  1  0  0  0  0
  9 10  1  0  0  0  0
  9 11  1  0  0  0  0
  9 21  1  0  0  0  0
 11 12  1  0  0  0  0
 11 13  1  0  0  0  0
 11 14  1  0  0  0  0
 14 15  1  0  0  0  0
 14 16  1  0  0  0  0
 14 17  1  0  0  0  0
 17 18  2  0  0  0  0
 17 19  1  0  0  0  0
 19 20  1  0  0  0  0
 21 22  2  0  0  0  0
 21 23  1  0  0  0  0
 23 24  1  0  0  0  0
 23 25  1  0  0  0  0
 25 26  1  0  0  0  0
 25 27  1  0  0  0  0
 25 28  1  0  0  0  0
M  END
$$$$

  -OEChem-02102214123D

 28 27  0     1  0  0  0  0  0999 V2000
   -3.2240   -3.7564    1.2402 H   0  0  0  0  0  0  0  0  0  0  0  0
   -3.1791   -2.7858    0.7388 C   0  0  0  0  0  0  0  0  0  0  0  0
   -3.8999   -2.1122    1.2084 H   0  0  0  0  0  0  0  0  0  0  0  0
   -3.4461   -2.9205   -0.3123 H   0  0  0  0  0  0  0  0  0  0  0  0
   -1.7814   -2.2066    0.8460 C   0  0  0  0  0  0  0  0  0  0  0  0
   -0.9104   -2.8139    1.4505 O   0  0  0  0  0  0  0  0  0  0  0  0
   -1.5020   -0.9814    0.2782 N   0  0  0  0  0  0  0  0  0  0  0  0
   -2.2694   -0.4708   -0.1547 H   0  0  0  0  0  0  0  0  0  0  0  0
   -0.1866   -0.3297    0.3179 C   0  0  1  0  0  0  0  0  0  0  0  0
    0.4424   -0.7720    1.0962 H   0  0  0  0  0  0  0  0  0  0  0  0
    0.4640   -0.4898   -1.0748 C   0  0  0  0  0  0  0  0  0  0  0  0
   -0.3033   -0.6954   -1.8289 H   0  0  0  0  0  0  0  0  0  0  0  0
    0.9186    0.4632   -1.3677 H   0  0  0  0  0  0  0  0  0  0  0  0
    1.5853   -1.5599   -1.0877 C   0  0  0  0  0  0  0  0  0  0  0  0
    2.5251   -1.0784   -1.3725 H   0  0  0  0  0  0  0  0  0  0  0  0
    1.7331   -1.9928   -0.0951 H   0  0  0  0  0  0  0  0  0  0  0  0
    1.3327   -2.7198   -2.0539 C   0  0  0  0  0  0  0  0  0  0  0  0
    0.1926   -3.0939   -2.2779 O   0  0  0  0  0  0  0  0  0  0  0  0
    2.4238   -3.2864   -2.6189 O   0  0  0  0  0  0  0  0  0  0  0  0
    2.0870   -4.0022   -3.1789 H   0  0  0  0  0  0  0  0  0  0  0  0
   -0.3436    1.1624    0.6783 C   0  0  0  0  0  0  0  0  0  0  0  0
   -1.2183    1.8325    0.1418 O   0  0  0  0  0  0  0  0  0  0  0  0
    0.4882    1.7544    1.6109 N   0  0  0  0  0  0  0  0  0  0  0  0
    1.1555    1.1577    2.0917 H   0  0  0  0  0  0  0  0  0  0  0  0
    0.3514    3.1433    2.0335 C   0  0  0  0  0  0  0  0  0  0  0  0
   -0.6152    3.3007    2.5236 H   0  0  0  0  0  0  0  0  0  0  0  0
    1.1450    3.4044    2.7402 H   0  0  0  0  0  0  0  0  0  0  0  0
    0.4229    3.8158    1.1721 H   0  0  0  0  0  0  0  0  0  0  0  0
  1  2  1  0  0  0  0
  2  3  1  0  0  0  0
  2  4  1  0  0  0  0
  2  5  1  0  0  0  0
  5  6  2  0  0  0  0
  5  7  1  0  0  0  0
  7  8  1  0  0  0  0
  7  9  1  0  0  0  0
  9 10  1  0  0  0  0
  9 11  1  0  0  0  0
  9 21  1  0  0  0  0
 11 12  1  0  0  0  0
 11 13  1  0  0  0  0
 11 14  1  0  0  0  0
 14 15  1  0  0  0  0
 14 16  1  0  0  0  0
 14 17  1  0  0  0  0
 17 18  2  0  0  0  0
 17 19  1  0  0  0  0
 19 20  1  0  0  0  0
 21 22  2  0  0  0  0
 21 23  1  0  0  0  0
 23 24  1  0  0  0  0
 23 25  1  0  0  0  0
 25 26  1  0  0  0  0
 25 27  1  0  0  0  0
 25 28  1  0  0  0  0
M  END
$$$$

  -OEChem-02102214123D

 28 27  0     1  0  0  0  0  0999 V2000
   -3.2085   -3.7590    1.2817 H   0  0  0  0  0  0  0  0  0  0  0  0
   -3.1803   -2.7810    0.7934 C   0  0  0  0  0  0  0  0  0  0  0  0
   -3.8530   -2.1030    1.3242 H   0  0  0  0  0  0  0  0  0  0  0  0
   -3.5244   -2.8922   -0.2378 H   0  0  0  0  0  0  0  0  0  0  0  0
   -1.7675   -2.2288    0.8099 C   0  0  0  0  0  0  0  0  0  0  0  0
   -0.8617   -2.8757    1.3125 O   0  0  0  0  0  0  0  0  0  0  0  0
   -1.5093   -0.9895    0.2639 N   0  0  0  0  0  0  0  0  0  0  0  0
   -2.3028   -0.4441   -0.0697 H   0  0  0  0  0  0  0  0  0  0  0  0
   -0.1981   -0.3264    0.2826 C   0  0  1  0  0  0  0  0  0  0  0  0
    0.4529   -0.7791    1.0371 H   0  0  0  0  0  0  0  0  0  0  0  0
    0.4361   -0.4434   -1.1220 C   0  0  0  0  0  0  0  0  0  0  0  0
   -0.3555   -0.6686   -1.8438 H   0  0  0  0  0  0  0  0  0  0  0  0
    0.8589    0.5199   -1.4277 H   0  0  0  0  0  0  0  0  0  0  0  0
    1.5713   -1.5005   -1.1649 C   0  0  0  0  0  0  0  0  0  0  0  0
    2.5373   -0.9889   -1.1354 H   0  0  0  0  0  0  0  0  0  0  0  0
    1.5145   -2.1407   -0.2800 H   0  0  0  0  0  0  0  0  0  0  0  0
    1.5592   -2.4533   -2.3650 C   0  0  0  0  0  0  0  0  0  0  0  0
    0.6355   -2.4486   -3.1621 O   0  0  0  0  0  0  0  0  0  0  0  0
    2.6305   -3.2710   -2.4813 O   0  0  0  0  0  0  0  0  0  0  0  0
    2.4680   -3.8059   -3.2730 H   0  0  0  0  0  0  0  0  0  0  0  0
   -0.3626    1.1548    0.6807 C   0  0  0  0  0  0  0  0  0  0  0  0
   -1.2724    1.8199    0.1991 O   0  0  0  0  0  0  0  0  0  0  0  0
    0.4873    1.7349    1.6040 N   0  0  0  0  0  0  0  0  0  0  0  0
    1.1945    1.1433    2.0310 H   0  0  0  0  0  0  0  0  0  0  0  0
    0.3530    3.1146    2.0556 C   0  0  0  0  0  0  0  0  0  0  0  0
   -0.6239    3.2713    2.5254 H   0  0  0  0  0  0  0  0  0  0  0  0
    1.1308    3.3509    2.7882 H   0  0  0  0  0  0  0  0  0  0  0  0
    0.4524    3.8050    1.2112 H   0  0  0  0  0  0  0  0  0  0  0  0
  1  2  1  0  0  0  0
  2  3  1  0  0  0  0
  2  4  1  0  0  0  0
  2  5  1  0  0  0  0
  5  6  2  0  0  0  0
  5  7  1  0  0  0  0
  7  8  1  0  0  0  0
  7  9  1  0  0  0  0
  9 10  1  0  0  0  0
  9 11  1  0  0  0  0
  9 21  1  0  0  0  0
 11 12  1  0  0  0  0
 11 13  1  0  0  0  0
 11 14  1  0  0  0  0
 14 15  1  0  0  0  0
 14 16  1  0  0  0  0
 14 17  1  0  0  0  0
 17 18  2  0  0  0  0
 17 19  1  0  0  0  0
 19 20  1  0  0  0  0
 21 22  2  0  0  0  0
 21 23  1  0  0  0  0
 23 24  1  0  0  0  0
 23 25  1  0  0  0  0
 25 26  1  0  0  0  0
 25 27  1  0  0  0  0
 25 28  1  0  0  0  0
M  END
$$$$

  -OEChem-02102214123D

 28 27  0     1  0  0  0  0  0999 V2000
   -3.1367   -3.7953    1.2462 H   0  0  0  0  0  0  0  0  0  0  0  0
   -3.1283   -2.7974    0.7987 C   0  0  0  0  0  0  0  0  0  0  0  0
   -3.7791   -2.1431    1.3837 H   0  0  0  0  0  0  0  0  0  0  0  0
   -3.5133   -2.8656   -0.2216 H   0  0  0  0  0  0  0  0  0  0  0  0
   -1.7166   -2.2430    0.7830 C   0  0  0  0  0  0  0  0  0  0  0  0
   -0.7984   -2.8899    1.2617 O   0  0  0  0  0  0  0  0  0  0  0  0
   -1.4759   -0.9994    0.2391 N   0  0  0  0  0  0  0  0  0  0  0  0
   -2.2819   -0.4511   -0.0586 H   0  0  0  0  0  0  0  0  0  0  0  0
   -0.1750   -0.3157    0.2586 C   0  0  1  0  0  0  0  0  0  0  0  0
    0.4815   -0.7631    1.0122 H   0  0  0  0  0  0  0  0  0  0  0  0
    0.4734   -0.4199   -1.1389 C   0  0  0  0  0  0  0  0  0  0  0  0
   -0.2993   -0.6972   -1.8652 H   0  0  0  0  0  0  0  0  0  0  0  0
    0.8709    0.5503   -1.4578 H   0  0  0  0  0  0  0  0  0  0  0  0
    1.6213   -1.4539   -1.1587 C   0  0  0  0  0  0  0  0  0  0  0  0
    2.5569   -0.9806   -0.8501 H   0  0  0  0  0  0  0  0  0  0  0  0
    1.3996   -2.2510   -0.4420 H   0  0  0  0  0  0  0  0  0  0  0  0
    1.8218   -2.1345   -2.5133 C   0  0  0  0  0  0  0  0  0  0  0  0
    1.4737   -1.5633   -3.5340 O   0  0  0  0  0  0  0  0  0  0  0  0
    2.4144   -3.3504   -2.5074 O   0  0  0  0  0  0  0  0  0  0  0  0
    2.4629   -3.6259   -3.4351 H   0  0  0  0  0  0  0  0  0  0  0  0
   -0.3645    1.1619    0.6590 C   0  0  0  0  0  0  0  0  0  0  0  0
   -1.3058    1.8013    0.2039 O   0  0  0  0  0  0  0  0  0  0  0  0
    0.4755    1.7551    1.5832 N   0  0  0  0  0  0  0  0  0  0  0  0
    1.2025    1.1788    1.9974 H   0  0  0  0  0  0  0  0  0  0  0  0
    0.2896    3.1162    2.0724 C   0  0  0  0  0  0  0  0  0  0  0  0
   -0.6645    3.2052    2.6026 H   0  0  0  0  0  0  0  0  0  0  0  0
    1.0958    3.3840    2.7624 H   0  0  0  0  0  0  0  0  0  0  0  0
    0.2976    3.8282    1.2401 H   0  0  0  0  0  0  0  0  0  0  0  0
  1  2  1  0  0  0  0
  2  3  1  0  0  0  0
  2  4  1  0  0  0  0
  2  5  1  0  0  0  0
  5  6  2  0  0  0  0
  5  7  1  0  0  0  0
  7  8  1  0  0  0  0
  7  9  1  0  0  0  0
  9 10  1  0  0  0  0
  9 11  1  0  0  0  0
  9 21  1  0  0  0  0
 11 12  1  0  0  0  0
 11 13  1  0  0  0  0
 11 14  1  0  0  0  0
 14 15  1  0  0  0  0
 14 16  1  0  0  0  0
 14 17  1  0  0  0  0
 17 18  2  0  0  0  0
 17 19  1  0  0  0  0
 19 20  1  0  0  0  0
 21 22  2  0  0  0  0
 21 23  1  0  0  0  0
 23 24  1  0  0  0  0
 23 25  1  0  0  0  0
 25 26  1  0  0  0  0
 25 27  1  0  0  0  0
 25 28  1  0  0  0  0
M  END
$$$$

  -OEChem-02102214123D

 28 27  0     1  0  0  0  0  0999 V2000
   -3.1557   -3.7890    1.2458 H   0  0  0  0  0  0  0  0  0  0  0  0
   -3.1447   -2.7932    0.7938 C   0  0  0  0  0  0  0  0  0  0  0  0
   -3.7975   -2.1359    1.3730 H   0  0  0  0  0  0  0  0  0  0  0  0
   -3.5256   -2.8659   -0.2278 H   0  0  0  0  0  0  0  0  0  0  0  0
   -1.7325   -2.2396    0.7809 C   0  0  0  0  0  0  0  0  0  0  0  0
   -0.8143   -2.8916    1.2527 O   0  0  0  0  0  0  0  0  0  0  0  0
   -1.4899   -0.9945    0.2408 N   0  0  0  0  0  0  0  0  0  0  0  0
   -2.2952   -0.4422   -0.0514 H   0  0  0  0  0  0  0  0  0  0  0  0
   -0.1871   -0.3141    0.2574 C   0  0  1  0  0  0  0  0  0  0  0  0
    0.4709   -0.7691    1.0052 H   0  0  0  0  0  0  0  0  0  0  0  0
    0.4562   -0.4208   -1.1412 C   0  0  0  0  0  0  0  0  0  0  0  0
   -0.3109   -0.6983   -1.8735 H   0  0  0  0  0  0  0  0  0  0  0  0
    0.8596    0.5490   -1.4541 H   0  0  0  0  0  0  0  0  0  0  0  0
    1.5975   -1.4585   -1.1513 C   0  0  0  0  0  0  0  0  0  0  0  0
    2.4620   -1.0639   -0.6115 H   0  0  0  0  0  0  0  0  0  0  0  0
    1.2628   -2.3612   -0.6306 H   0  0  0  0  0  0  0  0  0  0  0  0
    2.0421   -1.8843   -2.5514 C   0  0  0  0  0  0  0  0  0  0  0  0
    1.6642   -1.2579   -3.5282 O   0  0  0  0  0  0  0  0  0  0  0  0
    2.8711   -2.9503   -2.6283 O   0  0  0  0  0  0  0  0  0  0  0  0
    3.0501   -3.0784   -3.5721 H   0  0  0  0  0  0  0  0  0  0  0  0
   -0.3671    1.1632    0.6637 C   0  0  0  0  0  0  0  0  0  0  0  0
   -1.3054    1.8102    0.2134 O   0  0  0  0  0  0  0  0  0  0  0  0
    0.4804    1.7489    1.5858 N   0  0  0  0  0  0  0  0  0  0  0  0
    1.2075    1.1679    1.9934 H   0  0  0  0  0  0  0  0  0  0  0  0
    0.3131    3.1145    2.0692 C   0  0  0  0  0  0  0  0  0  0  0  0
   -0.6469    3.2233    2.5849 H   0  0  0  0  0  0  0  0  0  0  0  0
    1.1135    3.3689    2.7708 H   0  0  0  0  0  0  0  0  0  0  0  0
    0.3471    3.8238    1.2353 H   0  0  0  0  0  0  0  0  0  0  0  0
  1  2  1  0  0  0  0
  2  3  1  0  0  0  0
  2  4  1  0  0  0  0
  2  5  1  0  0  0  0
  5  6  2  0  0  0  0
  5  7  1  0  0  0  0
  7  8  1  0  0  0  0
  7  9  1  0  0  0  0
  9 10  1  0  0  0  0
  9 11  1  0  0  0  0
  9 21  1  0  0  0  0
 11 12  1  0  0  0  0
 11 13  1  0  0  0  0
 11 14  1  0  0  0  0
 14 15  1  0  0  0  0
 14 16  1  0  0  0  0
 14 17  1  0  0  0  0
 17 18  2  0  0  0  0
 17 19  1  0  0  0  0
 19 20  1  0  0  0  0
 21 22  2  0  0  0  0
 21 23  1  0  0  0  0
 23 24  1  0  0  0  0
 23 25  1  0  0  0  0
 25 26  1  0  0  0  0
 25 27  1  0  0  0  0
 25 28  1  0  0  0  0
M  END
$$$$

  -OEChem-02102214123D

 28 27  0     1  0  0  0  0  0999 V2000
   -3.1828   -3.7690    1.2531 H   0  0  0  0  0  0  0  0  0  0  0  0
   -3.1603   -2.7786    0.7901 C   0  0  0  0  0  0  0  0  0  0  0  0
   -3.8121   -2.1099    1.3573 H   0  0  0  0  0  0  0  0  0  0  0  0
   -3.5344   -2.8599   -0.2333 H   0  0  0  0  0  0  0  0  0  0  0  0
   -1.7434   -2.2371    0.7820 C   0  0  0  0  0  0  0  0  0  0  0  0
   -0.8342   -2.8940    1.2643 O   0  0  0  0  0  0  0  0  0  0  0  0
   -1.4868   -0.9961    0.2386 N   0  0  0  0  0  0  0  0  0  0  0  0
   -2.2860   -0.4390   -0.0611 H   0  0  0  0  0  0  0  0  0  0  0  0
   -0.1802   -0.3231    0.2654 C   0  0  1  0  0  0  0  0  0  0  0  0
    0.4758   -0.7795    1.0139 H   0  0  0  0  0  0  0  0  0  0  0  0
    0.4655   -0.4267   -1.1286 C   0  0  0  0  0  0  0  0  0  0  0  0
   -0.3096   -0.4099   -1.9033 H   0  0  0  0  0  0  0  0  0  0  0  0
    1.1108    0.4430   -1.2976 H   0  0  0  0  0  0  0  0  0  0  0  0
    1.3248   -1.7016   -1.2512 C   0  0  0  0  0  0  0  0  0  0  0  0
    2.1051   -1.6930   -0.4855 H   0  0  0  0  0  0  0  0  0  0  0  0
    0.6970   -2.5794   -1.0737 H   0  0  0  0  0  0  0  0  0  0  0  0
    1.9986   -1.8707   -2.6131 C   0  0  0  0  0  0  0  0  0  0  0  0
    1.8285   -1.0361   -3.4871 O   0  0  0  0  0  0  0  0  0  0  0  0
    2.7777   -2.9646   -2.7729 O   0  0  0  0  0  0  0  0  0  0  0  0
    3.1197   -2.9168   -3.6783 H   0  0  0  0  0  0  0  0  0  0  0  0
   -0.3601    1.1563    0.6630 C   0  0  0  0  0  0  0  0  0  0  0  0
   -1.2923    1.8040    0.2010 O   0  0  0  0  0  0  0  0  0  0  0  0
    0.4798    1.7420    1.5919 N   0  0  0  0  0  0  0  0  0  0  0  0
    1.2051    1.1617    2.0035 H   0  0  0  0  0  0  0  0  0  0  0  0
    0.3160    3.1105    2.0674 C   0  0  0  0  0  0  0  0  0  0  0  0
   -0.6491    3.2287    2.5712 H   0  0  0  0  0  0  0  0  0  0  0  0
    1.1098    3.3621    2.7775 H   0  0  0  0  0  0  0  0  0  0  0  0
    0.3653    3.8158    1.2309 H   0  0  0  0  0  0  0  0  0  0  0  0
  1  2  1  0  0  0  0
  2  3  1  0  0  0  0
  2  4  1  0  0  0  0
  2  5  1  0  0  0  0
  5  6  2  0  0  0  0
  5  7  1  0  0  0  0
  7  8  1  0  0  0  0
  7  9  1  0  0  0  0
  9 10  1  0  0  0  0
  9 11  1  0  0  0  0
  9 21  1  0  0  0  0
 11 12  1  0  0  0  0
 11 13  1  0  0  0  0
 11 14  1  0  0  0  0
 14 15  1  0  0  0  0
 14 16  1  0  0  0  0
 14 17  1  0  0  0  0
 17 18  2  0  0  0  0
 17 19  1  0  0  0  0
 19 20  1  0  0  0  0
 21 22  2  0  0  0  0
 21 23  1  0  0  0  0
 23 24  1  0  0  0  0
 23 25  1  0  0  0  0
 25 26  1  0  0  0  0
 25 27  1  0  0  0  0
 25 28  1  0  0  0  0
M  END
$$$$

  -OEChem-02102214123D

 28 27  0     1  0  0  0  0  0999 V2000
   -3.1955   -3.7505    1.2791 H   0  0  0  0  0  0  0  0  0  0  0  0
   -3.1678   -2.7703    0.7950 C   0  0  0  0  0  0  0  0  0  0  0  0
   -3.8161   -2.0860    1.3478 H   0  0  0  0  0  0  0  0  0  0  0  0
   -3.5421   -2.8711   -0.2267 H   0  0  0  0  0  0  0  0  0  0  0  0
   -1.7480   -2.2370    0.7757 C   0  0  0  0  0  0  0  0  0  0  0  0
   -0.8368   -2.9027    1.2418 O   0  0  0  0  0  0  0  0  0  0  0  0
   -1.4900   -0.9946    0.2370 N   0  0  0  0  0  0  0  0  0  0  0  0
   -2.2888   -0.4303   -0.0499 H   0  0  0  0  0  0  0  0  0  0  0  0
   -0.1810   -0.3273    0.2677 C   0  0  1  0  0  0  0  0  0  0  0  0
    0.4727   -0.7872    1.0161 H   0  0  0  0  0  0  0  0  0  0  0  0
    0.4570   -0.4319   -1.1301 C   0  0  0  0  0  0  0  0  0  0  0  0
   -0.3109   -0.3957   -1.9110 H   0  0  0  0  0  0  0  0  0  0  0  0
    1.1099    0.4357   -1.2797 H   0  0  0  0  0  0  0  0  0  0  0  0
    1.3103   -1.7107   -1.2681 C   0  0  0  0  0  0  0  0  0  0  0  0
    1.9297   -1.8360   -0.3760 H   0  0  0  0  0  0  0  0  0  0  0  0
    0.6523   -2.5816   -1.3351 H   0  0  0  0  0  0  0  0  0  0  0  0
    2.2492   -1.7065   -2.4749 C   0  0  0  0  0  0  0  0  0  0  0  0
    2.1100   -0.8696   -3.3519 O   0  0  0  0  0  0  0  0  0  0  0  0
    3.2088   -2.6592   -2.5037 O   0  0  0  0  0  0  0  0  0  0  0  0
    3.6965   -2.5188   -3.3293 H   0  0  0  0  0  0  0  0  0  0  0  0
   -0.3573    1.1512    0.6718 C   0  0  0  0  0  0  0  0  0  0  0  0
   -1.2864    1.8030    0.2089 O   0  0  0  0  0  0  0  0  0  0  0  0
    0.4816    1.7334    1.6039 N   0  0  0  0  0  0  0  0  0  0  0  0
    1.2098    1.1540    2.0118 H   0  0  0  0  0  0  0  0  0  0  0  0
    0.3268    3.1067    2.0689 C   0  0  0  0  0  0  0  0  0  0  0  0
   -0.6588    3.2485    2.5250 H   0  0  0  0  0  0  0  0  0  0  0  0
    1.0903    3.3424    2.8164 H   0  0  0  0  0  0  0  0  0  0  0  0
    0.4323    3.8074    1.2339 H   0  0  0  0  0  0  0  0  0  0  0  0
  1  2  1  0  0  0  0
  2  3  1  0  0  0  0
  2  4  1  0  0  0  0
  2  5  1  0  0  0  0
  5  6  2  0  0  0  0
  5  7  1  0  0  0  0
  7  8  1  0  0  0  0
  7  9  1  0  0  0  0
  9 10  1  0  0  0  0
  9 11  1  0  0  0  0
  9 21  1  0  0  0  0
 11 12  1  0  0  0  0
 11 13  1  0  0  0  0
 11 14  1  0  0  0  0
 14 15  1  0  0  0  0
 14 16  1  0  0  0  0
 14 17  1  0  0  0  0
 17 18  2  0  0  0  0
 17 19  1  0  0  0  0
 19 20  1  0  0  0  0
 21 22  2  0  0  0  0
 21 23  1  0  0  0  0
 23 24  1  0  0  0  0
 23 25  1  0  0  0  0
 25 26  1  0  0  0  0
 25 27  1  0  0  0  0
 25 28  1  0  0  0  0
M  END
$$$$

  -OEChem-02102214123D

 28 27  0     1  0  0  0  0  0999 V2000
   -3.2166   -3.7435    1.2564 H   0  0  0  0  0  0  0  0  0  0  0  0
   -3.1886   -2.7476    0.8055 C   0  0  0  0  0  0  0  0  0  0  0  0
   -3.8121   -2.0745    1.3990 H   0  0  0  0  0  0  0  0  0  0  0  0
   -3.5917   -2.8082   -0.2082 H   0  0  0  0  0  0  0  0  0  0  0  0
   -1.7629   -2.2320    0.7649 C   0  0  0  0  0  0  0  0  0  0  0  0
   -0.8528   -2.9115    1.2132 O   0  0  0  0  0  0  0  0  0  0  0  0
   -1.4982   -0.9907    0.2268 N   0  0  0  0  0  0  0  0  0  0  0  0
   -2.2944   -0.4153   -0.0455 H   0  0  0  0  0  0  0  0  0  0  0  0
   -0.1837   -0.3350    0.2554 C   0  0  1  0  0  0  0  0  0  0  0  0
    0.4648   -0.7977    1.0062 H   0  0  0  0  0  0  0  0  0  0  0  0
    0.4515   -0.4468   -1.1442 C   0  0  0  0  0  0  0  0  0  0  0  0
   -0.3128   -0.3963   -1.9277 H   0  0  0  0  0  0  0  0  0  0  0  0
    1.1104    0.4179   -1.2849 H   0  0  0  0  0  0  0  0  0  0  0  0
    1.2969   -1.7320   -1.2944 C   0  0  0  0  0  0  0  0  0  0  0  0
    1.7197   -2.0144   -0.3262 H   0  0  0  0  0  0  0  0  0  0  0  0
    0.6567   -2.5568   -1.6190 H   0  0  0  0  0  0  0  0  0  0  0  0
    2.4653   -1.5855   -2.2681 C   0  0  0  0  0  0  0  0  0  0  0  0
    2.3424   -0.8646   -3.2447 O   0  0  0  0  0  0  0  0  0  0  0  0
    3.5958   -2.2745   -1.9892 O   0  0  0  0  0  0  0  0  0  0  0  0
    4.2130   -2.0727   -2.7086 H   0  0  0  0  0  0  0  0  0  0  0  0
   -0.3468    1.1442    0.6621 C   0  0  0  0  0  0  0  0  0  0  0  0
   -1.2766    1.8021    0.2097 O   0  0  0  0  0  0  0  0  0  0  0  0
    0.4999    1.7165    1.5932 N   0  0  0  0  0  0  0  0  0  0  0  0
    1.2211    1.1275    1.9996 H   0  0  0  0  0  0  0  0  0  0  0  0
    0.3479    3.0835    2.0771 C   0  0  0  0  0  0  0  0  0  0  0  0
   -0.6043    3.1987    2.6055 H   0  0  0  0  0  0  0  0  0  0  0  0
    1.1594    3.3339    2.7670 H   0  0  0  0  0  0  0  0  0  0  0  0
    0.3752    3.7916    1.2421 H   0  0  0  0  0  0  0  0  0  0  0  0
  1  2  1  0  0  0  0
  2  3  1  0  0  0  0
  2  4  1  0  0  0  0
  2  5  1  0  0  0  0
  5  6  2  0  0  0  0
  5  7  1  0  0  0  0
  7  8  1  0  0  0  0
  7  9  1  0  0  0  0
  9 10  1  0  0  0  0
  9 11  1  0  0  0  0
  9 21  1  0  0  0  0
 11 12  1  0  0  0  0
 11 13  1  0  0  0  0
 11 14  1  0  0  0  0
 14 15  1  0  0  0  0
 14 16  1  0  0  0  0
 14 17  1  0  0  0  0
 17 18  2  0  0  0  0
 17 19  1  0  0  0  0
 19 20  1  0  0  0  0
 21 22  2  0  0  0  0
 21 23  1  0  0  0  0
 23 24  1  0  0  0  0
 23 25  1  0  0  0  0
 25 26  1  0  0  0  0
 25 27  1  0  0  0  0
 25 28  1  0  0  0  0
M  END
$$$$

  -OEChem-02102214123D

 28 27  0     1  0  0  0  0  0999 V2000
   -3.3174   -3.7080    1.2263 H   0  0  0  0  0  0  0  0  0  0  0  0
   -3.2565   -2.7134    0.7755 C   0  0  0  0  0  0  0  0  0  0  0  0
   -3.8638   -2.0221    1.3649 H   0  0  0  0  0  0  0  0  0  0  0  0
   -3.6550   -2.7624   -0.2407 H   0  0  0  0  0  0  0  0  0  0  0  0
   -1.8154   -2.2409    0.7442 C   0  0  0  0  0  0  0  0  0  0  0  0
   -0.9280   -2.9513    1.1897 O   0  0  0  0  0  0  0  0  0  0  0  0
   -1.5116   -1.0027    0.2198 N   0  0  0  0  0  0  0  0  0  0  0  0
   -2.2897   -0.4005   -0.0458 H   0  0  0  0  0  0  0  0  0  0  0  0
   -0.1769   -0.3893    0.2535 C   0  0  1  0  0  0  0  0  0  0  0  0
    0.4601   -0.8795    0.9968 H   0  0  0  0  0  0  0  0  0  0  0  0
    0.4525   -0.4999   -1.1487 C   0  0  0  0  0  0  0  0  0  0  0  0
   -0.3175   -0.4233   -1.9243 H   0  0  0  0  0  0  0  0  0  0  0  0
    1.1261    0.3533   -1.2901 H   0  0  0  0  0  0  0  0  0  0  0  0
    1.2580   -1.8061   -1.3243 C   0  0  0  0  0  0  0  0  0  0  0  0
    1.4545   -2.2776   -0.3576 H   0  0  0  0  0  0  0  0  0  0  0  0
    0.6725   -2.5178   -1.9140 H   0  0  0  0  0  0  0  0  0  0  0  0
    2.6044   -1.5590   -1.9943 C   0  0  0  0  0  0  0  0  0  0  0  0
    2.7825   -1.9838   -3.1225 O   0  0  0  0  0  0  0  0  0  0  0  0
    3.5394   -0.8707   -1.2967 O   0  0  0  0  0  0  0  0  0  0  0  0
    4.3155   -0.8247   -1.8762 H   0  0  0  0  0  0  0  0  0  0  0  0
   -0.2898    1.0894    0.6769 C   0  0  0  0  0  0  0  0  0  0  0  0
   -1.1898    1.7864    0.2226 O   0  0  0  0  0  0  0  0  0  0  0  0
    0.5772    1.6220    1.6124 N   0  0  0  0  0  0  0  0  0  0  0  0
    1.2947    1.0107    1.9926 H   0  0  0  0  0  0  0  0  0  0  0  0
    0.4925    2.9966    2.0904 C   0  0  0  0  0  0  0  0  0  0  0  0
   -0.4845    3.1841    2.5484 H   0  0  0  0  0  0  0  0  0  0  0  0
    1.2669    3.1849    2.8403 H   0  0  0  0  0  0  0  0  0  0  0  0
    0.6341    3.6995    1.2626 H   0  0  0  0  0  0  0  0  0  0  0  0
  1  2  1  0  0  0  0
  2  3  1  0  0  0  0
  2  4  1  0  0  0  0
  2  5  1  0  0  0  0
  5  6  2  0  0  0  0
  5  7  1  0  0  0  0
  7  8  1  0  0  0  0
  7  9  1  0  0  0  0
  9 10  1  0  0  0  0
  9 11  1  0  0  0  0
  9 21  1  0  0  0  0
 11 12  1  0  0  0  0
 11 13  1  0  0  0  0
 11 14  1  0  0  0  0
 14 15  1  0  0  0  0
 14 16  1  0  0  0  0
 14 17  1  0  0  0  0
 17 18  2  0  0  0  0
 17 19  1  0  0  0  0
 19 20  1  0  0  0  0
 21 22  2  0  0  0  0
 21 23  1  0  0  0  0
 23 24  1  0  0  0  0
 23 25  1  0  0  0  0
 25 26  1  0  0  0  0
 25 27  1  0  0  0  0
 25 28  1  0  0  0  0
M  END
$$$$

  -OEChem-02102214123D

 28 27  0     1  0  0  0  0  0999 V2000
   -3.2455   -3.7496    1.2693 H   0  0  0  0  0  0  0  0  0  0  0  0
   -3.2021   -2.7625    0.8004 C   0  0  0  0  0  0  0  0  0  0  0  0
   -3.8553   -2.0815    1.3514 H   0  0  0  0  0  0  0  0  0  0  0  0
   -3.5589   -2.8460   -0.2290 H   0  0  0  0  0  0  0  0  0  0  0  0
   -1.7785   -2.2392    0.8141 C   0  0  0  0  0  0  0  0  0  0  0  0
   -0.8908   -2.8963    1.3339 O   0  0  0  0  0  0  0  0  0  0  0  0
   -1.4942   -1.0171    0.2429 N   0  0  0  0  0  0  0  0  0  0  0  0
   -2.2819   -0.4569   -0.0801 H   0  0  0  0  0  0  0  0  0  0  0  0
   -0.1864   -0.3484    0.3014 C   0  0  1  0  0  0  0  0  0  0  0  0
    0.4338   -0.7768    1.0958 H   0  0  0  0  0  0  0  0  0  0  0  0
    0.5236   -0.4950   -1.0579 C   0  0  0  0  0  0  0  0  0  0  0  0
   -0.2189   -0.5106   -1.8631 H   0  0  0  0  0  0  0  0  0  0  0  0
    1.1523    0.3857   -1.2341 H   0  0  0  0  0  0  0  0  0  0  0  0
    1.3918   -1.7732   -1.1223 C   0  0  0  0  0  0  0  0  0  0  0  0
    1.3115   -2.3583   -0.2019 H   0  0  0  0  0  0  0  0  0  0  0  0
    1.0243   -2.4083   -1.9333 H   0  0  0  0  0  0  0  0  0  0  0  0
    2.8654   -1.4691   -1.3720 C   0  0  0  0  0  0  0  0  0  0  0  0
    3.4409   -0.7181   -0.6004 O   0  0  0  0  0  0  0  0  0  0  0  0
    3.4598   -2.0387   -2.4458 O   0  0  0  0  0  0  0  0  0  0  0  0
    4.3794   -1.7331   -2.4345 H   0  0  0  0  0  0  0  0  0  0  0  0
   -0.3699    1.1441    0.6442 C   0  0  0  0  0  0  0  0  0  0  0  0
   -1.2813    1.7795    0.1259 O   0  0  0  0  0  0  0  0  0  0  0  0
    0.4367    1.7549    1.5858 N   0  0  0  0  0  0  0  0  0  0  0  0
    1.1902    1.2036    1.9884 H   0  0  0  0  0  0  0  0  0  0  0  0
    0.3048    3.1564    1.9652 C   0  0  0  0  0  0  0  0  0  0  0  0
   -0.6752    3.3401    2.4177 H   0  0  0  0  0  0  0  0  0  0  0  0
    1.0771    3.4260    2.6919 H   0  0  0  0  0  0  0  0  0  0  0  0
    0.4149    3.8034    1.0885 H   0  0  0  0  0  0  0  0  0  0  0  0
  1  2  1  0  0  0  0
  2  3  1  0  0  0  0
  2  4  1  0  0  0  0
  2  5  1  0  0  0  0
  5  6  2  0  0  0  0
  5  7  1  0  0  0  0
  7  8  1  0  0  0  0
  7  9  1  0  0  0  0
  9 10  1  0  0  0  0
  9 11  1  0  0  0  0
  9 21  1  0  0  0  0
 11 12  1  0  0  0  0
 11 13  1  0  0  0  0
 11 14  1  0  0  0  0
 14 15  1  0  0  0  0
 14 16  1  0  0  0  0
 14 17  1  0  0  0  0
 17 18  2  0  0  0  0
 17 19  1  0  0  0  0
 19 20  1  0  0  0  0
 21 22  2  0  0  0  0
 21 23  1  0  0  0  0
 23 24  1  0  0  0  0
 23 25  1  0  0  0  0
 25 26  1  0  0  0  0
 25 27  1  0  0  0  0
 25 28  1  0  0  0  0
M  END
$$$$

  -OEChem-02102214123D

 28 27  0     1  0  0  0  0  0999 V2000
   -3.2711   -3.7332    1.2894 H   0  0  0  0  0  0  0  0  0  0  0  0
   -3.2221   -2.7537    0.8053 C   0  0  0  0  0  0  0  0  0  0  0  0
   -3.8664   -2.0591    1.3498 H   0  0  0  0  0  0  0  0  0  0  0  0
   -3.5855   -2.8492   -0.2207 H   0  0  0  0  0  0  0  0  0  0  0  0
   -1.7941   -2.2423    0.8041 C   0  0  0  0  0  0  0  0  0  0  0  0
   -0.9080   -2.9072    1.3163 O   0  0  0  0  0  0  0  0  0  0  0  0
   -1.5091   -1.0172    0.2393 N   0  0  0  0  0  0  0  0  0  0  0  0
   -2.2983   -0.4515   -0.0702 H   0  0  0  0  0  0  0  0  0  0  0  0
   -0.1993   -0.3503    0.2875 C   0  0  1  0  0  0  0  0  0  0  0  0
    0.4263   -0.7893    1.0726 H   0  0  0  0  0  0  0  0  0  0  0  0
    0.5102   -0.4831   -1.0732 C   0  0  0  0  0  0  0  0  0  0  0  0
   -0.2443   -0.5123   -1.8668 H   0  0  0  0  0  0  0  0  0  0  0  0
    1.1304    0.3998   -1.2677 H   0  0  0  0  0  0  0  0  0  0  0  0
    1.3785   -1.7588   -1.1400 C   0  0  0  0  0  0  0  0  0  0  0  0
    1.0897   -2.4821   -0.3727 H   0  0  0  0  0  0  0  0  0  0  0  0
    1.2139   -2.2393   -2.1085 H   0  0  0  0  0  0  0  0  0  0  0  0
    2.8700   -1.4595   -1.0143 C   0  0  0  0  0  0  0  0  0  0  0  0
    3.2382   -0.6854   -0.1437 O   0  0  0  0  0  0  0  0  0  0  0  0
    3.7131   -2.0655   -1.8818 O   0  0  0  0  0  0  0  0  0  0  0  0
    4.6027   -1.7627   -1.6453 H   0  0  0  0  0  0  0  0  0  0  0  0
   -0.3705    1.1398    0.6419 C   0  0  0  0  0  0  0  0  0  0  0  0
   -1.2887    1.7829    0.1452 O   0  0  0  0  0  0  0  0  0  0  0  0
    0.4532    1.7358    1.5778 N   0  0  0  0  0  0  0  0  0  0  0  0
    1.2236    1.1819    1.9445 H   0  0  0  0  0  0  0  0  0  0  0  0
    0.3342    3.1327    1.9759 C   0  0  0  0  0  0  0  0  0  0  0  0
   -0.6508    3.3231    2.4151 H   0  0  0  0  0  0  0  0  0  0  0  0
    1.0973    3.3803    2.7201 H   0  0  0  0  0  0  0  0  0  0  0  0
    0.4678    3.7907    1.1107 H   0  0  0  0  0  0  0  0  0  0  0  0
  1  2  1  0  0  0  0
  2  3  1  0  0  0  0
  2  4  1  0  0  0  0
  2  5  1  0  0  0  0
  5  6  2  0  0  0  0
  5  7  1  0  0  0  0
  7  8  1  0  0  0  0
  7  9  1  0  0  0  0
  9 10  1  0  0  0  0
  9 11  1  0  0  0  0
  9 21  1  0  0  0  0
 11 12  1  0  0  0  0
 11 13  1  0  0  0  0
 11 14  1  0  0  0  0
 14 15  1  0  0  0  0
 14 16  1  0  0  0  0
 14 17  1  0  0  0  0
 17 18  2  0  0  0  0
 17 19  1  0  0  0  0
 19 20  1  0  0  0  0
 21 22  2  0  0  0  0
 21 23  1  0  0  0  0
 23 24  1  0  0  0  0
 23 25  1  0  0  0  0
 25 26  1  0  0  0  0
 25 27  1  0  0  0  0
 25 28  1  0  0  0  0
M  END
$$$$

  -OEChem-02102214123D

 28 27  0     1  0  0  0  0  0999 V2000
   -3.2559   -3.7472    1.2816 H   0  0  0  0  0  0  0  0  0  0  0  0
   -3.2140   -2.7682    0.7960 C   0  0  0  0  0  0  0  0  0  0  0  0
   -3.8642   -2.0775    1.3383 H   0  0  0  0  0  0  0  0  0  0  0  0
   -3.5748   -2.8682   -0.2305 H   0  0  0  0  0  0  0  0  0  0  0  0
   -1.7900   -2.2456    0.7947 C   0  0  0  0  0  0  0  0  0  0  0  0
   -0.8950   -2.9128    1.2887 O   0  0  0  0  0  0  0  0  0  0  0  0
   -1.5175   -1.0124    0.2414 N   0  0  0  0  0  0  0  0  0  0  0  0
   -2.3132   -0.4468   -0.0508 H   0  0  0  0  0  0  0  0  0  0  0  0
   -0.2102   -0.3400    0.2810 C   0  0  1  0  0  0  0  0  0  0  0  0
    0.4216   -0.7883    1.0554 H   0  0  0  0  0  0  0  0  0  0  0  0
    0.4898   -0.4565   -1.0864 C   0  0  0  0  0  0  0  0  0  0  0  0
   -0.2728   -0.4869   -1.8720 H   0  0  0  0  0  0  0  0  0  0  0  0
    1.1074    0.4280   -1.2824 H   0  0  0  0  0  0  0  0  0  0  0  0
    1.3628   -1.7263   -1.1668 C   0  0  0  0  0  0  0  0  0  0  0  0
    0.9169   -2.5467   -0.5988 H   0  0  0  0  0  0  0  0  0  0  0  0
    1.4076   -2.0451   -2.2118 H   0  0  0  0  0  0  0  0  0  0  0  0
    2.7997   -1.5044   -0.6942 C   0  0  0  0  0  0  0  0  0  0  0  0
    3.0233   -0.6625    0.1637 O   0  0  0  0  0  0  0  0  0  0  0  0
    3.7635   -2.2676   -1.2594 O   0  0  0  0  0  0  0  0  0  0  0  0
    4.5942   -2.0085   -0.8333 H   0  0  0  0  0  0  0  0  0  0  0  0
   -0.3763    1.1455    0.6552 C   0  0  0  0  0  0  0  0  0  0  0  0
   -1.3062    1.7923    0.1854 O   0  0  0  0  0  0  0  0  0  0  0  0
    0.4614    1.7289    1.5863 N   0  0  0  0  0  0  0  0  0  0  0  0
    1.2544    1.1786    1.9088 H   0  0  0  0  0  0  0  0  0  0  0  0
    0.3527    3.1231    1.9974 C   0  0  0  0  0  0  0  0  0  0  0  0
   -0.6330    3.3184    2.4329 H   0  0  0  0  0  0  0  0  0  0  0  0
    1.1134    3.3568    2.7485 H   0  0  0  0  0  0  0  0  0  0  0  0
    0.4970    3.7878    1.1392 H   0  0  0  0  0  0  0  0  0  0  0  0
  1  2  1  0  0  0  0
  2  3  1  0  0  0  0
  2  4  1  0  0  0  0
  2  5  1  0  0  0  0
  5  6  2  0  0  0  0
  5  7  1  0  0  0  0
  7  8  1  0  0  0  0
  7  9  1  0  0  0  0
  9 10  1  0  0  0  0
  9 11  1  0  0  0  0
  9 21  1  0  0  0  0
 11 12  1  0  0  0  0
 11 13  1  0  0  0  0
 11 14  1  0  0  0  0
 14 15  1  0  0  0  0
 14 16  1  0  0  0  0
 14 17  1  0  0  0  0
 17 18  2  0  0  0  0
 17 19  1  0  0  0  0
 19 20  1  0  0  0  0
 21 22  2  0  0  0  0
 21 23  1  0  0  0  0
 23 24  1  0  0  0  0
 23 25  1  0  0  0  0
 25 26  1  0  0  0  0
 25 27  1  0  0  0  0
 25 28  1  0  0  0  0
M  END
$$$$

  -OEChem-02102214123D

 28 27  0     1  0  0  0  0  0999 V2000
   -3.2205   -3.7709    1.2859 H   0  0  0  0  0  0  0  0  0  0  0  0
   -3.1942   -2.7938    0.7954 C   0  0  0  0  0  0  0  0  0  0  0  0
   -3.8455   -2.1079    1.3427 H   0  0  0  0  0  0  0  0  0  0  0  0
   -3.5663   -2.9023   -0.2263 H   0  0  0  0  0  0  0  0  0  0  0  0
   -1.7755   -2.2572    0.7746 C   0  0  0  0  0  0  0  0  0  0  0  0
   -0.8633   -2.9255    1.2349 O   0  0  0  0  0  0  0  0  0  0  0  0
   -1.5243   -1.0129    0.2361 N   0  0  0  0  0  0  0  0  0  0  0  0
   -2.3300   -0.4503   -0.0337 H   0  0  0  0  0  0  0  0  0  0  0  0
   -0.2248   -0.3260    0.2776 C   0  0  1  0  0  0  0  0  0  0  0  0
    0.4046   -0.7789    1.0503 H   0  0  0  0  0  0  0  0  0  0  0  0
    0.4735   -0.4269   -1.0932 C   0  0  0  0  0  0  0  0  0  0  0  0
   -0.2863   -0.4499   -1.8815 H   0  0  0  0  0  0  0  0  0  0  0  0
    1.0893    0.4620   -1.2727 H   0  0  0  0  0  0  0  0  0  0  0  0
    1.3644   -1.6822   -1.1968 C   0  0  0  0  0  0  0  0  0  0  0  0
    0.8129   -2.5616   -0.8534 H   0  0  0  0  0  0  0  0  0  0  0  0
    1.6130   -1.8444   -2.2489 H   0  0  0  0  0  0  0  0  0  0  0  0
    2.6826   -1.5919   -0.4220 C   0  0  0  0  0  0  0  0  0  0  0  0
    2.8889   -0.6488    0.3293 O   0  0  0  0  0  0  0  0  0  0  0  0
    3.5767   -2.5854   -0.6300 O   0  0  0  0  0  0  0  0  0  0  0  0
    4.3360   -2.3866   -0.0621 H   0  0  0  0  0  0  0  0  0  0  0  0
   -0.3937    1.1530    0.6724 C   0  0  0  0  0  0  0  0  0  0  0  0
   -1.3289    1.8034    0.2186 O   0  0  0  0  0  0  0  0  0  0  0  0
    0.4513    1.7233    1.6049 N   0  0  0  0  0  0  0  0  0  0  0  0
    1.2559    1.1726    1.8978 H   0  0  0  0  0  0  0  0  0  0  0  0
    0.3637    3.1195    2.0129 C   0  0  0  0  0  0  0  0  0  0  0  0
   -0.6188    3.3311    2.4480 H   0  0  0  0  0  0  0  0  0  0  0  0
    1.1280    3.3430    2.7635 H   0  0  0  0  0  0  0  0  0  0  0  0
    0.5180    3.7799    1.1531 H   0  0  0  0  0  0  0  0  0  0  0  0
  1  2  1  0  0  0  0
  2  3  1  0  0  0  0
  2  4  1  0  0  0  0
  2  5  1  0  0  0  0
  5  6  2  0  0  0  0
  5  7  1  0  0  0  0
  7  8  1  0  0  0  0
  7  9  1  0  0  0  0
  9 10  1  0  0  0  0
  9 11  1  0  0  0  0
  9 21  1  0  0  0  0
 11 12  1  0  0  0  0
 11 13  1  0  0  0  0
 11 14  1  0  0  0  0
 14 15  1  0  0  0  0
 14 16  1  0  0  0  0
 14 17  1  0  0  0  0
 17 18  2  0  0  0  0
 17 19  1  0  0  0  0
 19 20  1  0  0  0  0
 21 22  2  0  0  0  0
 21 23  1  0  0  0  0
 23 24  1  0  0  0  0
 23 25  1  0  0  0  0
 25 26  1  0  0  0  0
 25 27  1  0  0  0  0
 25 28  1  0  0  0  0
M  END
$$$$

  -OEChem-02102214123D

 28 27  0     1  0  0  0  0  0999 V2000
   -3.1726   -3.7907    1.2828 H   0  0  0  0  0  0  0  0  0  0  0  0
   -3.1620   -2.8097    0.7992 C   0  0  0  0  0  0  0  0  0  0  0  0
   -3.8161   -2.1349    1.3569 H   0  0  0  0  0  0  0  0  0  0  0  0
   -3.5421   -2.9151   -0.2198 H   0  0  0  0  0  0  0  0  0  0  0  0
   -1.7499   -2.2568    0.7697 C   0  0  0  0  0  0  0  0  0  0  0  0
   -0.8255   -2.9182    1.2154 O   0  0  0  0  0  0  0  0  0  0  0  0
   -1.5145   -1.0086    0.2330 N   0  0  0  0  0  0  0  0  0  0  0  0
   -2.3268   -0.4497   -0.0245 H   0  0  0  0  0  0  0  0  0  0  0  0
   -0.2207   -0.3124    0.2796 C   0  0  1  0  0  0  0  0  0  0  0  0
    0.4014   -0.7592    1.0597 H   0  0  0  0  0  0  0  0  0  0  0  0
    0.4733   -0.4158   -1.0953 C   0  0  0  0  0  0  0  0  0  0  0  0
   -0.2828   -0.4227   -1.8874 H   0  0  0  0  0  0  0  0  0  0  0  0
    1.0946    0.4728   -1.2563 H   0  0  0  0  0  0  0  0  0  0  0  0
    1.3777   -1.6605   -1.2269 C   0  0  0  0  0  0  0  0  0  0  0  0
    0.7613   -2.5571   -1.1136 H   0  0  0  0  0  0  0  0  0  0  0  0
    1.8080   -1.6833   -2.2314 H   0  0  0  0  0  0  0  0  0  0  0  0
    2.5276   -1.7480   -0.2188 C   0  0  0  0  0  0  0  0  0  0  0  0
    2.8453   -0.7606    0.4298 O   0  0  0  0  0  0  0  0  0  0  0  0
    3.1651   -2.9371   -0.1242 O   0  0  0  0  0  0  0  0  0  0  0  0
    3.8421   -2.8270    0.5598 H   0  0  0  0  0  0  0  0  0  0  0  0
   -0.3991    1.1649    0.6777 C   0  0  0  0  0  0  0  0  0  0  0  0
   -1.3406    1.8093    0.2288 O   0  0  0  0  0  0  0  0  0  0  0  0
    0.4410    1.7373    1.6134 N   0  0  0  0  0  0  0  0  0  0  0  0
    1.2498    1.1915    1.9040 H   0  0  0  0  0  0  0  0  0  0  0  0
    0.3380    3.1284    2.0357 C   0  0  0  0  0  0  0  0  0  0  0  0
   -0.6508    3.3278    2.4621 H   0  0  0  0  0  0  0  0  0  0  0  0
    1.0920    3.3489    2.7973 H   0  0  0  0  0  0  0  0  0  0  0  0
    0.4970    3.7995    1.1853 H   0  0  0  0  0  0  0  0  0  0  0  0
  1  2  1  0  0  0  0
  2  3  1  0  0  0  0
  2  4  1  0  0  0  0
  2  5  1  0  0  0  0
  5  6  2  0  0  0  0
  5  7  1  0  0  0  0
  7  8  1  0  0  0  0
  7  9  1  0  0  0  0
  9 10  1  0  0  0  0
  9 11  1  0  0  0  0
  9 21  1  0  0  0  0
 11 12  1  0  0  0  0
 11 13  1  0  0  0  0
 11 14  1  0  0  0  0
 14 15  1  0  0  0  0
 14 16  1  0  0  0  0
 14 17  1  0  0  0  0
 17 18  2  0  0  0  0
 17 19  1  0  0  0  0
 19 20  1  0  0  0  0
 21 22  2  0  0  0  0
 21 23  1  0  0  0  0
 23 24  1  0  0  0  0
 23 25  1  0  0  0  0
 25 26  1  0  0  0  0
 25 27  1  0  0  0  0
 25 28  1  0  0  0  0
M  END
$$$$

  -OEChem-02102214123D

 28 27  0     1  0  0  0  0  0999 V2000
   -3.1531   -3.7929    1.2807 H   0  0  0  0  0  0  0  0  0  0  0  0
   -3.1417   -2.8107    0.8000 C   0  0  0  0  0  0  0  0  0  0  0  0
   -3.8090   -2.1417    1.3489 H   0  0  0  0  0  0  0  0  0  0  0  0
   -3.5045   -2.9161   -0.2253 H   0  0  0  0  0  0  0  0  0  0  0  0
   -1.7331   -2.2481    0.7948 C   0  0  0  0  0  0  0  0  0  0  0  0
   -0.8146   -2.8939    1.2741 O   0  0  0  0  0  0  0  0  0  0  0  0
   -1.4938   -1.0061    0.2456 N   0  0  0  0  0  0  0  0  0  0  0  0
   -2.3022   -0.4567   -0.0428 H   0  0  0  0  0  0  0  0  0  0  0  0
   -0.2026   -0.3073    0.3036 C   0  0  1  0  0  0  0  0  0  0  0  0
    0.4098   -0.7375    1.0987 H   0  0  0  0  0  0  0  0  0  0  0  0
    0.4896   -0.4223   -1.0739 C   0  0  0  0  0  0  0  0  0  0  0  0
   -0.2619   -0.4043   -1.8704 H   0  0  0  0  0  0  0  0  0  0  0  0
    1.1207    0.4624   -1.2143 H   0  0  0  0  0  0  0  0  0  0  0  0
    1.4037   -1.6583   -1.2454 C   0  0  0  0  0  0  0  0  0  0  0  0
    0.7608   -2.5333   -1.3792 H   0  0  0  0  0  0  0  0  0  0  0  0
    1.9985   -1.5462   -2.1556 H   0  0  0  0  0  0  0  0  0  0  0  0
    2.3501   -1.9687   -0.0842 C   0  0  0  0  0  0  0  0  0  0  0  0
    2.8127   -1.0444    0.5694 O   0  0  0  0  0  0  0  0  0  0  0  0
    2.6636   -3.2666    0.1311 O   0  0  0  0  0  0  0  0  0  0  0  0
    3.2325   -3.2815    0.9146 H   0  0  0  0  0  0  0  0  0  0  0  0
   -0.3981    1.1734    0.6811 C   0  0  0  0  0  0  0  0  0  0  0  0
   -1.3290    1.8093    0.1996 O   0  0  0  0  0  0  0  0  0  0  0  0
    0.4210    1.7638    1.6241 N   0  0  0  0  0  0  0  0  0  0  0  0
    1.2039    1.2141    1.9714 H   0  0  0  0  0  0  0  0  0  0  0  0
    0.2878    3.1527    2.0446 C   0  0  0  0  0  0  0  0  0  0  0  0
   -0.7104    3.3344    2.4570 H   0  0  0  0  0  0  0  0  0  0  0  0
    1.0271    3.3864    2.8167 H   0  0  0  0  0  0  0  0  0  0  0  0
    0.4469    3.8269    1.1966 H   0  0  0  0  0  0  0  0  0  0  0  0
  1  2  1  0  0  0  0
  2  3  1  0  0  0  0
  2  4  1  0  0  0  0
  2  5  1  0  0  0  0
  5  6  2  0  0  0  0
  5  7  1  0  0  0  0
  7  8  1  0  0  0  0
  7  9  1  0  0  0  0
  9 10  1  0  0  0  0
  9 11  1  0  0  0  0
  9 21  1  0  0  0  0
 11 12  1  0  0  0  0
 11 13  1  0  0  0  0
 11 14  1  0  0  0  0
 14 15  1  0  0  0  0
 14 16  1  0  0  0  0
 14 17  1  0  0  0  0
 17 18  2  0  0  0  0
 17 19  1  0  0  0  0
 19 20  1  0  0  0  0
 21 22  2  0  0  0  0
 21 23  1  0  0  0  0
 23 24  1  0  0  0  0
 23 25  1  0  0  0  0
 25 26  1  0  0  0  0
 25 27  1  0  0  0  0
 25 28  1  0  0  0  0
M  END
$$$$

  -OEChem-02102214123D

 28 27  0     1  0  0  0  0  0999 V2000
   -3.1613   -3.7959    1.2667 H   0  0  0  0  0  0  0  0  0  0  0  0
   -3.1370   -2.8133    0.7874 C   0  0  0  0  0  0  0  0  0  0  0  0
   -3.8348   -2.1510    1.3052 H   0  0  0  0  0  0  0  0  0  0  0  0
   -3.4521   -2.9216   -0.2532 H   0  0  0  0  0  0  0  0  0  0  0  0
   -1.7347   -2.2380    0.8460 C   0  0  0  0  0  0  0  0  0  0  0  0
   -0.8423   -2.8587    1.4015 O   0  0  0  0  0  0  0  0  0  0  0  0
   -1.4761   -1.0080    0.2788 N   0  0  0  0  0  0  0  0  0  0  0  0
   -2.2710   -0.4740   -0.0694 H   0  0  0  0  0  0  0  0  0  0  0  0
   -0.1840   -0.3121    0.3461 C   0  0  1  0  0  0  0  0  0  0  0  0
    0.4226   -0.7231    1.1547 H   0  0  0  0  0  0  0  0  0  0  0  0
    0.5128   -0.4342   -1.0313 C   0  0  0  0  0  0  0  0  0  0  0  0
   -0.2345   -0.3912   -1.8310 H   0  0  0  0  0  0  0  0  0  0  0  0
    1.1513    0.4481   -1.1522 H   0  0  0  0  0  0  0  0  0  0  0  0
    1.4341   -1.6615   -1.2446 C   0  0  0  0  0  0  0  0  0  0  0  0
    0.8144   -2.4693   -1.6446 H   0  0  0  0  0  0  0  0  0  0  0  0
    2.1859   -1.4250   -2.0021 H   0  0  0  0  0  0  0  0  0  0  0  0
    2.1439   -2.2233   -0.0138 C   0  0  0  0  0  0  0  0  0  0  0  0
    2.7285   -1.4481    0.7290 O   0  0  0  0  0  0  0  0  0  0  0  0
    2.1280   -3.5643    0.1625 O   0  0  0  0  0  0  0  0  0  0  0  0
    2.5517   -3.7289    1.0177 H   0  0  0  0  0  0  0  0  0  0  0  0
   -0.3964    1.1749    0.6922 C   0  0  0  0  0  0  0  0  0  0  0  0
   -1.3066    1.8018    0.1613 O   0  0  0  0  0  0  0  0  0  0  0  0
    0.3976    1.7918    1.6401 N   0  0  0  0  0  0  0  0  0  0  0  0
    1.1490    1.2429    2.0513 H   0  0  0  0  0  0  0  0  0  0  0  0
    0.2452    3.1884    2.0280 C   0  0  0  0  0  0  0  0  0  0  0  0
   -0.7573    3.3675    2.4309 H   0  0  0  0  0  0  0  0  0  0  0  0
    0.9777    3.4494    2.7979 H   0  0  0  0  0  0  0  0  0  0  0  0
    0.4008    3.8449    1.1654 H   0  0  0  0  0  0  0  0  0  0  0  0
  1  2  1  0  0  0  0
  2  3  1  0  0  0  0
  2  4  1  0  0  0  0
  2  5  1  0  0  0  0
  5  6  2  0  0  0  0
  5  7  1  0  0  0  0
  7  8  1  0  0  0  0
  7  9  1  0  0  0  0
  9 10  1  0  0  0  0
  9 11  1  0  0  0  0
  9 21  1  0  0  0  0
 11 12  1  0  0  0  0
 11 13  1  0  0  0  0
 11 14  1  0  0  0  0
 14 15  1  0  0  0  0
 14 16  1  0  0  0  0
 14 17  1  0  0  0  0
 17 18  2  0  0  0  0
 17 19  1  0  0  0  0
 19 20  1  0  0  0  0
 21 22  2  0  0  0  0
 21 23  1  0  0  0  0
 23 24  1  0  0  0  0
 23 25  1  0  0  0  0
 25 26  1  0  0  0  0
 25 27  1  0  0  0  0
 25 28  1  0  0  0  0
M  END
$$$$

  -OEChem-02102214123D

 28 27  0     1  0  0  0  0  0999 V2000
   -3.1810   -3.7925    1.2583 H   0  0  0  0  0  0  0  0  0  0  0  0
   -3.1379   -2.8112    0.7776 C   0  0  0  0  0  0  0  0  0  0  0  0
   -3.8607   -2.1494    1.2608 H   0  0  0  0  0  0  0  0  0  0  0  0
   -3.4041   -2.9241   -0.2760 H   0  0  0  0  0  0  0  0  0  0  0  0
   -1.7423   -2.2298    0.9000 C   0  0  0  0  0  0  0  0  0  0  0  0
   -0.8936   -2.8158    1.5530 O   0  0  0  0  0  0  0  0  0  0  0  0
   -1.4557   -1.0156    0.3120 N   0  0  0  0  0  0  0  0  0  0  0  0
   -2.2293   -0.5027   -0.1081 H   0  0  0  0  0  0  0  0  0  0  0  0
   -0.1589   -0.3275    0.3826 C   0  0  1  0  0  0  0  0  0  0  0  0
    0.4489   -0.7226    1.1989 H   0  0  0  0  0  0  0  0  0  0  0  0
    0.5463   -0.4493   -0.9935 C   0  0  0  0  0  0  0  0  0  0  0  0
   -0.2011   -0.3965   -1.7926 H   0  0  0  0  0  0  0  0  0  0  0  0
    1.1842    0.4343   -1.1094 H   0  0  0  0  0  0  0  0  0  0  0  0
    1.4699   -1.6718   -1.2351 C   0  0  0  0  0  0  0  0  0  0  0  0
    0.9362   -2.3631   -1.8936 H   0  0  0  0  0  0  0  0  0  0  0  0
    2.3664   -1.3486   -1.7713 H   0  0  0  0  0  0  0  0  0  0  0  0
    1.9056   -2.4746   -0.0129 C   0  0  0  0  0  0  0  0  0  0  0  0
    2.5733   -1.9141    0.8432 O   0  0  0  0  0  0  0  0  0  0  0  0
    1.5549   -3.7801    0.0383 O   0  0  0  0  0  0  0  0  0  0  0  0
    1.7923   -4.0849    0.9271 H   0  0  0  0  0  0  0  0  0  0  0  0
   -0.3853    1.1664    0.6932 C   0  0  0  0  0  0  0  0  0  0  0  0
   -1.2749    1.7830    0.1170 O   0  0  0  0  0  0  0  0  0  0  0  0
    0.3874    1.8104    1.6411 N   0  0  0  0  0  0  0  0  0  0  0  0
    1.0988    1.2623    2.1187 H   0  0  0  0  0  0  0  0  0  0  0  0
    0.2095    3.2113    2.0032 C   0  0  0  0  0  0  0  0  0  0  0  0
   -0.7976    3.3804    2.3990 H   0  0  0  0  0  0  0  0  0  0  0  0
    0.9349    3.4991    2.7703 H   0  0  0  0  0  0  0  0  0  0  0  0
    0.3570    3.8545    1.1292 H   0  0  0  0  0  0  0  0  0  0  0  0
  1  2  1  0  0  0  0
  2  3  1  0  0  0  0
  2  4  1  0  0  0  0
  2  5  1  0  0  0  0
  5  6  2  0  0  0  0
  5  7  1  0  0  0  0
  7  8  1  0  0  0  0
  7  9  1  0  0  0  0
  9 10  1  0  0  0  0
  9 11  1  0  0  0  0
  9 21  1  0  0  0  0
 11 12  1  0  0  0  0
 11 13  1  0  0  0  0
 11 14  1  0  0  0  0
 14 15  1  0  0  0  0
 14 16  1  0  0  0  0
 14 17  1  0  0  0  0
 17 18  2  0  0  0  0
 17 19  1  0  0  0  0
 19 20  1  0  0  0  0
 21 22  2  0  0  0  0
 21 23  1  0  0  0  0
 23 24  1  0  0  0  0
 23 25  1  0  0  0  0
 25 26  1  0  0  0  0
 25 27  1  0  0  0  0
 25 28  1  0  0  0  0
M  END
$$$$

  -OEChem-02102214123D

 28 27  0     1  0  0  0  0  0999 V2000
   -3.2015   -3.7968    1.2543 H   0  0  0  0  0  0  0  0  0  0  0  0
   -3.1394   -2.8211    0.7642 C   0  0  0  0  0  0  0  0  0  0  0  0
   -3.8881   -2.1573    1.2034 H   0  0  0  0  0  0  0  0  0  0  0  0
   -3.3537   -2.9484   -0.2996 H   0  0  0  0  0  0  0  0  0  0  0  0
   -1.7540   -2.2312    0.9464 C   0  0  0  0  0  0  0  0  0  0  0  0
   -0.9480   -2.7904    1.6733 O   0  0  0  0  0  0  0  0  0  0  0  0
   -1.4429   -1.0297    0.3443 N   0  0  0  0  0  0  0  0  0  0  0  0
   -2.1964   -0.5410   -0.1366 H   0  0  0  0  0  0  0  0  0  0  0  0
   -0.1413   -0.3464    0.4056 C   0  0  1  0  0  0  0  0  0  0  0  0
    0.4754   -0.7355    1.2198 H   0  0  0  0  0  0  0  0  0  0  0  0
    0.5698   -0.4644   -0.9704 C   0  0  0  0  0  0  0  0  0  0  0  0
   -0.1885   -0.4282   -1.7602 H   0  0  0  0  0  0  0  0  0  0  0  0
    1.1934    0.4268   -1.1048 H   0  0  0  0  0  0  0  0  0  0  0  0
    1.4969   -1.6823   -1.2232 C   0  0  0  0  0  0  0  0  0  0  0  0
    1.1221   -2.2246   -2.0960 H   0  0  0  0  0  0  0  0  0  0  0  0
    2.4972   -1.3211   -1.4792 H   0  0  0  0  0  0  0  0  0  0  0  0
    1.6422   -2.6850   -0.0856 C   0  0  0  0  0  0  0  0  0  0  0  0
    2.3419   -2.3803    0.8676 O   0  0  0  0  0  0  0  0  0  0  0  0
    0.9948   -3.8669   -0.2027 O   0  0  0  0  0  0  0  0  0  0  0  0
    1.0515   -4.2798    0.6740 H   0  0  0  0  0  0  0  0  0  0  0  0
   -0.3721    1.1522    0.6915 C   0  0  0  0  0  0  0  0  0  0  0  0
   -1.2494    1.7630    0.0907 O   0  0  0  0  0  0  0  0  0  0  0  0
    0.3966    1.8121    1.6316 N   0  0  0  0  0  0  0  0  0  0  0  0
    1.0774    1.2625    2.1499 H   0  0  0  0  0  0  0  0  0  0  0  0
    0.1998    3.2123    1.9859 C   0  0  0  0  0  0  0  0  0  0  0  0
   -0.8079    3.3686    2.3850 H   0  0  0  0  0  0  0  0  0  0  0  0
    0.9245    3.5151    2.7478 H   0  0  0  0  0  0  0  0  0  0  0  0
    0.3341    3.8527    1.1078 H   0  0  0  0  0  0  0  0  0  0  0  0
  1  2  1  0  0  0  0
  2  3  1  0  0  0  0
  2  4  1  0  0  0  0
  2  5  1  0  0  0  0
  5  6  2  0  0  0  0
  5  7  1  0  0  0  0
  7  8  1  0  0  0  0
  7  9  1  0  0  0  0
  9 10  1  0  0  0  0
  9 11  1  0  0  0  0
  9 21  1  0  0  0  0
 11 12  1  0  0  0  0
 11 13  1  0  0  0  0
 11 14  1  0  0  0  0
 14 15  1  0  0  0  0
 14 16  1  0  0  0  0
 14 17  1  0  0  0  0
 17 18  2  0  0  0  0
 17 19  1  0  0  0  0
 19 20  1  0  0  0  0
 21 22  2  0  0  0  0
 21 23  1  0  0  0  0
 23 24  1  0  0  0  0
 23 25  1  0  0  0  0
 25 26  1  0  0  0  0
 25 27  1  0  0  0  0
 25 28  1  0  0  0  0
M  END
$$$$

  -OEChem-02102214123D

 28 27  0     1  0  0  0  0  0999 V2000
   -3.1284   -3.8932    1.2679 H   0  0  0  0  0  0  0  0  0  0  0  0
   -3.0831   -2.9172    0.7768 C   0  0  0  0  0  0  0  0  0  0  0  0
   -3.8517   -2.2701    1.2061 H   0  0  0  0  0  0  0  0  0  0  0  0
   -3.2816   -3.0511   -0.2893 H   0  0  0  0  0  0  0  0  0  0  0  0
   -1.7141   -2.2952    0.9739 C   0  0  0  0  0  0  0  0  0  0  0  0
   -0.9004   -2.8438    1.6995 O   0  0  0  0  0  0  0  0  0  0  0  0
   -1.4310   -1.0817    0.3830 N   0  0  0  0  0  0  0  0  0  0  0  0
   -2.1992   -0.6171   -0.0985 H   0  0  0  0  0  0  0  0  0  0  0  0
   -0.1475   -0.3592    0.4176 C   0  0  1  0  0  0  0  0  0  0  0  0
    0.5069   -0.7490    1.2037 H   0  0  0  0  0  0  0  0  0  0  0  0
    0.5425   -0.4356   -0.9732 C   0  0  0  0  0  0  0  0  0  0  0  0
   -0.2425   -0.4428   -1.7376 H   0  0  0  0  0  0  0  0  0  0  0  0
    1.1179    0.4834   -1.1331 H   0  0  0  0  0  0  0  0  0  0  0  0
    1.5051   -1.6164   -1.2535 C   0  0  0  0  0  0  0  0  0  0  0  0
    1.3229   -1.9890   -2.2654 H   0  0  0  0  0  0  0  0  0  0  0  0
    2.5321   -1.2396   -1.2324 H   0  0  0  0  0  0  0  0  0  0  0  0
    1.4347   -2.7926   -0.2910 C   0  0  0  0  0  0  0  0  0  0  0  0
    2.1490   -2.7611    0.6979 O   0  0  0  0  0  0  0  0  0  0  0  0
    0.5974   -3.8126   -0.5873 O   0  0  0  0  0  0  0  0  0  0  0  0
    0.5804   -4.3584    0.2164 H   0  0  0  0  0  0  0  0  0  0  0  0
   -0.4157    1.1290    0.7228 C   0  0  0  0  0  0  0  0  0  0  0  0
   -1.3194    1.7200    0.1418 O   0  0  0  0  0  0  0  0  0  0  0  0
    0.3562    1.8040    1.6493 N   0  0  0  0  0  0  0  0  0  0  0  0
    1.0549    1.2681    2.1575 H   0  0  0  0  0  0  0  0  0  0  0  0
    0.1283    3.1964    2.0155 C   0  0  0  0  0  0  0  0  0  0  0  0
   -0.8780    3.3244    2.4283 H   0  0  0  0  0  0  0  0  0  0  0  0
    0.8547    3.5135    2.7700 H   0  0  0  0  0  0  0  0  0  0  0  0
    0.2346    3.8450    1.1395 H   0  0  0  0  0  0  0  0  0  0  0  0
  1  2  1  0  0  0  0
  2  3  1  0  0  0  0
  2  4  1  0  0  0  0
  2  5  1  0  0  0  0
  5  6  2  0  0  0  0
  5  7  1  0  0  0  0
  7  8  1  0  0  0  0
  7  9  1  0  0  0  0
  9 10  1  0  0  0  0
  9 11  1  0  0  0  0
  9 21  1  0  0  0  0
 11 12  1  0  0  0  0
 11 13  1  0  0  0  0
 11 14  1  0  0  0  0
 14 15  1  0  0  0  0
 14 16  1  0  0  0  0
 14 17  1  0  0  0  0
 17 18  2  0  0  0  0
 17 19  1  0  0  0  0
 19 20  1  0  0  0  0
 21 22  2  0  0  0  0
 21 23  1  0  0  0  0
 23 24  1  0  0  0  0
 23 25  1  0  0  0  0
 25 26  1  0  0  0  0
 25 27  1  0  0  0  0
 25 28  1  0  0  0  0
M  END
$$$$

  -OEChem-02102214123D

 28 27  0     1  0  0  0  0  0999 V2000
   -3.1225   -3.9589    1.2452 H   0  0  0  0  0  0  0  0  0  0  0  0
   -3.0797   -3.0025    0.7168 C   0  0  0  0  0  0  0  0  0  0  0  0
   -3.8751   -2.3550    1.0936 H   0  0  0  0  0  0  0  0  0  0  0  0
   -3.2386   -3.1829   -0.3492 H   0  0  0  0  0  0  0  0  0  0  0  0
   -1.7295   -2.3463    0.9314 C   0  0  0  0  0  0  0  0  0  0  0  0
   -0.8935   -2.8911    1.6377 O   0  0  0  0  0  0  0  0  0  0  0  0
   -1.4817   -1.1040    0.3828 N   0  0  0  0  0  0  0  0  0  0  0  0
   -2.2564   -0.6519   -0.0993 H   0  0  0  0  0  0  0  0  0  0  0  0
   -0.1915   -0.3921    0.3774 C   0  0  1  0  0  0  0  0  0  0  0  0
    0.5099   -0.8302    1.0949 H   0  0  0  0  0  0  0  0  0  0  0  0
    0.4216   -0.3831   -1.0517 C   0  0  0  0  0  0  0  0  0  0  0  0
   -0.4052   -0.3516   -1.7699 H   0  0  0  0  0  0  0  0  0  0  0  0
    0.9943    0.5402   -1.1959 H   0  0  0  0  0  0  0  0  0  0  0  0
    1.3528   -1.5567   -1.4353 C   0  0  0  0  0  0  0  0  0  0  0  0
    1.3311   -1.7005   -2.5193 H   0  0  0  0  0  0  0  0  0  0  0  0
    2.3780   -1.2891   -1.1650 H   0  0  0  0  0  0  0  0  0  0  0  0
    1.0388   -2.8775   -0.7523 C   0  0  0  0  0  0  0  0  0  0  0  0
    0.1889   -3.5981   -1.2507 O   0  0  0  0  0  0  0  0  0  0  0  0
    1.6941   -3.1576    0.3977 O   0  0  0  0  0  0  0  0  0  0  0  0
    1.1943   -3.8835    0.8085 H   0  0  0  0  0  0  0  0  0  0  0  0
   -0.4320    1.0802    0.7742 C   0  0  0  0  0  0  0  0  0  0  0  0
   -1.3514    1.7111    0.2645 O   0  0  0  0  0  0  0  0  0  0  0  0
    0.3970    1.7048    1.6871 N   0  0  0  0  0  0  0  0  0  0  0  0
    1.1041    1.1359    2.1445 H   0  0  0  0  0  0  0  0  0  0  0  0
    0.2010    3.0794    2.1318 C   0  0  0  0  0  0  0  0  0  0  0  0
   -0.7673    3.1857    2.6323 H   0  0  0  0  0  0  0  0  0  0  0  0
    0.9882    3.3657    2.8359 H   0  0  0  0  0  0  0  0  0  0  0  0
    0.2344    3.7668    1.2798 H   0  0  0  0  0  0  0  0  0  0  0  0
  1  2  1  0  0  0  0
  2  3  1  0  0  0  0
  2  4  1  0  0  0  0
  2  5  1  0  0  0  0
  5  6  2  0  0  0  0
  5  7  1  0  0  0  0
  7  8  1  0  0  0  0
  7  9  1  0  0  0  0
  9 10  1  0  0  0  0
  9 11  1  0  0  0  0
  9 21  1  0  0  0  0
 11 12  1  0  0  0  0
 11 13  1  0  0  0  0
 11 14  1  0  0  0  0
 14 15  1  0  0  0  0
 14 16  1  0  0  0  0
 14 17  1  0  0  0  0
 17 18  2  0  0  0  0
 17 19  1  0  0  0  0
 19 20  1  0  0  0  0
 21 22  2  0  0  0  0
 21 23  1  0  0  0  0
 23 24  1  0  0  0  0
 23 25  1  0  0  0  0
 25 26  1  0  0  0  0
 25 27  1  0  0  0  0
 25 28  1  0  0  0  0
M  END
$$$$

  -OEChem-02102214123D

 28 27  0     1  0  0  0  0  0999 V2000
   -3.2642   -3.8033    1.2912 H   0  0  0  0  0  0  0  0  0  0  0  0
   -3.1876   -2.8474    0.7659 C   0  0  0  0  0  0  0  0  0  0  0  0
   -3.9357   -2.1614    1.1702 H   0  0  0  0  0  0  0  0  0  0  0  0
   -3.3883   -3.0127   -0.2957 H   0  0  0  0  0  0  0  0  0  0  0  0
   -1.7991   -2.2637    0.9411 C   0  0  0  0  0  0  0  0  0  0  0  0
   -0.9668   -2.8606    1.6074 O   0  0  0  0  0  0  0  0  0  0  0  0
   -1.5010   -1.0374    0.3836 N   0  0  0  0  0  0  0  0  0  0  0  0
   -2.2612   -0.5504   -0.0877 H   0  0  0  0  0  0  0  0  0  0  0  0
   -0.1797   -0.3873    0.3557 C   0  0  1  0  0  0  0  0  0  0  0  0
    0.5070   -0.8607    1.0656 H   0  0  0  0  0  0  0  0  0  0  0  0
    0.4207   -0.4282   -1.0760 C   0  0  0  0  0  0  0  0  0  0  0  0
   -0.4031   -0.3663   -1.7961 H   0  0  0  0  0  0  0  0  0  0  0  0
    1.0431    0.4599   -1.2333 H   0  0  0  0  0  0  0  0  0  0  0  0
    1.2895   -1.6566   -1.4228 C   0  0  0  0  0  0  0  0  0  0  0  0
    1.4666   -1.6823   -2.5017 H   0  0  0  0  0  0  0  0  0  0  0  0
    2.2623   -1.5433   -0.9362 H   0  0  0  0  0  0  0  0  0  0  0  0
    0.7116   -2.9971   -0.9950 C   0  0  0  0  0  0  0  0  0  0  0  0
   -0.3064   -3.3969   -1.5385 O   0  0  0  0  0  0  0  0  0  0  0  0
    1.3574   -3.6633   -0.0105 O   0  0  0  0  0  0  0  0  0  0  0  0
    0.7511   -4.3653    0.2750 H   0  0  0  0  0  0  0  0  0  0  0  0
   -0.3398    1.0971    0.7480 C   0  0  0  0  0  0  0  0  0  0  0  0
   -1.2357    1.7700    0.2506 O   0  0  0  0  0  0  0  0  0  0  0  0
    0.5330    1.6851    1.6446 N   0  0  0  0  0  0  0  0  0  0  0  0
    1.2225    1.0864    2.0903 H   0  0  0  0  0  0  0  0  0  0  0  0
    0.4106    3.0696    2.0856 C   0  0  0  0  0  0  0  0  0  0  0  0
   -0.5623    3.2364    2.5602 H   0  0  0  0  0  0  0  0  0  0  0  0
    1.1943    3.3067    2.8116 H   0  0  0  0  0  0  0  0  0  0  0  0
    0.5094    3.7530    1.2355 H   0  0  0  0  0  0  0  0  0  0  0  0
  1  2  1  0  0  0  0
  2  3  1  0  0  0  0
  2  4  1  0  0  0  0
  2  5  1  0  0  0  0
  5  6  2  0  0  0  0
  5  7  1  0  0  0  0
  7  8  1  0  0  0  0
  7  9  1  0  0  0  0
  9 10  1  0  0  0  0
  9 11  1  0  0  0  0
  9 21  1  0  0  0  0
 11 12  1  0  0  0  0
 11 13  1  0  0  0  0
 11 14  1  0  0  0  0
 14 15  1  0  0  0  0
 14 16  1  0  0  0  0
 14 17  1  0  0  0  0
 17 18  2  0  0  0  0
 17 19  1  0  0  0  0
 19 20  1  0  0  0  0
 21 22  2  0  0  0  0
 21 23  1  0  0  0  0
 23 24  1  0  0  0  0
 23 25  1  0  0  0  0
 25 26  1  0  0  0  0
 25 27  1  0  0  0  0
 25 28  1  0  0  0  0
M  END
$$$$

  -OEChem-02102214123D

 28 27  0     1  0  0  0  0  0999 V2000
   -3.2339   -3.7971    1.2980 H   0  0  0  0  0  0  0  0  0  0  0  0
   -3.1793   -2.8308    0.7893 C   0  0  0  0  0  0  0  0  0  0  0  0
   -3.9095   -2.1537    1.2388 H   0  0  0  0  0  0  0  0  0  0  0  0
   -3.4254   -2.9740   -0.2659 H   0  0  0  0  0  0  0  0  0  0  0  0
   -1.7846   -2.2491    0.9171 C   0  0  0  0  0  0  0  0  0  0  0  0
   -0.9232   -2.8554    1.5354 O   0  0  0  0  0  0  0  0  0  0  0  0
   -1.5029   -1.0224    0.3536 N   0  0  0  0  0  0  0  0  0  0  0  0
   -2.2728   -0.5307   -0.0963 H   0  0  0  0  0  0  0  0  0  0  0  0
   -0.1864   -0.3667    0.3284 C   0  0  1  0  0  0  0  0  0  0  0  0
    0.4944   -0.8313    1.0491 H   0  0  0  0  0  0  0  0  0  0  0  0
    0.4252   -0.4368   -1.0931 C   0  0  0  0  0  0  0  0  0  0  0  0
   -0.3796   -0.3814   -1.8350 H   0  0  0  0  0  0  0  0  0  0  0  0
    1.0616    0.4409   -1.2515 H   0  0  0  0  0  0  0  0  0  0  0  0
    1.2939   -1.6826   -1.3658 C   0  0  0  0  0  0  0  0  0  0  0  0
    1.6972   -1.6220   -2.3801 H   0  0  0  0  0  0  0  0  0  0  0  0
    2.1424   -1.6785   -0.6758 H   0  0  0  0  0  0  0  0  0  0  0  0
    0.5735   -3.0196   -1.2276 C   0  0  0  0  0  0  0  0  0  0  0  0
   -0.5004   -3.1770   -1.7880 O   0  0  0  0  0  0  0  0  0  0  0  0
    1.1878   -3.9771   -0.4956 O   0  0  0  0  0  0  0  0  0  0  0  0
    0.5494   -4.7015   -0.4147 H   0  0  0  0  0  0  0  0  0  0  0  0
   -0.3460    1.1193    0.7128 C   0  0  0  0  0  0  0  0  0  0  0  0
   -1.2426    1.7900    0.2141 O   0  0  0  0  0  0  0  0  0  0  0  0
    0.5259    1.7096    1.6089 N   0  0  0  0  0  0  0  0  0  0  0  0
    1.2143    1.1120    2.0576 H   0  0  0  0  0  0  0  0  0  0  0  0
    0.4061    3.0964    2.0426 C   0  0  0  0  0  0  0  0  0  0  0  0
   -0.5676    3.2686    2.5134 H   0  0  0  0  0  0  0  0  0  0  0  0
    1.1881    3.3348    2.7699 H   0  0  0  0  0  0  0  0  0  0  0  0
    0.5099    3.7746    1.1890 H   0  0  0  0  0  0  0  0  0  0  0  0
  1  2  1  0  0  0  0
  2  3  1  0  0  0  0
  2  4  1  0  0  0  0
  2  5  1  0  0  0  0
  5  6  2  0  0  0  0
  5  7  1  0  0  0  0
  7  8  1  0  0  0  0
  7  9  1  0  0  0  0
  9 10  1  0  0  0  0
  9 11  1  0  0  0  0
  9 21  1  0  0  0  0
 11 12  1  0  0  0  0
 11 13  1  0  0  0  0
 11 14  1  0  0  0  0
 14 15  1  0  0  0  0
 14 16  1  0  0  0  0
 14 17  1  0  0  0  0
 17 18  2  0  0  0  0
 17 19  1  0  0  0  0
 19 20  1  0  0  0  0
 21 22  2  0  0  0  0
 21 23  1  0  0  0  0
 23 24  1  0  0  0  0
 23 25  1  0  0  0  0
 25 26  1  0  0  0  0
 25 27  1  0  0  0  0
 25 28  1  0  0  0  0
M  END
$$$$

  -OEChem-02102214123D

 28 27  0     1  0  0  0  0  0999 V2000
   -3.1795   -3.8124    1.2660 H   0  0  0  0  0  0  0  0  0  0  0  0
   -3.1448   -2.8413    0.7648 C   0  0  0  0  0  0  0  0  0  0  0  0
   -3.8730   -2.1756    1.2341 H   0  0  0  0  0  0  0  0  0  0  0  0
   -3.4093   -2.9774   -0.2868 H   0  0  0  0  0  0  0  0  0  0  0  0
   -1.7540   -2.2465    0.8711 C   0  0  0  0  0  0  0  0  0  0  0  0
   -0.8664   -2.8598    1.4441 O   0  0  0  0  0  0  0  0  0  0  0  0
   -1.4957   -1.0101    0.3187 N   0  0  0  0  0  0  0  0  0  0  0  0
   -2.2754   -0.5166   -0.1120 H   0  0  0  0  0  0  0  0  0  0  0  0
   -0.1874   -0.3416    0.3086 C   0  0  1  0  0  0  0  0  0  0  0  0
    0.4899   -0.8012    1.0357 H   0  0  0  0  0  0  0  0  0  0  0  0
    0.4221   -0.4299   -1.1085 C   0  0  0  0  0  0  0  0  0  0  0  0
   -0.3667   -0.3683   -1.8669 H   0  0  0  0  0  0  0  0  0  0  0  0
    1.0731    0.4377   -1.2623 H   0  0  0  0  0  0  0  0  0  0  0  0
    1.2883   -1.6905   -1.3192 C   0  0  0  0  0  0  0  0  0  0  0  0
    1.8939   -1.5550   -2.2190 H   0  0  0  0  0  0  0  0  0  0  0  0
    1.9767   -1.8053   -0.4771 H   0  0  0  0  0  0  0  0  0  0  0  0
    0.5057   -2.9929   -1.4923 C   0  0  0  0  0  0  0  0  0  0  0  0
   -0.5896   -2.9773   -2.0331 O   0  0  0  0  0  0  0  0  0  0  0  0
    1.1046   -4.1232   -1.0528 O   0  0  0  0  0  0  0  0  0  0  0  0
    0.4581   -4.8330   -1.1802 H   0  0  0  0  0  0  0  0  0  0  0  0
   -0.3532    1.1405    0.7046 C   0  0  0  0  0  0  0  0  0  0  0  0
   -1.2532    1.8110    0.2124 O   0  0  0  0  0  0  0  0  0  0  0  0
    0.5125    1.7260    1.6098 N   0  0  0  0  0  0  0  0  0  0  0  0
    1.2060    1.1286    2.0505 H   0  0  0  0  0  0  0  0  0  0  0  0
    0.3877    3.1090    2.0541 C   0  0  0  0  0  0  0  0  0  0  0  0
   -0.5873    3.2750    2.5246 H   0  0  0  0  0  0  0  0  0  0  0  0
    1.1680    3.3437    2.7845 H   0  0  0  0  0  0  0  0  0  0  0  0
    0.4910    3.7943    1.2062 H   0  0  0  0  0  0  0  0  0  0  0  0
  1  2  1  0  0  0  0
  2  3  1  0  0  0  0
  2  4  1  0  0  0  0
  2  5  1  0  0  0  0
  5  6  2  0  0  0  0
  5  7  1  0  0  0  0
  7  8  1  0  0  0  0
  7  9  1  0  0  0  0
  9 10  1  0  0  0  0
  9 11  1  0  0  0  0
  9 21  1  0  0  0  0
 11 12  1  0  0  0  0
 11 13  1  0  0  0  0
 11 14  1  0  0  0  0
 14 15  1  0  0  0  0
 14 16  1  0  0  0  0
 14 17  1  0  0  0  0
 17 18  2  0  0  0  0
 17 19  1  0  0  0  0
 19 20  1  0  0  0  0
 21 22  2  0  0  0  0
 21 23  1  0  0  0  0
 23 24  1  0  0  0  0
 23 25  1  0  0  0  0
 25 26  1  0  0  0  0
 25 27  1  0  0  0  0
 25 28  1  0  0  0  0
M  END
$$$$

  -OEChem-02102214123D

 28 27  0     1  0  0  0  0  0999 V2000
   -3.1556   -3.8124    1.2303 H   0  0  0  0  0  0  0  0  0  0  0  0
   -3.1285   -2.8375    0.7361 C   0  0  0  0  0  0  0  0  0  0  0  0
   -3.8625   -2.1809    1.2091 H   0  0  0  0  0  0  0  0  0  0  0  0
   -3.3907   -2.9684   -0.3168 H   0  0  0  0  0  0  0  0  0  0  0  0
   -1.7424   -2.2327    0.8477 C   0  0  0  0  0  0  0  0  0  0  0  0
   -0.8480   -2.8457    1.4113 O   0  0  0  0  0  0  0  0  0  0  0  0
   -1.4902   -0.9940    0.2981 N   0  0  0  0  0  0  0  0  0  0  0  0
   -2.2677   -0.5028   -0.1391 H   0  0  0  0  0  0  0  0  0  0  0  0
   -0.1848   -0.3229    0.3090 C   0  0  1  0  0  0  0  0  0  0  0  0
    0.4829   -0.7768    1.0479 H   0  0  0  0  0  0  0  0  0  0  0  0
    0.4224   -0.4375   -1.1038 C   0  0  0  0  0  0  0  0  0  0  0  0
   -0.3545   -0.3624   -1.8729 H   0  0  0  0  0  0  0  0  0  0  0  0
    1.0896    0.4177   -1.2561 H   0  0  0  0  0  0  0  0  0  0  0  0
    1.2786   -1.7146   -1.2699 C   0  0  0  0  0  0  0  0  0  0  0  0
    2.0593   -1.5114   -2.0078 H   0  0  0  0  0  0  0  0  0  0  0  0
    1.7801   -1.9629   -0.3305 H   0  0  0  0  0  0  0  0  0  0  0  0
    0.5185   -2.9506   -1.7617 C   0  0  0  0  0  0  0  0  0  0  0  0
   -0.6234   -2.8538   -2.1848 O   0  0  0  0  0  0  0  0  0  0  0  0
    1.1950   -4.1210   -1.7167 O   0  0  0  0  0  0  0  0  0  0  0  0
    0.5737   -4.7965   -2.0270 H   0  0  0  0  0  0  0  0  0  0  0  0
   -0.3523    1.1591    0.7026 C   0  0  0  0  0  0  0  0  0  0  0  0
   -1.2435    1.8308    0.1963 O   0  0  0  0  0  0  0  0  0  0  0  0
    0.5003    1.7449    1.6200 N   0  0  0  0  0  0  0  0  0  0  0  0
    1.1883    1.1483    2.0707 H   0  0  0  0  0  0  0  0  0  0  0  0
    0.3724    3.1304    2.0561 C   0  0  0  0  0  0  0  0  0  0  0  0
   -0.6052    3.2980    2.5206 H   0  0  0  0  0  0  0  0  0  0  0  0
    1.1491    3.3699    2.7888 H   0  0  0  0  0  0  0  0  0  0  0  0
    0.4792    3.8114    1.2050 H   0  0  0  0  0  0  0  0  0  0  0  0
  1  2  1  0  0  0  0
  2  3  1  0  0  0  0
  2  4  1  0  0  0  0
  2  5  1  0  0  0  0
  5  6  2  0  0  0  0
  5  7  1  0  0  0  0
  7  8  1  0  0  0  0
  7  9  1  0  0  0  0
  9 10  1  0  0  0  0
  9 11  1  0  0  0  0
  9 21  1  0  0  0  0
 11 12  1  0  0  0  0
 11 13  1  0  0  0  0
 11 14  1  0  0  0  0
 14 15  1  0  0  0  0
 14 16  1  0  0  0  0
 14 17  1  0  0  0  0
 17 18  2  0  0  0  0
 17 19  1  0  0  0  0
 19 20  1  0  0  0  0
 21 22  2  0  0  0  0
 21 23  1  0  0  0  0
 23 24  1  0  0  0  0
 23 25  1  0  0  0  0
 25 26  1  0  0  0  0
 25 27  1  0  0  0  0
 25 28  1  0  0  0  0
M  END
$$$$

  -OEChem-02102214123D

 28 27  0     1  0  0  0  0  0999 V2000
   -3.1719   -3.7964    1.2115 H   0  0  0  0  0  0  0  0  0  0  0  0
   -3.1370   -2.8223    0.7163 C   0  0  0  0  0  0  0  0  0  0  0  0
   -3.8857   -2.1680    1.1690 H   0  0  0  0  0  0  0  0  0  0  0  0
   -3.3713   -2.9570   -0.3427 H   0  0  0  0  0  0  0  0  0  0  0  0
   -1.7577   -2.2097    0.8627 C   0  0  0  0  0  0  0  0  0  0  0  0
   -0.8828   -2.8037    1.4758 O   0  0  0  0  0  0  0  0  0  0  0  0
   -1.4922   -0.9807    0.2970 N   0  0  0  0  0  0  0  0  0  0  0  0
   -2.2537   -0.5051   -0.1830 H   0  0  0  0  0  0  0  0  0  0  0  0
   -0.1827   -0.3186    0.3220 C   0  0  1  0  0  0  0  0  0  0  0  0
    0.4700   -0.7622    1.0800 H   0  0  0  0  0  0  0  0  0  0  0  0
    0.4370   -0.4688   -1.0811 C   0  0  0  0  0  0  0  0  0  0  0  0
   -0.3317   -0.3989   -1.8589 H   0  0  0  0  0  0  0  0  0  0  0  0
    1.1144    0.3765   -1.2449 H   0  0  0  0  0  0  0  0  0  0  0  0
    1.2809   -1.7607   -1.2077 C   0  0  0  0  0  0  0  0  0  0  0  0
    2.2132   -1.5103   -1.7213 H   0  0  0  0  0  0  0  0  0  0  0  0
    1.5514   -2.1538   -0.2240 H   0  0  0  0  0  0  0  0  0  0  0  0
    0.6152   -2.8841   -2.0082 C   0  0  0  0  0  0  0  0  0  0  0  0
   -0.5921   -2.8842   -2.1931 O   0  0  0  0  0  0  0  0  0  0  0  0
    1.4367   -3.8486   -2.4823 O   0  0  0  0  0  0  0  0  0  0  0  0
    0.8625   -4.4819   -2.9386 H   0  0  0  0  0  0  0  0  0  0  0  0
   -0.3422    1.1711    0.6889 C   0  0  0  0  0  0  0  0  0  0  0  0
   -1.2148    1.8451    0.1539 O   0  0  0  0  0  0  0  0  0  0  0  0
    0.5004    1.7619    1.6123 N   0  0  0  0  0  0  0  0  0  0  0  0
    1.1666    1.1624    2.0909 H   0  0  0  0  0  0  0  0  0  0  0  0
    0.3659    3.1495    2.0397 C   0  0  0  0  0  0  0  0  0  0  0  0
   -0.6103    3.3130    2.5085 H   0  0  0  0  0  0  0  0  0  0  0  0
    1.1449    3.3994    2.7663 H   0  0  0  0  0  0  0  0  0  0  0  0
    0.4631    3.8258    1.1838 H   0  0  0  0  0  0  0  0  0  0  0  0
  1  2  1  0  0  0  0
  2  3  1  0  0  0  0
  2  4  1  0  0  0  0
  2  5  1  0  0  0  0
  5  6  2  0  0  0  0
  5  7  1  0  0  0  0
  7  8  1  0  0  0  0
  7  9  1  0  0  0  0
  9 10  1  0  0  0  0
  9 11  1  0  0  0  0
  9 21  1  0  0  0  0
 11 12  1  0  0  0  0
 11 13  1  0  0  0  0
 11 14  1  0  0  0  0
 14 15  1  0  0  0  0
 14 16  1  0  0  0  0
 14 17  1  0  0  0  0
 17 18  2  0  0  0  0
 17 19  1  0  0  0  0
 19 20  1  0  0  0  0
 21 22  2  0  0  0  0
 21 23  1  0  0  0  0
 23 24  1  0  0  0  0
 23 25  1  0  0  0  0
 25 26  1  0  0  0  0
 25 27  1  0  0  0  0
 25 28  1  0  0  0  0
M  END
$$$$

  -OEChem-02102214123D

 28 27  0     1  0  0  0  0  0999 V2000
   -3.2249   -3.7632    1.2224 H   0  0  0  0  0  0  0  0  0  0  0  0
   -3.1688   -2.7969    0.7137 C   0  0  0  0  0  0  0  0  0  0  0  0
   -3.9143   -2.1258    1.1467 H   0  0  0  0  0  0  0  0  0  0  0  0
   -3.3910   -2.9440   -0.3461 H   0  0  0  0  0  0  0  0  0  0  0  0
   -1.7824   -2.2027    0.8705 C   0  0  0  0  0  0  0  0  0  0  0  0
   -0.9301   -2.7943    1.5162 O   0  0  0  0  0  0  0  0  0  0  0  0
   -1.4893   -0.9866    0.2904 N   0  0  0  0  0  0  0  0  0  0  0  0
   -2.2393   -0.5008   -0.1975 H   0  0  0  0  0  0  0  0  0  0  0  0
   -0.1726   -0.3381    0.3339 C   0  0  1  0  0  0  0  0  0  0  0  0
    0.4628   -0.7767    1.1098 H   0  0  0  0  0  0  0  0  0  0  0  0
    0.4715   -0.5119   -1.0550 C   0  0  0  0  0  0  0  0  0  0  0  0
   -0.2959   -0.4613   -1.8359 H   0  0  0  0  0  0  0  0  0  0  0  0
    1.1513    0.3275   -1.2379 H   0  0  0  0  0  0  0  0  0  0  0  0
    1.3018   -1.8142   -1.1489 C   0  0  0  0  0  0  0  0  0  0  0  0
    2.3423   -1.5579   -1.3680 H   0  0  0  0  0  0  0  0  0  0  0  0
    1.2953   -2.3579   -0.2000 H   0  0  0  0  0  0  0  0  0  0  0  0
    0.7990   -2.7663   -2.2334 C   0  0  0  0  0  0  0  0  0  0  0  0
   -0.3975   -2.9920   -2.3252 O   0  0  0  0  0  0  0  0  0  0  0  0
    1.7257   -3.3168   -3.0514 O   0  0  0  0  0  0  0  0  0  0  0  0
    1.2334   -3.8901   -3.6582 H   0  0  0  0  0  0  0  0  0  0  0  0
   -0.3267    1.1591    0.6720 C   0  0  0  0  0  0  0  0  0  0  0  0
   -1.1825    1.8294    0.1061 O   0  0  0  0  0  0  0  0  0  0  0  0
    0.4988    1.7600    1.6045 N   0  0  0  0  0  0  0  0  0  0  0  0
    1.1484    1.1639    2.1095 H   0  0  0  0  0  0  0  0  0  0  0  0
    0.3642    3.1555    2.0056 C   0  0  0  0  0  0  0  0  0  0  0  0
   -0.6067    3.3247    2.4831 H   0  0  0  0  0  0  0  0  0  0  0  0
    1.1517    3.4231    2.7167 H   0  0  0  0  0  0  0  0  0  0  0  0
    0.4482    3.8148    1.1351 H   0  0  0  0  0  0  0  0  0  0  0  0
  1  2  1  0  0  0  0
  2  3  1  0  0  0  0
  2  4  1  0  0  0  0
  2  5  1  0  0  0  0
  5  6  2  0  0  0  0
  5  7  1  0  0  0  0
  7  8  1  0  0  0  0
  7  9  1  0  0  0  0
  9 10  1  0  0  0  0
  9 11  1  0  0  0  0
  9 21  1  0  0  0  0
 11 12  1  0  0  0  0
 11 13  1  0  0  0  0
 11 14  1  0  0  0  0
 14 15  1  0  0  0  0
 14 16  1  0  0  0  0
 14 17  1  0  0  0  0
 17 18  2  0  0  0  0
 17 19  1  0  0  0  0
 19 20  1  0  0  0  0
 21 22  2  0  0  0  0
 21 23  1  0  0  0  0
 23 24  1  0  0  0  0
 23 25  1  0  0  0  0
 25 26  1  0  0  0  0
 25 27  1  0  0  0  0
 25 28  1  0  0  0  0
M  END
$$$$

  -OEChem-02102214123D

 28 27  0     1  0  0  0  0  0999 V2000
   -3.2804   -3.7336    1.2396 H   0  0  0  0  0  0  0  0  0  0  0  0
   -3.2095   -2.7711    0.7255 C   0  0  0  0  0  0  0  0  0  0  0  0
   -3.9378   -2.0832    1.1614 H   0  0  0  0  0  0  0  0  0  0  0  0
   -3.4441   -2.9192   -0.3315 H   0  0  0  0  0  0  0  0  0  0  0  0
   -1.8102   -2.2041    0.8685 C   0  0  0  0  0  0  0  0  0  0  0  0
   -0.9639   -2.8125    1.5053 O   0  0  0  0  0  0  0  0  0  0  0  0
   -1.4997   -0.9931    0.2871 N   0  0  0  0  0  0  0  0  0  0  0  0
   -2.2493   -0.4866   -0.1805 H   0  0  0  0  0  0  0  0  0  0  0  0
   -0.1763   -0.3562    0.3302 C   0  0  1  0  0  0  0  0  0  0  0  0
    0.4544   -0.8021    1.1063 H   0  0  0  0  0  0  0  0  0  0  0  0
    0.4793   -0.5291   -1.0532 C   0  0  0  0  0  0  0  0  0  0  0  0
   -0.2975   -0.4960   -1.8261 H   0  0  0  0  0  0  0  0  0  0  0  0
    1.1541    0.3106   -1.2534 H   0  0  0  0  0  0  0  0  0  0  0  0
    1.3009   -1.8345   -1.1389 C   0  0  0  0  0  0  0  0  0  0  0  0
    2.3662   -1.6045   -1.0516 H   0  0  0  0  0  0  0  0  0  0  0  0
    1.0446   -2.5078   -0.3157 H   0  0  0  0  0  0  0  0  0  0  0  0
    1.0479   -2.5958   -2.4367 C   0  0  0  0  0  0  0  0  0  0  0  0
   -0.0879   -2.9586   -2.6963 O   0  0  0  0  0  0  0  0  0  0  0  0
    2.1075   -2.8204   -3.2476 O   0  0  0  0  0  0  0  0  0  0  0  0
    1.7589   -3.3101   -4.0079 H   0  0  0  0  0  0  0  0  0  0  0  0
   -0.3191    1.1427    0.6646 C   0  0  0  0  0  0  0  0  0  0  0  0
   -1.1766    1.8151    0.1038 O   0  0  0  0  0  0  0  0  0  0  0  0
    0.5099    1.7397    1.5962 N   0  0  0  0  0  0  0  0  0  0  0  0
    1.1624    1.1427    2.0965 H   0  0  0  0  0  0  0  0  0  0  0  0
    0.3906    3.1390    1.9881 C   0  0  0  0  0  0  0  0  0  0  0  0
   -0.5843    3.3247    2.4511 H   0  0  0  0  0  0  0  0  0  0  0  0
    1.1721    3.3988    2.7087 H   0  0  0  0  0  0  0  0  0  0  0  0
    0.4961    3.7924    1.1154 H   0  0  0  0  0  0  0  0  0  0  0  0
  1  2  1  0  0  0  0
  2  3  1  0  0  0  0
  2  4  1  0  0  0  0
  2  5  1  0  0  0  0
  5  6  2  0  0  0  0
  5  7  1  0  0  0  0
  7  8  1  0  0  0  0
  7  9  1  0  0  0  0
  9 10  1  0  0  0  0
  9 11  1  0  0  0  0
  9 21  1  0  0  0  0
 11 12  1  0  0  0  0
 11 13  1  0  0  0  0
 11 14  1  0  0  0  0
 14 15  1  0  0  0  0
 14 16  1  0  0  0  0
 14 17  1  0  0  0  0
 17 18  2  0  0  0  0
 17 19  1  0  0  0  0
 19 20  1  0  0  0  0
 21 22  2  0  0  0  0
 21 23  1  0  0  0  0
 23 24  1  0  0  0  0
 23 25  1  0  0  0  0
 25 26  1  0  0  0  0
 25 27  1  0  0  0  0
 25 28  1  0  0  0  0
M  END
$$$$

  -OEChem-02102214123D

 28 27  0     1  0  0  0  0  0999 V2000
   -3.1388   -3.8116    1.2223 H   0  0  0  0  0  0  0  0  0  0  0  0
   -3.1167   -2.8190    0.7639 C   0  0  0  0  0  0  0  0  0  0  0  0
   -3.7993   -2.1629    1.3095 H   0  0  0  0  0  0  0  0  0  0  0  0
   -3.4526   -2.9023   -0.2725 H   0  0  0  0  0  0  0  0  0  0  0  0
   -1.7101   -2.2539    0.8078 C   0  0  0  0  0  0  0  0  0  0  0  0
   -0.8138   -2.8835    1.3468 O   0  0  0  0  0  0  0  0  0  0  0  0
   -1.4527   -1.0179    0.2543 N   0  0  0  0  0  0  0  0  0  0  0  0
   -2.2478   -0.4825   -0.0921 H   0  0  0  0  0  0  0  0  0  0  0  0
   -0.1523   -0.3326    0.2878 C   0  0  1  0  0  0  0  0  0  0  0  0
    0.5057   -0.7755    1.0432 H   0  0  0  0  0  0  0  0  0  0  0  0
    0.5052   -0.4298   -1.1026 C   0  0  0  0  0  0  0  0  0  0  0  0
   -0.2833   -0.4271   -1.8644 H   0  0  0  0  0  0  0  0  0  0  0  0
    1.1331    0.4481   -1.2920 H   0  0  0  0  0  0  0  0  0  0  0  0
    1.3829   -1.6932   -1.2348 C   0  0  0  0  0  0  0  0  0  0  0  0
    2.3936   -1.4878   -0.8729 H   0  0  0  0  0  0  0  0  0  0  0  0
    0.9679   -2.4925   -0.6143 H   0  0  0  0  0  0  0  0  0  0  0  0
    1.4569   -2.2289   -2.6636 C   0  0  0  0  0  0  0  0  0  0  0  0
    1.4528   -1.4408   -3.5951 O   0  0  0  0  0  0  0  0  0  0  0  0
    1.5411   -3.5696   -2.8235 O   0  0  0  0  0  0  0  0  0  0  0  0
    1.5859   -3.7204   -3.7796 H   0  0  0  0  0  0  0  0  0  0  0  0
   -0.3551    1.1489    0.6662 C   0  0  0  0  0  0  0  0  0  0  0  0
   -1.2808    1.7831    0.1729 O   0  0  0  0  0  0  0  0  0  0  0  0
    0.4645    1.7582    1.5981 N   0  0  0  0  0  0  0  0  0  0  0  0
    1.1751    1.1867    2.0462 H   0  0  0  0  0  0  0  0  0  0  0  0
    0.2769    3.1330    2.0461 C   0  0  0  0  0  0  0  0  0  0  0  0
   -0.6794    3.2379    2.5692 H   0  0  0  0  0  0  0  0  0  0  0  0
    1.0804    3.4222    2.7303 H   0  0  0  0  0  0  0  0  0  0  0  0
    0.2883    3.8192    1.1926 H   0  0  0  0  0  0  0  0  0  0  0  0
  1  2  1  0  0  0  0
  2  3  1  0  0  0  0
  2  4  1  0  0  0  0
  2  5  1  0  0  0  0
  5  6  2  0  0  0  0
  5  7  1  0  0  0  0
  7  8  1  0  0  0  0
  7  9  1  0  0  0  0
  9 10  1  0  0  0  0
  9 11  1  0  0  0  0
  9 21  1  0  0  0  0
 11 12  1  0  0  0  0
 11 13  1  0  0  0  0
 11 14  1  0  0  0  0
 14 15  1  0  0  0  0
 14 16  1  0  0  0  0
 14 17  1  0  0  0  0
 17 18  2  0  0  0  0
 17 19  1  0  0  0  0
 19 20  1  0  0  0  0
 21 22  2  0  0  0  0
 21 23  1  0  0  0  0
 23 24  1  0  0  0  0
 23 25  1  0  0  0  0
 25 26  1  0  0  0  0
 25 27  1  0  0  0  0
 25 28  1  0  0  0  0
M  END
$$$$

  -OEChem-02102214123D

 28 27  0     1  0  0  0  0  0999 V2000
   -3.1749   -3.7797    1.2430 H   0  0  0  0  0  0  0  0  0  0  0  0
   -3.1477   -2.7882    0.7824 C   0  0  0  0  0  0  0  0  0  0  0  0
   -3.8108   -2.1221    1.3397 H   0  0  0  0  0  0  0  0  0  0  0  0
   -3.5043   -2.8684   -0.2473 H   0  0  0  0  0  0  0  0  0  0  0  0
   -1.7325   -2.2426    0.7986 C   0  0  0  0  0  0  0  0  0  0  0  0
   -0.8321   -2.8891    1.3103 O   0  0  0  0  0  0  0  0  0  0  0  0
   -1.4708   -1.0059    0.2486 N   0  0  0  0  0  0  0  0  0  0  0  0
   -2.2668   -0.4568   -0.0735 H   0  0  0  0  0  0  0  0  0  0  0  0
   -0.1653   -0.3300    0.2768 C   0  0  1  0  0  0  0  0  0  0  0  0
    0.4909   -0.7817    1.0284 H   0  0  0  0  0  0  0  0  0  0  0  0
    0.4888   -0.4295   -1.1142 C   0  0  0  0  0  0  0  0  0  0  0  0
   -0.2951   -0.4228   -1.8802 H   0  0  0  0  0  0  0  0  0  0  0  0
    1.1252    0.4438   -1.2968 H   0  0  0  0  0  0  0  0  0  0  0  0
    1.3555   -1.6991   -1.2419 C   0  0  0  0  0  0  0  0  0  0  0  0
    2.2687   -1.5873   -0.6516 H   0  0  0  0  0  0  0  0  0  0  0  0
    0.8040   -2.5531   -0.8389 H   0  0  0  0  0  0  0  0  0  0  0  0
    1.7351   -2.0446   -2.6821 C   0  0  0  0  0  0  0  0  0  0  0  0
    1.6259   -1.2011   -3.5573 O   0  0  0  0  0  0  0  0  0  0  0  0
    2.2011   -3.2938   -2.9089 O   0  0  0  0  0  0  0  0  0  0  0  0
    2.3927   -3.3363   -3.8578 H   0  0  0  0  0  0  0  0  0  0  0  0
   -0.3558    1.1514    0.6630 C   0  0  0  0  0  0  0  0  0  0  0  0
   -1.2890    1.7897    0.1897 O   0  0  0  0  0  0  0  0  0  0  0  0
    0.4736    1.7516    1.5923 N   0  0  0  0  0  0  0  0  0  0  0  0
    1.1989    1.1801    2.0162 H   0  0  0  0  0  0  0  0  0  0  0  0
    0.2905    3.1214    2.0580 C   0  0  0  0  0  0  0  0  0  0  0  0
   -0.6712    3.2257    2.5714 H   0  0  0  0  0  0  0  0  0  0  0  0
    1.0875    3.3941    2.7566 H   0  0  0  0  0  0  0  0  0  0  0  0
    0.3172    3.8206    1.2153 H   0  0  0  0  0  0  0  0  0  0  0  0
  1  2  1  0  0  0  0
  2  3  1  0  0  0  0
  2  4  1  0  0  0  0
  2  5  1  0  0  0  0
  5  6  2  0  0  0  0
  5  7  1  0  0  0  0
  7  8  1  0  0  0  0
  7  9  1  0  0  0  0
  9 10  1  0  0  0  0
  9 11  1  0  0  0  0
  9 21  1  0  0  0  0
 11 12  1  0  0  0  0
 11 13  1  0  0  0  0
 11 14  1  0  0  0  0
 14 15  1  0  0  0  0
 14 16  1  0  0  0  0
 14 17  1  0  0  0  0
 17 18  2  0  0  0  0
 17 19  1  0  0  0  0
 19 20  1  0  0  0  0
 21 22  2  0  0  0  0
 21 23  1  0  0  0  0
 23 24  1  0  0  0  0
 23 25  1  0  0  0  0
 25 26  1  0  0  0  0
 25 27  1  0  0  0  0
 25 28  1  0  0  0  0
M  END
$$$$

  -OEChem-02102214123D

 28 27  0     1  0  0  0  0  0999 V2000
   -3.1927   -3.7749    1.2483 H   0  0  0  0  0  0  0  0  0  0  0  0
   -3.1656   -2.7839    0.7868 C   0  0  0  0  0  0  0  0  0  0  0  0
   -3.8267   -2.1166    1.3450 H   0  0  0  0  0  0  0  0  0  0  0  0
   -3.5245   -2.8650   -0.2420 H   0  0  0  0  0  0  0  0  0  0  0  0
   -1.7498   -2.2404    0.7988 C   0  0  0  0  0  0  0  0  0  0  0  0
   -0.8472   -2.8930    1.2989 O   0  0  0  0  0  0  0  0  0  0  0  0
   -1.4860   -1.0048    0.2467 N   0  0  0  0  0  0  0  0  0  0  0  0
   -2.2817   -0.4497   -0.0656 H   0  0  0  0  0  0  0  0  0  0  0  0
   -0.1787   -0.3324    0.2776 C   0  0  1  0  0  0  0  0  0  0  0  0
    0.4720   -0.7887    1.0310 H   0  0  0  0  0  0  0  0  0  0  0  0
    0.4892   -0.4364   -1.1045 C   0  0  0  0  0  0  0  0  0  0  0  0
   -0.2336   -0.1659   -1.8830 H   0  0  0  0  0  0  0  0  0  0  0  0
    1.3150    0.2821   -1.1597 H   0  0  0  0  0  0  0  0  0  0  0  0
    1.0451   -1.8517   -1.3667 C   0  0  0  0  0  0  0  0  0  0  0  0
    1.7695   -2.1119   -0.5902 H   0  0  0  0  0  0  0  0  0  0  0  0
    0.2297   -2.5778   -1.3135 H   0  0  0  0  0  0  0  0  0  0  0  0
    1.7213   -2.0109   -2.7286 C   0  0  0  0  0  0  0  0  0  0  0  0
    1.9173   -1.0315   -3.4299 O   0  0  0  0  0  0  0  0  0  0  0  0
    2.0829   -3.2641   -3.0863 O   0  0  0  0  0  0  0  0  0  0  0  0
    2.4934   -3.1825   -3.9603 H   0  0  0  0  0  0  0  0  0  0  0  0
   -0.3580    1.1506    0.6606 C   0  0  0  0  0  0  0  0  0  0  0  0
   -1.2879    1.7942    0.1881 O   0  0  0  0  0  0  0  0  0  0  0  0
    0.4756    1.7441    1.5900 N   0  0  0  0  0  0  0  0  0  0  0  0
    1.1970    1.1673    2.0134 H   0  0  0  0  0  0  0  0  0  0  0  0
    0.3094    3.1181    2.0488 C   0  0  0  0  0  0  0  0  0  0  0  0
   -0.6575    3.2403    2.5484 H   0  0  0  0  0  0  0  0  0  0  0  0
    1.1012    3.3794    2.7574 H   0  0  0  0  0  0  0  0  0  0  0  0
    0.3599    3.8132    1.2039 H   0  0  0  0  0  0  0  0  0  0  0  0
  1  2  1  0  0  0  0
  2  3  1  0  0  0  0
  2  4  1  0  0  0  0
  2  5  1  0  0  0  0
  5  6  2  0  0  0  0
  5  7  1  0  0  0  0
  7  8  1  0  0  0  0
  7  9  1  0  0  0  0
  9 10  1  0  0  0  0
  9 11  1  0  0  0  0
  9 21  1  0  0  0  0
 11 12  1  0  0  0  0
 11 13  1  0  0  0  0
 11 14  1  0  0  0  0
 14 15  1  0  0  0  0
 14 16  1  0  0  0  0
 14 17  1  0  0  0  0
 17 18  2  0  0  0  0
 17 19  1  0  0  0  0
 19 20  1  0  0  0  0
 21 22  2  0  0  0  0
 21 23  1  0  0  0  0
 23 24  1  0  0  0  0
 23 25  1  0  0  0  0
 25 26  1  0  0  0  0
 25 27  1  0  0  0  0
 25 28  1  0  0  0  0
M  END
$$$$

  -OEChem-02102214123D

 28 27  0     1  0  0  0  0  0999 V2000
   -3.2072   -3.7557    1.2753 H   0  0  0  0  0  0  0  0  0  0  0  0
   -3.1748   -2.7755    0.7914 C   0  0  0  0  0  0  0  0  0  0  0  0
   -3.8289   -2.0912    1.3374 H   0  0  0  0  0  0  0  0  0  0  0  0
   -3.5389   -2.8766   -0.2339 H   0  0  0  0  0  0  0  0  0  0  0  0
   -1.7551   -2.2419    0.7855 C   0  0  0  0  0  0  0  0  0  0  0  0
   -0.8498   -2.9041    1.2677 O   0  0  0  0  0  0  0  0  0  0  0  0
   -1.4917   -1.0025    0.2422 N   0  0  0  0  0  0  0  0  0  0  0  0
   -2.2881   -0.4424   -0.0592 H   0  0  0  0  0  0  0  0  0  0  0  0
   -0.1830   -0.3337    0.2758 C   0  0  1  0  0  0  0  0  0  0  0  0
    0.4693   -0.7964    1.0239 H   0  0  0  0  0  0  0  0  0  0  0  0
    0.4707   -0.4333   -1.1126 C   0  0  0  0  0  0  0  0  0  0  0  0
   -0.2433   -0.1443   -1.8920 H   0  0  0  0  0  0  0  0  0  0  0  0
    1.3030    0.2787   -1.1510 H   0  0  0  0  0  0  0  0  0  0  0  0
    1.0172   -1.8507   -1.3883 C   0  0  0  0  0  0  0  0  0  0  0  0
    1.5517   -2.2127   -0.5055 H   0  0  0  0  0  0  0  0  0  0  0  0
    0.1839   -2.5348   -1.5698 H   0  0  0  0  0  0  0  0  0  0  0  0
    1.9809   -1.9296   -2.5731 C   0  0  0  0  0  0  0  0  0  0  0  0
    2.1206   -0.9670   -3.3101 O   0  0  0  0  0  0  0  0  0  0  0  0
    2.6422   -3.0968   -2.7444 O   0  0  0  0  0  0  0  0  0  0  0  0
    3.1944   -2.9756   -3.5315 H   0  0  0  0  0  0  0  0  0  0  0  0
   -0.3559    1.1471    0.6706 C   0  0  0  0  0  0  0  0  0  0  0  0
   -1.2814    1.7989    0.2006 O   0  0  0  0  0  0  0  0  0  0  0  0
    0.4811    1.7321    1.6025 N   0  0  0  0  0  0  0  0  0  0  0  0
    1.2061    1.1530    2.0164 H   0  0  0  0  0  0  0  0  0  0  0  0
    0.3306    3.1095    2.0565 C   0  0  0  0  0  0  0  0  0  0  0  0
   -0.6538    3.2578    2.5134 H   0  0  0  0  0  0  0  0  0  0  0  0
    1.0962    3.3495    2.8007 H   0  0  0  0  0  0  0  0  0  0  0  0
    0.4367    3.8029    1.2156 H   0  0  0  0  0  0  0  0  0  0  0  0
  1  2  1  0  0  0  0
  2  3  1  0  0  0  0
  2  4  1  0  0  0  0
  2  5  1  0  0  0  0
  5  6  2  0  0  0  0
  5  7  1  0  0  0  0
  7  8  1  0  0  0  0
  7  9  1  0  0  0  0
  9 10  1  0  0  0  0
  9 11  1  0  0  0  0
  9 21  1  0  0  0  0
 11 12  1  0  0  0  0
 11 13  1  0  0  0  0
 11 14  1  0  0  0  0
 14 15  1  0  0  0  0
 14 16  1  0  0  0  0
 14 17  1  0  0  0  0
 17 18  2  0  0  0  0
 17 19  1  0  0  0  0
 19 20  1  0  0  0  0
 21 22  2  0  0  0  0
 21 23  1  0  0  0  0
 23 24  1  0  0  0  0
 23 25  1  0  0  0  0
 25 26  1  0  0  0  0
 25 27  1  0  0  0  0
 25 28  1  0  0  0  0
M  END
$$$$

  -OEChem-02102214123D

 28 27  0     1  0  0  0  0  0999 V2000
   -3.2126   -3.7524    1.2530 H   0  0  0  0  0  0  0  0  0  0  0  0
   -3.1819   -2.7612    0.7922 C   0  0  0  0  0  0  0  0  0  0  0  0
   -3.8221   -2.0862    1.3652 H   0  0  0  0  0  0  0  0  0  0  0  0
   -3.5633   -2.8355   -0.2290 H   0  0  0  0  0  0  0  0  0  0  0  0
   -1.7591   -2.2360    0.7771 C   0  0  0  0  0  0  0  0  0  0  0  0
   -0.8556   -2.9021    1.2571 O   0  0  0  0  0  0  0  0  0  0  0  0
   -1.4929   -0.9966    0.2353 N   0  0  0  0  0  0  0  0  0  0  0  0
   -2.2884   -0.4317   -0.0595 H   0  0  0  0  0  0  0  0  0  0  0  0
   -0.1820   -0.3323    0.2654 C   0  0  1  0  0  0  0  0  0  0  0  0
    0.4711   -0.7967    1.0117 H   0  0  0  0  0  0  0  0  0  0  0  0
    0.4637   -0.4344   -1.1273 C   0  0  0  0  0  0  0  0  0  0  0  0
   -0.2466   -0.1365   -1.9065 H   0  0  0  0  0  0  0  0  0  0  0  0
    1.2966    0.2771   -1.1590 H   0  0  0  0  0  0  0  0  0  0  0  0
    1.0055   -1.8541   -1.4123 C   0  0  0  0  0  0  0  0  0  0  0  0
    1.3171   -2.3209   -0.4734 H   0  0  0  0  0  0  0  0  0  0  0  0
    0.2089   -2.4734   -1.8327 H   0  0  0  0  0  0  0  0  0  0  0  0
    2.2143   -1.8871   -2.3481 C   0  0  0  0  0  0  0  0  0  0  0  0
    2.3962   -0.9702   -3.1325 O   0  0  0  0  0  0  0  0  0  0  0  0
    3.0328   -2.9603   -2.2577 O   0  0  0  0  0  0  0  0  0  0  0  0
    3.7270   -2.8212   -2.9193 H   0  0  0  0  0  0  0  0  0  0  0  0
   -0.3486    1.1483    0.6637 C   0  0  0  0  0  0  0  0  0  0  0  0
   -1.2770    1.8029    0.2033 O   0  0  0  0  0  0  0  0  0  0  0  0
    0.4948    1.7266    1.5940 N   0  0  0  0  0  0  0  0  0  0  0  0
    1.2155    1.1406    2.0059 H   0  0  0  0  0  0  0  0  0  0  0  0
    0.3360    3.0938    2.0753 C   0  0  0  0  0  0  0  0  0  0  0  0
   -0.6252    3.2102    2.5870 H   0  0  0  0  0  0  0  0  0  0  0  0
    1.1356    3.3427    2.7797 H   0  0  0  0  0  0  0  0  0  0  0  0
    0.3790    3.8021    1.2411 H   0  0  0  0  0  0  0  0  0  0  0  0
  1  2  1  0  0  0  0
  2  3  1  0  0  0  0
  2  4  1  0  0  0  0
  2  5  1  0  0  0  0
  5  6  2  0  0  0  0
  5  7  1  0  0  0  0
  7  8  1  0  0  0  0
  7  9  1  0  0  0  0
  9 10  1  0  0  0  0
  9 11  1  0  0  0  0
  9 21  1  0  0  0  0
 11 12  1  0  0  0  0
 11 13  1  0  0  0  0
 11 14  1  0  0  0  0
 14 15  1  0  0  0  0
 14 16  1  0  0  0  0
 14 17  1  0  0  0  0
 17 18  2  0  0  0  0
 17 19  1  0  0  0  0
 19 20  1  0  0  0  0
 21 22  2  0  0  0  0
 21 23  1  0  0  0  0
 23 24  1  0  0  0  0
 23 25  1  0  0  0  0
 25 26  1  0  0  0  0
 25 27  1  0  0  0  0
 25 28  1  0  0  0  0
M  END
$$$$

  -OEChem-02102214123D

 28 27  0     1  0  0  0  0  0999 V2000
   -3.2418   -3.7660    1.2132 H   0  0  0  0  0  0  0  0  0  0  0  0
   -3.2011   -2.7688    0.7661 C   0  0  0  0  0  0  0  0  0  0  0  0
   -3.8545   -2.1012    1.3331 H   0  0  0  0  0  0  0  0  0  0  0  0
   -3.5597   -2.8300   -0.2642 H   0  0  0  0  0  0  0  0  0  0  0  0
   -1.7785   -2.2432    0.7886 C   0  0  0  0  0  0  0  0  0  0  0  0
   -0.8880   -2.9098    1.2911 O   0  0  0  0  0  0  0  0  0  0  0  0
   -1.5000   -1.0044    0.2511 N   0  0  0  0  0  0  0  0  0  0  0  0
   -2.2893   -0.4414   -0.0627 H   0  0  0  0  0  0  0  0  0  0  0  0
   -0.1840   -0.3492    0.2726 C   0  0  1  0  0  0  0  0  0  0  0  0
    0.4738   -0.8231    1.0086 H   0  0  0  0  0  0  0  0  0  0  0  0
    0.4457   -0.4472   -1.1285 C   0  0  0  0  0  0  0  0  0  0  0  0
   -0.2773   -0.1434   -1.8937 H   0  0  0  0  0  0  0  0  0  0  0  0
    1.2767    0.2661   -1.1731 H   0  0  0  0  0  0  0  0  0  0  0  0
    0.9785   -1.8653   -1.4391 C   0  0  0  0  0  0  0  0  0  0  0  0
    1.0487   -2.4501   -0.5175 H   0  0  0  0  0  0  0  0  0  0  0  0
    0.2799   -2.3870   -2.0983 H   0  0  0  0  0  0  0  0  0  0  0  0
    2.3647   -1.8570   -2.0790 C   0  0  0  0  0  0  0  0  0  0  0  0
    2.5695   -1.1135   -3.0239 O   0  0  0  0  0  0  0  0  0  0  0  0
    3.3068   -2.6757   -1.5570 O   0  0  0  0  0  0  0  0  0  0  0  0
    4.1029   -2.5396   -2.0926 H   0  0  0  0  0  0  0  0  0  0  0  0
   -0.3336    1.1316    0.6769 C   0  0  0  0  0  0  0  0  0  0  0  0
   -1.2524    1.7993    0.2163 O   0  0  0  0  0  0  0  0  0  0  0  0
    0.5230    1.6999    1.6015 N   0  0  0  0  0  0  0  0  0  0  0  0
    1.2351    1.1037    2.0138 H   0  0  0  0  0  0  0  0  0  0  0  0
    0.3933    3.0741    2.0721 C   0  0  0  0  0  0  0  0  0  0  0  0
   -0.5557    3.2096    2.6015 H   0  0  0  0  0  0  0  0  0  0  0  0
    1.2106    3.3182    2.7577 H   0  0  0  0  0  0  0  0  0  0  0  0
    0.4300    3.7736    1.2300 H   0  0  0  0  0  0  0  0  0  0  0  0
  1  2  1  0  0  0  0
  2  3  1  0  0  0  0
  2  4  1  0  0  0  0
  2  5  1  0  0  0  0
  5  6  2  0  0  0  0
  5  7  1  0  0  0  0
  7  8  1  0  0  0  0
  7  9  1  0  0  0  0
  9 10  1  0  0  0  0
  9 11  1  0  0  0  0
  9 21  1  0  0  0  0
 11 12  1  0  0  0  0
 11 13  1  0  0  0  0
 11 14  1  0  0  0  0
 14 15  1  0  0  0  0
 14 16  1  0  0  0  0
 14 17  1  0  0  0  0
 17 18  2  0  0  0  0
 17 19  1  0  0  0  0
 19 20  1  0  0  0  0
 21 22  2  0  0  0  0
 21 23  1  0  0  0  0
 23 24  1  0  0  0  0
 23 25  1  0  0  0  0
 25 26  1  0  0  0  0
 25 27  1  0  0  0  0
 25 28  1  0  0  0  0
M  END
$$$$

  -OEChem-02102214123D

 28 27  0     1  0  0  0  0  0999 V2000
   -3.2851   -3.7328    1.3054 H   0  0  0  0  0  0  0  0  0  0  0  0
   -3.2220   -2.7609    0.8081 C   0  0  0  0  0  0  0  0  0  0  0  0
   -3.8920   -2.0618    1.3145 H   0  0  0  0  0  0  0  0  0  0  0  0
   -3.5427   -2.8752   -0.2302 H   0  0  0  0  0  0  0  0  0  0  0  0
   -1.7981   -2.2402    0.8566 C   0  0  0  0  0  0  0  0  0  0  0  0
   -0.9329   -2.8826    1.4294 O   0  0  0  0  0  0  0  0  0  0  0  0
   -1.4967   -1.0270    0.2747 N   0  0  0  0  0  0  0  0  0  0  0  0
   -2.2750   -0.4795   -0.0895 H   0  0  0  0  0  0  0  0  0  0  0  0
   -0.1852   -0.3613    0.3190 C   0  0  1  0  0  0  0  0  0  0  0  0
    0.4446   -0.7986    1.1016 H   0  0  0  0  0  0  0  0  0  0  0  0
    0.5176   -0.5034   -1.0429 C   0  0  0  0  0  0  0  0  0  0  0  0
   -0.1919   -0.2586   -1.8410 H   0  0  0  0  0  0  0  0  0  0  0  0
    1.3254    0.2345   -1.1054 H   0  0  0  0  0  0  0  0  0  0  0  0
    1.0822   -1.9242   -1.2753 C   0  0  0  0  0  0  0  0  0  0  0  0
    0.8576   -2.5806   -0.4314 H   0  0  0  0  0  0  0  0  0  0  0  0
    0.6007   -2.3581   -2.1560 H   0  0  0  0  0  0  0  0  0  0  0  0
    2.5941   -1.9374   -1.4850 C   0  0  0  0  0  0  0  0  0  0  0  0
    3.3034   -1.3571   -0.6783 O   0  0  0  0  0  0  0  0  0  0  0  0
    3.0745   -2.5901   -2.5685 O   0  0  0  0  0  0  0  0  0  0  0  0
    4.0383   -2.4968   -2.5287 H   0  0  0  0  0  0  0  0  0  0  0  0
   -0.3578    1.1354    0.6456 C   0  0  0  0  0  0  0  0  0  0  0  0
   -1.2597    1.7740    0.1147 O   0  0  0  0  0  0  0  0  0  0  0  0
    0.4576    1.7521    1.5758 N   0  0  0  0  0  0  0  0  0  0  0  0
    1.1829    1.1899    2.0132 H   0  0  0  0  0  0  0  0  0  0  0  0
    0.3219    3.1532    1.9547 C   0  0  0  0  0  0  0  0  0  0  0  0
   -0.6525    3.3299    2.4220 H   0  0  0  0  0  0  0  0  0  0  0  0
    1.1038    3.4302    2.6683 H   0  0  0  0  0  0  0  0  0  0  0  0
    0.4135    3.7992    1.0751 H   0  0  0  0  0  0  0  0  0  0  0  0
  1  2  1  0  0  0  0
  2  3  1  0  0  0  0
  2  4  1  0  0  0  0
  2  5  1  0  0  0  0
  5  6  2  0  0  0  0
  5  7  1  0  0  0  0
  7  8  1  0  0  0  0
  7  9  1  0  0  0  0
  9 10  1  0  0  0  0
  9 11  1  0  0  0  0
  9 21  1  0  0  0  0
 11 12  1  0  0  0  0
 11 13  1  0  0  0  0
 11 14  1  0  0  0  0
 14 15  1  0  0  0  0
 14 16  1  0  0  0  0
 14 17  1  0  0  0  0
 17 18  2  0  0  0  0
 17 19  1  0  0  0  0
 19 20  1  0  0  0  0
 21 22  2  0  0  0  0
 21 23  1  0  0  0  0
 23 24  1  0  0  0  0
 23 25  1  0  0  0  0
 25 26  1  0  0  0  0
 25 27  1  0  0  0  0
 25 28  1  0  0  0  0
M  END
$$$$

  -OEChem-02102214123D

 28 27  0     1  0  0  0  0  0999 V2000
   -3.2952   -3.7257    1.3088 H   0  0  0  0  0  0  0  0  0  0  0  0
   -3.2339   -2.7528    0.8132 C   0  0  0  0  0  0  0  0  0  0  0  0
   -3.8969   -2.0529    1.3275 H   0  0  0  0  0  0  0  0  0  0  0  0
   -3.5639   -2.8636   -0.2224 H   0  0  0  0  0  0  0  0  0  0  0  0
   -1.8083   -2.2367    0.8501 C   0  0  0  0  0  0  0  0  0  0  0  0
   -0.9408   -2.8844    1.4135 O   0  0  0  0  0  0  0  0  0  0  0  0
   -1.5093   -1.0206    0.2728 N   0  0  0  0  0  0  0  0  0  0  0  0
   -2.2899   -0.4679   -0.0786 H   0  0  0  0  0  0  0  0  0  0  0  0
   -0.1952   -0.3589    0.3094 C   0  0  1  0  0  0  0  0  0  0  0  0
    0.4374   -0.8047    1.0850 H   0  0  0  0  0  0  0  0  0  0  0  0
    0.5095   -0.4865   -1.0539 C   0  0  0  0  0  0  0  0  0  0  0  0
   -0.2158   -0.2498   -1.8401 H   0  0  0  0  0  0  0  0  0  0  0  0
    1.3095    0.2584   -1.1343 H   0  0  0  0  0  0  0  0  0  0  0  0
    1.0756   -1.9035   -1.3012 C   0  0  0  0  0  0  0  0  0  0  0  0
    0.6171   -2.6404   -0.6393 H   0  0  0  0  0  0  0  0  0  0  0  0
    0.8317   -2.1976   -2.3258 H   0  0  0  0  0  0  0  0  0  0  0  0
    2.5933   -1.9797   -1.1454 C   0  0  0  0  0  0  0  0  0  0  0  0
    3.1321   -1.3320   -0.2611 O   0  0  0  0  0  0  0  0  0  0  0  0
    3.2710   -2.7707   -2.0088 O   0  0  0  0  0  0  0  0  0  0  0  0
    4.2034   -2.7054   -1.7527 H   0  0  0  0  0  0  0  0  0  0  0  0
   -0.3608    1.1356    0.6475 C   0  0  0  0  0  0  0  0  0  0  0  0
   -1.2683    1.7801    0.1333 O   0  0  0  0  0  0  0  0  0  0  0  0
    0.4661    1.7411    1.5746 N   0  0  0  0  0  0  0  0  0  0  0  0
    1.2020    1.1745    1.9890 H   0  0  0  0  0  0  0  0  0  0  0  0
    0.3352    3.1366    1.9749 C   0  0  0  0  0  0  0  0  0  0  0  0
   -0.6458    3.3143    2.4278 H   0  0  0  0  0  0  0  0  0  0  0  0
    1.1060    3.3937    2.7079 H   0  0  0  0  0  0  0  0  0  0  0  0
    0.4485    3.7966    1.1084 H   0  0  0  0  0  0  0  0  0  0  0  0
  1  2  1  0  0  0  0
  2  3  1  0  0  0  0
  2  4  1  0  0  0  0
  2  5  1  0  0  0  0
  5  6  2  0  0  0  0
  5  7  1  0  0  0  0
  7  8  1  0  0  0  0
  7  9  1  0  0  0  0
  9 10  1  0  0  0  0
  9 11  1  0  0  0  0
  9 21  1  0  0  0  0
 11 12  1  0  0  0  0
 11 13  1  0  0  0  0
 11 14  1  0  0  0  0
 14 15  1  0  0  0  0
 14 16  1  0  0  0  0
 14 17  1  0  0  0  0
 17 18  2  0  0  0  0
 17 19  1  0  0  0  0
 19 20  1  0  0  0  0
 21 22  2  0  0  0  0
 21 23  1  0  0  0  0
 23 24  1  0  0  0  0
 23 25  1  0  0  0  0
 25 26  1  0  0  0  0
 25 27  1  0  0  0  0
 25 28  1  0  0  0  0
M  END
$$$$

  -OEChem-02102214123D

 28 27  0     1  0  0  0  0  0999 V2000
   -3.2710   -3.7444    1.2940 H   0  0  0  0  0  0  0  0  0  0  0  0
   -3.2215   -2.7670    0.8058 C   0  0  0  0  0  0  0  0  0  0  0  0
   -3.8839   -2.0760    1.3329 H   0  0  0  0  0  0  0  0  0  0  0  0
   -3.5619   -2.8715   -0.2272 H   0  0  0  0  0  0  0  0  0  0  0  0
   -1.7989   -2.2413    0.8304 C   0  0  0  0  0  0  0  0  0  0  0  0
   -0.9152   -2.8972    1.3583 O   0  0  0  0  0  0  0  0  0  0  0  0
   -1.5160   -1.0152    0.2659 N   0  0  0  0  0  0  0  0  0  0  0  0
   -2.3052   -0.4598   -0.0612 H   0  0  0  0  0  0  0  0  0  0  0  0
   -0.2058   -0.3456    0.2991 C   0  0  1  0  0  0  0  0  0  0  0  0
    0.4307   -0.7962    1.0684 H   0  0  0  0  0  0  0  0  0  0  0  0
    0.4954   -0.4580   -1.0678 C   0  0  0  0  0  0  0  0  0  0  0  0
   -0.2368   -0.2237   -1.8480 H   0  0  0  0  0  0  0  0  0  0  0  0
    1.2930    0.2894   -1.1504 H   0  0  0  0  0  0  0  0  0  0  0  0
    1.0692   -1.8688   -1.3245 C   0  0  0  0  0  0  0  0  0  0  0  0
    0.4391   -2.6401   -0.8777 H   0  0  0  0  0  0  0  0  0  0  0  0
    1.0731   -2.0439   -2.4038 H   0  0  0  0  0  0  0  0  0  0  0  0
    2.5068   -2.0489   -0.8336 C   0  0  0  0  0  0  0  0  0  0  0  0
    2.9538   -1.2979    0.0207 O   0  0  0  0  0  0  0  0  0  0  0  0
    3.2224   -3.0539   -1.3882 O   0  0  0  0  0  0  0  0  0  0  0  0
    4.0873   -3.0360   -0.9516 H   0  0  0  0  0  0  0  0  0  0  0  0
   -0.3702    1.1437    0.6583 C   0  0  0  0  0  0  0  0  0  0  0  0
   -1.2869    1.7928    0.1666 O   0  0  0  0  0  0  0  0  0  0  0  0
    0.4668    1.7365    1.5846 N   0  0  0  0  0  0  0  0  0  0  0  0
    1.2192    1.1692    1.9675 H   0  0  0  0  0  0  0  0  0  0  0  0
    0.3465    3.1287    1.9995 C   0  0  0  0  0  0  0  0  0  0  0  0
   -0.6378    3.3126    2.4432 H   0  0  0  0  0  0  0  0  0  0  0  0
    1.1110    3.3688    2.7448 H   0  0  0  0  0  0  0  0  0  0  0  0
    0.4769    3.7971    1.1419 H   0  0  0  0  0  0  0  0  0  0  0  0
  1  2  1  0  0  0  0
  2  3  1  0  0  0  0
  2  4  1  0  0  0  0
  2  5  1  0  0  0  0
  5  6  2  0  0  0  0
  5  7  1  0  0  0  0
  7  8  1  0  0  0  0
  7  9  1  0  0  0  0
  9 10  1  0  0  0  0
  9 11  1  0  0  0  0
  9 21  1  0  0  0  0
 11 12  1  0  0  0  0
 11 13  1  0  0  0  0
 11 14  1  0  0  0  0
 14 15  1  0  0  0  0
 14 16  1  0  0  0  0
 14 17  1  0  0  0  0
 17 18  2  0  0  0  0
 17 19  1  0  0  0  0
 19 20  1  0  0  0  0
 21 22  2  0  0  0  0
 21 23  1  0  0  0  0
 23 24  1  0  0  0  0
 23 25  1  0  0  0  0
 25 26  1  0  0  0  0
 25 27  1  0  0  0  0
 25 28  1  0  0  0  0
M  END
$$$$

  -OEChem-02102214123D

 28 27  0     1  0  0  0  0  0999 V2000
   -3.2264   -3.7640    1.2918 H   0  0  0  0  0  0  0  0  0  0  0  0
   -3.1933   -2.7853    0.8049 C   0  0  0  0  0  0  0  0  0  0  0  0
   -3.8492   -2.1001    1.3473 H   0  0  0  0  0  0  0  0  0  0  0  0
   -3.5546   -2.8901   -0.2209 H   0  0  0  0  0  0  0  0  0  0  0  0
   -1.7741   -2.2502    0.8012 C   0  0  0  0  0  0  0  0  0  0  0  0
   -0.8707   -2.9122    1.2870 O   0  0  0  0  0  0  0  0  0  0  0  0
   -1.5120   -1.0133    0.2504 N   0  0  0  0  0  0  0  0  0  0  0  0
   -2.3117   -0.4547   -0.0441 H   0  0  0  0  0  0  0  0  0  0  0  0
   -0.2086   -0.3324    0.2913 C   0  0  1  0  0  0  0  0  0  0  0  0
    0.4251   -0.7839    1.0614 H   0  0  0  0  0  0  0  0  0  0  0  0
    0.4904   -0.4315   -1.0784 C   0  0  0  0  0  0  0  0  0  0  0  0
   -0.2362   -0.1869   -1.8605 H   0  0  0  0  0  0  0  0  0  0  0  0
    1.2922    0.3129   -1.1443 H   0  0  0  0  0  0  0  0  0  0  0  0
    1.0751   -1.8347   -1.3488 C   0  0  0  0  0  0  0  0  0  0  0  0
    0.3309   -2.6038   -1.1287 H   0  0  0  0  0  0  0  0  0  0  0  0
    1.3128   -1.9107   -2.4130 H   0  0  0  0  0  0  0  0  0  0  0  0
    2.3559   -2.1523   -0.5726 C   0  0  0  0  0  0  0  0  0  0  0  0
    2.8312   -1.3246    0.1915 O   0  0  0  0  0  0  0  0  0  0  0  0
    2.9172   -3.3618   -0.8004 O   0  0  0  0  0  0  0  0  0  0  0  0
    3.6912   -3.4097   -0.2198 H   0  0  0  0  0  0  0  0  0  0  0  0
   -0.3809    1.1509    0.6698 C   0  0  0  0  0  0  0  0  0  0  0  0
   -1.3042    1.7997    0.1904 O   0  0  0  0  0  0  0  0  0  0  0  0
    0.4545    1.7360    1.6021 N   0  0  0  0  0  0  0  0  0  0  0  0
    1.2184    1.1712    1.9659 H   0  0  0  0  0  0  0  0  0  0  0  0
    0.3397    3.1277    2.0198 C   0  0  0  0  0  0  0  0  0  0  0  0
   -0.6456    3.3162    2.4591 H   0  0  0  0  0  0  0  0  0  0  0  0
    1.1019    3.3622    2.7691 H   0  0  0  0  0  0  0  0  0  0  0  0
    0.4779    3.7971    1.1642 H   0  0  0  0  0  0  0  0  0  0  0  0
  1  2  1  0  0  0  0
  2  3  1  0  0  0  0
  2  4  1  0  0  0  0
  2  5  1  0  0  0  0
  5  6  2  0  0  0  0
  5  7  1  0  0  0  0
  7  8  1  0  0  0  0
  7  9  1  0  0  0  0
  9 10  1  0  0  0  0
  9 11  1  0  0  0  0
  9 21  1  0  0  0  0
 11 12  1  0  0  0  0
 11 13  1  0  0  0  0
 11 14  1  0  0  0  0
 14 15  1  0  0  0  0
 14 16  1  0  0  0  0
 14 17  1  0  0  0  0
 17 18  2  0  0  0  0
 17 19  1  0  0  0  0
 19 20  1  0  0  0  0
 21 22  2  0  0  0  0
 21 23  1  0  0  0  0
 23 24  1  0  0  0  0
 23 25  1  0  0  0  0
 25 26  1  0  0  0  0
 25 27  1  0  0  0  0
 25 28  1  0  0  0  0
M  END
$$$$

  -OEChem-02102214123D

 28 27  0     1  0  0  0  0  0999 V2000
   -3.1799   -3.7801    1.2856 H   0  0  0  0  0  0  0  0  0  0  0  0
   -3.1582   -2.7991    0.8024 C   0  0  0  0  0  0  0  0  0  0  0  0
   -3.8197   -2.1226    1.3490 H   0  0  0  0  0  0  0  0  0  0  0  0
   -3.5209   -2.9031   -0.2231 H   0  0  0  0  0  0  0  0  0  0  0  0
   -1.7442   -2.2504    0.7979 C   0  0  0  0  0  0  0  0  0  0  0  0
   -0.8335   -2.9033    1.2822 O   0  0  0  0  0  0  0  0  0  0  0  0
   -1.4933   -1.0113    0.2473 N   0  0  0  0  0  0  0  0  0  0  0  0
   -2.2966   -0.4581   -0.0474 H   0  0  0  0  0  0  0  0  0  0  0  0
   -0.1953   -0.3227    0.2946 C   0  0  1  0  0  0  0  0  0  0  0  0
    0.4353   -0.7644    1.0712 H   0  0  0  0  0  0  0  0  0  0  0  0
    0.4941   -0.4245   -1.0813 C   0  0  0  0  0  0  0  0  0  0  0  0
   -0.2256   -0.1639   -1.8647 H   0  0  0  0  0  0  0  0  0  0  0  0
    1.3049    0.3111   -1.1308 H   0  0  0  0  0  0  0  0  0  0  0  0
    1.0866   -1.8209   -1.3718 C   0  0  0  0  0  0  0  0  0  0  0  0
    0.2785   -2.5575   -1.3760 H   0  0  0  0  0  0  0  0  0  0  0  0
    1.5312   -1.8179   -2.3703 H   0  0  0  0  0  0  0  0  0  0  0  0
    2.1542   -2.2938   -0.3829 C   0  0  0  0  0  0  0  0  0  0  0  0
    2.7509   -1.4745    0.3010 O   0  0  0  0  0  0  0  0  0  0  0  0
    2.4103   -3.6216   -0.3492 O   0  0  0  0  0  0  0  0  0  0  0  0
    3.0685   -3.7493    0.3496 H   0  0  0  0  0  0  0  0  0  0  0  0
   -0.3799    1.1590    0.6729 C   0  0  0  0  0  0  0  0  0  0  0  0
   -1.3053    1.8020    0.1899 O   0  0  0  0  0  0  0  0  0  0  0  0
    0.4472    1.7485    1.6098 N   0  0  0  0  0  0  0  0  0  0  0  0
    1.2069    1.1853    1.9845 H   0  0  0  0  0  0  0  0  0  0  0  0
    0.3123    3.1344    2.0398 C   0  0  0  0  0  0  0  0  0  0  0  0
   -0.6799    3.3078    2.4695 H   0  0  0  0  0  0  0  0  0  0  0  0
    1.0630    3.3691    2.8005 H   0  0  0  0  0  0  0  0  0  0  0  0
    0.4531    3.8135    1.1925 H   0  0  0  0  0  0  0  0  0  0  0  0
  1  2  1  0  0  0  0
  2  3  1  0  0  0  0
  2  4  1  0  0  0  0
  2  5  1  0  0  0  0
  5  6  2  0  0  0  0
  5  7  1  0  0  0  0
  7  8  1  0  0  0  0
  7  9  1  0  0  0  0
  9 10  1  0  0  0  0
  9 11  1  0  0  0  0
  9 21  1  0  0  0  0
 11 12  1  0  0  0  0
 11 13  1  0  0  0  0
 11 14  1  0  0  0  0
 14 15  1  0  0  0  0
 14 16  1  0  0  0  0
 14 17  1  0  0  0  0
 17 18  2  0  0  0  0
 17 19  1  0  0  0  0
 19 20  1  0  0  0  0
 21 22  2  0  0  0  0
 21 23  1  0  0  0  0
 23 24  1  0  0  0  0
 23 25  1  0  0  0  0
 25 26  1  0  0  0  0
 25 27  1  0  0  0  0
 25 28  1  0  0  0  0
M  END
$$$$

  -OEChem-02102214123D

 28 27  0     1  0  0  0  0  0999 V2000
   -3.1728   -3.7977    1.2671 H   0  0  0  0  0  0  0  0  0  0  0  0
   -3.1447   -2.8162    0.7856 C   0  0  0  0  0  0  0  0  0  0  0  0
   -3.8392   -2.1498    1.3028 H   0  0  0  0  0  0  0  0  0  0  0  0
   -3.4607   -2.9251   -0.2546 H   0  0  0  0  0  0  0  0  0  0  0  0
   -1.7402   -2.2464    0.8425 C   0  0  0  0  0  0  0  0  0  0  0  0
   -0.8504   -2.8709    1.3974 O   0  0  0  0  0  0  0  0  0  0  0  0
   -1.4786   -1.0155    0.2785 N   0  0  0  0  0  0  0  0  0  0  0  0
   -2.2722   -0.4809   -0.0717 H   0  0  0  0  0  0  0  0  0  0  0  0
   -0.1824   -0.3242    0.3338 C   0  0  1  0  0  0  0  0  0  0  0  0
    0.4434   -0.7507    1.1217 H   0  0  0  0  0  0  0  0  0  0  0  0
    0.5028   -0.4323   -1.0462 C   0  0  0  0  0  0  0  0  0  0  0  0
   -0.2075   -0.1485   -1.8301 H   0  0  0  0  0  0  0  0  0  0  0  0
    1.3210    0.2960   -1.0746 H   0  0  0  0  0  0  0  0  0  0  0  0
    1.1085   -1.8157   -1.3782 C   0  0  0  0  0  0  0  0  0  0  0  0
    0.2871   -2.4942   -1.6260 H   0  0  0  0  0  0  0  0  0  0  0  0
    1.7418   -1.7312   -2.2650 H   0  0  0  0  0  0  0  0  0  0  0  0
    1.9221   -2.4758   -0.2652 C   0  0  0  0  0  0  0  0  0  0  0  0
    2.6170   -1.7755    0.4565 O   0  0  0  0  0  0  0  0  0  0  0  0
    1.8669   -3.8241   -0.1724 O   0  0  0  0  0  0  0  0  0  0  0  0
    2.3722   -4.0576    0.6202 H   0  0  0  0  0  0  0  0  0  0  0  0
   -0.3790    1.1626    0.6880 C   0  0  0  0  0  0  0  0  0  0  0  0
   -1.2880    1.7995    0.1673 O   0  0  0  0  0  0  0  0  0  0  0  0
    0.4307    1.7708    1.6283 N   0  0  0  0  0  0  0  0  0  0  0  0
    1.1678    1.2088    2.0470 H   0  0  0  0  0  0  0  0  0  0  0  0
    0.2872    3.1649    2.0285 C   0  0  0  0  0  0  0  0  0  0  0  0
   -0.7091    3.3431    2.4468 H   0  0  0  0  0  0  0  0  0  0  0  0
    1.0316    3.4187    2.7894 H   0  0  0  0  0  0  0  0  0  0  0  0
    0.4320    3.8272    1.1684 H   0  0  0  0  0  0  0  0  0  0  0  0
  1  2  1  0  0  0  0
  2  3  1  0  0  0  0
  2  4  1  0  0  0  0
  2  5  1  0  0  0  0
  5  6  2  0  0  0  0
  5  7  1  0  0  0  0
  7  8  1  0  0  0  0
  7  9  1  0  0  0  0
  9 10  1  0  0  0  0
  9 11  1  0  0  0  0
  9 21  1  0  0  0  0
 11 12  1  0  0  0  0
 11 13  1  0  0  0  0
 11 14  1  0  0  0  0
 14 15  1  0  0  0  0
 14 16  1  0  0  0  0
 14 17  1  0  0  0  0
 17 18  2  0  0  0  0
 17 19  1  0  0  0  0
 19 20  1  0  0  0  0
 21 22  2  0  0  0  0
 21 23  1  0  0  0  0
 23 24  1  0  0  0  0
 23 25  1  0  0  0  0
 25 26  1  0  0  0  0
 25 27  1  0  0  0  0
 25 28  1  0  0  0  0
M  END
$$$$

  -OEChem-02102214123D

 28 27  0     1  0  0  0  0  0999 V2000
   -3.1905   -3.8022    1.2552 H   0  0  0  0  0  0  0  0  0  0  0  0
   -3.1450   -2.8206    0.7754 C   0  0  0  0  0  0  0  0  0  0  0  0
   -3.8753   -2.1611    1.2506 H   0  0  0  0  0  0  0  0  0  0  0  0
   -3.3990   -2.9338   -0.2812 H   0  0  0  0  0  0  0  0  0  0  0  0
   -1.7523   -2.2358    0.9131 C   0  0  0  0  0  0  0  0  0  0  0  0
   -0.9110   -2.8172    1.5794 O   0  0  0  0  0  0  0  0  0  0  0  0
   -1.4622   -1.0224    0.3252 N   0  0  0  0  0  0  0  0  0  0  0  0
   -2.2317   -0.5176   -0.1115 H   0  0  0  0  0  0  0  0  0  0  0  0
   -0.1625   -0.3370    0.3803 C   0  0  1  0  0  0  0  0  0  0  0  0
    0.4637   -0.7480    1.1765 H   0  0  0  0  0  0  0  0  0  0  0  0
    0.5240   -0.4489   -1.0020 C   0  0  0  0  0  0  0  0  0  0  0  0
   -0.1794   -0.1433   -1.7844 H   0  0  0  0  0  0  0  0  0  0  0  0
    1.3463    0.2752   -1.0134 H   0  0  0  0  0  0  0  0  0  0  0  0
    1.1393   -1.8186   -1.3780 C   0  0  0  0  0  0  0  0  0  0  0  0
    0.3635   -2.4029   -1.8810 H   0  0  0  0  0  0  0  0  0  0  0  0
    1.9492   -1.6699   -2.0971 H   0  0  0  0  0  0  0  0  0  0  0  0
    1.6619   -2.6727   -0.2259 C   0  0  0  0  0  0  0  0  0  0  0  0
    2.4253   -2.1622    0.5799 O   0  0  0  0  0  0  0  0  0  0  0  0
    1.2832   -3.9710   -0.1868 O   0  0  0  0  0  0  0  0  0  0  0  0
    1.6049   -4.3130    0.6612 H   0  0  0  0  0  0  0  0  0  0  0  0
   -0.3702    1.1582    0.6946 C   0  0  0  0  0  0  0  0  0  0  0  0
   -1.2599    1.7842    0.1288 O   0  0  0  0  0  0  0  0  0  0  0  0
    0.4216    1.7942    1.6319 N   0  0  0  0  0  0  0  0  0  0  0  0
    1.1246    1.2360    2.1096 H   0  0  0  0  0  0  0  0  0  0  0  0
    0.2558    3.1941    2.0030 C   0  0  0  0  0  0  0  0  0  0  0  0
   -0.7451    3.3662    2.4128 H   0  0  0  0  0  0  0  0  0  0  0  0
    0.9928    3.4744    2.7617 H   0  0  0  0  0  0  0  0  0  0  0  0
    0.3955    3.8405    1.1301 H   0  0  0  0  0  0  0  0  0  0  0  0
  1  2  1  0  0  0  0
  2  3  1  0  0  0  0
  2  4  1  0  0  0  0
  2  5  1  0  0  0  0
  5  6  2  0  0  0  0
  5  7  1  0  0  0  0
  7  8  1  0  0  0  0
  7  9  1  0  0  0  0
  9 10  1  0  0  0  0
  9 11  1  0  0  0  0
  9 21  1  0  0  0  0
 11 12  1  0  0  0  0
 11 13  1  0  0  0  0
 11 14  1  0  0  0  0
 14 15  1  0  0  0  0
 14 16  1  0  0  0  0
 14 17  1  0  0  0  0
 17 18  2  0  0  0  0
 17 19  1  0  0  0  0
 19 20  1  0  0  0  0
 21 22  2  0  0  0  0
 21 23  1  0  0  0  0
 23 24  1  0  0  0  0
 23 25  1  0  0  0  0
 25 26  1  0  0  0  0
 25 27  1  0  0  0  0
 25 28  1  0  0  0  0
M  END
$$$$

  -OEChem-02102214123D

 28 27  0     1  0  0  0  0  0999 V2000
   -3.2165   -3.8024    1.2586 H   0  0  0  0  0  0  0  0  0  0  0  0
   -3.1511   -2.8288    0.7651 C   0  0  0  0  0  0  0  0  0  0  0  0
   -3.9142   -2.1684    1.1838 H   0  0  0  0  0  0  0  0  0  0  0  0
   -3.3404   -2.9634   -0.3026 H   0  0  0  0  0  0  0  0  0  0  0  0
   -1.7750   -2.2273    0.9753 C   0  0  0  0  0  0  0  0  0  0  0  0
   -0.9841   -2.7713    1.7298 O   0  0  0  0  0  0  0  0  0  0  0  0
   -1.4572   -1.0304    0.3679 N   0  0  0  0  0  0  0  0  0  0  0  0
   -2.2037   -0.5538   -0.1351 H   0  0  0  0  0  0  0  0  0  0  0  0
   -0.1516   -0.3524    0.4131 C   0  0  1  0  0  0  0  0  0  0  0  0
    0.4780   -0.7572    1.2108 H   0  0  0  0  0  0  0  0  0  0  0  0
    0.5420   -0.4703   -0.9690 C   0  0  0  0  0  0  0  0  0  0  0  0
   -0.1629   -0.1618   -1.7491 H   0  0  0  0  0  0  0  0  0  0  0  0
    1.3599    0.2587   -0.9794 H   0  0  0  0  0  0  0  0  0  0  0  0
    1.1676   -1.8297   -1.3718 C   0  0  0  0  0  0  0  0  0  0  0  0
    0.5095   -2.2964   -2.1103 H   0  0  0  0  0  0  0  0  0  0  0  0
    2.1288   -1.6568   -1.8640 H   0  0  0  0  0  0  0  0  0  0  0  0
    1.3741   -2.8445   -0.2549 C   0  0  0  0  0  0  0  0  0  0  0  0
    2.1658   -2.5690    0.6328 O   0  0  0  0  0  0  0  0  0  0  0  0
    0.6862   -4.0079   -0.3207 O   0  0  0  0  0  0  0  0  0  0  0  0
    0.8260   -4.4352    0.5396 H   0  0  0  0  0  0  0  0  0  0  0  0
   -0.3608    1.1500    0.6957 C   0  0  0  0  0  0  0  0  0  0  0  0
   -1.2383    1.7683    0.1029 O   0  0  0  0  0  0  0  0  0  0  0  0
    0.4263    1.8056    1.6238 N   0  0  0  0  0  0  0  0  0  0  0  0
    1.1052    1.2511    2.1389 H   0  0  0  0  0  0  0  0  0  0  0  0
    0.2435    3.2077    1.9791 C   0  0  0  0  0  0  0  0  0  0  0  0
   -0.7586    3.3709    2.3898 H   0  0  0  0  0  0  0  0  0  0  0  0
    0.9788    3.5068    2.7324 H   0  0  0  0  0  0  0  0  0  0  0  0
    0.3723    3.8460    1.0986 H   0  0  0  0  0  0  0  0  0  0  0  0
  1  2  1  0  0  0  0
  2  3  1  0  0  0  0
  2  4  1  0  0  0  0
  2  5  1  0  0  0  0
  5  6  2  0  0  0  0
  5  7  1  0  0  0  0
  7  8  1  0  0  0  0
  7  9  1  0  0  0  0
  9 10  1  0  0  0  0
  9 11  1  0  0  0  0
  9 21  1  0  0  0  0
 11 12  1  0  0  0  0
 11 13  1  0  0  0  0
 11 14  1  0  0  0  0
 14 15  1  0  0  0  0
 14 16  1  0  0  0  0
 14 17  1  0  0  0  0
 17 18  2  0  0  0  0
 17 19  1  0  0  0  0
 19 20  1  0  0  0  0
 21 22  2  0  0  0  0
 21 23  1  0  0  0  0
 23 24  1  0  0  0  0
 23 25  1  0  0  0  0
 25 26  1  0  0  0  0
 25 27  1  0  0  0  0
 25 28  1  0  0  0  0
M  END
$$$$

  -OEChem-02102214123D

 28 27  0     1  0  0  0  0  0999 V2000
   -3.2299   -3.8336    1.2976 H   0  0  0  0  0  0  0  0  0  0  0  0
   -3.1336   -2.8991    0.7379 C   0  0  0  0  0  0  0  0  0  0  0  0
   -3.9239   -2.2152    1.0563 H   0  0  0  0  0  0  0  0  0  0  0  0
   -3.2519   -3.1128   -0.3272 H   0  0  0  0  0  0  0  0  0  0  0  0
   -1.7745   -2.2749    0.9909 C   0  0  0  0  0  0  0  0  0  0  0  0
   -0.9987   -2.8095    1.7668 O   0  0  0  0  0  0  0  0  0  0  0  0
   -1.4592   -1.0730    0.3924 N   0  0  0  0  0  0  0  0  0  0  0  0
   -2.2022   -0.6206   -0.1373 H   0  0  0  0  0  0  0  0  0  0  0  0
   -0.1673   -0.3651    0.4392 C   0  0  1  0  0  0  0  0  0  0  0  0
    0.4724   -0.7676    1.2314 H   0  0  0  0  0  0  0  0  0  0  0  0
    0.5492   -0.4468   -0.9366 C   0  0  0  0  0  0  0  0  0  0  0  0
   -0.1728   -0.1661   -1.7118 H   0  0  0  0  0  0  0  0  0  0  0  0
    1.3306    0.3214   -0.9475 H   0  0  0  0  0  0  0  0  0  0  0  0
    1.2298   -1.7706   -1.3689 C   0  0  0  0  0  0  0  0  0  0  0  0
    0.7780   -2.1007   -2.3085 H   0  0  0  0  0  0  0  0  0  0  0  0
    2.2860   -1.5755   -1.5763 H   0  0  0  0  0  0  0  0  0  0  0  0
    1.1554   -2.9335   -0.3916 C   0  0  0  0  0  0  0  0  0  0  0  0
    1.9290   -2.9249    0.5517 O   0  0  0  0  0  0  0  0  0  0  0  0
    0.2666   -3.9254   -0.6311 O   0  0  0  0  0  0  0  0  0  0  0  0
    0.2968   -4.4790    0.1667 H   0  0  0  0  0  0  0  0  0  0  0  0
   -0.4127    1.1316    0.7221 C   0  0  0  0  0  0  0  0  0  0  0  0
   -1.2969    1.7328    0.1220 O   0  0  0  0  0  0  0  0  0  0  0  0
    0.3586    1.8030    1.6521 N   0  0  0  0  0  0  0  0  0  0  0  0
    1.0346    1.2580    2.1809 H   0  0  0  0  0  0  0  0  0  0  0  0
    0.1413    3.1990    2.0119 C   0  0  0  0  0  0  0  0  0  0  0  0
   -0.8573    3.3328    2.4413 H   0  0  0  0  0  0  0  0  0  0  0  0
    0.8820    3.5191    2.7510 H   0  0  0  0  0  0  0  0  0  0  0  0
    0.2349    3.8417    1.1302 H   0  0  0  0  0  0  0  0  0  0  0  0
  1  2  1  0  0  0  0
  2  3  1  0  0  0  0
  2  4  1  0  0  0  0
  2  5  1  0  0  0  0
  5  6  2  0  0  0  0
  5  7  1  0  0  0  0
  7  8  1  0  0  0  0
  7  9  1  0  0  0  0
  9 10  1  0  0  0  0
  9 11  1  0  0  0  0
  9 21  1  0  0  0  0
 11 12  1  0  0  0  0
 11 13  1  0  0  0  0
 11 14  1  0  0  0  0
 14 15  1  0  0  0  0
 14 16  1  0  0  0  0
 14 17  1  0  0  0  0
 17 18  2  0  0  0  0
 17 19  1  0  0  0  0
 19 20  1  0  0  0  0
 21 22  2  0  0  0  0
 21 23  1  0  0  0  0
 23 24  1  0  0  0  0
 23 25  1  0  0  0  0
 25 26  1  0  0  0  0
 25 27  1  0  0  0  0
 25 28  1  0  0  0  0
M  END
$$$$

  -OEChem-02102214123D

 28 27  0     1  0  0  0  0  0999 V2000
   -3.2269   -3.9575    1.1189 H   0  0  0  0  0  0  0  0  0  0  0  0
   -3.1512   -2.9948    0.6057 C   0  0  0  0  0  0  0  0  0  0  0  0
   -3.9589   -2.3453    0.9517 H   0  0  0  0  0  0  0  0  0  0  0  0
   -3.2590   -3.1610   -0.4691 H   0  0  0  0  0  0  0  0  0  0  0  0
   -1.8080   -2.3527    0.8934 C   0  0  0  0  0  0  0  0  0  0  0  0
   -1.0113   -2.9128    1.6325 O   0  0  0  0  0  0  0  0  0  0  0  0
   -1.5206   -1.1084    0.3689 N   0  0  0  0  0  0  0  0  0  0  0  0
   -2.2683   -0.6466   -0.1457 H   0  0  0  0  0  0  0  0  0  0  0  0
   -0.2248   -0.4065    0.4214 C   0  0  1  0  0  0  0  0  0  0  0  0
    0.4428   -0.8677    1.1570 H   0  0  0  0  0  0  0  0  0  0  0  0
    0.4631   -0.3592   -0.9736 C   0  0  0  0  0  0  0  0  0  0  0  0
   -0.2952   -0.0364   -1.6958 H   0  0  0  0  0  0  0  0  0  0  0  0
    1.2295    0.4239   -0.9555 H   0  0  0  0  0  0  0  0  0  0  0  0
    1.1361   -1.6340   -1.5430 C   0  0  0  0  0  0  0  0  0  0  0  0
    0.9030   -1.7158   -2.6087 H   0  0  0  0  0  0  0  0  0  0  0  0
    2.2205   -1.5176   -1.4616 H   0  0  0  0  0  0  0  0  0  0  0  0
    0.7815   -2.9449   -0.8637 C   0  0  0  0  0  0  0  0  0  0  0  0
   -0.1121   -3.6262   -1.3416 O   0  0  0  0  0  0  0  0  0  0  0  0
    1.4718   -3.2700    0.2538 O   0  0  0  0  0  0  0  0  0  0  0  0
    0.9604   -3.9799    0.6778 H   0  0  0  0  0  0  0  0  0  0  0  0
   -0.4691    1.0642    0.8229 C   0  0  0  0  0  0  0  0  0  0  0  0
   -1.3637    1.7074    0.2852 O   0  0  0  0  0  0  0  0  0  0  0  0
    0.3275    1.6742    1.7738 N   0  0  0  0  0  0  0  0  0  0  0  0
    1.0122    1.0962    2.2530 H   0  0  0  0  0  0  0  0  0  0  0  0
    0.1235    3.0457    2.2247 C   0  0  0  0  0  0  0  0  0  0  0  0
   -0.8668    3.1566    2.6790 H   0  0  0  0  0  0  0  0  0  0  0  0
    0.8783    3.3155    2.9697 H   0  0  0  0  0  0  0  0  0  0  0  0
    0.2051    3.7423    1.3835 H   0  0  0  0  0  0  0  0  0  0  0  0
  1  2  1  0  0  0  0
  2  3  1  0  0  0  0
  2  4  1  0  0  0  0
  2  5  1  0  0  0  0
  5  6  2  0  0  0  0
  5  7  1  0  0  0  0
  7  8  1  0  0  0  0
  7  9  1  0  0  0  0
  9 10  1  0  0  0  0
  9 11  1  0  0  0  0
  9 21  1  0  0  0  0
 11 12  1  0  0  0  0
 11 13  1  0  0  0  0
 11 14  1  0  0  0  0
 14 15  1  0  0  0  0
 14 16  1  0  0  0  0
 14 17  1  0  0  0  0
 17 18  2  0  0  0  0
 17 19  1  0  0  0  0
 19 20  1  0  0  0  0
 21 22  2  0  0  0  0
 21 23  1  0  0  0  0
 23 24  1  0  0  0  0
 23 25  1  0  0  0  0
 25 26  1  0  0  0  0
 25 27  1  0  0  0  0
 25 28  1  0  0  0  0
M  END
$$$$

  -OEChem-02102214123D

 28 27  0     1  0  0  0  0  0999 V2000
   -3.2252   -3.9171    1.3979 H   0  0  0  0  0  0  0  0  0  0  0  0
   -3.2034   -2.9574    0.8743 C   0  0  0  0  0  0  0  0  0  0  0  0
   -3.9956   -2.3187    1.2714 H   0  0  0  0  0  0  0  0  0  0  0  0
   -3.3837   -3.1343   -0.1891 H   0  0  0  0  0  0  0  0  0  0  0  0
   -1.8544   -2.2909    1.0623 C   0  0  0  0  0  0  0  0  0  0  0  0
   -1.0076   -2.7948    1.7853 O   0  0  0  0  0  0  0  0  0  0  0  0
   -1.5998   -1.0618    0.4884 N   0  0  0  0  0  0  0  0  0  0  0  0
   -2.3501   -0.6395   -0.0548 H   0  0  0  0  0  0  0  0  0  0  0  0
   -0.2717   -0.4341    0.4174 C   0  0  1  0  0  0  0  0  0  0  0  0
    0.4397   -0.9225    1.0904 H   0  0  0  0  0  0  0  0  0  0  0  0
    0.2885   -0.4206   -1.0302 C   0  0  0  0  0  0  0  0  0  0  0  0
   -0.5195   -0.0632   -1.6794 H   0  0  0  0  0  0  0  0  0  0  0  0
    1.0905    0.3239   -1.0915 H   0  0  0  0  0  0  0  0  0  0  0  0
    0.8328   -1.7281   -1.6569 C   0  0  0  0  0  0  0  0  0  0  0  0
    0.7369   -1.6614   -2.7451 H   0  0  0  0  0  0  0  0  0  0  0  0
    1.9024   -1.7833   -1.4390 H   0  0  0  0  0  0  0  0  0  0  0  0
    0.2126   -3.0472   -1.2066 C   0  0  0  0  0  0  0  0  0  0  0  0
   -0.8669   -3.3410   -1.6970 O   0  0  0  0  0  0  0  0  0  0  0  0
    0.9201   -3.8469   -0.3646 O   0  0  0  0  0  0  0  0  0  0  0  0
    1.6963   -3.3718   -0.0450 H   0  0  0  0  0  0  0  0  0  0  0  0
   -0.4021    1.0509    0.8246 C   0  0  0  0  0  0  0  0  0  0  0  0
   -1.2779    1.7527    0.3319 O   0  0  0  0  0  0  0  0  0  0  0  0
    0.5091    1.6193    1.6958 N   0  0  0  0  0  0  0  0  0  0  0  0
    1.1559    0.9940    2.1677 H   0  0  0  0  0  0  0  0  0  0  0  0
    0.4139    3.0015    2.1504 C   0  0  0  0  0  0  0  0  0  0  0  0
   -0.5234    3.1619    2.6936 H   0  0  0  0  0  0  0  0  0  0  0  0
    1.2470    3.2391    2.8187 H   0  0  0  0  0  0  0  0  0  0  0  0
    0.4494    3.6890    1.2987 H   0  0  0  0  0  0  0  0  0  0  0  0
  1  2  1  0  0  0  0
  2  3  1  0  0  0  0
  2  4  1  0  0  0  0
  2  5  1  0  0  0  0
  5  6  2  0  0  0  0
  5  7  1  0  0  0  0
  7  8  1  0  0  0  0
  7  9  1  0  0  0  0
  9 10  1  0  0  0  0
  9 11  1  0  0  0  0
  9 21  1  0  0  0  0
 11 12  1  0  0  0  0
 11 13  1  0  0  0  0
 11 14  1  0  0  0  0
 14 15  1  0  0  0  0
 14 16  1  0  0  0  0
 14 17  1  0  0  0  0
 17 18  2  0  0  0  0
 17 19  1  0  0  0  0
 19 20  1  0  0  0  0
 21 22  2  0  0  0  0
 21 23  1  0  0  0  0
 23 24  1  0  0  0  0
 23 25  1  0  0  0  0
 25 26  1  0  0  0  0
 25 27  1  0  0  0  0
 25 28  1  0  0  0  0
M  END
$$$$

  -OEChem-02102214123D

 28 27  0     1  0  0  0  0  0999 V2000
   -3.3929   -3.7200    1.3272 H   0  0  0  0  0  0  0  0  0  0  0  0
   -3.3031   -2.7563    0.8187 C   0  0  0  0  0  0  0  0  0  0  0  0
   -4.0229   -2.0589    1.2533 H   0  0  0  0  0  0  0  0  0  0  0  0
   -3.5332   -2.8948   -0.2408 H   0  0  0  0  0  0  0  0  0  0  0  0
   -1.8960   -2.2120    0.9726 C   0  0  0  0  0  0  0  0  0  0  0  0
   -1.0736   -2.8230    1.6372 O   0  0  0  0  0  0  0  0  0  0  0  0
   -1.5590   -1.0124    0.3818 N   0  0  0  0  0  0  0  0  0  0  0  0
   -2.2984   -0.5210   -0.1172 H   0  0  0  0  0  0  0  0  0  0  0  0
   -0.2245   -0.3922    0.3695 C   0  0  1  0  0  0  0  0  0  0  0  0
    0.4213   -0.8587    1.1207 H   0  0  0  0  0  0  0  0  0  0  0  0
    0.4611   -0.4759   -1.0206 C   0  0  0  0  0  0  0  0  0  0  0  0
   -0.2758   -0.1624   -1.7691 H   0  0  0  0  0  0  0  0  0  0  0  0
    1.2778    0.2536   -1.0543 H   0  0  0  0  0  0  0  0  0  0  0  0
    1.0465   -1.8341   -1.4733 C   0  0  0  0  0  0  0  0  0  0  0  0
    1.2979   -1.7753   -2.5357 H   0  0  0  0  0  0  0  0  0  0  0  0
    1.9815   -1.9928   -0.9285 H   0  0  0  0  0  0  0  0  0  0  0  0
    0.1880   -3.0734   -1.2600 C   0  0  0  0  0  0  0  0  0  0  0  0
   -0.9104   -3.1288   -1.7916 O   0  0  0  0  0  0  0  0  0  0  0  0
    0.7172   -4.0727   -0.5169 O   0  0  0  0  0  0  0  0  0  0  0  0
    0.0092   -4.7221   -0.3932 H   0  0  0  0  0  0  0  0  0  0  0  0
   -0.3611    1.1078    0.7067 C   0  0  0  0  0  0  0  0  0  0  0  0
   -1.2295    1.7839    0.1669 O   0  0  0  0  0  0  0  0  0  0  0  0
    0.5016    1.7045    1.6074 N   0  0  0  0  0  0  0  0  0  0  0  0
    1.1638    1.1045    2.0911 H   0  0  0  0  0  0  0  0  0  0  0  0
    0.4035    3.1060    1.9979 C   0  0  0  0  0  0  0  0  0  0  0  0
   -0.5680    3.3086    2.4610 H   0  0  0  0  0  0  0  0  0  0  0  0
    1.1889    3.3538    2.7185 H   0  0  0  0  0  0  0  0  0  0  0  0
    0.5191    3.7565    1.1245 H   0  0  0  0  0  0  0  0  0  0  0  0
  1  2  1  0  0  0  0
  2  3  1  0  0  0  0
  2  4  1  0  0  0  0
  2  5  1  0  0  0  0
  5  6  2  0  0  0  0
  5  7  1  0  0  0  0
  7  8  1  0  0  0  0
  7  9  1  0  0  0  0
  9 10  1  0  0  0  0
  9 11  1  0  0  0  0
  9 21  1  0  0  0  0
 11 12  1  0  0  0  0
 11 13  1  0  0  0  0
 11 14  1  0  0  0  0
 14 15  1  0  0  0  0
 14 16  1  0  0  0  0
 14 17  1  0  0  0  0
 17 18  2  0  0  0  0
 17 19  1  0  0  0  0
 19 20  1  0  0  0  0
 21 22  2  0  0  0  0
 21 23  1  0  0  0  0
 23 24  1  0  0  0  0
 23 25  1  0  0  0  0
 25 26  1  0  0  0  0
 25 27  1  0  0  0  0
 25 28  1  0  0  0  0
M  END
$$$$

  -OEChem-02102214123D

 28 27  0     1  0  0  0  0  0999 V2000
   -3.2871   -3.7708    1.3367 H   0  0  0  0  0  0  0  0  0  0  0  0
   -3.2355   -2.7963    0.8438 C   0  0  0  0  0  0  0  0  0  0  0  0
   -3.9485   -2.1204    1.3218 H   0  0  0  0  0  0  0  0  0  0  0  0
   -3.5079   -2.9183   -0.2076 H   0  0  0  0  0  0  0  0  0  0  0  0
   -1.8328   -2.2292    0.9494 C   0  0  0  0  0  0  0  0  0  0  0  0
   -0.9648   -2.8474    1.5457 O   0  0  0  0  0  0  0  0  0  0  0  0
   -1.5425   -1.0114    0.3724 N   0  0  0  0  0  0  0  0  0  0  0  0
   -2.3058   -0.5233   -0.0931 H   0  0  0  0  0  0  0  0  0  0  0  0
   -0.2203   -0.3700    0.3403 C   0  0  1  0  0  0  0  0  0  0  0  0
    0.4480   -0.8371    1.0710 H   0  0  0  0  0  0  0  0  0  0  0  0
    0.4284   -0.4480   -1.0638 C   0  0  0  0  0  0  0  0  0  0  0  0
   -0.3135   -0.1342   -1.8071 H   0  0  0  0  0  0  0  0  0  0  0  0
    1.2498    0.2755   -1.1075 H   0  0  0  0  0  0  0  0  0  0  0  0
    1.0039   -1.8202   -1.4832 C   0  0  0  0  0  0  0  0  0  0  0  0
    1.4618   -1.7235   -2.4712 H   0  0  0  0  0  0  0  0  0  0  0  0
    1.7982   -2.0867   -0.7801 H   0  0  0  0  0  0  0  0  0  0  0  0
    0.0255   -2.9902   -1.5419 C   0  0  0  0  0  0  0  0  0  0  0  0
   -1.0760   -2.8251   -2.0439 O   0  0  0  0  0  0  0  0  0  0  0  0
    0.4640   -4.1816   -1.0744 O   0  0  0  0  0  0  0  0  0  0  0  0
   -0.2853   -4.7909   -1.1425 H   0  0  0  0  0  0  0  0  0  0  0  0
   -0.3623    1.1215    0.7093 C   0  0  0  0  0  0  0  0  0  0  0  0
   -1.2540    1.7976    0.2094 O   0  0  0  0  0  0  0  0  0  0  0  0
    0.5176    1.7098    1.5990 N   0  0  0  0  0  0  0  0  0  0  0  0
    1.2001    1.1083    2.0515 H   0  0  0  0  0  0  0  0  0  0  0  0
    0.4106    3.1002    2.0250 C   0  0  0  0  0  0  0  0  0  0  0  0
   -0.5552    3.2796    2.5092 H   0  0  0  0  0  0  0  0  0  0  0  0
    1.2049    3.3397    2.7384 H   0  0  0  0  0  0  0  0  0  0  0  0
    0.5040    3.7730    1.1659 H   0  0  0  0  0  0  0  0  0  0  0  0
  1  2  1  0  0  0  0
  2  3  1  0  0  0  0
  2  4  1  0  0  0  0
  2  5  1  0  0  0  0
  5  6  2  0  0  0  0
  5  7  1  0  0  0  0
  7  8  1  0  0  0  0
  7  9  1  0  0  0  0
  9 10  1  0  0  0  0
  9 11  1  0  0  0  0
  9 21  1  0  0  0  0
 11 12  1  0  0  0  0
 11 13  1  0  0  0  0
 11 14  1  0  0  0  0
 14 15  1  0  0  0  0
 14 16  1  0  0  0  0
 14 17  1  0  0  0  0
 17 18  2  0  0  0  0
 17 19  1  0  0  0  0
 19 20  1  0  0  0  0
 21 22  2  0  0  0  0
 21 23  1  0  0  0  0
 23 24  1  0  0  0  0
 23 25  1  0  0  0  0
 25 26  1  0  0  0  0
 25 27  1  0  0  0  0
 25 28  1  0  0  0  0
M  END
$$$$

  -OEChem-02102214123D

 28 27  0     1  0  0  0  0  0999 V2000
   -3.2207   -3.8021    1.2778 H   0  0  0  0  0  0  0  0  0  0  0  0
   -3.1872   -2.8214    0.7957 C   0  0  0  0  0  0  0  0  0  0  0  0
   -3.9035   -2.1603    1.2893 H   0  0  0  0  0  0  0  0  0  0  0  0
   -3.4689   -2.9340   -0.2543 H   0  0  0  0  0  0  0  0  0  0  0  0
   -1.7914   -2.2371    0.8934 C   0  0  0  0  0  0  0  0  0  0  0  0
   -0.9033   -2.8580    1.4569 O   0  0  0  0  0  0  0  0  0  0  0  0
   -1.5249   -1.0065    0.3329 N   0  0  0  0  0  0  0  0  0  0  0  0
   -2.2966   -0.5208   -0.1213 H   0  0  0  0  0  0  0  0  0  0  0  0
   -0.2128   -0.3466    0.3179 C   0  0  1  0  0  0  0  0  0  0  0  0
    0.4561   -0.8107    1.0499 H   0  0  0  0  0  0  0  0  0  0  0  0
    0.4264   -0.4372   -1.0853 C   0  0  0  0  0  0  0  0  0  0  0  0
   -0.2993   -0.1215   -1.8435 H   0  0  0  0  0  0  0  0  0  0  0  0
    1.2588    0.2734   -1.1274 H   0  0  0  0  0  0  0  0  0  0  0  0
    0.9923   -1.8322   -1.4366 C   0  0  0  0  0  0  0  0  0  0  0  0
    1.6572   -1.7321   -2.2984 H   0  0  0  0  0  0  0  0  0  0  0  0
    1.5952   -2.1936   -0.5986 H   0  0  0  0  0  0  0  0  0  0  0  0
   -0.0355   -2.9103   -1.7855 C   0  0  0  0  0  0  0  0  0  0  0  0
   -1.1192   -2.5950   -2.2532 O   0  0  0  0  0  0  0  0  0  0  0  0
    0.3456   -4.1938   -1.5925 O   0  0  0  0  0  0  0  0  0  0  0  0
   -0.4144   -4.7394   -1.8418 H   0  0  0  0  0  0  0  0  0  0  0  0
   -0.3642    1.1395    0.7036 C   0  0  0  0  0  0  0  0  0  0  0  0
   -1.2601    1.8150    0.2110 O   0  0  0  0  0  0  0  0  0  0  0  0
    0.5079    1.7236    1.6037 N   0  0  0  0  0  0  0  0  0  0  0  0
    1.1996    1.1242    2.0446 H   0  0  0  0  0  0  0  0  0  0  0  0
    0.3958    3.1108    2.0386 C   0  0  0  0  0  0  0  0  0  0  0  0
   -0.5744    3.2863    2.5157 H   0  0  0  0  0  0  0  0  0  0  0  0
    1.1839    3.3460    2.7607 H   0  0  0  0  0  0  0  0  0  0  0  0
    0.4961    3.7897    1.1850 H   0  0  0  0  0  0  0  0  0  0  0  0
  1  2  1  0  0  0  0
  2  3  1  0  0  0  0
  2  4  1  0  0  0  0
  2  5  1  0  0  0  0
  5  6  2  0  0  0  0
  5  7  1  0  0  0  0
  7  8  1  0  0  0  0
  7  9  1  0  0  0  0
  9 10  1  0  0  0  0
  9 11  1  0  0  0  0
  9 21  1  0  0  0  0
 11 12  1  0  0  0  0
 11 13  1  0  0  0  0
 11 14  1  0  0  0  0
 14 15  1  0  0  0  0
 14 16  1  0  0  0  0
 14 17  1  0  0  0  0
 17 18  2  0  0  0  0
 17 19  1  0  0  0  0
 19 20  1  0  0  0  0
 21 22  2  0  0  0  0
 21 23  1  0  0  0  0
 23 24  1  0  0  0  0
 23 25  1  0  0  0  0
 25 26  1  0  0  0  0
 25 27  1  0  0  0  0
 25 28  1  0  0  0  0
M  END
$$$$

  -OEChem-02102214123D

 28 27  0     1  0  0  0  0  0999 V2000
   -3.1916   -3.8098    1.2262 H   0  0  0  0  0  0  0  0  0  0  0  0
   -3.1609   -2.8267    0.7485 C   0  0  0  0  0  0  0  0  0  0  0  0
   -3.8908   -2.1747    1.2340 H   0  0  0  0  0  0  0  0  0  0  0  0
   -3.4260   -2.9382   -0.3059 H   0  0  0  0  0  0  0  0  0  0  0  0
   -1.7728   -2.2285    0.8683 C   0  0  0  0  0  0  0  0  0  0  0  0
   -0.8840   -2.8442    1.4371 O   0  0  0  0  0  0  0  0  0  0  0  0
   -1.5120   -0.9946    0.3130 N   0  0  0  0  0  0  0  0  0  0  0  0
   -2.2803   -0.5187   -0.1565 H   0  0  0  0  0  0  0  0  0  0  0  0
   -0.2048   -0.3266    0.3144 C   0  0  1  0  0  0  0  0  0  0  0  0
    0.4614   -0.7856    1.0517 H   0  0  0  0  0  0  0  0  0  0  0  0
    0.4225   -0.4410   -1.0888 C   0  0  0  0  0  0  0  0  0  0  0  0
   -0.2930   -0.1235   -1.8558 H   0  0  0  0  0  0  0  0  0  0  0  0
    1.2654    0.2566   -1.1385 H   0  0  0  0  0  0  0  0  0  0  0  0
    0.9729   -1.8565   -1.3845 C   0  0  0  0  0  0  0  0  0  0  0  0
    1.8142   -1.7583   -2.0756 H   0  0  0  0  0  0  0  0  0  0  0  0
    1.3592   -2.3059   -0.4650 H   0  0  0  0  0  0  0  0  0  0  0  0
   -0.0106   -2.8394   -2.0275 C   0  0  0  0  0  0  0  0  0  0  0  0
   -1.1299   -2.4793   -2.3586 O   0  0  0  0  0  0  0  0  0  0  0  0
    0.4494   -4.0967   -2.2205 O   0  0  0  0  0  0  0  0  0  0  0  0
   -0.2825   -4.5892   -2.6205 H   0  0  0  0  0  0  0  0  0  0  0  0
   -0.3577    1.1588    0.6997 C   0  0  0  0  0  0  0  0  0  0  0  0
   -1.2460    1.8359    0.1958 O   0  0  0  0  0  0  0  0  0  0  0  0
    0.5062    1.7414    1.6087 N   0  0  0  0  0  0  0  0  0  0  0  0
    1.1874    1.1395    2.0624 H   0  0  0  0  0  0  0  0  0  0  0  0
    0.3905    3.1289    2.0414 C   0  0  0  0  0  0  0  0  0  0  0  0
   -0.5822    3.3031    2.5136 H   0  0  0  0  0  0  0  0  0  0  0  0
    1.1746    3.3664    2.7666 H   0  0  0  0  0  0  0  0  0  0  0  0
    0.4940    3.8062    1.1870 H   0  0  0  0  0  0  0  0  0  0  0  0
  1  2  1  0  0  0  0
  2  3  1  0  0  0  0
  2  4  1  0  0  0  0
  2  5  1  0  0  0  0
  5  6  2  0  0  0  0
  5  7  1  0  0  0  0
  7  8  1  0  0  0  0
  7  9  1  0  0  0  0
  9 10  1  0  0  0  0
  9 11  1  0  0  0  0
  9 21  1  0  0  0  0
 11 12  1  0  0  0  0
 11 13  1  0  0  0  0
 11 14  1  0  0  0  0
 14 15  1  0  0  0  0
 14 16  1  0  0  0  0
 14 17  1  0  0  0  0
 17 18  2  0  0  0  0
 17 19  1  0  0  0  0
 19 20  1  0  0  0  0
 21 22  2  0  0  0  0
 21 23  1  0  0  0  0
 23 24  1  0  0  0  0
 23 25  1  0  0  0  0
 25 26  1  0  0  0  0
 25 27  1  0  0  0  0
 25 28  1  0  0  0  0
M  END
$$$$

  -OEChem-02102214123D

 28 27  0     1  0  0  0  0  0999 V2000
   -3.1968   -3.8055    1.2090 H   0  0  0  0  0  0  0  0  0  0  0  0
   -3.1608   -2.8270    0.7223 C   0  0  0  0  0  0  0  0  0  0  0  0
   -3.9168   -2.1796    1.1727 H   0  0  0  0  0  0  0  0  0  0  0  0
   -3.3845   -2.9535   -0.3400 H   0  0  0  0  0  0  0  0  0  0  0  0
   -1.7852   -2.2108    0.8877 C   0  0  0  0  0  0  0  0  0  0  0  0
   -0.9190   -2.8013    1.5156 O   0  0  0  0  0  0  0  0  0  0  0  0
   -1.5109   -0.9871    0.3155 N   0  0  0  0  0  0  0  0  0  0  0  0
   -2.2583   -0.5367   -0.2092 H   0  0  0  0  0  0  0  0  0  0  0  0
   -0.2001   -0.3254    0.3303 C   0  0  1  0  0  0  0  0  0  0  0  0
    0.4552   -0.7755    1.0832 H   0  0  0  0  0  0  0  0  0  0  0  0
    0.4320   -0.4764   -1.0659 C   0  0  0  0  0  0  0  0  0  0  0  0
   -0.2786   -0.1707   -1.8423 H   0  0  0  0  0  0  0  0  0  0  0  0
    1.2809    0.2129   -1.1305 H   0  0  0  0  0  0  0  0  0  0  0  0
    0.9666   -1.9070   -1.3179 C   0  0  0  0  0  0  0  0  0  0  0  0
    1.9544   -1.8252   -1.7799 H   0  0  0  0  0  0  0  0  0  0  0  0
    1.0978   -2.4451   -0.3750 H   0  0  0  0  0  0  0  0  0  0  0  0
    0.1026   -2.7606   -2.2504 C   0  0  0  0  0  0  0  0  0  0  0  0
   -1.0965   -2.5492   -2.3467 O   0  0  0  0  0  0  0  0  0  0  0  0
    0.7403   -3.7359   -2.9379 O   0  0  0  0  0  0  0  0  0  0  0  0
    0.0570   -4.1807   -3.4615 H   0  0  0  0  0  0  0  0  0  0  0  0
   -0.3449    1.1680    0.6868 C   0  0  0  0  0  0  0  0  0  0  0  0
   -1.2084    1.8490    0.1463 O   0  0  0  0  0  0  0  0  0  0  0  0
    0.5093    1.7567    1.6010 N   0  0  0  0  0  0  0  0  0  0  0  0
    1.1659    1.1520    2.0861 H   0  0  0  0  0  0  0  0  0  0  0  0
    0.3966    3.1504    2.0140 C   0  0  0  0  0  0  0  0  0  0  0  0
   -0.5708    3.3303    2.4946 H   0  0  0  0  0  0  0  0  0  0  0  0
    1.1891    3.3997    2.7262 H   0  0  0  0  0  0  0  0  0  0  0  0
    0.4895    3.8156    1.1490 H   0  0  0  0  0  0  0  0  0  0  0  0
  1  2  1  0  0  0  0
  2  3  1  0  0  0  0
  2  4  1  0  0  0  0
  2  5  1  0  0  0  0
  5  6  2  0  0  0  0
  5  7  1  0  0  0  0
  7  8  1  0  0  0  0
  7  9  1  0  0  0  0
  9 10  1  0  0  0  0
  9 11  1  0  0  0  0
  9 21  1  0  0  0  0
 11 12  1  0  0  0  0
 11 13  1  0  0  0  0
 11 14  1  0  0  0  0
 14 15  1  0  0  0  0
 14 16  1  0  0  0  0
 14 17  1  0  0  0  0
 17 18  2  0  0  0  0
 17 19  1  0  0  0  0
 19 20  1  0  0  0  0
 21 22  2  0  0  0  0
 21 23  1  0  0  0  0
 23 24  1  0  0  0  0
 23 25  1  0  0  0  0
 25 26  1  0  0  0  0
 25 27  1  0  0  0  0
 25 28  1  0  0  0  0
M  END
$$$$

  -OEChem-02102214123D

 28 27  0     1  0  0  0  0  0999 V2000
   -3.2497   -3.7765    1.2197 H   0  0  0  0  0  0  0  0  0  0  0  0
   -3.1864   -2.8107    0.7108 C   0  0  0  0  0  0  0  0  0  0  0  0
   -3.9510   -2.1453    1.1187 H   0  0  0  0  0  0  0  0  0  0  0  0
   -3.3745   -2.9618   -0.3553 H   0  0  0  0  0  0  0  0  0  0  0  0
   -1.8108   -2.2037    0.9090 C   0  0  0  0  0  0  0  0  0  0  0  0
   -0.9796   -2.7781    1.5962 O   0  0  0  0  0  0  0  0  0  0  0  0
   -1.5040   -0.9978    0.3152 N   0  0  0  0  0  0  0  0  0  0  0  0
   -2.2352   -0.5457   -0.2302 H   0  0  0  0  0  0  0  0  0  0  0  0
   -0.1848   -0.3503    0.3459 C   0  0  1  0  0  0  0  0  0  0  0  0
    0.4533   -0.7942    1.1169 H   0  0  0  0  0  0  0  0  0  0  0  0
    0.4619   -0.5362   -1.0382 C   0  0  0  0  0  0  0  0  0  0  0  0
   -0.2534   -0.2514   -1.8189 H   0  0  0  0  0  0  0  0  0  0  0  0
    1.3132    0.1476   -1.1264 H   0  0  0  0  0  0  0  0  0  0  0  0
    0.9778   -1.9775   -1.2536 C   0  0  0  0  0  0  0  0  0  0  0  0
    2.0563   -1.9462   -1.4325 H   0  0  0  0  0  0  0  0  0  0  0  0
    0.8198   -2.5949   -0.3654 H   0  0  0  0  0  0  0  0  0  0  0  0
    0.3098   -2.6630   -2.4423 C   0  0  0  0  0  0  0  0  0  0  0  0
   -0.9053   -2.7829   -2.4454 O   0  0  0  0  0  0  0  0  0  0  0  0
    1.1062   -3.0981   -3.4461 O   0  0  0  0  0  0  0  0  0  0  0  0
    0.5137   -3.5032   -4.0973 H   0  0  0  0  0  0  0  0  0  0  0  0
   -0.3204    1.1528    0.6630 C   0  0  0  0  0  0  0  0  0  0  0  0
   -1.1668    1.8269    0.0877 O   0  0  0  0  0  0  0  0  0  0  0  0
    0.5174    1.7562    1.5829 N   0  0  0  0  0  0  0  0  0  0  0  0
    1.1547    1.1573    2.1001 H   0  0  0  0  0  0  0  0  0  0  0  0
    0.4023    3.1590    1.9647 C   0  0  0  0  0  0  0  0  0  0  0  0
   -0.5583    3.3441    2.4568 H   0  0  0  0  0  0  0  0  0  0  0  0
    1.2050    3.4304    2.6570 H   0  0  0  0  0  0  0  0  0  0  0  0
    0.4763    3.8045    1.0830 H   0  0  0  0  0  0  0  0  0  0  0  0
  1  2  1  0  0  0  0
  2  3  1  0  0  0  0
  2  4  1  0  0  0  0
  2  5  1  0  0  0  0
  5  6  2  0  0  0  0
  5  7  1  0  0  0  0
  7  8  1  0  0  0  0
  7  9  1  0  0  0  0
  9 10  1  0  0  0  0
  9 11  1  0  0  0  0
  9 21  1  0  0  0  0
 11 12  1  0  0  0  0
 11 13  1  0  0  0  0
 11 14  1  0  0  0  0
 14 15  1  0  0  0  0
 14 16  1  0  0  0  0
 14 17  1  0  0  0  0
 17 18  2  0  0  0  0
 17 19  1  0  0  0  0
 19 20  1  0  0  0  0
 21 22  2  0  0  0  0
 21 23  1  0  0  0  0
 23 24  1  0  0  0  0
 23 25  1  0  0  0  0
 25 26  1  0  0  0  0
 25 27  1  0  0  0  0
 25 28  1  0  0  0  0
M  END
$$$$

  -OEChem-02102214123D

 28 27  0     1  0  0  0  0  0999 V2000
   -3.3287   -3.7230    1.2846 H   0  0  0  0  0  0  0  0  0  0  0  0
   -3.2397   -2.7755    0.7459 C   0  0  0  0  0  0  0  0  0  0  0  0
   -3.9804   -2.0748    1.1388 H   0  0  0  0  0  0  0  0  0  0  0  0
   -3.4409   -2.9527   -0.3138 H   0  0  0  0  0  0  0  0  0  0  0  0
   -1.8445   -2.2061    0.9165 C   0  0  0  0  0  0  0  0  0  0  0  0
   -1.0176   -2.7995    1.5919 O   0  0  0  0  0  0  0  0  0  0  0  0
   -1.5172   -1.0087    0.3161 N   0  0  0  0  0  0  0  0  0  0  0  0
   -2.2549   -0.5207   -0.1887 H   0  0  0  0  0  0  0  0  0  0  0  0
   -0.1887   -0.3782    0.3440 C   0  0  1  0  0  0  0  0  0  0  0  0
    0.4423   -0.8272    1.1184 H   0  0  0  0  0  0  0  0  0  0  0  0
    0.4709   -0.5642   -1.0351 C   0  0  0  0  0  0  0  0  0  0  0  0
   -0.2554   -0.2870   -1.8084 H   0  0  0  0  0  0  0  0  0  0  0  0
    1.3187    0.1221   -1.1356 H   0  0  0  0  0  0  0  0  0  0  0  0
    0.9801   -2.0044   -1.2611 C   0  0  0  0  0  0  0  0  0  0  0  0
    2.0667   -2.0322   -1.1426 H   0  0  0  0  0  0  0  0  0  0  0  0
    0.5604   -2.6913   -0.5226 H   0  0  0  0  0  0  0  0  0  0  0  0
    0.6076   -2.5251   -2.6442 C   0  0  0  0  0  0  0  0  0  0  0  0
   -0.5598   -2.8003   -2.8675 O   0  0  0  0  0  0  0  0  0  0  0  0
    1.5923   -2.6340   -3.5659 O   0  0  0  0  0  0  0  0  0  0  0  0
    1.1660   -2.9702   -4.3688 H   0  0  0  0  0  0  0  0  0  0  0  0
   -0.3121    1.1281    0.6519 C   0  0  0  0  0  0  0  0  0  0  0  0
   -1.1596    1.8026    0.0787 O   0  0  0  0  0  0  0  0  0  0  0  0
    0.5288    1.7303    1.5694 N   0  0  0  0  0  0  0  0  0  0  0  0
    1.1679    1.1312    2.0843 H   0  0  0  0  0  0  0  0  0  0  0  0
    0.4288    3.1374    1.9384 C   0  0  0  0  0  0  0  0  0  0  0  0
   -0.5457    3.3458    2.3925 H   0  0  0  0  0  0  0  0  0  0  0  0
    1.2099    3.3962    2.6598 H   0  0  0  0  0  0  0  0  0  0  0  0
    0.5497    3.7751    1.0562 H   0  0  0  0  0  0  0  0  0  0  0  0
  1  2  1  0  0  0  0
  2  3  1  0  0  0  0
  2  4  1  0  0  0  0
  2  5  1  0  0  0  0
  5  6  2  0  0  0  0
  5  7  1  0  0  0  0
  7  8  1  0  0  0  0
  7  9  1  0  0  0  0
  9 10  1  0  0  0  0
  9 11  1  0  0  0  0
  9 21  1  0  0  0  0
 11 12  1  0  0  0  0
 11 13  1  0  0  0  0
 11 14  1  0  0  0  0
 14 15  1  0  0  0  0
 14 16  1  0  0  0  0
 14 17  1  0  0  0  0
 17 18  2  0  0  0  0
 17 19  1  0  0  0  0
 19 20  1  0  0  0  0
 21 22  2  0  0  0  0
 21 23  1  0  0  0  0
 23 24  1  0  0  0  0
 23 25  1  0  0  0  0
 25 26  1  0  0  0  0
 25 27  1  0  0  0  0
 25 28  1  0  0  0  0
M  END
$$$$

  -OEChem-02102214123D

 28 27  0     1  0  0  0  0  0999 V2000
   -3.1504   -3.8351    1.2335 H   0  0  0  0  0  0  0  0  0  0  0  0
   -3.1194   -2.8536    0.7522 C   0  0  0  0  0  0  0  0  0  0  0  0
   -3.8352   -2.1943    1.2490 H   0  0  0  0  0  0  0  0  0  0  0  0
   -3.4053   -2.9669   -0.2964 H   0  0  0  0  0  0  0  0  0  0  0  0
   -1.7230   -2.2690    0.8462 C   0  0  0  0  0  0  0  0  0  0  0  0
   -0.8449   -2.8731    1.4418 O   0  0  0  0  0  0  0  0  0  0  0  0
   -1.4536   -1.0446    0.2713 N   0  0  0  0  0  0  0  0  0  0  0  0
   -2.2382   -0.5284   -0.1242 H   0  0  0  0  0  0  0  0  0  0  0  0
   -0.1539   -0.3561    0.3107 C   0  0  1  0  0  0  0  0  0  0  0  0
    0.4937   -0.7914    1.0789 H   0  0  0  0  0  0  0  0  0  0  0  0
    0.5355   -0.4661   -1.0623 C   0  0  0  0  0  0  0  0  0  0  0  0
   -0.2007   -0.2166   -1.8355 H   0  0  0  0  0  0  0  0  0  0  0  0
    1.3437    0.2697   -1.1395 H   0  0  0  0  0  0  0  0  0  0  0  0
    1.1223   -1.8685   -1.3271 C   0  0  0  0  0  0  0  0  0  0  0  0
    2.1392   -1.9323   -0.9312 H   0  0  0  0  0  0  0  0  0  0  0  0
    0.5277   -2.6300   -0.8175 H   0  0  0  0  0  0  0  0  0  0  0  0
    1.1299   -2.2146   -2.8127 C   0  0  0  0  0  0  0  0  0  0  0  0
    1.6367   -1.4246   -3.5918 O   0  0  0  0  0  0  0  0  0  0  0  0
    0.5640   -3.3826   -3.1953 O   0  0  0  0  0  0  0  0  0  0  0  0
    0.6671   -3.4239   -4.1579 H   0  0  0  0  0  0  0  0  0  0  0  0
   -0.3556    1.1340    0.6539 C   0  0  0  0  0  0  0  0  0  0  0  0
   -1.2666    1.7630    0.1279 O   0  0  0  0  0  0  0  0  0  0  0  0
    0.4535    1.7593    1.5843 N   0  0  0  0  0  0  0  0  0  0  0  0
    1.1548    1.1940    2.0543 H   0  0  0  0  0  0  0  0  0  0  0  0
    0.2745    3.1473    1.9934 C   0  0  0  0  0  0  0  0  0  0  0  0
   -0.6948    3.2796    2.4855 H   0  0  0  0  0  0  0  0  0  0  0  0
    1.0621    3.4402    2.6943 H   0  0  0  0  0  0  0  0  0  0  0  0
    0.3221    3.8128    1.1248 H   0  0  0  0  0  0  0  0  0  0  0  0
  1  2  1  0  0  0  0
  2  3  1  0  0  0  0
  2  4  1  0  0  0  0
  2  5  1  0  0  0  0
  5  6  2  0  0  0  0
  5  7  1  0  0  0  0
  7  8  1  0  0  0  0
  7  9  1  0  0  0  0
  9 10  1  0  0  0  0
  9 11  1  0  0  0  0
  9 21  1  0  0  0  0
 11 12  1  0  0  0  0
 11 13  1  0  0  0  0
 11 14  1  0  0  0  0
 14 15  1  0  0  0  0
 14 16  1  0  0  0  0
 14 17  1  0  0  0  0
 17 18  2  0  0  0  0
 17 19  1  0  0  0  0
 19 20  1  0  0  0  0
 21 22  2  0  0  0  0
 21 23  1  0  0  0  0
 23 24  1  0  0  0  0
 23 25  1  0  0  0  0
 25 26  1  0  0  0  0
 25 27  1  0  0  0  0
 25 28  1  0  0  0  0
M  END
$$$$

  -OEChem-02102214123D

 28 27  0     1  0  0  0  0  0999 V2000
   -3.1898   -3.7853    1.2514 H   0  0  0  0  0  0  0  0  0  0  0  0
   -3.1576   -2.7979    0.7828 C   0  0  0  0  0  0  0  0  0  0  0  0
   -3.8345   -2.1299    1.3209 H   0  0  0  0  0  0  0  0  0  0  0  0
   -3.4935   -2.8890   -0.2529 H   0  0  0  0  0  0  0  0  0  0  0  0
   -1.7452   -2.2463    0.8221 C   0  0  0  0  0  0  0  0  0  0  0  0
   -0.8543   -2.8826    1.3626 O   0  0  0  0  0  0  0  0  0  0  0  0
   -1.4740   -1.0176    0.2579 N   0  0  0  0  0  0  0  0  0  0  0  0
   -2.2643   -0.4743   -0.0868 H   0  0  0  0  0  0  0  0  0  0  0  0
   -0.1672   -0.3428    0.2899 C   0  0  1  0  0  0  0  0  0  0  0  0
    0.4814   -0.7910    1.0496 H   0  0  0  0  0  0  0  0  0  0  0  0
    0.5119   -0.4500   -1.0877 C   0  0  0  0  0  0  0  0  0  0  0  0
   -0.2200   -0.1892   -1.8610 H   0  0  0  0  0  0  0  0  0  0  0  0
    1.3304    0.2752   -1.1562 H   0  0  0  0  0  0  0  0  0  0  0  0
    1.0794   -1.8603   -1.3545 C   0  0  0  0  0  0  0  0  0  0  0  0
    1.9690   -2.0260   -0.7414 H   0  0  0  0  0  0  0  0  0  0  0  0
    0.3395   -2.6123   -1.0703 H   0  0  0  0  0  0  0  0  0  0  0  0
    1.4305   -2.1061   -2.8215 C   0  0  0  0  0  0  0  0  0  0  0  0
    1.6951   -1.1582   -3.5430 O   0  0  0  0  0  0  0  0  0  0  0  0
    1.4406   -3.3900   -3.2474 O   0  0  0  0  0  0  0  0  0  0  0  0
    1.6846   -3.3565   -4.1846 H   0  0  0  0  0  0  0  0  0  0  0  0
   -0.3541    1.1444    0.6537 C   0  0  0  0  0  0  0  0  0  0  0  0
   -1.2786    1.7813    0.1616 O   0  0  0  0  0  0  0  0  0  0  0  0
    0.4705    1.7519    1.5824 N   0  0  0  0  0  0  0  0  0  0  0  0
    1.1828    1.1792    2.0262 H   0  0  0  0  0  0  0  0  0  0  0  0
    0.2892    3.1271    2.0319 C   0  0  0  0  0  0  0  0  0  0  0  0
   -0.6796    3.2428    2.5292 H   0  0  0  0  0  0  0  0  0  0  0  0
    1.0770    3.4011    2.7403 H   0  0  0  0  0  0  0  0  0  0  0  0
    0.3340    3.8174    1.1829 H   0  0  0  0  0  0  0  0  0  0  0  0
  1  2  1  0  0  0  0
  2  3  1  0  0  0  0
  2  4  1  0  0  0  0
  2  5  1  0  0  0  0
  5  6  2  0  0  0  0
  5  7  1  0  0  0  0
  7  8  1  0  0  0  0
  7  9  1  0  0  0  0
  9 10  1  0  0  0  0
  9 11  1  0  0  0  0
  9 21  1  0  0  0  0
 11 12  1  0  0  0  0
 11 13  1  0  0  0  0
 11 14  1  0  0  0  0
 14 15  1  0  0  0  0
 14 16  1  0  0  0  0
 14 17  1  0  0  0  0
 17 18  2  0  0  0  0
 17 19  1  0  0  0  0
 19 20  1  0  0  0  0
 21 22  2  0  0  0  0
 21 23  1  0  0  0  0
 23 24  1  0  0  0  0
 23 25  1  0  0  0  0
 25 26  1  0  0  0  0
 25 27  1  0  0  0  0
 25 28  1  0  0  0  0
M  END
$$$$

  -OEChem-02102214123D

 28 27  0     1  0  0  0  0  0999 V2000
   -3.2234   -3.7659    1.2872 H   0  0  0  0  0  0  0  0  0  0  0  0
   -3.1929   -2.7779    0.8190 C   0  0  0  0  0  0  0  0  0  0  0  0
   -3.8416   -2.1013    1.3805 H   0  0  0  0  0  0  0  0  0  0  0  0
   -3.5645   -2.8617   -0.2052 H   0  0  0  0  0  0  0  0  0  0  0  0
   -1.7724   -2.2461    0.8122 C   0  0  0  0  0  0  0  0  0  0  0  0
   -0.8698   -2.9030    1.3066 O   0  0  0  0  0  0  0  0  0  0  0  0
   -1.5058   -1.0147    0.2513 N   0  0  0  0  0  0  0  0  0  0  0  0
   -2.3015   -0.4584   -0.0587 H   0  0  0  0  0  0  0  0  0  0  0  0
   -0.1968   -0.3435    0.2757 C   0  0  1  0  0  0  0  0  0  0  0  0
    0.4429   -0.8019    1.0370 H   0  0  0  0  0  0  0  0  0  0  0  0
    0.5024   -0.4595   -1.0912 C   0  0  0  0  0  0  0  0  0  0  0  0
   -0.1121    0.0349   -1.8523 H   0  0  0  0  0  0  0  0  0  0  0  0
    1.4603    0.0704   -1.0454 H   0  0  0  0  0  0  0  0  0  0  0  0
    0.7526   -1.9238   -1.5126 C   0  0  0  0  0  0  0  0  0  0  0  0
    1.3618   -2.4245   -0.7550 H   0  0  0  0  0  0  0  0  0  0  0  0
   -0.1998   -2.4558   -1.5756 H   0  0  0  0  0  0  0  0  0  0  0  0
    1.4471   -2.0672   -2.8667 C   0  0  0  0  0  0  0  0  0  0  0  0
    1.9904   -1.1006   -3.3767 O   0  0  0  0  0  0  0  0  0  0  0  0
    1.4234   -3.2932   -3.4381 O   0  0  0  0  0  0  0  0  0  0  0  0
    1.9052   -3.2057   -4.2743 H   0  0  0  0  0  0  0  0  0  0  0  0
   -0.3640    1.1436    0.6476 C   0  0  0  0  0  0  0  0  0  0  0  0
   -1.2954    1.7872    0.1778 O   0  0  0  0  0  0  0  0  0  0  0  0
    0.4758    1.7398    1.5700 N   0  0  0  0  0  0  0  0  0  0  0  0
    1.2017    1.1648    1.9882 H   0  0  0  0  0  0  0  0  0  0  0  0
    0.3118    3.1146    2.0278 C   0  0  0  0  0  0  0  0  0  0  0  0
   -0.6545    3.2387    2.5280 H   0  0  0  0  0  0  0  0  0  0  0  0
    1.1042    3.3749    2.7361 H   0  0  0  0  0  0  0  0  0  0  0  0
    0.3626    3.8097    1.1829 H   0  0  0  0  0  0  0  0  0  0  0  0
  1  2  1  0  0  0  0
  2  3  1  0  0  0  0
  2  4  1  0  0  0  0
  2  5  1  0  0  0  0
  5  6  2  0  0  0  0
  5  7  1  0  0  0  0
  7  8  1  0  0  0  0
  7  9  1  0  0  0  0
  9 10  1  0  0  0  0
  9 11  1  0  0  0  0
  9 21  1  0  0  0  0
 11 12  1  0  0  0  0
 11 13  1  0  0  0  0
 11 14  1  0  0  0  0
 14 15  1  0  0  0  0
 14 16  1  0  0  0  0
 14 17  1  0  0  0  0
 17 18  2  0  0  0  0
 17 19  1  0  0  0  0
 19 20  1  0  0  0  0
 21 22  2  0  0  0  0
 21 23  1  0  0  0  0
 23 24  1  0  0  0  0
 23 25  1  0  0  0  0
 25 26  1  0  0  0  0
 25 27  1  0  0  0  0
 25 28  1  0  0  0  0
M  END
$$$$

  -OEChem-02102214123D

 28 27  0     1  0  0  0  0  0999 V2000
   -3.2327   -3.7634    1.2867 H   0  0  0  0  0  0  0  0  0  0  0  0
   -3.1974   -2.7851    0.7993 C   0  0  0  0  0  0  0  0  0  0  0  0
   -3.8574   -2.1001    1.3371 H   0  0  0  0  0  0  0  0  0  0  0  0
   -3.5517   -2.8910   -0.2289 H   0  0  0  0  0  0  0  0  0  0  0  0
   -1.7783   -2.2492    0.8042 C   0  0  0  0  0  0  0  0  0  0  0  0
   -0.8771   -2.9073    1.2994 O   0  0  0  0  0  0  0  0  0  0  0  0
   -1.5126   -1.0119    0.2562 N   0  0  0  0  0  0  0  0  0  0  0  0
   -2.3078   -0.4574   -0.0580 H   0  0  0  0  0  0  0  0  0  0  0  0
   -0.2037   -0.3408    0.2813 C   0  0  1  0  0  0  0  0  0  0  0  0
    0.4428   -0.8090    1.0309 H   0  0  0  0  0  0  0  0  0  0  0  0
    0.4749   -0.4433   -1.0964 C   0  0  0  0  0  0  0  0  0  0  0  0
   -0.1340    0.0668   -1.8515 H   0  0  0  0  0  0  0  0  0  0  0  0
    1.4364    0.0793   -1.0405 H   0  0  0  0  0  0  0  0  0  0  0  0
    0.7130   -1.9057   -1.5323 C   0  0  0  0  0  0  0  0  0  0  0  0
    1.1174   -2.4715   -0.6880 H   0  0  0  0  0  0  0  0  0  0  0  0
   -0.2383   -2.3654   -1.8125 H   0  0  0  0  0  0  0  0  0  0  0  0
    1.6889   -2.0613   -2.6996 C   0  0  0  0  0  0  0  0  0  0  0  0
    2.1185   -1.0729   -3.2723 O   0  0  0  0  0  0  0  0  0  0  0  0
    2.0271   -3.3243   -3.0454 O   0  0  0  0  0  0  0  0  0  0  0  0
    2.6397   -3.2398   -3.7916 H   0  0  0  0  0  0  0  0  0  0  0  0
   -0.3638    1.1426    0.6698 C   0  0  0  0  0  0  0  0  0  0  0  0
   -1.2871    1.7984    0.2011 O   0  0  0  0  0  0  0  0  0  0  0  0
    0.4836    1.7259    1.5934 N   0  0  0  0  0  0  0  0  0  0  0  0
    1.2075    1.1436    2.0048 H   0  0  0  0  0  0  0  0  0  0  0  0
    0.3529    3.1096    2.0340 C   0  0  0  0  0  0  0  0  0  0  0  0
   -0.6252    3.2734    2.4986 H   0  0  0  0  0  0  0  0  0  0  0  0
    1.1286    3.3487    2.7679 H   0  0  0  0  0  0  0  0  0  0  0  0
    0.4582    3.7929    1.1847 H   0  0  0  0  0  0  0  0  0  0  0  0
  1  2  1  0  0  0  0
  2  3  1  0  0  0  0
  2  4  1  0  0  0  0
  2  5  1  0  0  0  0
  5  6  2  0  0  0  0
  5  7  1  0  0  0  0
  7  8  1  0  0  0  0
  7  9  1  0  0  0  0
  9 10  1  0  0  0  0
  9 11  1  0  0  0  0
  9 21  1  0  0  0  0
 11 12  1  0  0  0  0
 11 13  1  0  0  0  0
 11 14  1  0  0  0  0
 14 15  1  0  0  0  0
 14 16  1  0  0  0  0
 14 17  1  0  0  0  0
 17 18  2  0  0  0  0
 17 19  1  0  0  0  0
 19 20  1  0  0  0  0
 21 22  2  0  0  0  0
 21 23  1  0  0  0  0
 23 24  1  0  0  0  0
 23 25  1  0  0  0  0
 25 26  1  0  0  0  0
 25 27  1  0  0  0  0
 25 28  1  0  0  0  0
M  END
$$$$

  -OEChem-02102214123D

 28 27  0     1  0  0  0  0  0999 V2000
   -3.2322   -3.7636    1.2693 H   0  0  0  0  0  0  0  0  0  0  0  0
   -3.1939   -2.7832    0.7862 C   0  0  0  0  0  0  0  0  0  0  0  0
   -3.8612   -2.1016    1.3193 H   0  0  0  0  0  0  0  0  0  0  0  0
   -3.5372   -2.8855   -0.2461 H   0  0  0  0  0  0  0  0  0  0  0  0
   -1.7762   -2.2445    0.8088 C   0  0  0  0  0  0  0  0  0  0  0  0
   -0.8835   -2.8957    1.3275 O   0  0  0  0  0  0  0  0  0  0  0  0
   -1.5051   -1.0087    0.2599 N   0  0  0  0  0  0  0  0  0  0  0  0
   -2.2971   -0.4577   -0.0681 H   0  0  0  0  0  0  0  0  0  0  0  0
   -0.1954   -0.3386    0.2848 C   0  0  1  0  0  0  0  0  0  0  0  0
    0.4544   -0.8071    1.0315 H   0  0  0  0  0  0  0  0  0  0  0  0
    0.4743   -0.4365   -1.0980 C   0  0  0  0  0  0  0  0  0  0  0  0
   -0.1293    0.0831   -1.8508 H   0  0  0  0  0  0  0  0  0  0  0  0
    1.4340    0.0874   -1.0312 H   0  0  0  0  0  0  0  0  0  0  0  0
    0.7098   -1.8977   -1.5470 C   0  0  0  0  0  0  0  0  0  0  0  0
    0.8801   -2.5206   -0.6644 H   0  0  0  0  0  0  0  0  0  0  0  0
   -0.1843   -2.2766   -2.0485 H   0  0  0  0  0  0  0  0  0  0  0  0
    1.9206   -2.1004   -2.4598 C   0  0  0  0  0  0  0  0  0  0  0  0
    2.4577   -1.1389   -2.9856 O   0  0  0  0  0  0  0  0  0  0  0  0
    2.3315   -3.3750   -2.6498 O   0  0  0  0  0  0  0  0  0  0  0  0
    3.0915   -3.3226   -3.2487 H   0  0  0  0  0  0  0  0  0  0  0  0
   -0.3574    1.1452    0.6713 C   0  0  0  0  0  0  0  0  0  0  0  0
   -1.2799    1.8006    0.2002 O   0  0  0  0  0  0  0  0  0  0  0  0
    0.4891    1.7289    1.5953 N   0  0  0  0  0  0  0  0  0  0  0  0
    1.2104    1.1452    2.0092 H   0  0  0  0  0  0  0  0  0  0  0  0
    0.3489    3.1075    2.0484 C   0  0  0  0  0  0  0  0  0  0  0  0
   -0.6276    3.2584    2.5207 H   0  0  0  0  0  0  0  0  0  0  0  0
    1.1272    3.3465    2.7796 H   0  0  0  0  0  0  0  0  0  0  0  0
    0.4431    3.7995    1.2048 H   0  0  0  0  0  0  0  0  0  0  0  0
  1  2  1  0  0  0  0
  2  3  1  0  0  0  0
  2  4  1  0  0  0  0
  2  5  1  0  0  0  0
  5  6  2  0  0  0  0
  5  7  1  0  0  0  0
  7  8  1  0  0  0  0
  7  9  1  0  0  0  0
  9 10  1  0  0  0  0
  9 11  1  0  0  0  0
  9 21  1  0  0  0  0
 11 12  1  0  0  0  0
 11 13  1  0  0  0  0
 11 14  1  0  0  0  0
 14 15  1  0  0  0  0
 14 16  1  0  0  0  0
 14 17  1  0  0  0  0
 17 18  2  0  0  0  0
 17 19  1  0  0  0  0
 19 20  1  0  0  0  0
 21 22  2  0  0  0  0
 21 23  1  0  0  0  0
 23 24  1  0  0  0  0
 23 25  1  0  0  0  0
 25 26  1  0  0  0  0
 25 27  1  0  0  0  0
 25 28  1  0  0  0  0
M  END
$$$$

  -OEChem-02102214123D

 28 27  0     1  0  0  0  0  0999 V2000
   -3.2393   -3.7694    1.2619 H   0  0  0  0  0  0  0  0  0  0  0  0
   -3.1938   -2.7902    0.7771 C   0  0  0  0  0  0  0  0  0  0  0  0
   -3.8749   -2.1094    1.2934 H   0  0  0  0  0  0  0  0  0  0  0  0
   -3.5139   -2.8968   -0.2621 H   0  0  0  0  0  0  0  0  0  0  0  0
   -1.7787   -2.2464    0.8295 C   0  0  0  0  0  0  0  0  0  0  0  0
   -0.8985   -2.8874    1.3811 O   0  0  0  0  0  0  0  0  0  0  0  0
   -1.4995   -1.0138    0.2772 N   0  0  0  0  0  0  0  0  0  0  0  0
   -2.2866   -0.4705   -0.0741 H   0  0  0  0  0  0  0  0  0  0  0  0
   -0.1896   -0.3426    0.3038 C   0  0  1  0  0  0  0  0  0  0  0  0
    0.4610   -0.8096    1.0507 H   0  0  0  0  0  0  0  0  0  0  0  0
    0.4832   -0.4316   -1.0797 C   0  0  0  0  0  0  0  0  0  0  0  0
   -0.1292    0.0867   -1.8258 H   0  0  0  0  0  0  0  0  0  0  0  0
    1.4308    0.1124   -1.0106 H   0  0  0  0  0  0  0  0  0  0  0  0
    0.7304   -1.8869   -1.5537 C   0  0  0  0  0  0  0  0  0  0  0  0
    0.6375   -2.5654   -0.7025 H   0  0  0  0  0  0  0  0  0  0  0  0
   -0.0383   -2.1670   -2.2785 H   0  0  0  0  0  0  0  0  0  0  0  0
    2.1088   -2.1627   -2.1600 C   0  0  0  0  0  0  0  0  0  0  0  0
    2.8282   -1.2387   -2.5035 O   0  0  0  0  0  0  0  0  0  0  0  0
    2.4533   -3.4625   -2.3062 O   0  0  0  0  0  0  0  0  0  0  0  0
    3.3363   -3.4602   -2.7051 H   0  0  0  0  0  0  0  0  0  0  0  0
   -0.3581    1.1427    0.6828 C   0  0  0  0  0  0  0  0  0  0  0  0
   -1.2762    1.7946    0.1983 O   0  0  0  0  0  0  0  0  0  0  0  0
    0.4814    1.7349    1.6076 N   0  0  0  0  0  0  0  0  0  0  0  0
    1.2031    1.1566    2.0286 H   0  0  0  0  0  0  0  0  0  0  0  0
    0.3409    3.1192    2.0429 C   0  0  0  0  0  0  0  0  0  0  0  0
   -0.6402    3.2785    2.5028 H   0  0  0  0  0  0  0  0  0  0  0  0
    1.1119    3.3646    2.7796 H   0  0  0  0  0  0  0  0  0  0  0  0
    0.4465    3.8010    1.1923 H   0  0  0  0  0  0  0  0  0  0  0  0
  1  2  1  0  0  0  0
  2  3  1  0  0  0  0
  2  4  1  0  0  0  0
  2  5  1  0  0  0  0
  5  6  2  0  0  0  0
  5  7  1  0  0  0  0
  7  8  1  0  0  0  0
  7  9  1  0  0  0  0
  9 10  1  0  0  0  0
  9 11  1  0  0  0  0
  9 21  1  0  0  0  0
 11 12  1  0  0  0  0
 11 13  1  0  0  0  0
 11 14  1  0  0  0  0
 14 15  1  0  0  0  0
 14 16  1  0  0  0  0
 14 17  1  0  0  0  0
 17 18  2  0  0  0  0
 17 19  1  0  0  0  0
 19 20  1  0  0  0  0
 21 22  2  0  0  0  0
 21 23  1  0  0  0  0
 23 24  1  0  0  0  0
 23 25  1  0  0  0  0
 25 26  1  0  0  0  0
 25 27  1  0  0  0  0
 25 28  1  0  0  0  0
M  END
$$$$

  -OEChem-02102214123D

 28 27  0     1  0  0  0  0  0999 V2000
   -3.3314   -3.7165    1.3527 H   0  0  0  0  0  0  0  0  0  0  0  0
   -3.2599   -2.7518    0.8425 C   0  0  0  0  0  0  0  0  0  0  0  0
   -3.9287   -2.0419    1.3353 H   0  0  0  0  0  0  0  0  0  0  0  0
   -3.5747   -2.8786   -0.1962 H   0  0  0  0  0  0  0  0  0  0  0  0
   -1.8335   -2.2383    0.8924 C   0  0  0  0  0  0  0  0  0  0  0  0
   -0.9753   -2.8769    1.4798 O   0  0  0  0  0  0  0  0  0  0  0  0
   -1.5233   -1.0322    0.2999 N   0  0  0  0  0  0  0  0  0  0  0  0
   -2.2971   -0.4879   -0.0783 H   0  0  0  0  0  0  0  0  0  0  0  0
   -0.2055   -0.3754    0.3240 C   0  0  1  0  0  0  0  0  0  0  0  0
    0.4223   -0.8220    1.1026 H   0  0  0  0  0  0  0  0  0  0  0  0
    0.5102   -0.5199   -1.0337 C   0  0  0  0  0  0  0  0  0  0  0  0
   -0.1067   -0.0423   -1.8033 H   0  0  0  0  0  0  0  0  0  0  0  0
    1.4513    0.0398   -0.9974 H   0  0  0  0  0  0  0  0  0  0  0  0
    0.7688   -1.9860   -1.4594 C   0  0  0  0  0  0  0  0  0  0  0  0
    0.3798   -2.6875   -0.7202 H   0  0  0  0  0  0  0  0  0  0  0  0
    0.2430   -2.1807   -2.3981 H   0  0  0  0  0  0  0  0  0  0  0  0
    2.2499   -2.3066   -1.6517 C   0  0  0  0  0  0  0  0  0  0  0  0
    3.0550   -1.9213   -0.8188 O   0  0  0  0  0  0  0  0  0  0  0  0
    2.5971   -3.0069   -2.7561 O   0  0  0  0  0  0  0  0  0  0  0  0
    3.5581   -3.1214   -2.7051 H   0  0  0  0  0  0  0  0  0  0  0  0
   -0.3580    1.1250    0.6419 C   0  0  0  0  0  0  0  0  0  0  0  0
   -1.2567    1.7712    0.1150 O   0  0  0  0  0  0  0  0  0  0  0  0
    0.4759    1.7384    1.5577 N   0  0  0  0  0  0  0  0  0  0  0  0
    1.1822    1.1640    2.0101 H   0  0  0  0  0  0  0  0  0  0  0  0
    0.3475    3.1385    1.9435 C   0  0  0  0  0  0  0  0  0  0  0  0
   -0.6138    3.3129    2.4382 H   0  0  0  0  0  0  0  0  0  0  0  0
    1.1488    3.4156    2.6353 H   0  0  0  0  0  0  0  0  0  0  0  0
    0.4131    3.7867    1.0632 H   0  0  0  0  0  0  0  0  0  0  0  0
  1  2  1  0  0  0  0
  2  3  1  0  0  0  0
  2  4  1  0  0  0  0
  2  5  1  0  0  0  0
  5  6  2  0  0  0  0
  5  7  1  0  0  0  0
  7  8  1  0  0  0  0
  7  9  1  0  0  0  0
  9 10  1  0  0  0  0
  9 11  1  0  0  0  0
  9 21  1  0  0  0  0
 11 12  1  0  0  0  0
 11 13  1  0  0  0  0
 11 14  1  0  0  0  0
 14 15  1  0  0  0  0
 14 16  1  0  0  0  0
 14 17  1  0  0  0  0
 17 18  2  0  0  0  0
 17 19  1  0  0  0  0
 19 20  1  0  0  0  0
 21 22  2  0  0  0  0
 21 23  1  0  0  0  0
 23 24  1  0  0  0  0
 23 25  1  0  0  0  0
 25 26  1  0  0  0  0
 25 27  1  0  0  0  0
 25 28  1  0  0  0  0
M  END
$$$$

  -OEChem-02102214123D

 28 27  0     1  0  0  0  0  0999 V2000
   -3.3245   -3.7157    1.3516 H   0  0  0  0  0  0  0  0  0  0  0  0
   -3.2628   -2.7454    0.8508 C   0  0  0  0  0  0  0  0  0  0  0  0
   -3.9164   -2.0394    1.3689 H   0  0  0  0  0  0  0  0  0  0  0  0
   -3.6046   -2.8593   -0.1807 H   0  0  0  0  0  0  0  0  0  0  0  0
   -1.8339   -2.2371    0.8699 C   0  0  0  0  0  0  0  0  0  0  0  0
   -0.9612   -2.8927    1.4158 O   0  0  0  0  0  0  0  0  0  0  0  0
   -1.5337   -1.0228    0.2880 N   0  0  0  0  0  0  0  0  0  0  0  0
   -2.3150   -0.4664   -0.0557 H   0  0  0  0  0  0  0  0  0  0  0  0
   -0.2155   -0.3662    0.3101 C   0  0  1  0  0  0  0  0  0  0  0  0
    0.4129   -0.8204    1.0841 H   0  0  0  0  0  0  0  0  0  0  0  0
    0.5087   -0.4930   -1.0454 C   0  0  0  0  0  0  0  0  0  0  0  0
   -0.1256   -0.0218   -1.8044 H   0  0  0  0  0  0  0  0  0  0  0  0
    1.4422    0.0802   -1.0230 H   0  0  0  0  0  0  0  0  0  0  0  0
    0.7758   -1.9525   -1.4878 C   0  0  0  0  0  0  0  0  0  0  0  0
    0.1440   -2.6616   -0.9528 H   0  0  0  0  0  0  0  0  0  0  0  0
    0.5237   -2.0384   -2.5484 H   0  0  0  0  0  0  0  0  0  0  0  0
    2.2321   -2.3891   -1.3280 C   0  0  0  0  0  0  0  0  0  0  0  0
    2.9203   -1.8883   -0.4522 O   0  0  0  0  0  0  0  0  0  0  0  0
    2.6881   -3.3314   -2.1850 O   0  0  0  0  0  0  0  0  0  0  0  0
    3.6068   -3.5006   -1.9273 H   0  0  0  0  0  0  0  0  0  0  0  0
   -0.3666    1.1298    0.6476 C   0  0  0  0  0  0  0  0  0  0  0  0
   -1.2746    1.7804    0.1421 O   0  0  0  0  0  0  0  0  0  0  0  0
    0.4746    1.7311    1.5645 N   0  0  0  0  0  0  0  0  0  0  0  0
    1.1948    1.1541    1.9914 H   0  0  0  0  0  0  0  0  0  0  0  0
    0.3487    3.1247    1.9725 C   0  0  0  0  0  0  0  0  0  0  0  0
   -0.6242    3.2989    2.4439 H   0  0  0  0  0  0  0  0  0  0  0  0
    1.1326    3.3810    2.6917 H   0  0  0  0  0  0  0  0  0  0  0  0
    0.4445    3.7883    1.1065 H   0  0  0  0  0  0  0  0  0  0  0  0
  1  2  1  0  0  0  0
  2  3  1  0  0  0  0
  2  4  1  0  0  0  0
  2  5  1  0  0  0  0
  5  6  2  0  0  0  0
  5  7  1  0  0  0  0
  7  8  1  0  0  0  0
  7  9  1  0  0  0  0
  9 10  1  0  0  0  0
  9 11  1  0  0  0  0
  9 21  1  0  0  0  0
 11 12  1  0  0  0  0
 11 13  1  0  0  0  0
 11 14  1  0  0  0  0
 14 15  1  0  0  0  0
 14 16  1  0  0  0  0
 14 17  1  0  0  0  0
 17 18  2  0  0  0  0
 17 19  1  0  0  0  0
 19 20  1  0  0  0  0
 21 22  2  0  0  0  0
 21 23  1  0  0  0  0
 23 24  1  0  0  0  0
 23 25  1  0  0  0  0
 25 26  1  0  0  0  0
 25 27  1  0  0  0  0
 25 28  1  0  0  0  0
M  END
$$$$

  -OEChem-02102214123D

 28 27  0     1  0  0  0  0  0999 V2000
   -3.2921   -3.7328    1.3332 H   0  0  0  0  0  0  0  0  0  0  0  0
   -3.2432   -2.7587    0.8386 C   0  0  0  0  0  0  0  0  0  0  0  0
   -3.8926   -2.0602    1.3715 H   0  0  0  0  0  0  0  0  0  0  0  0
   -3.6003   -2.8668   -0.1883 H   0  0  0  0  0  0  0  0  0  0  0  0
   -1.8171   -2.2427    0.8390 C   0  0  0  0  0  0  0  0  0  0  0  0
   -0.9273   -2.9095    1.3424 O   0  0  0  0  0  0  0  0  0  0  0  0
   -1.5345   -1.0169    0.2728 N   0  0  0  0  0  0  0  0  0  0  0  0
   -2.3246   -0.4563   -0.0429 H   0  0  0  0  0  0  0  0  0  0  0  0
   -0.2208   -0.3523    0.2983 C   0  0  1  0  0  0  0  0  0  0  0  0
    0.4098   -0.8121    1.0670 H   0  0  0  0  0  0  0  0  0  0  0  0
    0.5035   -0.4644   -1.0581 C   0  0  0  0  0  0  0  0  0  0  0  0
   -0.1353    0.0063   -1.8137 H   0  0  0  0  0  0  0  0  0  0  0  0
    1.4377    0.1080   -1.0353 H   0  0  0  0  0  0  0  0  0  0  0  0
    0.7750   -1.9207   -1.5030 C   0  0  0  0  0  0  0  0  0  0  0  0
   -0.0246   -2.5942   -1.1916 H   0  0  0  0  0  0  0  0  0  0  0  0
    0.7969   -1.9403   -2.5959 H   0  0  0  0  0  0  0  0  0  0  0  0
    2.1146   -2.4817   -1.0225 C   0  0  0  0  0  0  0  0  0  0  0  0
    2.7562   -1.8875   -0.1691 O   0  0  0  0  0  0  0  0  0  0  0  0
    2.5275   -3.6370   -1.5922 O   0  0  0  0  0  0  0  0  0  0  0  0
    3.3638   -3.8613   -1.1574 H   0  0  0  0  0  0  0  0  0  0  0  0
   -0.3751    1.1376    0.6594 C   0  0  0  0  0  0  0  0  0  0  0  0
   -1.2907    1.7912    0.1719 O   0  0  0  0  0  0  0  0  0  0  0  0
    0.4694    1.7280    1.5805 N   0  0  0  0  0  0  0  0  0  0  0  0
    1.2040    1.1513    1.9828 H   0  0  0  0  0  0  0  0  0  0  0  0
    0.3512    3.1197    1.9979 C   0  0  0  0  0  0  0  0  0  0  0  0
   -0.6270    3.3005    2.4561 H   0  0  0  0  0  0  0  0  0  0  0  0
    1.1262    3.3625    2.7313 H   0  0  0  0  0  0  0  0  0  0  0  0
    0.4669    3.7886    1.1384 H   0  0  0  0  0  0  0  0  0  0  0  0
  1  2  1  0  0  0  0
  2  3  1  0  0  0  0
  2  4  1  0  0  0  0
  2  5  1  0  0  0  0
  5  6  2  0  0  0  0
  5  7  1  0  0  0  0
  7  8  1  0  0  0  0
  7  9  1  0  0  0  0
  9 10  1  0  0  0  0
  9 11  1  0  0  0  0
  9 21  1  0  0  0  0
 11 12  1  0  0  0  0
 11 13  1  0  0  0  0
 11 14  1  0  0  0  0
 14 15  1  0  0  0  0
 14 16  1  0  0  0  0
 14 17  1  0  0  0  0
 17 18  2  0  0  0  0
 17 19  1  0  0  0  0
 19 20  1  0  0  0  0
 21 22  2  0  0  0  0
 21 23  1  0  0  0  0
 23 24  1  0  0  0  0
 23 25  1  0  0  0  0
 25 26  1  0  0  0  0
 25 27  1  0  0  0  0
 25 28  1  0  0  0  0
M  END
$$$$

  -OEChem-02102214123D

 28 27  0     1  0  0  0  0  0999 V2000
   -3.2464   -3.7547    1.3167 H   0  0  0  0  0  0  0  0  0  0  0  0
   -3.2117   -2.7776    0.8267 C   0  0  0  0  0  0  0  0  0  0  0  0
   -3.8576   -2.0864    1.3737 H   0  0  0  0  0  0  0  0  0  0  0  0
   -3.5840   -2.8827   -0.1951 H   0  0  0  0  0  0  0  0  0  0  0  0
   -1.7890   -2.2521    0.8081 C   0  0  0  0  0  0  0  0  0  0  0  0
   -0.8849   -2.9207    1.2827 O   0  0  0  0  0  0  0  0  0  0  0  0
   -1.5243   -1.0166    0.2544 N   0  0  0  0  0  0  0  0  0  0  0  0
   -2.3231   -0.4562   -0.0389 H   0  0  0  0  0  0  0  0  0  0  0  0
   -0.2175   -0.3397    0.2865 C   0  0  1  0  0  0  0  0  0  0  0  0
    0.4142   -0.7984    1.0544 H   0  0  0  0  0  0  0  0  0  0  0  0
    0.5016   -0.4423   -1.0737 C   0  0  0  0  0  0  0  0  0  0  0  0
   -0.1316    0.0339   -1.8301 H   0  0  0  0  0  0  0  0  0  0  0  0
    1.4408    0.1216   -1.0417 H   0  0  0  0  0  0  0  0  0  0  0  0
    0.7783   -1.8961   -1.5181 C   0  0  0  0  0  0  0  0  0  0  0  0
   -0.1207   -2.5083   -1.4221 H   0  0  0  0  0  0  0  0  0  0  0  0
    1.0464   -1.8873   -2.5776 H   0  0  0  0  0  0  0  0  0  0  0  0
    1.9252   -2.5767   -0.7673 C   0  0  0  0  0  0  0  0  0  0  0  0
    2.6159   -1.9336    0.0095 O   0  0  0  0  0  0  0  0  0  0  0  0
    2.1304   -3.8864   -1.0353 O   0  0  0  0  0  0  0  0  0  0  0  0
    2.8544   -4.1635   -0.4543 H   0  0  0  0  0  0  0  0  0  0  0  0
   -0.3793    1.1451    0.6639 C   0  0  0  0  0  0  0  0  0  0  0  0
   -1.2986    1.7995    0.1848 O   0  0  0  0  0  0  0  0  0  0  0  0
    0.4644    1.7285    1.5900 N   0  0  0  0  0  0  0  0  0  0  0  0
    1.2039    1.1506    1.9816 H   0  0  0  0  0  0  0  0  0  0  0  0
    0.3434    3.1152    2.0226 C   0  0  0  0  0  0  0  0  0  0  0  0
   -0.6368    3.2904    2.4784 H   0  0  0  0  0  0  0  0  0  0  0  0
    1.1149    3.3497    2.7622 H   0  0  0  0  0  0  0  0  0  0  0  0
    0.4627    3.7937    1.1714 H   0  0  0  0  0  0  0  0  0  0  0  0
  1  2  1  0  0  0  0
  2  3  1  0  0  0  0
  2  4  1  0  0  0  0
  2  5  1  0  0  0  0
  5  6  2  0  0  0  0
  5  7  1  0  0  0  0
  7  8  1  0  0  0  0
  7  9  1  0  0  0  0
  9 10  1  0  0  0  0
  9 11  1  0  0  0  0
  9 21  1  0  0  0  0
 11 12  1  0  0  0  0
 11 13  1  0  0  0  0
 11 14  1  0  0  0  0
 14 15  1  0  0  0  0
 14 16  1  0  0  0  0
 14 17  1  0  0  0  0
 17 18  2  0  0  0  0
 17 19  1  0  0  0  0
 19 20  1  0  0  0  0
 21 22  2  0  0  0  0
 21 23  1  0  0  0  0
 23 24  1  0  0  0  0
 23 25  1  0  0  0  0
 25 26  1  0  0  0  0
 25 27  1  0  0  0  0
 25 28  1  0  0  0  0
M  END
$$$$

  -OEChem-02102214123D

 28 27  0     1  0  0  0  0  0999 V2000
   -3.2069   -3.7913    1.2778 H   0  0  0  0  0  0  0  0  0  0  0  0
   -3.1753   -2.8115    0.7932 C   0  0  0  0  0  0  0  0  0  0  0  0
   -3.8563   -2.1369    1.3177 H   0  0  0  0  0  0  0  0  0  0  0  0
   -3.5062   -2.9201   -0.2425 H   0  0  0  0  0  0  0  0  0  0  0  0
   -1.7646   -2.2561    0.8297 C   0  0  0  0  0  0  0  0  0  0  0  0
   -0.8707   -2.8965    1.3590 O   0  0  0  0  0  0  0  0  0  0  0  0
   -1.5016   -1.0216    0.2733 N   0  0  0  0  0  0  0  0  0  0  0  0
   -2.2970   -0.4802   -0.0616 H   0  0  0  0  0  0  0  0  0  0  0  0
   -0.2001   -0.3361    0.3084 C   0  0  1  0  0  0  0  0  0  0  0  0
    0.4369   -0.7848    1.0772 H   0  0  0  0  0  0  0  0  0  0  0  0
    0.4980   -0.4363   -1.0645 C   0  0  0  0  0  0  0  0  0  0  0  0
   -0.1293    0.0567   -1.8151 H   0  0  0  0  0  0  0  0  0  0  0  0
    1.4456    0.1123   -1.0234 H   0  0  0  0  0  0  0  0  0  0  0  0
    0.7773   -1.8823   -1.5300 C   0  0  0  0  0  0  0  0  0  0  0  0
   -0.1689   -2.4181   -1.6405 H   0  0  0  0  0  0  0  0  0  0  0  0
    1.2516   -1.8554   -2.5143 H   0  0  0  0  0  0  0  0  0  0  0  0
    1.6794   -2.6879   -0.5938 C   0  0  0  0  0  0  0  0  0  0  0  0
    2.4732   -2.1022    0.1279 O   0  0  0  0  0  0  0  0  0  0  0  0
    1.5711   -4.0353   -0.6468 O   0  0  0  0  0  0  0  0  0  0  0  0
    2.1501   -4.3733    0.0523 H   0  0  0  0  0  0  0  0  0  0  0  0
   -0.3739    1.1491    0.6791 C   0  0  0  0  0  0  0  0  0  0  0  0
   -1.2874    1.7995    0.1836 O   0  0  0  0  0  0  0  0  0  0  0  0
    0.4614    1.7421    1.6068 N   0  0  0  0  0  0  0  0  0  0  0  0
    1.1910    1.1657    2.0186 H   0  0  0  0  0  0  0  0  0  0  0  0
    0.3329    3.1316    2.0283 C   0  0  0  0  0  0  0  0  0  0  0  0
   -0.6531    3.3089    2.4707 H   0  0  0  0  0  0  0  0  0  0  0  0
    1.0952    3.3725    2.7756 H   0  0  0  0  0  0  0  0  0  0  0  0
    0.4616    3.8041    1.1737 H   0  0  0  0  0  0  0  0  0  0  0  0
  1  2  1  0  0  0  0
  2  3  1  0  0  0  0
  2  4  1  0  0  0  0
  2  5  1  0  0  0  0
  5  6  2  0  0  0  0
  5  7  1  0  0  0  0
  7  8  1  0  0  0  0
  7  9  1  0  0  0  0
  9 10  1  0  0  0  0
  9 11  1  0  0  0  0
  9 21  1  0  0  0  0
 11 12  1  0  0  0  0
 11 13  1  0  0  0  0
 11 14  1  0  0  0  0
 14 15  1  0  0  0  0
 14 16  1  0  0  0  0
 14 17  1  0  0  0  0
 17 18  2  0  0  0  0
 17 19  1  0  0  0  0
 19 20  1  0  0  0  0
 21 22  2  0  0  0  0
 21 23  1  0  0  0  0
 23 24  1  0  0  0  0
 23 25  1  0  0  0  0
 25 26  1  0  0  0  0
 25 27  1  0  0  0  0
 25 28  1  0  0  0  0
M  END
$$$$

  -OEChem-02102214123D

 28 27  0     1  0  0  0  0  0999 V2000
   -3.2034   -3.8121    1.2521 H   0  0  0  0  0  0  0  0  0  0  0  0
   -3.1587   -2.8320    0.7691 C   0  0  0  0  0  0  0  0  0  0  0  0
   -3.8867   -2.1705    1.2450 H   0  0  0  0  0  0  0  0  0  0  0  0
   -3.4162   -2.9485   -0.2863 H   0  0  0  0  0  0  0  0  0  0  0  0
   -1.7653   -2.2479    0.9004 C   0  0  0  0  0  0  0  0  0  0  0  0
   -0.9182   -2.8357    1.5534 O   0  0  0  0  0  0  0  0  0  0  0  0
   -1.4811   -1.0286    0.3214 N   0  0  0  0  0  0  0  0  0  0  0  0
   -2.2557   -0.5226   -0.1045 H   0  0  0  0  0  0  0  0  0  0  0  0
   -0.1786   -0.3446    0.3544 C   0  0  1  0  0  0  0  0  0  0  0  0
    0.4613   -0.7799    1.1284 H   0  0  0  0  0  0  0  0  0  0  0  0
    0.5053   -0.4485   -1.0287 C   0  0  0  0  0  0  0  0  0  0  0  0
   -0.1116    0.0664   -1.7735 H   0  0  0  0  0  0  0  0  0  0  0  0
    1.4595    0.0869   -0.9724 H   0  0  0  0  0  0  0  0  0  0  0  0
    0.7936   -1.8791   -1.5362 C   0  0  0  0  0  0  0  0  0  0  0  0
   -0.1480   -2.3214   -1.8731 H   0  0  0  0  0  0  0  0  0  0  0  0
    1.4604   -1.8317   -2.4009 H   0  0  0  0  0  0  0  0  0  0  0  0
    1.4045   -2.8242   -0.5040 C   0  0  0  0  0  0  0  0  0  0  0  0
    2.2645   -2.3958    0.2505 O   0  0  0  0  0  0  0  0  0  0  0  0
    0.9794   -4.1087   -0.5077 O   0  0  0  0  0  0  0  0  0  0  0  0
    1.3846   -4.5187    0.2716 H   0  0  0  0  0  0  0  0  0  0  0  0
   -0.3618    1.1488    0.6895 C   0  0  0  0  0  0  0  0  0  0  0  0
   -1.2616    1.7889    0.1565 O   0  0  0  0  0  0  0  0  0  0  0  0
    0.4598    1.7663    1.6133 N   0  0  0  0  0  0  0  0  0  0  0  0
    1.1649    1.1947    2.0715 H   0  0  0  0  0  0  0  0  0  0  0  0
    0.3086    3.1602    2.0124 C   0  0  0  0  0  0  0  0  0  0  0  0
   -0.6826    3.3294    2.4463 H   0  0  0  0  0  0  0  0  0  0  0  0
    1.0626    3.4242    2.7602 H   0  0  0  0  0  0  0  0  0  0  0  0
    0.4326    3.8215    1.1483 H   0  0  0  0  0  0  0  0  0  0  0  0
  1  2  1  0  0  0  0
  2  3  1  0  0  0  0
  2  4  1  0  0  0  0
  2  5  1  0  0  0  0
  5  6  2  0  0  0  0
  5  7  1  0  0  0  0
  7  8  1  0  0  0  0
  7  9  1  0  0  0  0
  9 10  1  0  0  0  0
  9 11  1  0  0  0  0
  9 21  1  0  0  0  0
 11 12  1  0  0  0  0
 11 13  1  0  0  0  0
 11 14  1  0  0  0  0
 14 15  1  0  0  0  0
 14 16  1  0  0  0  0
 14 17  1  0  0  0  0
 17 18  2  0  0  0  0
 17 19  1  0  0  0  0
 19 20  1  0  0  0  0
 21 22  2  0  0  0  0
 21 23  1  0  0  0  0
 23 24  1  0  0  0  0
 23 25  1  0  0  0  0
 25 26  1  0  0  0  0
 25 27  1  0  0  0  0
 25 28  1  0  0  0  0
M  END
$$$$

  -OEChem-02102214123D

 28 27  0     1  0  0  0  0  0999 V2000
   -3.2377   -3.8093    1.2729 H   0  0  0  0  0  0  0  0  0  0  0  0
   -3.1681   -2.8446    0.7625 C   0  0  0  0  0  0  0  0  0  0  0  0
   -3.9351   -2.1773    1.1628 H   0  0  0  0  0  0  0  0  0  0  0  0
   -3.3480   -2.9982   -0.3044 H   0  0  0  0  0  0  0  0  0  0  0  0
   -1.7937   -2.2388    0.9734 C   0  0  0  0  0  0  0  0  0  0  0  0
   -0.9987   -2.7840    1.7224 O   0  0  0  0  0  0  0  0  0  0  0  0
   -1.4809   -1.0374    0.3714 N   0  0  0  0  0  0  0  0  0  0  0  0
   -2.2302   -0.5642   -0.1303 H   0  0  0  0  0  0  0  0  0  0  0  0
   -0.1737   -0.3589    0.3975 C   0  0  1  0  0  0  0  0  0  0  0  0
    0.4654   -0.7855    1.1775 H   0  0  0  0  0  0  0  0  0  0  0  0
    0.5180   -0.4678   -0.9859 C   0  0  0  0  0  0  0  0  0  0  0  0
   -0.0856    0.0629   -1.7310 H   0  0  0  0  0  0  0  0  0  0  0  0
    1.4718    0.0656   -0.9089 H   0  0  0  0  0  0  0  0  0  0  0  0
    0.8305   -1.8796   -1.5359 C   0  0  0  0  0  0  0  0  0  0  0  0
   -0.0346   -2.2153   -2.1148 H   0  0  0  0  0  0  0  0  0  0  0  0
    1.6790   -1.8268   -2.2231 H   0  0  0  0  0  0  0  0  0  0  0  0
    1.1136   -2.9487   -0.4874 C   0  0  0  0  0  0  0  0  0  0  0  0
    1.9942   -2.7331    0.3301 O   0  0  0  0  0  0  0  0  0  0  0  0
    0.3911   -4.0919   -0.5349 O   0  0  0  0  0  0  0  0  0  0  0  0
    0.6164   -4.5675    0.2807 H   0  0  0  0  0  0  0  0  0  0  0  0
   -0.3600    1.1429    0.6950 C   0  0  0  0  0  0  0  0  0  0  0  0
   -1.2464    1.7742    0.1298 O   0  0  0  0  0  0  0  0  0  0  0  0
    0.4541    1.7820    1.6113 N   0  0  0  0  0  0  0  0  0  0  0  0
    1.1366    1.2152    2.1078 H   0  0  0  0  0  0  0  0  0  0  0  0
    0.2928    3.1823    1.9841 C   0  0  0  0  0  0  0  0  0  0  0  0
   -0.6965    3.3509    2.4225 H   0  0  0  0  0  0  0  0  0  0  0  0
    1.0506    3.4678    2.7202 H   0  0  0  0  0  0  0  0  0  0  0  0
    0.4035    3.8282    1.1067 H   0  0  0  0  0  0  0  0  0  0  0  0
  1  2  1  0  0  0  0
  2  3  1  0  0  0  0
  2  4  1  0  0  0  0
  2  5  1  0  0  0  0
  5  6  2  0  0  0  0
  5  7  1  0  0  0  0
  7  8  1  0  0  0  0
  7  9  1  0  0  0  0
  9 10  1  0  0  0  0
  9 11  1  0  0  0  0
  9 21  1  0  0  0  0
 11 12  1  0  0  0  0
 11 13  1  0  0  0  0
 11 14  1  0  0  0  0
 14 15  1  0  0  0  0
 14 16  1  0  0  0  0
 14 17  1  0  0  0  0
 17 18  2  0  0  0  0
 17 19  1  0  0  0  0
 19 20  1  0  0  0  0
 21 22  2  0  0  0  0
 21 23  1  0  0  0  0
 23 24  1  0  0  0  0
 23 25  1  0  0  0  0
 25 26  1  0  0  0  0
 25 27  1  0  0  0  0
 25 28  1  0  0  0  0
M  END
$$$$

  -OEChem-02102214123D

 28 27  0     1  0  0  0  0  0999 V2000
   -3.2837   -3.8107    1.3055 H   0  0  0  0  0  0  0  0  0  0  0  0
   -3.1798   -2.8763    0.7469 C   0  0  0  0  0  0  0  0  0  0  0  0
   -3.9640   -2.1857    1.0661 H   0  0  0  0  0  0  0  0  0  0  0  0
   -3.3002   -3.0881   -0.3184 H   0  0  0  0  0  0  0  0  0  0  0  0
   -1.8154   -2.2644    0.9992 C   0  0  0  0  0  0  0  0  0  0  0  0
   -1.0438   -2.8045    1.7750 O   0  0  0  0  0  0  0  0  0  0  0  0
   -1.4875   -1.0680    0.3970 N   0  0  0  0  0  0  0  0  0  0  0  0
   -2.2260   -0.6102   -0.1344 H   0  0  0  0  0  0  0  0  0  0  0  0
   -0.1887   -0.3722    0.4382 C   0  0  1  0  0  0  0  0  0  0  0  0
    0.4425   -0.7910    1.2294 H   0  0  0  0  0  0  0  0  0  0  0  0
    0.5457   -0.4595   -0.9282 C   0  0  0  0  0  0  0  0  0  0  0  0
   -0.0552    0.0676   -1.6779 H   0  0  0  0  0  0  0  0  0  0  0  0
    1.4784    0.1048   -0.8189 H   0  0  0  0  0  0  0  0  0  0  0  0
    0.9285   -1.8377   -1.5237 C   0  0  0  0  0  0  0  0  0  0  0  0
    0.2343   -2.0573   -2.3400 H   0  0  0  0  0  0  0  0  0  0  0  0
    1.9286   -1.7780   -1.9625 H   0  0  0  0  0  0  0  0  0  0  0  0
    0.8876   -3.0258   -0.5750 C   0  0  0  0  0  0  0  0  0  0  0  0
    1.7293   -3.0640    0.3070 O   0  0  0  0  0  0  0  0  0  0  0  0
   -0.0372   -3.9932   -0.7781 O   0  0  0  0  0  0  0  0  0  0  0  0
    0.0558   -4.5852   -0.0137 H   0  0  0  0  0  0  0  0  0  0  0  0
   -0.4107    1.1290    0.7172 C   0  0  0  0  0  0  0  0  0  0  0  0
   -1.2937    1.7397    0.1246 O   0  0  0  0  0  0  0  0  0  0  0  0
    0.3735    1.7924    1.6421 N   0  0  0  0  0  0  0  0  0  0  0  0
    1.0422    1.2392    2.1716 H   0  0  0  0  0  0  0  0  0  0  0  0
    0.1723    3.1907    2.0023 C   0  0  0  0  0  0  0  0  0  0  0  0
   -0.8248    3.3362    2.4312 H   0  0  0  0  0  0  0  0  0  0  0  0
    0.9163    3.5015    2.7421 H   0  0  0  0  0  0  0  0  0  0  0  0
    0.2737    3.8324    1.1207 H   0  0  0  0  0  0  0  0  0  0  0  0
  1  2  1  0  0  0  0
  2  3  1  0  0  0  0
  2  4  1  0  0  0  0
  2  5  1  0  0  0  0
  5  6  2  0  0  0  0
  5  7  1  0  0  0  0
  7  8  1  0  0  0  0
  7  9  1  0  0  0  0
  9 10  1  0  0  0  0
  9 11  1  0  0  0  0
  9 21  1  0  0  0  0
 11 12  1  0  0  0  0
 11 13  1  0  0  0  0
 11 14  1  0  0  0  0
 14 15  1  0  0  0  0
 14 16  1  0  0  0  0
 14 17  1  0  0  0  0
 17 18  2  0  0  0  0
 17 19  1  0  0  0  0
 19 20  1  0  0  0  0
 21 22  2  0  0  0  0
 21 23  1  0  0  0  0
 23 24  1  0  0  0  0
 23 25  1  0  0  0  0
 25 26  1  0  0  0  0
 25 27  1  0  0  0  0
 25 28  1  0  0  0  0
M  END
$$$$

  -OEChem-02102214123D

 28 27  0     1  0  0  0  0  0999 V2000
   -3.2625   -3.8339    1.2654 H   0  0  0  0  0  0  0  0  0  0  0  0
   -3.2302   -2.8555    0.7777 C   0  0  0  0  0  0  0  0  0  0  0  0
   -3.9229   -2.1836    1.2907 H   0  0  0  0  0  0  0  0  0  0  0  0
   -3.5479   -2.9699   -0.2617 H   0  0  0  0  0  0  0  0  0  0  0  0
   -1.8245   -2.2906    0.8306 C   0  0  0  0  0  0  0  0  0  0  0  0
   -0.9097   -2.9290    1.3272 O   0  0  0  0  0  0  0  0  0  0  0  0
   -1.5469   -1.0505    0.3063 N   0  0  0  0  0  0  0  0  0  0  0  0
   -2.3395   -0.4907   -0.0104 H   0  0  0  0  0  0  0  0  0  0  0  0
   -0.2519   -0.3596    0.4071 C   0  0  1  0  0  0  0  0  0  0  0  0
    0.3646   -0.8152    1.1890 H   0  0  0  0  0  0  0  0  0  0  0  0
    0.5217   -0.3911   -0.9312 C   0  0  0  0  0  0  0  0  0  0  0  0
   -0.0736    0.1560   -1.6735 H   0  0  0  0  0  0  0  0  0  0  0  0
    1.4435    0.1886   -0.7987 H   0  0  0  0  0  0  0  0  0  0  0  0
    0.9121   -1.7615   -1.5554 C   0  0  0  0  0  0  0  0  0  0  0  0
   -0.1554   -1.9288   -1.7269 H   0  0  0  0  0  0  0  0  0  0  0  0
    1.5383   -1.9000   -0.6686 H   0  0  0  0  0  0  0  0  0  0  0  0
    0.9617   -3.2938   -1.5828 C   0  0  0  0  0  0  0  0  0  0  0  0
    1.4547   -3.7507   -2.6008 O   0  0  0  0  0  0  0  0  0  0  0  0
    0.5159   -4.0622   -0.5484 O   0  0  0  0  0  0  0  0  0  0  0  0
    0.1186   -3.5191    0.1695 H   0  0  0  0  0  0  0  0  0  0  0  0
   -0.4837    1.1161    0.7963 C   0  0  0  0  0  0  0  0  0  0  0  0
   -1.4034    1.7405    0.2813 O   0  0  0  0  0  0  0  0  0  0  0  0
    0.2866    1.7206    1.7722 N   0  0  0  0  0  0  0  0  0  0  0  0
    0.9999    1.1601    2.2299 H   0  0  0  0  0  0  0  0  0  0  0  0
    0.0611    3.0857    2.2334 C   0  0  0  0  0  0  0  0  0  0  0  0
   -0.9442    3.1867    2.6559 H   0  0  0  0  0  0  0  0  0  0  0  0
    0.7889    3.3498    3.0067 H   0  0  0  0  0  0  0  0  0  0  0  0
    0.1670    3.7931    1.4041 H   0  0  0  0  0  0  0  0  0  0  0  0
  1  2  1  0  0  0  0
  2  3  1  0  0  0  0
  2  4  1  0  0  0  0
  2  5  1  0  0  0  0
  5  6  2  0  0  0  0
  5  7  1  0  0  0  0
  7  8  1  0  0  0  0
  7  9  1  0  0  0  0
  9 10  1  0  0  0  0
  9 11  1  0  0  0  0
  9 21  1  0  0  0  0
 11 12  1  0  0  0  0
 11 13  1  0  0  0  0
 11 14  1  0  0  0  0
 14 15  1  0  0  0  0
 14 16  1  0  0  0  0
 14 17  1  0  0  0  0
 17 18  2  0  0  0  0
 17 19  1  0  0  0  0
 19 20  1  0  0  0  0
 21 22  2  0  0  0  0
 21 23  1  0  0  0  0
 23 24  1  0  0  0  0
 23 25  1  0  0  0  0
 25 26  1  0  0  0  0
 25 27  1  0  0  0  0
 25 28  1  0  0  0  0
M  END
$$$$

  -OEChem-02102214123D

 28 27  0     1  0  0  0  0  0999 V2000
   -3.2814   -3.9178    1.4059 H   0  0  0  0  0  0  0  0  0  0  0  0
   -3.2594   -2.9537    0.8906 C   0  0  0  0  0  0  0  0  0  0  0  0
   -4.0311   -2.3071    1.3144 H   0  0  0  0  0  0  0  0  0  0  0  0
   -3.4714   -3.1179   -0.1690 H   0  0  0  0  0  0  0  0  0  0  0  0
   -1.8956   -2.3096    1.0503 C   0  0  0  0  0  0  0  0  0  0  0  0
   -1.0419   -2.8318    1.7518 O   0  0  0  0  0  0  0  0  0  0  0  0
   -1.6358   -1.0759    0.4873 N   0  0  0  0  0  0  0  0  0  0  0  0
   -2.3920   -0.6329   -0.0313 H   0  0  0  0  0  0  0  0  0  0  0  0
   -0.3097   -0.4410    0.4331 C   0  0  1  0  0  0  0  0  0  0  0  0
    0.3865   -0.9355    1.1178 H   0  0  0  0  0  0  0  0  0  0  0  0
    0.3011   -0.4120   -0.9962 C   0  0  0  0  0  0  0  0  0  0  0  0
   -0.3895    0.1754   -1.6130 H   0  0  0  0  0  0  0  0  0  0  0  0
    1.2377    0.1550   -0.9531 H   0  0  0  0  0  0  0  0  0  0  0  0
    0.5824   -1.7115   -1.7983 C   0  0  0  0  0  0  0  0  0  0  0  0
    0.2896   -1.5407   -2.8392 H   0  0  0  0  0  0  0  0  0  0  0  0
    1.6641   -1.8697   -1.8061 H   0  0  0  0  0  0  0  0  0  0  0  0
   -0.0502   -3.0242   -1.3488 C   0  0  0  0  0  0  0  0  0  0  0  0
   -1.1496   -3.2927   -1.8087 O   0  0  0  0  0  0  0  0  0  0  0  0
    0.6713   -3.8505   -0.5460 O   0  0  0  0  0  0  0  0  0  0  0  0
    1.4601   -3.3895   -0.2361 H   0  0  0  0  0  0  0  0  0  0  0  0
   -0.4471    1.0416    0.8484 C   0  0  0  0  0  0  0  0  0  0  0  0
   -1.3320    1.7400    0.3671 O   0  0  0  0  0  0  0  0  0  0  0  0
    0.4548    1.6075    1.7309 N   0  0  0  0  0  0  0  0  0  0  0  0
    1.1061    0.9831    2.1978 H   0  0  0  0  0  0  0  0  0  0  0  0
    0.3444    2.9835    2.2016 C   0  0  0  0  0  0  0  0  0  0  0  0
   -0.6059    3.1350    2.7247 H   0  0  0  0  0  0  0  0  0  0  0  0
    1.1606    3.2145    2.8931 H   0  0  0  0  0  0  0  0  0  0  0  0
    0.3977    3.6820    1.3597 H   0  0  0  0  0  0  0  0  0  0  0  0
  1  2  1  0  0  0  0
  2  3  1  0  0  0  0
  2  4  1  0  0  0  0
  2  5  1  0  0  0  0
  5  6  2  0  0  0  0
  5  7  1  0  0  0  0
  7  8  1  0  0  0  0
  7  9  1  0  0  0  0
  9 10  1  0  0  0  0
  9 11  1  0  0  0  0
  9 21  1  0  0  0  0
 11 12  1  0  0  0  0
 11 13  1  0  0  0  0
 11 14  1  0  0  0  0
 14 15  1  0  0  0  0
 14 16  1  0  0  0  0
 14 17  1  0  0  0  0
 17 18  2  0  0  0  0
 17 19  1  0  0  0  0
 19 20  1  0  0  0  0
 21 22  2  0  0  0  0
 21 23  1  0  0  0  0
 23 24  1  0  0  0  0
 23 25  1  0  0  0  0
 25 26  1  0  0  0  0
 25 27  1  0  0  0  0
 25 28  1  0  0  0  0
M  END
$$$$

  -OEChem-02102214123D

 28 27  0     1  0  0  0  0  0999 V2000
   -3.5136   -3.6375    1.4225 H   0  0  0  0  0  0  0  0  0  0  0  0
   -3.3966   -2.6978    0.8759 C   0  0  0  0  0  0  0  0  0  0  0  0
   -4.0990   -1.9647    1.2797 H   0  0  0  0  0  0  0  0  0  0  0  0
   -3.6277   -2.8716   -0.1782 H   0  0  0  0  0  0  0  0  0  0  0  0
   -1.9764   -2.1841    1.0144 C   0  0  0  0  0  0  0  0  0  0  0  0
   -1.1678   -2.7985    1.6923 O   0  0  0  0  0  0  0  0  0  0  0  0
   -1.6151   -1.0026    0.4020 N   0  0  0  0  0  0  0  0  0  0  0  0
   -2.3425   -0.5127   -0.1163 H   0  0  0  0  0  0  0  0  0  0  0  0
   -0.2738   -0.3974    0.3940 C   0  0  1  0  0  0  0  0  0  0  0  0
    0.3423   -0.8579    1.1732 H   0  0  0  0  0  0  0  0  0  0  0  0
    0.4750   -0.5089   -0.9651 C   0  0  0  0  0  0  0  0  0  0  0  0
   -0.1457    0.0192   -1.6983 H   0  0  0  0  0  0  0  0  0  0  0  0
    1.4143    0.0493   -0.8869 H   0  0  0  0  0  0  0  0  0  0  0  0
    0.8063   -1.8856   -1.5987 C   0  0  0  0  0  0  0  0  0  0  0  0
    0.8932   -1.7621   -2.6818 H   0  0  0  0  0  0  0  0  0  0  0  0
    1.7941   -2.1814   -1.2339 H   0  0  0  0  0  0  0  0  0  0  0  0
   -0.1190   -3.0646   -1.3343 C   0  0  0  0  0  0  0  0  0  0  0  0
   -1.2360   -3.0604   -1.8287 O   0  0  0  0  0  0  0  0  0  0  0  0
    0.3774   -4.0882   -0.6007 O   0  0  0  0  0  0  0  0  0  0  0  0
   -0.3586   -4.6993   -0.4494 H   0  0  0  0  0  0  0  0  0  0  0  0
   -0.3960    1.1119    0.6959 C   0  0  0  0  0  0  0  0  0  0  0  0
   -1.2546    1.7858    0.1380 O   0  0  0  0  0  0  0  0  0  0  0  0
    0.4627    1.7173    1.5948 N   0  0  0  0  0  0  0  0  0  0  0  0
    1.1103    1.1196    2.1006 H   0  0  0  0  0  0  0  0  0  0  0  0
    0.3715    3.1259    1.9601 C   0  0  0  0  0  0  0  0  0  0  0  0
   -0.6008    3.3420    2.4153 H   0  0  0  0  0  0  0  0  0  0  0  0
    1.1551    3.3821    2.6797 H   0  0  0  0  0  0  0  0  0  0  0  0
    0.4947    3.7597    1.0755 H   0  0  0  0  0  0  0  0  0  0  0  0
  1  2  1  0  0  0  0
  2  3  1  0  0  0  0
  2  4  1  0  0  0  0
  2  5  1  0  0  0  0
  5  6  2  0  0  0  0
  5  7  1  0  0  0  0
  7  8  1  0  0  0  0
  7  9  1  0  0  0  0
  9 10  1  0  0  0  0
  9 11  1  0  0  0  0
  9 21  1  0  0  0  0
 11 12  1  0  0  0  0
 11 13  1  0  0  0  0
 11 14  1  0  0  0  0
 14 15  1  0  0  0  0
 14 16  1  0  0  0  0
 14 17  1  0  0  0  0
 17 18  2  0  0  0  0
 17 19  1  0  0  0  0
 19 20  1  0  0  0  0
 21 22  2  0  0  0  0
 21 23  1  0  0  0  0
 23 24  1  0  0  0  0
 23 25  1  0  0  0  0
 25 26  1  0  0  0  0
 25 27  1  0  0  0  0
 25 28  1  0  0  0  0
M  END
$$$$

  -OEChem-02102214123D

 28 27  0     1  0  0  0  0  0999 V2000
   -3.3946   -3.7134    1.4263 H   0  0  0  0  0  0  0  0  0  0  0  0
   -3.3324   -2.7361    0.9400 C   0  0  0  0  0  0  0  0  0  0  0  0
   -4.0169   -2.0476    1.4411 H   0  0  0  0  0  0  0  0  0  0  0  0
   -3.6344   -2.8422   -0.1050 H   0  0  0  0  0  0  0  0  0  0  0  0
   -1.9149   -2.2022    1.0169 C   0  0  0  0  0  0  0  0  0  0  0  0
   -1.0556   -2.8304    1.6146 O   0  0  0  0  0  0  0  0  0  0  0  0
   -1.6039   -0.9988    0.4201 N   0  0  0  0  0  0  0  0  0  0  0  0
   -2.3590   -0.5084   -0.0564 H   0  0  0  0  0  0  0  0  0  0  0  0
   -0.2704   -0.3826    0.3676 C   0  0  1  0  0  0  0  0  0  0  0  0
    0.3810   -0.8557    1.1094 H   0  0  0  0  0  0  0  0  0  0  0  0
    0.4209   -0.4731   -1.0203 C   0  0  0  0  0  0  0  0  0  0  0  0
   -0.2197    0.0642   -1.7294 H   0  0  0  0  0  0  0  0  0  0  0  0
    1.3682    0.0741   -0.9691 H   0  0  0  0  0  0  0  0  0  0  0  0
    0.7166   -1.8576   -1.6502 C   0  0  0  0  0  0  0  0  0  0  0  0
    1.0127   -1.7131   -2.6926 H   0  0  0  0  0  0  0  0  0  0  0  0
    1.5803   -2.2762   -1.1254 H   0  0  0  0  0  0  0  0  0  0  0  0
   -0.3732   -2.9234   -1.6220 C   0  0  0  0  0  0  0  0  0  0  0  0
   -1.4768   -2.6545   -2.0712 O   0  0  0  0  0  0  0  0  0  0  0  0
   -0.0313   -4.1476   -1.1576 O   0  0  0  0  0  0  0  0  0  0  0  0
   -0.8357   -4.6851   -1.1856 H   0  0  0  0  0  0  0  0  0  0  0  0
   -0.3820    1.1169    0.7167 C   0  0  0  0  0  0  0  0  0  0  0  0
   -1.2676    1.8028    0.2193 O   0  0  0  0  0  0  0  0  0  0  0  0
    0.5167    1.7008    1.5905 N   0  0  0  0  0  0  0  0  0  0  0  0
    1.1947    1.0937    2.0424 H   0  0  0  0  0  0  0  0  0  0  0  0
    0.4443    3.1004    1.9932 C   0  0  0  0  0  0  0  0  0  0  0  0
   -0.5127    3.3101    2.4830 H   0  0  0  0  0  0  0  0  0  0  0  0
    1.2507    3.3346    2.6949 H   0  0  0  0  0  0  0  0  0  0  0  0
    0.5445    3.7554    1.1211 H   0  0  0  0  0  0  0  0  0  0  0  0
  1  2  1  0  0  0  0
  2  3  1  0  0  0  0
  2  4  1  0  0  0  0
  2  5  1  0  0  0  0
  5  6  2  0  0  0  0
  5  7  1  0  0  0  0
  7  8  1  0  0  0  0
  7  9  1  0  0  0  0
  9 10  1  0  0  0  0
  9 11  1  0  0  0  0
  9 21  1  0  0  0  0
 11 12  1  0  0  0  0
 11 13  1  0  0  0  0
 11 14  1  0  0  0  0
 14 15  1  0  0  0  0
 14 16  1  0  0  0  0
 14 17  1  0  0  0  0
 17 18  2  0  0  0  0
 17 19  1  0  0  0  0
 19 20  1  0  0  0  0
 21 22  2  0  0  0  0
 21 23  1  0  0  0  0
 23 24  1  0  0  0  0
 23 25  1  0  0  0  0
 25 26  1  0  0  0  0
 25 27  1  0  0  0  0
 25 28  1  0  0  0  0
M  END
$$$$

  -OEChem-02102214123D

 28 27  0     1  0  0  0  0  0999 V2000
   -3.2961   -3.7743    1.3648 H   0  0  0  0  0  0  0  0  0  0  0  0
   -3.2608   -2.7871    0.8960 C   0  0  0  0  0  0  0  0  0  0  0  0
   -3.9554   -2.1231    1.4159 H   0  0  0  0  0  0  0  0  0  0  0  0
   -3.5703   -2.8808   -0.1479 H   0  0  0  0  0  0  0  0  0  0  0  0
   -1.8552   -2.2229    0.9689 C   0  0  0  0  0  0  0  0  0  0  0  0
   -0.9714   -2.8484    1.5331 O   0  0  0  0  0  0  0  0  0  0  0  0
   -1.5779   -1.0030    0.3898 N   0  0  0  0  0  0  0  0  0  0  0  0
   -2.3447   -0.5226   -0.0788 H   0  0  0  0  0  0  0  0  0  0  0  0
   -0.2562   -0.3639    0.3409 C   0  0  1  0  0  0  0  0  0  0  0  0
    0.4075   -0.8364    1.0722 H   0  0  0  0  0  0  0  0  0  0  0  0
    0.4135   -0.4510   -1.0539 C   0  0  0  0  0  0  0  0  0  0  0  0
   -0.2208    0.0863   -1.7686 H   0  0  0  0  0  0  0  0  0  0  0  0
    1.3680    0.0840   -1.0078 H   0  0  0  0  0  0  0  0  0  0  0  0
    0.6912   -1.8599   -1.6327 C   0  0  0  0  0  0  0  0  0  0  0  0
    1.2021   -1.7494   -2.5928 H   0  0  0  0  0  0  0  0  0  0  0  0
    1.3789   -2.3730   -0.9544 H   0  0  0  0  0  0  0  0  0  0  0  0
   -0.5057   -2.7834   -1.8553 C   0  0  0  0  0  0  0  0  0  0  0  0
   -1.5505   -2.3192   -2.2853 O   0  0  0  0  0  0  0  0  0  0  0  0
   -0.3189   -4.1023   -1.6177 O   0  0  0  0  0  0  0  0  0  0  0  0
   -1.1620   -4.5353   -1.8144 H   0  0  0  0  0  0  0  0  0  0  0  0
   -0.3791    1.1286    0.7144 C   0  0  0  0  0  0  0  0  0  0  0  0
   -1.2730    1.8136    0.2312 O   0  0  0  0  0  0  0  0  0  0  0  0
    0.5191    1.7094    1.5910 N   0  0  0  0  0  0  0  0  0  0  0  0
    1.2034    1.1024    2.0334 H   0  0  0  0  0  0  0  0  0  0  0  0
    0.4313    3.1016    2.0162 C   0  0  0  0  0  0  0  0  0  0  0  0
   -0.5383    3.2991    2.4858 H   0  0  0  0  0  0  0  0  0  0  0  0
    1.2184    3.3267    2.7422 H   0  0  0  0  0  0  0  0  0  0  0  0
    0.5504    3.7720    1.1585 H   0  0  0  0  0  0  0  0  0  0  0  0
  1  2  1  0  0  0  0
  2  3  1  0  0  0  0
  2  4  1  0  0  0  0
  2  5  1  0  0  0  0
  5  6  2  0  0  0  0
  5  7  1  0  0  0  0
  7  8  1  0  0  0  0
  7  9  1  0  0  0  0
  9 10  1  0  0  0  0
  9 11  1  0  0  0  0
  9 21  1  0  0  0  0
 11 12  1  0  0  0  0
 11 13  1  0  0  0  0
 11 14  1  0  0  0  0
 14 15  1  0  0  0  0
 14 16  1  0  0  0  0
 14 17  1  0  0  0  0
 17 18  2  0  0  0  0
 17 19  1  0  0  0  0
 19 20  1  0  0  0  0
 21 22  2  0  0  0  0
 21 23  1  0  0  0  0
 23 24  1  0  0  0  0
 23 25  1  0  0  0  0
 25 26  1  0  0  0  0
 25 27  1  0  0  0  0
 25 28  1  0  0  0  0
M  END
$$$$

  -OEChem-02102214123D

 28 27  0     1  0  0  0  0  0999 V2000
   -3.2341   -3.8097    1.2764 H   0  0  0  0  0  0  0  0  0  0  0  0
   -3.2100   -2.8183    0.8156 C   0  0  0  0  0  0  0  0  0  0  0  0
   -3.9230   -2.1712    1.3322 H   0  0  0  0  0  0  0  0  0  0  0  0
   -3.5050   -2.9089   -0.2327 H   0  0  0  0  0  0  0  0  0  0  0  0
   -1.8151   -2.2306    0.9100 C   0  0  0  0  0  0  0  0  0  0  0  0
   -0.9230   -2.8520    1.4659 O   0  0  0  0  0  0  0  0  0  0  0  0
   -1.5528   -1.0000    0.3474 N   0  0  0  0  0  0  0  0  0  0  0  0
   -2.3208   -0.5287   -0.1284 H   0  0  0  0  0  0  0  0  0  0  0  0
   -0.2406   -0.3404    0.3189 C   0  0  1  0  0  0  0  0  0  0  0  0
    0.4244   -0.8107    1.0502 H   0  0  0  0  0  0  0  0  0  0  0  0
    0.4178   -0.4388   -1.0760 C   0  0  0  0  0  0  0  0  0  0  0  0
   -0.2005    0.0966   -1.8060 H   0  0  0  0  0  0  0  0  0  0  0  0
    1.3807    0.0804   -1.0321 H   0  0  0  0  0  0  0  0  0  0  0  0
    0.6756   -1.8782   -1.5816 C   0  0  0  0  0  0  0  0  0  0  0  0
    1.3833   -1.8334   -2.4133 H   0  0  0  0  0  0  0  0  0  0  0  0
    1.1488   -2.4520   -0.7792 H   0  0  0  0  0  0  0  0  0  0  0  0
   -0.5435   -2.6631   -2.0726 C   0  0  0  0  0  0  0  0  0  0  0  0
   -1.5404   -2.0721   -2.4581 O   0  0  0  0  0  0  0  0  0  0  0  0
   -0.4275   -4.0109   -2.0906 O   0  0  0  0  0  0  0  0  0  0  0  0
   -1.2658   -4.3485   -2.4385 H   0  0  0  0  0  0  0  0  0  0  0  0
   -0.3727    1.1475    0.7049 C   0  0  0  0  0  0  0  0  0  0  0  0
   -1.2693    1.8312    0.2255 O   0  0  0  0  0  0  0  0  0  0  0  0
    0.5165    1.7240    1.5934 N   0  0  0  0  0  0  0  0  0  0  0  0
    1.2038    1.1174    2.0311 H   0  0  0  0  0  0  0  0  0  0  0  0
    0.4156    3.1102    2.0349 C   0  0  0  0  0  0  0  0  0  0  0  0
   -0.5443    3.2847    2.5326 H   0  0  0  0  0  0  0  0  0  0  0  0
    1.2188    3.3431    2.7406 H   0  0  0  0  0  0  0  0  0  0  0  0
    0.4981    3.7913    1.1812 H   0  0  0  0  0  0  0  0  0  0  0  0
  1  2  1  0  0  0  0
  2  3  1  0  0  0  0
  2  4  1  0  0  0  0
  2  5  1  0  0  0  0
  5  6  2  0  0  0  0
  5  7  1  0  0  0  0
  7  8  1  0  0  0  0
  7  9  1  0  0  0  0
  9 10  1  0  0  0  0
  9 11  1  0  0  0  0
  9 21  1  0  0  0  0
 11 12  1  0  0  0  0
 11 13  1  0  0  0  0
 11 14  1  0  0  0  0
 14 15  1  0  0  0  0
 14 16  1  0  0  0  0
 14 17  1  0  0  0  0
 17 18  2  0  0  0  0
 17 19  1  0  0  0  0
 19 20  1  0  0  0  0
 21 22  2  0  0  0  0
 21 23  1  0  0  0  0
 23 24  1  0  0  0  0
 23 25  1  0  0  0  0
 25 26  1  0  0  0  0
 25 27  1  0  0  0  0
 25 28  1  0  0  0  0
M  END
$$$$

  -OEChem-02102214123D

 28 27  0     1  0  0  0  0  0999 V2000
   -3.2094   -3.8174    1.2351 H   0  0  0  0  0  0  0  0  0  0  0  0
   -3.1853   -2.8284    0.7692 C   0  0  0  0  0  0  0  0  0  0  0  0
   -3.9178   -2.1866    1.2646 H   0  0  0  0  0  0  0  0  0  0  0  0
   -3.4534   -2.9287   -0.2855 H   0  0  0  0  0  0  0  0  0  0  0  0
   -1.8001   -2.2242    0.8951 C   0  0  0  0  0  0  0  0  0  0  0  0
   -0.9161   -2.8330    1.4779 O   0  0  0  0  0  0  0  0  0  0  0  0
   -1.5374   -0.9937    0.3326 N   0  0  0  0  0  0  0  0  0  0  0  0
   -2.2932   -0.5442   -0.1824 H   0  0  0  0  0  0  0  0  0  0  0  0
   -0.2283   -0.3269    0.3211 C   0  0  1  0  0  0  0  0  0  0  0  0
    0.4344   -0.7930    1.0575 H   0  0  0  0  0  0  0  0  0  0  0  0
    0.4174   -0.4460   -1.0751 C   0  0  0  0  0  0  0  0  0  0  0  0
   -0.1863    0.0909   -1.8157 H   0  0  0  0  0  0  0  0  0  0  0  0
    1.3895    0.0565   -1.0361 H   0  0  0  0  0  0  0  0  0  0  0  0
    0.6520   -1.9076   -1.5266 C   0  0  0  0  0  0  0  0  0  0  0  0
    1.5227   -1.9232   -2.1874 H   0  0  0  0  0  0  0  0  0  0  0  0
    0.8942   -2.5280   -0.6589 H   0  0  0  0  0  0  0  0  0  0  0  0
   -0.4943   -2.5702   -2.2981 C   0  0  0  0  0  0  0  0  0  0  0  0
   -1.5376   -1.9708   -2.5086 O   0  0  0  0  0  0  0  0  0  0  0  0
   -0.2672   -3.8316   -2.7300 O   0  0  0  0  0  0  0  0  0  0  0  0
   -1.0724   -4.1033   -3.1952 H   0  0  0  0  0  0  0  0  0  0  0  0
   -0.3635    1.1624    0.6991 C   0  0  0  0  0  0  0  0  0  0  0  0
   -1.2454    1.8488    0.1968 O   0  0  0  0  0  0  0  0  0  0  0  0
    0.5150    1.7408    1.5967 N   0  0  0  0  0  0  0  0  0  0  0  0
    1.1904    1.1330    2.0511 H   0  0  0  0  0  0  0  0  0  0  0  0
    0.4137    3.1301    2.0277 C   0  0  0  0  0  0  0  0  0  0  0  0
   -0.5568    3.3156    2.5004 H   0  0  0  0  0  0  0  0  0  0  0  0
    1.2007    3.3603    2.7523 H   0  0  0  0  0  0  0  0  0  0  0  0
    0.5234    3.8054    1.1724 H   0  0  0  0  0  0  0  0  0  0  0  0
  1  2  1  0  0  0  0
  2  3  1  0  0  0  0
  2  4  1  0  0  0  0
  2  5  1  0  0  0  0
  5  6  2  0  0  0  0
  5  7  1  0  0  0  0
  7  8  1  0  0  0  0
  7  9  1  0  0  0  0
  9 10  1  0  0  0  0
  9 11  1  0  0  0  0
  9 21  1  0  0  0  0
 11 12  1  0  0  0  0
 11 13  1  0  0  0  0
 11 14  1  0  0  0  0
 14 15  1  0  0  0  0
 14 16  1  0  0  0  0
 14 17  1  0  0  0  0
 17 18  2  0  0  0  0
 17 19  1  0  0  0  0
 19 20  1  0  0  0  0
 21 22  2  0  0  0  0
 21 23  1  0  0  0  0
 23 24  1  0  0  0  0
 23 25  1  0  0  0  0
 25 26  1  0  0  0  0
 25 27  1  0  0  0  0
 25 28  1  0  0  0  0
M  END
$$$$

  -OEChem-02102214123D

 28 27  0     1  0  0  0  0  0999 V2000
   -3.2291   -3.8123    1.2320 H   0  0  0  0  0  0  0  0  0  0  0  0
   -3.1924   -2.8298    0.7536 C   0  0  0  0  0  0  0  0  0  0  0  0
   -3.9571   -2.1898    1.2002 H   0  0  0  0  0  0  0  0  0  0  0  0
   -3.4037   -2.9485   -0.3122 H   0  0  0  0  0  0  0  0  0  0  0  0
   -1.8224   -2.2071    0.9407 C   0  0  0  0  0  0  0  0  0  0  0  0
   -0.9716   -2.7819    1.6030 O   0  0  0  0  0  0  0  0  0  0  0  0
   -1.5385   -0.9943    0.3507 N   0  0  0  0  0  0  0  0  0  0  0  0
   -2.2657   -0.5827   -0.2318 H   0  0  0  0  0  0  0  0  0  0  0  0
   -0.2235   -0.3381    0.3439 C   0  0  1  0  0  0  0  0  0  0  0  0
    0.4292   -0.7931    1.0959 H   0  0  0  0  0  0  0  0  0  0  0  0
    0.4233   -0.5010   -1.0467 C   0  0  0  0  0  0  0  0  0  0  0  0
   -0.1810    0.0178   -1.8001 H   0  0  0  0  0  0  0  0  0  0  0  0
    1.3987   -0.0033   -1.0264 H   0  0  0  0  0  0  0  0  0  0  0  0
    0.6402   -1.9773   -1.4559 C   0  0  0  0  0  0  0  0  0  0  0  0
    1.6404   -2.0640   -1.8898 H   0  0  0  0  0  0  0  0  0  0  0  0
    0.6171   -2.6333   -0.5818 H   0  0  0  0  0  0  0  0  0  0  0  0
   -0.3513   -2.4961   -2.4995 C   0  0  0  0  0  0  0  0  0  0  0  0
   -1.5236   -2.1585   -2.4453 O   0  0  0  0  0  0  0  0  0  0  0  0
    0.1385   -3.3268   -3.4485 O   0  0  0  0  0  0  0  0  0  0  0  0
   -0.6136   -3.5577   -4.0143 H   0  0  0  0  0  0  0  0  0  0  0  0
   -0.3470    1.1621    0.6797 C   0  0  0  0  0  0  0  0  0  0  0  0
   -1.2030    1.8482    0.1338 O   0  0  0  0  0  0  0  0  0  0  0  0
    0.5245    1.7530    1.5761 N   0  0  0  0  0  0  0  0  0  0  0  0
    1.1689    1.1446    2.0728 H   0  0  0  0  0  0  0  0  0  0  0  0
    0.4271    3.1520    1.9753 C   0  0  0  0  0  0  0  0  0  0  0  0
   -0.5279    3.3408    2.4769 H   0  0  0  0  0  0  0  0  0  0  0  0
    1.2375    3.4066    2.6649 H   0  0  0  0  0  0  0  0  0  0  0  0
    0.5011    3.8066    1.1004 H   0  0  0  0  0  0  0  0  0  0  0  0
  1  2  1  0  0  0  0
  2  3  1  0  0  0  0
  2  4  1  0  0  0  0
  2  5  1  0  0  0  0
  5  6  2  0  0  0  0
  5  7  1  0  0  0  0
  7  8  1  0  0  0  0
  7  9  1  0  0  0  0
  9 10  1  0  0  0  0
  9 11  1  0  0  0  0
  9 21  1  0  0  0  0
 11 12  1  0  0  0  0
 11 13  1  0  0  0  0
 11 14  1  0  0  0  0
 14 15  1  0  0  0  0
 14 16  1  0  0  0  0
 14 17  1  0  0  0  0
 17 18  2  0  0  0  0
 17 19  1  0  0  0  0
 19 20  1  0  0  0  0
 21 22  2  0  0  0  0
 21 23  1  0  0  0  0
 23 24  1  0  0  0  0
 23 25  1  0  0  0  0
 25 26  1  0  0  0  0
 25 27  1  0  0  0  0
 25 28  1  0  0  0  0
M  END
$$$$

  -OEChem-02102214123D

 28 27  0     1  0  0  0  0  0999 V2000
   -3.3104   -3.7658    1.2963 H   0  0  0  0  0  0  0  0  0  0  0  0
   -3.2384   -2.8090    0.7720 C   0  0  0  0  0  0  0  0  0  0  0  0
   -3.9981   -2.1307    1.1674 H   0  0  0  0  0  0  0  0  0  0  0  0
   -3.4259   -2.9754   -0.2919 H   0  0  0  0  0  0  0  0  0  0  0  0
   -1.8588   -2.2096    0.9630 C   0  0  0  0  0  0  0  0  0  0  0  0
   -1.0313   -2.7804    1.6572 O   0  0  0  0  0  0  0  0  0  0  0  0
   -1.5425   -1.0159    0.3498 N   0  0  0  0  0  0  0  0  0  0  0  0
   -2.2709   -0.5734   -0.2077 H   0  0  0  0  0  0  0  0  0  0  0  0
   -0.2173   -0.3759    0.3536 C   0  0  1  0  0  0  0  0  0  0  0  0
    0.4184   -0.8236    1.1245 H   0  0  0  0  0  0  0  0  0  0  0  0
    0.4439   -0.5730   -1.0247 C   0  0  0  0  0  0  0  0  0  0  0  0
   -0.1655   -0.0692   -1.7846 H   0  0  0  0  0  0  0  0  0  0  0  0
    1.4202   -0.0767   -1.0214 H   0  0  0  0  0  0  0  0  0  0  0  0
    0.6473   -2.0570   -1.4080 C   0  0  0  0  0  0  0  0  0  0  0  0
    1.7141   -2.2385   -1.5660 H   0  0  0  0  0  0  0  0  0  0  0  0
    0.3321   -2.7307   -0.6088 H   0  0  0  0  0  0  0  0  0  0  0  0
   -0.0946   -2.4217   -2.6883 C   0  0  0  0  0  0  0  0  0  0  0  0
   -1.3116   -2.5072   -2.6487 O   0  0  0  0  0  0  0  0  0  0  0  0
    0.6341   -2.6119   -3.8126 O   0  0  0  0  0  0  0  0  0  0  0  0
   -0.0046   -2.8234   -4.5103 H   0  0  0  0  0  0  0  0  0  0  0  0
   -0.3295    1.1335    0.6494 C   0  0  0  0  0  0  0  0  0  0  0  0
   -1.1736    1.8107    0.0746 O   0  0  0  0  0  0  0  0  0  0  0  0
    0.5294    1.7392    1.5480 N   0  0  0  0  0  0  0  0  0  0  0  0
    1.1616    1.1389    2.0697 H   0  0  0  0  0  0  0  0  0  0  0  0
    0.4457    3.1514    1.9019 C   0  0  0  0  0  0  0  0  0  0  0  0
   -0.5020    3.3641    2.4078 H   0  0  0  0  0  0  0  0  0  0  0  0
    1.2664    3.4230    2.5728 H   0  0  0  0  0  0  0  0  0  0  0  0
    0.5140    3.7767    1.0053 H   0  0  0  0  0  0  0  0  0  0  0  0
  1  2  1  0  0  0  0
  2  3  1  0  0  0  0
  2  4  1  0  0  0  0
  2  5  1  0  0  0  0
  5  6  2  0  0  0  0
  5  7  1  0  0  0  0
  7  8  1  0  0  0  0
  7  9  1  0  0  0  0
  9 10  1  0  0  0  0
  9 11  1  0  0  0  0
  9 21  1  0  0  0  0
 11 12  1  0  0  0  0
 11 13  1  0  0  0  0
 11 14  1  0  0  0  0
 14 15  1  0  0  0  0
 14 16  1  0  0  0  0
 14 17  1  0  0  0  0
 17 18  2  0  0  0  0
 17 19  1  0  0  0  0
 19 20  1  0  0  0  0
 21 22  2  0  0  0  0
 21 23  1  0  0  0  0
 23 24  1  0  0  0  0
 23 25  1  0  0  0  0
 25 26  1  0  0  0  0
 25 27  1  0  0  0  0
 25 28  1  0  0  0  0
M  END
$$$$

  -OEChem-02102214123D

 28 27  0     1  0  0  0  0  0999 V2000
   -3.2765   -3.7587    1.3288 H   0  0  0  0  0  0  0  0  0  0  0  0
   -3.2292   -2.7853    0.8326 C   0  0  0  0  0  0  0  0  0  0  0  0
   -3.9071   -2.0964    1.3423 H   0  0  0  0  0  0  0  0  0  0  0  0
   -3.5523   -2.9022   -0.2046 H   0  0  0  0  0  0  0  0  0  0  0  0
   -1.8128   -2.2445    0.8753 C   0  0  0  0  0  0  0  0  0  0  0  0
   -0.9297   -2.8821    1.4271 O   0  0  0  0  0  0  0  0  0  0  0  0
   -1.5327   -1.0185    0.3090 N   0  0  0  0  0  0  0  0  0  0  0  0
   -2.3171   -0.4857   -0.0646 H   0  0  0  0  0  0  0  0  0  0  0  0
   -0.2183   -0.3551    0.3048 C   0  0  1  0  0  0  0  0  0  0  0  0
    0.4371   -0.8217    1.0476 H   0  0  0  0  0  0  0  0  0  0  0  0
    0.4526   -0.4551   -1.0817 C   0  0  0  0  0  0  0  0  0  0  0  0
   -0.1961    0.0762   -1.7859 H   0  0  0  0  0  0  0  0  0  0  0  0
    1.4070    0.0814   -1.0668 H   0  0  0  0  0  0  0  0  0  0  0  0
    0.7086   -1.9085   -1.5674 C   0  0  0  0  0  0  0  0  0  0  0  0
    1.7687   -2.1377   -1.4299 H   0  0  0  0  0  0  0  0  0  0  0  0
    0.1561   -2.6193   -0.9528 H   0  0  0  0  0  0  0  0  0  0  0  0
    0.3403   -2.2163   -3.0221 C   0  0  0  0  0  0  0  0  0  0  0  0
   -0.1855   -1.3722   -3.7284 O   0  0  0  0  0  0  0  0  0  0  0  0
    0.6419   -3.4603   -3.4591 O   0  0  0  0  0  0  0  0  0  0  0  0
    0.3535   -3.4918   -4.3837 H   0  0  0  0  0  0  0  0  0  0  0  0
   -0.3665    1.1348    0.6754 C   0  0  0  0  0  0  0  0  0  0  0  0
   -1.2840    1.7961    0.2037 O   0  0  0  0  0  0  0  0  0  0  0  0
    0.4991    1.7224    1.5791 N   0  0  0  0  0  0  0  0  0  0  0  0
    1.2046    1.1309    2.0087 H   0  0  0  0  0  0  0  0  0  0  0  0
    0.3758    3.1076    2.0172 C   0  0  0  0  0  0  0  0  0  0  0  0
   -0.5858    3.2674    2.5165 H   0  0  0  0  0  0  0  0  0  0  0  0
    1.1767    3.3550    2.7208 H   0  0  0  0  0  0  0  0  0  0  0  0
    0.4460    3.7880    1.1618 H   0  0  0  0  0  0  0  0  0  0  0  0
  1  2  1  0  0  0  0
  2  3  1  0  0  0  0
  2  4  1  0  0  0  0
  2  5  1  0  0  0  0
  5  6  2  0  0  0  0
  5  7  1  0  0  0  0
  7  8  1  0  0  0  0
  7  9  1  0  0  0  0
  9 10  1  0  0  0  0
  9 11  1  0  0  0  0
  9 21  1  0  0  0  0
 11 12  1  0  0  0  0
 11 13  1  0  0  0  0
 11 14  1  0  0  0  0
 14 15  1  0  0  0  0
 14 16  1  0  0  0  0
 14 17  1  0  0  0  0
 17 18  2  0  0  0  0
 17 19  1  0  0  0  0
 19 20  1  0  0  0  0
 21 22  2  0  0  0  0
 21 23  1  0  0  0  0
 23 24  1  0  0  0  0
 23 25  1  0  0  0  0
 25 26  1  0  0  0  0
 25 27  1  0  0  0  0
 25 28  1  0  0  0  0
M  END
$$$$

  -OEChem-02102214123D

 28 27  0     1  0  0  0  0  0999 V2000
   -3.2112   -3.8120    1.3021 H   0  0  0  0  0  0  0  0  0  0  0  0
   -3.1743   -2.8340    0.8142 C   0  0  0  0  0  0  0  0  0  0  0  0
   -3.8649   -2.1586    1.3246 H   0  0  0  0  0  0  0  0  0  0  0  0
   -3.4885   -2.9480   -0.2262 H   0  0  0  0  0  0  0  0  0  0  0  0
   -1.7663   -2.2740    0.8706 C   0  0  0  0  0  0  0  0  0  0  0  0
   -0.8834   -2.8924    1.4439 O   0  0  0  0  0  0  0  0  0  0  0  0
   -1.4896   -1.0585    0.2805 N   0  0  0  0  0  0  0  0  0  0  0  0
   -2.2749   -0.5347   -0.1032 H   0  0  0  0  0  0  0  0  0  0  0  0
   -0.1844   -0.3785    0.3055 C   0  0  1  0  0  0  0  0  0  0  0  0
    0.4496   -0.8141    1.0848 H   0  0  0  0  0  0  0  0  0  0  0  0
    0.5392   -0.5073   -1.0503 C   0  0  0  0  0  0  0  0  0  0  0  0
   -0.0948   -0.0312   -1.8076 H   0  0  0  0  0  0  0  0  0  0  0  0
    1.4825    0.0489   -1.0237 H   0  0  0  0  0  0  0  0  0  0  0  0
    0.8281   -1.9622   -1.4822 C   0  0  0  0  0  0  0  0  0  0  0  0
    1.7873   -2.2896   -1.0726 H   0  0  0  0  0  0  0  0  0  0  0  0
    0.0654   -2.6411   -1.0979 H   0  0  0  0  0  0  0  0  0  0  0  0
    0.8407   -2.1121   -2.9997 C   0  0  0  0  0  0  0  0  0  0  0  0
    1.5925   -1.4022   -3.6468 O   0  0  0  0  0  0  0  0  0  0  0  0
    0.0040   -3.0186   -3.5564 O   0  0  0  0  0  0  0  0  0  0  0  0
    0.1550   -2.9657   -4.5123 H   0  0  0  0  0  0  0  0  0  0  0  0
   -0.3694    1.1173    0.6319 C   0  0  0  0  0  0  0  0  0  0  0  0
   -1.2830    1.7465    0.1105 O   0  0  0  0  0  0  0  0  0  0  0  0
    0.4512    1.7455    1.5502 N   0  0  0  0  0  0  0  0  0  0  0  0
    1.1561    1.1813    2.0164 H   0  0  0  0  0  0  0  0  0  0  0  0
    0.2800    3.1363    1.9531 C   0  0  0  0  0  0  0  0  0  0  0  0
   -0.6853    3.2740    2.4516 H   0  0  0  0  0  0  0  0  0  0  0  0
    1.0736    3.4305    2.6468 H   0  0  0  0  0  0  0  0  0  0  0  0
    0.3233    3.7967    1.0805 H   0  0  0  0  0  0  0  0  0  0  0  0
  1  2  1  0  0  0  0
  2  3  1  0  0  0  0
  2  4  1  0  0  0  0
  2  5  1  0  0  0  0
  5  6  2  0  0  0  0
  5  7  1  0  0  0  0
  7  8  1  0  0  0  0
  7  9  1  0  0  0  0
  9 10  1  0  0  0  0
  9 11  1  0  0  0  0
  9 21  1  0  0  0  0
 11 12  1  0  0  0  0
 11 13  1  0  0  0  0
 11 14  1  0  0  0  0
 14 15  1  0  0  0  0
 14 16  1  0  0  0  0
 14 17  1  0  0  0  0
 17 18  2  0  0  0  0
 17 19  1  0  0  0  0
 19 20  1  0  0  0  0
 21 22  2  0  0  0  0
 21 23  1  0  0  0  0
 23 24  1  0  0  0  0
 23 25  1  0  0  0  0
 25 26  1  0  0  0  0
 25 27  1  0  0  0  0
 25 28  1  0  0  0  0
M  END
$$$$

  -OEChem-02102214123D

 28 27  0     1  0  0  0  0  0999 V2000
   -3.2305   -3.7782    1.3061 H   0  0  0  0  0  0  0  0  0  0  0  0
   -3.1952   -2.7944    0.8297 C   0  0  0  0  0  0  0  0  0  0  0  0
   -3.8570   -2.1155    1.3728 H   0  0  0  0  0  0  0  0  0  0  0  0
   -3.5474   -2.8892   -0.2004 H   0  0  0  0  0  0  0  0  0  0  0  0
   -1.7770   -2.2572    0.8437 C   0  0  0  0  0  0  0  0  0  0  0  0
   -0.8827   -2.9023    1.3675 O   0  0  0  0  0  0  0  0  0  0  0  0
   -1.5027   -1.0346    0.2674 N   0  0  0  0  0  0  0  0  0  0  0  0
   -2.2938   -0.4852   -0.0656 H   0  0  0  0  0  0  0  0  0  0  0  0
   -0.1931   -0.3640    0.2916 C   0  0  1  0  0  0  0  0  0  0  0  0
    0.4417   -0.8128    1.0627 H   0  0  0  0  0  0  0  0  0  0  0  0
    0.5220   -0.4860   -1.0684 C   0  0  0  0  0  0  0  0  0  0  0  0
   -0.1029    0.0002   -1.8266 H   0  0  0  0  0  0  0  0  0  0  0  0
    1.4733    0.0565   -1.0328 H   0  0  0  0  0  0  0  0  0  0  0  0
    0.7901   -1.9448   -1.4996 C   0  0  0  0  0  0  0  0  0  0  0  0
    1.5893   -2.3733   -0.8889 H   0  0  0  0  0  0  0  0  0  0  0  0
   -0.1037   -2.5520   -1.3428 H   0  0  0  0  0  0  0  0  0  0  0  0
    1.1592   -2.0697   -2.9767 C   0  0  0  0  0  0  0  0  0  0  0  0
    1.7861   -1.1701   -3.5124 O   0  0  0  0  0  0  0  0  0  0  0  0
    0.7690   -3.1924   -3.6232 O   0  0  0  0  0  0  0  0  0  0  0  0
    1.0907   -3.0992   -4.5326 H   0  0  0  0  0  0  0  0  0  0  0  0
   -0.3669    1.1280    0.6410 C   0  0  0  0  0  0  0  0  0  0  0  0
   -1.2907    1.7649    0.1474 O   0  0  0  0  0  0  0  0  0  0  0  0
    0.4636    1.7398    1.5615 N   0  0  0  0  0  0  0  0  0  0  0  0
    1.1765    1.1690    2.0068 H   0  0  0  0  0  0  0  0  0  0  0  0
    0.2985    3.1246    1.9874 C   0  0  0  0  0  0  0  0  0  0  0  0
   -0.6676    3.2598    2.4849 H   0  0  0  0  0  0  0  0  0  0  0  0
    1.0912    3.4025    2.6886 H   0  0  0  0  0  0  0  0  0  0  0  0
    0.3484    3.7993    1.1261 H   0  0  0  0  0  0  0  0  0  0  0  0
  1  2  1  0  0  0  0
  2  3  1  0  0  0  0
  2  4  1  0  0  0  0
  2  5  1  0  0  0  0
  5  6  2  0  0  0  0
  5  7  1  0  0  0  0
  7  8  1  0  0  0  0
  7  9  1  0  0  0  0
  9 10  1  0  0  0  0
  9 11  1  0  0  0  0
  9 21  1  0  0  0  0
 11 12  1  0  0  0  0
 11 13  1  0  0  0  0
 11 14  1  0  0  0  0
 14 15  1  0  0  0  0
 14 16  1  0  0  0  0
 14 17  1  0  0  0  0
 17 18  2  0  0  0  0
 17 19  1  0  0  0  0
 19 20  1  0  0  0  0
 21 22  2  0  0  0  0
 21 23  1  0  0  0  0
 23 24  1  0  0  0  0
 23 25  1  0  0  0  0
 25 26  1  0  0  0  0
 25 27  1  0  0  0  0
 25 28  1  0  0  0  0
M  END
$$$$

  -OEChem-02102214123D

 28 27  0     1  0  0  0  0  0999 V2000
   -3.2598   -3.7559    1.3432 H   0  0  0  0  0  0  0  0  0  0  0  0
   -3.2278   -2.7746    0.8618 C   0  0  0  0  0  0  0  0  0  0  0  0
   -3.8667   -2.0869    1.4213 H   0  0  0  0  0  0  0  0  0  0  0  0
   -3.6104   -2.8697   -0.1571 H   0  0  0  0  0  0  0  0  0  0  0  0
   -1.8042   -2.2521    0.8325 C   0  0  0  0  0  0  0  0  0  0  0  0
   -0.8975   -2.9171    1.3079 O   0  0  0  0  0  0  0  0  0  0  0  0
   -1.5401   -1.0211    0.2689 N   0  0  0  0  0  0  0  0  0  0  0  0
   -2.3384   -0.4619   -0.0284 H   0  0  0  0  0  0  0  0  0  0  0  0
   -0.2286   -0.3530    0.2736 C   0  0  1  0  0  0  0  0  0  0  0  0
    0.4064   -0.8172    1.0354 H   0  0  0  0  0  0  0  0  0  0  0  0
    0.4887   -0.4794   -1.0869 C   0  0  0  0  0  0  0  0  0  0  0  0
    0.0200    0.2107   -1.7981 H   0  0  0  0  0  0  0  0  0  0  0  0
    1.5318   -0.1674   -0.9653 H   0  0  0  0  0  0  0  0  0  0  0  0
    0.4415   -1.9009   -1.6911 C   0  0  0  0  0  0  0  0  0  0  0  0
    0.8945   -2.6101   -0.9925 H   0  0  0  0  0  0  0  0  0  0  0  0
   -0.5973   -2.2026   -1.8463 H   0  0  0  0  0  0  0  0  0  0  0  0
    1.1541   -2.0226   -3.0383 C   0  0  0  0  0  0  0  0  0  0  0  0
    1.8788   -1.1211   -3.4279 O   0  0  0  0  0  0  0  0  0  0  0  0
    0.9365   -3.1571   -3.7423 O   0  0  0  0  0  0  0  0  0  0  0  0
    1.4602   -3.0700   -4.5530 H   0  0  0  0  0  0  0  0  0  0  0  0
   -0.3792    1.1353    0.6479 C   0  0  0  0  0  0  0  0  0  0  0  0
   -1.3124    1.7854    0.1909 O   0  0  0  0  0  0  0  0  0  0  0  0
    0.4793    1.7262    1.5562 N   0  0  0  0  0  0  0  0  0  0  0  0
    1.2099    1.1476    1.9610 H   0  0  0  0  0  0  0  0  0  0  0  0
    0.3408    3.1067    2.0052 C   0  0  0  0  0  0  0  0  0  0  0  0
   -0.6214    3.2516    2.5080 H   0  0  0  0  0  0  0  0  0  0  0  0
    1.1401    3.3579    2.7092 H   0  0  0  0  0  0  0  0  0  0  0  0
    0.4010    3.7944    1.1550 H   0  0  0  0  0  0  0  0  0  0  0  0
  1  2  1  0  0  0  0
  2  3  1  0  0  0  0
  2  4  1  0  0  0  0
  2  5  1  0  0  0  0
  5  6  2  0  0  0  0
  5  7  1  0  0  0  0
  7  8  1  0  0  0  0
  7  9  1  0  0  0  0
  9 10  1  0  0  0  0
  9 11  1  0  0  0  0
  9 21  1  0  0  0  0
 11 12  1  0  0  0  0
 11 13  1  0  0  0  0
 11 14  1  0  0  0  0
 14 15  1  0  0  0  0
 14 16  1  0  0  0  0
 14 17  1  0  0  0  0
 17 18  2  0  0  0  0
 17 19  1  0  0  0  0
 19 20  1  0  0  0  0
 21 22  2  0  0  0  0
 21 23  1  0  0  0  0
 23 24  1  0  0  0  0
 23 25  1  0  0  0  0
 25 26  1  0  0  0  0
 25 27  1  0  0  0  0
 25 28  1  0  0  0  0
M  END
$$$$

  -OEChem-02102214123D

 28 27  0     1  0  0  0  0  0999 V2000
   -3.2574   -3.7680    1.3135 H   0  0  0  0  0  0  0  0  0  0  0  0
   -3.2237   -2.7922    0.8206 C   0  0  0  0  0  0  0  0  0  0  0  0
   -3.8881   -2.1063    1.3518 H   0  0  0  0  0  0  0  0  0  0  0  0
   -3.5742   -2.9049   -0.2081 H   0  0  0  0  0  0  0  0  0  0  0  0
   -1.8066   -2.2514    0.8273 C   0  0  0  0  0  0  0  0  0  0  0  0
   -0.9054   -2.9065    1.3262 O   0  0  0  0  0  0  0  0  0  0  0  0
   -1.5423   -1.0154    0.2745 N   0  0  0  0  0  0  0  0  0  0  0  0
   -2.3383   -0.4636   -0.0420 H   0  0  0  0  0  0  0  0  0  0  0  0
   -0.2310   -0.3457    0.2827 C   0  0  1  0  0  0  0  0  0  0  0  0
    0.4098   -0.8188    1.0340 H   0  0  0  0  0  0  0  0  0  0  0  0
    0.4683   -0.4589   -1.0875 C   0  0  0  0  0  0  0  0  0  0  0  0
    0.0100    0.2427   -1.7939 H   0  0  0  0  0  0  0  0  0  0  0  0
    1.5136   -0.1579   -0.9571 H   0  0  0  0  0  0  0  0  0  0  0  0
    0.4066   -1.8767   -1.6990 C   0  0  0  0  0  0  0  0  0  0  0  0
    0.6462   -2.6113   -0.9248 H   0  0  0  0  0  0  0  0  0  0  0  0
   -0.6069   -2.0822   -2.0532 H   0  0  0  0  0  0  0  0  0  0  0  0
    1.3793   -2.1041   -2.8568 C   0  0  0  0  0  0  0  0  0  0  0  0
    2.0549   -1.1792   -3.2787 O   0  0  0  0  0  0  0  0  0  0  0  0
    1.4314   -3.3549   -3.3690 O   0  0  0  0  0  0  0  0  0  0  0  0
    2.0871   -3.3218   -4.0818 H   0  0  0  0  0  0  0  0  0  0  0  0
   -0.3746    1.1398    0.6695 C   0  0  0  0  0  0  0  0  0  0  0  0
   -1.2982    1.8014    0.2099 O   0  0  0  0  0  0  0  0  0  0  0  0
    0.4892    1.7196    1.5801 N   0  0  0  0  0  0  0  0  0  0  0  0
    1.2166    1.1343    1.9808 H   0  0  0  0  0  0  0  0  0  0  0  0
    0.3781    3.1070    2.0146 C   0  0  0  0  0  0  0  0  0  0  0  0
   -0.5926    3.2841    2.4899 H   0  0  0  0  0  0  0  0  0  0  0  0
    1.1647    3.3420    2.7381 H   0  0  0  0  0  0  0  0  0  0  0  0
    0.4809    3.7843    1.1603 H   0  0  0  0  0  0  0  0  0  0  0  0
  1  2  1  0  0  0  0
  2  3  1  0  0  0  0
  2  4  1  0  0  0  0
  2  5  1  0  0  0  0
  5  6  2  0  0  0  0
  5  7  1  0  0  0  0
  7  8  1  0  0  0  0
  7  9  1  0  0  0  0
  9 10  1  0  0  0  0
  9 11  1  0  0  0  0
  9 21  1  0  0  0  0
 11 12  1  0  0  0  0
 11 13  1  0  0  0  0
 11 14  1  0  0  0  0
 14 15  1  0  0  0  0
 14 16  1  0  0  0  0
 14 17  1  0  0  0  0
 17 18  2  0  0  0  0
 17 19  1  0  0  0  0
 19 20  1  0  0  0  0
 21 22  2  0  0  0  0
 21 23  1  0  0  0  0
 23 24  1  0  0  0  0
 23 25  1  0  0  0  0
 25 26  1  0  0  0  0
 25 27  1  0  0  0  0
 25 28  1  0  0  0  0
M  END
$$$$

  -OEChem-02102214123D

 28 27  0     1  0  0  0  0  0999 V2000
   -3.2724   -3.7623    1.3054 H   0  0  0  0  0  0  0  0  0  0  0  0
   -3.2302   -2.7870    0.8125 C   0  0  0  0  0  0  0  0  0  0  0  0
   -3.8980   -2.0987    1.3360 H   0  0  0  0  0  0  0  0  0  0  0  0
   -3.5692   -2.8991   -0.2201 H   0  0  0  0  0  0  0  0  0  0  0  0
   -1.8118   -2.2504    0.8361 C   0  0  0  0  0  0  0  0  0  0  0  0
   -0.9219   -2.8994    1.3626 O   0  0  0  0  0  0  0  0  0  0  0  0
   -1.5377   -1.0176    0.2811 N   0  0  0  0  0  0  0  0  0  0  0  0
   -2.3282   -0.4696   -0.0551 H   0  0  0  0  0  0  0  0  0  0  0  0
   -0.2246   -0.3511    0.2917 C   0  0  1  0  0  0  0  0  0  0  0  0
    0.4167   -0.8256    1.0416 H   0  0  0  0  0  0  0  0  0  0  0  0
    0.4715   -0.4553   -1.0822 C   0  0  0  0  0  0  0  0  0  0  0  0
    0.0222    0.2568   -1.7838 H   0  0  0  0  0  0  0  0  0  0  0  0
    1.5143   -0.1536   -0.9366 H   0  0  0  0  0  0  0  0  0  0  0  0
    0.4116   -1.8664   -1.7155 C   0  0  0  0  0  0  0  0  0  0  0  0
    0.4111   -2.6155   -0.9196 H   0  0  0  0  0  0  0  0  0  0  0  0
   -0.5177   -1.9792   -2.2798 H   0  0  0  0  0  0  0  0  0  0  0  0
    1.5950   -2.2153   -2.6200 C   0  0  0  0  0  0  0  0  0  0  0  0
    2.3696   -1.3435   -2.9803 O   0  0  0  0  0  0  0  0  0  0  0  0
    1.7079   -3.5095   -2.9966 O   0  0  0  0  0  0  0  0  0  0  0  0
    2.4941   -3.5541   -3.5612 H   0  0  0  0  0  0  0  0  0  0  0  0
   -0.3700    1.1356    0.6738 C   0  0  0  0  0  0  0  0  0  0  0  0
   -1.2875    1.7985    0.2035 O   0  0  0  0  0  0  0  0  0  0  0  0
    0.4907    1.7166    1.5864 N   0  0  0  0  0  0  0  0  0  0  0  0
    1.2073    1.1274    2.0011 H   0  0  0  0  0  0  0  0  0  0  0  0
    0.3780    3.1045    2.0192 C   0  0  0  0  0  0  0  0  0  0  0  0
   -0.5927    3.2802    2.4948 H   0  0  0  0  0  0  0  0  0  0  0  0
    1.1652    3.3411    2.7417 H   0  0  0  0  0  0  0  0  0  0  0  0
    0.4789    3.7819    1.1644 H   0  0  0  0  0  0  0  0  0  0  0  0
  1  2  1  0  0  0  0
  2  3  1  0  0  0  0
  2  4  1  0  0  0  0
  2  5  1  0  0  0  0
  5  6  2  0  0  0  0
  5  7  1  0  0  0  0
  7  8  1  0  0  0  0
  7  9  1  0  0  0  0
  9 10  1  0  0  0  0
  9 11  1  0  0  0  0
  9 21  1  0  0  0  0
 11 12  1  0  0  0  0
 11 13  1  0  0  0  0
 11 14  1  0  0  0  0
 14 15  1  0  0  0  0
 14 16  1  0  0  0  0
 14 17  1  0  0  0  0
 17 18  2  0  0  0  0
 17 19  1  0  0  0  0
 19 20  1  0  0  0  0
 21 22  2  0  0  0  0
 21 23  1  0  0  0  0
 23 24  1  0  0  0  0
 23 25  1  0  0  0  0
 25 26  1  0  0  0  0
 25 27  1  0  0  0  0
 25 28  1  0  0  0  0
M  END
$$$$

  -OEChem-02102214123D

 28 27  0     1  0  0  0  0  0999 V2000
   -3.2918   -3.7509    1.2988 H   0  0  0  0  0  0  0  0  0  0  0  0
   -3.2436   -2.7711    0.8154 C   0  0  0  0  0  0  0  0  0  0  0  0
   -3.9090   -2.0841    1.3439 H   0  0  0  0  0  0  0  0  0  0  0  0
   -3.5811   -2.8719   -0.2190 H   0  0  0  0  0  0  0  0  0  0  0  0
   -1.8226   -2.2422    0.8474 C   0  0  0  0  0  0  0  0  0  0  0  0
   -0.9408   -2.8911    1.3874 O   0  0  0  0  0  0  0  0  0  0  0  0
   -1.5373   -1.0142    0.2874 N   0  0  0  0  0  0  0  0  0  0  0  0
   -2.3221   -0.4653   -0.0605 H   0  0  0  0  0  0  0  0  0  0  0  0
   -0.2193   -0.3568    0.2925 C   0  0  1  0  0  0  0  0  0  0  0  0
    0.4214   -0.8327    1.0421 H   0  0  0  0  0  0  0  0  0  0  0  0
    0.4788   -0.4589   -1.0824 C   0  0  0  0  0  0  0  0  0  0  0  0
    0.0241    0.2564   -1.7771 H   0  0  0  0  0  0  0  0  0  0  0  0
    1.5174   -0.1443   -0.9363 H   0  0  0  0  0  0  0  0  0  0  0  0
    0.4259   -1.8620   -1.7424 C   0  0  0  0  0  0  0  0  0  0  0  0
    0.1558   -2.6092   -0.9943 H   0  0  0  0  0  0  0  0  0  0  0  0
   -0.3476   -1.8761   -2.5145 H   0  0  0  0  0  0  0  0  0  0  0  0
    1.7464   -2.3448   -2.3460 C   0  0  0  0  0  0  0  0  0  0  0  0
    2.5998   -1.5363   -2.6739 O   0  0  0  0  0  0  0  0  0  0  0  0
    1.8869   -3.6800   -2.5127 O   0  0  0  0  0  0  0  0  0  0  0  0
    2.7630   -3.8080   -2.9062 H   0  0  0  0  0  0  0  0  0  0  0  0
   -0.3615    1.1319    0.6697 C   0  0  0  0  0  0  0  0  0  0  0  0
   -1.2829    1.7931    0.2043 O   0  0  0  0  0  0  0  0  0  0  0  0
    0.5010    1.7144    1.5796 N   0  0  0  0  0  0  0  0  0  0  0  0
    1.2151    1.1244    1.9972 H   0  0  0  0  0  0  0  0  0  0  0  0
    0.3683    3.0931    2.0351 C   0  0  0  0  0  0  0  0  0  0  0  0
   -0.5920    3.2383    2.5412 H   0  0  0  0  0  0  0  0  0  0  0  0
    1.1704    3.3390    2.7376 H   0  0  0  0  0  0  0  0  0  0  0  0
    0.4280    3.7843    1.1877 H   0  0  0  0  0  0  0  0  0  0  0  0
  1  2  1  0  0  0  0
  2  3  1  0  0  0  0
  2  4  1  0  0  0  0
  2  5  1  0  0  0  0
  5  6  2  0  0  0  0
  5  7  1  0  0  0  0
  7  8  1  0  0  0  0
  7  9  1  0  0  0  0
  9 10  1  0  0  0  0
  9 11  1  0  0  0  0
  9 21  1  0  0  0  0
 11 12  1  0  0  0  0
 11 13  1  0  0  0  0
 11 14  1  0  0  0  0
 14 15  1  0  0  0  0
 14 16  1  0  0  0  0
 14 17  1  0  0  0  0
 17 18  2  0  0  0  0
 17 19  1  0  0  0  0
 19 20  1  0  0  0  0
 21 22  2  0  0  0  0
 21 23  1  0  0  0  0
 23 24  1  0  0  0  0
 23 25  1  0  0  0  0
 25 26  1  0  0  0  0
 25 27  1  0  0  0  0
 25 28  1  0  0  0  0
M  END
$$$$

  -OEChem-02102214123D

 28 27  0     1  0  0  0  0  0999 V2000
   -3.3610   -3.7095    1.3943 H   0  0  0  0  0  0  0  0  0  0  0  0
   -3.3006   -2.7347    0.9023 C   0  0  0  0  0  0  0  0  0  0  0  0
   -3.9439   -2.0304    1.4353 H   0  0  0  0  0  0  0  0  0  0  0  0
   -3.6563   -2.8366   -0.1258 H   0  0  0  0  0  0  0  0  0  0  0  0
   -1.8685   -2.2345    0.9077 C   0  0  0  0  0  0  0  0  0  0  0  0
   -0.9943   -2.8926    1.4478 O   0  0  0  0  0  0  0  0  0  0  0  0
   -1.5643   -1.0276    0.3122 N   0  0  0  0  0  0  0  0  0  0  0  0
   -2.3445   -0.4702   -0.0327 H   0  0  0  0  0  0  0  0  0  0  0  0
   -0.2405   -0.3805    0.3102 C   0  0  1  0  0  0  0  0  0  0  0  0
    0.3816   -0.8365    1.0879 H   0  0  0  0  0  0  0  0  0  0  0  0
    0.4977   -0.5307   -1.0398 C   0  0  0  0  0  0  0  0  0  0  0  0
    0.0243    0.1472   -1.7588 H   0  0  0  0  0  0  0  0  0  0  0  0
    1.5266   -0.1767   -0.9156 H   0  0  0  0  0  0  0  0  0  0  0  0
    0.4715   -1.9491   -1.6685 C   0  0  0  0  0  0  0  0  0  0  0  0
   -0.0957   -2.6505   -1.0573 H   0  0  0  0  0  0  0  0  0  0  0  0
   -0.0272   -1.8923   -2.6400 H   0  0  0  0  0  0  0  0  0  0  0  0
    1.8570   -2.5628   -1.8720 C   0  0  0  0  0  0  0  0  0  0  0  0
    2.7385   -2.3511   -1.0545 O   0  0  0  0  0  0  0  0  0  0  0  0
    2.0340   -3.3274   -2.9741 O   0  0  0  0  0  0  0  0  0  0  0  0
    2.9500   -3.6410   -2.9321 H   0  0  0  0  0  0  0  0  0  0  0  0
   -0.3731    1.1202    0.6371 C   0  0  0  0  0  0  0  0  0  0  0  0
   -1.2819    1.7747    0.1383 O   0  0  0  0  0  0  0  0  0  0  0  0
    0.4862    1.7227    1.5368 N   0  0  0  0  0  0  0  0  0  0  0  0
    1.1899    1.1379    1.9796 H   0  0  0  0  0  0  0  0  0  0  0  0
    0.3671    3.1173    1.9448 C   0  0  0  0  0  0  0  0  0  0  0  0
   -0.5771    3.2816    2.4745 H   0  0  0  0  0  0  0  0  0  0  0  0
    1.1909    3.3884    2.6120 H   0  0  0  0  0  0  0  0  0  0  0  0
    0.4002    3.7775    1.0715 H   0  0  0  0  0  0  0  0  0  0  0  0
  1  2  1  0  0  0  0
  2  3  1  0  0  0  0
  2  4  1  0  0  0  0
  2  5  1  0  0  0  0
  5  6  2  0  0  0  0
  5  7  1  0  0  0  0
  7  8  1  0  0  0  0
  7  9  1  0  0  0  0
  9 10  1  0  0  0  0
  9 11  1  0  0  0  0
  9 21  1  0  0  0  0
 11 12  1  0  0  0  0
 11 13  1  0  0  0  0
 11 14  1  0  0  0  0
 14 15  1  0  0  0  0
 14 16  1  0  0  0  0
 14 17  1  0  0  0  0
 17 18  2  0  0  0  0
 17 19  1  0  0  0  0
 19 20  1  0  0  0  0
 21 22  2  0  0  0  0
 21 23  1  0  0  0  0
 23 24  1  0  0  0  0
 23 25  1  0  0  0  0
 25 26  1  0  0  0  0
 25 27  1  0  0  0  0
 25 28  1  0  0  0  0
M  END
$$$$

  -OEChem-02102214123D

 28 27  0     1  0  0  0  0  0999 V2000
   -3.3517   -3.7014    1.4002 H   0  0  0  0  0  0  0  0  0  0  0  0
   -3.2969   -2.7277    0.9051 C   0  0  0  0  0  0  0  0  0  0  0  0
   -3.9223   -2.0185    1.4528 H   0  0  0  0  0  0  0  0  0  0  0  0
   -3.6786   -2.8287   -0.1137 H   0  0  0  0  0  0  0  0  0  0  0  0
   -1.8622   -2.2362    0.8743 C   0  0  0  0  0  0  0  0  0  0  0  0
   -0.9741   -2.9131    1.3661 O   0  0  0  0  0  0  0  0  0  0  0  0
   -1.5699   -1.0190    0.2941 N   0  0  0  0  0  0  0  0  0  0  0  0
   -2.3573   -0.4515   -0.0161 H   0  0  0  0  0  0  0  0  0  0  0  0
   -0.2481   -0.3679    0.2954 C   0  0  1  0  0  0  0  0  0  0  0  0
    0.3735   -0.8312    1.0692 H   0  0  0  0  0  0  0  0  0  0  0  0
    0.5012   -0.5050   -1.0501 C   0  0  0  0  0  0  0  0  0  0  0  0
    0.0049    0.1645   -1.7617 H   0  0  0  0  0  0  0  0  0  0  0  0
    1.5243   -0.1298   -0.9414 H   0  0  0  0  0  0  0  0  0  0  0  0
    0.4887   -1.9183   -1.6900 C   0  0  0  0  0  0  0  0  0  0  0  0
   -0.3065   -2.5464   -1.2903 H   0  0  0  0  0  0  0  0  0  0  0  0
    0.2901   -1.8021   -2.7590 H   0  0  0  0  0  0  0  0  0  0  0  0
    1.8092   -2.6803   -1.5616 C   0  0  0  0  0  0  0  0  0  0  0  0
    2.6316   -2.3470   -0.7227 O   0  0  0  0  0  0  0  0  0  0  0  0
    1.9962   -3.7139   -2.4140 O   0  0  0  0  0  0  0  0  0  0  0  0
    2.8565   -4.0938   -2.1805 H   0  0  0  0  0  0  0  0  0  0  0  0
   -0.3817    1.1276    0.6449 C   0  0  0  0  0  0  0  0  0  0  0  0
   -1.2973    1.7864    0.1650 O   0  0  0  0  0  0  0  0  0  0  0  0
    0.4811    1.7182    1.5490 N   0  0  0  0  0  0  0  0  0  0  0  0
    1.1981    1.1312    1.9671 H   0  0  0  0  0  0  0  0  0  0  0  0
    0.3610    3.1056    1.9809 C   0  0  0  0  0  0  0  0  0  0  0  0
   -0.6010    3.2702    2.4777 H   0  0  0  0  0  0  0  0  0  0  0  0
    1.1609    3.3537    2.6853 H   0  0  0  0  0  0  0  0  0  0  0  0
    0.4344    3.7825    1.1231 H   0  0  0  0  0  0  0  0  0  0  0  0
  1  2  1  0  0  0  0
  2  3  1  0  0  0  0
  2  4  1  0  0  0  0
  2  5  1  0  0  0  0
  5  6  2  0  0  0  0
  5  7  1  0  0  0  0
  7  8  1  0  0  0  0
  7  9  1  0  0  0  0
  9 10  1  0  0  0  0
  9 11  1  0  0  0  0
  9 21  1  0  0  0  0
 11 12  1  0  0  0  0
 11 13  1  0  0  0  0
 11 14  1  0  0  0  0
 14 15  1  0  0  0  0
 14 16  1  0  0  0  0
 14 17  1  0  0  0  0
 17 18  2  0  0  0  0
 17 19  1  0  0  0  0
 19 20  1  0  0  0  0
 21 22  2  0  0  0  0
 21 23  1  0  0  0  0
 23 24  1  0  0  0  0
 23 25  1  0  0  0  0
 25 26  1  0  0  0  0
 25 27  1  0  0  0  0
 25 28  1  0  0  0  0
M  END
$$$$

  -OEChem-02102214123D

 28 27  0     1  0  0  0  0  0999 V2000
   -3.3058   -3.7261    1.3707 H   0  0  0  0  0  0  0  0  0  0  0  0
   -3.2658   -2.7525    0.8743 C   0  0  0  0  0  0  0  0  0  0  0  0
   -3.8962   -2.0502    1.4250 H   0  0  0  0  0  0  0  0  0  0  0  0
   -3.6522   -2.8597   -0.1421 H   0  0  0  0  0  0  0  0  0  0  0  0
   -1.8374   -2.2445    0.8340 C   0  0  0  0  0  0  0  0  0  0  0  0
   -0.9338   -2.9271    1.2889 O   0  0  0  0  0  0  0  0  0  0  0  0
   -1.5657   -1.0132    0.2737 N   0  0  0  0  0  0  0  0  0  0  0  0
   -2.3624   -0.4445   -0.0094 H   0  0  0  0  0  0  0  0  0  0  0  0
   -0.2509   -0.3496    0.2819 C   0  0  1  0  0  0  0  0  0  0  0  0
    0.3743   -0.8180    1.0497 H   0  0  0  0  0  0  0  0  0  0  0  0
    0.4984   -0.4722   -1.0636 C   0  0  0  0  0  0  0  0  0  0  0  0
   -0.0042    0.1952   -1.7724 H   0  0  0  0  0  0  0  0  0  0  0  0
    1.5223   -0.0977   -0.9580 H   0  0  0  0  0  0  0  0  0  0  0  0
    0.4875   -1.8865   -1.6964 C   0  0  0  0  0  0  0  0  0  0  0  0
   -0.4494   -2.4121   -1.5096 H   0  0  0  0  0  0  0  0  0  0  0  0
    0.5679   -1.7695   -2.7804 H   0  0  0  0  0  0  0  0  0  0  0  0
    1.6549   -2.7775   -1.2653 C   0  0  0  0  0  0  0  0  0  0  0  0
    2.4904   -2.3606   -0.4775 O   0  0  0  0  0  0  0  0  0  0  0  0
    1.7010   -4.0149   -1.8105 O   0  0  0  0  0  0  0  0  0  0  0  0
    2.4670   -4.4504   -1.4071 H   0  0  0  0  0  0  0  0  0  0  0  0
   -0.3899    1.1380    0.6582 C   0  0  0  0  0  0  0  0  0  0  0  0
   -1.3104    1.8006    0.1932 O   0  0  0  0  0  0  0  0  0  0  0  0
    0.4750    1.7159    1.5682 N   0  0  0  0  0  0  0  0  0  0  0  0
    1.2030    1.1275    1.9648 H   0  0  0  0  0  0  0  0  0  0  0  0
    0.3653    3.1012    2.0086 C   0  0  0  0  0  0  0  0  0  0  0  0
   -0.6033    3.2753    2.4892 H   0  0  0  0  0  0  0  0  0  0  0  0
    1.1553    3.3330    2.7295 H   0  0  0  0  0  0  0  0  0  0  0  0
    0.4635    3.7826    1.1569 H   0  0  0  0  0  0  0  0  0  0  0  0
  1  2  1  0  0  0  0
  2  3  1  0  0  0  0
  2  4  1  0  0  0  0
  2  5  1  0  0  0  0
  5  6  2  0  0  0  0
  5  7  1  0  0  0  0
  7  8  1  0  0  0  0
  7  9  1  0  0  0  0
  9 10  1  0  0  0  0
  9 11  1  0  0  0  0
  9 21  1  0  0  0  0
 11 12  1  0  0  0  0
 11 13  1  0  0  0  0
 11 14  1  0  0  0  0
 14 15  1  0  0  0  0
 14 16  1  0  0  0  0
 14 17  1  0  0  0  0
 17 18  2  0  0  0  0
 17 19  1  0  0  0  0
 19 20  1  0  0  0  0
 21 22  2  0  0  0  0
 21 23  1  0  0  0  0
 23 24  1  0  0  0  0
 23 25  1  0  0  0  0
 25 26  1  0  0  0  0
 25 27  1  0  0  0  0
 25 28  1  0  0  0  0
M  END
$$$$

  -OEChem-02102214123D

 28 27  0     1  0  0  0  0  0999 V2000
   -3.2615   -3.7613    1.3262 H   0  0  0  0  0  0  0  0  0  0  0  0
   -3.2288   -2.7846    0.8352 C   0  0  0  0  0  0  0  0  0  0  0  0
   -3.8763   -2.0940    1.3810 H   0  0  0  0  0  0  0  0  0  0  0  0
   -3.6001   -2.8917   -0.1869 H   0  0  0  0  0  0  0  0  0  0  0  0
   -1.8073   -2.2563    0.8173 C   0  0  0  0  0  0  0  0  0  0  0  0
   -0.9033   -2.9237    1.2933 O   0  0  0  0  0  0  0  0  0  0  0  0
   -1.5450   -1.0189    0.2660 N   0  0  0  0  0  0  0  0  0  0  0  0
   -2.3447   -0.4612   -0.0303 H   0  0  0  0  0  0  0  0  0  0  0  0
   -0.2361   -0.3440    0.2800 C   0  0  1  0  0  0  0  0  0  0  0  0
    0.3954   -0.8127    1.0426 H   0  0  0  0  0  0  0  0  0  0  0  0
    0.5005   -0.4517   -1.0740 C   0  0  0  0  0  0  0  0  0  0  0  0
    0.0053    0.2256   -1.7784 H   0  0  0  0  0  0  0  0  0  0  0  0
    1.5311   -0.0967   -0.9636 H   0  0  0  0  0  0  0  0  0  0  0  0
    0.4830   -1.8625   -1.7060 C   0  0  0  0  0  0  0  0  0  0  0  0
   -0.5274   -2.2762   -1.7157 H   0  0  0  0  0  0  0  0  0  0  0  0
    0.8003   -1.7789   -2.7486 H   0  0  0  0  0  0  0  0  0  0  0  0
    1.4279   -2.8550   -1.0261 C   0  0  0  0  0  0  0  0  0  0  0  0
    2.3338   -2.4458   -0.3153 O   0  0  0  0  0  0  0  0  0  0  0  0
    1.2100   -4.1666   -1.2743 O   0  0  0  0  0  0  0  0  0  0  0  0
    1.8435   -4.6453   -0.7192 H   0  0  0  0  0  0  0  0  0  0  0  0
   -0.3848    1.1401    0.6663 C   0  0  0  0  0  0  0  0  0  0  0  0
   -1.3075    1.8007    0.2028 O   0  0  0  0  0  0  0  0  0  0  0  0
    0.4759    1.7178    1.5805 N   0  0  0  0  0  0  0  0  0  0  0  0
    1.2055    1.1307    1.9765 H   0  0  0  0  0  0  0  0  0  0  0  0
    0.3581    3.1004    2.0273 C   0  0  0  0  0  0  0  0  0  0  0  0
   -0.6137    3.2675    2.5037 H   0  0  0  0  0  0  0  0  0  0  0  0
    1.1434    3.3321    2.7533 H   0  0  0  0  0  0  0  0  0  0  0  0
    0.4578    3.7865    1.1795 H   0  0  0  0  0  0  0  0  0  0  0  0
  1  2  1  0  0  0  0
  2  3  1  0  0  0  0
  2  4  1  0  0  0  0
  2  5  1  0  0  0  0
  5  6  2  0  0  0  0
  5  7  1  0  0  0  0
  7  8  1  0  0  0  0
  7  9  1  0  0  0  0
  9 10  1  0  0  0  0
  9 11  1  0  0  0  0
  9 21  1  0  0  0  0
 11 12  1  0  0  0  0
 11 13  1  0  0  0  0
 11 14  1  0  0  0  0
 14 15  1  0  0  0  0
 14 16  1  0  0  0  0
 14 17  1  0  0  0  0
 17 18  2  0  0  0  0
 17 19  1  0  0  0  0
 19 20  1  0  0  0  0
 21 22  2  0  0  0  0
 21 23  1  0  0  0  0
 23 24  1  0  0  0  0
 23 25  1  0  0  0  0
 25 26  1  0  0  0  0
 25 27  1  0  0  0  0
 25 28  1  0  0  0  0
M  END
$$$$

  -OEChem-02102214123D

 28 27  0     1  0  0  0  0  0999 V2000
   -3.2350   -3.8087    1.2686 H   0  0  0  0  0  0  0  0  0  0  0  0
   -3.1950   -2.8298    0.7827 C   0  0  0  0  0  0  0  0  0  0  0  0
   -3.9031   -2.1610    1.2779 H   0  0  0  0  0  0  0  0  0  0  0  0
   -3.4841   -2.9450   -0.2646 H   0  0  0  0  0  0  0  0  0  0  0  0
   -1.7927   -2.2593    0.8725 C   0  0  0  0  0  0  0  0  0  0  0  0
   -0.9234   -2.8735    1.4696 O   0  0  0  0  0  0  0  0  0  0  0  0
   -1.5188   -1.0307    0.3075 N   0  0  0  0  0  0  0  0  0  0  0  0
   -2.3043   -0.5097   -0.0785 H   0  0  0  0  0  0  0  0  0  0  0  0
   -0.2123   -0.3510    0.3183 C   0  0  1  0  0  0  0  0  0  0  0  0
    0.4302   -0.8106    1.0772 H   0  0  0  0  0  0  0  0  0  0  0  0
    0.4952   -0.4505   -1.0544 C   0  0  0  0  0  0  0  0  0  0  0  0
    0.0088    0.2446   -1.7477 H   0  0  0  0  0  0  0  0  0  0  0  0
    1.5335   -0.1198   -0.9417 H   0  0  0  0  0  0  0  0  0  0  0  0
    0.4728   -1.8484   -1.7092 C   0  0  0  0  0  0  0  0  0  0  0  0
   -0.5600   -2.1474   -1.9057 H   0  0  0  0  0  0  0  0  0  0  0  0
    0.9850   -1.8013   -2.6735 H   0  0  0  0  0  0  0  0  0  0  0  0
    1.1462   -2.9314   -0.8682 C   0  0  0  0  0  0  0  0  0  0  0  0
    2.1110   -2.6364   -0.1796 O   0  0  0  0  0  0  0  0  0  0  0  0
    0.6370   -4.1820   -0.9499 O   0  0  0  0  0  0  0  0  0  0  0  0
    1.1147   -4.6994   -0.2838 H   0  0  0  0  0  0  0  0  0  0  0  0
   -0.3727    1.1379    0.6826 C   0  0  0  0  0  0  0  0  0  0  0  0
   -1.2834    1.7934    0.1887 O   0  0  0  0  0  0  0  0  0  0  0  0
    0.4794    1.7327    1.5938 N   0  0  0  0  0  0  0  0  0  0  0  0
    1.1937    1.1484    2.0203 H   0  0  0  0  0  0  0  0  0  0  0  0
    0.3539    3.1214    2.0188 C   0  0  0  0  0  0  0  0  0  0  0  0
   -0.6252    3.2951    2.4775 H   0  0  0  0  0  0  0  0  0  0  0  0
    1.1276    3.3637    2.7537 H   0  0  0  0  0  0  0  0  0  0  0  0
    0.4669    3.7951    1.1630 H   0  0  0  0  0  0  0  0  0  0  0  0
  1  2  1  0  0  0  0
  2  3  1  0  0  0  0
  2  4  1  0  0  0  0
  2  5  1  0  0  0  0
  5  6  2  0  0  0  0
  5  7  1  0  0  0  0
  7  8  1  0  0  0  0
  7  9  1  0  0  0  0
  9 10  1  0  0  0  0
  9 11  1  0  0  0  0
  9 21  1  0  0  0  0
 11 12  1  0  0  0  0
 11 13  1  0  0  0  0
 11 14  1  0  0  0  0
 14 15  1  0  0  0  0
 14 16  1  0  0  0  0
 14 17  1  0  0  0  0
 17 18  2  0  0  0  0
 17 19  1  0  0  0  0
 19 20  1  0  0  0  0
 21 22  2  0  0  0  0
 21 23  1  0  0  0  0
 23 24  1  0  0  0  0
 23 25  1  0  0  0  0
 25 26  1  0  0  0  0
 25 27  1  0  0  0  0
 25 28  1  0  0  0  0
M  END
$$$$

  -OEChem-02102214123D

 28 27  0     1  0  0  0  0  0999 V2000
   -3.2652   -3.7973    1.3019 H   0  0  0  0  0  0  0  0  0  0  0  0
   -3.1926   -2.8452    0.7691 C   0  0  0  0  0  0  0  0  0  0  0  0
   -3.9482   -2.1615    1.1633 H   0  0  0  0  0  0  0  0  0  0  0  0
   -3.3862   -3.0209   -0.2919 H   0  0  0  0  0  0  0  0  0  0  0  0
   -1.8097   -2.2493    0.9494 C   0  0  0  0  0  0  0  0  0  0  0  0
   -0.9897   -2.8184    1.6523 O   0  0  0  0  0  0  0  0  0  0  0  0
   -1.5087   -1.0387    0.3596 N   0  0  0  0  0  0  0  0  0  0  0  0
   -2.2705   -0.5524   -0.1097 H   0  0  0  0  0  0  0  0  0  0  0  0
   -0.1985   -0.3638    0.3637 C   0  0  1  0  0  0  0  0  0  0  0  0
    0.4450   -0.8137    1.1274 H   0  0  0  0  0  0  0  0  0  0  0  0
    0.5009   -0.4677   -1.0179 C   0  0  0  0  0  0  0  0  0  0  0  0
    0.0339    0.2456   -1.7065 H   0  0  0  0  0  0  0  0  0  0  0  0
    1.5422   -0.1538   -0.8871 H   0  0  0  0  0  0  0  0  0  0  0  0
    0.4974   -1.8467   -1.7140 C   0  0  0  0  0  0  0  0  0  0  0  0
   -0.5005   -2.0298   -2.1222 H   0  0  0  0  0  0  0  0  0  0  0  0
    1.1975   -1.8366   -2.5536 H   0  0  0  0  0  0  0  0  0  0  0  0
    0.8499   -3.0128   -0.7969 C   0  0  0  0  0  0  0  0  0  0  0  0
    1.8260   -2.9026   -0.0721 O   0  0  0  0  0  0  0  0  0  0  0  0
    0.0722   -4.1192   -0.8502 O   0  0  0  0  0  0  0  0  0  0  0  0
    0.3830   -4.6813   -0.1227 H   0  0  0  0  0  0  0  0  0  0  0  0
   -0.3636    1.1345    0.6900 C   0  0  0  0  0  0  0  0  0  0  0  0
   -1.2649    1.7797    0.1659 O   0  0  0  0  0  0  0  0  0  0  0  0
    0.4795    1.7528    1.5942 N   0  0  0  0  0  0  0  0  0  0  0  0
    1.1739    1.1744    2.0597 H   0  0  0  0  0  0  0  0  0  0  0  0
    0.3330    3.1456    1.9996 C   0  0  0  0  0  0  0  0  0  0  0  0
   -0.6390    3.3051    2.4784 H   0  0  0  0  0  0  0  0  0  0  0  0
    1.1182    3.4176    2.7118 H   0  0  0  0  0  0  0  0  0  0  0  0
    0.4106    3.8079    1.1309 H   0  0  0  0  0  0  0  0  0  0  0  0
  1  2  1  0  0  0  0
  2  3  1  0  0  0  0
  2  4  1  0  0  0  0
  2  5  1  0  0  0  0
  5  6  2  0  0  0  0
  5  7  1  0  0  0  0
  7  8  1  0  0  0  0
  7  9  1  0  0  0  0
  9 10  1  0  0  0  0
  9 11  1  0  0  0  0
  9 21  1  0  0  0  0
 11 12  1  0  0  0  0
 11 13  1  0  0  0  0
 11 14  1  0  0  0  0
 14 15  1  0  0  0  0
 14 16  1  0  0  0  0
 14 17  1  0  0  0  0
 17 18  2  0  0  0  0
 17 19  1  0  0  0  0
 19 20  1  0  0  0  0
 21 22  2  0  0  0  0
 21 23  1  0  0  0  0
 23 24  1  0  0  0  0
 23 25  1  0  0  0  0
 25 26  1  0  0  0  0
 25 27  1  0  0  0  0
 25 28  1  0  0  0  0
M  END
$$$$

  -OEChem-02102214123D

 28 27  0     1  0  0  0  0  0999 V2000
   -3.3390   -3.7737    1.3627 H   0  0  0  0  0  0  0  0  0  0  0  0
   -3.2471   -2.8234    0.8297 C   0  0  0  0  0  0  0  0  0  0  0  0
   -3.9896   -2.1253    1.2236 H   0  0  0  0  0  0  0  0  0  0  0  0
   -3.4434   -2.9951   -0.2315 H   0  0  0  0  0  0  0  0  0  0  0  0
   -1.8532   -2.2535    1.0109 C   0  0  0  0  0  0  0  0  0  0  0  0
   -1.0552   -2.8230    1.7374 O   0  0  0  0  0  0  0  0  0  0  0  0
   -1.5245   -1.0594    0.4038 N   0  0  0  0  0  0  0  0  0  0  0  0
   -2.2755   -0.5791   -0.0887 H   0  0  0  0  0  0  0  0  0  0  0  0
   -0.2136   -0.3840    0.4094 C   0  0  1  0  0  0  0  0  0  0  0  0
    0.4183   -0.8219    1.1898 H   0  0  0  0  0  0  0  0  0  0  0  0
    0.5228   -0.4843   -0.9573 C   0  0  0  0  0  0  0  0  0  0  0  0
    0.0786    0.2403   -1.6494 H   0  0  0  0  0  0  0  0  0  0  0  0
    1.5542   -0.1613   -0.7799 H   0  0  0  0  0  0  0  0  0  0  0  0
    0.5899   -1.8348   -1.7092 C   0  0  0  0  0  0  0  0  0  0  0  0
   -0.2863   -1.9027   -2.3602 H   0  0  0  0  0  0  0  0  0  0  0  0
    1.4737   -1.8526   -2.3529 H   0  0  0  0  0  0  0  0  0  0  0  0
    0.5947   -3.0806   -0.8350 C   0  0  0  0  0  0  0  0  0  0  0  0
    1.5201   -3.2074   -0.0505 O   0  0  0  0  0  0  0  0  0  0  0  0
   -0.3834   -4.0018   -1.0015 O   0  0  0  0  0  0  0  0  0  0  0  0
   -0.2231   -4.6585   -0.3044 H   0  0  0  0  0  0  0  0  0  0  0  0
   -0.3961    1.1200    0.7006 C   0  0  0  0  0  0  0  0  0  0  0  0
   -1.2906    1.7487    0.1456 O   0  0  0  0  0  0  0  0  0  0  0  0
    0.4293    1.7639    1.6031 N   0  0  0  0  0  0  0  0  0  0  0  0
    1.1157    1.2000    2.0971 H   0  0  0  0  0  0  0  0  0  0  0  0
    0.2800    3.1693    1.9604 C   0  0  0  0  0  0  0  0  0  0  0  0
   -0.7010    3.3477    2.4133 H   0  0  0  0  0  0  0  0  0  0  0  0
    1.0515    3.4616    2.6793 H   0  0  0  0  0  0  0  0  0  0  0  0
    0.3783    3.8024    1.0722 H   0  0  0  0  0  0  0  0  0  0  0  0
  1  2  1  0  0  0  0
  2  3  1  0  0  0  0
  2  4  1  0  0  0  0
  2  5  1  0  0  0  0
  5  6  2  0  0  0  0
  5  7  1  0  0  0  0
  7  8  1  0  0  0  0
  7  9  1  0  0  0  0
  9 10  1  0  0  0  0
  9 11  1  0  0  0  0
  9 21  1  0  0  0  0
 11 12  1  0  0  0  0
 11 13  1  0  0  0  0
 11 14  1  0  0  0  0
 14 15  1  0  0  0  0
 14 16  1  0  0  0  0
 14 17  1  0  0  0  0
 17 18  2  0  0  0  0
 17 19  1  0  0  0  0
 19 20  1  0  0  0  0
 21 22  2  0  0  0  0
 21 23  1  0  0  0  0
 23 24  1  0  0  0  0
 23 25  1  0  0  0  0
 25 26  1  0  0  0  0
 25 27  1  0  0  0  0
 25 28  1  0  0  0  0
M  END
$$$$

  -OEChem-02102214123D

 28 27  0     1  0  0  0  0  0999 V2000
   -3.3011   -3.7839    1.3486 H   0  0  0  0  0  0  0  0  0  0  0  0
   -3.2604   -2.8209    0.8317 C   0  0  0  0  0  0  0  0  0  0  0  0
   -3.9391   -2.1249    1.3308 H   0  0  0  0  0  0  0  0  0  0  0  0
   -3.5893   -2.9617   -0.2010 H   0  0  0  0  0  0  0  0  0  0  0  0
   -1.8470   -2.2735    0.8546 C   0  0  0  0  0  0  0  0  0  0  0  0
   -0.9291   -2.9264    1.3273 O   0  0  0  0  0  0  0  0  0  0  0  0
   -1.5615   -1.0469    0.3025 N   0  0  0  0  0  0  0  0  0  0  0  0
   -2.3530   -0.4829   -0.0101 H   0  0  0  0  0  0  0  0  0  0  0  0
   -0.2650   -0.3571    0.4000 C   0  0  1  0  0  0  0  0  0  0  0  0
    0.3232   -0.7989    1.2112 H   0  0  0  0  0  0  0  0  0  0  0  0
    0.5652   -0.4386   -0.9055 C   0  0  0  0  0  0  0  0  0  0  0  0
    0.1277    0.2715   -1.6185 H   0  0  0  0  0  0  0  0  0  0  0  0
    1.5726   -0.0624   -0.6872 H   0  0  0  0  0  0  0  0  0  0  0  0
    0.6942   -1.7946   -1.6571 C   0  0  0  0  0  0  0  0  0  0  0  0
   -0.3785   -1.7772   -1.8695 H   0  0  0  0  0  0  0  0  0  0  0  0
    1.2434   -2.0903   -0.7581 H   0  0  0  0  0  0  0  0  0  0  0  0
    0.5820   -3.3204   -1.7812 C   0  0  0  0  0  0  0  0  0  0  0  0
    0.9527   -3.7522   -2.8601 O   0  0  0  0  0  0  0  0  0  0  0  0
    0.1131   -4.1105   -0.7720 O   0  0  0  0  0  0  0  0  0  0  0  0
   -0.1251   -3.5807    0.0218 H   0  0  0  0  0  0  0  0  0  0  0  0
   -0.4878    1.1295    0.7504 C   0  0  0  0  0  0  0  0  0  0  0  0
   -1.4066    1.7437    0.2219 O   0  0  0  0  0  0  0  0  0  0  0  0
    0.2787    1.7520    1.7180 N   0  0  0  0  0  0  0  0  0  0  0  0
    0.9896    1.1997    2.1891 H   0  0  0  0  0  0  0  0  0  0  0  0
    0.0538    3.1266    2.1510 C   0  0  0  0  0  0  0  0  0  0  0  0
   -0.9521    3.2372    2.5696 H   0  0  0  0  0  0  0  0  0  0  0  0
    0.7805    3.4051    2.9204 H   0  0  0  0  0  0  0  0  0  0  0  0
    0.1622    3.8170    1.3078 H   0  0  0  0  0  0  0  0  0  0  0  0
  1  2  1  0  0  0  0
  2  3  1  0  0  0  0
  2  4  1  0  0  0  0
  2  5  1  0  0  0  0
  5  6  2  0  0  0  0
  5  7  1  0  0  0  0
  7  8  1  0  0  0  0
  7  9  1  0  0  0  0
  9 10  1  0  0  0  0
  9 11  1  0  0  0  0
  9 21  1  0  0  0  0
 11 12  1  0  0  0  0
 11 13  1  0  0  0  0
 11 14  1  0  0  0  0
 14 15  1  0  0  0  0
 14 16  1  0  0  0  0
 14 17  1  0  0  0  0
 17 18  2  0  0  0  0
 17 19  1  0  0  0  0
 19 20  1  0  0  0  0
 21 22  2  0  0  0  0
 21 23  1  0  0  0  0
 23 24  1  0  0  0  0
 23 25  1  0  0  0  0
 25 26  1  0  0  0  0
 25 27  1  0  0  0  0
 25 28  1  0  0  0  0
M  END
$$$$

  -OEChem-02102214123D

 28 27  0     1  0  0  0  0  0999 V2000
   -3.3525   -3.8932    1.4106 H   0  0  0  0  0  0  0  0  0  0  0  0
   -3.3229   -2.9226    0.9082 C   0  0  0  0  0  0  0  0  0  0  0  0
   -4.0639   -2.2637    1.3663 H   0  0  0  0  0  0  0  0  0  0  0  0
   -3.5744   -3.0665   -0.1455 H   0  0  0  0  0  0  0  0  0  0  0  0
   -1.9395   -2.3132    1.0316 C   0  0  0  0  0  0  0  0  0  0  0  0
   -1.0781   -2.8631    1.7021 O   0  0  0  0  0  0  0  0  0  0  0  0
   -1.6706   -1.0770    0.4771 N   0  0  0  0  0  0  0  0  0  0  0  0
   -2.4321   -0.6113   -0.0138 H   0  0  0  0  0  0  0  0  0  0  0  0
   -0.3430   -0.4444    0.4308 C   0  0  1  0  0  0  0  0  0  0  0  0
    0.3343   -0.9465    1.1286 H   0  0  0  0  0  0  0  0  0  0  0  0
    0.3150   -0.4220   -0.9813 C   0  0  0  0  0  0  0  0  0  0  0  0
   -0.1853    0.3696   -1.5521 H   0  0  0  0  0  0  0  0  0  0  0  0
    1.3514   -0.0940   -0.8471 H   0  0  0  0  0  0  0  0  0  0  0  0
    0.3356   -1.6527   -1.9313 C   0  0  0  0  0  0  0  0  0  0  0  0
   -0.1417   -1.3547   -2.8707 H   0  0  0  0  0  0  0  0  0  0  0  0
    1.3783   -1.8727   -2.1766 H   0  0  0  0  0  0  0  0  0  0  0  0
   -0.3078   -2.9667   -1.5026 C   0  0  0  0  0  0  0  0  0  0  0  0
   -1.4247   -3.2078   -1.9348 O   0  0  0  0  0  0  0  0  0  0  0  0
    0.4262   -3.8245   -0.7461 O   0  0  0  0  0  0  0  0  0  0  0  0
    1.2259   -3.3784   -0.4416 H   0  0  0  0  0  0  0  0  0  0  0  0
   -0.4750    1.0368    0.8534 C   0  0  0  0  0  0  0  0  0  0  0  0
   -1.3652    1.7375    0.3856 O   0  0  0  0  0  0  0  0  0  0  0  0
    0.4271    1.5940    1.7410 N   0  0  0  0  0  0  0  0  0  0  0  0
    1.0848    0.9673    2.1957 H   0  0  0  0  0  0  0  0  0  0  0  0
    0.3231    2.9681    2.2188 C   0  0  0  0  0  0  0  0  0  0  0  0
   -0.6251    3.1205    2.7453 H   0  0  0  0  0  0  0  0  0  0  0  0
    1.1424    3.1928    2.9086 H   0  0  0  0  0  0  0  0  0  0  0  0
    0.3764    3.6705    1.3800 H   0  0  0  0  0  0  0  0  0  0  0  0
  1  2  1  0  0  0  0
  2  3  1  0  0  0  0
  2  4  1  0  0  0  0
  2  5  1  0  0  0  0
  5  6  2  0  0  0  0
  5  7  1  0  0  0  0
  7  8  1  0  0  0  0
  7  9  1  0  0  0  0
  9 10  1  0  0  0  0
  9 11  1  0  0  0  0
  9 21  1  0  0  0  0
 11 12  1  0  0  0  0
 11 13  1  0  0  0  0
 11 14  1  0  0  0  0
 14 15  1  0  0  0  0
 14 16  1  0  0  0  0
 14 17  1  0  0  0  0
 17 18  2  0  0  0  0
 17 19  1  0  0  0  0
 19 20  1  0  0  0  0
 21 22  2  0  0  0  0
 21 23  1  0  0  0  0
 23 24  1  0  0  0  0
 23 25  1  0  0  0  0
 25 26  1  0  0  0  0
 25 27  1  0  0  0  0
 25 28  1  0  0  0  0
M  END
$$$$

  -OEChem-02102214123D

 28 27  0     1  0  0  0  0  0999 V2000
   -3.5997   -3.6731    1.3294 H   0  0  0  0  0  0  0  0  0  0  0  0
   -3.4965   -2.7183    0.8068 C   0  0  0  0  0  0  0  0  0  0  0  0
   -4.2397   -2.0183    1.1958 H   0  0  0  0  0  0  0  0  0  0  0  0
   -3.6810   -2.8811   -0.2581 H   0  0  0  0  0  0  0  0  0  0  0  0
   -2.1014   -2.1598    1.0104 C   0  0  0  0  0  0  0  0  0  0  0  0
   -1.3191   -2.7068    1.7752 O   0  0  0  0  0  0  0  0  0  0  0  0
   -1.7200   -0.9925    0.3788 N   0  0  0  0  0  0  0  0  0  0  0  0
   -2.4071   -0.5406   -0.2230 H   0  0  0  0  0  0  0  0  0  0  0  0
   -0.3647   -0.4235    0.4153 C   0  0  1  0  0  0  0  0  0  0  0  0
    0.2054   -0.8800    1.2305 H   0  0  0  0  0  0  0  0  0  0  0  0
    0.4547   -0.5721   -0.9007 C   0  0  0  0  0  0  0  0  0  0  0  0
    0.0367    0.1621   -1.6000 H   0  0  0  0  0  0  0  0  0  0  0  0
    1.4810   -0.2508   -0.6929 H   0  0  0  0  0  0  0  0  0  0  0  0
    0.5270   -1.8932   -1.7179 C   0  0  0  0  0  0  0  0  0  0  0  0
    0.4699   -1.6388   -2.7812 H   0  0  0  0  0  0  0  0  0  0  0  0
    1.5197   -2.3228   -1.5591 H   0  0  0  0  0  0  0  0  0  0  0  0
   -0.4756   -3.0133   -1.4605 C   0  0  0  0  0  0  0  0  0  0  0  0
   -1.5258   -2.9661   -2.0822 O   0  0  0  0  0  0  0  0  0  0  0  0
   -0.1250   -4.0251   -0.6231 O   0  0  0  0  0  0  0  0  0  0  0  0
    0.6659   -3.7736   -0.1283 H   0  0  0  0  0  0  0  0  0  0  0  0
   -0.4614    1.0949    0.6883 C   0  0  0  0  0  0  0  0  0  0  0  0
   -1.2699    1.7837    0.0771 O   0  0  0  0  0  0  0  0  0  0  0  0
    0.3751    1.6946    1.6118 N   0  0  0  0  0  0  0  0  0  0  0  0
    0.9626    1.0876    2.1760 H   0  0  0  0  0  0  0  0  0  0  0  0
    0.2921    3.1093    1.9566 C   0  0  0  0  0  0  0  0  0  0  0  0
   -0.6846    3.3403    2.3951 H   0  0  0  0  0  0  0  0  0  0  0  0
    1.0684    3.3684    2.6830 H   0  0  0  0  0  0  0  0  0  0  0  0
    0.4337    3.7307    1.0659 H   0  0  0  0  0  0  0  0  0  0  0  0
  1  2  1  0  0  0  0
  2  3  1  0  0  0  0
  2  4  1  0  0  0  0
  2  5  1  0  0  0  0
  5  6  2  0  0  0  0
  5  7  1  0  0  0  0
  7  8  1  0  0  0  0
  7  9  1  0  0  0  0
  9 10  1  0  0  0  0
  9 11  1  0  0  0  0
  9 21  1  0  0  0  0
 11 12  1  0  0  0  0
 11 13  1  0  0  0  0
 11 14  1  0  0  0  0
 14 15  1  0  0  0  0
 14 16  1  0  0  0  0
 14 17  1  0  0  0  0
 17 18  2  0  0  0  0
 17 19  1  0  0  0  0
 19 20  1  0  0  0  0
 21 22  2  0  0  0  0
 21 23  1  0  0  0  0
 23 24  1  0  0  0  0
 23 25  1  0  0  0  0
 25 26  1  0  0  0  0
 25 27  1  0  0  0  0
 25 28  1  0  0  0  0
M  END
$$$$

  -OEChem-02102214123D

 28 27  0     1  0  0  0  0  0999 V2000
   -3.3798   -3.6989    1.6018 H   0  0  0  0  0  0  0  0  0  0  0  0
   -3.3388   -2.7230    1.1107 C   0  0  0  0  0  0  0  0  0  0  0  0
   -3.9733   -2.0241    1.6609 H   0  0  0  0  0  0  0  0  0  0  0  0
   -3.7203   -2.8238    0.0917 H   0  0  0  0  0  0  0  0  0  0  0  0
   -1.9116   -2.2104    1.0814 C   0  0  0  0  0  0  0  0  0  0  0  0
   -1.0169   -2.8601    1.5984 O   0  0  0  0  0  0  0  0  0  0  0  0
   -1.6353   -0.9953    0.4908 N   0  0  0  0  0  0  0  0  0  0  0  0
   -2.4191   -0.4906    0.0790 H   0  0  0  0  0  0  0  0  0  0  0  0
   -0.3066   -0.3802    0.3659 C   0  0  1  0  0  0  0  0  0  0  0  0
    0.3740   -0.8708    1.0694 H   0  0  0  0  0  0  0  0  0  0  0  0
    0.3436   -0.4498   -1.0473 C   0  0  0  0  0  0  0  0  0  0  0  0
   -0.1908    0.2872   -1.6580 H   0  0  0  0  0  0  0  0  0  0  0  0
    1.3771   -0.0975   -0.9637 H   0  0  0  0  0  0  0  0  0  0  0  0
    0.3511   -1.7456   -1.9044 C   0  0  0  0  0  0  0  0  0  0  0  0
    0.4308   -1.4660   -2.9586 H   0  0  0  0  0  0  0  0  0  0  0  0
    1.2673   -2.2866   -1.6509 H   0  0  0  0  0  0  0  0  0  0  0  0
   -0.7842   -2.7545   -1.7769 C   0  0  0  0  0  0  0  0  0  0  0  0
   -1.9124   -2.4164   -2.1006 O   0  0  0  0  0  0  0  0  0  0  0  0
   -0.4630   -4.0068   -1.3757 O   0  0  0  0  0  0  0  0  0  0  0  0
   -1.2918   -4.5052   -1.3380 H   0  0  0  0  0  0  0  0  0  0  0  0
   -0.3898    1.1125    0.7522 C   0  0  0  0  0  0  0  0  0  0  0  0
   -1.3079    1.8090    0.3348 O   0  0  0  0  0  0  0  0  0  0  0  0
    0.5655    1.6755    1.5781 N   0  0  0  0  0  0  0  0  0  0  0  0
    1.2647    1.0556    1.9771 H   0  0  0  0  0  0  0  0  0  0  0  0
    0.5122    3.0613    2.0287 C   0  0  0  0  0  0  0  0  0  0  0  0
   -0.3991    3.2411    2.6090 H   0  0  0  0  0  0  0  0  0  0  0  0
    1.3757    3.2870    2.6616 H   0  0  0  0  0  0  0  0  0  0  0  0
    0.5247    3.7439    1.1722 H   0  0  0  0  0  0  0  0  0  0  0  0
  1  2  1  0  0  0  0
  2  3  1  0  0  0  0
  2  4  1  0  0  0  0
  2  5  1  0  0  0  0
  5  6  2  0  0  0  0
  5  7  1  0  0  0  0
  7  8  1  0  0  0  0
  7  9  1  0  0  0  0
  9 10  1  0  0  0  0
  9 11  1  0  0  0  0
  9 21  1  0  0  0  0
 11 12  1  0  0  0  0
 11 13  1  0  0  0  0
 11 14  1  0  0  0  0
 14 15  1  0  0  0  0
 14 16  1  0  0  0  0
 14 17  1  0  0  0  0
 17 18  2  0  0  0  0
 17 19  1  0  0  0  0
 19 20  1  0  0  0  0
 21 22  2  0  0  0  0
 21 23  1  0  0  0  0
 23 24  1  0  0  0  0
 23 25  1  0  0  0  0
 25 26  1  0  0  0  0
 25 27  1  0  0  0  0
 25 28  1  0  0  0  0
M  END
$$$$

  -OEChem-02102214123D

 28 27  0     1  0  0  0  0  0999 V2000
   -3.3440   -3.7367    1.4906 H   0  0  0  0  0  0  0  0  0  0  0  0
   -3.3153   -2.7467    1.0273 C   0  0  0  0  0  0  0  0  0  0  0  0
   -3.9755   -2.0769    1.5836 H   0  0  0  0  0  0  0  0  0  0  0  0
   -3.6742   -2.8271   -0.0017 H   0  0  0  0  0  0  0  0  0  0  0  0
   -1.8998   -2.2029    1.0409 C   0  0  0  0  0  0  0  0  0  0  0  0
   -1.0048   -2.8375    1.5762 O   0  0  0  0  0  0  0  0  0  0  0  0
   -1.6301   -0.9866    0.4498 N   0  0  0  0  0  0  0  0  0  0  0  0
   -2.4054   -0.5048   -0.0039 H   0  0  0  0  0  0  0  0  0  0  0  0
   -0.3046   -0.3619    0.3514 C   0  0  1  0  0  0  0  0  0  0  0  0
    0.3629   -0.8414    1.0745 H   0  0  0  0  0  0  0  0  0  0  0  0
    0.3723   -0.4580   -1.0452 C   0  0  0  0  0  0  0  0  0  0  0  0
   -0.1380    0.2669   -1.6904 H   0  0  0  0  0  0  0  0  0  0  0  0
    1.4091   -0.1202   -0.9453 H   0  0  0  0  0  0  0  0  0  0  0  0
    0.3779   -1.7923   -1.8368 C   0  0  0  0  0  0  0  0  0  0  0  0
    0.7233   -1.5938   -2.8550 H   0  0  0  0  0  0  0  0  0  0  0  0
    1.1208   -2.4422   -1.3653 H   0  0  0  0  0  0  0  0  0  0  0  0
   -0.9112   -2.6044   -1.9351 C   0  0  0  0  0  0  0  0  0  0  0  0
   -1.9408   -2.0436   -2.2769 O   0  0  0  0  0  0  0  0  0  0  0  0
   -0.8291   -3.9350   -1.7015 O   0  0  0  0  0  0  0  0  0  0  0  0
   -1.7195   -4.2909   -1.8342 H   0  0  0  0  0  0  0  0  0  0  0  0
   -0.3971    1.1325    0.7269 C   0  0  0  0  0  0  0  0  0  0  0  0
   -1.3036    1.8271    0.2828 O   0  0  0  0  0  0  0  0  0  0  0  0
    0.5407    1.7014    1.5688 N   0  0  0  0  0  0  0  0  0  0  0  0
    1.2390    1.0875    1.9779 H   0  0  0  0  0  0  0  0  0  0  0  0
    0.4875    3.0940    1.9975 C   0  0  0  0  0  0  0  0  0  0  0  0
   -0.4499    3.2976    2.5262 H   0  0  0  0  0  0  0  0  0  0  0  0
    1.3199    3.3147    2.6726 H   0  0  0  0  0  0  0  0  0  0  0  0
    0.5569    3.7632    1.1334 H   0  0  0  0  0  0  0  0  0  0  0  0
  1  2  1  0  0  0  0
  2  3  1  0  0  0  0
  2  4  1  0  0  0  0
  2  5  1  0  0  0  0
  5  6  2  0  0  0  0
  5  7  1  0  0  0  0
  7  8  1  0  0  0  0
  7  9  1  0  0  0  0
  9 10  1  0  0  0  0
  9 11  1  0  0  0  0
  9 21  1  0  0  0  0
 11 12  1  0  0  0  0
 11 13  1  0  0  0  0
 11 14  1  0  0  0  0
 14 15  1  0  0  0  0
 14 16  1  0  0  0  0
 14 17  1  0  0  0  0
 17 18  2  0  0  0  0
 17 19  1  0  0  0  0
 19 20  1  0  0  0  0
 21 22  2  0  0  0  0
 21 23  1  0  0  0  0
 23 24  1  0  0  0  0
 23 25  1  0  0  0  0
 25 26  1  0  0  0  0
 25 27  1  0  0  0  0
 25 28  1  0  0  0  0
M  END
$$$$

  -OEChem-02102214123D

 28 27  0     1  0  0  0  0  0999 V2000
   -3.2870   -3.7885    1.3652 H   0  0  0  0  0  0  0  0  0  0  0  0
   -3.2696   -2.7877    0.9249 C   0  0  0  0  0  0  0  0  0  0  0  0
   -3.9424   -2.1399    1.4922 H   0  0  0  0  0  0  0  0  0  0  0  0
   -3.6208   -2.8502   -0.1079 H   0  0  0  0  0  0  0  0  0  0  0  0
   -1.8617   -2.2248    0.9602 C   0  0  0  0  0  0  0  0  0  0  0  0
   -0.9593   -2.8604    1.4820 O   0  0  0  0  0  0  0  0  0  0  0  0
   -1.6042   -0.9947    0.3930 N   0  0  0  0  0  0  0  0  0  0  0  0
   -2.3826   -0.5098   -0.0526 H   0  0  0  0  0  0  0  0  0  0  0  0
   -0.2876   -0.3473    0.3262 C   0  0  1  0  0  0  0  0  0  0  0  0
    0.3751   -0.8272    1.0534 H   0  0  0  0  0  0  0  0  0  0  0  0
    0.3960   -0.4416   -1.0632 C   0  0  0  0  0  0  0  0  0  0  0  0
   -0.0925    0.2819   -1.7268 H   0  0  0  0  0  0  0  0  0  0  0  0
    1.4370   -0.1209   -0.9519 H   0  0  0  0  0  0  0  0  0  0  0  0
    0.3857   -1.8067   -1.7960 C   0  0  0  0  0  0  0  0  0  0  0  0
    0.9450   -1.7074   -2.7299 H   0  0  0  0  0  0  0  0  0  0  0  0
    0.9199   -2.5272   -1.1694 H   0  0  0  0  0  0  0  0  0  0  0  0
   -0.9729   -2.4183   -2.1391 C   0  0  0  0  0  0  0  0  0  0  0  0
   -1.8918   -1.6889   -2.4772 O   0  0  0  0  0  0  0  0  0  0  0  0
   -1.0716   -3.7670   -2.0979 O   0  0  0  0  0  0  0  0  0  0  0  0
   -1.9725   -3.9802   -2.3814 H   0  0  0  0  0  0  0  0  0  0  0  0
   -0.3954    1.1407    0.7207 C   0  0  0  0  0  0  0  0  0  0  0  0
   -1.3059    1.8318    0.2799 O   0  0  0  0  0  0  0  0  0  0  0  0
    0.5254    1.7071    1.5833 N   0  0  0  0  0  0  0  0  0  0  0  0
    1.2258    1.0951    1.9920 H   0  0  0  0  0  0  0  0  0  0  0  0
    0.4485    3.0920    2.0335 C   0  0  0  0  0  0  0  0  0  0  0  0
   -0.4830    3.2653    2.5828 H   0  0  0  0  0  0  0  0  0  0  0  0
    1.2889    3.3231    2.6950 H   0  0  0  0  0  0  0  0  0  0  0  0
    0.4849    3.7758    1.1788 H   0  0  0  0  0  0  0  0  0  0  0  0
  1  2  1  0  0  0  0
  2  3  1  0  0  0  0
  2  4  1  0  0  0  0
  2  5  1  0  0  0  0
  5  6  2  0  0  0  0
  5  7  1  0  0  0  0
  7  8  1  0  0  0  0
  7  9  1  0  0  0  0
  9 10  1  0  0  0  0
  9 11  1  0  0  0  0
  9 21  1  0  0  0  0
 11 12  1  0  0  0  0
 11 13  1  0  0  0  0
 11 14  1  0  0  0  0
 14 15  1  0  0  0  0
 14 16  1  0  0  0  0
 14 17  1  0  0  0  0
 17 18  2  0  0  0  0
 17 19  1  0  0  0  0
 19 20  1  0  0  0  0
 21 22  2  0  0  0  0
 21 23  1  0  0  0  0
 23 24  1  0  0  0  0
 23 25  1  0  0  0  0
 25 26  1  0  0  0  0
 25 27  1  0  0  0  0
 25 28  1  0  0  0  0
M  END
$$$$

  -OEChem-02102214123D

 28 27  0     1  0  0  0  0  0999 V2000
   -3.2369   -3.8115    1.2816 H   0  0  0  0  0  0  0  0  0  0  0  0
   -3.2195   -2.8177    0.8256 C   0  0  0  0  0  0  0  0  0  0  0  0
   -3.9275   -2.1744    1.3535 H   0  0  0  0  0  0  0  0  0  0  0  0
   -3.5257   -2.9035   -0.2197 H   0  0  0  0  0  0  0  0  0  0  0  0
   -1.8248   -2.2282    0.9084 C   0  0  0  0  0  0  0  0  0  0  0  0
   -0.9245   -2.8539    1.4457 O   0  0  0  0  0  0  0  0  0  0  0  0
   -1.5724   -0.9924    0.3522 N   0  0  0  0  0  0  0  0  0  0  0  0
   -2.3453   -0.5196   -0.1155 H   0  0  0  0  0  0  0  0  0  0  0  0
   -0.2626   -0.3278    0.3115 C   0  0  1  0  0  0  0  0  0  0  0  0
    0.3989   -0.8043    1.0419 H   0  0  0  0  0  0  0  0  0  0  0  0
    0.4097   -0.4364   -1.0785 C   0  0  0  0  0  0  0  0  0  0  0  0
   -0.0562    0.2855   -1.7595 H   0  0  0  0  0  0  0  0  0  0  0  0
    1.4579   -0.1398   -0.9691 H   0  0  0  0  0  0  0  0  0  0  0  0
    0.3650   -1.8365   -1.7387 C   0  0  0  0  0  0  0  0  0  0  0  0
    1.0960   -1.8610   -2.5509 H   0  0  0  0  0  0  0  0  0  0  0  0
    0.6726   -2.5830   -1.0002 H   0  0  0  0  0  0  0  0  0  0  0  0
   -0.9782   -2.2726   -2.3320 C   0  0  0  0  0  0  0  0  0  0  0  0
   -1.8310   -1.4413   -2.6010 O   0  0  0  0  0  0  0  0  0  0  0  0
   -1.1405   -3.5971   -2.5536 O   0  0  0  0  0  0  0  0  0  0  0  0
   -2.0165   -3.6959   -2.9552 H   0  0  0  0  0  0  0  0  0  0  0  0
   -0.3827    1.1581    0.7087 C   0  0  0  0  0  0  0  0  0  0  0  0
   -1.2910    1.8455    0.2581 O   0  0  0  0  0  0  0  0  0  0  0  0
    0.5221    1.7257    1.5872 N   0  0  0  0  0  0  0  0  0  0  0  0
    1.2191    1.1157    2.0044 H   0  0  0  0  0  0  0  0  0  0  0  0
    0.4289    3.1075    2.0439 C   0  0  0  0  0  0  0  0  0  0  0  0
   -0.5148    3.2728    2.5745 H   0  0  0  0  0  0  0  0  0  0  0  0
    1.2539    3.3386    2.7246 H   0  0  0  0  0  0  0  0  0  0  0  0
    0.4799    3.7963    1.1940 H   0  0  0  0  0  0  0  0  0  0  0  0
  1  2  1  0  0  0  0
  2  3  1  0  0  0  0
  2  4  1  0  0  0  0
  2  5  1  0  0  0  0
  5  6  2  0  0  0  0
  5  7  1  0  0  0  0
  7  8  1  0  0  0  0
  7  9  1  0  0  0  0
  9 10  1  0  0  0  0
  9 11  1  0  0  0  0
  9 21  1  0  0  0  0
 11 12  1  0  0  0  0
 11 13  1  0  0  0  0
 11 14  1  0  0  0  0
 14 15  1  0  0  0  0
 14 16  1  0  0  0  0
 14 17  1  0  0  0  0
 17 18  2  0  0  0  0
 17 19  1  0  0  0  0
 19 20  1  0  0  0  0
 21 22  2  0  0  0  0
 21 23  1  0  0  0  0
 23 24  1  0  0  0  0
 23 25  1  0  0  0  0
 25 26  1  0  0  0  0
 25 27  1  0  0  0  0
 25 28  1  0  0  0  0
M  END
$$$$

  -OEChem-02102214123D

 28 27  0     1  0  0  0  0  0999 V2000
   -3.2274   -3.8219    1.2572 H   0  0  0  0  0  0  0  0  0  0  0  0
   -3.2066   -2.8317    0.7937 C   0  0  0  0  0  0  0  0  0  0  0  0
   -3.9509   -2.1974    1.2812 H   0  0  0  0  0  0  0  0  0  0  0  0
   -3.4611   -2.9316   -0.2643 H   0  0  0  0  0  0  0  0  0  0  0  0
   -1.8289   -2.2144    0.9370 C   0  0  0  0  0  0  0  0  0  0  0  0
   -0.9470   -2.8123    1.5339 O   0  0  0  0  0  0  0  0  0  0  0  0
   -1.5713   -0.9865    0.3675 N   0  0  0  0  0  0  0  0  0  0  0  0
   -2.3189   -0.5650   -0.1834 H   0  0  0  0  0  0  0  0  0  0  0  0
   -0.2625   -0.3186    0.3290 C   0  0  1  0  0  0  0  0  0  0  0  0
    0.3989   -0.7881    1.0643 H   0  0  0  0  0  0  0  0  0  0  0  0
    0.3949   -0.4559   -1.0644 C   0  0  0  0  0  0  0  0  0  0  0  0
   -0.0638    0.2573   -1.7593 H   0  0  0  0  0  0  0  0  0  0  0  0
    1.4471   -0.1698   -0.9659 H   0  0  0  0  0  0  0  0  0  0  0  0
    0.3289   -1.8763   -1.6774 C   0  0  0  0  0  0  0  0  0  0  0  0
    1.2020   -2.0014   -2.3237 H   0  0  0  0  0  0  0  0  0  0  0  0
    0.4080   -2.6282   -0.8876 H   0  0  0  0  0  0  0  0  0  0  0  0
   -0.8993   -2.1849   -2.5402 C   0  0  0  0  0  0  0  0  0  0  0  0
   -1.8737   -1.4490   -2.5257 O   0  0  0  0  0  0  0  0  0  0  0  0
   -0.8282   -3.3027   -3.2990 O   0  0  0  0  0  0  0  0  0  0  0  0
   -1.6657   -3.3494   -3.7843 H   0  0  0  0  0  0  0  0  0  0  0  0
   -0.3753    1.1737    0.7031 C   0  0  0  0  0  0  0  0  0  0  0  0
   -1.2609    1.8688    0.2205 O   0  0  0  0  0  0  0  0  0  0  0  0
    0.5297    1.7442    1.5795 N   0  0  0  0  0  0  0  0  0  0  0  0
    1.2041    1.1283    2.0240 H   0  0  0  0  0  0  0  0  0  0  0  0
    0.4507    3.1339    2.0142 C   0  0  0  0  0  0  0  0  0  0  0  0
   -0.4960    3.3208    2.5321 H   0  0  0  0  0  0  0  0  0  0  0  0
    1.2717    3.3636    2.7003 H   0  0  0  0  0  0  0  0  0  0  0  0
    0.5208    3.8089    1.1546 H   0  0  0  0  0  0  0  0  0  0  0  0
  1  2  1  0  0  0  0
  2  3  1  0  0  0  0
  2  4  1  0  0  0  0
  2  5  1  0  0  0  0
  5  6  2  0  0  0  0
  5  7  1  0  0  0  0
  7  8  1  0  0  0  0
  7  9  1  0  0  0  0
  9 10  1  0  0  0  0
  9 11  1  0  0  0  0
  9 21  1  0  0  0  0
 11 12  1  0  0  0  0
 11 13  1  0  0  0  0
 11 14  1  0  0  0  0
 14 15  1  0  0  0  0
 14 16  1  0  0  0  0
 14 17  1  0  0  0  0
 17 18  2  0  0  0  0
 17 19  1  0  0  0  0
 19 20  1  0  0  0  0
 21 22  2  0  0  0  0
 21 23  1  0  0  0  0
 23 24  1  0  0  0  0
 23 25  1  0  0  0  0
 25 26  1  0  0  0  0
 25 27  1  0  0  0  0
 25 28  1  0  0  0  0
M  END
$$$$

  -OEChem-02102214123D

 28 27  0     1  0  0  0  0  0999 V2000
   -3.3367   -3.7424    1.4595 H   0  0  0  0  0  0  0  0  0  0  0  0
   -3.2699   -2.8124    0.8883 C   0  0  0  0  0  0  0  0  0  0  0  0
   -4.0064   -2.1054    1.2772 H   0  0  0  0  0  0  0  0  0  0  0  0
   -3.4973   -3.0253   -0.1594 H   0  0  0  0  0  0  0  0  0  0  0  0
   -1.8762   -2.2255    1.0047 C   0  0  0  0  0  0  0  0  0  0  0  0
   -1.0219   -2.7990    1.6636 O   0  0  0  0  0  0  0  0  0  0  0  0
   -1.5785   -1.0353    0.3740 N   0  0  0  0  0  0  0  0  0  0  0  0
   -2.3227   -0.6001   -0.1681 H   0  0  0  0  0  0  0  0  0  0  0  0
   -0.2546   -0.3927    0.3413 C   0  0  1  0  0  0  0  0  0  0  0  0
    0.3822   -0.8340    1.1148 H   0  0  0  0  0  0  0  0  0  0  0  0
    0.4270   -0.6004   -1.0302 C   0  0  0  0  0  0  0  0  0  0  0  0
   -0.0096    0.0910   -1.7610 H   0  0  0  0  0  0  0  0  0  0  0  0
    1.4822   -0.3271   -0.9269 H   0  0  0  0  0  0  0  0  0  0  0  0
    0.3426   -2.0410   -1.5826 C   0  0  0  0  0  0  0  0  0  0  0  0
    1.3181   -2.3147   -1.9941 H   0  0  0  0  0  0  0  0  0  0  0  0
    0.1236   -2.7654   -0.7946 H   0  0  0  0  0  0  0  0  0  0  0  0
   -0.6772   -2.1585   -2.7105 C   0  0  0  0  0  0  0  0  0  0  0  0
   -1.8342   -2.4262   -2.4291 O   0  0  0  0  0  0  0  0  0  0  0  0
   -0.2463   -1.9365   -3.9741 O   0  0  0  0  0  0  0  0  0  0  0  0
   -1.0243   -2.0429   -4.5422 H   0  0  0  0  0  0  0  0  0  0  0  0
   -0.3599    1.1190    0.6277 C   0  0  0  0  0  0  0  0  0  0  0  0
   -1.2188    1.7917    0.0697 O   0  0  0  0  0  0  0  0  0  0  0  0
    0.5208    1.7311    1.5005 N   0  0  0  0  0  0  0  0  0  0  0  0
    1.1728    1.1359    2.0034 H   0  0  0  0  0  0  0  0  0  0  0  0
    0.4495    3.1467    1.8431 C   0  0  0  0  0  0  0  0  0  0  0  0
   -0.5169    3.3821    2.3015 H   0  0  0  0  0  0  0  0  0  0  0  0
    1.2412    3.4044    2.5534 H   0  0  0  0  0  0  0  0  0  0  0  0
    0.5746    3.7652    0.9479 H   0  0  0  0  0  0  0  0  0  0  0  0
  1  2  1  0  0  0  0
  2  3  1  0  0  0  0
  2  4  1  0  0  0  0
  2  5  1  0  0  0  0
  5  6  2  0  0  0  0
  5  7  1  0  0  0  0
  7  8  1  0  0  0  0
  7  9  1  0  0  0  0
  9 10  1  0  0  0  0
  9 11  1  0  0  0  0
  9 21  1  0  0  0  0
 11 12  1  0  0  0  0
 11 13  1  0  0  0  0
 11 14  1  0  0  0  0
 14 15  1  0  0  0  0
 14 16  1  0  0  0  0
 14 17  1  0  0  0  0
 17 18  2  0  0  0  0
 17 19  1  0  0  0  0
 19 20  1  0  0  0  0
 21 22  2  0  0  0  0
 21 23  1  0  0  0  0
 23 24  1  0  0  0  0
 23 25  1  0  0  0  0
 25 26  1  0  0  0  0
 25 27  1  0  0  0  0
 25 28  1  0  0  0  0
M  END
$$$$

  -OEChem-02102214123D

 28 27  0     1  0  0  0  0  0999 V2000
   -3.3652   -3.7419    1.4146 H   0  0  0  0  0  0  0  0  0  0  0  0
   -3.3033   -2.7809    0.8965 C   0  0  0  0  0  0  0  0  0  0  0  0
   -4.0219   -2.0909    1.3451 H   0  0  0  0  0  0  0  0  0  0  0  0
   -3.5600   -2.9309   -0.1555 H   0  0  0  0  0  0  0  0  0  0  0  0
   -1.9005   -2.2153    1.0087 C   0  0  0  0  0  0  0  0  0  0  0  0
   -1.0459   -2.8114    1.6462 O   0  0  0  0  0  0  0  0  0  0  0  0
   -1.5895   -1.0291    0.3776 N   0  0  0  0  0  0  0  0  0  0  0  0
   -2.3406   -0.5604   -0.1263 H   0  0  0  0  0  0  0  0  0  0  0  0
   -0.2583   -0.4004    0.3345 C   0  0  1  0  0  0  0  0  0  0  0  0
    0.3789   -0.8488    1.1035 H   0  0  0  0  0  0  0  0  0  0  0  0
    0.4143   -0.6122   -1.0415 C   0  0  0  0  0  0  0  0  0  0  0  0
   -0.0426    0.0815   -1.7576 H   0  0  0  0  0  0  0  0  0  0  0  0
    1.4696   -0.3311   -0.9607 H   0  0  0  0  0  0  0  0  0  0  0  0
    0.3238   -2.0486   -1.6106 C   0  0  0  0  0  0  0  0  0  0  0  0
    1.3370   -2.4273   -1.7700 H   0  0  0  0  0  0  0  0  0  0  0  0
   -0.1545   -2.7429   -0.9190 H   0  0  0  0  0  0  0  0  0  0  0  0
   -0.4045   -2.0785   -2.9478 C   0  0  0  0  0  0  0  0  0  0  0  0
   -1.6123   -2.2501   -2.9435 O   0  0  0  0  0  0  0  0  0  0  0  0
    0.3226   -1.8863   -4.0726 O   0  0  0  0  0  0  0  0  0  0  0  0
   -0.3095   -1.9255   -4.8063 H   0  0  0  0  0  0  0  0  0  0  0  0
   -0.3480    1.1124    0.6226 C   0  0  0  0  0  0  0  0  0  0  0  0
   -1.2169    1.7898    0.0864 O   0  0  0  0  0  0  0  0  0  0  0  0
    0.5448    1.7160    1.4888 N   0  0  0  0  0  0  0  0  0  0  0  0
    1.2022    1.1155    1.9783 H   0  0  0  0  0  0  0  0  0  0  0  0
    0.4752    3.1272    1.8494 C   0  0  0  0  0  0  0  0  0  0  0  0
   -0.4568    3.3402    2.3834 H   0  0  0  0  0  0  0  0  0  0  0  0
    1.3154    3.3943    2.4976 H   0  0  0  0  0  0  0  0  0  0  0  0
    0.5188    3.7558    0.9535 H   0  0  0  0  0  0  0  0  0  0  0  0
  1  2  1  0  0  0  0
  2  3  1  0  0  0  0
  2  4  1  0  0  0  0
  2  5  1  0  0  0  0
  5  6  2  0  0  0  0
  5  7  1  0  0  0  0
  7  8  1  0  0  0  0
  7  9  1  0  0  0  0
  9 10  1  0  0  0  0
  9 11  1  0  0  0  0
  9 21  1  0  0  0  0
 11 12  1  0  0  0  0
 11 13  1  0  0  0  0
 11 14  1  0  0  0  0
 14 15  1  0  0  0  0
 14 16  1  0  0  0  0
 14 17  1  0  0  0  0
 17 18  2  0  0  0  0
 17 19  1  0  0  0  0
 19 20  1  0  0  0  0
 21 22  2  0  0  0  0
 21 23  1  0  0  0  0
 23 24  1  0  0  0  0
 23 25  1  0  0  0  0
 25 26  1  0  0  0  0
 25 27  1  0  0  0  0
 25 28  1  0  0  0  0
M  END
$$$$

  -OEChem-02102214123D

 28 27  0     1  0  0  0  0  0999 V2000
   -3.2193   -3.8387    1.3495 H   0  0  0  0  0  0  0  0  0  0  0  0
   -3.1949   -2.8594    0.8634 C   0  0  0  0  0  0  0  0  0  0  0  0
   -3.8812   -2.1886    1.3859 H   0  0  0  0  0  0  0  0  0  0  0  0
   -3.5239   -2.9720   -0.1726 H   0  0  0  0  0  0  0  0  0  0  0  0
   -1.7885   -2.2927    0.8991 C   0  0  0  0  0  0  0  0  0  0  0  0
   -0.8928   -2.9092    1.4543 O   0  0  0  0  0  0  0  0  0  0  0  0
   -1.5248   -1.0782    0.2999 N   0  0  0  0  0  0  0  0  0  0  0  0
   -2.3169   -0.5642   -0.0831 H   0  0  0  0  0  0  0  0  0  0  0  0
   -0.2216   -0.3922    0.2960 C   0  0  1  0  0  0  0  0  0  0  0  0
    0.4121   -0.8249    1.0770 H   0  0  0  0  0  0  0  0  0  0  0  0
    0.5197   -0.5334   -1.0548 C   0  0  0  0  0  0  0  0  0  0  0  0
    0.0295    0.1448   -1.7637 H   0  0  0  0  0  0  0  0  0  0  0  0
    1.5506   -0.1812   -0.9430 H   0  0  0  0  0  0  0  0  0  0  0  0
    0.5374   -1.9514   -1.6771 C   0  0  0  0  0  0  0  0  0  0  0  0
    1.5220   -2.4027   -1.5267 H   0  0  0  0  0  0  0  0  0  0  0  0
   -0.1849   -2.6156   -1.2037 H   0  0  0  0  0  0  0  0  0  0  0  0
    0.2243   -1.9170   -3.1679 C   0  0  0  0  0  0  0  0  0  0  0  0
    1.0687   -1.4708   -3.9258 O   0  0  0  0  0  0  0  0  0  0  0  0
   -0.9884   -2.3606   -3.5742 O   0  0  0  0  0  0  0  0  0  0  0  0
   -0.9999   -2.2484   -4.5368 H   0  0  0  0  0  0  0  0  0  0  0  0
   -0.3992    1.1054    0.6198 C   0  0  0  0  0  0  0  0  0  0  0  0
   -1.3236    1.7328    0.1158 O   0  0  0  0  0  0  0  0  0  0  0  0
    0.4410    1.7372    1.5177 N   0  0  0  0  0  0  0  0  0  0  0  0
    1.1550    1.1745    1.9715 H   0  0  0  0  0  0  0  0  0  0  0  0
    0.2782    3.1294    1.9198 C   0  0  0  0  0  0  0  0  0  0  0  0
   -0.6734    3.2682    2.4441 H   0  0  0  0  0  0  0  0  0  0  0  0
    1.0900    3.4276    2.5903 H   0  0  0  0  0  0  0  0  0  0  0  0
    0.2968    3.7868    1.0439 H   0  0  0  0  0  0  0  0  0  0  0  0
  1  2  1  0  0  0  0
  2  3  1  0  0  0  0
  2  4  1  0  0  0  0
  2  5  1  0  0  0  0
  5  6  2  0  0  0  0
  5  7  1  0  0  0  0
  7  8  1  0  0  0  0
  7  9  1  0  0  0  0
  9 10  1  0  0  0  0
  9 11  1  0  0  0  0
  9 21  1  0  0  0  0
 11 12  1  0  0  0  0
 11 13  1  0  0  0  0
 11 14  1  0  0  0  0
 14 15  1  0  0  0  0
 14 16  1  0  0  0  0
 14 17  1  0  0  0  0
 17 18  2  0  0  0  0
 17 19  1  0  0  0  0
 19 20  1  0  0  0  0
 21 22  2  0  0  0  0
 21 23  1  0  0  0  0
 23 24  1  0  0  0  0
 23 25  1  0  0  0  0
 25 26  1  0  0  0  0
 25 27  1  0  0  0  0
 25 28  1  0  0  0  0
M  END
$$$$

  -OEChem-02102214123D

 28 27  0     1  0  0  0  0  0999 V2000
   -3.2545   -3.7887    1.3877 H   0  0  0  0  0  0  0  0  0  0  0  0
   -3.2273   -2.8104    0.8997 C   0  0  0  0  0  0  0  0  0  0  0  0
   -3.8805   -2.1257    1.4459 H   0  0  0  0  0  0  0  0  0  0  0  0
   -3.5956   -2.9169   -0.1235 H   0  0  0  0  0  0  0  0  0  0  0  0
   -1.8092   -2.2730    0.8847 C   0  0  0  0  0  0  0  0  0  0  0  0
   -0.9050   -2.9166    1.3933 O   0  0  0  0  0  0  0  0  0  0  0  0
   -1.5445   -1.0551    0.2929 N   0  0  0  0  0  0  0  0  0  0  0  0
   -2.3411   -0.5137   -0.0403 H   0  0  0  0  0  0  0  0  0  0  0  0
   -0.2350   -0.3819    0.2863 C   0  0  1  0  0  0  0  0  0  0  0  0
    0.3950   -0.8250    1.0643 H   0  0  0  0  0  0  0  0  0  0  0  0
    0.5086   -0.5240   -1.0619 C   0  0  0  0  0  0  0  0  0  0  0  0
    0.0144    0.1517   -1.7704 H   0  0  0  0  0  0  0  0  0  0  0  0
    1.5412   -0.1754   -0.9537 H   0  0  0  0  0  0  0  0  0  0  0  0
    0.5123   -1.9421   -1.6830 C   0  0  0  0  0  0  0  0  0  0  0  0
    1.3593   -2.5143   -1.2955 H   0  0  0  0  0  0  0  0  0  0  0  0
   -0.3930   -2.4899   -1.4195 H   0  0  0  0  0  0  0  0  0  0  0  0
    0.5729   -1.9055   -3.2074 C   0  0  0  0  0  0  0  0  0  0  0  0
    1.3997   -1.1859   -3.7427 O   0  0  0  0  0  0  0  0  0  0  0  0
   -0.3026   -2.6758   -3.8940 O   0  0  0  0  0  0  0  0  0  0  0  0
   -0.1121   -2.5204   -4.8315 H   0  0  0  0  0  0  0  0  0  0  0  0
   -0.3958    1.1140    0.6244 C   0  0  0  0  0  0  0  0  0  0  0  0
   -1.3270    1.7499    0.1441 O   0  0  0  0  0  0  0  0  0  0  0  0
    0.4565    1.7294    1.5222 N   0  0  0  0  0  0  0  0  0  0  0  0
    1.1788    1.1598    1.9538 H   0  0  0  0  0  0  0  0  0  0  0  0
    0.3070    3.1178    1.9411 C   0  0  0  0  0  0  0  0  0  0  0  0
   -0.6493    3.2613    2.4552 H   0  0  0  0  0  0  0  0  0  0  0  0
    1.1138    3.3956    2.6262 H   0  0  0  0  0  0  0  0  0  0  0  0
    0.3451    3.7863    1.0742 H   0  0  0  0  0  0  0  0  0  0  0  0
  1  2  1  0  0  0  0
  2  3  1  0  0  0  0
  2  4  1  0  0  0  0
  2  5  1  0  0  0  0
  5  6  2  0  0  0  0
  5  7  1  0  0  0  0
  7  8  1  0  0  0  0
  7  9  1  0  0  0  0
  9 10  1  0  0  0  0
  9 11  1  0  0  0  0
  9 21  1  0  0  0  0
 11 12  1  0  0  0  0
 11 13  1  0  0  0  0
 11 14  1  0  0  0  0
 14 15  1  0  0  0  0
 14 16  1  0  0  0  0
 14 17  1  0  0  0  0
 17 18  2  0  0  0  0
 17 19  1  0  0  0  0
 19 20  1  0  0  0  0
 21 22  2  0  0  0  0
 21 23  1  0  0  0  0
 23 24  1  0  0  0  0
 23 25  1  0  0  0  0
 25 26  1  0  0  0  0
 25 27  1  0  0  0  0
 25 28  1  0  0  0  0
M  END
$$$$

  -OEChem-02102214123D

 28 27  0     1  0  0  0  0  0999 V2000
   -3.2602   -3.7615    1.3715 H   0  0  0  0  0  0  0  0  0  0  0  0
   -3.2307   -2.7808    0.8883 C   0  0  0  0  0  0  0  0  0  0  0  0
   -3.8684   -2.0924    1.4484 H   0  0  0  0  0  0  0  0  0  0  0  0
   -3.6163   -2.8772   -0.1296 H   0  0  0  0  0  0  0  0  0  0  0  0
   -1.8077   -2.2572    0.8546 C   0  0  0  0  0  0  0  0  0  0  0  0
   -0.9001   -2.9174    1.3353 O   0  0  0  0  0  0  0  0  0  0  0  0
   -1.5447   -1.0316    0.2786 N   0  0  0  0  0  0  0  0  0  0  0  0
   -2.3434   -0.4759   -0.0245 H   0  0  0  0  0  0  0  0  0  0  0  0
   -0.2335   -0.3631    0.2748 C   0  0  1  0  0  0  0  0  0  0  0  0
    0.3984   -0.8184    1.0444 H   0  0  0  0  0  0  0  0  0  0  0  0
    0.4978   -0.5005   -1.0791 C   0  0  0  0  0  0  0  0  0  0  0  0
    0.0124    0.1792   -1.7894 H   0  0  0  0  0  0  0  0  0  0  0  0
    1.5359   -0.1691   -0.9685 H   0  0  0  0  0  0  0  0  0  0  0  0
    0.4742   -1.9220   -1.6885 C   0  0  0  0  0  0  0  0  0  0  0  0
    1.1340   -2.5805   -1.1171 H   0  0  0  0  0  0  0  0  0  0  0  0
   -0.5331   -2.3396   -1.6360 H   0  0  0  0  0  0  0  0  0  0  0  0
    0.8777   -1.9522   -3.1621 C   0  0  0  0  0  0  0  0  0  0  0  0
    1.6352   -1.0985   -3.5944 O   0  0  0  0  0  0  0  0  0  0  0  0
    0.3688   -2.9492   -3.9222 O   0  0  0  0  0  0  0  0  0  0  0  0
    0.7325   -2.8162   -4.8106 H   0  0  0  0  0  0  0  0  0  0  0  0
   -0.3871    1.1284    0.6351 C   0  0  0  0  0  0  0  0  0  0  0  0
   -1.3241    1.7715    0.1762 O   0  0  0  0  0  0  0  0  0  0  0  0
    0.4717    1.7287    1.5370 N   0  0  0  0  0  0  0  0  0  0  0  0
    1.2007    1.1534    1.9494 H   0  0  0  0  0  0  0  0  0  0  0  0
    0.3238    3.1092    1.9823 C   0  0  0  0  0  0  0  0  0  0  0  0
   -0.6377    3.2478    2.4882 H   0  0  0  0  0  0  0  0  0  0  0  0
    1.1235    3.3690    2.6825 H   0  0  0  0  0  0  0  0  0  0  0  0
    0.3750    3.7947    1.1297 H   0  0  0  0  0  0  0  0  0  0  0  0
  1  2  1  0  0  0  0
  2  3  1  0  0  0  0
  2  4  1  0  0  0  0
  2  5  1  0  0  0  0
  5  6  2  0  0  0  0
  5  7  1  0  0  0  0
  7  8  1  0  0  0  0
  7  9  1  0  0  0  0
  9 10  1  0  0  0  0
  9 11  1  0  0  0  0
  9 21  1  0  0  0  0
 11 12  1  0  0  0  0
 11 13  1  0  0  0  0
 11 14  1  0  0  0  0
 14 15  1  0  0  0  0
 14 16  1  0  0  0  0
 14 17  1  0  0  0  0
 17 18  2  0  0  0  0
 17 19  1  0  0  0  0
 19 20  1  0  0  0  0
 21 22  2  0  0  0  0
 21 23  1  0  0  0  0
 23 24  1  0  0  0  0
 23 25  1  0  0  0  0
 25 26  1  0  0  0  0
 25 27  1  0  0  0  0
 25 28  1  0  0  0  0
M  END
$$$$

  -OEChem-02102214123D

 28 27  0     1  0  0  0  0  0999 V2000
   -3.2731   -3.7558    1.3911 H   0  0  0  0  0  0  0  0  0  0  0  0
   -3.2488   -2.7782    0.9017 C   0  0  0  0  0  0  0  0  0  0  0  0
   -3.8783   -2.0863    1.4665 H   0  0  0  0  0  0  0  0  0  0  0  0
   -3.6482   -2.8806   -0.1100 H   0  0  0  0  0  0  0  0  0  0  0  0
   -1.8256   -2.2562    0.8451 C   0  0  0  0  0  0  0  0  0  0  0  0
   -0.9095   -2.9250    1.2966 O   0  0  0  0  0  0  0  0  0  0  0  0
   -1.5729   -1.0215    0.2843 N   0  0  0  0  0  0  0  0  0  0  0  0
   -2.3773   -0.4602    0.0081 H   0  0  0  0  0  0  0  0  0  0  0  0
   -0.2616   -0.3517    0.2653 C   0  0  1  0  0  0  0  0  0  0  0  0
    0.3747   -0.8193    1.0239 H   0  0  0  0  0  0  0  0  0  0  0  0
    0.4650   -0.4872   -1.0935 C   0  0  0  0  0  0  0  0  0  0  0  0
    0.1813    0.3600   -1.7290 H   0  0  0  0  0  0  0  0  0  0  0  0
    1.5445   -0.4186   -0.9207 H   0  0  0  0  0  0  0  0  0  0  0  0
    0.1446   -1.7829   -1.8735 C   0  0  0  0  0  0  0  0  0  0  0  0
    0.4094   -2.6502   -1.2621 H   0  0  0  0  0  0  0  0  0  0  0  0
   -0.9268   -1.8328   -2.0836 H   0  0  0  0  0  0  0  0  0  0  0  0
    0.8750   -1.8947   -3.2120 C   0  0  0  0  0  0  0  0  0  0  0  0
    1.7632   -1.1049   -3.4902 O   0  0  0  0  0  0  0  0  0  0  0  0
    0.4847   -2.8937   -4.0365 O   0  0  0  0  0  0  0  0  0  0  0  0
    1.0467   -2.8211   -4.8226 H   0  0  0  0  0  0  0  0  0  0  0  0
   -0.3989    1.1350    0.6509 C   0  0  0  0  0  0  0  0  0  0  0  0
   -1.3418    1.7898    0.2215 O   0  0  0  0  0  0  0  0  0  0  0  0
    0.4821    1.7171    1.5432 N   0  0  0  0  0  0  0  0  0  0  0  0
    1.2265    1.1365    1.9188 H   0  0  0  0  0  0  0  0  0  0  0  0
    0.3669    3.0986    1.9949 C   0  0  0  0  0  0  0  0  0  0  0  0
   -0.5858    3.2551    2.5117 H   0  0  0  0  0  0  0  0  0  0  0  0
    1.1792    3.3395    2.6875 H   0  0  0  0  0  0  0  0  0  0  0  0
    0.4231    3.7861    1.1443 H   0  0  0  0  0  0  0  0  0  0  0  0
  1  2  1  0  0  0  0
  2  3  1  0  0  0  0
  2  4  1  0  0  0  0
  2  5  1  0  0  0  0
  5  6  2  0  0  0  0
  5  7  1  0  0  0  0
  7  8  1  0  0  0  0
  7  9  1  0  0  0  0
  9 10  1  0  0  0  0
  9 11  1  0  0  0  0
  9 21  1  0  0  0  0
 11 12  1  0  0  0  0
 11 13  1  0  0  0  0
 11 14  1  0  0  0  0
 14 15  1  0  0  0  0
 14 16  1  0  0  0  0
 14 17  1  0  0  0  0
 17 18  2  0  0  0  0
 17 19  1  0  0  0  0
 19 20  1  0  0  0  0
 21 22  2  0  0  0  0
 21 23  1  0  0  0  0
 23 24  1  0  0  0  0
 23 25  1  0  0  0  0
 25 26  1  0  0  0  0
 25 27  1  0  0  0  0
 25 28  1  0  0  0  0
M  END
$$$$

  -OEChem-02102214123D

 28 27  0     1  0  0  0  0  0999 V2000
   -3.2817   -3.7578    1.3682 H   0  0  0  0  0  0  0  0  0  0  0  0
   -3.2510   -2.7870    0.8658 C   0  0  0  0  0  0  0  0  0  0  0  0
   -3.9017   -2.0923    1.4023 H   0  0  0  0  0  0  0  0  0  0  0  0
   -3.6201   -2.9068   -0.1556 H   0  0  0  0  0  0  0  0  0  0  0  0
   -1.8308   -2.2549    0.8429 C   0  0  0  0  0  0  0  0  0  0  0  0
   -0.9219   -2.9179    1.3168 O   0  0  0  0  0  0  0  0  0  0  0  0
   -1.5716   -1.0184    0.2886 N   0  0  0  0  0  0  0  0  0  0  0  0
   -2.3715   -0.4621   -0.0096 H   0  0  0  0  0  0  0  0  0  0  0  0
   -0.2582   -0.3512    0.2769 C   0  0  1  0  0  0  0  0  0  0  0  0
    0.3803   -0.8263    1.0291 H   0  0  0  0  0  0  0  0  0  0  0  0
    0.4560   -0.4722   -1.0899 C   0  0  0  0  0  0  0  0  0  0  0  0
    0.1906    0.3852   -1.7194 H   0  0  0  0  0  0  0  0  0  0  0  0
    1.5349   -0.4207   -0.9073 H   0  0  0  0  0  0  0  0  0  0  0  0
    0.1202   -1.7579   -1.8801 C   0  0  0  0  0  0  0  0  0  0  0  0
    0.1679   -2.6160   -1.2041 H   0  0  0  0  0  0  0  0  0  0  0  0
   -0.8973   -1.6944   -2.2742 H   0  0  0  0  0  0  0  0  0  0  0  0
    1.0762   -2.0504   -3.0370 C   0  0  0  0  0  0  0  0  0  0  0  0
    1.9495   -1.2486   -3.3276 O   0  0  0  0  0  0  0  0  0  0  0  0
    0.8872   -3.2141   -3.6998 O   0  0  0  0  0  0  0  0  0  0  0  0
    1.5688   -3.2398   -4.3881 H   0  0  0  0  0  0  0  0  0  0  0  0
   -0.3919    1.1342    0.6688 C   0  0  0  0  0  0  0  0  0  0  0  0
   -1.3215    1.7990    0.2261 O   0  0  0  0  0  0  0  0  0  0  0  0
    0.4885    1.7091    1.5664 N   0  0  0  0  0  0  0  0  0  0  0  0
    1.2206    1.1201    1.9531 H   0  0  0  0  0  0  0  0  0  0  0  0
    0.3953    3.0980    2.0000 C   0  0  0  0  0  0  0  0  0  0  0  0
   -0.5654    3.2831    2.4920 H   0  0  0  0  0  0  0  0  0  0  0  0
    1.1966    3.3279    2.7089 H   0  0  0  0  0  0  0  0  0  0  0  0
    0.4883    3.7733    1.1429 H   0  0  0  0  0  0  0  0  0  0  0  0
  1  2  1  0  0  0  0
  2  3  1  0  0  0  0
  2  4  1  0  0  0  0
  2  5  1  0  0  0  0
  5  6  2  0  0  0  0
  5  7  1  0  0  0  0
  7  8  1  0  0  0  0
  7  9  1  0  0  0  0
  9 10  1  0  0  0  0
  9 11  1  0  0  0  0
  9 21  1  0  0  0  0
 11 12  1  0  0  0  0
 11 13  1  0  0  0  0
 11 14  1  0  0  0  0
 14 15  1  0  0  0  0
 14 16  1  0  0  0  0
 14 17  1  0  0  0  0
 17 18  2  0  0  0  0
 17 19  1  0  0  0  0
 19 20  1  0  0  0  0
 21 22  2  0  0  0  0
 21 23  1  0  0  0  0
 23 24  1  0  0  0  0
 23 25  1  0  0  0  0
 25 26  1  0  0  0  0
 25 27  1  0  0  0  0
 25 28  1  0  0  0  0
M  END
$$$$

  -OEChem-02102214123D

 28 27  0     1  0  0  0  0  0999 V2000
   -3.3102   -3.7405    1.3688 H   0  0  0  0  0  0  0  0  0  0  0  0
   -3.2714   -2.7667    0.8728 C   0  0  0  0  0  0  0  0  0  0  0  0
   -3.9137   -2.0692    1.4158 H   0  0  0  0  0  0  0  0  0  0  0  0
   -3.6447   -2.8769   -0.1482 H   0  0  0  0  0  0  0  0  0  0  0  0
   -1.8460   -2.2486    0.8498 C   0  0  0  0  0  0  0  0  0  0  0  0
   -0.9452   -2.9147    1.3347 O   0  0  0  0  0  0  0  0  0  0  0  0
   -1.5741   -1.0169    0.2910 N   0  0  0  0  0  0  0  0  0  0  0  0
   -2.3683   -0.4567   -0.0151 H   0  0  0  0  0  0  0  0  0  0  0  0
   -0.2555   -0.3594    0.2774 C   0  0  1  0  0  0  0  0  0  0  0  0
    0.3809   -0.8377    1.0292 H   0  0  0  0  0  0  0  0  0  0  0  0
    0.4588   -0.4751   -1.0911 C   0  0  0  0  0  0  0  0  0  0  0  0
    0.2090    0.3907   -1.7150 H   0  0  0  0  0  0  0  0  0  0  0  0
    1.5347   -0.4279   -0.8913 H   0  0  0  0  0  0  0  0  0  0  0  0
    0.1282   -1.7494   -1.9072 C   0  0  0  0  0  0  0  0  0  0  0  0
   -0.0647   -2.5771   -1.2211 H   0  0  0  0  0  0  0  0  0  0  0  0
   -0.7757   -1.5885   -2.5004 H   0  0  0  0  0  0  0  0  0  0  0  0
    1.2592   -2.2286   -2.8190 C   0  0  0  0  0  0  0  0  0  0  0  0
    2.1843   -1.4800   -3.0908 O   0  0  0  0  0  0  0  0  0  0  0  0
    1.1554   -3.4864   -3.3055 O   0  0  0  0  0  0  0  0  0  0  0  0
    1.9402   -3.6223   -3.8575 H   0  0  0  0  0  0  0  0  0  0  0  0
   -0.3842    1.1279    0.6640 C   0  0  0  0  0  0  0  0  0  0  0  0
   -1.3140    1.7937    0.2231 O   0  0  0  0  0  0  0  0  0  0  0  0
    0.4974    1.7018    1.5610 N   0  0  0  0  0  0  0  0  0  0  0  0
    1.2278    1.1113    1.9488 H   0  0  0  0  0  0  0  0  0  0  0  0
    0.3929    3.0843    2.0119 C   0  0  0  0  0  0  0  0  0  0  0  0
   -0.5655    3.2524    2.5146 H   0  0  0  0  0  0  0  0  0  0  0  0
    1.1977    3.3146    2.7168 H   0  0  0  0  0  0  0  0  0  0  0  0
    0.4710    3.7712    1.1624 H   0  0  0  0  0  0  0  0  0  0  0  0
  1  2  1  0  0  0  0
  2  3  1  0  0  0  0
  2  4  1  0  0  0  0
  2  5  1  0  0  0  0
  5  6  2  0  0  0  0
  5  7  1  0  0  0  0
  7  8  1  0  0  0  0
  7  9  1  0  0  0  0
  9 10  1  0  0  0  0
  9 11  1  0  0  0  0
  9 21  1  0  0  0  0
 11 12  1  0  0  0  0
 11 13  1  0  0  0  0
 11 14  1  0  0  0  0
 14 15  1  0  0  0  0
 14 16  1  0  0  0  0
 14 17  1  0  0  0  0
 17 18  2  0  0  0  0
 17 19  1  0  0  0  0
 19 20  1  0  0  0  0
 21 22  2  0  0  0  0
 21 23  1  0  0  0  0
 23 24  1  0  0  0  0
 23 25  1  0  0  0  0
 25 26  1  0  0  0  0
 25 27  1  0  0  0  0
 25 28  1  0  0  0  0
M  END
$$$$

  -OEChem-02102214123D

 28 27  0     1  0  0  0  0  0999 V2000
   -3.3410   -3.7207    1.3811 H   0  0  0  0  0  0  0  0  0  0  0  0
   -3.2963   -2.7435    0.8921 C   0  0  0  0  0  0  0  0  0  0  0  0
   -3.9188   -2.0410    1.4516 H   0  0  0  0  0  0  0  0  0  0  0  0
   -3.6888   -2.8393   -0.1231 H   0  0  0  0  0  0  0  0  0  0  0  0
   -1.8643   -2.2453    0.8490 C   0  0  0  0  0  0  0  0  0  0  0  0
   -0.9656   -2.9233    1.3211 O   0  0  0  0  0  0  0  0  0  0  0  0
   -1.5844   -1.0154    0.2901 N   0  0  0  0  0  0  0  0  0  0  0  0
   -2.3761   -0.4435   -0.0008 H   0  0  0  0  0  0  0  0  0  0  0  0
   -0.2603   -0.3699    0.2721 C   0  0  1  0  0  0  0  0  0  0  0  0
    0.3728   -0.8525    1.0241 H   0  0  0  0  0  0  0  0  0  0  0  0
    0.4641   -0.4799   -1.0941 C   0  0  0  0  0  0  0  0  0  0  0  0
    0.2155    0.3934   -1.7081 H   0  0  0  0  0  0  0  0  0  0  0  0
    1.5374   -0.4213   -0.8849 H   0  0  0  0  0  0  0  0  0  0  0  0
    0.1508   -1.7407   -1.9454 C   0  0  0  0  0  0  0  0  0  0  0  0
   -0.3133   -2.5082   -1.3251 H   0  0  0  0  0  0  0  0  0  0  0  0
   -0.5587   -1.4849   -2.7365 H   0  0  0  0  0  0  0  0  0  0  0  0
    1.3799   -2.4089   -2.5647 C   0  0  0  0  0  0  0  0  0  0  0  0
    2.3634   -1.7381   -2.8343 O   0  0  0  0  0  0  0  0  0  0  0  0
    1.2965   -3.7365   -2.8120 O   0  0  0  0  0  0  0  0  0  0  0  0
    2.1488   -3.9886   -3.1978 H   0  0  0  0  0  0  0  0  0  0  0  0
   -0.3851    1.1169    0.6623 C   0  0  0  0  0  0  0  0  0  0  0  0
   -1.3158    1.7851    0.2266 O   0  0  0  0  0  0  0  0  0  0  0  0
    0.4996    1.6868    1.5586 N   0  0  0  0  0  0  0  0  0  0  0  0
    1.2275    1.0930    1.9460 H   0  0  0  0  0  0  0  0  0  0  0  0
    0.3888    3.0643    2.0235 C   0  0  0  0  0  0  0  0  0  0  0  0
   -0.5638    3.2184    2.5413 H   0  0  0  0  0  0  0  0  0  0  0  0
    1.2018    3.2961    2.7184 H   0  0  0  0  0  0  0  0  0  0  0  0
    0.4474    3.7596    1.1793 H   0  0  0  0  0  0  0  0  0  0  0  0
  1  2  1  0  0  0  0
  2  3  1  0  0  0  0
  2  4  1  0  0  0  0
  2  5  1  0  0  0  0
  5  6  2  0  0  0  0
  5  7  1  0  0  0  0
  7  8  1  0  0  0  0
  7  9  1  0  0  0  0
  9 10  1  0  0  0  0
  9 11  1  0  0  0  0
  9 21  1  0  0  0  0
 11 12  1  0  0  0  0
 11 13  1  0  0  0  0
 11 14  1  0  0  0  0
 14 15  1  0  0  0  0
 14 16  1  0  0  0  0
 14 17  1  0  0  0  0
 17 18  2  0  0  0  0
 17 19  1  0  0  0  0
 19 20  1  0  0  0  0
 21 22  2  0  0  0  0
 21 23  1  0  0  0  0
 23 24  1  0  0  0  0
 23 25  1  0  0  0  0
 25 26  1  0  0  0  0
 25 27  1  0  0  0  0
 25 28  1  0  0  0  0
M  END
$$$$

  -OEChem-02102214123D

 28 27  0     1  0  0  0  0  0999 V2000
   -3.3419   -3.7201    1.4074 H   0  0  0  0  0  0  0  0  0  0  0  0
   -3.3000   -2.7485    0.9070 C   0  0  0  0  0  0  0  0  0  0  0  0
   -3.9261   -2.0418    1.4571 H   0  0  0  0  0  0  0  0  0  0  0  0
   -3.6907   -2.8572   -0.1077 H   0  0  0  0  0  0  0  0  0  0  0  0
   -1.8697   -2.2457    0.8599 C   0  0  0  0  0  0  0  0  0  0  0  0
   -0.9663   -2.9258    1.3193 O   0  0  0  0  0  0  0  0  0  0  0  0
   -1.5954   -1.0152    0.2988 N   0  0  0  0  0  0  0  0  0  0  0  0
   -2.3902   -0.4450    0.0129 H   0  0  0  0  0  0  0  0  0  0  0  0
   -0.2742   -0.3639    0.2829 C   0  0  1  0  0  0  0  0  0  0  0  0
    0.3510   -0.8404    1.0453 H   0  0  0  0  0  0  0  0  0  0  0  0
    0.4782   -0.4827   -1.0684 C   0  0  0  0  0  0  0  0  0  0  0  0
    0.1898    0.3732   -1.6892 H   0  0  0  0  0  0  0  0  0  0  0  0
    1.5461   -0.3620   -0.8637 H   0  0  0  0  0  0  0  0  0  0  0  0
    0.2043   -1.7526   -1.9282 C   0  0  0  0  0  0  0  0  0  0  0  0
   -0.5295   -2.4028   -1.4540 H   0  0  0  0  0  0  0  0  0  0  0  0
   -0.2209   -1.4422   -2.8862 H   0  0  0  0  0  0  0  0  0  0  0  0
    1.4263   -2.6275   -2.2239 C   0  0  0  0  0  0  0  0  0  0  0  0
    2.5553   -2.1796   -2.1034 O   0  0  0  0  0  0  0  0  0  0  0  0
    1.1721   -3.8867   -2.6483 O   0  0  0  0  0  0  0  0  0  0  0  0
    2.0383   -4.3002   -2.7813 H   0  0  0  0  0  0  0  0  0  0  0  0
   -0.4004    1.1240    0.6688 C   0  0  0  0  0  0  0  0  0  0  0  0
   -1.3284    1.7913    0.2262 O   0  0  0  0  0  0  0  0  0  0  0  0
    0.4825    1.6972    1.5649 N   0  0  0  0  0  0  0  0  0  0  0  0
    1.2159    1.1073    1.9481 H   0  0  0  0  0  0  0  0  0  0  0  0
    0.3815    3.0811    2.0125 C   0  0  0  0  0  0  0  0  0  0  0  0
   -0.5784    3.2543    2.5104 H   0  0  0  0  0  0  0  0  0  0  0  0
    1.1837    3.3097    2.7207 H   0  0  0  0  0  0  0  0  0  0  0  0
    0.4660    3.7657    1.1619 H   0  0  0  0  0  0  0  0  0  0  0  0
  1  2  1  0  0  0  0
  2  3  1  0  0  0  0
  2  4  1  0  0  0  0
  2  5  1  0  0  0  0
  5  6  2  0  0  0  0
  5  7  1  0  0  0  0
  7  8  1  0  0  0  0
  7  9  1  0  0  0  0
  9 10  1  0  0  0  0
  9 11  1  0  0  0  0
  9 21  1  0  0  0  0
 11 12  1  0  0  0  0
 11 13  1  0  0  0  0
 11 14  1  0  0  0  0
 14 15  1  0  0  0  0
 14 16  1  0  0  0  0
 14 17  1  0  0  0  0
 17 18  2  0  0  0  0
 17 19  1  0  0  0  0
 19 20  1  0  0  0  0
 21 22  2  0  0  0  0
 21 23  1  0  0  0  0
 23 24  1  0  0  0  0
 23 25  1  0  0  0  0
 25 26  1  0  0  0  0
 25 27  1  0  0  0  0
 25 28  1  0  0  0  0
M  END
$$$$

  -OEChem-02102214123D

 28 27  0     1  0  0  0  0  0999 V2000
   -3.3300   -3.7181    1.3997 H   0  0  0  0  0  0  0  0  0  0  0  0
   -3.2944   -2.7346    0.9226 C   0  0  0  0  0  0  0  0  0  0  0  0
   -3.9086   -2.0402    1.5008 H   0  0  0  0  0  0  0  0  0  0  0  0
   -3.7030   -2.8180   -0.0874 H   0  0  0  0  0  0  0  0  0  0  0  0
   -1.8636   -2.2347    0.8622 C   0  0  0  0  0  0  0  0  0  0  0  0
   -0.9575   -2.9198    1.3082 O   0  0  0  0  0  0  0  0  0  0  0  0
   -1.5922   -1.0061    0.2958 N   0  0  0  0  0  0  0  0  0  0  0  0
   -2.3883   -0.4330    0.0200 H   0  0  0  0  0  0  0  0  0  0  0  0
   -0.2718   -0.3545    0.2798 C   0  0  1  0  0  0  0  0  0  0  0  0
    0.3489   -0.8250    1.0499 H   0  0  0  0  0  0  0  0  0  0  0  0
    0.4914   -0.4942   -1.0627 C   0  0  0  0  0  0  0  0  0  0  0  0
    0.1723    0.3419   -1.6951 H   0  0  0  0  0  0  0  0  0  0  0  0
    1.5615   -0.3447   -0.8877 H   0  0  0  0  0  0  0  0  0  0  0  0
    0.2201   -1.7787   -1.8979 C   0  0  0  0  0  0  0  0  0  0  0  0
   -0.7158   -2.2639   -1.6231 H   0  0  0  0  0  0  0  0  0  0  0  0
    0.1139   -1.4785   -2.9439 H   0  0  0  0  0  0  0  0  0  0  0  0
    1.3318   -2.8311   -1.8637 C   0  0  0  0  0  0  0  0  0  0  0  0
    2.3869   -2.6068   -1.2921 O   0  0  0  0  0  0  0  0  0  0  0  0
    1.0708   -3.9918   -2.5078 O   0  0  0  0  0  0  0  0  0  0  0  0
    1.8516   -4.5488   -2.3698 H   0  0  0  0  0  0  0  0  0  0  0  0
   -0.3995    1.1347    0.6586 C   0  0  0  0  0  0  0  0  0  0  0  0
   -1.3278    1.7988    0.2117 O   0  0  0  0  0  0  0  0  0  0  0  0
    0.4809    1.7128    1.5540 N   0  0  0  0  0  0  0  0  0  0  0  0
    1.2051    1.1209    1.9517 H   0  0  0  0  0  0  0  0  0  0  0  0
    0.3642    3.0922    2.0117 C   0  0  0  0  0  0  0  0  0  0  0  0
   -0.5871    3.2439    2.5326 H   0  0  0  0  0  0  0  0  0  0  0  0
    1.1785    3.3328    2.7019 H   0  0  0  0  0  0  0  0  0  0  0  0
    0.4151    3.7832    1.1635 H   0  0  0  0  0  0  0  0  0  0  0  0
  1  2  1  0  0  0  0
  2  3  1  0  0  0  0
  2  4  1  0  0  0  0
  2  5  1  0  0  0  0
  5  6  2  0  0  0  0
  5  7  1  0  0  0  0
  7  8  1  0  0  0  0
  7  9  1  0  0  0  0
  9 10  1  0  0  0  0
  9 11  1  0  0  0  0
  9 21  1  0  0  0  0
 11 12  1  0  0  0  0
 11 13  1  0  0  0  0
 11 14  1  0  0  0  0
 14 15  1  0  0  0  0
 14 16  1  0  0  0  0
 14 17  1  0  0  0  0
 17 18  2  0  0  0  0
 17 19  1  0  0  0  0
 19 20  1  0  0  0  0
 21 22  2  0  0  0  0
 21 23  1  0  0  0  0
 23 24  1  0  0  0  0
 23 25  1  0  0  0  0
 25 26  1  0  0  0  0
 25 27  1  0  0  0  0
 25 28  1  0  0  0  0
M  END
$$$$

  -OEChem-02102214123D

 28 27  0     1  0  0  0  0  0999 V2000
   -3.2930   -3.7438    1.3657 H   0  0  0  0  0  0  0  0  0  0  0  0
   -3.2652   -2.7669    0.8747 C   0  0  0  0  0  0  0  0  0  0  0  0
   -3.8993   -2.0741    1.4331 H   0  0  0  0  0  0  0  0  0  0  0  0
   -3.6565   -2.8714   -0.1401 H   0  0  0  0  0  0  0  0  0  0  0  0
   -1.8417   -2.2452    0.8283 C   0  0  0  0  0  0  0  0  0  0  0  0
   -0.9281   -2.9240    1.2689 O   0  0  0  0  0  0  0  0  0  0  0  0
   -1.5851   -1.0061    0.2777 N   0  0  0  0  0  0  0  0  0  0  0  0
   -2.3877   -0.4394    0.0077 H   0  0  0  0  0  0  0  0  0  0  0  0
   -0.2709   -0.3416    0.2679 C   0  0  1  0  0  0  0  0  0  0  0  0
    0.3542   -0.8167    1.0314 H   0  0  0  0  0  0  0  0  0  0  0  0
    0.4875   -0.4710   -1.0767 C   0  0  0  0  0  0  0  0  0  0  0  0
    0.1617    0.3636   -1.7079 H   0  0  0  0  0  0  0  0  0  0  0  0
    1.5606   -0.3292   -0.9115 H   0  0  0  0  0  0  0  0  0  0  0  0
    0.2081   -1.7580   -1.8965 C   0  0  0  0  0  0  0  0  0  0  0  0
   -0.8290   -2.0849   -1.8104 H   0  0  0  0  0  0  0  0  0  0  0  0
    0.3683   -1.5244   -2.9522 H   0  0  0  0  0  0  0  0  0  0  0  0
    1.1398   -2.9271   -1.5704 C   0  0  0  0  0  0  0  0  0  0  0  0
    2.2165   -2.7238   -1.0317 O   0  0  0  0  0  0  0  0  0  0  0  0
    0.7078   -4.1586   -1.9262 O   0  0  0  0  0  0  0  0  0  0  0  0
    1.3838   -4.7745   -1.6060 H   0  0  0  0  0  0  0  0  0  0  0  0
   -0.4006    1.1422    0.6655 C   0  0  0  0  0  0  0  0  0  0  0  0
   -1.3308    1.8102    0.2290 O   0  0  0  0  0  0  0  0  0  0  0  0
    0.4827    1.7098    1.5647 N   0  0  0  0  0  0  0  0  0  0  0  0
    1.2138    1.1152    1.9458 H   0  0  0  0  0  0  0  0  0  0  0  0
    0.3743    3.0862    2.0331 C   0  0  0  0  0  0  0  0  0  0  0  0
   -0.5877    3.2471    2.5312 H   0  0  0  0  0  0  0  0  0  0  0  0
    1.1735    3.3070    2.7471 H   0  0  0  0  0  0  0  0  0  0  0  0
    0.4580    3.7845    1.1937 H   0  0  0  0  0  0  0  0  0  0  0  0
  1  2  1  0  0  0  0
  2  3  1  0  0  0  0
  2  4  1  0  0  0  0
  2  5  1  0  0  0  0
  5  6  2  0  0  0  0
  5  7  1  0  0  0  0
  7  8  1  0  0  0  0
  7  9  1  0  0  0  0
  9 10  1  0  0  0  0
  9 11  1  0  0  0  0
  9 21  1  0  0  0  0
 11 12  1  0  0  0  0
 11 13  1  0  0  0  0
 11 14  1  0  0  0  0
 14 15  1  0  0  0  0
 14 16  1  0  0  0  0
 14 17  1  0  0  0  0
 17 18  2  0  0  0  0
 17 19  1  0  0  0  0
 19 20  1  0  0  0  0
 21 22  2  0  0  0  0
 21 23  1  0  0  0  0
 23 24  1  0  0  0  0
 23 25  1  0  0  0  0
 25 26  1  0  0  0  0
 25 27  1  0  0  0  0
 25 28  1  0  0  0  0
M  END
$$$$

  -OEChem-02102214123D

 28 27  0     1  0  0  0  0  0999 V2000
   -3.2641   -3.7863    1.3058 H   0  0  0  0  0  0  0  0  0  0  0  0
   -3.2322   -2.8109    0.8125 C   0  0  0  0  0  0  0  0  0  0  0  0
   -3.9104   -2.1304    1.3332 H   0  0  0  0  0  0  0  0  0  0  0  0
   -3.5661   -2.9286   -0.2212 H   0  0  0  0  0  0  0  0  0  0  0  0
   -1.8201   -2.2581    0.8392 C   0  0  0  0  0  0  0  0  0  0  0  0
   -0.9225   -2.9046    1.3553 O   0  0  0  0  0  0  0  0  0  0  0  0
   -1.5601   -1.0196    0.2883 N   0  0  0  0  0  0  0  0  0  0  0  0
   -2.3573   -0.4763   -0.0389 H   0  0  0  0  0  0  0  0  0  0  0  0
   -0.2492   -0.3479    0.2830 C   0  0  1  0  0  0  0  0  0  0  0  0
    0.3855   -0.8220    1.0394 H   0  0  0  0  0  0  0  0  0  0  0  0
    0.4888   -0.4596   -1.0754 C   0  0  0  0  0  0  0  0  0  0  0  0
    0.1746    0.3863   -1.6970 H   0  0  0  0  0  0  0  0  0  0  0  0
    1.5669   -0.3490   -0.9154 H   0  0  0  0  0  0  0  0  0  0  0  0
    0.1913   -1.7366   -1.8950 C   0  0  0  0  0  0  0  0  0  0  0  0
   -0.8836   -1.9122   -1.9755 H   0  0  0  0  0  0  0  0  0  0  0  0
    0.5627   -1.5912   -2.9127 H   0  0  0  0  0  0  0  0  0  0  0  0
    0.8776   -2.9833   -1.3387 C   0  0  0  0  0  0  0  0  0  0  0  0
    1.9830   -2.8845   -0.8296 O   0  0  0  0  0  0  0  0  0  0  0  0
    0.2080   -4.1535   -1.4520 O   0  0  0  0  0  0  0  0  0  0  0  0
    0.7433   -4.8045   -0.9734 H   0  0  0  0  0  0  0  0  0  0  0  0
   -0.3897    1.1358    0.6767 C   0  0  0  0  0  0  0  0  0  0  0  0
   -1.3114    1.8024    0.2201 O   0  0  0  0  0  0  0  0  0  0  0  0
    0.4857    1.7106    1.5789 N   0  0  0  0  0  0  0  0  0  0  0  0
    1.2073    1.1167    1.9785 H   0  0  0  0  0  0  0  0  0  0  0  0
    0.3736    3.0914    2.0330 C   0  0  0  0  0  0  0  0  0  0  0  0
   -0.5946    3.2587    2.5169 H   0  0  0  0  0  0  0  0  0  0  0  0
    1.1643    3.3179    2.7549 H   0  0  0  0  0  0  0  0  0  0  0  0
    0.4690    3.7814    1.1879 H   0  0  0  0  0  0  0  0  0  0  0  0
  1  2  1  0  0  0  0
  2  3  1  0  0  0  0
  2  4  1  0  0  0  0
  2  5  1  0  0  0  0
  5  6  2  0  0  0  0
  5  7  1  0  0  0  0
  7  8  1  0  0  0  0
  7  9  1  0  0  0  0
  9 10  1  0  0  0  0
  9 11  1  0  0  0  0
  9 21  1  0  0  0  0
 11 12  1  0  0  0  0
 11 13  1  0  0  0  0
 11 14  1  0  0  0  0
 14 15  1  0  0  0  0
 14 16  1  0  0  0  0
 14 17  1  0  0  0  0
 17 18  2  0  0  0  0
 17 19  1  0  0  0  0
 19 20  1  0  0  0  0
 21 22  2  0  0  0  0
 21 23  1  0  0  0  0
 23 24  1  0  0  0  0
 23 25  1  0  0  0  0
 25 26  1  0  0  0  0
 25 27  1  0  0  0  0
 25 28  1  0  0  0  0
M  END
$$$$

  -OEChem-02102214123D

 28 27  0     1  0  0  0  0  0999 V2000
   -3.2752   -3.7991    1.2988 H   0  0  0  0  0  0  0  0  0  0  0  0
   -3.2220   -2.8318    0.7913 C   0  0  0  0  0  0  0  0  0  0  0  0
   -3.9439   -2.1520    1.2503 H   0  0  0  0  0  0  0  0  0  0  0  0
   -3.4803   -2.9721   -0.2612 H   0  0  0  0  0  0  0  0  0  0  0  0
   -1.8235   -2.2573    0.9057 C   0  0  0  0  0  0  0  0  0  0  0  0
   -0.9647   -2.8641    1.5260 O   0  0  0  0  0  0  0  0  0  0  0  0
   -1.5409   -1.0344    0.3326 N   0  0  0  0  0  0  0  0  0  0  0  0
   -2.3205   -0.5213   -0.0752 H   0  0  0  0  0  0  0  0  0  0  0  0
   -0.2285   -0.3645    0.3232 C   0  0  1  0  0  0  0  0  0  0  0  0
    0.4120   -0.8300    1.0801 H   0  0  0  0  0  0  0  0  0  0  0  0
    0.4924   -0.4692   -1.0485 C   0  0  0  0  0  0  0  0  0  0  0  0
    0.2023    0.3915   -1.6617 H   0  0  0  0  0  0  0  0  0  0  0  0
    1.5719   -0.3903   -0.8799 H   0  0  0  0  0  0  0  0  0  0  0  0
    0.1992   -1.7290   -1.8918 C   0  0  0  0  0  0  0  0  0  0  0  0
   -0.8641   -1.7644   -2.1434 H   0  0  0  0  0  0  0  0  0  0  0  0
    0.7533   -1.6717   -2.8323 H   0  0  0  0  0  0  0  0  0  0  0  0
    0.5857   -3.0280   -1.1903 C   0  0  0  0  0  0  0  0  0  0  0  0
    1.6622   -3.0852   -0.6178 O   0  0  0  0  0  0  0  0  0  0  0  0
   -0.2876   -4.0603   -1.2529 O   0  0  0  0  0  0  0  0  0  0  0  0
    0.0870   -4.7440   -0.6754 H   0  0  0  0  0  0  0  0  0  0  0  0
   -0.3805    1.1272    0.6835 C   0  0  0  0  0  0  0  0  0  0  0  0
   -1.2905    1.7850    0.1916 O   0  0  0  0  0  0  0  0  0  0  0  0
    0.4835    1.7242    1.5822 N   0  0  0  0  0  0  0  0  0  0  0  0
    1.1839    1.1344    2.0232 H   0  0  0  0  0  0  0  0  0  0  0  0
    0.3581    3.1122    2.0098 C   0  0  0  0  0  0  0  0  0  0  0  0
   -0.6139    3.2805    2.4856 H   0  0  0  0  0  0  0  0  0  0  0  0
    1.1434    3.3582    2.7312 H   0  0  0  0  0  0  0  0  0  0  0  0
    0.4526    3.7873    1.1527 H   0  0  0  0  0  0  0  0  0  0  0  0
  1  2  1  0  0  0  0
  2  3  1  0  0  0  0
  2  4  1  0  0  0  0
  2  5  1  0  0  0  0
  5  6  2  0  0  0  0
  5  7  1  0  0  0  0
  7  8  1  0  0  0  0
  7  9  1  0  0  0  0
  9 10  1  0  0  0  0
  9 11  1  0  0  0  0
  9 21  1  0  0  0  0
 11 12  1  0  0  0  0
 11 13  1  0  0  0  0
 11 14  1  0  0  0  0
 14 15  1  0  0  0  0
 14 16  1  0  0  0  0
 14 17  1  0  0  0  0
 17 18  2  0  0  0  0
 17 19  1  0  0  0  0
 19 20  1  0  0  0  0
 21 22  2  0  0  0  0
 21 23  1  0  0  0  0
 23 24  1  0  0  0  0
 23 25  1  0  0  0  0
 25 26  1  0  0  0  0
 25 27  1  0  0  0  0
 25 28  1  0  0  0  0
M  END
$$$$

  -OEChem-02102214123D

 28 27  0     1  0  0  0  0  0999 V2000
   -3.3510   -3.7542    1.3950 H   0  0  0  0  0  0  0  0  0  0  0  0
   -3.2699   -2.8023    0.8632 C   0  0  0  0  0  0  0  0  0  0  0  0
   -3.9843   -2.0960    1.2931 H   0  0  0  0  0  0  0  0  0  0  0  0
   -3.5159   -2.9655   -0.1891 H   0  0  0  0  0  0  0  0  0  0  0  0
   -1.8617   -2.2527    0.9846 C   0  0  0  0  0  0  0  0  0  0  0  0
   -1.0293   -2.8538    1.6437 O   0  0  0  0  0  0  0  0  0  0  0  0
   -1.5483   -1.0505    0.3853 N   0  0  0  0  0  0  0  0  0  0  0  0
   -2.3147   -0.5473   -0.0584 H   0  0  0  0  0  0  0  0  0  0  0  0
   -0.2321   -0.3865    0.3693 C   0  0  1  0  0  0  0  0  0  0  0  0
    0.4010   -0.8390    1.1403 H   0  0  0  0  0  0  0  0  0  0  0  0
    0.5075   -0.4917   -0.9973 C   0  0  0  0  0  0  0  0  0  0  0  0
    0.2483    0.3813   -1.6073 H   0  0  0  0  0  0  0  0  0  0  0  0
    1.5808   -0.4253   -0.7895 H   0  0  0  0  0  0  0  0  0  0  0  0
    0.2728   -1.7288   -1.8933 C   0  0  0  0  0  0  0  0  0  0  0  0
   -0.7114   -1.6353   -2.3610 H   0  0  0  0  0  0  0  0  0  0  0  0
    1.0153   -1.7462   -2.6956 H   0  0  0  0  0  0  0  0  0  0  0  0
    0.3151   -3.0644   -1.1608 C   0  0  0  0  0  0  0  0  0  0  0  0
    1.3162   -3.3200   -0.5126 O   0  0  0  0  0  0  0  0  0  0  0  0
   -0.7268   -3.9175   -1.3020 O   0  0  0  0  0  0  0  0  0  0  0  0
   -0.5156   -4.6641   -0.7187 H   0  0  0  0  0  0  0  0  0  0  0  0
   -0.3947    1.1143    0.6884 C   0  0  0  0  0  0  0  0  0  0  0  0
   -1.3004    1.7567    0.1684 O   0  0  0  0  0  0  0  0  0  0  0  0
    0.4571    1.7382    1.5804 N   0  0  0  0  0  0  0  0  0  0  0  0
    1.1516    1.1623    2.0482 H   0  0  0  0  0  0  0  0  0  0  0  0
    0.3240    3.1377    1.9665 C   0  0  0  0  0  0  0  0  0  0  0  0
   -0.6475    3.3143    2.4403 H   0  0  0  0  0  0  0  0  0  0  0  0
    1.1103    3.4111    2.6769 H   0  0  0  0  0  0  0  0  0  0  0  0
    0.4114    3.7871    1.0889 H   0  0  0  0  0  0  0  0  0  0  0  0
  1  2  1  0  0  0  0
  2  3  1  0  0  0  0
  2  4  1  0  0  0  0
  2  5  1  0  0  0  0
  5  6  2  0  0  0  0
  5  7  1  0  0  0  0
  7  8  1  0  0  0  0
  7  9  1  0  0  0  0
  9 10  1  0  0  0  0
  9 11  1  0  0  0  0
  9 21  1  0  0  0  0
 11 12  1  0  0  0  0
 11 13  1  0  0  0  0
 11 14  1  0  0  0  0
 14 15  1  0  0  0  0
 14 16  1  0  0  0  0
 14 17  1  0  0  0  0
 17 18  2  0  0  0  0
 17 19  1  0  0  0  0
 19 20  1  0  0  0  0
 21 22  2  0  0  0  0
 21 23  1  0  0  0  0
 23 24  1  0  0  0  0
 23 25  1  0  0  0  0
 25 26  1  0  0  0  0
 25 27  1  0  0  0  0
 25 28  1  0  0  0  0
M  END
$$$$

  -OEChem-02102214123D

 28 27  0     1  0  0  0  0  0999 V2000
   -3.2812   -3.8139    1.5109 H   0  0  0  0  0  0  0  0  0  0  0  0
   -3.2421   -2.8377    1.0198 C   0  0  0  0  0  0  0  0  0  0  0  0
   -3.9271   -2.1577    1.5319 H   0  0  0  0  0  0  0  0  0  0  0  0
   -3.5625   -2.9526   -0.0186 H   0  0  0  0  0  0  0  0  0  0  0  0
   -1.8311   -2.2829    1.0679 C   0  0  0  0  0  0  0  0  0  0  0  0
   -0.9674   -2.8728    1.6948 O   0  0  0  0  0  0  0  0  0  0  0  0
   -1.5531   -1.0788    0.4558 N   0  0  0  0  0  0  0  0  0  0  0  0
   -2.3406   -0.5850    0.0390 H   0  0  0  0  0  0  0  0  0  0  0  0
   -0.2493   -0.3950    0.4026 C   0  0  1  0  0  0  0  0  0  0  0  0
    0.4082   -0.8325    1.1616 H   0  0  0  0  0  0  0  0  0  0  0  0
    0.4774   -0.4653   -0.9765 C   0  0  0  0  0  0  0  0  0  0  0  0
    0.2073    0.4227   -1.5595 H   0  0  0  0  0  0  0  0  0  0  0  0
    1.5477   -0.3821   -0.7593 H   0  0  0  0  0  0  0  0  0  0  0  0
    0.3059   -1.6665   -1.9396 C   0  0  0  0  0  0  0  0  0  0  0  0
   -0.5441   -1.4488   -2.5926 H   0  0  0  0  0  0  0  0  0  0  0  0
    1.1895   -1.7422   -2.5794 H   0  0  0  0  0  0  0  0  0  0  0  0
    0.0406   -3.0314   -1.3208 C   0  0  0  0  0  0  0  0  0  0  0  0
    0.9602   -3.5512   -0.7132 O   0  0  0  0  0  0  0  0  0  0  0  0
   -1.1480   -3.6403   -1.5458 O   0  0  0  0  0  0  0  0  0  0  0  0
   -1.0803   -4.4894   -1.0806 H   0  0  0  0  0  0  0  0  0  0  0  0
   -0.4431    1.1026    0.7233 C   0  0  0  0  0  0  0  0  0  0  0  0
   -1.3762    1.7219    0.2241 O   0  0  0  0  0  0  0  0  0  0  0  0
    0.4146    1.7494    1.5932 N   0  0  0  0  0  0  0  0  0  0  0  0
    1.1287    1.1899    2.0512 H   0  0  0  0  0  0  0  0  0  0  0  0
    0.2481    3.1424    1.9898 C   0  0  0  0  0  0  0  0  0  0  0  0
   -0.7216    3.2893    2.4773 H   0  0  0  0  0  0  0  0  0  0  0  0
    1.0355    3.4328    2.6921 H   0  0  0  0  0  0  0  0  0  0  0  0
    0.3059    3.7996    1.1157 H   0  0  0  0  0  0  0  0  0  0  0  0
  1  2  1  0  0  0  0
  2  3  1  0  0  0  0
  2  4  1  0  0  0  0
  2  5  1  0  0  0  0
  5  6  2  0  0  0  0
  5  7  1  0  0  0  0
  7  8  1  0  0  0  0
  7  9  1  0  0  0  0
  9 10  1  0  0  0  0
  9 11  1  0  0  0  0
  9 21  1  0  0  0  0
 11 12  1  0  0  0  0
 11 13  1  0  0  0  0
 11 14  1  0  0  0  0
 14 15  1  0  0  0  0
 14 16  1  0  0  0  0
 14 17  1  0  0  0  0
 17 18  2  0  0  0  0
 17 19  1  0  0  0  0
 19 20  1  0  0  0  0
 21 22  2  0  0  0  0
 21 23  1  0  0  0  0
 23 24  1  0  0  0  0
 23 25  1  0  0  0  0
 25 26  1  0  0  0  0
 25 27  1  0  0  0  0
 25 28  1  0  0  0  0
M  END
$$$$

  -OEChem-02102214123D

 28 27  0     1  0  0  0  0  0999 V2000
   -3.4899   -3.7972    1.3607 H   0  0  0  0  0  0  0  0  0  0  0  0
   -3.4314   -2.8174    0.8791 C   0  0  0  0  0  0  0  0  0  0  0  0
   -4.1445   -2.1431    1.3588 H   0  0  0  0  0  0  0  0  0  0  0  0
   -3.6986   -2.9295   -0.1745 H   0  0  0  0  0  0  0  0  0  0  0  0
   -2.0262   -2.2594    1.0016 C   0  0  0  0  0  0  0  0  0  0  0  0
   -1.1872   -2.8383    1.6760 O   0  0  0  0  0  0  0  0  0  0  0  0
   -1.7064   -1.0431    0.4293 N   0  0  0  0  0  0  0  0  0  0  0  0
   -2.4464   -0.5519   -0.0701 H   0  0  0  0  0  0  0  0  0  0  0  0
   -0.3619   -0.4455    0.4180 C   0  0  1  0  0  0  0  0  0  0  0  0
    0.2642   -0.9431    1.1654 H   0  0  0  0  0  0  0  0  0  0  0  0
    0.3757   -0.4949   -0.9572 C   0  0  0  0  0  0  0  0  0  0  0  0
    0.1624    0.4394   -1.4905 H   0  0  0  0  0  0  0  0  0  0  0  0
    1.4464   -0.4751   -0.7284 H   0  0  0  0  0  0  0  0  0  0  0  0
    0.1513   -1.6207   -2.0065 C   0  0  0  0  0  0  0  0  0  0  0  0
   -0.4425   -1.1863   -2.8178 H   0  0  0  0  0  0  0  0  0  0  0  0
    1.1192   -1.8840   -2.4419 H   0  0  0  0  0  0  0  0  0  0  0  0
   -0.5441   -2.9201   -1.6124 C   0  0  0  0  0  0  0  0  0  0  0  0
   -1.6683   -3.1109   -2.0507 O   0  0  0  0  0  0  0  0  0  0  0  0
    0.1549   -3.8204   -0.8731 O   0  0  0  0  0  0  0  0  0  0  0  0
    0.9680   -3.4094   -0.5545 H   0  0  0  0  0  0  0  0  0  0  0  0
   -0.4722    1.0483    0.8015 C   0  0  0  0  0  0  0  0  0  0  0  0
   -1.3316    1.7552    0.2882 O   0  0  0  0  0  0  0  0  0  0  0  0
    0.4095    1.6063    1.7091 N   0  0  0  0  0  0  0  0  0  0  0  0
    1.0391    0.9767    2.1983 H   0  0  0  0  0  0  0  0  0  0  0  0
    0.3187    2.9923    2.1543 C   0  0  0  0  0  0  0  0  0  0  0  0
   -0.6279    3.1658    2.6770 H   0  0  0  0  0  0  0  0  0  0  0  0
    1.1405    3.2254    2.8382 H   0  0  0  0  0  0  0  0  0  0  0  0
    0.3787    3.6746    1.2997 H   0  0  0  0  0  0  0  0  0  0  0  0
  1  2  1  0  0  0  0
  2  3  1  0  0  0  0
  2  4  1  0  0  0  0
  2  5  1  0  0  0  0
  5  6  2  0  0  0  0
  5  7  1  0  0  0  0
  7  8  1  0  0  0  0
  7  9  1  0  0  0  0
  9 10  1  0  0  0  0
  9 11  1  0  0  0  0
  9 21  1  0  0  0  0
 11 12  1  0  0  0  0
 11 13  1  0  0  0  0
 11 14  1  0  0  0  0
 14 15  1  0  0  0  0
 14 16  1  0  0  0  0
 14 17  1  0  0  0  0
 17 18  2  0  0  0  0
 17 19  1  0  0  0  0
 19 20  1  0  0  0  0
 21 22  2  0  0  0  0
 21 23  1  0  0  0  0
 23 24  1  0  0  0  0
 23 25  1  0  0  0  0
 25 26  1  0  0  0  0
 25 27  1  0  0  0  0
 25 28  1  0  0  0  0
M  END
$$$$

  -OEChem-02102214123D

 28 27  0     1  0  0  0  0  0999 V2000
   -3.6530   -3.6493    1.3156 H   0  0  0  0  0  0  0  0  0  0  0  0
   -3.5521   -2.6814    0.8170 C   0  0  0  0  0  0  0  0  0  0  0  0
   -4.2777   -1.9851    1.2436 H   0  0  0  0  0  0  0  0  0  0  0  0
   -3.7655   -2.8124   -0.2469 H   0  0  0  0  0  0  0  0  0  0  0  0
   -2.1456   -2.1442    1.0009 C   0  0  0  0  0  0  0  0  0  0  0  0
   -1.3572   -2.7128    1.7435 O   0  0  0  0  0  0  0  0  0  0  0  0
   -1.7555   -0.9795    0.3685 N   0  0  0  0  0  0  0  0  0  0  0  0
   -2.4448   -0.5095   -0.2175 H   0  0  0  0  0  0  0  0  0  0  0  0
   -0.4001   -0.4116    0.4190 C   0  0  1  0  0  0  0  0  0  0  0  0
    0.1441   -0.8593    1.2566 H   0  0  0  0  0  0  0  0  0  0  0  0
    0.4661   -0.5912   -0.8677 C   0  0  0  0  0  0  0  0  0  0  0  0
    0.2918    0.2924   -1.4938 H   0  0  0  0  0  0  0  0  0  0  0  0
    1.5137   -0.5365   -0.5535 H   0  0  0  0  0  0  0  0  0  0  0  0
    0.3338   -1.7941   -1.8486 C   0  0  0  0  0  0  0  0  0  0  0  0
    0.1224   -1.3868   -2.8430 H   0  0  0  0  0  0  0  0  0  0  0  0
    1.3127   -2.2759   -1.9201 H   0  0  0  0  0  0  0  0  0  0  0  0
   -0.6848   -2.9022   -1.6013 C   0  0  0  0  0  0  0  0  0  0  0  0
   -1.7479   -2.8245   -2.1977 O   0  0  0  0  0  0  0  0  0  0  0  0
   -0.3323   -3.9384   -0.7955 O   0  0  0  0  0  0  0  0  0  0  0  0
    0.4737   -3.7097   -0.3137 H   0  0  0  0  0  0  0  0  0  0  0  0
   -0.4989    1.1083    0.6835 C   0  0  0  0  0  0  0  0  0  0  0  0
   -1.3016    1.7928    0.0602 O   0  0  0  0  0  0  0  0  0  0  0  0
    0.3264    1.7123    1.6143 N   0  0  0  0  0  0  0  0  0  0  0  0
    0.9090    1.1078    2.1862 H   0  0  0  0  0  0  0  0  0  0  0  0
    0.2376    3.1277    1.9542 C   0  0  0  0  0  0  0  0  0  0  0  0
   -0.7436    3.3581    2.3825 H   0  0  0  0  0  0  0  0  0  0  0  0
    1.0062    3.3899    2.6876 H   0  0  0  0  0  0  0  0  0  0  0  0
    0.3867    3.7469    1.0631 H   0  0  0  0  0  0  0  0  0  0  0  0
  1  2  1  0  0  0  0
  2  3  1  0  0  0  0
  2  4  1  0  0  0  0
  2  5  1  0  0  0  0
  5  6  2  0  0  0  0
  5  7  1  0  0  0  0
  7  8  1  0  0  0  0
  7  9  1  0  0  0  0
  9 10  1  0  0  0  0
  9 11  1  0  0  0  0
  9 21  1  0  0  0  0
 11 12  1  0  0  0  0
 11 13  1  0  0  0  0
 11 14  1  0  0  0  0
 14 15  1  0  0  0  0
 14 16  1  0  0  0  0
 14 17  1  0  0  0  0
 17 18  2  0  0  0  0
 17 19  1  0  0  0  0
 19 20  1  0  0  0  0
 21 22  2  0  0  0  0
 21 23  1  0  0  0  0
 23 24  1  0  0  0  0
 23 25  1  0  0  0  0
 25 26  1  0  0  0  0
 25 27  1  0  0  0  0
 25 28  1  0  0  0  0
M  END
$$$$

  -OEChem-02102214123D

 28 27  0     1  0  0  0  0  0999 V2000
   -3.3770   -3.7219    1.6006 H   0  0  0  0  0  0  0  0  0  0  0  0
   -3.3536   -2.7271    1.1474 C   0  0  0  0  0  0  0  0  0  0  0  0
   -3.9657   -2.0507    1.7488 H   0  0  0  0  0  0  0  0  0  0  0  0
   -3.7745   -2.7876    0.1409 H   0  0  0  0  0  0  0  0  0  0  0  0
   -1.9276   -2.2136    1.0851 C   0  0  0  0  0  0  0  0  0  0  0  0
   -1.0202   -2.8731    1.5664 O   0  0  0  0  0  0  0  0  0  0  0  0
   -1.6662   -0.9877    0.5091 N   0  0  0  0  0  0  0  0  0  0  0  0
   -2.4587   -0.4777    0.1206 H   0  0  0  0  0  0  0  0  0  0  0  0
   -0.3411   -0.3683    0.3710 C   0  0  1  0  0  0  0  0  0  0  0  0
    0.3392   -0.8657    1.0698 H   0  0  0  0  0  0  0  0  0  0  0  0
    0.3234   -0.4329   -1.0406 C   0  0  0  0  0  0  0  0  0  0  0  0
   -0.0120    0.4670   -1.5695 H   0  0  0  0  0  0  0  0  0  0  0  0
    1.4039   -0.3225   -0.9018 H   0  0  0  0  0  0  0  0  0  0  0  0
    0.0920   -1.5809   -2.0674 C   0  0  0  0  0  0  0  0  0  0  0  0
    0.0080   -1.1401   -3.0649 H   0  0  0  0  0  0  0  0  0  0  0  0
    1.0005   -2.1901   -2.0722 H   0  0  0  0  0  0  0  0  0  0  0  0
   -1.0662   -2.5572   -1.9025 C   0  0  0  0  0  0  0  0  0  0  0  0
   -2.1999   -2.1739   -2.1465 O   0  0  0  0  0  0  0  0  0  0  0  0
   -0.7637   -3.8311   -1.5589 O   0  0  0  0  0  0  0  0  0  0  0  0
   -1.6035   -4.3088   -1.5025 H   0  0  0  0  0  0  0  0  0  0  0  0
   -0.4206    1.1183    0.7833 C   0  0  0  0  0  0  0  0  0  0  0  0
   -1.3490    1.8185    0.3964 O   0  0  0  0  0  0  0  0  0  0  0  0
    0.5477    1.6704    1.6017 N   0  0  0  0  0  0  0  0  0  0  0  0
    1.2581    1.0472    1.9747 H   0  0  0  0  0  0  0  0  0  0  0  0
    0.5006    3.0488    2.0748 C   0  0  0  0  0  0  0  0  0  0  0  0
   -0.3993    3.2172    2.6759 H   0  0  0  0  0  0  0  0  0  0  0  0
    1.3762    3.2668    2.6938 H   0  0  0  0  0  0  0  0  0  0  0  0
    0.4945    3.7448    1.2292 H   0  0  0  0  0  0  0  0  0  0  0  0
  1  2  1  0  0  0  0
  2  3  1  0  0  0  0
  2  4  1  0  0  0  0
  2  5  1  0  0  0  0
  5  6  2  0  0  0  0
  5  7  1  0  0  0  0
  7  8  1  0  0  0  0
  7  9  1  0  0  0  0
  9 10  1  0  0  0  0
  9 11  1  0  0  0  0
  9 21  1  0  0  0  0
 11 12  1  0  0  0  0
 11 13  1  0  0  0  0
 11 14  1  0  0  0  0
 14 15  1  0  0  0  0
 14 16  1  0  0  0  0
 14 17  1  0  0  0  0
 17 18  2  0  0  0  0
 17 19  1  0  0  0  0
 19 20  1  0  0  0  0
 21 22  2  0  0  0  0
 21 23  1  0  0  0  0
 23 24  1  0  0  0  0
 23 25  1  0  0  0  0
 25 26  1  0  0  0  0
 25 27  1  0  0  0  0
 25 28  1  0  0  0  0
M  END
$$$$

  -OEChem-02102214123D

 28 27  0     1  0  0  0  0  0999 V2000
   -3.2869   -3.7287    1.6446 H   0  0  0  0  0  0  0  0  0  0  0  0
   -3.2925   -2.7019    1.2685 C   0  0  0  0  0  0  0  0  0  0  0  0
   -3.8555   -2.0738    1.9631 H   0  0  0  0  0  0  0  0  0  0  0  0
   -3.7864   -2.6860    0.2939 H   0  0  0  0  0  0  0  0  0  0  0  0
   -1.8728   -2.1831    1.1409 C   0  0  0  0  0  0  0  0  0  0  0  0
   -0.9401   -2.8380    1.5785 O   0  0  0  0  0  0  0  0  0  0  0  0
   -1.6432   -0.9635    0.5390 N   0  0  0  0  0  0  0  0  0  0  0  0
   -2.4511   -0.4640    0.1676 H   0  0  0  0  0  0  0  0  0  0  0  0
   -0.3249   -0.3533    0.3261 C   0  0  1  0  0  0  0  0  0  0  0  0
    0.3858   -0.8441    0.9987 H   0  0  0  0  0  0  0  0  0  0  0  0
    0.2647   -0.4615   -1.1136 C   0  0  0  0  0  0  0  0  0  0  0  0
   -0.0995    0.4210   -1.6529 H   0  0  0  0  0  0  0  0  0  0  0  0
    1.3521   -0.3564   -1.0422 H   0  0  0  0  0  0  0  0  0  0  0  0
   -0.0437   -1.6473   -2.0719 C   0  0  0  0  0  0  0  0  0  0  0  0
    0.0877   -1.3066   -3.1026 H   0  0  0  0  0  0  0  0  0  0  0  0
    0.7235   -2.4053   -1.8890 H   0  0  0  0  0  0  0  0  0  0  0  0
   -1.3814   -2.3769   -1.9922 C   0  0  0  0  0  0  0  0  0  0  0  0
   -2.4089   -1.7432   -2.1754 O   0  0  0  0  0  0  0  0  0  0  0  0
   -1.3567   -3.7148   -1.7879 O   0  0  0  0  0  0  0  0  0  0  0  0
   -2.2782   -4.0105   -1.8080 H   0  0  0  0  0  0  0  0  0  0  0  0
   -0.3641    1.1388    0.7226 C   0  0  0  0  0  0  0  0  0  0  0  0
   -1.3000    1.8475    0.3720 O   0  0  0  0  0  0  0  0  0  0  0  0
    0.6529    1.6894    1.4809 N   0  0  0  0  0  0  0  0  0  0  0  0
    1.3760    1.0631    1.8229 H   0  0  0  0  0  0  0  0  0  0  0  0
    0.6535    3.0781    1.9259 C   0  0  0  0  0  0  0  0  0  0  0  0
   -0.2232    3.2815    2.5500 H   0  0  0  0  0  0  0  0  0  0  0  0
    1.5524    3.2874    2.5136 H   0  0  0  0  0  0  0  0  0  0  0  0
    0.6382    3.7558    1.0657 H   0  0  0  0  0  0  0  0  0  0  0  0
  1  2  1  0  0  0  0
  2  3  1  0  0  0  0
  2  4  1  0  0  0  0
  2  5  1  0  0  0  0
  5  6  2  0  0  0  0
  5  7  1  0  0  0  0
  7  8  1  0  0  0  0
  7  9  1  0  0  0  0
  9 10  1  0  0  0  0
  9 11  1  0  0  0  0
  9 21  1  0  0  0  0
 11 12  1  0  0  0  0
 11 13  1  0  0  0  0
 11 14  1  0  0  0  0
 14 15  1  0  0  0  0
 14 16  1  0  0  0  0
 14 17  1  0  0  0  0
 17 18  2  0  0  0  0
 17 19  1  0  0  0  0
 19 20  1  0  0  0  0
 21 22  2  0  0  0  0
 21 23  1  0  0  0  0
 23 24  1  0  0  0  0
 23 25  1  0  0  0  0
 25 26  1  0  0  0  0
 25 27  1  0  0  0  0
 25 28  1  0  0  0  0
M  END
$$$$

  -OEChem-02102214123D

 28 27  0     1  0  0  0  0  0999 V2000
   -3.2981   -3.7654    1.4793 H   0  0  0  0  0  0  0  0  0  0  0  0
   -3.2928   -2.7642    1.0394 C   0  0  0  0  0  0  0  0  0  0  0  0
   -3.9306   -2.1110    1.6400 H   0  0  0  0  0  0  0  0  0  0  0  0
   -3.6957   -2.8217    0.0256 H   0  0  0  0  0  0  0  0  0  0  0  0
   -1.8796   -2.2148    1.0058 C   0  0  0  0  0  0  0  0  0  0  0  0
   -0.9586   -2.8630    1.4771 O   0  0  0  0  0  0  0  0  0  0  0  0
   -1.6415   -0.9780    0.4438 N   0  0  0  0  0  0  0  0  0  0  0  0
   -2.4358   -0.4816    0.0398 H   0  0  0  0  0  0  0  0  0  0  0  0
   -0.3259   -0.3367    0.3287 C   0  0  1  0  0  0  0  0  0  0  0  0
    0.3492   -0.8257    1.0382 H   0  0  0  0  0  0  0  0  0  0  0  0
    0.3488   -0.4295   -1.0714 C   0  0  0  0  0  0  0  0  0  0  0  0
    0.0181    0.4485   -1.6388 H   0  0  0  0  0  0  0  0  0  0  0  0
    1.4304   -0.3286   -0.9356 H   0  0  0  0  0  0  0  0  0  0  0  0
    0.0867   -1.6389   -2.0094 C   0  0  0  0  0  0  0  0  0  0  0  0
    0.4946   -1.4118   -2.9979 H   0  0  0  0  0  0  0  0  0  0  0  0
    0.6572   -2.4832   -1.6110 H   0  0  0  0  0  0  0  0  0  0  0  0
   -1.3463   -2.1328   -2.2001 C   0  0  0  0  0  0  0  0  0  0  0  0
   -2.2302   -1.3180   -2.4124 O   0  0  0  0  0  0  0  0  0  0  0  0
   -1.5564   -3.4697   -2.1796 O   0  0  0  0  0  0  0  0  0  0  0  0
   -2.4962   -3.5976   -2.3742 H   0  0  0  0  0  0  0  0  0  0  0  0
   -0.4104    1.1466    0.7477 C   0  0  0  0  0  0  0  0  0  0  0  0
   -1.3377    1.8471    0.3604 O   0  0  0  0  0  0  0  0  0  0  0  0
    0.5496    1.6961    1.5777 N   0  0  0  0  0  0  0  0  0  0  0  0
    1.2629    1.0745    1.9476 H   0  0  0  0  0  0  0  0  0  0  0  0
    0.4982    3.0737    2.0529 C   0  0  0  0  0  0  0  0  0  0  0  0
   -0.4166    3.2462    2.6296 H   0  0  0  0  0  0  0  0  0  0  0  0
    1.3578    3.2855    2.6960 H   0  0  0  0  0  0  0  0  0  0  0  0
    0.5188    3.7710    1.2088 H   0  0  0  0  0  0  0  0  0  0  0  0
  1  2  1  0  0  0  0
  2  3  1  0  0  0  0
  2  4  1  0  0  0  0
  2  5  1  0  0  0  0
  5  6  2  0  0  0  0
  5  7  1  0  0  0  0
  7  8  1  0  0  0  0
  7  9  1  0  0  0  0
  9 10  1  0  0  0  0
  9 11  1  0  0  0  0
  9 21  1  0  0  0  0
 11 12  1  0  0  0  0
 11 13  1  0  0  0  0
 11 14  1  0  0  0  0
 14 15  1  0  0  0  0
 14 16  1  0  0  0  0
 14 17  1  0  0  0  0
 17 18  2  0  0  0  0
 17 19  1  0  0  0  0
 19 20  1  0  0  0  0
 21 22  2  0  0  0  0
 21 23  1  0  0  0  0
 23 24  1  0  0  0  0
 23 25  1  0  0  0  0
 25 26  1  0  0  0  0
 25 27  1  0  0  0  0
 25 28  1  0  0  0  0
M  END
$$$$

  -OEChem-02102214123D

 28 27  0     1  0  0  0  0  0999 V2000
   -3.2645   -3.7791    1.4059 H   0  0  0  0  0  0  0  0  0  0  0  0
   -3.2554   -2.7929    0.9337 C   0  0  0  0  0  0  0  0  0  0  0  0
   -3.9207   -2.1287    1.4905 H   0  0  0  0  0  0  0  0  0  0  0  0
   -3.6219   -2.8889   -0.0908 H   0  0  0  0  0  0  0  0  0  0  0  0
   -1.8476   -2.2291    0.9285 C   0  0  0  0  0  0  0  0  0  0  0  0
   -0.9258   -2.8769    1.3992 O   0  0  0  0  0  0  0  0  0  0  0  0
   -1.6115   -0.9859    0.3804 N   0  0  0  0  0  0  0  0  0  0  0  0
   -2.4068   -0.4793   -0.0089 H   0  0  0  0  0  0  0  0  0  0  0  0
   -0.3014   -0.3261    0.3035 C   0  0  1  0  0  0  0  0  0  0  0  0
    0.3636   -0.8113    1.0253 H   0  0  0  0  0  0  0  0  0  0  0  0
    0.3864   -0.4269   -1.0856 C   0  0  0  0  0  0  0  0  0  0  0  0
    0.0848    0.4464   -1.6760 H   0  0  0  0  0  0  0  0  0  0  0  0
    1.4681   -0.3512   -0.9357 H   0  0  0  0  0  0  0  0  0  0  0  0
    0.0986   -1.6730   -1.9613 C   0  0  0  0  0  0  0  0  0  0  0  0
    0.6927   -1.6046   -2.8762 H   0  0  0  0  0  0  0  0  0  0  0  0
    0.4423   -2.5554   -1.4135 H   0  0  0  0  0  0  0  0  0  0  0  0
   -1.3542   -1.9214   -2.3720 C   0  0  0  0  0  0  0  0  0  0  0  0
   -2.0902   -0.9706   -2.5812 O   0  0  0  0  0  0  0  0  0  0  0  0
   -1.7463   -3.2085   -2.5159 O   0  0  0  0  0  0  0  0  0  0  0  0
   -2.6631   -3.1740   -2.8269 H   0  0  0  0  0  0  0  0  0  0  0  0
   -0.4065    1.1544    0.7261 C   0  0  0  0  0  0  0  0  0  0  0  0
   -1.3388    1.8444    0.3324 O   0  0  0  0  0  0  0  0  0  0  0  0
    0.5286    1.7079    1.5814 N   0  0  0  0  0  0  0  0  0  0  0  0
    1.2463    1.0939    1.9554 H   0  0  0  0  0  0  0  0  0  0  0  0
    0.4505    3.0808    2.0667 C   0  0  0  0  0  0  0  0  0  0  0  0
   -0.4786    3.2374    2.6250 H   0  0  0  0  0  0  0  0  0  0  0  0
    1.2935    3.2973    2.7299 H   0  0  0  0  0  0  0  0  0  0  0  0
    0.4808    3.7858    1.2291 H   0  0  0  0  0  0  0  0  0  0  0  0
  1  2  1  0  0  0  0
  2  3  1  0  0  0  0
  2  4  1  0  0  0  0
  2  5  1  0  0  0  0
  5  6  2  0  0  0  0
  5  7  1  0  0  0  0
  7  8  1  0  0  0  0
  7  9  1  0  0  0  0
  9 10  1  0  0  0  0
  9 11  1  0  0  0  0
  9 21  1  0  0  0  0
 11 12  1  0  0  0  0
 11 13  1  0  0  0  0
 11 14  1  0  0  0  0
 14 15  1  0  0  0  0
 14 16  1  0  0  0  0
 14 17  1  0  0  0  0
 17 18  2  0  0  0  0
 17 19  1  0  0  0  0
 19 20  1  0  0  0  0
 21 22  2  0  0  0  0
 21 23  1  0  0  0  0
 23 24  1  0  0  0  0
 23 25  1  0  0  0  0
 25 26  1  0  0  0  0
 25 27  1  0  0  0  0
 25 28  1  0  0  0  0
M  END
$$$$

  -OEChem-02102214123D

 28 27  0     1  0  0  0  0  0999 V2000
   -3.2501   -3.7897    1.3381 H   0  0  0  0  0  0  0  0  0  0  0  0
   -3.2308   -2.8103    0.8523 C   0  0  0  0  0  0  0  0  0  0  0  0
   -3.9273   -2.1460    1.3697 H   0  0  0  0  0  0  0  0  0  0  0  0
   -3.5500   -2.9245   -0.1863 H   0  0  0  0  0  0  0  0  0  0  0  0
   -1.8306   -2.2304    0.9004 C   0  0  0  0  0  0  0  0  0  0  0  0
   -0.9179   -2.8697    1.3994 O   0  0  0  0  0  0  0  0  0  0  0  0
   -1.5880   -0.9878    0.3552 N   0  0  0  0  0  0  0  0  0  0  0  0
   -2.3744   -0.4943   -0.0677 H   0  0  0  0  0  0  0  0  0  0  0  0
   -0.2818   -0.3152    0.3024 C   0  0  1  0  0  0  0  0  0  0  0  0
    0.3785   -0.7955    1.0316 H   0  0  0  0  0  0  0  0  0  0  0  0
    0.4008   -0.4306   -1.0851 C   0  0  0  0  0  0  0  0  0  0  0  0
    0.1268    0.4392   -1.6938 H   0  0  0  0  0  0  0  0  0  0  0  0
    1.4832   -0.3803   -0.9313 H   0  0  0  0  0  0  0  0  0  0  0  0
    0.0788   -1.7076   -1.9002 C   0  0  0  0  0  0  0  0  0  0  0  0
    0.8152   -1.7968   -2.7031 H   0  0  0  0  0  0  0  0  0  0  0  0
    0.1976   -2.5822   -1.2541 H   0  0  0  0  0  0  0  0  0  0  0  0
   -1.3036   -1.7695   -2.5568 C   0  0  0  0  0  0  0  0  0  0  0  0
   -1.9997   -0.7699   -2.6274 O   0  0  0  0  0  0  0  0  0  0  0  0
   -1.6849   -2.9717   -3.0452 O   0  0  0  0  0  0  0  0  0  0  0  0
   -2.5552   -2.8310   -3.4474 H   0  0  0  0  0  0  0  0  0  0  0  0
   -0.3960    1.1668    0.7159 C   0  0  0  0  0  0  0  0  0  0  0  0
   -1.3218    1.8542    0.3031 O   0  0  0  0  0  0  0  0  0  0  0  0
    0.5234    1.7253    1.5851 N   0  0  0  0  0  0  0  0  0  0  0  0
    1.2372    1.1148    1.9721 H   0  0  0  0  0  0  0  0  0  0  0  0
    0.4398    3.1027    2.0565 C   0  0  0  0  0  0  0  0  0  0  0  0
   -0.4904    3.2620    2.6121 H   0  0  0  0  0  0  0  0  0  0  0  0
    1.2815    3.3293    2.7179 H   0  0  0  0  0  0  0  0  0  0  0  0
    0.4681    3.7988    1.2115 H   0  0  0  0  0  0  0  0  0  0  0  0
  1  2  1  0  0  0  0
  2  3  1  0  0  0  0
  2  4  1  0  0  0  0
  2  5  1  0  0  0  0
  5  6  2  0  0  0  0
  5  7  1  0  0  0  0
  7  8  1  0  0  0  0
  7  9  1  0  0  0  0
  9 10  1  0  0  0  0
  9 11  1  0  0  0  0
  9 21  1  0  0  0  0
 11 12  1  0  0  0  0
 11 13  1  0  0  0  0
 11 14  1  0  0  0  0
 14 15  1  0  0  0  0
 14 16  1  0  0  0  0
 14 17  1  0  0  0  0
 17 18  2  0  0  0  0
 17 19  1  0  0  0  0
 19 20  1  0  0  0  0
 21 22  2  0  0  0  0
 21 23  1  0  0  0  0
 23 24  1  0  0  0  0
 23 25  1  0  0  0  0
 25 26  1  0  0  0  0
 25 27  1  0  0  0  0
 25 28  1  0  0  0  0
M  END
$$$$

  -OEChem-02102214123D

 28 27  0     1  0  0  0  0  0999 V2000
   -3.2411   -3.8175    1.3429 H   0  0  0  0  0  0  0  0  0  0  0  0
   -3.2263   -2.8318    0.8700 C   0  0  0  0  0  0  0  0  0  0  0  0
   -3.9643   -2.1930    1.3612 H   0  0  0  0  0  0  0  0  0  0  0  0
   -3.4941   -2.9413   -0.1839 H   0  0  0  0  0  0  0  0  0  0  0  0
   -1.8471   -2.2133    0.9903 C   0  0  0  0  0  0  0  0  0  0  0  0
   -0.9555   -2.8088    1.5751 O   0  0  0  0  0  0  0  0  0  0  0  0
   -1.5979   -0.9905    0.4064 N   0  0  0  0  0  0  0  0  0  0  0  0
   -2.3490   -0.5825   -0.1518 H   0  0  0  0  0  0  0  0  0  0  0  0
   -0.2891   -0.3255    0.3328 C   0  0  1  0  0  0  0  0  0  0  0  0
    0.3759   -0.7898    1.0682 H   0  0  0  0  0  0  0  0  0  0  0  0
    0.3714   -0.4826   -1.0615 C   0  0  0  0  0  0  0  0  0  0  0  0
    0.0998    0.3736   -1.6905 H   0  0  0  0  0  0  0  0  0  0  0  0
    1.4560   -0.4393   -0.9198 H   0  0  0  0  0  0  0  0  0  0  0  0
    0.0275   -1.7776   -1.8378 C   0  0  0  0  0  0  0  0  0  0  0  0
    0.8799   -2.0117   -2.4815 H   0  0  0  0  0  0  0  0  0  0  0  0
   -0.0858   -2.6202   -1.1510 H   0  0  0  0  0  0  0  0  0  0  0  0
   -1.2004   -1.6896   -2.7490 C   0  0  0  0  0  0  0  0  0  0  0  0
   -2.1607   -1.0098   -2.4240 O   0  0  0  0  0  0  0  0  0  0  0  0
   -1.1533   -2.4033   -3.8973 O   0  0  0  0  0  0  0  0  0  0  0  0
   -1.9930   -2.2335   -4.3507 H   0  0  0  0  0  0  0  0  0  0  0  0
   -0.3888    1.1702    0.6979 C   0  0  0  0  0  0  0  0  0  0  0  0
   -1.2825    1.8663    0.2322 O   0  0  0  0  0  0  0  0  0  0  0  0
    0.5389    1.7431    1.5485 N   0  0  0  0  0  0  0  0  0  0  0  0
    1.2212    1.1273    1.9810 H   0  0  0  0  0  0  0  0  0  0  0  0
    0.4685    3.1332    1.9828 C   0  0  0  0  0  0  0  0  0  0  0  0
   -0.4555    3.3131    2.5425 H   0  0  0  0  0  0  0  0  0  0  0  0
    1.3178    3.3714    2.6304 H   0  0  0  0  0  0  0  0  0  0  0  0
    0.4942    3.8067    1.1195 H   0  0  0  0  0  0  0  0  0  0  0  0
  1  2  1  0  0  0  0
  2  3  1  0  0  0  0
  2  4  1  0  0  0  0
  2  5  1  0  0  0  0
  5  6  2  0  0  0  0
  5  7  1  0  0  0  0
  7  8  1  0  0  0  0
  7  9  1  0  0  0  0
  9 10  1  0  0  0  0
  9 11  1  0  0  0  0
  9 21  1  0  0  0  0
 11 12  1  0  0  0  0
 11 13  1  0  0  0  0
 11 14  1  0  0  0  0
 14 15  1  0  0  0  0
 14 16  1  0  0  0  0
 14 17  1  0  0  0  0
 17 18  2  0  0  0  0
 17 19  1  0  0  0  0
 19 20  1  0  0  0  0
 21 22  2  0  0  0  0
 21 23  1  0  0  0  0
 23 24  1  0  0  0  0
 23 25  1  0  0  0  0
 25 26  1  0  0  0  0
 25 27  1  0  0  0  0
 25 28  1  0  0  0  0
M  END
$$$$

  -OEChem-02102214123D

 28 27  0     1  0  0  0  0  0999 V2000
   -3.3168   -3.7832    1.4678 H   0  0  0  0  0  0  0  0  0  0  0  0
   -3.2820   -2.8174    0.9564 C   0  0  0  0  0  0  0  0  0  0  0  0
   -3.9972   -2.1406    1.4296 H   0  0  0  0  0  0  0  0  0  0  0  0
   -3.5648   -2.9621   -0.0895 H   0  0  0  0  0  0  0  0  0  0  0  0
   -1.8851   -2.2327    1.0360 C   0  0  0  0  0  0  0  0  0  0  0  0
   -1.0036   -2.8248    1.6396 O   0  0  0  0  0  0  0  0  0  0  0  0
   -1.6087   -1.0383    0.4047 N   0  0  0  0  0  0  0  0  0  0  0  0
   -2.3744   -0.5912   -0.0978 H   0  0  0  0  0  0  0  0  0  0  0  0
   -0.2867   -0.3937    0.3259 C   0  0  1  0  0  0  0  0  0  0  0  0
    0.3662   -0.8384    1.0839 H   0  0  0  0  0  0  0  0  0  0  0  0
    0.3799   -0.5993   -1.0583 C   0  0  0  0  0  0  0  0  0  0  0  0
    0.1293    0.2466   -1.7097 H   0  0  0  0  0  0  0  0  0  0  0  0
    1.4648   -0.5702   -0.9131 H   0  0  0  0  0  0  0  0  0  0  0  0
    0.0160   -1.9111   -1.7932 C   0  0  0  0  0  0  0  0  0  0  0  0
    0.9285   -2.3215   -2.2343 H   0  0  0  0  0  0  0  0  0  0  0  0
   -0.3650   -2.6791   -1.1179 H   0  0  0  0  0  0  0  0  0  0  0  0
   -0.9596   -1.6635   -2.9366 C   0  0  0  0  0  0  0  0  0  0  0  0
   -2.1499   -1.8301   -2.7250 O   0  0  0  0  0  0  0  0  0  0  0  0
   -0.4577   -1.2512   -4.1240 O   0  0  0  0  0  0  0  0  0  0  0  0
   -1.2219   -1.1320   -4.7081 H   0  0  0  0  0  0  0  0  0  0  0  0
   -0.3816    1.1161    0.6274 C   0  0  0  0  0  0  0  0  0  0  0  0
   -1.2649    1.7905    0.1116 O   0  0  0  0  0  0  0  0  0  0  0  0
    0.5312    1.7236    1.4698 N   0  0  0  0  0  0  0  0  0  0  0  0
    1.2083    1.1280    1.9378 H   0  0  0  0  0  0  0  0  0  0  0  0
    0.4739    3.1379    1.8199 C   0  0  0  0  0  0  0  0  0  0  0  0
   -0.4521    3.3614    2.3600 H   0  0  0  0  0  0  0  0  0  0  0  0
    1.3214    3.4047    2.4587 H   0  0  0  0  0  0  0  0  0  0  0  0
    0.5140    3.7584    0.9182 H   0  0  0  0  0  0  0  0  0  0  0  0
  1  2  1  0  0  0  0
  2  3  1  0  0  0  0
  2  4  1  0  0  0  0
  2  5  1  0  0  0  0
  5  6  2  0  0  0  0
  5  7  1  0  0  0  0
  7  8  1  0  0  0  0
  7  9  1  0  0  0  0
  9 10  1  0  0  0  0
  9 11  1  0  0  0  0
  9 21  1  0  0  0  0
 11 12  1  0  0  0  0
 11 13  1  0  0  0  0
 11 14  1  0  0  0  0
 14 15  1  0  0  0  0
 14 16  1  0  0  0  0
 14 17  1  0  0  0  0
 17 18  2  0  0  0  0
 17 19  1  0  0  0  0
 19 20  1  0  0  0  0
 21 22  2  0  0  0  0
 21 23  1  0  0  0  0
 23 24  1  0  0  0  0
 23 25  1  0  0  0  0
 25 26  1  0  0  0  0
 25 27  1  0  0  0  0
 25 28  1  0  0  0  0
M  END
$$$$

  -OEChem-02102214123D

 28 27  0     1  0  0  0  0  0999 V2000
   -3.2870   -3.7471    1.4613 H   0  0  0  0  0  0  0  0  0  0  0  0
   -3.2653   -2.7772    0.9564 C   0  0  0  0  0  0  0  0  0  0  0  0
   -3.8993   -2.0790    1.5082 H   0  0  0  0  0  0  0  0  0  0  0  0
   -3.6616   -2.8968   -0.0548 H   0  0  0  0  0  0  0  0  0  0  0  0
   -1.8439   -2.2511    0.8961 C   0  0  0  0  0  0  0  0  0  0  0  0
   -0.9238   -2.9196    1.3403 O   0  0  0  0  0  0  0  0  0  0  0  0
   -1.5941   -1.0148    0.3367 N   0  0  0  0  0  0  0  0  0  0  0  0
   -2.3985   -0.4585    0.0498 H   0  0  0  0  0  0  0  0  0  0  0  0
   -0.2804   -0.3509    0.2836 C   0  0  1  0  0  0  0  0  0  0  0  0
    0.3736   -0.8265    1.0215 H   0  0  0  0  0  0  0  0  0  0  0  0
    0.4219   -0.4576   -1.0962 C   0  0  0  0  0  0  0  0  0  0  0  0
    0.1640    0.4374   -1.6712 H   0  0  0  0  0  0  0  0  0  0  0  0
    1.5027   -0.4061   -0.9294 H   0  0  0  0  0  0  0  0  0  0  0  0
    0.1189   -1.7297   -1.9441 C   0  0  0  0  0  0  0  0  0  0  0  0
    1.0693   -2.2416   -2.1177 H   0  0  0  0  0  0  0  0  0  0  0  0
   -0.5039   -2.4389   -1.4006 H   0  0  0  0  0  0  0  0  0  0  0  0
   -0.5173   -1.5084   -3.3206 C   0  0  0  0  0  0  0  0  0  0  0  0
   -0.7923   -0.3879   -3.7153 O   0  0  0  0  0  0  0  0  0  0  0  0
   -0.7469   -2.6233   -4.0510 O   0  0  0  0  0  0  0  0  0  0  0  0
   -1.1429   -2.3159   -4.8805 H   0  0  0  0  0  0  0  0  0  0  0  0
   -0.4099    1.1336    0.6845 C   0  0  0  0  0  0  0  0  0  0  0  0
   -1.3636    1.7933    0.2890 O   0  0  0  0  0  0  0  0  0  0  0  0
    0.4953    1.7095    1.5568 N   0  0  0  0  0  0  0  0  0  0  0  0
    1.2369    1.1209    1.9252 H   0  0  0  0  0  0  0  0  0  0  0  0
    0.3891    3.0877    2.0213 C   0  0  0  0  0  0  0  0  0  0  0  0
   -0.5548    3.2410    2.5553 H   0  0  0  0  0  0  0  0  0  0  0  0
    1.2134    3.3232    2.7014 H   0  0  0  0  0  0  0  0  0  0  0  0
    0.4308    3.7816    1.1750 H   0  0  0  0  0  0  0  0  0  0  0  0
  1  2  1  0  0  0  0
  2  3  1  0  0  0  0
  2  4  1  0  0  0  0
  2  5  1  0  0  0  0
  5  6  2  0  0  0  0
  5  7  1  0  0  0  0
  7  8  1  0  0  0  0
  7  9  1  0  0  0  0
  9 10  1  0  0  0  0
  9 11  1  0  0  0  0
  9 21  1  0  0  0  0
 11 12  1  0  0  0  0
 11 13  1  0  0  0  0
 11 14  1  0  0  0  0
 14 15  1  0  0  0  0
 14 16  1  0  0  0  0
 14 17  1  0  0  0  0
 17 18  2  0  0  0  0
 17 19  1  0  0  0  0
 19 20  1  0  0  0  0
 21 22  2  0  0  0  0
 21 23  1  0  0  0  0
 23 24  1  0  0  0  0
 23 25  1  0  0  0  0
 25 26  1  0  0  0  0
 25 27  1  0  0  0  0
 25 28  1  0  0  0  0
M  END
$$$$

  -OEChem-02102214123D

 28 27  0     1  0  0  0  0  0999 V2000
   -3.2442   -3.8159    1.4289 H   0  0  0  0  0  0  0  0  0  0  0  0
   -3.2333   -2.8334    0.9490 C   0  0  0  0  0  0  0  0  0  0  0  0
   -3.8766   -2.1567    1.5164 H   0  0  0  0  0  0  0  0  0  0  0  0
   -3.6251   -2.9330   -0.0661 H   0  0  0  0  0  0  0  0  0  0  0  0
   -1.8187   -2.2882    0.9056 C   0  0  0  0  0  0  0  0  0  0  0  0
   -0.8995   -2.9296    1.3895 O   0  0  0  0  0  0  0  0  0  0  0  0
   -1.5748   -1.0663    0.3130 N   0  0  0  0  0  0  0  0  0  0  0  0
   -2.3809   -0.5332   -0.0106 H   0  0  0  0  0  0  0  0  0  0  0  0
   -0.2694   -0.3862    0.2759 C   0  0  1  0  0  0  0  0  0  0  0  0
    0.3674   -0.8276    1.0495 H   0  0  0  0  0  0  0  0  0  0  0  0
    0.4808   -0.5325   -1.0742 C   0  0  0  0  0  0  0  0  0  0  0  0
    0.1732    0.3132   -1.7011 H   0  0  0  0  0  0  0  0  0  0  0  0
    1.5562   -0.4187   -0.9029 H   0  0  0  0  0  0  0  0  0  0  0  0
    0.2333   -1.8294   -1.8900 C   0  0  0  0  0  0  0  0  0  0  0  0
    1.0932   -2.4956   -1.7798 H   0  0  0  0  0  0  0  0  0  0  0  0
   -0.6353   -2.3822   -1.5342 H   0  0  0  0  0  0  0  0  0  0  0  0
    0.0084   -1.5443   -3.3714 C   0  0  0  0  0  0  0  0  0  0  0  0
    0.8933   -0.9830   -3.9955 O   0  0  0  0  0  0  0  0  0  0  0  0
   -1.1714   -1.9190   -3.9189 O   0  0  0  0  0  0  0  0  0  0  0  0
   -1.1270   -1.6509   -4.8493 H   0  0  0  0  0  0  0  0  0  0  0  0
   -0.4287    1.1081    0.6247 C   0  0  0  0  0  0  0  0  0  0  0  0
   -1.3692    1.7443    0.1638 O   0  0  0  0  0  0  0  0  0  0  0  0
    0.4429    1.7246    1.5031 N   0  0  0  0  0  0  0  0  0  0  0  0
    1.1721    1.1548    1.9227 H   0  0  0  0  0  0  0  0  0  0  0  0
    0.3028    3.1140    1.9228 C   0  0  0  0  0  0  0  0  0  0  0  0
   -0.6372    3.2571    2.4660 H   0  0  0  0  0  0  0  0  0  0  0  0
    1.1299    3.3964    2.5812 H   0  0  0  0  0  0  0  0  0  0  0  0
    0.3120    3.7801    1.0534 H   0  0  0  0  0  0  0  0  0  0  0  0
  1  2  1  0  0  0  0
  2  3  1  0  0  0  0
  2  4  1  0  0  0  0
  2  5  1  0  0  0  0
  5  6  2  0  0  0  0
  5  7  1  0  0  0  0
  7  8  1  0  0  0  0
  7  9  1  0  0  0  0
  9 10  1  0  0  0  0
  9 11  1  0  0  0  0
  9 21  1  0  0  0  0
 11 12  1  0  0  0  0
 11 13  1  0  0  0  0
 11 14  1  0  0  0  0
 14 15  1  0  0  0  0
 14 16  1  0  0  0  0
 14 17  1  0  0  0  0
 17 18  2  0  0  0  0
 17 19  1  0  0  0  0
 19 20  1  0  0  0  0
 21 22  2  0  0  0  0
 21 23  1  0  0  0  0
 23 24  1  0  0  0  0
 23 25  1  0  0  0  0
 25 26  1  0  0  0  0
 25 27  1  0  0  0  0
 25 28  1  0  0  0  0
M  END
$$$$

  -OEChem-02102214123D

 28 27  0     1  0  0  0  0  0999 V2000
   -3.2617   -3.7731    1.4540 H   0  0  0  0  0  0  0  0  0  0  0  0
   -3.2477   -2.7941    0.9669 C   0  0  0  0  0  0  0  0  0  0  0  0
   -3.8689   -2.1046    1.5435 H   0  0  0  0  0  0  0  0  0  0  0  0
   -3.6635   -2.8947   -0.0385 H   0  0  0  0  0  0  0  0  0  0  0  0
   -1.8269   -2.2692    0.8885 C   0  0  0  0  0  0  0  0  0  0  0  0
   -0.9041   -2.9299    1.3383 O   0  0  0  0  0  0  0  0  0  0  0  0
   -1.5819   -1.0439    0.3037 N   0  0  0  0  0  0  0  0  0  0  0  0
   -2.3896   -0.4891    0.0234 H   0  0  0  0  0  0  0  0  0  0  0  0
   -0.2722   -0.3731    0.2640 C   0  0  1  0  0  0  0  0  0  0  0  0
    0.3630   -0.8228    1.0342 H   0  0  0  0  0  0  0  0  0  0  0  0
    0.4747   -0.5269   -1.0859 C   0  0  0  0  0  0  0  0  0  0  0  0
    0.1595    0.3127   -1.7170 H   0  0  0  0  0  0  0  0  0  0  0  0
    1.5521   -0.4155   -0.9246 H   0  0  0  0  0  0  0  0  0  0  0  0
    0.2074   -1.8269   -1.8883 C   0  0  0  0  0  0  0  0  0  0  0  0
    0.8919   -2.6129   -1.5586 H   0  0  0  0  0  0  0  0  0  0  0  0
   -0.8069   -2.1914   -1.7223 H   0  0  0  0  0  0  0  0  0  0  0  0
    0.3409   -1.6261   -3.3962 C   0  0  0  0  0  0  0  0  0  0  0  0
    1.2602   -0.9458   -3.8215 O   0  0  0  0  0  0  0  0  0  0  0  0
   -0.5746   -2.2251   -4.1931 O   0  0  0  0  0  0  0  0  0  0  0  0
   -0.3270   -1.9928   -5.1008 H   0  0  0  0  0  0  0  0  0  0  0  0
   -0.4184    1.1193    0.6256 C   0  0  0  0  0  0  0  0  0  0  0  0
   -1.3689    1.7595    0.1913 O   0  0  0  0  0  0  0  0  0  0  0  0
    0.4626    1.7234    1.5032 N   0  0  0  0  0  0  0  0  0  0  0  0
    1.2045    1.1513    1.8965 H   0  0  0  0  0  0  0  0  0  0  0  0
    0.3203    3.1031    1.9526 C   0  0  0  0  0  0  0  0  0  0  0  0
   -0.6266    3.2358    2.4865 H   0  0  0  0  0  0  0  0  0  0  0  0
    1.1388    3.3682    2.6288 H   0  0  0  0  0  0  0  0  0  0  0  0
    0.3426    3.7891    1.0992 H   0  0  0  0  0  0  0  0  0  0  0  0
  1  2  1  0  0  0  0
  2  3  1  0  0  0  0
  2  4  1  0  0  0  0
  2  5  1  0  0  0  0
  5  6  2  0  0  0  0
  5  7  1  0  0  0  0
  7  8  1  0  0  0  0
  7  9  1  0  0  0  0
  9 10  1  0  0  0  0
  9 11  1  0  0  0  0
  9 21  1  0  0  0  0
 11 12  1  0  0  0  0
 11 13  1  0  0  0  0
 11 14  1  0  0  0  0
 14 15  1  0  0  0  0
 14 16  1  0  0  0  0
 14 17  1  0  0  0  0
 17 18  2  0  0  0  0
 17 19  1  0  0  0  0
 19 20  1  0  0  0  0
 21 22  2  0  0  0  0
 21 23  1  0  0  0  0
 23 24  1  0  0  0  0
 23 25  1  0  0  0  0
 25 26  1  0  0  0  0
 25 27  1  0  0  0  0
 25 28  1  0  0  0  0
M  END
$$$$

  -OEChem-02102214123D

 28 27  0     1  0  0  0  0  0999 V2000
   -3.2662   -3.7613    1.4242 H   0  0  0  0  0  0  0  0  0  0  0  0
   -3.2485   -2.7811    0.9395 C   0  0  0  0  0  0  0  0  0  0  0  0
   -3.8706   -2.0919    1.5155 H   0  0  0  0  0  0  0  0  0  0  0  0
   -3.6606   -2.8782   -0.0678 H   0  0  0  0  0  0  0  0  0  0  0  0
   -1.8263   -2.2589    0.8681 C   0  0  0  0  0  0  0  0  0  0  0  0
   -0.9062   -2.9258    1.3140 O   0  0  0  0  0  0  0  0  0  0  0  0
   -1.5776   -1.0299    0.2934 N   0  0  0  0  0  0  0  0  0  0  0  0
   -2.3837   -0.4680    0.0226 H   0  0  0  0  0  0  0  0  0  0  0  0
   -0.2661   -0.3621    0.2633 C   0  0  1  0  0  0  0  0  0  0  0  0
    0.3684   -0.8196    1.0297 H   0  0  0  0  0  0  0  0  0  0  0  0
    0.4715   -0.5116   -1.0900 C   0  0  0  0  0  0  0  0  0  0  0  0
    0.1704    0.3294   -1.7257 H   0  0  0  0  0  0  0  0  0  0  0  0
    1.5508   -0.4225   -0.9262 H   0  0  0  0  0  0  0  0  0  0  0  0
    0.1743   -1.8108   -1.8770 C   0  0  0  0  0  0  0  0  0  0  0  0
    0.6503   -2.6615   -1.3816 H   0  0  0  0  0  0  0  0  0  0  0  0
   -0.9009   -1.9997   -1.9025 H   0  0  0  0  0  0  0  0  0  0  0  0
    0.6298   -1.7487   -3.3345 C   0  0  0  0  0  0  0  0  0  0  0  0
    1.5526   -1.0127   -3.6452 O   0  0  0  0  0  0  0  0  0  0  0  0
   -0.0241   -2.5361   -4.2195 O   0  0  0  0  0  0  0  0  0  0  0  0
    0.3957   -2.3735   -5.0778 H   0  0  0  0  0  0  0  0  0  0  0  0
   -0.4067    1.1279    0.6353 C   0  0  0  0  0  0  0  0  0  0  0  0
   -1.3554    1.7737    0.2052 O   0  0  0  0  0  0  0  0  0  0  0  0
    0.4741    1.7221    1.5198 N   0  0  0  0  0  0  0  0  0  0  0  0
    1.2183    1.1468    1.9037 H   0  0  0  0  0  0  0  0  0  0  0  0
    0.3417    3.1014    1.9736 C   0  0  0  0  0  0  0  0  0  0  0  0
   -0.6081    3.2422    2.5004 H   0  0  0  0  0  0  0  0  0  0  0  0
    1.1572    3.3552    2.6577 H   0  0  0  0  0  0  0  0  0  0  0  0
    0.3783    3.7902    1.1229 H   0  0  0  0  0  0  0  0  0  0  0  0
  1  2  1  0  0  0  0
  2  3  1  0  0  0  0
  2  4  1  0  0  0  0
  2  5  1  0  0  0  0
  5  6  2  0  0  0  0
  5  7  1  0  0  0  0
  7  8  1  0  0  0  0
  7  9  1  0  0  0  0
  9 10  1  0  0  0  0
  9 11  1  0  0  0  0
  9 21  1  0  0  0  0
 11 12  1  0  0  0  0
 11 13  1  0  0  0  0
 11 14  1  0  0  0  0
 14 15  1  0  0  0  0
 14 16  1  0  0  0  0
 14 17  1  0  0  0  0
 17 18  2  0  0  0  0
 17 19  1  0  0  0  0
 19 20  1  0  0  0  0
 21 22  2  0  0  0  0
 21 23  1  0  0  0  0
 23 24  1  0  0  0  0
 23 25  1  0  0  0  0
 25 26  1  0  0  0  0
 25 27  1  0  0  0  0
 25 28  1  0  0  0  0
M  END
$$$$

  -OEChem-02102214123D

 28 27  0     1  0  0  0  0  0999 V2000
   -3.2700   -3.7547    1.4170 H   0  0  0  0  0  0  0  0  0  0  0  0
   -3.2505   -2.7752    0.9309 C   0  0  0  0  0  0  0  0  0  0  0  0
   -3.8708   -2.0842    1.5067 H   0  0  0  0  0  0  0  0  0  0  0  0
   -3.6639   -2.8729   -0.0758 H   0  0  0  0  0  0  0  0  0  0  0  0
   -1.8277   -2.2555    0.8564 C   0  0  0  0  0  0  0  0  0  0  0  0
   -0.9060   -2.9291    1.2888 O   0  0  0  0  0  0  0  0  0  0  0  0
   -1.5802   -1.0203    0.2952 N   0  0  0  0  0  0  0  0  0  0  0  0
   -2.3868   -0.4543    0.0358 H   0  0  0  0  0  0  0  0  0  0  0  0
   -0.2667   -0.3550    0.2620 C   0  0  1  0  0  0  0  0  0  0  0  0
    0.3735   -0.8210    1.0182 H   0  0  0  0  0  0  0  0  0  0  0  0
    0.4549   -0.4930   -1.1033 C   0  0  0  0  0  0  0  0  0  0  0  0
    0.4045    0.4664   -1.6317 H   0  0  0  0  0  0  0  0  0  0  0  0
    1.5135   -0.7032   -0.9152 H   0  0  0  0  0  0  0  0  0  0  0  0
   -0.1207   -1.5751   -2.0456 C   0  0  0  0  0  0  0  0  0  0  0  0
   -0.0764   -2.5493   -1.5503 H   0  0  0  0  0  0  0  0  0  0  0  0
   -1.1685   -1.3519   -2.2635 H   0  0  0  0  0  0  0  0  0  0  0  0
    0.6127   -1.6864   -3.3824 C   0  0  0  0  0  0  0  0  0  0  0  0
    1.6326   -1.0442   -3.5761 O   0  0  0  0  0  0  0  0  0  0  0  0
    0.0712   -2.5161   -4.3034 O   0  0  0  0  0  0  0  0  0  0  0  0
    0.6546   -2.4696   -5.0759 H   0  0  0  0  0  0  0  0  0  0  0  0
   -0.4037    1.1307    0.6542 C   0  0  0  0  0  0  0  0  0  0  0  0
   -1.3520    1.7841    0.2344 O   0  0  0  0  0  0  0  0  0  0  0  0
    0.4841    1.7142    1.5388 N   0  0  0  0  0  0  0  0  0  0  0  0
    1.2339    1.1356    1.9068 H   0  0  0  0  0  0  0  0  0  0  0  0
    0.3653    3.0936    1.9967 C   0  0  0  0  0  0  0  0  0  0  0  0
   -0.5857    3.2435    2.5189 H   0  0  0  0  0  0  0  0  0  0  0  0
    1.1797    3.3355    2.6863 H   0  0  0  0  0  0  0  0  0  0  0  0
    0.4144    3.7846    1.1484 H   0  0  0  0  0  0  0  0  0  0  0  0
  1  2  1  0  0  0  0
  2  3  1  0  0  0  0
  2  4  1  0  0  0  0
  2  5  1  0  0  0  0
  5  6  2  0  0  0  0
  5  7  1  0  0  0  0
  7  8  1  0  0  0  0
  7  9  1  0  0  0  0
  9 10  1  0  0  0  0
  9 11  1  0  0  0  0
  9 21  1  0  0  0  0
 11 12  1  0  0  0  0
 11 13  1  0  0  0  0
 11 14  1  0  0  0  0
 14 15  1  0  0  0  0
 14 16  1  0  0  0  0
 14 17  1  0  0  0  0
 17 18  2  0  0  0  0
 17 19  1  0  0  0  0
 19 20  1  0  0  0  0
 21 22  2  0  0  0  0
 21 23  1  0  0  0  0
 23 24  1  0  0  0  0
 23 25  1  0  0  0  0
 25 26  1  0  0  0  0
 25 27  1  0  0  0  0
 25 28  1  0  0  0  0
M  END
$$$$

  -OEChem-02102214123D

 28 27  0     1  0  0  0  0  0999 V2000
   -3.2893   -3.7503    1.4208 H   0  0  0  0  0  0  0  0  0  0  0  0
   -3.2657   -2.7830    0.9111 C   0  0  0  0  0  0  0  0  0  0  0  0
   -3.9045   -2.0830    1.4551 H   0  0  0  0  0  0  0  0  0  0  0  0
   -3.6539   -2.9088   -0.1026 H   0  0  0  0  0  0  0  0  0  0  0  0
   -1.8444   -2.2563    0.8571 C   0  0  0  0  0  0  0  0  0  0  0  0
   -0.9258   -2.9296    1.2962 O   0  0  0  0  0  0  0  0  0  0  0  0
   -1.5917   -1.0190    0.3020 N   0  0  0  0  0  0  0  0  0  0  0  0
   -2.3952   -0.4538    0.0313 H   0  0  0  0  0  0  0  0  0  0  0  0
   -0.2753   -0.3577    0.2726 C   0  0  1  0  0  0  0  0  0  0  0  0
    0.3657   -0.8315    1.0234 H   0  0  0  0  0  0  0  0  0  0  0  0
    0.4415   -0.4806   -1.0967 C   0  0  0  0  0  0  0  0  0  0  0  0
    0.4133    0.4837   -1.6174 H   0  0  0  0  0  0  0  0  0  0  0  0
    1.4942   -0.7076   -0.8957 H   0  0  0  0  0  0  0  0  0  0  0  0
   -0.1366   -1.5481   -2.0552 C   0  0  0  0  0  0  0  0  0  0  0  0
   -0.3031   -2.4770   -1.5032 H   0  0  0  0  0  0  0  0  0  0  0  0
   -1.0987   -1.2095   -2.4489 H   0  0  0  0  0  0  0  0  0  0  0  0
    0.7825   -1.8989   -3.2259 C   0  0  0  0  0  0  0  0  0  0  0  0
    1.7966   -1.2490   -3.4241 O   0  0  0  0  0  0  0  0  0  0  0  0
    0.4006   -2.9359   -4.0063 O   0  0  0  0  0  0  0  0  0  0  0  0
    1.0851   -3.0206   -4.6872 H   0  0  0  0  0  0  0  0  0  0  0  0
   -0.4047    1.1265    0.6719 C   0  0  0  0  0  0  0  0  0  0  0  0
   -1.3412    1.7915    0.2441 O   0  0  0  0  0  0  0  0  0  0  0  0
    0.4869    1.7000    1.5593 N   0  0  0  0  0  0  0  0  0  0  0  0
    1.2316    1.1142    1.9264 H   0  0  0  0  0  0  0  0  0  0  0  0
    0.4017    3.0896    1.9922 C   0  0  0  0  0  0  0  0  0  0  0  0
   -0.5543    3.2779    2.4920 H   0  0  0  0  0  0  0  0  0  0  0  0
    1.2095    3.3178    2.6942 H   0  0  0  0  0  0  0  0  0  0  0  0
    0.4894    3.7639    1.1337 H   0  0  0  0  0  0  0  0  0  0  0  0
  1  2  1  0  0  0  0
  2  3  1  0  0  0  0
  2  4  1  0  0  0  0
  2  5  1  0  0  0  0
  5  6  2  0  0  0  0
  5  7  1  0  0  0  0
  7  8  1  0  0  0  0
  7  9  1  0  0  0  0
  9 10  1  0  0  0  0
  9 11  1  0  0  0  0
  9 21  1  0  0  0  0
 11 12  1  0  0  0  0
 11 13  1  0  0  0  0
 11 14  1  0  0  0  0
 14 15  1  0  0  0  0
 14 16  1  0  0  0  0
 14 17  1  0  0  0  0
 17 18  2  0  0  0  0
 17 19  1  0  0  0  0
 19 20  1  0  0  0  0
 21 22  2  0  0  0  0
 21 23  1  0  0  0  0
 23 24  1  0  0  0  0
 23 25  1  0  0  0  0
 25 26  1  0  0  0  0
 25 27  1  0  0  0  0
 25 28  1  0  0  0  0
M  END
$$$$

  -OEChem-02102214123D

 28 27  0     1  0  0  0  0  0999 V2000
   -3.3230   -3.7255    1.4316 H   0  0  0  0  0  0  0  0  0  0  0  0
   -3.2920   -2.7532    0.9320 C   0  0  0  0  0  0  0  0  0  0  0  0
   -3.9100   -2.0488    1.4939 H   0  0  0  0  0  0  0  0  0  0  0  0
   -3.6991   -2.8616   -0.0761 H   0  0  0  0  0  0  0  0  0  0  0  0
   -1.8639   -2.2476    0.8607 C   0  0  0  0  0  0  0  0  0  0  0  0
   -0.9503   -2.9291    1.2976 O   0  0  0  0  0  0  0  0  0  0  0  0
   -1.6012   -1.0139    0.3021 N   0  0  0  0  0  0  0  0  0  0  0  0
   -2.3999   -0.4415    0.0322 H   0  0  0  0  0  0  0  0  0  0  0  0
   -0.2791   -0.3654    0.2659 C   0  0  1  0  0  0  0  0  0  0  0  0
    0.3596   -0.8432    1.0161 H   0  0  0  0  0  0  0  0  0  0  0  0
    0.4393   -0.4848   -1.1050 C   0  0  0  0  0  0  0  0  0  0  0  0
    0.4310    0.4836   -1.6180 H   0  0  0  0  0  0  0  0  0  0  0  0
    1.4869   -0.7186   -0.8868 H   0  0  0  0  0  0  0  0  0  0  0  0
   -0.1265   -1.5382   -2.0917 C   0  0  0  0  0  0  0  0  0  0  0  0
   -0.5263   -2.3877   -1.5345 H   0  0  0  0  0  0  0  0  0  0  0  0
   -0.9435   -1.1036   -2.6736 H   0  0  0  0  0  0  0  0  0  0  0  0
    0.9192   -2.1334   -3.0360 C   0  0  0  0  0  0  0  0  0  0  0  0
    1.9580   -1.5294   -3.2507 O   0  0  0  0  0  0  0  0  0  0  0  0
    0.6155   -3.3175   -3.6155 O   0  0  0  0  0  0  0  0  0  0  0  0
    1.3748   -3.5406   -4.1749 H   0  0  0  0  0  0  0  0  0  0  0  0
   -0.4007    1.1196    0.6643 C   0  0  0  0  0  0  0  0  0  0  0  0
   -1.3385    1.7878    0.2446 O   0  0  0  0  0  0  0  0  0  0  0  0
    0.4971    1.6879    1.5487 N   0  0  0  0  0  0  0  0  0  0  0  0
    1.2397    1.0977    1.9129 H   0  0  0  0  0  0  0  0  0  0  0  0
    0.4001    3.0675    2.0098 C   0  0  0  0  0  0  0  0  0  0  0  0
   -0.5526    3.2342    2.5235 H   0  0  0  0  0  0  0  0  0  0  0  0
    1.2125    3.2919    2.7077 H   0  0  0  0  0  0  0  0  0  0  0  0
    0.4703    3.7596    1.1639 H   0  0  0  0  0  0  0  0  0  0  0  0
  1  2  1  0  0  0  0
  2  3  1  0  0  0  0
  2  4  1  0  0  0  0
  2  5  1  0  0  0  0
  5  6  2  0  0  0  0
  5  7  1  0  0  0  0
  7  8  1  0  0  0  0
  7  9  1  0  0  0  0
  9 10  1  0  0  0  0
  9 11  1  0  0  0  0
  9 21  1  0  0  0  0
 11 12  1  0  0  0  0
 11 13  1  0  0  0  0
 11 14  1  0  0  0  0
 14 15  1  0  0  0  0
 14 16  1  0  0  0  0
 14 17  1  0  0  0  0
 17 18  2  0  0  0  0
 17 19  1  0  0  0  0
 19 20  1  0  0  0  0
 21 22  2  0  0  0  0
 21 23  1  0  0  0  0
 23 24  1  0  0  0  0
 23 25  1  0  0  0  0
 25 26  1  0  0  0  0
 25 27  1  0  0  0  0
 25 28  1  0  0  0  0
M  END
$$$$

  -OEChem-02102214123D

 28 27  0     1  0  0  0  0  0999 V2000
   -3.3439   -3.7181    1.4228 H   0  0  0  0  0  0  0  0  0  0  0  0
   -3.3105   -2.7402    0.9342 C   0  0  0  0  0  0  0  0  0  0  0  0
   -3.9219   -2.0391    1.5074 H   0  0  0  0  0  0  0  0  0  0  0  0
   -3.7239   -2.8348   -0.0728 H   0  0  0  0  0  0  0  0  0  0  0  0
   -1.8802   -2.2411    0.8608 C   0  0  0  0  0  0  0  0  0  0  0  0
   -0.9680   -2.9300    1.2889 O   0  0  0  0  0  0  0  0  0  0  0  0
   -1.6141   -1.0070    0.3046 N   0  0  0  0  0  0  0  0  0  0  0  0
   -2.4111   -0.4271    0.0456 H   0  0  0  0  0  0  0  0  0  0  0  0
   -0.2881   -0.3685    0.2609 C   0  0  1  0  0  0  0  0  0  0  0  0
    0.3491   -0.8515    1.0092 H   0  0  0  0  0  0  0  0  0  0  0  0
    0.4363   -0.4865   -1.1093 C   0  0  0  0  0  0  0  0  0  0  0  0
    0.4277    0.4868   -1.6130 H   0  0  0  0  0  0  0  0  0  0  0  0
    1.4846   -0.7090   -0.8834 H   0  0  0  0  0  0  0  0  0  0  0  0
   -0.1099   -1.5294   -2.1253 C   0  0  0  0  0  0  0  0  0  0  0  0
   -0.7625   -2.2498   -1.6321 H   0  0  0  0  0  0  0  0  0  0  0  0
   -0.7034   -1.0225   -2.8906 H   0  0  0  0  0  0  0  0  0  0  0  0
    0.9780   -2.3647   -2.8014 C   0  0  0  0  0  0  0  0  0  0  0  0
    2.0600   -1.8566   -3.0485 O   0  0  0  0  0  0  0  0  0  0  0  0
    0.6658   -3.6422   -3.1209 O   0  0  0  0  0  0  0  0  0  0  0  0
    1.4603   -4.0148   -3.5317 H   0  0  0  0  0  0  0  0  0  0  0  0
   -0.4020    1.1156    0.6668 C   0  0  0  0  0  0  0  0  0  0  0  0
   -1.3394    1.7893    0.2548 O   0  0  0  0  0  0  0  0  0  0  0  0
    0.5029    1.6779    1.5479 N   0  0  0  0  0  0  0  0  0  0  0  0
    1.2375    1.0798    1.9155 H   0  0  0  0  0  0  0  0  0  0  0  0
    0.4054    3.0522    2.0250 C   0  0  0  0  0  0  0  0  0  0  0  0
   -0.5436    3.2103    2.5484 H   0  0  0  0  0  0  0  0  0  0  0  0
    1.2229    3.2711    2.7186 H   0  0  0  0  0  0  0  0  0  0  0  0
    0.4663    3.7542    1.1867 H   0  0  0  0  0  0  0  0  0  0  0  0
  1  2  1  0  0  0  0
  2  3  1  0  0  0  0
  2  4  1  0  0  0  0
  2  5  1  0  0  0  0
  5  6  2  0  0  0  0
  5  7  1  0  0  0  0
  7  8  1  0  0  0  0
  7  9  1  0  0  0  0
  9 10  1  0  0  0  0
  9 11  1  0  0  0  0
  9 21  1  0  0  0  0
 11 12  1  0  0  0  0
 11 13  1  0  0  0  0
 11 14  1  0  0  0  0
 14 15  1  0  0  0  0
 14 16  1  0  0  0  0
 14 17  1  0  0  0  0
 17 18  2  0  0  0  0
 17 19  1  0  0  0  0
 19 20  1  0  0  0  0
 21 22  2  0  0  0  0
 21 23  1  0  0  0  0
 23 24  1  0  0  0  0
 23 25  1  0  0  0  0
 25 26  1  0  0  0  0
 25 27  1  0  0  0  0
 25 28  1  0  0  0  0
M  END
$$$$

  -OEChem-02102214123D

 28 27  0     1  0  0  0  0  0999 V2000
   -3.3494   -3.7225    1.3949 H   0  0  0  0  0  0  0  0  0  0  0  0
   -3.3168   -2.7379    0.9202 C   0  0  0  0  0  0  0  0  0  0  0  0
   -3.9227   -2.0435    1.5072 H   0  0  0  0  0  0  0  0  0  0  0  0
   -3.7364   -2.8171   -0.0856 H   0  0  0  0  0  0  0  0  0  0  0  0
   -1.8858   -2.2410    0.8460 C   0  0  0  0  0  0  0  0  0  0  0  0
   -0.9749   -2.9304    1.2761 O   0  0  0  0  0  0  0  0  0  0  0  0
   -1.6192   -1.0038    0.2969 N   0  0  0  0  0  0  0  0  0  0  0  0
   -2.4154   -0.4232    0.0369 H   0  0  0  0  0  0  0  0  0  0  0  0
   -0.2924   -0.3681    0.2575 C   0  0  1  0  0  0  0  0  0  0  0  0
    0.3397   -0.8555    1.0070 H   0  0  0  0  0  0  0  0  0  0  0  0
    0.4447   -0.4863   -1.1066 C   0  0  0  0  0  0  0  0  0  0  0  0
    0.4032    0.4887   -1.6053 H   0  0  0  0  0  0  0  0  0  0  0  0
    1.5021   -0.6708   -0.8901 H   0  0  0  0  0  0  0  0  0  0  0  0
   -0.0830   -1.5260   -2.1386 C   0  0  0  0  0  0  0  0  0  0  0  0
   -0.9691   -2.0510   -1.7837 H   0  0  0  0  0  0  0  0  0  0  0  0
   -0.3770   -0.9999   -3.0508 H   0  0  0  0  0  0  0  0  0  0  0  0
    0.9484   -2.5863   -2.5223 C   0  0  0  0  0  0  0  0  0  0  0  0
    2.0969   -2.2452   -2.7554 O   0  0  0  0  0  0  0  0  0  0  0  0
    0.5186   -3.8663   -2.6118 O   0  0  0  0  0  0  0  0  0  0  0  0
    1.2969   -4.3919   -2.8499 H   0  0  0  0  0  0  0  0  0  0  0  0
   -0.4034    1.1138    0.6721 C   0  0  0  0  0  0  0  0  0  0  0  0
   -1.3367    1.7923    0.2587 O   0  0  0  0  0  0  0  0  0  0  0  0
    0.5012    1.6708    1.5568 N   0  0  0  0  0  0  0  0  0  0  0  0
    1.2290    1.0681    1.9304 H   0  0  0  0  0  0  0  0  0  0  0  0
    0.4019    3.0429    2.0399 C   0  0  0  0  0  0  0  0  0  0  0  0
   -0.5397    3.1918    2.5787 H   0  0  0  0  0  0  0  0  0  0  0  0
    1.2291    3.2662    2.7204 H   0  0  0  0  0  0  0  0  0  0  0  0
    0.4436    3.7484    1.2032 H   0  0  0  0  0  0  0  0  0  0  0  0
  1  2  1  0  0  0  0
  2  3  1  0  0  0  0
  2  4  1  0  0  0  0
  2  5  1  0  0  0  0
  5  6  2  0  0  0  0
  5  7  1  0  0  0  0
  7  8  1  0  0  0  0
  7  9  1  0  0  0  0
  9 10  1  0  0  0  0
  9 11  1  0  0  0  0
  9 21  1  0  0  0  0
 11 12  1  0  0  0  0
 11 13  1  0  0  0  0
 11 14  1  0  0  0  0
 14 15  1  0  0  0  0
 14 16  1  0  0  0  0
 14 17  1  0  0  0  0
 17 18  2  0  0  0  0
 17 19  1  0  0  0  0
 19 20  1  0  0  0  0
 21 22  2  0  0  0  0
 21 23  1  0  0  0  0
 23 24  1  0  0  0  0
 23 25  1  0  0  0  0
 25 26  1  0  0  0  0
 25 27  1  0  0  0  0
 25 28  1  0  0  0  0
M  END
$$$$

  -OEChem-02102214123D

 28 27  0     1  0  0  0  0  0999 V2000
   -3.3219   -3.7410    1.3585 H   0  0  0  0  0  0  0  0  0  0  0  0
   -3.2938   -2.7555    0.8855 C   0  0  0  0  0  0  0  0  0  0  0  0
   -3.9147   -2.0686    1.4656 H   0  0  0  0  0  0  0  0  0  0  0  0
   -3.6997   -2.8381   -0.1256 H   0  0  0  0  0  0  0  0  0  0  0  0
   -1.8674   -2.2433    0.8295 C   0  0  0  0  0  0  0  0  0  0  0  0
   -0.9546   -2.9237    1.2702 O   0  0  0  0  0  0  0  0  0  0  0  0
   -1.6079   -1.0021    0.2858 N   0  0  0  0  0  0  0  0  0  0  0  0
   -2.4069   -0.4302    0.0160 H   0  0  0  0  0  0  0  0  0  0  0  0
   -0.2864   -0.3557    0.2585 C   0  0  1  0  0  0  0  0  0  0  0  0
    0.3420   -0.8393    1.0139 H   0  0  0  0  0  0  0  0  0  0  0  0
    0.4626   -0.4798   -1.0974 C   0  0  0  0  0  0  0  0  0  0  0  0
    0.3831    0.4883   -1.6047 H   0  0  0  0  0  0  0  0  0  0  0  0
    1.5286   -0.6278   -0.8957 H   0  0  0  0  0  0  0  0  0  0  0  0
   -0.0595   -1.5335   -2.1151 C   0  0  0  0  0  0  0  0  0  0  0  0
   -1.0921   -1.8293   -1.9291 H   0  0  0  0  0  0  0  0  0  0  0  0
   -0.0512   -1.0775   -3.1088 H   0  0  0  0  0  0  0  0  0  0  0  0
    0.8129   -2.7839   -2.2067 C   0  0  0  0  0  0  0  0  0  0  0  0
    2.0268   -2.6672   -2.2594 O   0  0  0  0  0  0  0  0  0  0  0  0
    0.1755   -3.9766   -2.2487 O   0  0  0  0  0  0  0  0  0  0  0  0
    0.8731   -4.6486   -2.2708 H   0  0  0  0  0  0  0  0  0  0  0  0
   -0.4060    1.1247    0.6752 C   0  0  0  0  0  0  0  0  0  0  0  0
   -1.3383    1.8008    0.2558 O   0  0  0  0  0  0  0  0  0  0  0  0
    0.4910    1.6826    1.5672 N   0  0  0  0  0  0  0  0  0  0  0  0
    1.2183    1.0810    1.9436 H   0  0  0  0  0  0  0  0  0  0  0  0
    0.3880    3.0544    2.0504 C   0  0  0  0  0  0  0  0  0  0  0  0
   -0.5558    3.2022    2.5860 H   0  0  0  0  0  0  0  0  0  0  0  0
    1.2125    3.2778    2.7344 H   0  0  0  0  0  0  0  0  0  0  0  0
    0.4326    3.7603    1.2142 H   0  0  0  0  0  0  0  0  0  0  0  0
  1  2  1  0  0  0  0
  2  3  1  0  0  0  0
  2  4  1  0  0  0  0
  2  5  1  0  0  0  0
  5  6  2  0  0  0  0
  5  7  1  0  0  0  0
  7  8  1  0  0  0  0
  7  9  1  0  0  0  0
  9 10  1  0  0  0  0
  9 11  1  0  0  0  0
  9 21  1  0  0  0  0
 11 12  1  0  0  0  0
 11 13  1  0  0  0  0
 11 14  1  0  0  0  0
 14 15  1  0  0  0  0
 14 16  1  0  0  0  0
 14 17  1  0  0  0  0
 17 18  2  0  0  0  0
 17 19  1  0  0  0  0
 19 20  1  0  0  0  0
 21 22  2  0  0  0  0
 21 23  1  0  0  0  0
 23 24  1  0  0  0  0
 23 25  1  0  0  0  0
 25 26  1  0  0  0  0
 25 27  1  0  0  0  0
 25 28  1  0  0  0  0
M  END
$$$$

  -OEChem-02102214123D

 28 27  0     1  0  0  0  0  0999 V2000
   -3.2894   -3.7596    1.3277 H   0  0  0  0  0  0  0  0  0  0  0  0
   -3.2616   -2.7836    0.8354 C   0  0  0  0  0  0  0  0  0  0  0  0
   -3.9126   -2.0954    1.3799 H   0  0  0  0  0  0  0  0  0  0  0  0
   -3.6313   -2.8943   -0.1870 H   0  0  0  0  0  0  0  0  0  0  0  0
   -1.8429   -2.2487    0.8153 C   0  0  0  0  0  0  0  0  0  0  0  0
   -0.9312   -2.9158    1.2785 O   0  0  0  0  0  0  0  0  0  0  0  0
   -1.5894   -1.0045    0.2752 N   0  0  0  0  0  0  0  0  0  0  0  0
   -2.3909   -0.4426   -0.0075 H   0  0  0  0  0  0  0  0  0  0  0  0
   -0.2730   -0.3464    0.2575 C   0  0  1  0  0  0  0  0  0  0  0  0
    0.3569   -0.8270    1.0132 H   0  0  0  0  0  0  0  0  0  0  0  0
    0.4744   -0.4715   -1.0978 C   0  0  0  0  0  0  0  0  0  0  0  0
    0.3855    0.4916   -1.6130 H   0  0  0  0  0  0  0  0  0  0  0  0
    1.5426   -0.6207   -0.9088 H   0  0  0  0  0  0  0  0  0  0  0  0
   -0.0610   -1.5357   -2.0901 C   0  0  0  0  0  0  0  0  0  0  0  0
   -1.1484   -1.6244   -2.0578 H   0  0  0  0  0  0  0  0  0  0  0  0
    0.1866   -1.2100   -3.1040 H   0  0  0  0  0  0  0  0  0  0  0  0
    0.5870   -2.9058   -1.9056 C   0  0  0  0  0  0  0  0  0  0  0  0
    1.8006   -2.9850   -1.8020 O   0  0  0  0  0  0  0  0  0  0  0  0
   -0.2381   -3.9780   -1.8760 O   0  0  0  0  0  0  0  0  0  0  0  0
    0.3294   -4.7397   -1.6837 H   0  0  0  0  0  0  0  0  0  0  0  0
   -0.4009    1.1330    0.6742 C   0  0  0  0  0  0  0  0  0  0  0  0
   -1.3312    1.8067    0.2468 O   0  0  0  0  0  0  0  0  0  0  0  0
    0.4891    1.6934    1.5714 N   0  0  0  0  0  0  0  0  0  0  0  0
    1.2155    1.0935    1.9526 H   0  0  0  0  0  0  0  0  0  0  0  0
    0.3768    3.0635    2.0571 C   0  0  0  0  0  0  0  0  0  0  0  0
   -0.5828    3.2131    2.5632 H   0  0  0  0  0  0  0  0  0  0  0  0
    1.1800    3.2806    2.7679 H   0  0  0  0  0  0  0  0  0  0  0  0
    0.4507    3.7719    1.2252 H   0  0  0  0  0  0  0  0  0  0  0  0
  1  2  1  0  0  0  0
  2  3  1  0  0  0  0
  2  4  1  0  0  0  0
  2  5  1  0  0  0  0
  5  6  2  0  0  0  0
  5  7  1  0  0  0  0
  7  8  1  0  0  0  0
  7  9  1  0  0  0  0
  9 10  1  0  0  0  0
  9 11  1  0  0  0  0
  9 21  1  0  0  0  0
 11 12  1  0  0  0  0
 11 13  1  0  0  0  0
 11 14  1  0  0  0  0
 14 15  1  0  0  0  0
 14 16  1  0  0  0  0
 14 17  1  0  0  0  0
 17 18  2  0  0  0  0
 17 19  1  0  0  0  0
 19 20  1  0  0  0  0
 21 22  2  0  0  0  0
 21 23  1  0  0  0  0
 23 24  1  0  0  0  0
 23 25  1  0  0  0  0
 25 26  1  0  0  0  0
 25 27  1  0  0  0  0
 25 28  1  0  0  0  0
M  END
$$$$

  -OEChem-02102214123D

 28 27  0     1  0  0  0  0  0999 V2000
   -3.2864   -3.7818    1.3173 H   0  0  0  0  0  0  0  0  0  0  0  0
   -3.2469   -2.8153    0.8074 C   0  0  0  0  0  0  0  0  0  0  0  0
   -3.9373   -2.1276    1.3014 H   0  0  0  0  0  0  0  0  0  0  0  0
   -3.5581   -2.9521   -0.2311 H   0  0  0  0  0  0  0  0  0  0  0  0
   -1.8372   -2.2584    0.8522 C   0  0  0  0  0  0  0  0  0  0  0  0
   -0.9423   -2.9042    1.3748 O   0  0  0  0  0  0  0  0  0  0  0  0
   -1.5728   -1.0215    0.3002 N   0  0  0  0  0  0  0  0  0  0  0  0
   -2.3667   -0.4811   -0.0397 H   0  0  0  0  0  0  0  0  0  0  0  0
   -0.2583   -0.3570    0.2876 C   0  0  1  0  0  0  0  0  0  0  0  0
    0.3750   -0.8305    1.0453 H   0  0  0  0  0  0  0  0  0  0  0  0
    0.4824   -0.4709   -1.0737 C   0  0  0  0  0  0  0  0  0  0  0  0
    0.4073    0.4947   -1.5863 H   0  0  0  0  0  0  0  0  0  0  0  0
    1.5479   -0.6427   -0.8870 H   0  0  0  0  0  0  0  0  0  0  0  0
   -0.0578   -1.5292   -2.0631 C   0  0  0  0  0  0  0  0  0  0  0  0
   -1.1416   -1.4425   -2.1739 H   0  0  0  0  0  0  0  0  0  0  0  0
    0.3763   -1.3423   -3.0489 H   0  0  0  0  0  0  0  0  0  0  0  0
    0.3141   -2.9561   -1.6669 C   0  0  0  0  0  0  0  0  0  0  0  0
    1.4711   -3.2024   -1.3676 O   0  0  0  0  0  0  0  0  0  0  0  0
   -0.6708   -3.8848   -1.6782 O   0  0  0  0  0  0  0  0  0  0  0  0
   -0.2641   -4.6917   -1.3259 H   0  0  0  0  0  0  0  0  0  0  0  0
   -0.3999    1.1270    0.6836 C   0  0  0  0  0  0  0  0  0  0  0  0
   -1.3166    1.7964    0.2212 O   0  0  0  0  0  0  0  0  0  0  0  0
    0.4774    1.7030    1.5833 N   0  0  0  0  0  0  0  0  0  0  0  0
    1.1952    1.1084    1.9883 H   0  0  0  0  0  0  0  0  0  0  0  0
    0.3719    3.0873    2.0284 C   0  0  0  0  0  0  0  0  0  0  0  0
   -0.5953    3.2629    2.5112 H   0  0  0  0  0  0  0  0  0  0  0  0
    1.1636    3.3148    2.7487 H   0  0  0  0  0  0  0  0  0  0  0  0
    0.4707    3.7712    1.1788 H   0  0  0  0  0  0  0  0  0  0  0  0
  1  2  1  0  0  0  0
  2  3  1  0  0  0  0
  2  4  1  0  0  0  0
  2  5  1  0  0  0  0
  5  6  2  0  0  0  0
  5  7  1  0  0  0  0
  7  8  1  0  0  0  0
  7  9  1  0  0  0  0
  9 10  1  0  0  0  0
  9 11  1  0  0  0  0
  9 21  1  0  0  0  0
 11 12  1  0  0  0  0
 11 13  1  0  0  0  0
 11 14  1  0  0  0  0
 14 15  1  0  0  0  0
 14 16  1  0  0  0  0
 14 17  1  0  0  0  0
 17 18  2  0  0  0  0
 17 19  1  0  0  0  0
 19 20  1  0  0  0  0
 21 22  2  0  0  0  0
 21 23  1  0  0  0  0
 23 24  1  0  0  0  0
 23 25  1  0  0  0  0
 25 26  1  0  0  0  0
 25 27  1  0  0  0  0
 25 28  1  0  0  0  0
M  END
$$$$

  -OEChem-02102214123D

 28 27  0     1  0  0  0  0  0999 V2000
   -3.3398   -3.7485    1.3964 H   0  0  0  0  0  0  0  0  0  0  0  0
   -3.2797   -2.7852    0.8826 C   0  0  0  0  0  0  0  0  0  0  0  0
   -3.9542   -2.0805    1.3749 H   0  0  0  0  0  0  0  0  0  0  0  0
   -3.5961   -2.9189   -0.1548 H   0  0  0  0  0  0  0  0  0  0  0  0
   -1.8583   -2.2579    0.9243 C   0  0  0  0  0  0  0  0  0  0  0  0
   -0.9871   -2.8984    1.4899 O   0  0  0  0  0  0  0  0  0  0  0  0
   -1.5654   -1.0418    0.3431 N   0  0  0  0  0  0  0  0  0  0  0  0
   -2.3480   -0.5068   -0.0299 H   0  0  0  0  0  0  0  0  0  0  0  0
   -0.2471   -0.3841    0.3244 C   0  0  1  0  0  0  0  0  0  0  0  0
    0.3838   -0.8442    1.0925 H   0  0  0  0  0  0  0  0  0  0  0  0
    0.5020   -0.4915   -1.0369 C   0  0  0  0  0  0  0  0  0  0  0  0
    0.4625    0.4810   -1.5407 H   0  0  0  0  0  0  0  0  0  0  0  0
    1.5579   -0.6924   -0.8254 H   0  0  0  0  0  0  0  0  0  0  0  0
    0.0000   -1.5320   -2.0628 C   0  0  0  0  0  0  0  0  0  0  0  0
   -1.0287   -1.2925   -2.3456 H   0  0  0  0  0  0  0  0  0  0  0  0
    0.6095   -1.4704   -2.9683 H   0  0  0  0  0  0  0  0  0  0  0  0
    0.0486   -2.9703   -1.5561 C   0  0  0  0  0  0  0  0  0  0  0  0
    1.1059   -3.3838   -1.1105 O   0  0  0  0  0  0  0  0  0  0  0  0
   -1.0665   -3.7305   -1.6650 O   0  0  0  0  0  0  0  0  0  0  0  0
   -0.8294   -4.5787   -1.2577 H   0  0  0  0  0  0  0  0  0  0  0  0
   -0.4039    1.1095    0.6786 C   0  0  0  0  0  0  0  0  0  0  0  0
   -1.3196    1.7611    0.1889 O   0  0  0  0  0  0  0  0  0  0  0  0
    0.4587    1.7145    1.5734 N   0  0  0  0  0  0  0  0  0  0  0  0
    1.1682    1.1328    2.0105 H   0  0  0  0  0  0  0  0  0  0  0  0
    0.3323    3.1064    1.9881 C   0  0  0  0  0  0  0  0  0  0  0  0
   -0.6364    3.2768    2.4699 H   0  0  0  0  0  0  0  0  0  0  0  0
    1.1226    3.3624    2.7004 H   0  0  0  0  0  0  0  0  0  0  0  0
    0.4177    3.7728    1.1233 H   0  0  0  0  0  0  0  0  0  0  0  0
  1  2  1  0  0  0  0
  2  3  1  0  0  0  0
  2  4  1  0  0  0  0
  2  5  1  0  0  0  0
  5  6  2  0  0  0  0
  5  7  1  0  0  0  0
  7  8  1  0  0  0  0
  7  9  1  0  0  0  0
  9 10  1  0  0  0  0
  9 11  1  0  0  0  0
  9 21  1  0  0  0  0
 11 12  1  0  0  0  0
 11 13  1  0  0  0  0
 11 14  1  0  0  0  0
 14 15  1  0  0  0  0
 14 16  1  0  0  0  0
 14 17  1  0  0  0  0
 17 18  2  0  0  0  0
 17 19  1  0  0  0  0
 19 20  1  0  0  0  0
 21 22  2  0  0  0  0
 21 23  1  0  0  0  0
 23 24  1  0  0  0  0
 23 25  1  0  0  0  0
 25 26  1  0  0  0  0
 25 27  1  0  0  0  0
 25 28  1  0  0  0  0
M  END
$$$$

  -OEChem-02102214123D

 28 27  0     1  0  0  0  0  0999 V2000
   -3.3410   -3.7623    1.4601 H   0  0  0  0  0  0  0  0  0  0  0  0
   -3.2946   -2.7649    1.0151 C   0  0  0  0  0  0  0  0  0  0  0  0
   -3.9341   -2.0914    1.5905 H   0  0  0  0  0  0  0  0  0  0  0  0
   -3.6655   -2.8195   -0.0113 H   0  0  0  0  0  0  0  0  0  0  0  0
   -1.8665   -2.2536    1.0245 C   0  0  0  0  0  0  0  0  0  0  0  0
   -1.0001   -2.8767    1.6148 O   0  0  0  0  0  0  0  0  0  0  0  0
   -1.5696   -1.0547    0.4108 N   0  0  0  0  0  0  0  0  0  0  0  0
   -2.3504   -0.5323    0.0163 H   0  0  0  0  0  0  0  0  0  0  0  0
   -0.2504   -0.4023    0.3648 C   0  0  1  0  0  0  0  0  0  0  0  0
    0.3871   -0.8448    1.1377 H   0  0  0  0  0  0  0  0  0  0  0  0
    0.4984   -0.5096   -1.0008 C   0  0  0  0  0  0  0  0  0  0  0  0
    0.4880    0.4695   -1.4933 H   0  0  0  0  0  0  0  0  0  0  0  0
    1.5456   -0.7284   -0.7653 H   0  0  0  0  0  0  0  0  0  0  0  0
    0.0496   -1.5327   -2.0716 C   0  0  0  0  0  0  0  0  0  0  0  0
   -0.8641   -1.1542   -2.5383 H   0  0  0  0  0  0  0  0  0  0  0  0
    0.8114   -1.5935   -2.8534 H   0  0  0  0  0  0  0  0  0  0  0  0
   -0.2435   -2.9434   -1.5754 C   0  0  0  0  0  0  0  0  0  0  0  0
    0.6804   -3.5645   -1.0797 O   0  0  0  0  0  0  0  0  0  0  0  0
   -1.4755   -3.4687   -1.7764 O   0  0  0  0  0  0  0  0  0  0  0  0
   -1.4229   -4.3676   -1.4146 H   0  0  0  0  0  0  0  0  0  0  0  0
   -0.4187    1.0990    0.6849 C   0  0  0  0  0  0  0  0  0  0  0  0
   -1.3391    1.7333    0.1811 O   0  0  0  0  0  0  0  0  0  0  0  0
    0.4435    1.7326    1.5604 N   0  0  0  0  0  0  0  0  0  0  0  0
    1.1533    1.1651    2.0153 H   0  0  0  0  0  0  0  0  0  0  0  0
    0.3005    3.1306    1.9499 C   0  0  0  0  0  0  0  0  0  0  0  0
   -0.6695    3.2982    2.4302 H   0  0  0  0  0  0  0  0  0  0  0  0
    1.0887    3.4096    2.6558 H   0  0  0  0  0  0  0  0  0  0  0  0
    0.3769    3.7823    1.0732 H   0  0  0  0  0  0  0  0  0  0  0  0
  1  2  1  0  0  0  0
  2  3  1  0  0  0  0
  2  4  1  0  0  0  0
  2  5  1  0  0  0  0
  5  6  2  0  0  0  0
  5  7  1  0  0  0  0
  7  8  1  0  0  0  0
  7  9  1  0  0  0  0
  9 10  1  0  0  0  0
  9 11  1  0  0  0  0
  9 21  1  0  0  0  0
 11 12  1  0  0  0  0
 11 13  1  0  0  0  0
 11 14  1  0  0  0  0
 14 15  1  0  0  0  0
 14 16  1  0  0  0  0
 14 17  1  0  0  0  0
 17 18  2  0  0  0  0
 17 19  1  0  0  0  0
 19 20  1  0  0  0  0
 21 22  2  0  0  0  0
 21 23  1  0  0  0  0
 23 24  1  0  0  0  0
 23 25  1  0  0  0  0
 25 26  1  0  0  0  0
 25 27  1  0  0  0  0
 25 28  1  0  0  0  0
M  END
$$$$

  -OEChem-02102214123D

 28 27  0     1  0  0  0  0  0999 V2000
   -3.2886   -3.8270    1.4638 H   0  0  0  0  0  0  0  0  0  0  0  0
   -3.2781   -2.7875    1.1246 C   0  0  0  0  0  0  0  0  0  0  0  0
   -3.8766   -2.1845    1.8115 H   0  0  0  0  0  0  0  0  0  0  0  0
   -3.7229   -2.7374    0.1280 H   0  0  0  0  0  0  0  0  0  0  0  0
   -1.8544   -2.2648    1.0895 C   0  0  0  0  0  0  0  0  0  0  0  0
   -0.9709   -2.8701    1.6727 O   0  0  0  0  0  0  0  0  0  0  0  0
   -1.5818   -1.0631    0.4688 N   0  0  0  0  0  0  0  0  0  0  0  0
   -2.3700   -0.5515    0.0746 H   0  0  0  0  0  0  0  0  0  0  0  0
   -0.2636   -0.4145    0.3962 C   0  0  1  0  0  0  0  0  0  0  0  0
    0.3889   -0.8560    1.1570 H   0  0  0  0  0  0  0  0  0  0  0  0
    0.4726   -0.5003   -0.9799 C   0  0  0  0  0  0  0  0  0  0  0  0
    0.4788    0.4925   -1.4450 H   0  0  0  0  0  0  0  0  0  0  0  0
    1.5158   -0.7316   -0.7398 H   0  0  0  0  0  0  0  0  0  0  0  0
    0.0553   -1.4897   -2.1000 C   0  0  0  0  0  0  0  0  0  0  0  0
   -0.6809   -0.9779   -2.7265 H   0  0  0  0  0  0  0  0  0  0  0  0
    0.9240   -1.6913   -2.7329 H   0  0  0  0  0  0  0  0  0  0  0  0
   -0.5678   -2.8243   -1.7122 C   0  0  0  0  0  0  0  0  0  0  0  0
    0.1741   -3.6834   -1.2706 O   0  0  0  0  0  0  0  0  0  0  0  0
   -1.8829   -3.0308   -1.9633 O   0  0  0  0  0  0  0  0  0  0  0  0
   -2.0432   -3.9538   -1.7124 H   0  0  0  0  0  0  0  0  0  0  0  0
   -0.4340    1.0848    0.7264 C   0  0  0  0  0  0  0  0  0  0  0  0
   -1.3593    1.7212    0.2344 O   0  0  0  0  0  0  0  0  0  0  0  0
    0.4425    1.7184    1.5877 N   0  0  0  0  0  0  0  0  0  0  0  0
    1.1533    1.1486    2.0379 H   0  0  0  0  0  0  0  0  0  0  0  0
    0.3022    3.1148    1.9835 C   0  0  0  0  0  0  0  0  0  0  0  0
   -0.6697    3.2831    2.4595 H   0  0  0  0  0  0  0  0  0  0  0  0
    1.0873    3.3873    2.6954 H   0  0  0  0  0  0  0  0  0  0  0  0
    0.3844    3.7707    1.1104 H   0  0  0  0  0  0  0  0  0  0  0  0
  1  2  1  0  0  0  0
  2  3  1  0  0  0  0
  2  4  1  0  0  0  0
  2  5  1  0  0  0  0
  5  6  2  0  0  0  0
  5  7  1  0  0  0  0
  7  8  1  0  0  0  0
  7  9  1  0  0  0  0
  9 10  1  0  0  0  0
  9 11  1  0  0  0  0
  9 21  1  0  0  0  0
 11 12  1  0  0  0  0
 11 13  1  0  0  0  0
 11 14  1  0  0  0  0
 14 15  1  0  0  0  0
 14 16  1  0  0  0  0
 14 17  1  0  0  0  0
 17 18  2  0  0  0  0
 17 19  1  0  0  0  0
 19 20  1  0  0  0  0
 21 22  2  0  0  0  0
 21 23  1  0  0  0  0
 23 24  1  0  0  0  0
 23 25  1  0  0  0  0
 25 26  1  0  0  0  0
 25 27  1  0  0  0  0
 25 28  1  0  0  0  0
M  END
$$$$

  -OEChem-02102214123D

 28 27  0     1  0  0  0  0  0999 V2000
   -3.4033   -3.7398    1.5191 H   0  0  0  0  0  0  0  0  0  0  0  0
   -3.3662   -2.7288    1.1040 C   0  0  0  0  0  0  0  0  0  0  0  0
   -4.0031   -2.0756    1.7053 H   0  0  0  0  0  0  0  0  0  0  0  0
   -3.7484   -2.7539    0.0816 H   0  0  0  0  0  0  0  0  0  0  0  0
   -1.9402   -2.2112    1.1189 C   0  0  0  0  0  0  0  0  0  0  0  0
   -1.0916   -2.7892    1.7777 O   0  0  0  0  0  0  0  0  0  0  0  0
   -1.6291   -1.0355    0.4653 N   0  0  0  0  0  0  0  0  0  0  0  0
   -2.3850   -0.5459   -0.0119 H   0  0  0  0  0  0  0  0  0  0  0  0
   -0.2989   -0.4111    0.4336 C   0  0  1  0  0  0  0  0  0  0  0  0
    0.3030   -0.8284    1.2477 H   0  0  0  0  0  0  0  0  0  0  0  0
    0.5214   -0.5630   -0.8897 C   0  0  0  0  0  0  0  0  0  0  0  0
    0.5671    0.4137   -1.3853 H   0  0  0  0  0  0  0  0  0  0  0  0
    1.5450   -0.7868   -0.5714 H   0  0  0  0  0  0  0  0  0  0  0  0
    0.1863   -1.5843   -2.0150 C   0  0  0  0  0  0  0  0  0  0  0  0
   -0.2522   -1.0188   -2.8423 H   0  0  0  0  0  0  0  0  0  0  0  0
    1.1255   -2.0030   -2.3886 H   0  0  0  0  0  0  0  0  0  0  0  0
   -0.7654   -2.7450   -1.7548 C   0  0  0  0  0  0  0  0  0  0  0  0
   -0.2999   -3.7767   -1.3047 O   0  0  0  0  0  0  0  0  0  0  0  0
   -2.0611   -2.6130   -2.1290 O   0  0  0  0  0  0  0  0  0  0  0  0
   -2.4599   -3.4825   -1.9733 H   0  0  0  0  0  0  0  0  0  0  0  0
   -0.4595    1.1021    0.7010 C   0  0  0  0  0  0  0  0  0  0  0  0
   -1.3464    1.7367    0.1410 O   0  0  0  0  0  0  0  0  0  0  0  0
    0.3868    1.7507    1.5811 N   0  0  0  0  0  0  0  0  0  0  0  0
    1.0563    1.1824    2.0925 H   0  0  0  0  0  0  0  0  0  0  0  0
    0.2474    3.1598    1.9289 C   0  0  0  0  0  0  0  0  0  0  0  0
   -0.7275    3.3458    2.3919 H   0  0  0  0  0  0  0  0  0  0  0  0
    1.0285    3.4543    2.6364 H   0  0  0  0  0  0  0  0  0  0  0  0
    0.3379    3.7863    1.0352 H   0  0  0  0  0  0  0  0  0  0  0  0
  1  2  1  0  0  0  0
  2  3  1  0  0  0  0
  2  4  1  0  0  0  0
  2  5  1  0  0  0  0
  5  6  2  0  0  0  0
  5  7  1  0  0  0  0
  7  8  1  0  0  0  0
  7  9  1  0  0  0  0
  9 10  1  0  0  0  0
  9 11  1  0  0  0  0
  9 21  1  0  0  0  0
 11 12  1  0  0  0  0
 11 13  1  0  0  0  0
 11 14  1  0  0  0  0
 14 15  1  0  0  0  0
 14 16  1  0  0  0  0
 14 17  1  0  0  0  0
 17 18  2  0  0  0  0
 17 19  1  0  0  0  0
 19 20  1  0  0  0  0
 21 22  2  0  0  0  0
 21 23  1  0  0  0  0
 23 24  1  0  0  0  0
 23 25  1  0  0  0  0
 25 26  1  0  0  0  0
 25 27  1  0  0  0  0
 25 28  1  0  0  0  0
M  END
$$$$

  -OEChem-02102214123D

 28 27  0     1  0  0  0  0  0999 V2000
   -3.3704   -3.7362    1.5875 H   0  0  0  0  0  0  0  0  0  0  0  0
   -3.3531   -2.7340    1.1505 C   0  0  0  0  0  0  0  0  0  0  0  0
   -3.9612   -2.0691    1.7686 H   0  0  0  0  0  0  0  0  0  0  0  0
   -3.7839   -2.7788    0.1475 H   0  0  0  0  0  0  0  0  0  0  0  0
   -1.9284   -2.2163    1.0828 C   0  0  0  0  0  0  0  0  0  0  0  0
   -1.0155   -2.8777    1.5511 O   0  0  0  0  0  0  0  0  0  0  0  0
   -1.6748   -0.9859    0.5129 N   0  0  0  0  0  0  0  0  0  0  0  0
   -2.4707   -0.4752    0.1310 H   0  0  0  0  0  0  0  0  0  0  0  0
   -0.3522   -0.3631    0.3735 C   0  0  1  0  0  0  0  0  0  0  0  0
    0.3273   -0.8560    1.0767 H   0  0  0  0  0  0  0  0  0  0  0  0
    0.3219   -0.4269   -1.0373 C   0  0  0  0  0  0  0  0  0  0  0  0
    0.2733    0.5815   -1.4650 H   0  0  0  0  0  0  0  0  0  0  0  0
    1.3841   -0.6267   -0.8614 H   0  0  0  0  0  0  0  0  0  0  0  0
   -0.1298   -1.3696   -2.1948 C   0  0  0  0  0  0  0  0  0  0  0  0
   -0.3634   -0.7455   -3.0627 H   0  0  0  0  0  0  0  0  0  0  0  0
    0.7329   -1.9803   -2.4765 H   0  0  0  0  0  0  0  0  0  0  0  0
   -1.3019   -2.3275   -2.0190 C   0  0  0  0  0  0  0  0  0  0  0  0
   -2.4383   -1.9111   -2.1836 O   0  0  0  0  0  0  0  0  0  0  0  0
   -1.0097   -3.6212   -1.7483 O   0  0  0  0  0  0  0  0  0  0  0  0
   -1.8551   -4.0885   -1.6876 H   0  0  0  0  0  0  0  0  0  0  0  0
   -0.4430    1.1199    0.7967 C   0  0  0  0  0  0  0  0  0  0  0  0
   -1.3741    1.8165    0.4102 O   0  0  0  0  0  0  0  0  0  0  0  0
    0.5216    1.6757    1.6170 N   0  0  0  0  0  0  0  0  0  0  0  0
    1.2417    1.0585    1.9815 H   0  0  0  0  0  0  0  0  0  0  0  0
    0.4686    3.0543    2.0892 C   0  0  0  0  0  0  0  0  0  0  0  0
   -0.4330    3.2201    2.6884 H   0  0  0  0  0  0  0  0  0  0  0  0
    1.3422    3.2761    2.7097 H   0  0  0  0  0  0  0  0  0  0  0  0
    0.4615    3.7493    1.2428 H   0  0  0  0  0  0  0  0  0  0  0  0
  1  2  1  0  0  0  0
  2  3  1  0  0  0  0
  2  4  1  0  0  0  0
  2  5  1  0  0  0  0
  5  6  2  0  0  0  0
  5  7  1  0  0  0  0
  7  8  1  0  0  0  0
  7  9  1  0  0  0  0
  9 10  1  0  0  0  0
  9 11  1  0  0  0  0
  9 21  1  0  0  0  0
 11 12  1  0  0  0  0
 11 13  1  0  0  0  0
 11 14  1  0  0  0  0
 14 15  1  0  0  0  0
 14 16  1  0  0  0  0
 14 17  1  0  0  0  0
 17 18  2  0  0  0  0
 17 19  1  0  0  0  0
 19 20  1  0  0  0  0
 21 22  2  0  0  0  0
 21 23  1  0  0  0  0
 23 24  1  0  0  0  0
 23 25  1  0  0  0  0
 25 26  1  0  0  0  0
 25 27  1  0  0  0  0
 25 28  1  0  0  0  0
M  END
$$$$

  -OEChem-02102214123D

 28 27  0     1  0  0  0  0  0999 V2000
   -3.1440   -3.6469    1.9801 H   0  0  0  0  0  0  0  0  0  0  0  0
   -3.1851   -2.6269    1.5881 C   0  0  0  0  0  0  0  0  0  0  0  0
   -3.6652   -1.9819    2.3280 H   0  0  0  0  0  0  0  0  0  0  0  0
   -3.7824   -2.6245    0.6732 H   0  0  0  0  0  0  0  0  0  0  0  0
   -1.7846   -2.1217    1.2973 C   0  0  0  0  0  0  0  0  0  0  0  0
   -0.8140   -2.7628    1.6678 O   0  0  0  0  0  0  0  0  0  0  0  0
   -1.6146   -0.9270    0.6292 N   0  0  0  0  0  0  0  0  0  0  0  0
   -2.4544   -0.4363    0.3206 H   0  0  0  0  0  0  0  0  0  0  0  0
   -0.3232   -0.3313    0.2681 C   0  0  1  0  0  0  0  0  0  0  0  0
    0.4432   -0.7908    0.9006 H   0  0  0  0  0  0  0  0  0  0  0  0
    0.1482   -0.5141   -1.2113 C   0  0  0  0  0  0  0  0  0  0  0  0
    0.0016    0.4556   -1.7014 H   0  0  0  0  0  0  0  0  0  0  0  0
    1.2300   -0.6825   -1.1906 H   0  0  0  0  0  0  0  0  0  0  0  0
   -0.4685   -1.5414   -2.2096 C   0  0  0  0  0  0  0  0  0  0  0  0
   -0.5458   -1.0641   -3.1906 H   0  0  0  0  0  0  0  0  0  0  0  0
    0.2585   -2.3523   -2.3141 H   0  0  0  0  0  0  0  0  0  0  0  0
   -1.8080   -2.2157   -1.9266 C   0  0  0  0  0  0  0  0  0  0  0  0
   -2.8246   -1.5399   -1.9552 O   0  0  0  0  0  0  0  0  0  0  0  0
   -1.8075   -3.5535   -1.7185 O   0  0  0  0  0  0  0  0  0  0  0  0
   -2.7342   -3.8130   -1.6129 H   0  0  0  0  0  0  0  0  0  0  0  0
   -0.3313    1.1751    0.6104 C   0  0  0  0  0  0  0  0  0  0  0  0
   -1.3005    1.8685    0.3262 O   0  0  0  0  0  0  0  0  0  0  0  0
    0.7502    1.7546    1.2482 N   0  0  0  0  0  0  0  0  0  0  0  0
    1.4996    1.1397    1.5521 H   0  0  0  0  0  0  0  0  0  0  0  0
    0.7746    3.1526    1.6620 C   0  0  0  0  0  0  0  0  0  0  0  0
    0.0012    3.3423    2.4136 H   0  0  0  0  0  0  0  0  0  0  0  0
    1.7481    3.4026    2.0944 H   0  0  0  0  0  0  0  0  0  0  0  0
    0.6002    3.8104    0.8039 H   0  0  0  0  0  0  0  0  0  0  0  0
  1  2  1  0  0  0  0
  2  3  1  0  0  0  0
  2  4  1  0  0  0  0
  2  5  1  0  0  0  0
  5  6  2  0  0  0  0
  5  7  1  0  0  0  0
  7  8  1  0  0  0  0
  7  9  1  0  0  0  0
  9 10  1  0  0  0  0
  9 11  1  0  0  0  0
  9 21  1  0  0  0  0
 11 12  1  0  0  0  0
 11 13  1  0  0  0  0
 11 14  1  0  0  0  0
 14 15  1  0  0  0  0
 14 16  1  0  0  0  0
 14 17  1  0  0  0  0
 17 18  2  0  0  0  0
 17 19  1  0  0  0  0
 19 20  1  0  0  0  0
 21 22  2  0  0  0  0
 21 23  1  0  0  0  0
 23 24  1  0  0  0  0
 23 25  1  0  0  0  0
 25 26  1  0  0  0  0
 25 27  1  0  0  0  0
 25 28  1  0  0  0  0
M  END
$$$$

  -OEChem-02102214123D

 28 27  0     1  0  0  0  0  0999 V2000
   -3.1174   -3.8171    1.6489 H   0  0  0  0  0  0  0  0  0  0  0  0
   -3.1742   -2.7922    1.2713 C   0  0  0  0  0  0  0  0  0  0  0  0
   -3.7366   -2.1836    1.9835 H   0  0  0  0  0  0  0  0  0  0  0  0
   -3.7005   -2.7978    0.3141 H   0  0  0  0  0  0  0  0  0  0  0  0
   -1.7799   -2.2218    1.0939 C   0  0  0  0  0  0  0  0  0  0  0  0
   -0.8058   -2.8632    1.4550 O   0  0  0  0  0  0  0  0  0  0  0  0
   -1.6190   -0.9740    0.5289 N   0  0  0  0  0  0  0  0  0  0  0  0
   -2.4582   -0.4791    0.2246 H   0  0  0  0  0  0  0  0  0  0  0  0
   -0.3328   -0.3097    0.2890 C   0  0  1  0  0  0  0  0  0  0  0  0
    0.4103   -0.7894    0.9340 H   0  0  0  0  0  0  0  0  0  0  0  0
    0.2265   -0.3919   -1.1660 C   0  0  0  0  0  0  0  0  0  0  0  0
    0.0608    0.5947   -1.6142 H   0  0  0  0  0  0  0  0  0  0  0  0
    1.3115   -0.5234   -1.1019 H   0  0  0  0  0  0  0  0  0  0  0  0
   -0.3164   -1.3934   -2.2272 C   0  0  0  0  0  0  0  0  0  0  0  0
   -0.1171   -0.9908   -3.2241 H   0  0  0  0  0  0  0  0  0  0  0  0
    0.2793   -2.3055   -2.1288 H   0  0  0  0  0  0  0  0  0  0  0  0
   -1.7767   -1.8398   -2.1892 C   0  0  0  0  0  0  0  0  0  0  0  0
   -2.6530   -0.9906   -2.2066 O   0  0  0  0  0  0  0  0  0  0  0  0
   -2.0297   -3.1697   -2.1906 O   0  0  0  0  0  0  0  0  0  0  0  0
   -2.9931   -3.2601   -2.2307 H   0  0  0  0  0  0  0  0  0  0  0  0
   -0.4015    1.1666    0.7374 C   0  0  0  0  0  0  0  0  0  0  0  0
   -1.3782    1.8524    0.4619 O   0  0  0  0  0  0  0  0  0  0  0  0
    0.6282    1.7236    1.4739 N   0  0  0  0  0  0  0  0  0  0  0  0
    1.3886    1.1121    1.7565 H   0  0  0  0  0  0  0  0  0  0  0  0
    0.5970    3.0909    1.9792 C   0  0  0  0  0  0  0  0  0  0  0  0
   -0.2417    3.2243    2.6706 H   0  0  0  0  0  0  0  0  0  0  0  0
    1.5250    3.3197    2.5120 H   0  0  0  0  0  0  0  0  0  0  0  0
    0.4892    3.8021    1.1533 H   0  0  0  0  0  0  0  0  0  0  0  0
  1  2  1  0  0  0  0
  2  3  1  0  0  0  0
  2  4  1  0  0  0  0
  2  5  1  0  0  0  0
  5  6  2  0  0  0  0
  5  7  1  0  0  0  0
  7  8  1  0  0  0  0
  7  9  1  0  0  0  0
  9 10  1  0  0  0  0
  9 11  1  0  0  0  0
  9 21  1  0  0  0  0
 11 12  1  0  0  0  0
 11 13  1  0  0  0  0
 11 14  1  0  0  0  0
 14 15  1  0  0  0  0
 14 16  1  0  0  0  0
 14 17  1  0  0  0  0
 17 18  2  0  0  0  0
 17 19  1  0  0  0  0
 19 20  1  0  0  0  0
 21 22  2  0  0  0  0
 21 23  1  0  0  0  0
 23 24  1  0  0  0  0
 23 25  1  0  0  0  0
 25 26  1  0  0  0  0
 25 27  1  0  0  0  0
 25 28  1  0  0  0  0
M  END
$$$$

  -OEChem-02102214123D

 28 27  0     1  0  0  0  0  0999 V2000
   -3.2634   -3.7482    1.5040 H   0  0  0  0  0  0  0  0  0  0  0  0
   -3.2649   -2.7677    1.0197 C   0  0  0  0  0  0  0  0  0  0  0  0
   -3.8971   -2.0897    1.5979 H   0  0  0  0  0  0  0  0  0  0  0  0
   -3.6780   -2.8715    0.0140 H   0  0  0  0  0  0  0  0  0  0  0  0
   -1.8528   -2.2198    0.9452 C   0  0  0  0  0  0  0  0  0  0  0  0
   -0.9148   -2.8844    1.3566 O   0  0  0  0  0  0  0  0  0  0  0  0
   -1.6329   -0.9677    0.4110 N   0  0  0  0  0  0  0  0  0  0  0  0
   -2.4425   -0.4401    0.0828 H   0  0  0  0  0  0  0  0  0  0  0  0
   -0.3254   -0.3099    0.2981 C   0  0  1  0  0  0  0  0  0  0  0  0
    0.3511   -0.8014    1.0048 H   0  0  0  0  0  0  0  0  0  0  0  0
    0.3510   -0.4073   -1.1019 C   0  0  0  0  0  0  0  0  0  0  0  0
    0.2481    0.5751   -1.5773 H   0  0  0  0  0  0  0  0  0  0  0  0
    1.4227   -0.5724   -0.9511 H   0  0  0  0  0  0  0  0  0  0  0  0
   -0.1539   -1.4295   -2.1572 C   0  0  0  0  0  0  0  0  0  0  0  0
    0.3145   -1.2043   -3.1189 H   0  0  0  0  0  0  0  0  0  0  0  0
    0.2027   -2.4159   -1.8460 H   0  0  0  0  0  0  0  0  0  0  0  0
   -1.6590   -1.5598   -2.3904 C   0  0  0  0  0  0  0  0  0  0  0  0
   -2.3383   -0.5489   -2.4576 O   0  0  0  0  0  0  0  0  0  0  0  0
   -2.1639   -2.8059   -2.5478 O   0  0  0  0  0  0  0  0  0  0  0  0
   -3.1052   -2.6881   -2.7439 H   0  0  0  0  0  0  0  0  0  0  0  0
   -0.4162    1.1633    0.7511 C   0  0  0  0  0  0  0  0  0  0  0  0
   -1.3690    1.8559    0.4164 O   0  0  0  0  0  0  0  0  0  0  0  0
    0.5493    1.7009    1.5828 N   0  0  0  0  0  0  0  0  0  0  0  0
    1.2813    1.0803    1.9161 H   0  0  0  0  0  0  0  0  0  0  0  0
    0.4783    3.0570    2.1140 C   0  0  0  0  0  0  0  0  0  0  0  0
   -0.4214    3.1825    2.7256 H   0  0  0  0  0  0  0  0  0  0  0  0
    1.3529    3.2657    2.7376 H   0  0  0  0  0  0  0  0  0  0  0  0
    0.4541    3.7875    1.2984 H   0  0  0  0  0  0  0  0  0  0  0  0
  1  2  1  0  0  0  0
  2  3  1  0  0  0  0
  2  4  1  0  0  0  0
  2  5  1  0  0  0  0
  5  6  2  0  0  0  0
  5  7  1  0  0  0  0
  7  8  1  0  0  0  0
  7  9  1  0  0  0  0
  9 10  1  0  0  0  0
  9 11  1  0  0  0  0
  9 21  1  0  0  0  0
 11 12  1  0  0  0  0
 11 13  1  0  0  0  0
 11 14  1  0  0  0  0
 14 15  1  0  0  0  0
 14 16  1  0  0  0  0
 14 17  1  0  0  0  0
 17 18  2  0  0  0  0
 17 19  1  0  0  0  0
 19 20  1  0  0  0  0
 21 22  2  0  0  0  0
 21 23  1  0  0  0  0
 23 24  1  0  0  0  0
 23 25  1  0  0  0  0
 25 26  1  0  0  0  0
 25 27  1  0  0  0  0
 25 28  1  0  0  0  0
M  END
$$$$

  -OEChem-02102214123D

 28 27  0     1  0  0  0  0  0999 V2000
   -3.2488   -3.7534    1.4252 H   0  0  0  0  0  0  0  0  0  0  0  0
   -3.2439   -2.7814    0.9241 C   0  0  0  0  0  0  0  0  0  0  0  0
   -3.8851   -2.0942    1.4813 H   0  0  0  0  0  0  0  0  0  0  0  0
   -3.6422   -2.9034   -0.0858 H   0  0  0  0  0  0  0  0  0  0  0  0
   -1.8309   -2.2343    0.8596 C   0  0  0  0  0  0  0  0  0  0  0  0
   -0.8947   -2.9038    1.2673 O   0  0  0  0  0  0  0  0  0  0  0  0
   -1.6063   -0.9796    0.3335 N   0  0  0  0  0  0  0  0  0  0  0  0
   -2.4187   -0.4274    0.0589 H   0  0  0  0  0  0  0  0  0  0  0  0
   -0.2999   -0.3092    0.2661 C   0  0  1  0  0  0  0  0  0  0  0  0
    0.3586   -0.7950    0.9934 H   0  0  0  0  0  0  0  0  0  0  0  0
    0.4052   -0.4180   -1.1153 C   0  0  0  0  0  0  0  0  0  0  0  0
    0.3398    0.5561   -1.6142 H   0  0  0  0  0  0  0  0  0  0  0  0
    1.4680   -0.6132   -0.9398 H   0  0  0  0  0  0  0  0  0  0  0  0
   -0.1253   -1.4736   -2.1178 C   0  0  0  0  0  0  0  0  0  0  0  0
    0.4938   -1.4505   -3.0183 H   0  0  0  0  0  0  0  0  0  0  0  0
   -0.0084   -2.4634   -1.6663 H   0  0  0  0  0  0  0  0  0  0  0  0
   -1.5838   -1.3216   -2.5526 C   0  0  0  0  0  0  0  0  0  0  0  0
   -2.0368   -0.2042   -2.7326 O   0  0  0  0  0  0  0  0  0  0  0  0
   -2.3052   -2.4528   -2.7319 O   0  0  0  0  0  0  0  0  0  0  0  0
   -3.1746   -2.1612   -3.0454 H   0  0  0  0  0  0  0  0  0  0  0  0
   -0.4138    1.1631    0.7149 C   0  0  0  0  0  0  0  0  0  0  0  0
   -1.3780    1.8381    0.3768 O   0  0  0  0  0  0  0  0  0  0  0  0
    0.5200    1.7071    1.5778 N   0  0  0  0  0  0  0  0  0  0  0  0
    1.2638    1.1004    1.9105 H   0  0  0  0  0  0  0  0  0  0  0  0
    0.4176    3.0592    2.1143 C   0  0  0  0  0  0  0  0  0  0  0  0
   -0.4966    3.1680    2.7075 H   0  0  0  0  0  0  0  0  0  0  0  0
    1.2755    3.2781    2.7574 H   0  0  0  0  0  0  0  0  0  0  0  0
    0.3994    3.7935    1.3019 H   0  0  0  0  0  0  0  0  0  0  0  0
  1  2  1  0  0  0  0
  2  3  1  0  0  0  0
  2  4  1  0  0  0  0
  2  5  1  0  0  0  0
  5  6  2  0  0  0  0
  5  7  1  0  0  0  0
  7  8  1  0  0  0  0
  7  9  1  0  0  0  0
  9 10  1  0  0  0  0
  9 11  1  0  0  0  0
  9 21  1  0  0  0  0
 11 12  1  0  0  0  0
 11 13  1  0  0  0  0
 11 14  1  0  0  0  0
 14 15  1  0  0  0  0
 14 16  1  0  0  0  0
 14 17  1  0  0  0  0
 17 18  2  0  0  0  0
 17 19  1  0  0  0  0
 19 20  1  0  0  0  0
 21 22  2  0  0  0  0
 21 23  1  0  0  0  0
 23 24  1  0  0  0  0
 23 25  1  0  0  0  0
 25 26  1  0  0  0  0
 25 27  1  0  0  0  0
 25 28  1  0  0  0  0
M  END
$$$$

  -OEChem-02102214123D

 28 27  0     1  0  0  0  0  0999 V2000
   -3.2449   -3.7706    1.3970 H   0  0  0  0  0  0  0  0  0  0  0  0
   -3.2339   -2.7939    0.9055 C   0  0  0  0  0  0  0  0  0  0  0  0
   -3.8985   -2.1181    1.4492 H   0  0  0  0  0  0  0  0  0  0  0  0
   -3.5999   -2.9092   -0.1175 H   0  0  0  0  0  0  0  0  0  0  0  0
   -1.8255   -2.2319    0.8900 C   0  0  0  0  0  0  0  0  0  0  0  0
   -0.8974   -2.8885    1.3355 O   0  0  0  0  0  0  0  0  0  0  0  0
   -1.5943   -0.9845    0.3516 N   0  0  0  0  0  0  0  0  0  0  0  0
   -2.3968   -0.4625   -0.0021 H   0  0  0  0  0  0  0  0  0  0  0  0
   -0.2910   -0.3059    0.2868 C   0  0  1  0  0  0  0  0  0  0  0  0
    0.3705   -0.7834    1.0169 H   0  0  0  0  0  0  0  0  0  0  0  0
    0.3971   -0.4290   -1.0997 C   0  0  0  0  0  0  0  0  0  0  0  0
    0.3513    0.5379   -1.6146 H   0  0  0  0  0  0  0  0  0  0  0  0
    1.4563   -0.6446   -0.9271 H   0  0  0  0  0  0  0  0  0  0  0  0
   -0.1683   -1.5073   -2.0575 C   0  0  0  0  0  0  0  0  0  0  0  0
    0.5588   -1.6622   -2.8590 H   0  0  0  0  0  0  0  0  0  0  0  0
   -0.2619   -2.4573   -1.5241 H   0  0  0  0  0  0  0  0  0  0  0  0
   -1.5047   -1.1835   -2.7310 C   0  0  0  0  0  0  0  0  0  0  0  0
   -2.0538   -0.1125   -2.5361 O   0  0  0  0  0  0  0  0  0  0  0  0
   -2.0199   -2.1430   -3.5330 O   0  0  0  0  0  0  0  0  0  0  0  0
   -2.8422   -1.7744   -3.8898 H   0  0  0  0  0  0  0  0  0  0  0  0
   -0.4055    1.1731    0.7132 C   0  0  0  0  0  0  0  0  0  0  0  0
   -1.3566    1.8529    0.3492 O   0  0  0  0  0  0  0  0  0  0  0  0
    0.5248    1.7261    1.5744 N   0  0  0  0  0  0  0  0  0  0  0  0
    1.2601    1.1203    1.9265 H   0  0  0  0  0  0  0  0  0  0  0  0
    0.4334    3.0922    2.0762 C   0  0  0  0  0  0  0  0  0  0  0  0
   -0.4927    3.2309    2.6439 H   0  0  0  0  0  0  0  0  0  0  0  0
    1.2792    3.3120    2.7347 H   0  0  0  0  0  0  0  0  0  0  0  0
    0.4473    3.8062    1.2459 H   0  0  0  0  0  0  0  0  0  0  0  0
  1  2  1  0  0  0  0
  2  3  1  0  0  0  0
  2  4  1  0  0  0  0
  2  5  1  0  0  0  0
  5  6  2  0  0  0  0
  5  7  1  0  0  0  0
  7  8  1  0  0  0  0
  7  9  1  0  0  0  0
  9 10  1  0  0  0  0
  9 11  1  0  0  0  0
  9 21  1  0  0  0  0
 11 12  1  0  0  0  0
 11 13  1  0  0  0  0
 11 14  1  0  0  0  0
 14 15  1  0  0  0  0
 14 16  1  0  0  0  0
 14 17  1  0  0  0  0
 17 18  2  0  0  0  0
 17 19  1  0  0  0  0
 19 20  1  0  0  0  0
 21 22  2  0  0  0  0
 21 23  1  0  0  0  0
 23 24  1  0  0  0  0
 23 25  1  0  0  0  0
 25 26  1  0  0  0  0
 25 27  1  0  0  0  0
 25 28  1  0  0  0  0
M  END
$$$$

  -OEChem-02102214123D

 28 27  0     1  0  0  0  0  0999 V2000
   -3.2428   -3.8329    1.4772 H   0  0  0  0  0  0  0  0  0  0  0  0
   -3.2382   -2.8512    0.9958 C   0  0  0  0  0  0  0  0  0  0  0  0
   -3.9479   -2.2003    1.5119 H   0  0  0  0  0  0  0  0  0  0  0  0
   -3.5518   -2.9671   -0.0449 H   0  0  0  0  0  0  0  0  0  0  0  0
   -1.8489   -2.2465    1.0504 C   0  0  0  0  0  0  0  0  0  0  0  0
   -0.9448   -2.8315    1.6266 O   0  0  0  0  0  0  0  0  0  0  0  0
   -1.6044   -1.0456    0.4195 N   0  0  0  0  0  0  0  0  0  0  0  0
   -2.3804   -0.6249   -0.0918 H   0  0  0  0  0  0  0  0  0  0  0  0
   -0.2911   -0.3892    0.3113 C   0  0  1  0  0  0  0  0  0  0  0  0
    0.3813   -0.8244    1.0577 H   0  0  0  0  0  0  0  0  0  0  0  0
    0.3589   -0.5830   -1.0868 C   0  0  0  0  0  0  0  0  0  0  0  0
    0.3393    0.3614   -1.6438 H   0  0  0  0  0  0  0  0  0  0  0  0
    1.4137   -0.8271   -0.9240 H   0  0  0  0  0  0  0  0  0  0  0  0
   -0.2571   -1.6879   -1.9746 C   0  0  0  0  0  0  0  0  0  0  0  0
    0.5177   -2.0565   -2.6523 H   0  0  0  0  0  0  0  0  0  0  0  0
   -0.5895   -2.5481   -1.3886 H   0  0  0  0  0  0  0  0  0  0  0  0
   -1.3870   -1.1444   -2.8424 C   0  0  0  0  0  0  0  0  0  0  0  0
   -2.5372   -1.3344   -2.4800 O   0  0  0  0  0  0  0  0  0  0  0  0
   -1.0560   -0.4672   -3.9664 O   0  0  0  0  0  0  0  0  0  0  0  0
   -1.8941   -0.1831   -4.3621 H   0  0  0  0  0  0  0  0  0  0  0  0
   -0.4029    1.1169    0.6266 C   0  0  0  0  0  0  0  0  0  0  0  0
   -1.2973    1.7844    0.1208 O   0  0  0  0  0  0  0  0  0  0  0  0
    0.5193    1.7339    1.4518 N   0  0  0  0  0  0  0  0  0  0  0  0
    1.2042    1.1432    1.9148 H   0  0  0  0  0  0  0  0  0  0  0  0
    0.4451    3.1447    1.8132 C   0  0  0  0  0  0  0  0  0  0  0  0
   -0.4762    3.3494    2.3686 H   0  0  0  0  0  0  0  0  0  0  0  0
    1.2975    3.4207    2.4416 H   0  0  0  0  0  0  0  0  0  0  0  0
    0.4617    3.7722    0.9157 H   0  0  0  0  0  0  0  0  0  0  0  0
  1  2  1  0  0  0  0
  2  3  1  0  0  0  0
  2  4  1  0  0  0  0
  2  5  1  0  0  0  0
  5  6  2  0  0  0  0
  5  7  1  0  0  0  0
  7  8  1  0  0  0  0
  7  9  1  0  0  0  0
  9 10  1  0  0  0  0
  9 11  1  0  0  0  0
  9 21  1  0  0  0  0
 11 12  1  0  0  0  0
 11 13  1  0  0  0  0
 11 14  1  0  0  0  0
 14 15  1  0  0  0  0
 14 16  1  0  0  0  0
 14 17  1  0  0  0  0
 17 18  2  0  0  0  0
 17 19  1  0  0  0  0
 19 20  1  0  0  0  0
 21 22  2  0  0  0  0
 21 23  1  0  0  0  0
 23 24  1  0  0  0  0
 23 25  1  0  0  0  0
 25 26  1  0  0  0  0
 25 27  1  0  0  0  0
 25 28  1  0  0  0  0
M  END
$$$$

  -OEChem-02102214123D

 28 27  0     1  0  0  0  0  0999 V2000
   -3.2893   -3.7832    1.5672 H   0  0  0  0  0  0  0  0  0  0  0  0
   -3.2794   -2.8071    1.0744 C   0  0  0  0  0  0  0  0  0  0  0  0
   -3.9289   -2.1251    1.6286 H   0  0  0  0  0  0  0  0  0  0  0  0
   -3.6654   -2.9209    0.0582 H   0  0  0  0  0  0  0  0  0  0  0  0
   -1.8670   -2.2562    1.0315 C   0  0  0  0  0  0  0  0  0  0  0  0
   -0.9469   -2.8839    1.5320 O   0  0  0  0  0  0  0  0  0  0  0  0
   -1.6229   -1.0500    0.4095 N   0  0  0  0  0  0  0  0  0  0  0  0
   -2.4219   -0.5564    0.0124 H   0  0  0  0  0  0  0  0  0  0  0  0
   -0.3069   -0.4010    0.2884 C   0  0  1  0  0  0  0  0  0  0  0  0
    0.3679   -0.8457    1.0272 H   0  0  0  0  0  0  0  0  0  0  0  0
    0.3405   -0.5858   -1.1122 C   0  0  0  0  0  0  0  0  0  0  0  0
    0.3219    0.3683   -1.6526 H   0  0  0  0  0  0  0  0  0  0  0  0
    1.3965   -0.8270   -0.9520 H   0  0  0  0  0  0  0  0  0  0  0  0
   -0.2664   -1.6818   -2.0237 C   0  0  0  0  0  0  0  0  0  0  0  0
    0.5575   -2.2110   -2.5102 H   0  0  0  0  0  0  0  0  0  0  0  0
   -0.8241   -2.4407   -1.4730 H   0  0  0  0  0  0  0  0  0  0  0  0
   -1.1195   -1.0835   -3.1344 C   0  0  0  0  0  0  0  0  0  0  0  0
   -2.3320   -1.1713   -3.0361 O   0  0  0  0  0  0  0  0  0  0  0  0
   -0.4916   -0.4789   -4.1696 O   0  0  0  0  0  0  0  0  0  0  0  0
   -1.1963   -0.1537   -4.7504 H   0  0  0  0  0  0  0  0  0  0  0  0
   -0.4085    1.1022    0.6220 C   0  0  0  0  0  0  0  0  0  0  0  0
   -1.3265    1.7709    0.1627 O   0  0  0  0  0  0  0  0  0  0  0  0
    0.5276    1.7075    1.4401 N   0  0  0  0  0  0  0  0  0  0  0  0
    1.2420    1.1171    1.8563 H   0  0  0  0  0  0  0  0  0  0  0  0
    0.4658    3.1146    1.8176 C   0  0  0  0  0  0  0  0  0  0  0  0
   -0.4643    3.3267    2.3556 H   0  0  0  0  0  0  0  0  0  0  0  0
    1.3078    3.3700    2.4680 H   0  0  0  0  0  0  0  0  0  0  0  0
    0.5112    3.7521    0.9284 H   0  0  0  0  0  0  0  0  0  0  0  0
  1  2  1  0  0  0  0
  2  3  1  0  0  0  0
  2  4  1  0  0  0  0
  2  5  1  0  0  0  0
  5  6  2  0  0  0  0
  5  7  1  0  0  0  0
  7  8  1  0  0  0  0
  7  9  1  0  0  0  0
  9 10  1  0  0  0  0
  9 11  1  0  0  0  0
  9 21  1  0  0  0  0
 11 12  1  0  0  0  0
 11 13  1  0  0  0  0
 11 14  1  0  0  0  0
 14 15  1  0  0  0  0
 14 16  1  0  0  0  0
 14 17  1  0  0  0  0
 17 18  2  0  0  0  0
 17 19  1  0  0  0  0
 19 20  1  0  0  0  0
 21 22  2  0  0  0  0
 21 23  1  0  0  0  0
 23 24  1  0  0  0  0
 23 25  1  0  0  0  0
 25 26  1  0  0  0  0
 25 27  1  0  0  0  0
 25 28  1  0  0  0  0
M  END
$$$$

  -OEChem-02102214123D

 28 27  0     1  0  0  0  0  0999 V2000
   -3.2122   -3.8553    1.4139 H   0  0  0  0  0  0  0  0  0  0  0  0
   -3.2157   -2.8690    0.9419 C   0  0  0  0  0  0  0  0  0  0  0  0
   -3.8717   -2.2073    1.5124 H   0  0  0  0  0  0  0  0  0  0  0  0
   -3.6030   -2.9666   -0.0752 H   0  0  0  0  0  0  0  0  0  0  0  0
   -1.8102   -2.3006    0.9073 C   0  0  0  0  0  0  0  0  0  0  0  0
   -0.8817   -2.9317    1.3869 O   0  0  0  0  0  0  0  0  0  0  0  0
   -1.5835   -1.0737    0.3193 N   0  0  0  0  0  0  0  0  0  0  0  0
   -2.3942   -0.5555   -0.0171 H   0  0  0  0  0  0  0  0  0  0  0  0
   -0.2844   -0.3841    0.2693 C   0  0  1  0  0  0  0  0  0  0  0  0
    0.3616   -0.8195    1.0389 H   0  0  0  0  0  0  0  0  0  0  0  0
    0.4602   -0.5221   -1.0887 C   0  0  0  0  0  0  0  0  0  0  0  0
    0.4151    0.4444   -1.6050 H   0  0  0  0  0  0  0  0  0  0  0  0
    1.5185   -0.7024   -0.8735 H   0  0  0  0  0  0  0  0  0  0  0  0
   -0.0260   -1.6184   -2.0759 C   0  0  0  0  0  0  0  0  0  0  0  0
    0.8048   -2.3004   -2.2780 H   0  0  0  0  0  0  0  0  0  0  0  0
   -0.8309   -2.2339   -1.6752 H   0  0  0  0  0  0  0  0  0  0  0  0
   -0.4816   -1.0253   -3.4036 C   0  0  0  0  0  0  0  0  0  0  0  0
    0.3637   -0.5868   -4.1655 O   0  0  0  0  0  0  0  0  0  0  0  0
   -1.8102   -0.9972   -3.6605 O   0  0  0  0  0  0  0  0  0  0  0  0
   -1.9021   -0.5672   -4.5243 H   0  0  0  0  0  0  0  0  0  0  0  0
   -0.4553    1.1065    0.6297 C   0  0  0  0  0  0  0  0  0  0  0  0
   -1.3978    1.7407    0.1702 O   0  0  0  0  0  0  0  0  0  0  0  0
    0.4204    1.7270    1.5014 N   0  0  0  0  0  0  0  0  0  0  0  0
    1.1567    1.1612    1.9136 H   0  0  0  0  0  0  0  0  0  0  0  0
    0.2834    3.1187    1.9141 C   0  0  0  0  0  0  0  0  0  0  0  0
   -0.6595    3.2681    2.4506 H   0  0  0  0  0  0  0  0  0  0  0  0
    1.1073    3.4005    2.5768 H   0  0  0  0  0  0  0  0  0  0  0  0
    0.3010    3.7808    1.0419 H   0  0  0  0  0  0  0  0  0  0  0  0
  1  2  1  0  0  0  0
  2  3  1  0  0  0  0
  2  4  1  0  0  0  0
  2  5  1  0  0  0  0
  5  6  2  0  0  0  0
  5  7  1  0  0  0  0
  7  8  1  0  0  0  0
  7  9  1  0  0  0  0
  9 10  1  0  0  0  0
  9 11  1  0  0  0  0
  9 21  1  0  0  0  0
 11 12  1  0  0  0  0
 11 13  1  0  0  0  0
 11 14  1  0  0  0  0
 14 15  1  0  0  0  0
 14 16  1  0  0  0  0
 14 17  1  0  0  0  0
 17 18  2  0  0  0  0
 17 19  1  0  0  0  0
 19 20  1  0  0  0  0
 21 22  2  0  0  0  0
 21 23  1  0  0  0  0
 23 24  1  0  0  0  0
 23 25  1  0  0  0  0
 25 26  1  0  0  0  0
 25 27  1  0  0  0  0
 25 28  1  0  0  0  0
M  END
$$$$

  -OEChem-02102214123D

 28 27  0     1  0  0  0  0  0999 V2000
   -3.2332   -3.8094    1.4761 H   0  0  0  0  0  0  0  0  0  0  0  0
   -3.2361   -2.8235    1.0029 C   0  0  0  0  0  0  0  0  0  0  0  0
   -3.8530   -2.1471    1.5994 H   0  0  0  0  0  0  0  0  0  0  0  0
   -3.6686   -2.9145    0.0035 H   0  0  0  0  0  0  0  0  0  0  0  0
   -1.8215   -2.2845    0.9083 C   0  0  0  0  0  0  0  0  0  0  0  0
   -0.8874   -2.9350    1.3495 O   0  0  0  0  0  0  0  0  0  0  0  0
   -1.5961   -1.0573    0.3209 N   0  0  0  0  0  0  0  0  0  0  0  0
   -2.4116   -0.5129    0.0427 H   0  0  0  0  0  0  0  0  0  0  0  0
   -0.2925   -0.3779    0.2571 C   0  0  1  0  0  0  0  0  0  0  0  0
    0.3537   -0.8179    1.0238 H   0  0  0  0  0  0  0  0  0  0  0  0
    0.4525   -0.5296   -1.0994 C   0  0  0  0  0  0  0  0  0  0  0  0
    0.3729    0.4330   -1.6187 H   0  0  0  0  0  0  0  0  0  0  0  0
    1.5184   -0.6855   -0.9028 H   0  0  0  0  0  0  0  0  0  0  0  0
   -0.0363   -1.6299   -2.0821 C   0  0  0  0  0  0  0  0  0  0  0  0
    0.6512   -2.4794   -2.0466 H   0  0  0  0  0  0  0  0  0  0  0  0
   -1.0217   -2.0126   -1.8186 H   0  0  0  0  0  0  0  0  0  0  0  0
   -0.1351   -1.1233   -3.5182 C   0  0  0  0  0  0  0  0  0  0  0  0
    0.8531   -0.6231   -4.0295 O   0  0  0  0  0  0  0  0  0  0  0  0
   -1.3226   -1.2519   -4.1547 O   0  0  0  0  0  0  0  0  0  0  0  0
   -1.1912   -0.8730   -5.0370 H   0  0  0  0  0  0  0  0  0  0  0  0
   -0.4491    1.1124    0.6244 C   0  0  0  0  0  0  0  0  0  0  0  0
   -1.4073    1.7467    0.1984 O   0  0  0  0  0  0  0  0  0  0  0  0
    0.4413    1.7237    1.4874 N   0  0  0  0  0  0  0  0  0  0  0  0
    1.1867    1.1541    1.8776 H   0  0  0  0  0  0  0  0  0  0  0  0
    0.3006    3.1047    1.9328 C   0  0  0  0  0  0  0  0  0  0  0  0
   -0.6304    3.2321    2.4950 H   0  0  0  0  0  0  0  0  0  0  0  0
    1.1376    3.3804    2.5814 H   0  0  0  0  0  0  0  0  0  0  0  0
    0.2905    3.7855    1.0749 H   0  0  0  0  0  0  0  0  0  0  0  0
  1  2  1  0  0  0  0
  2  3  1  0  0  0  0
  2  4  1  0  0  0  0
  2  5  1  0  0  0  0
  5  6  2  0  0  0  0
  5  7  1  0  0  0  0
  7  8  1  0  0  0  0
  7  9  1  0  0  0  0
  9 10  1  0  0  0  0
  9 11  1  0  0  0  0
  9 21  1  0  0  0  0
 11 12  1  0  0  0  0
 11 13  1  0  0  0  0
 11 14  1  0  0  0  0
 14 15  1  0  0  0  0
 14 16  1  0  0  0  0
 14 17  1  0  0  0  0
 17 18  2  0  0  0  0
 17 19  1  0  0  0  0
 19 20  1  0  0  0  0
 21 22  2  0  0  0  0
 21 23  1  0  0  0  0
 23 24  1  0  0  0  0
 23 25  1  0  0  0  0
 25 26  1  0  0  0  0
 25 27  1  0  0  0  0
 25 28  1  0  0  0  0
M  END
$$$$

  -OEChem-02102214123D

 28 27  0     1  0  0  0  0  0999 V2000
   -3.2459   -3.7771    1.4959 H   0  0  0  0  0  0  0  0  0  0  0  0
   -3.2451   -2.7994    1.0060 C   0  0  0  0  0  0  0  0  0  0  0  0
   -3.8510   -2.1086    1.5974 H   0  0  0  0  0  0  0  0  0  0  0  0
   -3.6872   -2.9027    0.0121 H   0  0  0  0  0  0  0  0  0  0  0  0
   -1.8271   -2.2743    0.8891 C   0  0  0  0  0  0  0  0  0  0  0  0
   -0.8917   -2.9394    1.3051 O   0  0  0  0  0  0  0  0  0  0  0  0
   -1.5998   -1.0422    0.3125 N   0  0  0  0  0  0  0  0  0  0  0  0
   -2.4152   -0.4841    0.0626 H   0  0  0  0  0  0  0  0  0  0  0  0
   -0.2928   -0.3679    0.2538 C   0  0  1  0  0  0  0  0  0  0  0  0
    0.3510   -0.8179    1.0164 H   0  0  0  0  0  0  0  0  0  0  0  0
    0.4477   -0.5204   -1.1035 C   0  0  0  0  0  0  0  0  0  0  0  0
    0.3557    0.4387   -1.6269 H   0  0  0  0  0  0  0  0  0  0  0  0
    1.5158   -0.6769   -0.9191 H   0  0  0  0  0  0  0  0  0  0  0  0
   -0.0655   -1.6189   -2.0716 C   0  0  0  0  0  0  0  0  0  0  0  0
    0.4133   -2.5735   -1.8376 H   0  0  0  0  0  0  0  0  0  0  0  0
   -1.1424   -1.7583   -1.9673 H   0  0  0  0  0  0  0  0  0  0  0  0
    0.1624   -1.2713   -3.5417 C   0  0  0  0  0  0  0  0  0  0  0  0
    1.1910   -0.6991   -3.8641 O   0  0  0  0  0  0  0  0  0  0  0  0
   -0.7980   -1.6320   -4.4245 O   0  0  0  0  0  0  0  0  0  0  0  0
   -0.4823   -1.3383   -5.2924 H   0  0  0  0  0  0  0  0  0  0  0  0
   -0.4382    1.1199    0.6347 C   0  0  0  0  0  0  0  0  0  0  0  0
   -1.3979    1.7613    0.2231 O   0  0  0  0  0  0  0  0  0  0  0  0
    0.4573    1.7182    1.5015 N   0  0  0  0  0  0  0  0  0  0  0  0
    1.2106    1.1457    1.8721 H   0  0  0  0  0  0  0  0  0  0  0  0
    0.3294    3.0981    1.9551 C   0  0  0  0  0  0  0  0  0  0  0  0
   -0.6089    3.2360    2.5028 H   0  0  0  0  0  0  0  0  0  0  0  0
    1.1592    3.3570    2.6198 H   0  0  0  0  0  0  0  0  0  0  0  0
    0.3431    3.7852    1.1024 H   0  0  0  0  0  0  0  0  0  0  0  0
  1  2  1  0  0  0  0
  2  3  1  0  0  0  0
  2  4  1  0  0  0  0
  2  5  1  0  0  0  0
  5  6  2  0  0  0  0
  5  7  1  0  0  0  0
  7  8  1  0  0  0  0
  7  9  1  0  0  0  0
  9 10  1  0  0  0  0
  9 11  1  0  0  0  0
  9 21  1  0  0  0  0
 11 12  1  0  0  0  0
 11 13  1  0  0  0  0
 11 14  1  0  0  0  0
 14 15  1  0  0  0  0
 14 16  1  0  0  0  0
 14 17  1  0  0  0  0
 17 18  2  0  0  0  0
 17 19  1  0  0  0  0
 19 20  1  0  0  0  0
 21 22  2  0  0  0  0
 21 23  1  0  0  0  0
 23 24  1  0  0  0  0
 23 25  1  0  0  0  0
 25 26  1  0  0  0  0
 25 27  1  0  0  0  0
 25 28  1  0  0  0  0
M  END
$$$$

  -OEChem-02102214123D

 28 27  0     1  0  0  0  0  0999 V2000
   -3.2556   -3.7627    1.4624 H   0  0  0  0  0  0  0  0  0  0  0  0
   -3.2466   -2.7865    0.9696 C   0  0  0  0  0  0  0  0  0  0  0  0
   -3.8567   -2.0921    1.5523 H   0  0  0  0  0  0  0  0  0  0  0  0
   -3.6784   -2.8915   -0.0286 H   0  0  0  0  0  0  0  0  0  0  0  0
   -1.8260   -2.2656    0.8660 C   0  0  0  0  0  0  0  0  0  0  0  0
   -0.8952   -2.9381    1.2803 O   0  0  0  0  0  0  0  0  0  0  0  0
   -1.5914   -1.0299    0.3003 N   0  0  0  0  0  0  0  0  0  0  0  0
   -2.4039   -0.4664    0.0534 H   0  0  0  0  0  0  0  0  0  0  0  0
   -0.2822   -0.3580    0.2568 C   0  0  1  0  0  0  0  0  0  0  0  0
    0.3591   -0.8166    1.0165 H   0  0  0  0  0  0  0  0  0  0  0  0
    0.4499   -0.5047   -1.1033 C   0  0  0  0  0  0  0  0  0  0  0  0
    0.3724    0.4530   -1.6319 H   0  0  0  0  0  0  0  0  0  0  0  0
    1.5146   -0.6847   -0.9201 H   0  0  0  0  0  0  0  0  0  0  0  0
   -0.0968   -1.5978   -2.0533 C   0  0  0  0  0  0  0  0  0  0  0  0
    0.1624   -2.5871   -1.6662 H   0  0  0  0  0  0  0  0  0  0  0  0
   -1.1858   -1.5327   -2.1094 H   0  0  0  0  0  0  0  0  0  0  0  0
    0.4088   -1.4660   -3.4897 C   0  0  0  0  0  0  0  0  0  0  0  0
    1.4391   -0.8513   -3.7148 O   0  0  0  0  0  0  0  0  0  0  0  0
   -0.3271   -2.0633   -4.4553 O   0  0  0  0  0  0  0  0  0  0  0  0
    0.1369   -1.8873   -5.2878 H   0  0  0  0  0  0  0  0  0  0  0  0
   -0.4228    1.1278    0.6467 C   0  0  0  0  0  0  0  0  0  0  0  0
   -1.3748    1.7774    0.2301 O   0  0  0  0  0  0  0  0  0  0  0  0
    0.4694    1.7157    1.5240 N   0  0  0  0  0  0  0  0  0  0  0  0
    1.2191    1.1379    1.8933 H   0  0  0  0  0  0  0  0  0  0  0  0
    0.3528    3.0967    1.9770 C   0  0  0  0  0  0  0  0  0  0  0  0
   -0.5916    3.2469    2.5107 H   0  0  0  0  0  0  0  0  0  0  0  0
    1.1758    3.3440    2.6545 H   0  0  0  0  0  0  0  0  0  0  0  0
    0.3891    3.7836    1.1248 H   0  0  0  0  0  0  0  0  0  0  0  0
  1  2  1  0  0  0  0
  2  3  1  0  0  0  0
  2  4  1  0  0  0  0
  2  5  1  0  0  0  0
  5  6  2  0  0  0  0
  5  7  1  0  0  0  0
  7  8  1  0  0  0  0
  7  9  1  0  0  0  0
  9 10  1  0  0  0  0
  9 11  1  0  0  0  0
  9 21  1  0  0  0  0
 11 12  1  0  0  0  0
 11 13  1  0  0  0  0
 11 14  1  0  0  0  0
 14 15  1  0  0  0  0
 14 16  1  0  0  0  0
 14 17  1  0  0  0  0
 17 18  2  0  0  0  0
 17 19  1  0  0  0  0
 19 20  1  0  0  0  0
 21 22  2  0  0  0  0
 21 23  1  0  0  0  0
 23 24  1  0  0  0  0
 23 25  1  0  0  0  0
 25 26  1  0  0  0  0
 25 27  1  0  0  0  0
 25 28  1  0  0  0  0
M  END
$$$$

  -OEChem-02102214123D

 28 27  0     1  0  0  0  0  0999 V2000
   -3.2646   -3.7508    1.4435 H   0  0  0  0  0  0  0  0  0  0  0  0
   -3.2444   -2.7766    0.9474 C   0  0  0  0  0  0  0  0  0  0  0  0
   -3.8627   -2.0787    1.5171 H   0  0  0  0  0  0  0  0  0  0  0  0
   -3.6594   -2.8839   -0.0576 H   0  0  0  0  0  0  0  0  0  0  0  0
   -1.8206   -2.2608    0.8657 C   0  0  0  0  0  0  0  0  0  0  0  0
   -0.8981   -2.9360    1.2937 O   0  0  0  0  0  0  0  0  0  0  0  0
   -1.5722   -1.0274    0.3021 N   0  0  0  0  0  0  0  0  0  0  0  0
   -2.3774   -0.4582    0.0445 H   0  0  0  0  0  0  0  0  0  0  0  0
   -0.2560   -0.3678    0.2652 C   0  0  1  0  0  0  0  0  0  0  0  0
    0.3927   -0.8277    1.0182 H   0  0  0  0  0  0  0  0  0  0  0  0
    0.4528   -0.4956   -1.1093 C   0  0  0  0  0  0  0  0  0  0  0  0
    0.6683    0.5047   -1.5028 H   0  0  0  0  0  0  0  0  0  0  0  0
    1.4163   -0.9920   -0.9499 H   0  0  0  0  0  0  0  0  0  0  0  0
   -0.3314   -1.2802   -2.1857 C   0  0  0  0  0  0  0  0  0  0  0  0
   -0.5233   -2.2959   -1.8286 H   0  0  0  0  0  0  0  0  0  0  0  0
   -1.2940   -0.7927   -2.3626 H   0  0  0  0  0  0  0  0  0  0  0  0
    0.3935   -1.3876   -3.5271 C   0  0  0  0  0  0  0  0  0  0  0  0
    1.5049   -0.9016   -3.6640 O   0  0  0  0  0  0  0  0  0  0  0  0
   -0.2615   -2.0347   -4.5181 O   0  0  0  0  0  0  0  0  0  0  0  0
    0.3303   -2.0103   -5.2851 H   0  0  0  0  0  0  0  0  0  0  0  0
   -0.4046    1.1168    0.6585 C   0  0  0  0  0  0  0  0  0  0  0  0
   -1.3498    1.7676    0.2276 O   0  0  0  0  0  0  0  0  0  0  0  0
    0.4781    1.7064    1.5445 N   0  0  0  0  0  0  0  0  0  0  0  0
    1.2244    1.1295    1.9223 H   0  0  0  0  0  0  0  0  0  0  0  0
    0.3572    3.0890    1.9916 C   0  0  0  0  0  0  0  0  0  0  0  0
   -0.6000    3.2453    2.5004 H   0  0  0  0  0  0  0  0  0  0  0  0
    1.1635    3.3332    2.6898 H   0  0  0  0  0  0  0  0  0  0  0  0
    0.4190    3.7738    1.1392 H   0  0  0  0  0  0  0  0  0  0  0  0
  1  2  1  0  0  0  0
  2  3  1  0  0  0  0
  2  4  1  0  0  0  0
  2  5  1  0  0  0  0
  5  6  2  0  0  0  0
  5  7  1  0  0  0  0
  7  8  1  0  0  0  0
  7  9  1  0  0  0  0
  9 10  1  0  0  0  0
  9 11  1  0  0  0  0
  9 21  1  0  0  0  0
 11 12  1  0  0  0  0
 11 13  1  0  0  0  0
 11 14  1  0  0  0  0
 14 15  1  0  0  0  0
 14 16  1  0  0  0  0
 14 17  1  0  0  0  0
 17 18  2  0  0  0  0
 17 19  1  0  0  0  0
 19 20  1  0  0  0  0
 21 22  2  0  0  0  0
 21 23  1  0  0  0  0
 23 24  1  0  0  0  0
 23 25  1  0  0  0  0
 25 26  1  0  0  0  0
 25 27  1  0  0  0  0
 25 28  1  0  0  0  0
M  END
$$$$

  -OEChem-02102214123D

 28 27  0     1  0  0  0  0  0999 V2000
   -3.2898   -3.7376    1.4595 H   0  0  0  0  0  0  0  0  0  0  0  0
   -3.2664   -2.7676    0.9552 C   0  0  0  0  0  0  0  0  0  0  0  0
   -3.8808   -2.0626    1.5204 H   0  0  0  0  0  0  0  0  0  0  0  0
   -3.6838   -2.8819   -0.0480 H   0  0  0  0  0  0  0  0  0  0  0  0
   -1.8406   -2.2579    0.8667 C   0  0  0  0  0  0  0  0  0  0  0  0
   -0.9193   -2.9388    1.2877 O   0  0  0  0  0  0  0  0  0  0  0  0
   -1.5889   -1.0230    0.3068 N   0  0  0  0  0  0  0  0  0  0  0  0
   -2.3924   -0.4498    0.0527 H   0  0  0  0  0  0  0  0  0  0  0  0
   -0.2691   -0.3707    0.2659 C   0  0  1  0  0  0  0  0  0  0  0  0
    0.3799   -0.8373    1.0147 H   0  0  0  0  0  0  0  0  0  0  0  0
    0.4383   -0.4877   -1.1110 C   0  0  0  0  0  0  0  0  0  0  0  0
    0.6792    0.5095   -1.4974 H   0  0  0  0  0  0  0  0  0  0  0  0
    1.3908   -1.0007   -0.9379 H   0  0  0  0  0  0  0  0  0  0  0  0
   -0.3378   -1.2579   -2.2062 C   0  0  0  0  0  0  0  0  0  0  0  0
   -0.7310   -2.1891   -1.7908 H   0  0  0  0  0  0  0  0  0  0  0  0
   -1.1825   -0.6562   -2.5526 H   0  0  0  0  0  0  0  0  0  0  0  0
    0.5203   -1.6575   -3.4070 C   0  0  0  0  0  0  0  0  0  0  0  0
    1.6332   -1.1765   -3.5490 O   0  0  0  0  0  0  0  0  0  0  0  0
   -0.0246   -2.5381   -4.2773 O   0  0  0  0  0  0  0  0  0  0  0  0
    0.6429   -2.6750   -4.9665 H   0  0  0  0  0  0  0  0  0  0  0  0
   -0.4074    1.1128    0.6665 C   0  0  0  0  0  0  0  0  0  0  0  0
   -1.3485    1.7731    0.2412 O   0  0  0  0  0  0  0  0  0  0  0  0
    0.4840    1.6919    1.5505 N   0  0  0  0  0  0  0  0  0  0  0  0
    1.2313    1.1094    1.9177 H   0  0  0  0  0  0  0  0  0  0  0  0
    0.3817    3.0764    1.9961 C   0  0  0  0  0  0  0  0  0  0  0  0
   -0.5725    3.2457    2.5063 H   0  0  0  0  0  0  0  0  0  0  0  0
    1.1924    3.3114    2.6925 H   0  0  0  0  0  0  0  0  0  0  0  0
    0.4508    3.7592    1.1425 H   0  0  0  0  0  0  0  0  0  0  0  0
  1  2  1  0  0  0  0
  2  3  1  0  0  0  0
  2  4  1  0  0  0  0
  2  5  1  0  0  0  0
  5  6  2  0  0  0  0
  5  7  1  0  0  0  0
  7  8  1  0  0  0  0
  7  9  1  0  0  0  0
  9 10  1  0  0  0  0
  9 11  1  0  0  0  0
  9 21  1  0  0  0  0
 11 12  1  0  0  0  0
 11 13  1  0  0  0  0
 11 14  1  0  0  0  0
 14 15  1  0  0  0  0
 14 16  1  0  0  0  0
 14 17  1  0  0  0  0
 17 18  2  0  0  0  0
 17 19  1  0  0  0  0
 19 20  1  0  0  0  0
 21 22  2  0  0  0  0
 21 23  1  0  0  0  0
 23 24  1  0  0  0  0
 23 25  1  0  0  0  0
 25 26  1  0  0  0  0
 25 27  1  0  0  0  0
 25 28  1  0  0  0  0
M  END
$$$$

  -OEChem-02102214123D

 28 27  0     1  0  0  0  0  0999 V2000
   -3.3198   -3.7221    1.4719 H   0  0  0  0  0  0  0  0  0  0  0  0
   -3.2943   -2.7495    0.9724 C   0  0  0  0  0  0  0  0  0  0  0  0
   -3.8975   -2.0426    1.5472 H   0  0  0  0  0  0  0  0  0  0  0  0
   -3.7226   -2.8555   -0.0272 H   0  0  0  0  0  0  0  0  0  0  0  0
   -1.8654   -2.2505    0.8728 C   0  0  0  0  0  0  0  0  0  0  0  0
   -0.9464   -2.9378    1.2886 O   0  0  0  0  0  0  0  0  0  0  0  0
   -1.6082   -1.0164    0.3132 N   0  0  0  0  0  0  0  0  0  0  0  0
   -2.4089   -0.4353    0.0685 H   0  0  0  0  0  0  0  0  0  0  0  0
   -0.2834   -0.3764    0.2611 C   0  0  1  0  0  0  0  0  0  0  0  0
    0.3650   -0.8490    1.0064 H   0  0  0  0  0  0  0  0  0  0  0  0
    0.4253   -0.4864   -1.1181 C   0  0  0  0  0  0  0  0  0  0  0  0
    0.6888    0.5096   -1.4923 H   0  0  0  0  0  0  0  0  0  0  0  0
    1.3691   -1.0100   -0.9297 H   0  0  0  0  0  0  0  0  0  0  0  0
   -0.3306   -1.2396   -2.2441 C   0  0  0  0  0  0  0  0  0  0  0  0
   -0.9405   -2.0405   -1.8226 H   0  0  0  0  0  0  0  0  0  0  0  0
   -0.9981   -0.5505   -2.7681 H   0  0  0  0  0  0  0  0  0  0  0  0
    0.5937   -1.9270   -3.2495 C   0  0  0  0  0  0  0  0  0  0  0  0
    1.7138   -1.4817   -3.4416 O   0  0  0  0  0  0  0  0  0  0  0  0
    0.0997   -3.0039   -3.9030 O   0  0  0  0  0  0  0  0  0  0  0  0
    0.8089   -3.3031   -4.4919 H   0  0  0  0  0  0  0  0  0  0  0  0
   -0.4096    1.1067    0.6675 C   0  0  0  0  0  0  0  0  0  0  0  0
   -1.3537    1.7723    0.2575 O   0  0  0  0  0  0  0  0  0  0  0  0
    0.4931    1.6776    1.5453 N   0  0  0  0  0  0  0  0  0  0  0  0
    1.2386    1.0887    1.9057 H   0  0  0  0  0  0  0  0  0  0  0  0
    0.3958    3.0571    2.0074 C   0  0  0  0  0  0  0  0  0  0  0  0
   -0.5520    3.2206    2.5311 H   0  0  0  0  0  0  0  0  0  0  0  0
    1.2146    3.2843    2.6968 H   0  0  0  0  0  0  0  0  0  0  0  0
    0.4541    3.7500    1.1614 H   0  0  0  0  0  0  0  0  0  0  0  0
  1  2  1  0  0  0  0
  2  3  1  0  0  0  0
  2  4  1  0  0  0  0
  2  5  1  0  0  0  0
  5  6  2  0  0  0  0
  5  7  1  0  0  0  0
  7  8  1  0  0  0  0
  7  9  1  0  0  0  0
  9 10  1  0  0  0  0
  9 11  1  0  0  0  0
  9 21  1  0  0  0  0
 11 12  1  0  0  0  0
 11 13  1  0  0  0  0
 11 14  1  0  0  0  0
 14 15  1  0  0  0  0
 14 16  1  0  0  0  0
 14 17  1  0  0  0  0
 17 18  2  0  0  0  0
 17 19  1  0  0  0  0
 19 20  1  0  0  0  0
 21 22  2  0  0  0  0
 21 23  1  0  0  0  0
 23 24  1  0  0  0  0
 23 25  1  0  0  0  0
 25 26  1  0  0  0  0
 25 27  1  0  0  0  0
 25 28  1  0  0  0  0
M  END
$$$$

  -OEChem-02102214123D

 28 27  0     1  0  0  0  0  0999 V2000
   -3.3407   -3.7146    1.4595 H   0  0  0  0  0  0  0  0  0  0  0  0
   -3.3116   -2.7400    0.9644 C   0  0  0  0  0  0  0  0  0  0  0  0
   -3.9139   -2.0337    1.5410 H   0  0  0  0  0  0  0  0  0  0  0  0
   -3.7382   -2.8403   -0.0365 H   0  0  0  0  0  0  0  0  0  0  0  0
   -1.8811   -2.2447    0.8691 C   0  0  0  0  0  0  0  0  0  0  0  0
   -0.9640   -2.9363    1.2821 O   0  0  0  0  0  0  0  0  0  0  0  0
   -1.6207   -1.0089    0.3150 N   0  0  0  0  0  0  0  0  0  0  0  0
   -2.4194   -0.4249    0.0707 H   0  0  0  0  0  0  0  0  0  0  0  0
   -0.2935   -0.3765    0.2584 C   0  0  1  0  0  0  0  0  0  0  0  0
    0.3536   -0.8550    1.0011 H   0  0  0  0  0  0  0  0  0  0  0  0
    0.4185   -0.4845   -1.1210 C   0  0  0  0  0  0  0  0  0  0  0  0
    0.6819    0.5149   -1.4853 H   0  0  0  0  0  0  0  0  0  0  0  0
    1.3664   -0.9980   -0.9257 H   0  0  0  0  0  0  0  0  0  0  0  0
   -0.3177   -1.2280   -2.2726 C   0  0  0  0  0  0  0  0  0  0  0  0
   -1.1454   -1.8312   -1.8997 H   0  0  0  0  0  0  0  0  0  0  0  0
   -0.7407   -0.4972   -2.9669 H   0  0  0  0  0  0  0  0  0  0  0  0
    0.5844   -2.1909   -3.0439 C   0  0  0  0  0  0  0  0  0  0  0  0
    1.7242   -1.8487   -3.3146 O   0  0  0  0  0  0  0  0  0  0  0  0
    0.0566   -3.3814   -3.4121 O   0  0  0  0  0  0  0  0  0  0  0  0
    0.7630   -3.8501   -3.8815 H   0  0  0  0  0  0  0  0  0  0  0  0
   -0.4121    1.1047    0.6742 C   0  0  0  0  0  0  0  0  0  0  0  0
   -1.3519    1.7786    0.2678 O   0  0  0  0  0  0  0  0  0  0  0  0
    0.4974    1.6671    1.5505 N   0  0  0  0  0  0  0  0  0  0  0  0
    1.2396    1.0720    1.9075 H   0  0  0  0  0  0  0  0  0  0  0  0
    0.4043    3.0427    2.0246 C   0  0  0  0  0  0  0  0  0  0  0  0
   -0.5409    3.2026    2.5544 H   0  0  0  0  0  0  0  0  0  0  0  0
    1.2271    3.2630    2.7116 H   0  0  0  0  0  0  0  0  0  0  0  0
    0.4597    3.7423    1.1836 H   0  0  0  0  0  0  0  0  0  0  0  0
  1  2  1  0  0  0  0
  2  3  1  0  0  0  0
  2  4  1  0  0  0  0
  2  5  1  0  0  0  0
  5  6  2  0  0  0  0
  5  7  1  0  0  0  0
  7  8  1  0  0  0  0
  7  9  1  0  0  0  0
  9 10  1  0  0  0  0
  9 11  1  0  0  0  0
  9 21  1  0  0  0  0
 11 12  1  0  0  0  0
 11 13  1  0  0  0  0
 11 14  1  0  0  0  0
 14 15  1  0  0  0  0
 14 16  1  0  0  0  0
 14 17  1  0  0  0  0
 17 18  2  0  0  0  0
 17 19  1  0  0  0  0
 19 20  1  0  0  0  0
 21 22  2  0  0  0  0
 21 23  1  0  0  0  0
 23 24  1  0  0  0  0
 23 25  1  0  0  0  0
 25 26  1  0  0  0  0
 25 27  1  0  0  0  0
 25 28  1  0  0  0  0
M  END
$$$$

  -OEChem-02102214123D

 28 27  0     1  0  0  0  0  0999 V2000
   -3.3395   -3.7234    1.4025 H   0  0  0  0  0  0  0  0  0  0  0  0
   -3.3096   -2.7430    0.9188 C   0  0  0  0  0  0  0  0  0  0  0  0
   -3.9223   -2.0463    1.4960 H   0  0  0  0  0  0  0  0  0  0  0  0
   -3.7230   -2.8343   -0.0886 H   0  0  0  0  0  0  0  0  0  0  0  0
   -1.8810   -2.2392    0.8467 C   0  0  0  0  0  0  0  0  0  0  0  0
   -0.9672   -2.9251    1.2765 O   0  0  0  0  0  0  0  0  0  0  0  0
   -1.6198   -0.9999    0.3011 N   0  0  0  0  0  0  0  0  0  0  0  0
   -2.4172   -0.4193    0.0457 H   0  0  0  0  0  0  0  0  0  0  0  0
   -0.2926   -0.3682    0.2517 C   0  0  1  0  0  0  0  0  0  0  0  0
    0.3500   -0.8519    0.9948 H   0  0  0  0  0  0  0  0  0  0  0  0
    0.4268   -0.4807   -1.1236 C   0  0  0  0  0  0  0  0  0  0  0  0
    0.6577    0.5270   -1.4871 H   0  0  0  0  0  0  0  0  0  0  0  0
    1.3930   -0.9619   -0.9378 H   0  0  0  0  0  0  0  0  0  0  0  0
   -0.3019   -1.2259   -2.2794 C   0  0  0  0  0  0  0  0  0  0  0  0
   -1.3013   -1.5629   -2.0066 H   0  0  0  0  0  0  0  0  0  0  0  0
   -0.4310   -0.5335   -3.1157 H   0  0  0  0  0  0  0  0  0  0  0  0
    0.4784   -2.4344   -2.7901 C   0  0  0  0  0  0  0  0  0  0  0  0
    1.6380   -2.2831   -3.1383 O   0  0  0  0  0  0  0  0  0  0  0  0
   -0.1682   -3.6220   -2.8397 O   0  0  0  0  0  0  0  0  0  0  0  0
    0.4817   -4.2646   -3.1620 H   0  0  0  0  0  0  0  0  0  0  0  0
   -0.4077    1.1108    0.6764 C   0  0  0  0  0  0  0  0  0  0  0  0
   -1.3441    1.7898    0.2708 O   0  0  0  0  0  0  0  0  0  0  0  0
    0.5015    1.6661    1.5577 N   0  0  0  0  0  0  0  0  0  0  0  0
    1.2343    1.0640    1.9226 H   0  0  0  0  0  0  0  0  0  0  0  0
    0.4010    3.0347    2.0506 C   0  0  0  0  0  0  0  0  0  0  0  0
   -0.5425    3.1805    2.5874 H   0  0  0  0  0  0  0  0  0  0  0  0
    1.2257    3.2527    2.7361 H   0  0  0  0  0  0  0  0  0  0  0  0
    0.4460    3.7459    1.2190 H   0  0  0  0  0  0  0  0  0  0  0  0
  1  2  1  0  0  0  0
  2  3  1  0  0  0  0
  2  4  1  0  0  0  0
  2  5  1  0  0  0  0
  5  6  2  0  0  0  0
  5  7  1  0  0  0  0
  7  8  1  0  0  0  0
  7  9  1  0  0  0  0
  9 10  1  0  0  0  0
  9 11  1  0  0  0  0
  9 21  1  0  0  0  0
 11 12  1  0  0  0  0
 11 13  1  0  0  0  0
 11 14  1  0  0  0  0
 14 15  1  0  0  0  0
 14 16  1  0  0  0  0
 14 17  1  0  0  0  0
 17 18  2  0  0  0  0
 17 19  1  0  0  0  0
 19 20  1  0  0  0  0
 21 22  2  0  0  0  0
 21 23  1  0  0  0  0
 23 24  1  0  0  0  0
 23 25  1  0  0  0  0
 25 26  1  0  0  0  0
 25 27  1  0  0  0  0
 25 28  1  0  0  0  0
M  END
$$$$

  -OEChem-02102214123D

 28 27  0     1  0  0  0  0  0999 V2000
   -3.3113   -3.7477    1.3291 H   0  0  0  0  0  0  0  0  0  0  0  0
   -3.2825   -2.7672    0.8460 C   0  0  0  0  0  0  0  0  0  0  0  0
   -3.9280   -2.0817    1.4004 H   0  0  0  0  0  0  0  0  0  0  0  0
   -3.6580   -2.8668   -0.1753 H   0  0  0  0  0  0  0  0  0  0  0  0
   -1.8615   -2.2380    0.8224 C   0  0  0  0  0  0  0  0  0  0  0  0
   -0.9501   -2.9107    1.2783 O   0  0  0  0  0  0  0  0  0  0  0  0
   -1.6031   -0.9950    0.2831 N   0  0  0  0  0  0  0  0  0  0  0  0
   -2.4007   -0.4266    0.0022 H   0  0  0  0  0  0  0  0  0  0  0  0
   -0.2796   -0.3538    0.2529 C   0  0  1  0  0  0  0  0  0  0  0  0
    0.3572   -0.8355    1.0024 H   0  0  0  0  0  0  0  0  0  0  0  0
    0.4486   -0.4765   -1.1158 C   0  0  0  0  0  0  0  0  0  0  0  0
    0.6437    0.5346   -1.4902 H   0  0  0  0  0  0  0  0  0  0  0  0
    1.4310   -0.9292   -0.9428 H   0  0  0  0  0  0  0  0  0  0  0  0
   -0.2887   -1.2372   -2.2519 C   0  0  0  0  0  0  0  0  0  0  0  0
   -1.3673   -1.2956   -2.1015 H   0  0  0  0  0  0  0  0  0  0  0  0
   -0.1474   -0.6788   -3.1816 H   0  0  0  0  0  0  0  0  0  0  0  0
    0.2811   -2.6313   -2.4915 C   0  0  0  0  0  0  0  0  0  0  0  0
    1.4578   -2.7455   -2.7935 O   0  0  0  0  0  0  0  0  0  0  0  0
   -0.5632   -3.6802   -2.3561 O   0  0  0  0  0  0  0  0  0  0  0  0
   -0.0247   -4.4729   -2.5001 H   0  0  0  0  0  0  0  0  0  0  0  0
   -0.4019    1.1243    0.6782 C   0  0  0  0  0  0  0  0  0  0  0  0
   -1.3298    1.8045    0.2557 O   0  0  0  0  0  0  0  0  0  0  0  0
    0.4959    1.6795    1.5711 N   0  0  0  0  0  0  0  0  0  0  0  0
    1.2177    1.0742    1.9521 H   0  0  0  0  0  0  0  0  0  0  0  0
    0.3876    3.0470    2.0653 C   0  0  0  0  0  0  0  0  0  0  0  0
   -0.5607    3.1891    2.5943 H   0  0  0  0  0  0  0  0  0  0  0  0
    1.2060    3.2655    2.7579 H   0  0  0  0  0  0  0  0  0  0  0  0
    0.4382    3.7596    1.2352 H   0  0  0  0  0  0  0  0  0  0  0  0
  1  2  1  0  0  0  0
  2  3  1  0  0  0  0
  2  4  1  0  0  0  0
  2  5  1  0  0  0  0
  5  6  2  0  0  0  0
  5  7  1  0  0  0  0
  7  8  1  0  0  0  0
  7  9  1  0  0  0  0
  9 10  1  0  0  0  0
  9 11  1  0  0  0  0
  9 21  1  0  0  0  0
 11 12  1  0  0  0  0
 11 13  1  0  0  0  0
 11 14  1  0  0  0  0
 14 15  1  0  0  0  0
 14 16  1  0  0  0  0
 14 17  1  0  0  0  0
 17 18  2  0  0  0  0
 17 19  1  0  0  0  0
 19 20  1  0  0  0  0
 21 22  2  0  0  0  0
 21 23  1  0  0  0  0
 23 24  1  0  0  0  0
 23 25  1  0  0  0  0
 25 26  1  0  0  0  0
 25 27  1  0  0  0  0
 25 28  1  0  0  0  0
M  END
$$$$

  -OEChem-02102214123D

 28 27  0     1  0  0  0  0  0999 V2000
   -3.2989   -3.7560    1.3102 H   0  0  0  0  0  0  0  0  0  0  0  0
   -3.2622   -2.7859    0.8069 C   0  0  0  0  0  0  0  0  0  0  0  0
   -3.9305   -2.0942    1.3253 H   0  0  0  0  0  0  0  0  0  0  0  0
   -3.6040   -2.9110   -0.2235 H   0  0  0  0  0  0  0  0  0  0  0  0
   -1.8454   -2.2450    0.8165 C   0  0  0  0  0  0  0  0  0  0  0  0
   -0.9394   -2.9093    1.2954 O   0  0  0  0  0  0  0  0  0  0  0  0
   -1.5839   -1.0035    0.2752 N   0  0  0  0  0  0  0  0  0  0  0  0
   -2.3796   -0.4473   -0.0333 H   0  0  0  0  0  0  0  0  0  0  0  0
   -0.2645   -0.3520    0.2606 C   0  0  1  0  0  0  0  0  0  0  0  0
    0.3685   -0.8275    1.0169 H   0  0  0  0  0  0  0  0  0  0  0  0
    0.4713   -0.4772   -1.1028 C   0  0  0  0  0  0  0  0  0  0  0  0
    0.6564    0.5322   -1.4864 H   0  0  0  0  0  0  0  0  0  0  0  0
    1.4559   -0.9265   -0.9335 H   0  0  0  0  0  0  0  0  0  0  0  0
   -0.2726   -1.2491   -2.2206 C   0  0  0  0  0  0  0  0  0  0  0  0
   -1.3512   -1.0803   -2.1897 H   0  0  0  0  0  0  0  0  0  0  0  0
    0.0685   -0.8663   -3.1864 H   0  0  0  0  0  0  0  0  0  0  0  0
    0.0386   -2.7429   -2.2059 C   0  0  0  0  0  0  0  0  0  0  0  0
    1.1958   -3.1037   -2.3452 O   0  0  0  0  0  0  0  0  0  0  0  0
   -0.9987   -3.5976   -2.0420 O   0  0  0  0  0  0  0  0  0  0  0  0
   -0.6019   -4.4812   -1.9994 H   0  0  0  0  0  0  0  0  0  0  0  0
   -0.4003    1.1279    0.6756 C   0  0  0  0  0  0  0  0  0  0  0  0
   -1.3209    1.8034    0.2305 O   0  0  0  0  0  0  0  0  0  0  0  0
    0.4828    1.6918    1.5777 N   0  0  0  0  0  0  0  0  0  0  0  0
    1.1978    1.0897    1.9764 H   0  0  0  0  0  0  0  0  0  0  0  0
    0.3672    3.0641    2.0570 C   0  0  0  0  0  0  0  0  0  0  0  0
   -0.5937    3.2148    2.5605 H   0  0  0  0  0  0  0  0  0  0  0  0
    1.1686    3.2854    2.7687 H   0  0  0  0  0  0  0  0  0  0  0  0
    0.4418    3.7694    1.2224 H   0  0  0  0  0  0  0  0  0  0  0  0
  1  2  1  0  0  0  0
  2  3  1  0  0  0  0
  2  4  1  0  0  0  0
  2  5  1  0  0  0  0
  5  6  2  0  0  0  0
  5  7  1  0  0  0  0
  7  8  1  0  0  0  0
  7  9  1  0  0  0  0
  9 10  1  0  0  0  0
  9 11  1  0  0  0  0
  9 21  1  0  0  0  0
 11 12  1  0  0  0  0
 11 13  1  0  0  0  0
 11 14  1  0  0  0  0
 14 15  1  0  0  0  0
 14 16  1  0  0  0  0
 14 17  1  0  0  0  0
 17 18  2  0  0  0  0
 17 19  1  0  0  0  0
 19 20  1  0  0  0  0
 21 22  2  0  0  0  0
 21 23  1  0  0  0  0
 23 24  1  0  0  0  0
 23 25  1  0  0  0  0
 25 26  1  0  0  0  0
 25 27  1  0  0  0  0
 25 28  1  0  0  0  0
M  END
$$$$

  -OEChem-02102214123D

 28 27  0     1  0  0  0  0  0999 V2000
   -3.3167   -3.7554    1.3537 H   0  0  0  0  0  0  0  0  0  0  0  0
   -3.2729   -2.7801    0.8611 C   0  0  0  0  0  0  0  0  0  0  0  0
   -3.9247   -2.0851    1.3955 H   0  0  0  0  0  0  0  0  0  0  0  0
   -3.6297   -2.8876   -0.1663 H   0  0  0  0  0  0  0  0  0  0  0  0
   -1.8491   -2.2581    0.8603 C   0  0  0  0  0  0  0  0  0  0  0  0
   -0.9528   -2.9234    1.3540 O   0  0  0  0  0  0  0  0  0  0  0  0
   -1.5739   -1.0282    0.3006 N   0  0  0  0  0  0  0  0  0  0  0  0
   -2.3659   -0.4751   -0.0233 H   0  0  0  0  0  0  0  0  0  0  0  0
   -0.2557   -0.3730    0.2893 C   0  0  1  0  0  0  0  0  0  0  0  0
    0.3752   -0.8368    1.0550 H   0  0  0  0  0  0  0  0  0  0  0  0
    0.4923   -0.4872   -1.0701 C   0  0  0  0  0  0  0  0  0  0  0  0
    0.6905    0.5220   -1.4485 H   0  0  0  0  0  0  0  0  0  0  0  0
    1.4700   -0.9481   -0.8915 H   0  0  0  0  0  0  0  0  0  0  0  0
   -0.2301   -1.2567   -2.2000 C   0  0  0  0  0  0  0  0  0  0  0  0
   -1.2615   -0.9073   -2.2975 H   0  0  0  0  0  0  0  0  0  0  0  0
    0.2701   -1.0452   -3.1488 H   0  0  0  0  0  0  0  0  0  0  0  0
   -0.2120   -2.7709   -2.0013 C   0  0  0  0  0  0  0  0  0  0  0  0
    0.8667   -3.3243   -1.8679 O   0  0  0  0  0  0  0  0  0  0  0  0
   -1.3940   -3.4317   -2.0148 O   0  0  0  0  0  0  0  0  0  0  0  0
   -1.1656   -4.3597   -1.8485 H   0  0  0  0  0  0  0  0  0  0  0  0
   -0.4105    1.1127    0.6756 C   0  0  0  0  0  0  0  0  0  0  0  0
   -1.3268    1.7744    0.2013 O   0  0  0  0  0  0  0  0  0  0  0  0
    0.4560    1.6992    1.5791 N   0  0  0  0  0  0  0  0  0  0  0  0
    1.1695    1.1099    1.9992 H   0  0  0  0  0  0  0  0  0  0  0  0
    0.3397    3.0865    2.0126 C   0  0  0  0  0  0  0  0  0  0  0  0
   -0.6295    3.2592    2.4924 H   0  0  0  0  0  0  0  0  0  0  0  0
    1.1289    3.3257    2.7319 H   0  0  0  0  0  0  0  0  0  0  0  0
    0.4350    3.7641    1.1574 H   0  0  0  0  0  0  0  0  0  0  0  0
  1  2  1  0  0  0  0
  2  3  1  0  0  0  0
  2  4  1  0  0  0  0
  2  5  1  0  0  0  0
  5  6  2  0  0  0  0
  5  7  1  0  0  0  0
  7  8  1  0  0  0  0
  7  9  1  0  0  0  0
  9 10  1  0  0  0  0
  9 11  1  0  0  0  0
  9 21  1  0  0  0  0
 11 12  1  0  0  0  0
 11 13  1  0  0  0  0
 11 14  1  0  0  0  0
 14 15  1  0  0  0  0
 14 16  1  0  0  0  0
 14 17  1  0  0  0  0
 17 18  2  0  0  0  0
 17 19  1  0  0  0  0
 19 20  1  0  0  0  0
 21 22  2  0  0  0  0
 21 23  1  0  0  0  0
 23 24  1  0  0  0  0
 23 25  1  0  0  0  0
 25 26  1  0  0  0  0
 25 27  1  0  0  0  0
 25 28  1  0  0  0  0
M  END
$$$$

  -OEChem-02102214123D

 28 27  0     1  0  0  0  0  0999 V2000
   -3.3304   -3.7620    1.4170 H   0  0  0  0  0  0  0  0  0  0  0  0
   -3.2917   -2.7616    0.9773 C   0  0  0  0  0  0  0  0  0  0  0  0
   -3.9107   -2.0888    1.5755 H   0  0  0  0  0  0  0  0  0  0  0  0
   -3.6932   -2.8074   -0.0378 H   0  0  0  0  0  0  0  0  0  0  0  0
   -1.8609   -2.2580    0.9488 C   0  0  0  0  0  0  0  0  0  0  0  0
   -0.9759   -2.9053    1.4834 O   0  0  0  0  0  0  0  0  0  0  0  0
   -1.5738   -1.0471    0.3540 N   0  0  0  0  0  0  0  0  0  0  0  0
   -2.3592   -0.5050   -0.0035 H   0  0  0  0  0  0  0  0  0  0  0  0
   -0.2518   -0.4003    0.3265 C   0  0  1  0  0  0  0  0  0  0  0  0
    0.3807   -0.8464    1.1014 H   0  0  0  0  0  0  0  0  0  0  0  0
    0.5029   -0.5093   -1.0333 C   0  0  0  0  0  0  0  0  0  0  0  0
    0.7403    0.4967   -1.3974 H   0  0  0  0  0  0  0  0  0  0  0  0
    1.4614   -1.0013   -0.8347 H   0  0  0  0  0  0  0  0  0  0  0  0
   -0.1748   -1.2647   -2.1999 C   0  0  0  0  0  0  0  0  0  0  0  0
   -1.1077   -0.7541   -2.4549 H   0  0  0  0  0  0  0  0  0  0  0  0
    0.4722   -1.2196   -3.0800 H   0  0  0  0  0  0  0  0  0  0  0  0
   -0.4866   -2.7322   -1.9195 C   0  0  0  0  0  0  0  0  0  0  0  0
    0.4417   -3.4628   -1.6197 O   0  0  0  0  0  0  0  0  0  0  0  0
   -1.7599   -3.1676   -2.0714 O   0  0  0  0  0  0  0  0  0  0  0  0
   -1.7243   -4.1163   -1.8719 H   0  0  0  0  0  0  0  0  0  0  0  0
   -0.4194    1.0952    0.6724 C   0  0  0  0  0  0  0  0  0  0  0  0
   -1.3330    1.7410    0.1711 O   0  0  0  0  0  0  0  0  0  0  0  0
    0.4383    1.7120    1.5643 N   0  0  0  0  0  0  0  0  0  0  0  0
    1.1456    1.1359    2.0122 H   0  0  0  0  0  0  0  0  0  0  0  0
    0.3082    3.1086    1.9632 C   0  0  0  0  0  0  0  0  0  0  0  0
   -0.6638    3.2841    2.4362 H   0  0  0  0  0  0  0  0  0  0  0  0
    1.0931    3.3726    2.6784 H   0  0  0  0  0  0  0  0  0  0  0  0
    0.4000    3.7660    1.0922 H   0  0  0  0  0  0  0  0  0  0  0  0
  1  2  1  0  0  0  0
  2  3  1  0  0  0  0
  2  4  1  0  0  0  0
  2  5  1  0  0  0  0
  5  6  2  0  0  0  0
  5  7  1  0  0  0  0
  7  8  1  0  0  0  0
  7  9  1  0  0  0  0
  9 10  1  0  0  0  0
  9 11  1  0  0  0  0
  9 21  1  0  0  0  0
 11 12  1  0  0  0  0
 11 13  1  0  0  0  0
 11 14  1  0  0  0  0
 14 15  1  0  0  0  0
 14 16  1  0  0  0  0
 14 17  1  0  0  0  0
 17 18  2  0  0  0  0
 17 19  1  0  0  0  0
 19 20  1  0  0  0  0
 21 22  2  0  0  0  0
 21 23  1  0  0  0  0
 23 24  1  0  0  0  0
 23 25  1  0  0  0  0
 25 26  1  0  0  0  0
 25 27  1  0  0  0  0
 25 28  1  0  0  0  0
M  END
$$$$

  -OEChem-02102214123D

 28 27  0     1  0  0  0  0  0999 V2000
   -3.3134   -3.7846    1.4826 H   0  0  0  0  0  0  0  0  0  0  0  0
   -3.2928   -2.7594    1.1025 C   0  0  0  0  0  0  0  0  0  0  0  0
   -3.8904   -2.1252    1.7616 H   0  0  0  0  0  0  0  0  0  0  0  0
   -3.7322   -2.7455    0.1025 H   0  0  0  0  0  0  0  0  0  0  0  0
   -1.8649   -2.2496    1.0542 C   0  0  0  0  0  0  0  0  0  0  0  0
   -0.9803   -2.8633    1.6274 O   0  0  0  0  0  0  0  0  0  0  0  0
   -1.5854   -1.0544    0.4240 N   0  0  0  0  0  0  0  0  0  0  0  0
   -2.3699   -0.5342    0.0334 H   0  0  0  0  0  0  0  0  0  0  0  0
   -0.2625   -0.4149    0.3651 C   0  0  1  0  0  0  0  0  0  0  0  0
    0.3782   -0.8415    1.1443 H   0  0  0  0  0  0  0  0  0  0  0  0
    0.4905   -0.5296   -0.9981 C   0  0  0  0  0  0  0  0  0  0  0  0
    0.7627    0.4714   -1.3520 H   0  0  0  0  0  0  0  0  0  0  0  0
    1.4321   -1.0441   -0.7781 H   0  0  0  0  0  0  0  0  0  0  0  0
   -0.1388   -1.2785   -2.1997 C   0  0  0  0  0  0  0  0  0  0  0  0
   -0.9145   -0.6335   -2.6224 H   0  0  0  0  0  0  0  0  0  0  0  0
    0.6233   -1.4141   -2.9719 H   0  0  0  0  0  0  0  0  0  0  0  0
   -0.7807   -2.6342   -1.9264 C   0  0  0  0  0  0  0  0  0  0  0  0
   -0.0525   -3.5439   -1.5711 O   0  0  0  0  0  0  0  0  0  0  0  0
   -2.1063   -2.7874   -2.1598 O   0  0  0  0  0  0  0  0  0  0  0  0
   -2.2842   -3.7262   -1.9943 H   0  0  0  0  0  0  0  0  0  0  0  0
   -0.4337    1.0879    0.6775 C   0  0  0  0  0  0  0  0  0  0  0  0
   -1.3476    1.7223    0.1623 O   0  0  0  0  0  0  0  0  0  0  0  0
    0.4306    1.7281    1.5464 N   0  0  0  0  0  0  0  0  0  0  0  0
    1.1372    1.1628    2.0085 H   0  0  0  0  0  0  0  0  0  0  0  0
    0.2983    3.1326    1.9151 C   0  0  0  0  0  0  0  0  0  0  0  0
   -0.6708    3.3145    2.3919 H   0  0  0  0  0  0  0  0  0  0  0  0
    1.0880    3.4160    2.6178 H   0  0  0  0  0  0  0  0  0  0  0  0
    0.3799    3.7708    1.0287 H   0  0  0  0  0  0  0  0  0  0  0  0
  1  2  1  0  0  0  0
  2  3  1  0  0  0  0
  2  4  1  0  0  0  0
  2  5  1  0  0  0  0
  5  6  2  0  0  0  0
  5  7  1  0  0  0  0
  7  8  1  0  0  0  0
  7  9  1  0  0  0  0
  9 10  1  0  0  0  0
  9 11  1  0  0  0  0
  9 21  1  0  0  0  0
 11 12  1  0  0  0  0
 11 13  1  0  0  0  0
 11 14  1  0  0  0  0
 14 15  1  0  0  0  0
 14 16  1  0  0  0  0
 14 17  1  0  0  0  0
 17 18  2  0  0  0  0
 17 19  1  0  0  0  0
 19 20  1  0  0  0  0
 21 22  2  0  0  0  0
 21 23  1  0  0  0  0
 23 24  1  0  0  0  0
 23 25  1  0  0  0  0
 25 26  1  0  0  0  0
 25 27  1  0  0  0  0
 25 28  1  0  0  0  0
M  END
$$$$

  -OEChem-02102214123D

 28 27  0     1  0  0  0  0  0999 V2000
   -3.3758   -3.6829    1.6846 H   0  0  0  0  0  0  0  0  0  0  0  0
   -3.3296   -2.7281    1.1536 C   0  0  0  0  0  0  0  0  0  0  0  0
   -3.9744   -2.0089    1.6641 H   0  0  0  0  0  0  0  0  0  0  0  0
   -3.6951   -2.8741    0.1354 H   0  0  0  0  0  0  0  0  0  0  0  0
   -1.9027   -2.2136    1.1279 C   0  0  0  0  0  0  0  0  0  0  0  0
   -1.0333   -2.7978    1.7540 O   0  0  0  0  0  0  0  0  0  0  0  0
   -1.6082   -1.0399    0.4636 N   0  0  0  0  0  0  0  0  0  0  0  0
   -2.3767   -0.5404    0.0173 H   0  0  0  0  0  0  0  0  0  0  0  0
   -0.2775   -0.4202    0.4048 C   0  0  1  0  0  0  0  0  0  0  0  0
    0.3465   -0.8261    1.2081 H   0  0  0  0  0  0  0  0  0  0  0  0
    0.5043   -0.5753   -0.9395 C   0  0  0  0  0  0  0  0  0  0  0  0
    0.8188    0.4124   -1.2957 H   0  0  0  0  0  0  0  0  0  0  0  0
    1.4234   -1.1074   -0.6711 H   0  0  0  0  0  0  0  0  0  0  0  0
   -0.0667   -1.3369   -2.1677 C   0  0  0  0  0  0  0  0  0  0  0  0
   -0.6084   -0.6047   -2.7736 H   0  0  0  0  0  0  0  0  0  0  0  0
    0.7691   -1.6940   -2.7762 H   0  0  0  0  0  0  0  0  0  0  0  0
   -1.0248   -2.5036   -1.9570 C   0  0  0  0  0  0  0  0  0  0  0  0
   -0.5600   -3.5680   -1.5898 O   0  0  0  0  0  0  0  0  0  0  0  0
   -2.3341   -2.3257   -2.2578 O   0  0  0  0  0  0  0  0  0  0  0  0
   -2.7429   -3.1976   -2.1480 H   0  0  0  0  0  0  0  0  0  0  0  0
   -0.4442    1.0923    0.6714 C   0  0  0  0  0  0  0  0  0  0  0  0
   -1.3421    1.7191    0.1199 O   0  0  0  0  0  0  0  0  0  0  0  0
    0.4100    1.7530    1.5349 N   0  0  0  0  0  0  0  0  0  0  0  0
    1.0929    1.1943    2.0390 H   0  0  0  0  0  0  0  0  0  0  0  0
    0.2650    3.1640    1.8734 C   0  0  0  0  0  0  0  0  0  0  0  0
   -0.7114    3.3491    2.3339 H   0  0  0  0  0  0  0  0  0  0  0  0
    1.0435    3.4665    2.5805 H   0  0  0  0  0  0  0  0  0  0  0  0
    0.3541    3.7849    0.9755 H   0  0  0  0  0  0  0  0  0  0  0  0
  1  2  1  0  0  0  0
  2  3  1  0  0  0  0
  2  4  1  0  0  0  0
  2  5  1  0  0  0  0
  5  6  2  0  0  0  0
  5  7  1  0  0  0  0
  7  8  1  0  0  0  0
  7  9  1  0  0  0  0
  9 10  1  0  0  0  0
  9 11  1  0  0  0  0
  9 21  1  0  0  0  0
 11 12  1  0  0  0  0
 11 13  1  0  0  0  0
 11 14  1  0  0  0  0
 14 15  1  0  0  0  0
 14 16  1  0  0  0  0
 14 17  1  0  0  0  0
 17 18  2  0  0  0  0
 17 19  1  0  0  0  0
 19 20  1  0  0  0  0
 21 22  2  0  0  0  0
 21 23  1  0  0  0  0
 23 24  1  0  0  0  0
 23 25  1  0  0  0  0
 25 26  1  0  0  0  0
 25 27  1  0  0  0  0
 25 28  1  0  0  0  0
M  END
$$$$

  -OEChem-02102214123D

 28 27  0     1  0  0  0  0  0999 V2000
   -3.4042   -3.6832    1.6184 H   0  0  0  0  0  0  0  0  0  0  0  0
   -3.3739   -2.6934    1.1546 C   0  0  0  0  0  0  0  0  0  0  0  0
   -3.9826   -2.0068    1.7479 H   0  0  0  0  0  0  0  0  0  0  0  0
   -3.7943   -2.7616    0.1485 H   0  0  0  0  0  0  0  0  0  0  0  0
   -1.9445   -2.1891    1.0889 C   0  0  0  0  0  0  0  0  0  0  0  0
   -1.0407   -2.8486    1.5769 O   0  0  0  0  0  0  0  0  0  0  0  0
   -1.6743   -0.9742    0.4951 N   0  0  0  0  0  0  0  0  0  0  0  0
   -2.4606   -0.4600    0.0968 H   0  0  0  0  0  0  0  0  0  0  0  0
   -0.3440   -0.3675    0.3685 C   0  0  1  0  0  0  0  0  0  0  0  0
    0.3234   -0.8385    1.0980 H   0  0  0  0  0  0  0  0  0  0  0  0
    0.3471   -0.4662   -1.0318 C   0  0  0  0  0  0  0  0  0  0  0  0
    0.6383    0.5403   -1.3537 H   0  0  0  0  0  0  0  0  0  0  0  0
    1.2836   -1.0027   -0.8457 H   0  0  0  0  0  0  0  0  0  0  0  0
   -0.2869   -1.1603   -2.2758 C   0  0  0  0  0  0  0  0  0  0  0  0
   -0.6063   -0.3675   -2.9590 H   0  0  0  0  0  0  0  0  0  0  0  0
    0.4988   -1.7187   -2.7923 H   0  0  0  0  0  0  0  0  0  0  0  0
   -1.4837   -2.0922   -2.1201 C   0  0  0  0  0  0  0  0  0  0  0  0
   -2.6125   -1.6371   -2.2232 O   0  0  0  0  0  0  0  0  0  0  0  0
   -1.2215   -3.4048   -1.9194 O   0  0  0  0  0  0  0  0  0  0  0  0
   -2.0786   -3.8516   -1.8657 H   0  0  0  0  0  0  0  0  0  0  0  0
   -0.4432    1.1241    0.7567 C   0  0  0  0  0  0  0  0  0  0  0  0
   -1.3594    1.8149    0.3270 O   0  0  0  0  0  0  0  0  0  0  0  0
    0.5031    1.6970    1.5867 N   0  0  0  0  0  0  0  0  0  0  0  0
    1.2123    1.0871    1.9831 H   0  0  0  0  0  0  0  0  0  0  0  0
    0.4418    3.0862    2.0256 C   0  0  0  0  0  0  0  0  0  0  0  0
   -0.4813    3.2715    2.5851 H   0  0  0  0  0  0  0  0  0  0  0  0
    1.2919    3.3164    2.6750 H   0  0  0  0  0  0  0  0  0  0  0  0
    0.4731    3.7615    1.1640 H   0  0  0  0  0  0  0  0  0  0  0  0
  1  2  1  0  0  0  0
  2  3  1  0  0  0  0
  2  4  1  0  0  0  0
  2  5  1  0  0  0  0
  5  6  2  0  0  0  0
  5  7  1  0  0  0  0
  7  8  1  0  0  0  0
  7  9  1  0  0  0  0
  9 10  1  0  0  0  0
  9 11  1  0  0  0  0
  9 21  1  0  0  0  0
 11 12  1  0  0  0  0
 11 13  1  0  0  0  0
 11 14  1  0  0  0  0
 14 15  1  0  0  0  0
 14 16  1  0  0  0  0
 14 17  1  0  0  0  0
 17 18  2  0  0  0  0
 17 19  1  0  0  0  0
 19 20  1  0  0  0  0
 21 22  2  0  0  0  0
 21 23  1  0  0  0  0
 23 24  1  0  0  0  0
 23 25  1  0  0  0  0
 25 26  1  0  0  0  0
 25 27  1  0  0  0  0
 25 28  1  0  0  0  0
M  END
$$$$

  -OEChem-02102214123D

 28 27  0     1  0  0  0  0  0999 V2000
   -2.9306   -3.5799    2.3935 H   0  0  0  0  0  0  0  0  0  0  0  0
   -3.0187   -2.7675    1.6670 C   0  0  0  0  0  0  0  0  0  0  0  0
   -3.6580   -1.9875    2.0871 H   0  0  0  0  0  0  0  0  0  0  0  0
   -3.4791   -3.1578    0.7565 H   0  0  0  0  0  0  0  0  0  0  0  0
   -1.6476   -2.2016    1.3502 C   0  0  0  0  0  0  0  0  0  0  0  0
   -0.6442   -2.7752    1.7440 O   0  0  0  0  0  0  0  0  0  0  0  0
   -1.5377   -1.0173    0.6489 N   0  0  0  0  0  0  0  0  0  0  0  0
   -2.3964   -0.5388    0.3782 H   0  0  0  0  0  0  0  0  0  0  0  0
   -0.2696   -0.3893    0.2627 C   0  0  1  0  0  0  0  0  0  0  0  0
    0.5278   -0.7943    0.8945 H   0  0  0  0  0  0  0  0  0  0  0  0
    0.1782   -0.5745   -1.2245 C   0  0  0  0  0  0  0  0  0  0  0  0
    0.3468    0.4203   -1.6528 H   0  0  0  0  0  0  0  0  0  0  0  0
    1.1645   -1.0484   -1.1787 H   0  0  0  0  0  0  0  0  0  0  0  0
   -0.6320   -1.3699   -2.2964 C   0  0  0  0  0  0  0  0  0  0  0  0
   -0.8431   -0.6854   -3.1229 H   0  0  0  0  0  0  0  0  0  0  0  0
    0.0245   -2.1484   -2.6973 H   0  0  0  0  0  0  0  0  0  0  0  0
   -1.9587   -2.0392   -1.9495 C   0  0  0  0  0  0  0  0  0  0  0  0
   -1.9744   -3.2423   -1.7521 O   0  0  0  0  0  0  0  0  0  0  0  0
   -3.0731   -1.2685   -1.9387 O   0  0  0  0  0  0  0  0  0  0  0  0
   -3.8145   -1.8763   -1.7995 H   0  0  0  0  0  0  0  0  0  0  0  0
   -0.3503    1.1213    0.5748 C   0  0  0  0  0  0  0  0  0  0  0  0
   -1.3525    1.7603    0.2764 O   0  0  0  0  0  0  0  0  0  0  0  0
    0.7033    1.7665    1.1963 N   0  0  0  0  0  0  0  0  0  0  0  0
    1.4841    1.1962    1.5087 H   0  0  0  0  0  0  0  0  0  0  0  0
    0.6650    3.1749    1.5718 C   0  0  0  0  0  0  0  0  0  0  0  0
   -0.1352    3.3568    2.2970 H   0  0  0  0  0  0  0  0  0  0  0  0
    0.4910    3.8017    0.6907 H   0  0  0  0  0  0  0  0  0  0  0  0
    1.6161    3.4724    2.0236 H   0  0  0  0  0  0  0  0  0  0  0  0
  1  2  1  0  0  0  0
  2  3  1  0  0  0  0
  2  4  1  0  0  0  0
  2  5  1  0  0  0  0
  5  6  2  0  0  0  0
  5  7  1  0  0  0  0
  7  8  1  0  0  0  0
  7  9  1  0  0  0  0
  9 10  1  0  0  0  0
  9 11  1  0  0  0  0
  9 21  1  0  0  0  0
 11 12  1  0  0  0  0
 11 13  1  0  0  0  0
 11 14  1  0  0  0  0
 14 15  1  0  0  0  0
 14 16  1  0  0  0  0
 14 17  1  0  0  0  0
 17 18  2  0  0  0  0
 17 19  1  0  0  0  0
 19 20  1  0  0  0  0
 21 22  2  0  0  0  0
 21 23  1  0  0  0  0
 23 24  1  0  0  0  0
 23 25  1  0  0  0  0
 25 26  1  0  0  0  0
 25 27  1  0  0  0  0
 25 28  1  0  0  0  0
M  END
$$$$

  -OEChem-02102214123D

 28 27  0     1  0  0  0  0  0999 V2000
   -2.8891   -3.8155    2.0440 H   0  0  0  0  0  0  0  0  0  0  0  0
   -2.9985   -2.8935    1.4665 C   0  0  0  0  0  0  0  0  0  0  0  0
   -3.6038   -2.1878    2.0402 H   0  0  0  0  0  0  0  0  0  0  0  0
   -3.5095   -3.1252    0.5290 H   0  0  0  0  0  0  0  0  0  0  0  0
   -1.6356   -2.2939    1.1763 C   0  0  0  0  0  0  0  0  0  0  0  0
   -0.6214   -2.8913    1.5021 O   0  0  0  0  0  0  0  0  0  0  0  0
   -1.5447   -1.0590    0.5664 N   0  0  0  0  0  0  0  0  0  0  0  0
   -2.4104   -0.5566    0.3735 H   0  0  0  0  0  0  0  0  0  0  0  0
   -0.2895   -0.3697    0.2481 C   0  0  1  0  0  0  0  0  0  0  0  0
    0.5014   -0.7976    0.8726 H   0  0  0  0  0  0  0  0  0  0  0  0
    0.2015   -0.4696   -1.2325 C   0  0  0  0  0  0  0  0  0  0  0  0
    0.2996    0.5557   -1.6074 H   0  0  0  0  0  0  0  0  0  0  0  0
    1.2173   -0.8775   -1.2032 H   0  0  0  0  0  0  0  0  0  0  0  0
   -0.5643   -1.2440   -2.3491 C   0  0  0  0  0  0  0  0  0  0  0  0
   -0.5280   -0.6474   -3.2649 H   0  0  0  0  0  0  0  0  0  0  0  0
   -0.0011   -2.1611   -2.5479 H   0  0  0  0  0  0  0  0  0  0  0  0
   -2.0176   -1.6626   -2.1404 C   0  0  0  0  0  0  0  0  0  0  0  0
   -2.2830   -2.8488   -2.0373 O   0  0  0  0  0  0  0  0  0  0  0  0
   -2.9561   -0.6865   -2.1360 O   0  0  0  0  0  0  0  0  0  0  0  0
   -3.8115   -1.1362   -2.0728 H   0  0  0  0  0  0  0  0  0  0  0  0
   -0.4064    1.1132    0.6639 C   0  0  0  0  0  0  0  0  0  0  0  0
   -1.4315    1.7408    0.4254 O   0  0  0  0  0  0  0  0  0  0  0  0
    0.6243    1.7357    1.3441 N   0  0  0  0  0  0  0  0  0  0  0  0
    1.4266    1.1687    1.6031 H   0  0  0  0  0  0  0  0  0  0  0  0
    0.5416    3.1063    1.8351 C   0  0  0  0  0  0  0  0  0  0  0  0
   -0.2554    3.1986    2.5805 H   0  0  0  0  0  0  0  0  0  0  0  0
    1.4874    3.4000    2.3004 H   0  0  0  0  0  0  0  0  0  0  0  0
    0.3344    3.7974    1.0111 H   0  0  0  0  0  0  0  0  0  0  0  0
  1  2  1  0  0  0  0
  2  3  1  0  0  0  0
  2  4  1  0  0  0  0
  2  5  1  0  0  0  0
  5  6  2  0  0  0  0
  5  7  1  0  0  0  0
  7  8  1  0  0  0  0
  7  9  1  0  0  0  0
  9 10  1  0  0  0  0
  9 11  1  0  0  0  0
  9 21  1  0  0  0  0
 11 12  1  0  0  0  0
 11 13  1  0  0  0  0
 11 14  1  0  0  0  0
 14 15  1  0  0  0  0
 14 16  1  0  0  0  0
 14 17  1  0  0  0  0
 17 18  2  0  0  0  0
 17 19  1  0  0  0  0
 19 20  1  0  0  0  0
 21 22  2  0  0  0  0
 21 23  1  0  0  0  0
 23 24  1  0  0  0  0
 23 25  1  0  0  0  0
 25 26  1  0  0  0  0
 25 27  1  0  0  0  0
 25 28  1  0  0  0  0
M  END
$$$$

  -OEChem-02102214123D

 28 27  0     1  0  0  0  0  0999 V2000
   -3.1963   -3.7414    1.6232 H   0  0  0  0  0  0  0  0  0  0  0  0
   -3.2231   -2.7662    1.1292 C   0  0  0  0  0  0  0  0  0  0  0  0
   -3.8252   -2.0822    1.7321 H   0  0  0  0  0  0  0  0  0  0  0  0
   -3.6875   -2.8813    0.1475 H   0  0  0  0  0  0  0  0  0  0  0  0
   -1.8166   -2.2201    0.9750 C   0  0  0  0  0  0  0  0  0  0  0  0
   -0.8574   -2.8931    1.3185 O   0  0  0  0  0  0  0  0  0  0  0  0
   -1.6243   -0.9613    0.4463 N   0  0  0  0  0  0  0  0  0  0  0  0
   -2.4503   -0.4142    0.1999 H   0  0  0  0  0  0  0  0  0  0  0  0
   -0.3241   -0.3007    0.2828 C   0  0  1  0  0  0  0  0  0  0  0  0
    0.3831   -0.7896    0.9607 H   0  0  0  0  0  0  0  0  0  0  0  0
    0.3007   -0.3879   -1.1442 C   0  0  0  0  0  0  0  0  0  0  0  0
    0.4431    0.6414   -1.4931 H   0  0  0  0  0  0  0  0  0  0  0  0
    1.3018   -0.8195   -1.0428 H   0  0  0  0  0  0  0  0  0  0  0  0
   -0.4089   -1.1259   -2.3166 C   0  0  0  0  0  0  0  0  0  0  0  0
   -0.0590   -0.7037   -3.2626 H   0  0  0  0  0  0  0  0  0  0  0  0
   -0.0691   -2.1654   -2.2862 H   0  0  0  0  0  0  0  0  0  0  0  0
   -1.9350   -1.1808   -2.3630 C   0  0  0  0  0  0  0  0  0  0  0  0
   -2.5635   -0.1398   -2.2777 O   0  0  0  0  0  0  0  0  0  0  0  0
   -2.5201   -2.3897   -2.5332 O   0  0  0  0  0  0  0  0  0  0  0  0
   -3.4704   -2.2145   -2.6023 H   0  0  0  0  0  0  0  0  0  0  0  0
   -0.4064    1.1666    0.7594 C   0  0  0  0  0  0  0  0  0  0  0  0
   -1.3846    1.8521    0.4904 O   0  0  0  0  0  0  0  0  0  0  0  0
    0.5902    1.7009    1.5560 N   0  0  0  0  0  0  0  0  0  0  0  0
    1.3492    1.0867    1.8365 H   0  0  0  0  0  0  0  0  0  0  0  0
    0.5323    3.0493    2.1082 C   0  0  0  0  0  0  0  0  0  0  0  0
   -0.3156    3.1460    2.7946 H   0  0  0  0  0  0  0  0  0  0  0  0
    1.4513    3.2735    2.6582 H   0  0  0  0  0  0  0  0  0  0  0  0
    0.4225    3.7874    1.3065 H   0  0  0  0  0  0  0  0  0  0  0  0
  1  2  1  0  0  0  0
  2  3  1  0  0  0  0
  2  4  1  0  0  0  0
  2  5  1  0  0  0  0
  5  6  2  0  0  0  0
  5  7  1  0  0  0  0
  7  8  1  0  0  0  0
  7  9  1  0  0  0  0
  9 10  1  0  0  0  0
  9 11  1  0  0  0  0
  9 21  1  0  0  0  0
 11 12  1  0  0  0  0
 11 13  1  0  0  0  0
 11 14  1  0  0  0  0
 14 15  1  0  0  0  0
 14 16  1  0  0  0  0
 14 17  1  0  0  0  0
 17 18  2  0  0  0  0
 17 19  1  0  0  0  0
 19 20  1  0  0  0  0
 21 22  2  0  0  0  0
 21 23  1  0  0  0  0
 23 24  1  0  0  0  0
 23 25  1  0  0  0  0
 25 26  1  0  0  0  0
 25 27  1  0  0  0  0
 25 28  1  0  0  0  0
M  END
$$$$

  -OEChem-02102214123D

 28 27  0     1  0  0  0  0  0999 V2000
   -3.2351   -3.7365    1.4910 H   0  0  0  0  0  0  0  0  0  0  0  0
   -3.2422   -2.7701    0.9793 C   0  0  0  0  0  0  0  0  0  0  0  0
   -3.8572   -2.0725    1.5528 H   0  0  0  0  0  0  0  0  0  0  0  0
   -3.6791   -2.8998   -0.0137 H   0  0  0  0  0  0  0  0  0  0  0  0
   -1.8287   -2.2348    0.8548 C   0  0  0  0  0  0  0  0  0  0  0  0
   -0.8806   -2.9216    1.2021 O   0  0  0  0  0  0  0  0  0  0  0  0
   -1.6171   -0.9711    0.3455 N   0  0  0  0  0  0  0  0  0  0  0  0
   -2.4365   -0.3950    0.1532 H   0  0  0  0  0  0  0  0  0  0  0  0
   -0.3106   -0.3047    0.2614 C   0  0  1  0  0  0  0  0  0  0  0  0
    0.3582   -0.7948    0.9766 H   0  0  0  0  0  0  0  0  0  0  0  0
    0.3840   -0.3992   -1.1291 C   0  0  0  0  0  0  0  0  0  0  0  0
    0.5551    0.6228   -1.4867 H   0  0  0  0  0  0  0  0  0  0  0  0
    1.3710   -0.8498   -0.9834 H   0  0  0  0  0  0  0  0  0  0  0  0
   -0.3142   -1.1559   -2.2898 C   0  0  0  0  0  0  0  0  0  0  0  0
    0.2148   -0.9467   -3.2232 H   0  0  0  0  0  0  0  0  0  0  0  0
   -0.2142   -2.2275   -2.0930 H   0  0  0  0  0  0  0  0  0  0  0  0
   -1.7996   -0.8767   -2.5118 C   0  0  0  0  0  0  0  0  0  0  0  0
   -2.1624    0.2809   -2.6221 O   0  0  0  0  0  0  0  0  0  0  0  0
   -2.6423   -1.9325   -2.6057 O   0  0  0  0  0  0  0  0  0  0  0  0
   -3.5124   -1.5531   -2.8011 H   0  0  0  0  0  0  0  0  0  0  0  0
   -0.4224    1.1588    0.7412 C   0  0  0  0  0  0  0  0  0  0  0  0
   -1.4094    1.8262    0.4587 O   0  0  0  0  0  0  0  0  0  0  0  0
    0.5257    1.6911    1.5960 N   0  0  0  0  0  0  0  0  0  0  0  0
    1.2938    1.0914    1.8825 H   0  0  0  0  0  0  0  0  0  0  0  0
    0.4284    3.0328    2.1587 C   0  0  0  0  0  0  0  0  0  0  0  0
   -0.4844    3.1332    2.7556 H   0  0  0  0  0  0  0  0  0  0  0  0
    1.2879    3.2361    2.8045 H   0  0  0  0  0  0  0  0  0  0  0  0
    0.4109    3.7822    1.3601 H   0  0  0  0  0  0  0  0  0  0  0  0
  1  2  1  0  0  0  0
  2  3  1  0  0  0  0
  2  4  1  0  0  0  0
  2  5  1  0  0  0  0
  5  6  2  0  0  0  0
  5  7  1  0  0  0  0
  7  8  1  0  0  0  0
  7  9  1  0  0  0  0
  9 10  1  0  0  0  0
  9 11  1  0  0  0  0
  9 21  1  0  0  0  0
 11 12  1  0  0  0  0
 11 13  1  0  0  0  0
 11 14  1  0  0  0  0
 14 15  1  0  0  0  0
 14 16  1  0  0  0  0
 14 17  1  0  0  0  0
 17 18  2  0  0  0  0
 17 19  1  0  0  0  0
 19 20  1  0  0  0  0
 21 22  2  0  0  0  0
 21 23  1  0  0  0  0
 23 24  1  0  0  0  0
 23 25  1  0  0  0  0
 25 26  1  0  0  0  0
 25 27  1  0  0  0  0
 25 28  1  0  0  0  0
M  END
$$$$

  -OEChem-02102214123D

 28 27  0     1  0  0  0  0  0999 V2000
   -3.2271   -3.8078    1.2997 H   0  0  0  0  0  0  0  0  0  0  0  0
   -3.2258   -2.8069    0.8593 C   0  0  0  0  0  0  0  0  0  0  0  0
   -3.8670   -2.1566    1.4590 H   0  0  0  0  0  0  0  0  0  0  0  0
   -3.6266   -2.8684   -0.1555 H   0  0  0  0  0  0  0  0  0  0  0  0
   -1.8143   -2.2531    0.8234 C   0  0  0  0  0  0  0  0  0  0  0  0
   -0.8835   -2.9180    1.2509 O   0  0  0  0  0  0  0  0  0  0  0  0
   -1.5830   -1.0000    0.2973 N   0  0  0  0  0  0  0  0  0  0  0  0
   -2.3948   -0.4529    0.0144 H   0  0  0  0  0  0  0  0  0  0  0  0
   -0.2755   -0.3294    0.2546 C   0  0  1  0  0  0  0  0  0  0  0  0
    0.3784   -0.8038    0.9937 H   0  0  0  0  0  0  0  0  0  0  0  0
    0.4391   -0.4337   -1.1225 C   0  0  0  0  0  0  0  0  0  0  0  0
    0.6482    0.5769   -1.4923 H   0  0  0  0  0  0  0  0  0  0  0  0
    1.4083   -0.9161   -0.9597 H   0  0  0  0  0  0  0  0  0  0  0  0
   -0.2846   -1.2033   -2.2531 C   0  0  0  0  0  0  0  0  0  0  0  0
    0.3502   -1.2143   -3.1431 H   0  0  0  0  0  0  0  0  0  0  0  0
   -0.4258   -2.2423   -1.9418 H   0  0  0  0  0  0  0  0  0  0  0  0
   -1.6427   -0.6224   -2.6450 C   0  0  0  0  0  0  0  0  0  0  0  0
   -1.6637    0.4948   -3.1302 O   0  0  0  0  0  0  0  0  0  0  0  0
   -2.7530   -1.3793   -2.4706 O   0  0  0  0  0  0  0  0  0  0  0  0
   -3.4826   -0.8441   -2.8199 H   0  0  0  0  0  0  0  0  0  0  0  0
   -0.4193    1.1418    0.6984 C   0  0  0  0  0  0  0  0  0  0  0  0
   -1.3882    1.7974    0.3352 O   0  0  0  0  0  0  0  0  0  0  0  0
    0.4842    1.7024    1.5827 N   0  0  0  0  0  0  0  0  0  0  0  0
    1.2322    1.1101    1.9316 H   0  0  0  0  0  0  0  0  0  0  0  0
    0.3534    3.0572    2.1061 C   0  0  0  0  0  0  0  0  0  0  0  0
   -0.5588    3.1502    2.7046 H   0  0  0  0  0  0  0  0  0  0  0  0
    1.2107    3.3024    2.7404 H   0  0  0  0  0  0  0  0  0  0  0  0
    0.3126    3.7833    1.2871 H   0  0  0  0  0  0  0  0  0  0  0  0
  1  2  1  0  0  0  0
  2  3  1  0  0  0  0
  2  4  1  0  0  0  0
  2  5  1  0  0  0  0
  5  6  2  0  0  0  0
  5  7  1  0  0  0  0
  7  8  1  0  0  0  0
  7  9  1  0  0  0  0
  9 10  1  0  0  0  0
  9 11  1  0  0  0  0
  9 21  1  0  0  0  0
 11 12  1  0  0  0  0
 11 13  1  0  0  0  0
 11 14  1  0  0  0  0
 14 15  1  0  0  0  0
 14 16  1  0  0  0  0
 14 17  1  0  0  0  0
 17 18  2  0  0  0  0
 17 19  1  0  0  0  0
 19 20  1  0  0  0  0
 21 22  2  0  0  0  0
 21 23  1  0  0  0  0
 23 24  1  0  0  0  0
 23 25  1  0  0  0  0
 25 26  1  0  0  0  0
 25 27  1  0  0  0  0
 25 28  1  0  0  0  0
M  END
$$$$

  -OEChem-02102214123D

 28 27  0     1  0  0  0  0  0999 V2000
   -3.1953   -3.8940    1.1922 H   0  0  0  0  0  0  0  0  0  0  0  0
   -3.1853   -2.8962    0.7448 C   0  0  0  0  0  0  0  0  0  0  0  0
   -3.9218   -2.2719    1.2564 H   0  0  0  0  0  0  0  0  0  0  0  0
   -3.4585   -2.9791   -0.3100 H   0  0  0  0  0  0  0  0  0  0  0  0
   -1.8068   -2.2779    0.8737 C   0  0  0  0  0  0  0  0  0  0  0  0
   -0.9180   -2.8733    1.4625 O   0  0  0  0  0  0  0  0  0  0  0  0
   -1.5584   -1.0470    0.3071 N   0  0  0  0  0  0  0  0  0  0  0  0
   -2.3144   -0.6206   -0.2305 H   0  0  0  0  0  0  0  0  0  0  0  0
   -0.2527   -0.3719    0.2835 C   0  0  1  0  0  0  0  0  0  0  0  0
    0.4008   -0.8203    1.0388 H   0  0  0  0  0  0  0  0  0  0  0  0
    0.4584   -0.4779   -1.0958 C   0  0  0  0  0  0  0  0  0  0  0  0
    0.6979    0.5237   -1.4728 H   0  0  0  0  0  0  0  0  0  0  0  0
    1.4138   -0.9857   -0.9284 H   0  0  0  0  0  0  0  0  0  0  0  0
   -0.2884   -1.2501   -2.2069 C   0  0  0  0  0  0  0  0  0  0  0  0
    0.4126   -1.4674   -3.0182 H   0  0  0  0  0  0  0  0  0  0  0  0
   -0.6535   -2.2117   -1.8369 H   0  0  0  0  0  0  0  0  0  0  0  0
   -1.4457   -0.4383   -2.7879 C   0  0  0  0  0  0  0  0  0  0  0  0
   -1.1893    0.3562   -3.6758 O   0  0  0  0  0  0  0  0  0  0  0  0
   -2.6957   -0.6358   -2.3004 O   0  0  0  0  0  0  0  0  0  0  0  0
   -3.2565   -0.0077   -2.7841 H   0  0  0  0  0  0  0  0  0  0  0  0
   -0.4282    1.1133    0.6645 C   0  0  0  0  0  0  0  0  0  0  0  0
   -1.3330    1.7709    0.1633 O   0  0  0  0  0  0  0  0  0  0  0  0
    0.4351    1.7177    1.5597 N   0  0  0  0  0  0  0  0  0  0  0  0
    1.1346    1.1325    2.0075 H   0  0  0  0  0  0  0  0  0  0  0  0
    0.3018    3.1072    1.9809 C   0  0  0  0  0  0  0  0  0  0  0  0
   -0.6580    3.2644    2.4841 H   0  0  0  0  0  0  0  0  0  0  0  0
    1.1042    3.3717    2.6761 H   0  0  0  0  0  0  0  0  0  0  0  0
    0.3604    3.7769    1.1162 H   0  0  0  0  0  0  0  0  0  0  0  0
  1  2  1  0  0  0  0
  2  3  1  0  0  0  0
  2  4  1  0  0  0  0
  2  5  1  0  0  0  0
  5  6  2  0  0  0  0
  5  7  1  0  0  0  0
  7  8  1  0  0  0  0
  7  9  1  0  0  0  0
  9 10  1  0  0  0  0
  9 11  1  0  0  0  0
  9 21  1  0  0  0  0
 11 12  1  0  0  0  0
 11 13  1  0  0  0  0
 11 14  1  0  0  0  0
 14 15  1  0  0  0  0
 14 16  1  0  0  0  0
 14 17  1  0  0  0  0
 17 18  2  0  0  0  0
 17 19  1  0  0  0  0
 19 20  1  0  0  0  0
 21 22  2  0  0  0  0
 21 23  1  0  0  0  0
 23 24  1  0  0  0  0
 23 25  1  0  0  0  0
 25 26  1  0  0  0  0
 25 27  1  0  0  0  0
 25 28  1  0  0  0  0
M  END
$$$$

  -OEChem-02102214123D

 28 27  0     1  0  0  0  0  0999 V2000
   -3.1996   -3.8935    1.2430 H   0  0  0  0  0  0  0  0  0  0  0  0
   -3.1933   -2.8988    0.7885 C   0  0  0  0  0  0  0  0  0  0  0  0
   -3.9076   -2.2639    1.3182 H   0  0  0  0  0  0  0  0  0  0  0  0
   -3.5000   -2.9865   -0.2568 H   0  0  0  0  0  0  0  0  0  0  0  0
   -1.8048   -2.2943    0.8706 C   0  0  0  0  0  0  0  0  0  0  0  0
   -0.9040   -2.8966    1.4331 O   0  0  0  0  0  0  0  0  0  0  0  0
   -1.5597   -1.0682    0.2914 N   0  0  0  0  0  0  0  0  0  0  0  0
   -2.3343   -0.6083   -0.1880 H   0  0  0  0  0  0  0  0  0  0  0  0
   -0.2596   -0.3802    0.2720 C   0  0  1  0  0  0  0  0  0  0  0  0
    0.3875   -0.8133    1.0419 H   0  0  0  0  0  0  0  0  0  0  0  0
    0.4710   -0.4981   -1.0951 C   0  0  0  0  0  0  0  0  0  0  0  0
    0.7230    0.4971   -1.4813 H   0  0  0  0  0  0  0  0  0  0  0  0
    1.4225   -1.0042   -0.9021 H   0  0  0  0  0  0  0  0  0  0  0  0
   -0.2575   -1.3000   -2.1983 C   0  0  0  0  0  0  0  0  0  0  0  0
    0.4946   -1.7160   -2.8752 H   0  0  0  0  0  0  0  0  0  0  0  0
   -0.8172   -2.1513   -1.8060 H   0  0  0  0  0  0  0  0  0  0  0  0
   -1.1580   -0.3900   -3.0232 C   0  0  0  0  0  0  0  0  0  0  0  0
   -0.6786    0.2085   -3.9711 O   0  0  0  0  0  0  0  0  0  0  0  0
   -2.4516   -0.2766   -2.6369 O   0  0  0  0  0  0  0  0  0  0  0  0
   -2.8414    0.3864   -3.2280 H   0  0  0  0  0  0  0  0  0  0  0  0
   -0.4465    1.1092    0.6313 C   0  0  0  0  0  0  0  0  0  0  0  0
   -1.3516    1.7559    0.1167 O   0  0  0  0  0  0  0  0  0  0  0  0
    0.4060    1.7297    1.5260 N   0  0  0  0  0  0  0  0  0  0  0  0
    1.1097    1.1556    1.9816 H   0  0  0  0  0  0  0  0  0  0  0  0
    0.2641    3.1242    1.9279 C   0  0  0  0  0  0  0  0  0  0  0  0
   -0.6970    3.2825    2.4284 H   0  0  0  0  0  0  0  0  0  0  0  0
    1.0650    3.4024    2.6198 H   0  0  0  0  0  0  0  0  0  0  0  0
    0.3190    3.7826    1.0545 H   0  0  0  0  0  0  0  0  0  0  0  0
  1  2  1  0  0  0  0
  2  3  1  0  0  0  0
  2  4  1  0  0  0  0
  2  5  1  0  0  0  0
  5  6  2  0  0  0  0
  5  7  1  0  0  0  0
  7  8  1  0  0  0  0
  7  9  1  0  0  0  0
  9 10  1  0  0  0  0
  9 11  1  0  0  0  0
  9 21  1  0  0  0  0
 11 12  1  0  0  0  0
 11 13  1  0  0  0  0
 11 14  1  0  0  0  0
 14 15  1  0  0  0  0
 14 16  1  0  0  0  0
 14 17  1  0  0  0  0
 17 18  2  0  0  0  0
 17 19  1  0  0  0  0
 19 20  1  0  0  0  0
 21 22  2  0  0  0  0
 21 23  1  0  0  0  0
 23 24  1  0  0  0  0
 23 25  1  0  0  0  0
 25 26  1  0  0  0  0
 25 27  1  0  0  0  0
 25 28  1  0  0  0  0
M  END
$$$$

  -OEChem-02102214123D

 28 27  0     1  0  0  0  0  0999 V2000
   -3.2065   -3.8607    1.3758 H   0  0  0  0  0  0  0  0  0  0  0  0
   -3.2070   -2.8731    0.9060 C   0  0  0  0  0  0  0  0  0  0  0  0
   -3.8735   -2.2148    1.4685 H   0  0  0  0  0  0  0  0  0  0  0  0
   -3.5792   -2.9698   -0.1168 H   0  0  0  0  0  0  0  0  0  0  0  0
   -1.8034   -2.2989    0.8929 C   0  0  0  0  0  0  0  0  0  0  0  0
   -0.8802   -2.9225    1.3919 O   0  0  0  0  0  0  0  0  0  0  0  0
   -1.5722   -1.0731    0.3063 N   0  0  0  0  0  0  0  0  0  0  0  0
   -2.3765   -0.5631   -0.0580 H   0  0  0  0  0  0  0  0  0  0  0  0
   -0.2719   -0.3868    0.2642 C   0  0  1  0  0  0  0  0  0  0  0  0
    0.3798   -0.8158    1.0327 H   0  0  0  0  0  0  0  0  0  0  0  0
    0.4627   -0.5074   -1.1010 C   0  0  0  0  0  0  0  0  0  0  0  0
    0.7193    0.4904   -1.4768 H   0  0  0  0  0  0  0  0  0  0  0  0
    1.4151   -1.0081   -0.8980 H   0  0  0  0  0  0  0  0  0  0  0  0
   -0.2391   -1.3135   -2.2247 C   0  0  0  0  0  0  0  0  0  0  0  0
    0.5127   -1.9327   -2.7225 H   0  0  0  0  0  0  0  0  0  0  0  0
   -0.9992   -2.0040   -1.8580 H   0  0  0  0  0  0  0  0  0  0  0  0
   -0.8336   -0.3941   -3.2837 C   0  0  0  0  0  0  0  0  0  0  0  0
   -0.0815    0.1649   -4.0644 O   0  0  0  0  0  0  0  0  0  0  0  0
   -2.1775   -0.2319   -3.2878 O   0  0  0  0  0  0  0  0  0  0  0  0
   -2.3627    0.4122   -3.9882 H   0  0  0  0  0  0  0  0  0  0  0  0
   -0.4584    1.1020    0.6252 C   0  0  0  0  0  0  0  0  0  0  0  0
   -1.3952    1.7335    0.1502 O   0  0  0  0  0  0  0  0  0  0  0  0
    0.4051    1.7276    1.5055 N   0  0  0  0  0  0  0  0  0  0  0  0
    1.1430    1.1667    1.9217 H   0  0  0  0  0  0  0  0  0  0  0  0
    0.2581    3.1190    1.9158 C   0  0  0  0  0  0  0  0  0  0  0  0
   -0.6995    3.2694    2.4256 H   0  0  0  0  0  0  0  0  0  0  0  0
    1.0633    3.3989    2.6019 H   0  0  0  0  0  0  0  0  0  0  0  0
    0.3017    3.7818    1.0451 H   0  0  0  0  0  0  0  0  0  0  0  0
  1  2  1  0  0  0  0
  2  3  1  0  0  0  0
  2  4  1  0  0  0  0
  2  5  1  0  0  0  0
  5  6  2  0  0  0  0
  5  7  1  0  0  0  0
  7  8  1  0  0  0  0
  7  9  1  0  0  0  0
  9 10  1  0  0  0  0
  9 11  1  0  0  0  0
  9 21  1  0  0  0  0
 11 12  1  0  0  0  0
 11 13  1  0  0  0  0
 11 14  1  0  0  0  0
 14 15  1  0  0  0  0
 14 16  1  0  0  0  0
 14 17  1  0  0  0  0
 17 18  2  0  0  0  0
 17 19  1  0  0  0  0
 19 20  1  0  0  0  0
 21 22  2  0  0  0  0
 21 23  1  0  0  0  0
 23 24  1  0  0  0  0
 23 25  1  0  0  0  0
 25 26  1  0  0  0  0
 25 27  1  0  0  0  0
 25 28  1  0  0  0  0
M  END
$$$$

  -OEChem-02102214123D

 28 27  0     1  0  0  0  0  0999 V2000
   -3.2093   -3.8466    1.4415 H   0  0  0  0  0  0  0  0  0  0  0  0
   -3.2187   -2.8535    0.9836 C   0  0  0  0  0  0  0  0  0  0  0  0
   -3.8498   -2.1939    1.5841 H   0  0  0  0  0  0  0  0  0  0  0  0
   -3.6395   -2.9333   -0.0217 H   0  0  0  0  0  0  0  0  0  0  0  0
   -1.8094   -2.2975    0.9119 C   0  0  0  0  0  0  0  0  0  0  0  0
   -0.8741   -2.9365    1.3673 O   0  0  0  0  0  0  0  0  0  0  0  0
   -1.5877   -1.0714    0.3218 N   0  0  0  0  0  0  0  0  0  0  0  0
   -2.4028   -0.5367    0.0237 H   0  0  0  0  0  0  0  0  0  0  0  0
   -0.2864   -0.3890    0.2592 C   0  0  1  0  0  0  0  0  0  0  0  0
    0.3687   -0.8173    1.0250 H   0  0  0  0  0  0  0  0  0  0  0  0
    0.4483   -0.5203   -1.1063 C   0  0  0  0  0  0  0  0  0  0  0  0
    0.6796    0.4839   -1.4810 H   0  0  0  0  0  0  0  0  0  0  0  0
    1.4142   -0.9966   -0.9082 H   0  0  0  0  0  0  0  0  0  0  0  0
   -0.2401   -1.3340   -2.2382 C   0  0  0  0  0  0  0  0  0  0  0  0
    0.4156   -2.1602   -2.5266 H   0  0  0  0  0  0  0  0  0  0  0  0
   -1.1834   -1.7854   -1.9326 H   0  0  0  0  0  0  0  0  0  0  0  0
   -0.4999   -0.4831   -3.4766 C   0  0  0  0  0  0  0  0  0  0  0  0
    0.4557   -0.0319   -4.0859 O   0  0  0  0  0  0  0  0  0  0  0  0
   -1.7869   -0.2638   -3.8326 O   0  0  0  0  0  0  0  0  0  0  0  0
   -1.7508    0.3115   -4.6117 H   0  0  0  0  0  0  0  0  0  0  0  0
   -0.4652    1.0998    0.6246 C   0  0  0  0  0  0  0  0  0  0  0  0
   -1.4196    1.7265    0.1791 O   0  0  0  0  0  0  0  0  0  0  0  0
    0.4120    1.7250    1.4912 N   0  0  0  0  0  0  0  0  0  0  0  0
    1.1634    1.1671    1.8870 H   0  0  0  0  0  0  0  0  0  0  0  0
    0.2678    3.1148    1.9080 C   0  0  0  0  0  0  0  0  0  0  0  0
   -0.6615    3.2516    2.4708 H   0  0  0  0  0  0  0  0  0  0  0  0
    1.1066    3.4073    2.5469 H   0  0  0  0  0  0  0  0  0  0  0  0
    0.2518    3.7774    1.0361 H   0  0  0  0  0  0  0  0  0  0  0  0
  1  2  1  0  0  0  0
  2  3  1  0  0  0  0
  2  4  1  0  0  0  0
  2  5  1  0  0  0  0
  5  6  2  0  0  0  0
  5  7  1  0  0  0  0
  7  8  1  0  0  0  0
  7  9  1  0  0  0  0
  9 10  1  0  0  0  0
  9 11  1  0  0  0  0
  9 21  1  0  0  0  0
 11 12  1  0  0  0  0
 11 13  1  0  0  0  0
 11 14  1  0  0  0  0
 14 15  1  0  0  0  0
 14 16  1  0  0  0  0
 14 17  1  0  0  0  0
 17 18  2  0  0  0  0
 17 19  1  0  0  0  0
 19 20  1  0  0  0  0
 21 22  2  0  0  0  0
 21 23  1  0  0  0  0
 23 24  1  0  0  0  0
 23 25  1  0  0  0  0
 25 26  1  0  0  0  0
 25 27  1  0  0  0  0
 25 28  1  0  0  0  0
M  END
$$$$

  -OEChem-02102214123D

 28 27  0     1  0  0  0  0  0999 V2000
   -3.2182   -3.8058    1.4963 H   0  0  0  0  0  0  0  0  0  0  0  0
   -3.2249   -2.8209    1.0213 C   0  0  0  0  0  0  0  0  0  0  0  0
   -3.8335   -2.1429    1.6244 H   0  0  0  0  0  0  0  0  0  0  0  0
   -3.6688   -2.9121    0.0270 H   0  0  0  0  0  0  0  0  0  0  0  0
   -1.8106   -2.2848    0.9085 C   0  0  0  0  0  0  0  0  0  0  0  0
   -0.8716   -2.9377    1.3354 O   0  0  0  0  0  0  0  0  0  0  0  0
   -1.5906   -1.0562    0.3226 N   0  0  0  0  0  0  0  0  0  0  0  0
   -2.4085   -0.5043    0.0661 H   0  0  0  0  0  0  0  0  0  0  0  0
   -0.2858   -0.3802    0.2509 C   0  0  1  0  0  0  0  0  0  0  0  0
    0.3710   -0.8149    1.0116 H   0  0  0  0  0  0  0  0  0  0  0  0
    0.4420   -0.5236   -1.1175 C   0  0  0  0  0  0  0  0  0  0  0  0
    0.6332    0.4862   -1.4990 H   0  0  0  0  0  0  0  0  0  0  0  0
    1.4244   -0.9733   -0.9400 H   0  0  0  0  0  0  0  0  0  0  0  0
   -0.2611   -1.3415   -2.2378 C   0  0  0  0  0  0  0  0  0  0  0  0
    0.1998   -2.3299   -2.3140 H   0  0  0  0  0  0  0  0  0  0  0  0
   -1.3187   -1.4976   -2.0249 H   0  0  0  0  0  0  0  0  0  0  0  0
   -0.2029   -0.6499   -3.5982 C   0  0  0  0  0  0  0  0  0  0  0  0
    0.8713   -0.2330   -3.9997 O   0  0  0  0  0  0  0  0  0  0  0  0
   -1.3550   -0.5422   -4.3004 O   0  0  0  0  0  0  0  0  0  0  0  0
   -1.1230   -0.0775   -5.1186 H   0  0  0  0  0  0  0  0  0  0  0  0
   -0.4523    1.1077    0.6264 C   0  0  0  0  0  0  0  0  0  0  0  0
   -1.4179    1.7363    0.2088 O   0  0  0  0  0  0  0  0  0  0  0  0
    0.4372    1.7231    1.4877 N   0  0  0  0  0  0  0  0  0  0  0  0
    1.1939    1.1605    1.8663 H   0  0  0  0  0  0  0  0  0  0  0  0
    0.2873    3.1014    1.9392 C   0  0  0  0  0  0  0  0  0  0  0  0
   -0.6464    3.2214    2.4985 H   0  0  0  0  0  0  0  0  0  0  0  0
    1.1202    3.3792    2.5924 H   0  0  0  0  0  0  0  0  0  0  0  0
    0.2763    3.7860    1.0845 H   0  0  0  0  0  0  0  0  0  0  0  0
  1  2  1  0  0  0  0
  2  3  1  0  0  0  0
  2  4  1  0  0  0  0
  2  5  1  0  0  0  0
  5  6  2  0  0  0  0
  5  7  1  0  0  0  0
  7  8  1  0  0  0  0
  7  9  1  0  0  0  0
  9 10  1  0  0  0  0
  9 11  1  0  0  0  0
  9 21  1  0  0  0  0
 11 12  1  0  0  0  0
 11 13  1  0  0  0  0
 11 14  1  0  0  0  0
 14 15  1  0  0  0  0
 14 16  1  0  0  0  0
 14 17  1  0  0  0  0
 17 18  2  0  0  0  0
 17 19  1  0  0  0  0
 19 20  1  0  0  0  0
 21 22  2  0  0  0  0
 21 23  1  0  0  0  0
 23 24  1  0  0  0  0
 23 25  1  0  0  0  0
 25 26  1  0  0  0  0
 25 27  1  0  0  0  0
 25 28  1  0  0  0  0
M  END
$$$$

  -OEChem-02102214123D

 28 27  0     1  0  0  0  0  0999 V2000
   -3.2296   -3.7821    1.4948 H   0  0  0  0  0  0  0  0  0  0  0  0
   -3.2296   -2.8020    1.0095 C   0  0  0  0  0  0  0  0  0  0  0  0
   -3.8344   -2.1141    1.6051 H   0  0  0  0  0  0  0  0  0  0  0  0
   -3.6738   -2.9004    0.0160 H   0  0  0  0  0  0  0  0  0  0  0  0
   -1.8116   -2.2765    0.8925 C   0  0  0  0  0  0  0  0  0  0  0  0
   -0.8757   -2.9404    1.3091 O   0  0  0  0  0  0  0  0  0  0  0  0
   -1.5848   -1.0457    0.3141 N   0  0  0  0  0  0  0  0  0  0  0  0
   -2.4002   -0.4842    0.0712 H   0  0  0  0  0  0  0  0  0  0  0  0
   -0.2765   -0.3742    0.2524 C   0  0  1  0  0  0  0  0  0  0  0  0
    0.3768   -0.8176    1.0111 H   0  0  0  0  0  0  0  0  0  0  0  0
    0.4457   -0.5194   -1.1165 C   0  0  0  0  0  0  0  0  0  0  0  0
    0.6253    0.4898   -1.5062 H   0  0  0  0  0  0  0  0  0  0  0  0
    1.4298   -0.9711   -0.9533 H   0  0  0  0  0  0  0  0  0  0  0  0
   -0.2888   -1.3327   -2.2141 C   0  0  0  0  0  0  0  0  0  0  0  0
   -0.0603   -2.3965   -2.1067 H   0  0  0  0  0  0  0  0  0  0  0  0
   -1.3695   -1.2127   -2.1171 H   0  0  0  0  0  0  0  0  0  0  0  0
    0.0456   -0.8692   -3.6317 C   0  0  0  0  0  0  0  0  0  0  0  0
    1.1713   -0.4673   -3.8780 O   0  0  0  0  0  0  0  0  0  0  0  0
   -0.9375   -0.9448   -4.5588 O   0  0  0  0  0  0  0  0  0  0  0  0
   -0.5483   -0.6161   -5.3833 H   0  0  0  0  0  0  0  0  0  0  0  0
   -0.4354    1.1125    0.6343 C   0  0  0  0  0  0  0  0  0  0  0  0
   -1.3983    1.7469    0.2189 O   0  0  0  0  0  0  0  0  0  0  0  0
    0.4536    1.7188    1.5024 N   0  0  0  0  0  0  0  0  0  0  0  0
    1.2136    1.1543    1.8712 H   0  0  0  0  0  0  0  0  0  0  0  0
    0.3114    3.0970    1.9568 C   0  0  0  0  0  0  0  0  0  0  0  0
   -0.6310    3.2258    2.4997 H   0  0  0  0  0  0  0  0  0  0  0  0
    1.1353    3.3623    2.6263 H   0  0  0  0  0  0  0  0  0  0  0  0
    0.3237    3.7850    1.1047 H   0  0  0  0  0  0  0  0  0  0  0  0
  1  2  1  0  0  0  0
  2  3  1  0  0  0  0
  2  4  1  0  0  0  0
  2  5  1  0  0  0  0
  5  6  2  0  0  0  0
  5  7  1  0  0  0  0
  7  8  1  0  0  0  0
  7  9  1  0  0  0  0
  9 10  1  0  0  0  0
  9 11  1  0  0  0  0
  9 21  1  0  0  0  0
 11 12  1  0  0  0  0
 11 13  1  0  0  0  0
 11 14  1  0  0  0  0
 14 15  1  0  0  0  0
 14 16  1  0  0  0  0
 14 17  1  0  0  0  0
 17 18  2  0  0  0  0
 17 19  1  0  0  0  0
 19 20  1  0  0  0  0
 21 22  2  0  0  0  0
 21 23  1  0  0  0  0
 23 24  1  0  0  0  0
 23 25  1  0  0  0  0
 25 26  1  0  0  0  0
 25 27  1  0  0  0  0
 25 28  1  0  0  0  0
M  END
$$$$

  -OEChem-02102214123D

 28 27  0     1  0  0  0  0  0999 V2000
   -3.2426   -3.7678    1.4547 H   0  0  0  0  0  0  0  0  0  0  0  0
   -3.2330   -2.7885    0.9682 C   0  0  0  0  0  0  0  0  0  0  0  0
   -3.8463   -2.0984    1.5527 H   0  0  0  0  0  0  0  0  0  0  0  0
   -3.6607   -2.8881   -0.0324 H   0  0  0  0  0  0  0  0  0  0  0  0
   -1.8123   -2.2658    0.8732 C   0  0  0  0  0  0  0  0  0  0  0  0
   -0.8830   -2.9351    1.2955 O   0  0  0  0  0  0  0  0  0  0  0  0
   -1.5741   -1.0329    0.3043 N   0  0  0  0  0  0  0  0  0  0  0  0
   -2.3842   -0.4681    0.0528 H   0  0  0  0  0  0  0  0  0  0  0  0
   -0.2620   -0.3660    0.2593 C   0  0  1  0  0  0  0  0  0  0  0  0
    0.3877   -0.8179    1.0161 H   0  0  0  0  0  0  0  0  0  0  0  0
    0.4537   -0.5061   -1.1115 C   0  0  0  0  0  0  0  0  0  0  0  0
    0.6451    0.4982   -1.5077 H   0  0  0  0  0  0  0  0  0  0  0  0
    1.4296   -0.9777   -0.9537 H   0  0  0  0  0  0  0  0  0  0  0  0
   -0.3135   -1.3088   -2.1891 C   0  0  0  0  0  0  0  0  0  0  0  0
   -0.3054   -2.3722   -1.9344 H   0  0  0  0  0  0  0  0  0  0  0  0
   -1.3540   -0.9752   -2.2209 H   0  0  0  0  0  0  0  0  0  0  0  0
    0.2377   -1.1257   -3.6029 C   0  0  0  0  0  0  0  0  0  0  0  0
    1.3666   -0.6906   -3.7639 O   0  0  0  0  0  0  0  0  0  0  0  0
   -0.5767   -1.4768   -4.6246 O   0  0  0  0  0  0  0  0  0  0  0  0
   -0.0745   -1.3020   -5.4348 H   0  0  0  0  0  0  0  0  0  0  0  0
   -0.4160    1.1193    0.6477 C   0  0  0  0  0  0  0  0  0  0  0  0
   -1.3690    1.7625    0.2229 O   0  0  0  0  0  0  0  0  0  0  0  0
    0.4682    1.7157    1.5274 N   0  0  0  0  0  0  0  0  0  0  0  0
    1.2178    1.1430    1.9049 H   0  0  0  0  0  0  0  0  0  0  0  0
    0.3361    3.0956    1.9795 C   0  0  0  0  0  0  0  0  0  0  0  0
   -0.6147    3.2375    2.5041 H   0  0  0  0  0  0  0  0  0  0  0  0
    1.1505    3.3494    2.6649 H   0  0  0  0  0  0  0  0  0  0  0  0
    0.3744    3.7833    1.1280 H   0  0  0  0  0  0  0  0  0  0  0  0
  1  2  1  0  0  0  0
  2  3  1  0  0  0  0
  2  4  1  0  0  0  0
  2  5  1  0  0  0  0
  5  6  2  0  0  0  0
  5  7  1  0  0  0  0
  7  8  1  0  0  0  0
  7  9  1  0  0  0  0
  9 10  1  0  0  0  0
  9 11  1  0  0  0  0
  9 21  1  0  0  0  0
 11 12  1  0  0  0  0
 11 13  1  0  0  0  0
 11 14  1  0  0  0  0
 14 15  1  0  0  0  0
 14 16  1  0  0  0  0
 14 17  1  0  0  0  0
 17 18  2  0  0  0  0
 17 19  1  0  0  0  0
 19 20  1  0  0  0  0
 21 22  2  0  0  0  0
 21 23  1  0  0  0  0
 23 24  1  0  0  0  0
 23 25  1  0  0  0  0
 25 26  1  0  0  0  0
 25 27  1  0  0  0  0
 25 28  1  0  0  0  0
M  END
$$$$

  -OEChem-02102214123D

 28 27  0     1  0  0  0  0  0999 V2000
   -3.2538   -3.7574    1.4405 H   0  0  0  0  0  0  0  0  0  0  0  0
   -3.2334   -2.7827    0.9452 C   0  0  0  0  0  0  0  0  0  0  0  0
   -3.8557   -2.0862    1.5123 H   0  0  0  0  0  0  0  0  0  0  0  0
   -3.6434   -2.8904   -0.0619 H   0  0  0  0  0  0  0  0  0  0  0  0
   -1.8104   -2.2635    0.8708 C   0  0  0  0  0  0  0  0  0  0  0  0
   -0.8898   -2.9327    1.3118 O   0  0  0  0  0  0  0  0  0  0  0  0
   -1.5602   -1.0334    0.3012 N   0  0  0  0  0  0  0  0  0  0  0  0
   -2.3638   -0.4655    0.0362 H   0  0  0  0  0  0  0  0  0  0  0  0
   -0.2426   -0.3777    0.2663 C   0  0  1  0  0  0  0  0  0  0  0  0
    0.4135   -0.8297    1.0178 H   0  0  0  0  0  0  0  0  0  0  0  0
    0.4531   -0.4963   -1.1133 C   0  0  0  0  0  0  0  0  0  0  0  0
    0.9303    0.4570   -1.3690 H   0  0  0  0  0  0  0  0  0  0  0  0
    1.2521   -1.2402   -1.0207 H   0  0  0  0  0  0  0  0  0  0  0  0
   -0.4670   -0.9319   -2.2768 C   0  0  0  0  0  0  0  0  0  0  0  0
   -0.8997   -1.9119   -2.0579 H   0  0  0  0  0  0  0  0  0  0  0  0
   -1.2850   -0.2132   -2.3794 H   0  0  0  0  0  0  0  0  0  0  0  0
    0.2475   -1.0392   -3.6241 C   0  0  0  0  0  0  0  0  0  0  0  0
    1.4312   -0.7547   -3.7144 O   0  0  0  0  0  0  0  0  0  0  0  0
   -0.4977   -1.4579   -4.6725 O   0  0  0  0  0  0  0  0  0  0  0  0
    0.1012   -1.4670   -5.4344 H   0  0  0  0  0  0  0  0  0  0  0  0
   -0.3999    1.1078    0.6526 C   0  0  0  0  0  0  0  0  0  0  0  0
   -1.3439    1.7546    0.2126 O   0  0  0  0  0  0  0  0  0  0  0  0
    0.4762    1.7029    1.5413 N   0  0  0  0  0  0  0  0  0  0  0  0
    1.2244    1.1304    1.9220 H   0  0  0  0  0  0  0  0  0  0  0  0
    0.3465    3.0844    1.9883 C   0  0  0  0  0  0  0  0  0  0  0  0
   -0.6154    3.2368    2.4893 H   0  0  0  0  0  0  0  0  0  0  0  0
    1.1458    3.3308    2.6940 H   0  0  0  0  0  0  0  0  0  0  0  0
    0.4133    3.7701    1.1371 H   0  0  0  0  0  0  0  0  0  0  0  0
  1  2  1  0  0  0  0
  2  3  1  0  0  0  0
  2  4  1  0  0  0  0
  2  5  1  0  0  0  0
  5  6  2  0  0  0  0
  5  7  1  0  0  0  0
  7  8  1  0  0  0  0
  7  9  1  0  0  0  0
  9 10  1  0  0  0  0
  9 11  1  0  0  0  0
  9 21  1  0  0  0  0
 11 12  1  0  0  0  0
 11 13  1  0  0  0  0
 11 14  1  0  0  0  0
 14 15  1  0  0  0  0
 14 16  1  0  0  0  0
 14 17  1  0  0  0  0
 17 18  2  0  0  0  0
 17 19  1  0  0  0  0
 19 20  1  0  0  0  0
 21 22  2  0  0  0  0
 21 23  1  0  0  0  0
 23 24  1  0  0  0  0
 23 25  1  0  0  0  0
 25 26  1  0  0  0  0
 25 27  1  0  0  0  0
 25 28  1  0  0  0  0
M  END
$$$$

  -OEChem-02102214123D

 28 27  0     1  0  0  0  0  0999 V2000
   -3.2810   -3.7438    1.4763 H   0  0  0  0  0  0  0  0  0  0  0  0
   -3.2583   -2.7763    0.9668 C   0  0  0  0  0  0  0  0  0  0  0  0
   -3.8751   -2.0692    1.5268 H   0  0  0  0  0  0  0  0  0  0  0  0
   -3.6737   -2.8967   -0.0366 H   0  0  0  0  0  0  0  0  0  0  0  0
   -1.8331   -2.2649    0.8786 C   0  0  0  0  0  0  0  0  0  0  0  0
   -0.9119   -2.9402    1.3090 O   0  0  0  0  0  0  0  0  0  0  0  0
   -1.5814   -1.0331    0.3133 N   0  0  0  0  0  0  0  0  0  0  0  0
   -2.3837   -0.4597    0.0565 H   0  0  0  0  0  0  0  0  0  0  0  0
   -0.2608   -0.3855    0.2679 C   0  0  1  0  0  0  0  0  0  0  0  0
    0.3989   -0.8452    1.0114 H   0  0  0  0  0  0  0  0  0  0  0  0
    0.4324   -0.4869   -1.1157 C   0  0  0  0  0  0  0  0  0  0  0  0
    0.9333    0.4570   -1.3601 H   0  0  0  0  0  0  0  0  0  0  0  0
    1.2163   -1.2460   -1.0151 H   0  0  0  0  0  0  0  0  0  0  0  0
   -0.4703   -0.9029   -2.3024 C   0  0  0  0  0  0  0  0  0  0  0  0
   -1.0843   -1.7621   -2.0226 H   0  0  0  0  0  0  0  0  0  0  0  0
   -1.1394   -0.0781   -2.5625 H   0  0  0  0  0  0  0  0  0  0  0  0
    0.3115   -1.3314   -3.5449 C   0  0  0  0  0  0  0  0  0  0  0  0
    1.4922   -1.0404   -3.6511 O   0  0  0  0  0  0  0  0  0  0  0  0
   -0.3725   -2.0172   -4.4896 O   0  0  0  0  0  0  0  0  0  0  0  0
    0.2652   -2.1988   -5.1966 H   0  0  0  0  0  0  0  0  0  0  0  0
   -0.4088    1.0981    0.6651 C   0  0  0  0  0  0  0  0  0  0  0  0
   -1.3532    1.7527    0.2377 O   0  0  0  0  0  0  0  0  0  0  0  0
    0.4789    1.6838    1.5484 N   0  0  0  0  0  0  0  0  0  0  0  0
    1.2299    1.1063    1.9159 H   0  0  0  0  0  0  0  0  0  0  0  0
    0.3744    3.0705    1.9862 C   0  0  0  0  0  0  0  0  0  0  0  0
   -0.5821    3.2428    2.4909 H   0  0  0  0  0  0  0  0  0  0  0  0
    1.1817    3.3086    2.6855 H   0  0  0  0  0  0  0  0  0  0  0  0
    0.4478    3.7489    1.1296 H   0  0  0  0  0  0  0  0  0  0  0  0
  1  2  1  0  0  0  0
  2  3  1  0  0  0  0
  2  4  1  0  0  0  0
  2  5  1  0  0  0  0
  5  6  2  0  0  0  0
  5  7  1  0  0  0  0
  7  8  1  0  0  0  0
  7  9  1  0  0  0  0
  9 10  1  0  0  0  0
  9 11  1  0  0  0  0
  9 21  1  0  0  0  0
 11 12  1  0  0  0  0
 11 13  1  0  0  0  0
 11 14  1  0  0  0  0
 14 15  1  0  0  0  0
 14 16  1  0  0  0  0
 14 17  1  0  0  0  0
 17 18  2  0  0  0  0
 17 19  1  0  0  0  0
 19 20  1  0  0  0  0
 21 22  2  0  0  0  0
 21 23  1  0  0  0  0
 23 24  1  0  0  0  0
 23 25  1  0  0  0  0
 25 26  1  0  0  0  0
 25 27  1  0  0  0  0
 25 28  1  0  0  0  0
M  END
$$$$

  -OEChem-02102214123D

 28 27  0     1  0  0  0  0  0999 V2000
   -3.3034   -3.7304    1.4772 H   0  0  0  0  0  0  0  0  0  0  0  0
   -3.2796   -2.7575    0.9782 C   0  0  0  0  0  0  0  0  0  0  0  0
   -3.8852   -2.0522    1.5524 H   0  0  0  0  0  0  0  0  0  0  0  0
   -3.7066   -2.8645   -0.0220 H   0  0  0  0  0  0  0  0  0  0  0  0
   -1.8518   -2.2548    0.8799 C   0  0  0  0  0  0  0  0  0  0  0  0
   -0.9312   -2.9383    1.2987 O   0  0  0  0  0  0  0  0  0  0  0  0
   -1.5970   -1.0221    0.3176 N   0  0  0  0  0  0  0  0  0  0  0  0
   -2.3979   -0.4409    0.0734 H   0  0  0  0  0  0  0  0  0  0  0  0
   -0.2725   -0.3845    0.2606 C   0  0  1  0  0  0  0  0  0  0  0  0
    0.3882   -0.8510    0.9991 H   0  0  0  0  0  0  0  0  0  0  0  0
    0.4182   -0.4807   -1.1267 C   0  0  0  0  0  0  0  0  0  0  0  0
    0.9393    0.4543   -1.3626 H   0  0  0  0  0  0  0  0  0  0  0  0
    1.1908   -1.2498   -1.0145 H   0  0  0  0  0  0  0  0  0  0  0  0
   -0.4649   -0.8832   -2.3378 C   0  0  0  0  0  0  0  0  0  0  0  0
   -1.2648   -1.5580   -2.0303 H   0  0  0  0  0  0  0  0  0  0  0  0
   -0.9313    0.0079   -2.7665 H   0  0  0  0  0  0  0  0  0  0  0  0
    0.3076   -1.6322   -3.4236 C   0  0  0  0  0  0  0  0  0  0  0  0
    1.4870   -1.3755   -3.6048 O   0  0  0  0  0  0  0  0  0  0  0  0
   -0.3757   -2.5451   -4.1522 O   0  0  0  0  0  0  0  0  0  0  0  0
    0.2625   -2.9100   -4.7838 H   0  0  0  0  0  0  0  0  0  0  0  0
   -0.4081    1.0979    0.6667 C   0  0  0  0  0  0  0  0  0  0  0  0
   -1.3541    1.7596    0.2540 O   0  0  0  0  0  0  0  0  0  0  0  0
    0.4918    1.6747    1.5438 N   0  0  0  0  0  0  0  0  0  0  0  0
    1.2358    1.0878    1.9105 H   0  0  0  0  0  0  0  0  0  0  0  0
    0.3841    3.0525    2.0087 C   0  0  0  0  0  0  0  0  0  0  0  0
   -0.5667    3.2081    2.5294 H   0  0  0  0  0  0  0  0  0  0  0  0
    1.1991    3.2830    2.7016 H   0  0  0  0  0  0  0  0  0  0  0  0
    0.4417    3.7476    1.1644 H   0  0  0  0  0  0  0  0  0  0  0  0
  1  2  1  0  0  0  0
  2  3  1  0  0  0  0
  2  4  1  0  0  0  0
  2  5  1  0  0  0  0
  5  6  2  0  0  0  0
  5  7  1  0  0  0  0
  7  8  1  0  0  0  0
  7  9  1  0  0  0  0
  9 10  1  0  0  0  0
  9 11  1  0  0  0  0
  9 21  1  0  0  0  0
 11 12  1  0  0  0  0
 11 13  1  0  0  0  0
 11 14  1  0  0  0  0
 14 15  1  0  0  0  0
 14 16  1  0  0  0  0
 14 17  1  0  0  0  0
 17 18  2  0  0  0  0
 17 19  1  0  0  0  0
 19 20  1  0  0  0  0
 21 22  2  0  0  0  0
 21 23  1  0  0  0  0
 23 24  1  0  0  0  0
 23 25  1  0  0  0  0
 25 26  1  0  0  0  0
 25 27  1  0  0  0  0
 25 28  1  0  0  0  0
M  END
$$$$

  -OEChem-02102214123D

 28 27  0     1  0  0  0  0  0999 V2000
   -3.3205   -3.7196    1.4565 H   0  0  0  0  0  0  0  0  0  0  0  0
   -3.2946   -2.7453    0.9603 C   0  0  0  0  0  0  0  0  0  0  0  0
   -3.8958   -2.0398    1.5388 H   0  0  0  0  0  0  0  0  0  0  0  0
   -3.7249   -2.8466   -0.0390 H   0  0  0  0  0  0  0  0  0  0  0  0
   -1.8651   -2.2483    0.8595 C   0  0  0  0  0  0  0  0  0  0  0  0
   -0.9461   -2.9381    1.2715 O   0  0  0  0  0  0  0  0  0  0  0  0
   -1.6068   -1.0118    0.3070 N   0  0  0  0  0  0  0  0  0  0  0  0
   -2.4057   -0.4247    0.0706 H   0  0  0  0  0  0  0  0  0  0  0  0
   -0.2795   -0.3806    0.2530 C   0  0  1  0  0  0  0  0  0  0  0  0
    0.3774   -0.8546    0.9900 H   0  0  0  0  0  0  0  0  0  0  0  0
    0.4159   -0.4743   -1.1335 C   0  0  0  0  0  0  0  0  0  0  0  0
    0.9378    0.4622   -1.3600 H   0  0  0  0  0  0  0  0  0  0  0  0
    1.1936   -1.2375   -1.0166 H   0  0  0  0  0  0  0  0  0  0  0  0
   -0.4518   -0.8673   -2.3628 C   0  0  0  0  0  0  0  0  0  0  0  0
   -1.4150   -1.2856   -2.0709 H   0  0  0  0  0  0  0  0  0  0  0  0
   -0.6633    0.0266   -2.9558 H   0  0  0  0  0  0  0  0  0  0  0  0
    0.2223   -1.9090   -3.2534 C   0  0  0  0  0  0  0  0  0  0  0  0
    1.3864   -1.7409   -3.5787 O   0  0  0  0  0  0  0  0  0  0  0  0
   -0.5165   -2.9726   -3.6468 O   0  0  0  0  0  0  0  0  0  0  0  0
    0.0741   -3.5190   -4.1872 H   0  0  0  0  0  0  0  0  0  0  0  0
   -0.4087    1.0989    0.6723 C   0  0  0  0  0  0  0  0  0  0  0  0
   -1.3505    1.7689    0.2635 O   0  0  0  0  0  0  0  0  0  0  0  0
    0.4944    1.6650    1.5531 N   0  0  0  0  0  0  0  0  0  0  0  0
    1.2332    1.0709    1.9190 H   0  0  0  0  0  0  0  0  0  0  0  0
    0.3890    3.0379    2.0334 C   0  0  0  0  0  0  0  0  0  0  0  0
   -0.5583    3.1879    2.5623 H   0  0  0  0  0  0  0  0  0  0  0  0
    1.2086    3.2620    2.7229 H   0  0  0  0  0  0  0  0  0  0  0  0
    0.4402    3.7419    1.1961 H   0  0  0  0  0  0  0  0  0  0  0  0
  1  2  1  0  0  0  0
  2  3  1  0  0  0  0
  2  4  1  0  0  0  0
  2  5  1  0  0  0  0
  5  6  2  0  0  0  0
  5  7  1  0  0  0  0
  7  8  1  0  0  0  0
  7  9  1  0  0  0  0
  9 10  1  0  0  0  0
  9 11  1  0  0  0  0
  9 21  1  0  0  0  0
 11 12  1  0  0  0  0
 11 13  1  0  0  0  0
 11 14  1  0  0  0  0
 14 15  1  0  0  0  0
 14 16  1  0  0  0  0
 14 17  1  0  0  0  0
 17 18  2  0  0  0  0
 17 19  1  0  0  0  0
 19 20  1  0  0  0  0
 21 22  2  0  0  0  0
 21 23  1  0  0  0  0
 23 24  1  0  0  0  0
 23 25  1  0  0  0  0
 25 26  1  0  0  0  0
 25 27  1  0  0  0  0
 25 28  1  0  0  0  0
M  END
$$$$

  -OEChem-02102214123D

 28 27  0     1  0  0  0  0  0999 V2000
   -3.3246   -3.7285    1.3746 H   0  0  0  0  0  0  0  0  0  0  0  0
   -3.2910   -2.7493    0.8886 C   0  0  0  0  0  0  0  0  0  0  0  0
   -3.9154   -2.0534    1.4541 H   0  0  0  0  0  0  0  0  0  0  0  0
   -3.6882   -2.8446   -0.1250 H   0  0  0  0  0  0  0  0  0  0  0  0
   -1.8633   -2.2406    0.8367 C   0  0  0  0  0  0  0  0  0  0  0  0
   -0.9528   -2.9226    1.2802 O   0  0  0  0  0  0  0  0  0  0  0  0
   -1.5974   -1.0030    0.2904 N   0  0  0  0  0  0  0  0  0  0  0  0
   -2.3924   -0.4239    0.0244 H   0  0  0  0  0  0  0  0  0  0  0  0
   -0.2694   -0.3721    0.2538 C   0  0  1  0  0  0  0  0  0  0  0  0
    0.3797   -0.8491    0.9959 H   0  0  0  0  0  0  0  0  0  0  0  0
    0.4334   -0.4743   -1.1279 C   0  0  0  0  0  0  0  0  0  0  0  0
    0.9295    0.4760   -1.3549 H   0  0  0  0  0  0  0  0  0  0  0  0
    1.2335   -1.2147   -1.0170 H   0  0  0  0  0  0  0  0  0  0  0  0
   -0.4371   -0.8701   -2.3535 C   0  0  0  0  0  0  0  0  0  0  0  0
   -1.4948   -0.9749   -2.1117 H   0  0  0  0  0  0  0  0  0  0  0  0
   -0.3760   -0.0694   -3.0958 H   0  0  0  0  0  0  0  0  0  0  0  0
    0.0424   -2.1559   -3.0184 C   0  0  0  0  0  0  0  0  0  0  0  0
    1.1708   -2.1906   -3.4807 O   0  0  0  0  0  0  0  0  0  0  0  0
   -0.8156   -3.2018   -3.0571 O   0  0  0  0  0  0  0  0  0  0  0  0
   -0.3336   -3.9223   -3.4904 H   0  0  0  0  0  0  0  0  0  0  0  0
   -0.3993    1.1069    0.6740 C   0  0  0  0  0  0  0  0  0  0  0  0
   -1.3304    1.7819    0.2496 O   0  0  0  0  0  0  0  0  0  0  0  0
    0.4951    1.6692    1.5659 N   0  0  0  0  0  0  0  0  0  0  0  0
    1.2203    1.0690    1.9484 H   0  0  0  0  0  0  0  0  0  0  0  0
    0.3822    3.0390    2.0526 C   0  0  0  0  0  0  0  0  0  0  0  0
   -0.5681    3.1819    2.5779 H   0  0  0  0  0  0  0  0  0  0  0  0
    1.1980    3.2629    2.7466 H   0  0  0  0  0  0  0  0  0  0  0  0
    0.4340    3.7475    1.2191 H   0  0  0  0  0  0  0  0  0  0  0  0
  1  2  1  0  0  0  0
  2  3  1  0  0  0  0
  2  4  1  0  0  0  0
  2  5  1  0  0  0  0
  5  6  2  0  0  0  0
  5  7  1  0  0  0  0
  7  8  1  0  0  0  0
  7  9  1  0  0  0  0
  9 10  1  0  0  0  0
  9 11  1  0  0  0  0
  9 21  1  0  0  0  0
 11 12  1  0  0  0  0
 11 13  1  0  0  0  0
 11 14  1  0  0  0  0
 14 15  1  0  0  0  0
 14 16  1  0  0  0  0
 14 17  1  0  0  0  0
 17 18  2  0  0  0  0
 17 19  1  0  0  0  0
 19 20  1  0  0  0  0
 21 22  2  0  0  0  0
 21 23  1  0  0  0  0
 23 24  1  0  0  0  0
 23 25  1  0  0  0  0
 25 26  1  0  0  0  0
 25 27  1  0  0  0  0
 25 28  1  0  0  0  0
M  END
$$$$

  -OEChem-02102214123D

 28 27  0     1  0  0  0  0  0999 V2000
   -3.3123   -3.7442    1.2810 H   0  0  0  0  0  0  0  0  0  0  0  0
   -3.2721   -2.7650    0.7962 C   0  0  0  0  0  0  0  0  0  0  0  0
   -3.9325   -2.0787    1.3316 H   0  0  0  0  0  0  0  0  0  0  0  0
   -3.6207   -2.8675   -0.2344 H   0  0  0  0  0  0  0  0  0  0  0  0
   -1.8517   -2.2341    0.8072 C   0  0  0  0  0  0  0  0  0  0  0  0
   -0.9499   -2.9036    1.2868 O   0  0  0  0  0  0  0  0  0  0  0  0
   -1.5812   -0.9948    0.2671 N   0  0  0  0  0  0  0  0  0  0  0  0
   -2.3725   -0.4302   -0.0377 H   0  0  0  0  0  0  0  0  0  0  0  0
   -0.2558   -0.3570    0.2536 C   0  0  1  0  0  0  0  0  0  0  0  0
    0.3844   -0.8335    1.0035 H   0  0  0  0  0  0  0  0  0  0  0  0
    0.4560   -0.4764   -1.1208 C   0  0  0  0  0  0  0  0  0  0  0  0
    0.9216    0.4861   -1.3600 H   0  0  0  0  0  0  0  0  0  0  0  0
    1.2764   -1.1952   -1.0158 H   0  0  0  0  0  0  0  0  0  0  0  0
   -0.4283   -0.8891   -2.3263 C   0  0  0  0  0  0  0  0  0  0  0  0
   -1.4905   -0.7022   -2.1578 H   0  0  0  0  0  0  0  0  0  0  0  0
   -0.1479   -0.2696   -3.1829 H   0  0  0  0  0  0  0  0  0  0  0  0
   -0.2014   -2.3400   -2.7353 C   0  0  0  0  0  0  0  0  0  0  0  0
    0.8642   -2.6450   -3.2446 O   0  0  0  0  0  0  0  0  0  0  0  0
   -1.1996   -3.2234   -2.4980 O   0  0  0  0  0  0  0  0  0  0  0  0
   -0.8586   -4.0853   -2.7820 H   0  0  0  0  0  0  0  0  0  0  0  0
   -0.3901    1.1219    0.6716 C   0  0  0  0  0  0  0  0  0  0  0  0
   -1.3077    1.8007    0.2248 O   0  0  0  0  0  0  0  0  0  0  0  0
    0.4913    1.6826    1.5772 N   0  0  0  0  0  0  0  0  0  0  0  0
    1.1980    1.0763    1.9839 H   0  0  0  0  0  0  0  0  0  0  0  0
    0.3699    3.0513    2.0652 C   0  0  0  0  0  0  0  0  0  0  0  0
   -0.5878    3.1917    2.5777 H   0  0  0  0  0  0  0  0  0  0  0  0
    1.1759    3.2749    2.7709 H   0  0  0  0  0  0  0  0  0  0  0  0
    0.4320    3.7618    1.2340 H   0  0  0  0  0  0  0  0  0  0  0  0
  1  2  1  0  0  0  0
  2  3  1  0  0  0  0
  2  4  1  0  0  0  0
  2  5  1  0  0  0  0
  5  6  2  0  0  0  0
  5  7  1  0  0  0  0
  7  8  1  0  0  0  0
  7  9  1  0  0  0  0
  9 10  1  0  0  0  0
  9 11  1  0  0  0  0
  9 21  1  0  0  0  0
 11 12  1  0  0  0  0
 11 13  1  0  0  0  0
 11 14  1  0  0  0  0
 14 15  1  0  0  0  0
 14 16  1  0  0  0  0
 14 17  1  0  0  0  0
 17 18  2  0  0  0  0
 17 19  1  0  0  0  0
 19 20  1  0  0  0  0
 21 22  2  0  0  0  0
 21 23  1  0  0  0  0
 23 24  1  0  0  0  0
 23 25  1  0  0  0  0
 25 26  1  0  0  0  0
 25 27  1  0  0  0  0
 25 28  1  0  0  0  0
M  END
$$$$

  -OEChem-02102214123D

 28 27  0     1  0  0  0  0  0999 V2000
   -3.3135   -3.7446    1.3015 H   0  0  0  0  0  0  0  0  0  0  0  0
   -3.2696   -2.7649    0.8179 C   0  0  0  0  0  0  0  0  0  0  0  0
   -3.9173   -2.0735    1.3622 H   0  0  0  0  0  0  0  0  0  0  0  0
   -3.6319   -2.8617   -0.2084 H   0  0  0  0  0  0  0  0  0  0  0  0
   -1.8443   -2.2463    0.8140 C   0  0  0  0  0  0  0  0  0  0  0  0
   -0.9456   -2.9181    1.2954 O   0  0  0  0  0  0  0  0  0  0  0  0
   -1.5672   -1.0127    0.2646 N   0  0  0  0  0  0  0  0  0  0  0  0
   -2.3562   -0.4551   -0.0584 H   0  0  0  0  0  0  0  0  0  0  0  0
   -0.2453   -0.3665    0.2662 C   0  0  1  0  0  0  0  0  0  0  0  0
    0.3863   -0.8319    1.0300 H   0  0  0  0  0  0  0  0  0  0  0  0
    0.4874   -0.4883   -1.0969 C   0  0  0  0  0  0  0  0  0  0  0  0
    0.9431    0.4781   -1.3392 H   0  0  0  0  0  0  0  0  0  0  0  0
    1.3138   -1.1990   -0.9848 H   0  0  0  0  0  0  0  0  0  0  0  0
   -0.3875   -0.9150   -2.3001 C   0  0  0  0  0  0  0  0  0  0  0  0
   -1.3975   -0.5040   -2.2227 H   0  0  0  0  0  0  0  0  0  0  0  0
    0.0489   -0.4988   -3.2124 H   0  0  0  0  0  0  0  0  0  0  0  0
   -0.4384   -2.4301   -2.4800 C   0  0  0  0  0  0  0  0  0  0  0  0
    0.5926   -3.0151   -2.7671 O   0  0  0  0  0  0  0  0  0  0  0  0
   -1.6316   -3.0513   -2.3237 O   0  0  0  0  0  0  0  0  0  0  0  0
   -1.4476   -3.9947   -2.4525 H   0  0  0  0  0  0  0  0  0  0  0  0
   -0.3968    1.1167    0.6637 C   0  0  0  0  0  0  0  0  0  0  0  0
   -1.3083    1.7854    0.1900 O   0  0  0  0  0  0  0  0  0  0  0  0
    0.4652    1.6939    1.5777 N   0  0  0  0  0  0  0  0  0  0  0  0
    1.1716    1.0983    2.0005 H   0  0  0  0  0  0  0  0  0  0  0  0
    0.3364    3.0718    2.0371 C   0  0  0  0  0  0  0  0  0  0  0  0
   -0.6296    3.2227    2.5306 H   0  0  0  0  0  0  0  0  0  0  0  0
    1.1306    3.3086    2.7518 H   0  0  0  0  0  0  0  0  0  0  0  0
    0.4132    3.7661    1.1936 H   0  0  0  0  0  0  0  0  0  0  0  0
  1  2  1  0  0  0  0
  2  3  1  0  0  0  0
  2  4  1  0  0  0  0
  2  5  1  0  0  0  0
  5  6  2  0  0  0  0
  5  7  1  0  0  0  0
  7  8  1  0  0  0  0
  7  9  1  0  0  0  0
  9 10  1  0  0  0  0
  9 11  1  0  0  0  0
  9 21  1  0  0  0  0
 11 12  1  0  0  0  0
 11 13  1  0  0  0  0
 11 14  1  0  0  0  0
 14 15  1  0  0  0  0
 14 16  1  0  0  0  0
 14 17  1  0  0  0  0
 17 18  2  0  0  0  0
 17 19  1  0  0  0  0
 19 20  1  0  0  0  0
 21 22  2  0  0  0  0
 21 23  1  0  0  0  0
 23 24  1  0  0  0  0
 23 25  1  0  0  0  0
 25 26  1  0  0  0  0
 25 27  1  0  0  0  0
 25 28  1  0  0  0  0
M  END
$$$$

  -OEChem-02102214123D

 28 27  0     1  0  0  0  0  0999 V2000
   -3.3110   -3.7574    1.3569 H   0  0  0  0  0  0  0  0  0  0  0  0
   -3.2736   -2.7566    0.9179 C   0  0  0  0  0  0  0  0  0  0  0  0
   -3.8824   -2.0818    1.5245 H   0  0  0  0  0  0  0  0  0  0  0  0
   -3.6878   -2.7988   -0.0923 H   0  0  0  0  0  0  0  0  0  0  0  0
   -1.8412   -2.2592    0.8727 C   0  0  0  0  0  0  0  0  0  0  0  0
   -0.9466   -2.9221    1.3720 O   0  0  0  0  0  0  0  0  0  0  0  0
   -1.5592   -1.0387    0.2971 N   0  0  0  0  0  0  0  0  0  0  0  0
   -2.3463   -0.4875   -0.0423 H   0  0  0  0  0  0  0  0  0  0  0  0
   -0.2378   -0.3923    0.2903 C   0  0  1  0  0  0  0  0  0  0  0  0
    0.3948   -0.8418    1.0629 H   0  0  0  0  0  0  0  0  0  0  0  0
    0.5065   -0.5055   -1.0689 C   0  0  0  0  0  0  0  0  0  0  0  0
    0.9751    0.4570   -1.3026 H   0  0  0  0  0  0  0  0  0  0  0  0
    1.3226   -1.2264   -0.9498 H   0  0  0  0  0  0  0  0  0  0  0  0
   -0.3413   -0.9316   -2.2895 C   0  0  0  0  0  0  0  0  0  0  0  0
   -1.2588   -0.3372   -2.3255 H   0  0  0  0  0  0  0  0  0  0  0  0
    0.2191   -0.7150   -3.2031 H   0  0  0  0  0  0  0  0  0  0  0  0
   -0.6946   -2.4179   -2.3091 C   0  0  0  0  0  0  0  0  0  0  0  0
    0.2175   -3.2267   -2.3221 O   0  0  0  0  0  0  0  0  0  0  0  0
   -2.0020   -2.7685   -2.3509 O   0  0  0  0  0  0  0  0  0  0  0  0
   -2.0021   -3.7378   -2.3815 H   0  0  0  0  0  0  0  0  0  0  0  0
   -0.4058    1.0977    0.6559 C   0  0  0  0  0  0  0  0  0  0  0  0
   -1.3168    1.7498    0.1586 O   0  0  0  0  0  0  0  0  0  0  0  0
    0.4448    1.7017    1.5634 N   0  0  0  0  0  0  0  0  0  0  0  0
    1.1494    1.1201    2.0083 H   0  0  0  0  0  0  0  0  0  0  0  0
    0.2989    3.0875    1.9934 C   0  0  0  0  0  0  0  0  0  0  0  0
   -0.6745    3.2401    2.4716 H   0  0  0  0  0  0  0  0  0  0  0  0
    1.0820    3.3456    2.7130 H   0  0  0  0  0  0  0  0  0  0  0  0
    0.3806    3.7653    1.1371 H   0  0  0  0  0  0  0  0  0  0  0  0
  1  2  1  0  0  0  0
  2  3  1  0  0  0  0
  2  4  1  0  0  0  0
  2  5  1  0  0  0  0
  5  6  2  0  0  0  0
  5  7  1  0  0  0  0
  7  8  1  0  0  0  0
  7  9  1  0  0  0  0
  9 10  1  0  0  0  0
  9 11  1  0  0  0  0
  9 21  1  0  0  0  0
 11 12  1  0  0  0  0
 11 13  1  0  0  0  0
 11 14  1  0  0  0  0
 14 15  1  0  0  0  0
 14 16  1  0  0  0  0
 14 17  1  0  0  0  0
 17 18  2  0  0  0  0
 17 19  1  0  0  0  0
 19 20  1  0  0  0  0
 21 22  2  0  0  0  0
 21 23  1  0  0  0  0
 23 24  1  0  0  0  0
 23 25  1  0  0  0  0
 25 26  1  0  0  0  0
 25 27  1  0  0  0  0
 25 28  1  0  0  0  0
M  END
$$$$

  -OEChem-02102214123D

 28 27  0     1  0  0  0  0  0999 V2000
   -3.2916   -3.7706    1.4670 H   0  0  0  0  0  0  0  0  0  0  0  0
   -3.2660   -2.7721    1.0219 C   0  0  0  0  0  0  0  0  0  0  0  0
   -3.8817   -2.1005    1.6251 H   0  0  0  0  0  0  0  0  0  0  0  0
   -3.6809   -2.8256    0.0130 H   0  0  0  0  0  0  0  0  0  0  0  0
   -1.8393   -2.2590    0.9736 C   0  0  0  0  0  0  0  0  0  0  0  0
   -0.9468   -2.8854    1.5214 O   0  0  0  0  0  0  0  0  0  0  0  0
   -1.5659   -1.0521    0.3645 N   0  0  0  0  0  0  0  0  0  0  0  0
   -2.3524   -0.5228   -0.0101 H   0  0  0  0  0  0  0  0  0  0  0  0
   -0.2438   -0.4105    0.3248 C   0  0  1  0  0  0  0  0  0  0  0  0
    0.4009   -0.8427    1.0975 H   0  0  0  0  0  0  0  0  0  0  0  0
    0.4946   -0.5196   -1.0413 C   0  0  0  0  0  0  0  0  0  0  0  0
    0.9896    0.4321   -1.2648 H   0  0  0  0  0  0  0  0  0  0  0  0
    1.2906   -1.2616   -0.9136 H   0  0  0  0  0  0  0  0  0  0  0  0
   -0.3149   -0.9423   -2.2908 C   0  0  0  0  0  0  0  0  0  0  0  0
   -1.0936   -0.1942   -2.4658 H   0  0  0  0  0  0  0  0  0  0  0  0
    0.3461   -0.9331   -3.1615 H   0  0  0  0  0  0  0  0  0  0  0  0
   -0.9775   -2.3160   -2.2243 C   0  0  0  0  0  0  0  0  0  0  0  0
   -0.2650   -3.2898   -2.0547 O   0  0  0  0  0  0  0  0  0  0  0  0
   -2.3178   -2.3952   -2.4027 O   0  0  0  0  0  0  0  0  0  0  0  0
   -2.5211   -3.3430   -2.3845 H   0  0  0  0  0  0  0  0  0  0  0  0
   -0.4183    1.0861    0.6610 C   0  0  0  0  0  0  0  0  0  0  0  0
   -1.3320    1.7265    0.1529 O   0  0  0  0  0  0  0  0  0  0  0  0
    0.4397    1.7125    1.5460 N   0  0  0  0  0  0  0  0  0  0  0  0
    1.1411    1.1389    2.0063 H   0  0  0  0  0  0  0  0  0  0  0  0
    0.2910    3.1054    1.9505 C   0  0  0  0  0  0  0  0  0  0  0  0
   -0.6760    3.2610    2.4404 H   0  0  0  0  0  0  0  0  0  0  0  0
    1.0833    3.3824    2.6527 H   0  0  0  0  0  0  0  0  0  0  0  0
    0.3549    3.7665    1.0798 H   0  0  0  0  0  0  0  0  0  0  0  0
  1  2  1  0  0  0  0
  2  3  1  0  0  0  0
  2  4  1  0  0  0  0
  2  5  1  0  0  0  0
  5  6  2  0  0  0  0
  5  7  1  0  0  0  0
  7  8  1  0  0  0  0
  7  9  1  0  0  0  0
  9 10  1  0  0  0  0
  9 11  1  0  0  0  0
  9 21  1  0  0  0  0
 11 12  1  0  0  0  0
 11 13  1  0  0  0  0
 11 14  1  0  0  0  0
 14 15  1  0  0  0  0
 14 16  1  0  0  0  0
 14 17  1  0  0  0  0
 17 18  2  0  0  0  0
 17 19  1  0  0  0  0
 19 20  1  0  0  0  0
 21 22  2  0  0  0  0
 21 23  1  0  0  0  0
 23 24  1  0  0  0  0
 23 25  1  0  0  0  0
 25 26  1  0  0  0  0
 25 27  1  0  0  0  0
 25 28  1  0  0  0  0
M  END
$$$$

  -OEChem-02102214123D

 28 27  0     1  0  0  0  0  0999 V2000
   -3.2476   -3.7828    1.6295 H   0  0  0  0  0  0  0  0  0  0  0  0
   -3.2358   -2.8242    1.1033 C   0  0  0  0  0  0  0  0  0  0  0  0
   -3.9020   -2.1294    1.6203 H   0  0  0  0  0  0  0  0  0  0  0  0
   -3.5999   -2.9779    0.0856 H   0  0  0  0  0  0  0  0  0  0  0  0
   -1.8267   -2.2633    1.0723 C   0  0  0  0  0  0  0  0  0  0  0  0
   -0.9230   -2.8533    1.6423 O   0  0  0  0  0  0  0  0  0  0  0  0
   -1.5797   -1.0600    0.4431 N   0  0  0  0  0  0  0  0  0  0  0  0
   -2.3713   -0.5640    0.0345 H   0  0  0  0  0  0  0  0  0  0  0  0
   -0.2621   -0.4162    0.3604 C   0  0  1  0  0  0  0  0  0  0  0  0
    0.4041   -0.8371    1.1210 H   0  0  0  0  0  0  0  0  0  0  0  0
    0.4527   -0.5186   -1.0211 C   0  0  0  0  0  0  0  0  0  0  0  0
    0.9701    0.4229   -1.2371 H   0  0  0  0  0  0  0  0  0  0  0  0
    1.2326   -1.2769   -0.8911 H   0  0  0  0  0  0  0  0  0  0  0  0
   -0.3260   -0.9387   -2.2953 C   0  0  0  0  0  0  0  0  0  0  0  0
   -0.9249   -0.0792   -2.6107 H   0  0  0  0  0  0  0  0  0  0  0  0
    0.3919   -1.1404   -3.0951 H   0  0  0  0  0  0  0  0  0  0  0  0
   -1.2716   -2.1321   -2.2036 C   0  0  0  0  0  0  0  0  0  0  0  0
   -0.7891   -3.2353   -2.0181 O   0  0  0  0  0  0  0  0  0  0  0  0
   -2.5981   -1.9177   -2.3765 O   0  0  0  0  0  0  0  0  0  0  0  0
   -3.0049   -2.7972   -2.3640 H   0  0  0  0  0  0  0  0  0  0  0  0
   -0.4357    1.0826    0.6888 C   0  0  0  0  0  0  0  0  0  0  0  0
   -1.3523    1.7206    0.1832 O   0  0  0  0  0  0  0  0  0  0  0  0
    0.4426    1.7218    1.5444 N   0  0  0  0  0  0  0  0  0  0  0  0
    1.1538    1.1554    1.9982 H   0  0  0  0  0  0  0  0  0  0  0  0
    0.3159    3.1265    1.9145 C   0  0  0  0  0  0  0  0  0  0  0  0
   -0.6500    3.3106    2.3970 H   0  0  0  0  0  0  0  0  0  0  0  0
    1.1101    3.4079    2.6128 H   0  0  0  0  0  0  0  0  0  0  0  0
    0.3940    3.7641    1.0276 H   0  0  0  0  0  0  0  0  0  0  0  0
  1  2  1  0  0  0  0
  2  3  1  0  0  0  0
  2  4  1  0  0  0  0
  2  5  1  0  0  0  0
  5  6  2  0  0  0  0
  5  7  1  0  0  0  0
  7  8  1  0  0  0  0
  7  9  1  0  0  0  0
  9 10  1  0  0  0  0
  9 11  1  0  0  0  0
  9 21  1  0  0  0  0
 11 12  1  0  0  0  0
 11 13  1  0  0  0  0
 11 14  1  0  0  0  0
 14 15  1  0  0  0  0
 14 16  1  0  0  0  0
 14 17  1  0  0  0  0
 17 18  2  0  0  0  0
 17 19  1  0  0  0  0
 19 20  1  0  0  0  0
 21 22  2  0  0  0  0
 21 23  1  0  0  0  0
 23 24  1  0  0  0  0
 23 25  1  0  0  0  0
 25 26  1  0  0  0  0
 25 27  1  0  0  0  0
 25 28  1  0  0  0  0
M  END
$$$$

  -OEChem-02102214123D

 28 27  0     1  0  0  0  0  0999 V2000
   -3.1792   -3.7625    1.8043 H   0  0  0  0  0  0  0  0  0  0  0  0
   -3.1674   -2.8884    1.1475 C   0  0  0  0  0  0  0  0  0  0  0  0
   -3.8853   -2.1556    1.5236 H   0  0  0  0  0  0  0  0  0  0  0  0
   -3.4634   -3.1986    0.1432 H   0  0  0  0  0  0  0  0  0  0  0  0
   -1.7771   -2.2833    1.1112 C   0  0  0  0  0  0  0  0  0  0  0  0
   -0.8450   -2.8606    1.6485 O   0  0  0  0  0  0  0  0  0  0  0  0
   -1.5743   -1.0654    0.4948 N   0  0  0  0  0  0  0  0  0  0  0  0
   -2.3833   -0.5911    0.0936 H   0  0  0  0  0  0  0  0  0  0  0  0
   -0.2704   -0.4072    0.3579 C   0  0  1  0  0  0  0  0  0  0  0  0
    0.4333   -0.8325    1.0813 H   0  0  0  0  0  0  0  0  0  0  0  0
    0.3862   -0.4873   -1.0548 C   0  0  0  0  0  0  0  0  0  0  0  0
    0.9027    0.4549   -1.2705 H   0  0  0  0  0  0  0  0  0  0  0  0
    1.1683   -1.2472   -0.9523 H   0  0  0  0  0  0  0  0  0  0  0  0
   -0.4044   -0.8991   -2.3304 C   0  0  0  0  0  0  0  0  0  0  0  0
   -0.8074    0.0206   -2.7645 H   0  0  0  0  0  0  0  0  0  0  0  0
    0.3011   -1.3089   -3.0591 H   0  0  0  0  0  0  0  0  0  0  0  0
   -1.5810   -1.8645   -2.2218 C   0  0  0  0  0  0  0  0  0  0  0  0
   -1.3449   -3.0579   -2.1510 O   0  0  0  0  0  0  0  0  0  0  0  0
   -2.8361   -1.3533   -2.2467 O   0  0  0  0  0  0  0  0  0  0  0  0
   -3.4312   -2.1179   -2.2561 H   0  0  0  0  0  0  0  0  0  0  0  0
   -0.4375    1.0837    0.7238 C   0  0  0  0  0  0  0  0  0  0  0  0
   -1.3805    1.7263    0.2764 O   0  0  0  0  0  0  0  0  0  0  0  0
    0.4801    1.7123    1.5455 N   0  0  0  0  0  0  0  0  0  0  0  0
    1.2086    1.1389    1.9612 H   0  0  0  0  0  0  0  0  0  0  0  0
    0.3585    3.1058    1.9566 C   0  0  0  0  0  0  0  0  0  0  0  0
   -0.5756    3.2633    2.5064 H   0  0  0  0  0  0  0  0  0  0  0  0
    1.1938    3.3834    2.6067 H   0  0  0  0  0  0  0  0  0  0  0  0
    0.3679    3.7652    1.0823 H   0  0  0  0  0  0  0  0  0  0  0  0
  1  2  1  0  0  0  0
  2  3  1  0  0  0  0
  2  4  1  0  0  0  0
  2  5  1  0  0  0  0
  5  6  2  0  0  0  0
  5  7  1  0  0  0  0
  7  8  1  0  0  0  0
  7  9  1  0  0  0  0
  9 10  1  0  0  0  0
  9 11  1  0  0  0  0
  9 21  1  0  0  0  0
 11 12  1  0  0  0  0
 11 13  1  0  0  0  0
 11 14  1  0  0  0  0
 14 15  1  0  0  0  0
 14 16  1  0  0  0  0
 14 17  1  0  0  0  0
 17 18  2  0  0  0  0
 17 19  1  0  0  0  0
 19 20  1  0  0  0  0
 21 22  2  0  0  0  0
 21 23  1  0  0  0  0
 23 24  1  0  0  0  0
 23 25  1  0  0  0  0
 25 26  1  0  0  0  0
 25 27  1  0  0  0  0
 25 28  1  0  0  0  0
M  END
$$$$

  -OEChem-02102214123D

 28 27  0     1  0  0  0  0  0999 V2000
   -2.9417   -3.6108    2.2985 H   0  0  0  0  0  0  0  0  0  0  0  0
   -3.0193   -2.7870    1.5837 C   0  0  0  0  0  0  0  0  0  0  0  0
   -3.6613   -2.0121    2.0092 H   0  0  0  0  0  0  0  0  0  0  0  0
   -3.4703   -3.1613    0.6617 H   0  0  0  0  0  0  0  0  0  0  0  0
   -1.6434   -2.2206    1.2900 C   0  0  0  0  0  0  0  0  0  0  0  0
   -0.6447   -2.8071    1.6771 O   0  0  0  0  0  0  0  0  0  0  0  0
   -1.5231   -1.0283    0.6061 N   0  0  0  0  0  0  0  0  0  0  0  0
   -2.3775   -0.5339    0.3491 H   0  0  0  0  0  0  0  0  0  0  0  0
   -0.2509   -0.3961    0.2443 C   0  0  1  0  0  0  0  0  0  0  0  0
    0.5462   -0.8043    0.8745 H   0  0  0  0  0  0  0  0  0  0  0  0
    0.1936   -0.5576   -1.2426 C   0  0  0  0  0  0  0  0  0  0  0  0
    0.6792    0.3676   -1.5732 H   0  0  0  0  0  0  0  0  0  0  0  0
    0.9826   -1.3167   -1.2105 H   0  0  0  0  0  0  0  0  0  0  0  0
   -0.7599   -1.0238   -2.3857 C   0  0  0  0  0  0  0  0  0  0  0  0
   -0.9973   -0.1380   -2.9821 H   0  0  0  0  0  0  0  0  0  0  0  0
   -0.2042   -1.7015   -3.0409 H   0  0  0  0  0  0  0  0  0  0  0  0
   -2.1014   -1.6788   -2.0679 C   0  0  0  0  0  0  0  0  0  0  0  0
   -2.1499   -2.8945   -1.9884 O   0  0  0  0  0  0  0  0  0  0  0  0
   -3.1862   -0.8796   -1.9272 O   0  0  0  0  0  0  0  0  0  0  0  0
   -3.9435   -1.4743   -1.8208 H   0  0  0  0  0  0  0  0  0  0  0  0
   -0.3390    1.1098    0.5749 C   0  0  0  0  0  0  0  0  0  0  0  0
   -1.3430    1.7483    0.2814 O   0  0  0  0  0  0  0  0  0  0  0  0
    0.7050    1.7488    1.2188 N   0  0  0  0  0  0  0  0  0  0  0  0
    1.4845    1.1759    1.5295 H   0  0  0  0  0  0  0  0  0  0  0  0
    0.6483    3.1451    1.6356 C   0  0  0  0  0  0  0  0  0  0  0  0
   -0.1402    3.2899    2.3816 H   0  0  0  0  0  0  0  0  0  0  0  0
    1.6030    3.4477    2.0765 H   0  0  0  0  0  0  0  0  0  0  0  0
    0.4446    3.7945    0.7776 H   0  0  0  0  0  0  0  0  0  0  0  0
  1  2  1  0  0  0  0
  2  3  1  0  0  0  0
  2  4  1  0  0  0  0
  2  5  1  0  0  0  0
  5  6  2  0  0  0  0
  5  7  1  0  0  0  0
  7  8  1  0  0  0  0
  7  9  1  0  0  0  0
  9 10  1  0  0  0  0
  9 11  1  0  0  0  0
  9 21  1  0  0  0  0
 11 12  1  0  0  0  0
 11 13  1  0  0  0  0
 11 14  1  0  0  0  0
 14 15  1  0  0  0  0
 14 16  1  0  0  0  0
 14 17  1  0  0  0  0
 17 18  2  0  0  0  0
 17 19  1  0  0  0  0
 19 20  1  0  0  0  0
 21 22  2  0  0  0  0
 21 23  1  0  0  0  0
 23 24  1  0  0  0  0
 23 25  1  0  0  0  0
 25 26  1  0  0  0  0
 25 27  1  0  0  0  0
 25 28  1  0  0  0  0
M  END
$$$$

  -OEChem-02102214123D

 28 27  0     1  0  0  0  0  0999 V2000
   -2.8035   -3.8283    2.0756 H   0  0  0  0  0  0  0  0  0  0  0  0
   -2.9296   -2.9260    1.4710 C   0  0  0  0  0  0  0  0  0  0  0  0
   -3.5621   -2.2217    2.0165 H   0  0  0  0  0  0  0  0  0  0  0  0
   -3.4205   -3.1967    0.5330 H   0  0  0  0  0  0  0  0  0  0  0  0
   -1.5792   -2.2983    1.1828 C   0  0  0  0  0  0  0  0  0  0  0  0
   -0.5530   -2.8711    1.5155 O   0  0  0  0  0  0  0  0  0  0  0  0
   -1.5129   -1.0687    0.5609 N   0  0  0  0  0  0  0  0  0  0  0  0
   -2.3882   -0.5818    0.3711 H   0  0  0  0  0  0  0  0  0  0  0  0
   -0.2717   -0.3567    0.2407 C   0  0  1  0  0  0  0  0  0  0  0  0
    0.5345   -0.7550    0.8656 H   0  0  0  0  0  0  0  0  0  0  0  0
    0.2033   -0.4515   -1.2425 C   0  0  0  0  0  0  0  0  0  0  0  0
    0.6110    0.5228   -1.5346 H   0  0  0  0  0  0  0  0  0  0  0  0
    1.0544   -1.1408   -1.2295 H   0  0  0  0  0  0  0  0  0  0  0  0
   -0.7066   -0.9369   -2.4144 C   0  0  0  0  0  0  0  0  0  0  0  0
   -0.7482   -0.1316   -3.1532 H   0  0  0  0  0  0  0  0  0  0  0  0
   -0.2069   -1.7808   -2.9000 H   0  0  0  0  0  0  0  0  0  0  0  0
   -2.1519   -1.3542   -2.1568 C   0  0  0  0  0  0  0  0  0  0  0  0
   -2.4191   -2.5431   -2.1001 O   0  0  0  0  0  0  0  0  0  0  0  0
   -3.0806   -0.3761   -2.0438 O   0  0  0  0  0  0  0  0  0  0  0  0
   -3.9360   -0.8221   -1.9596 H   0  0  0  0  0  0  0  0  0  0  0  0
   -0.4275    1.1263    0.6420 C   0  0  0  0  0  0  0  0  0  0  0  0
   -1.4662    1.7273    0.3952 O   0  0  0  0  0  0  0  0  0  0  0  0
    0.5848    1.7792    1.3215 N   0  0  0  0  0  0  0  0  0  0  0  0
    1.4015    1.2353    1.5851 H   0  0  0  0  0  0  0  0  0  0  0  0
    0.4712    3.1546    1.7922 C   0  0  0  0  0  0  0  0  0  0  0  0
   -0.3613    3.2510    2.4972 H   0  0  0  0  0  0  0  0  0  0  0  0
    1.3916    3.4584    2.3001 H   0  0  0  0  0  0  0  0  0  0  0  0
    0.3010    3.8344    0.9506 H   0  0  0  0  0  0  0  0  0  0  0  0
  1  2  1  0  0  0  0
  2  3  1  0  0  0  0
  2  4  1  0  0  0  0
  2  5  1  0  0  0  0
  5  6  2  0  0  0  0
  5  7  1  0  0  0  0
  7  8  1  0  0  0  0
  7  9  1  0  0  0  0
  9 10  1  0  0  0  0
  9 11  1  0  0  0  0
  9 21  1  0  0  0  0
 11 12  1  0  0  0  0
 11 13  1  0  0  0  0
 11 14  1  0  0  0  0
 14 15  1  0  0  0  0
 14 16  1  0  0  0  0
 14 17  1  0  0  0  0
 17 18  2  0  0  0  0
 17 19  1  0  0  0  0
 19 20  1  0  0  0  0
 21 22  2  0  0  0  0
 21 23  1  0  0  0  0
 23 24  1  0  0  0  0
 23 25  1  0  0  0  0
 25 26  1  0  0  0  0
 25 27  1  0  0  0  0
 25 28  1  0  0  0  0
M  END
$$$$

  -OEChem-02102214123D

 28 27  0     1  0  0  0  0  0999 V2000
   -3.2451   -3.6683    1.6836 H   0  0  0  0  0  0  0  0  0  0  0  0
   -3.2538   -2.7205    1.1383 C   0  0  0  0  0  0  0  0  0  0  0  0
   -3.8591   -2.0002    1.6940 H   0  0  0  0  0  0  0  0  0  0  0  0
   -3.7023   -2.8827    0.1554 H   0  0  0  0  0  0  0  0  0  0  0  0
   -1.8397   -2.1966    0.9789 C   0  0  0  0  0  0  0  0  0  0  0  0
   -0.8897   -2.8825    1.3229 O   0  0  0  0  0  0  0  0  0  0  0  0
   -1.6296   -0.9446    0.4419 N   0  0  0  0  0  0  0  0  0  0  0  0
   -2.4475   -0.3709    0.2314 H   0  0  0  0  0  0  0  0  0  0  0  0
   -0.3197   -0.3022    0.2877 C   0  0  1  0  0  0  0  0  0  0  0  0
    0.3797   -0.7869    0.9770 H   0  0  0  0  0  0  0  0  0  0  0  0
    0.3086   -0.4084   -1.1347 C   0  0  0  0  0  0  0  0  0  0  0  0
    0.7581    0.5635   -1.3668 H   0  0  0  0  0  0  0  0  0  0  0  0
    1.1400   -1.1170   -1.0583 H   0  0  0  0  0  0  0  0  0  0  0  0
   -0.5131   -0.8264   -2.3923 C   0  0  0  0  0  0  0  0  0  0  0  0
   -0.2038   -0.1986   -3.2325 H   0  0  0  0  0  0  0  0  0  0  0  0
   -0.2204   -1.8507   -2.6413 H   0  0  0  0  0  0  0  0  0  0  0  0
   -2.0396   -0.8170   -2.3521 C   0  0  0  0  0  0  0  0  0  0  0  0
   -2.6161    0.2460   -2.2061 O   0  0  0  0  0  0  0  0  0  0  0  0
   -2.6859   -1.9961   -2.5138 O   0  0  0  0  0  0  0  0  0  0  0  0
   -3.6298   -1.7778   -2.5233 H   0  0  0  0  0  0  0  0  0  0  0  0
   -0.3934    1.1693    0.7525 C   0  0  0  0  0  0  0  0  0  0  0  0
   -1.3711    1.8570    0.4892 O   0  0  0  0  0  0  0  0  0  0  0  0
    0.5999    1.6980    1.5572 N   0  0  0  0  0  0  0  0  0  0  0  0
    1.3536    1.0798    1.8430 H   0  0  0  0  0  0  0  0  0  0  0  0
    0.5420    3.0444    2.1143 C   0  0  0  0  0  0  0  0  0  0  0  0
   -0.3143    3.1424    2.7898 H   0  0  0  0  0  0  0  0  0  0  0  0
    1.4548    3.2615    2.6773 H   0  0  0  0  0  0  0  0  0  0  0  0
    0.4463    3.7866    1.3144 H   0  0  0  0  0  0  0  0  0  0  0  0
  1  2  1  0  0  0  0
  2  3  1  0  0  0  0
  2  4  1  0  0  0  0
  2  5  1  0  0  0  0
  5  6  2  0  0  0  0
  5  7  1  0  0  0  0
  7  8  1  0  0  0  0
  7  9  1  0  0  0  0
  9 10  1  0  0  0  0
  9 11  1  0  0  0  0
  9 21  1  0  0  0  0
 11 12  1  0  0  0  0
 11 13  1  0  0  0  0
 11 14  1  0  0  0  0
 14 15  1  0  0  0  0
 14 16  1  0  0  0  0
 14 17  1  0  0  0  0
 17 18  2  0  0  0  0
 17 19  1  0  0  0  0
 19 20  1  0  0  0  0
 21 22  2  0  0  0  0
 21 23  1  0  0  0  0
 23 24  1  0  0  0  0
 23 25  1  0  0  0  0
 25 26  1  0  0  0  0
 25 27  1  0  0  0  0
 25 28  1  0  0  0  0
M  END
$$$$

  -OEChem-02102214123D

 28 27  0     1  0  0  0  0  0999 V2000
   -3.2112   -3.7447    1.4663 H   0  0  0  0  0  0  0  0  0  0  0  0
   -3.2253   -2.7627    0.9854 C   0  0  0  0  0  0  0  0  0  0  0  0
   -3.8146   -2.0778    1.5999 H   0  0  0  0  0  0  0  0  0  0  0  0
   -3.6950   -2.8573    0.0035 H   0  0  0  0  0  0  0  0  0  0  0  0
   -1.8117   -2.2355    0.8310 C   0  0  0  0  0  0  0  0  0  0  0  0
   -0.8592   -2.9334    1.1425 O   0  0  0  0  0  0  0  0  0  0  0  0
   -1.6059   -0.9635    0.3415 N   0  0  0  0  0  0  0  0  0  0  0  0
   -2.4272   -0.3773    0.1946 H   0  0  0  0  0  0  0  0  0  0  0  0
   -0.2994   -0.3008    0.2515 C   0  0  1  0  0  0  0  0  0  0  0  0
    0.3839   -0.7975    0.9484 H   0  0  0  0  0  0  0  0  0  0  0  0
    0.3667   -0.3736   -1.1530 C   0  0  0  0  0  0  0  0  0  0  0  0
    0.7990    0.6112   -1.3625 H   0  0  0  0  0  0  0  0  0  0  0  0
    1.2070   -1.0721   -1.0813 H   0  0  0  0  0  0  0  0  0  0  0  0
   -0.4515   -0.7777   -2.4112 C   0  0  0  0  0  0  0  0  0  0  0  0
    0.0245   -0.3493   -3.2977 H   0  0  0  0  0  0  0  0  0  0  0  0
   -0.3844   -1.8654   -2.5065 H   0  0  0  0  0  0  0  0  0  0  0  0
   -1.9384   -0.4322   -2.4524 C   0  0  0  0  0  0  0  0  0  0  0  0
   -2.2492    0.7416   -2.5382 O   0  0  0  0  0  0  0  0  0  0  0  0
   -2.8418   -1.4421   -2.4434 O   0  0  0  0  0  0  0  0  0  0  0  0
   -3.7055   -1.0134   -2.5431 H   0  0  0  0  0  0  0  0  0  0  0  0
   -0.4113    1.1531    0.7616 C   0  0  0  0  0  0  0  0  0  0  0  0
   -1.4155    1.8132    0.5267 O   0  0  0  0  0  0  0  0  0  0  0  0
    0.5455    1.6705    1.6161 N   0  0  0  0  0  0  0  0  0  0  0  0
    1.3201    1.0675    1.8773 H   0  0  0  0  0  0  0  0  0  0  0  0
    0.4324    2.9842    2.2392 C   0  0  0  0  0  0  0  0  0  0  0  0
   -0.4603    3.0327    2.8718 H   0  0  0  0  0  0  0  0  0  0  0  0
    1.3092    3.1850    2.8622 H   0  0  0  0  0  0  0  0  0  0  0  0
    0.3654    3.7661    1.4753 H   0  0  0  0  0  0  0  0  0  0  0  0
  1  2  1  0  0  0  0
  2  3  1  0  0  0  0
  2  4  1  0  0  0  0
  2  5  1  0  0  0  0
  5  6  2  0  0  0  0
  5  7  1  0  0  0  0
  7  8  1  0  0  0  0
  7  9  1  0  0  0  0
  9 10  1  0  0  0  0
  9 11  1  0  0  0  0
  9 21  1  0  0  0  0
 11 12  1  0  0  0  0
 11 13  1  0  0  0  0
 11 14  1  0  0  0  0
 14 15  1  0  0  0  0
 14 16  1  0  0  0  0
 14 17  1  0  0  0  0
 17 18  2  0  0  0  0
 17 19  1  0  0  0  0
 19 20  1  0  0  0  0
 21 22  2  0  0  0  0
 21 23  1  0  0  0  0
 23 24  1  0  0  0  0
 23 25  1  0  0  0  0
 25 26  1  0  0  0  0
 25 27  1  0  0  0  0
 25 28  1  0  0  0  0
M  END
$$$$

  -OEChem-02102214123D

 28 27  0     1  0  0  0  0  0999 V2000
   -3.2135   -3.8127    1.2835 H   0  0  0  0  0  0  0  0  0  0  0  0
   -3.2106   -2.8065    0.8553 C   0  0  0  0  0  0  0  0  0  0  0  0
   -3.8601   -2.1651    1.4557 H   0  0  0  0  0  0  0  0  0  0  0  0
   -3.6006   -2.8561   -0.1645 H   0  0  0  0  0  0  0  0  0  0  0  0
   -1.8009   -2.2476    0.8415 C   0  0  0  0  0  0  0  0  0  0  0  0
   -0.8735   -2.9079    1.2835 O   0  0  0  0  0  0  0  0  0  0  0  0
   -1.5689   -0.9936    0.3202 N   0  0  0  0  0  0  0  0  0  0  0  0
   -2.3753   -0.4679   -0.0145 H   0  0  0  0  0  0  0  0  0  0  0  0
   -0.2594   -0.3328    0.2652 C   0  0  1  0  0  0  0  0  0  0  0  0
    0.4136   -0.8091    0.9859 H   0  0  0  0  0  0  0  0  0  0  0  0
    0.4147   -0.4197   -1.1326 C   0  0  0  0  0  0  0  0  0  0  0  0
    0.8704    0.5519   -1.3549 H   0  0  0  0  0  0  0  0  0  0  0  0
    1.2348   -1.1411   -1.0570 H   0  0  0  0  0  0  0  0  0  0  0  0
   -0.4338   -0.8253   -2.3654 C   0  0  0  0  0  0  0  0  0  0  0  0
    0.1432   -0.6372   -3.2753 H   0  0  0  0  0  0  0  0  0  0  0  0
   -0.6155   -1.9027   -2.3148 H   0  0  0  0  0  0  0  0  0  0  0  0
   -1.7944   -0.1398   -2.5010 C   0  0  0  0  0  0  0  0  0  0  0  0
   -1.7971    1.0009   -2.9273 O   0  0  0  0  0  0  0  0  0  0  0  0
   -2.9268   -0.8276   -2.2128 O   0  0  0  0  0  0  0  0  0  0  0  0
   -3.6503   -0.2166   -2.4258 H   0  0  0  0  0  0  0  0  0  0  0  0
   -0.4066    1.1346    0.7228 C   0  0  0  0  0  0  0  0  0  0  0  0
   -1.3809    1.7902    0.3735 O   0  0  0  0  0  0  0  0  0  0  0  0
    0.5020    1.6921    1.6035 N   0  0  0  0  0  0  0  0  0  0  0  0
    1.2509    1.0983    1.9477 H   0  0  0  0  0  0  0  0  0  0  0  0
    0.3674    3.0416    2.1392 C   0  0  0  0  0  0  0  0  0  0  0  0
   -0.5409    3.1240    2.7455 H   0  0  0  0  0  0  0  0  0  0  0  0
    1.2283    3.2872    2.7685 H   0  0  0  0  0  0  0  0  0  0  0  0
    0.3155    3.7735    1.3258 H   0  0  0  0  0  0  0  0  0  0  0  0
  1  2  1  0  0  0  0
  2  3  1  0  0  0  0
  2  4  1  0  0  0  0
  2  5  1  0  0  0  0
  5  6  2  0  0  0  0
  5  7  1  0  0  0  0
  7  8  1  0  0  0  0
  7  9  1  0  0  0  0
  9 10  1  0  0  0  0
  9 11  1  0  0  0  0
  9 21  1  0  0  0  0
 11 12  1  0  0  0  0
 11 13  1  0  0  0  0
 11 14  1  0  0  0  0
 14 15  1  0  0  0  0
 14 16  1  0  0  0  0
 14 17  1  0  0  0  0
 17 18  2  0  0  0  0
 17 19  1  0  0  0  0
 19 20  1  0  0  0  0
 21 22  2  0  0  0  0
 21 23  1  0  0  0  0
 23 24  1  0  0  0  0
 23 25  1  0  0  0  0
 25 26  1  0  0  0  0
 25 27  1  0  0  0  0
 25 28  1  0  0  0  0
M  END
$$$$

  -OEChem-02102214123D

 28 27  0     1  0  0  0  0  0999 V2000
   -3.2059   -3.8698    1.1441 H   0  0  0  0  0  0  0  0  0  0  0  0
   -3.2022   -2.8531    0.7414 C   0  0  0  0  0  0  0  0  0  0  0  0
   -3.9121   -2.2455    1.3077 H   0  0  0  0  0  0  0  0  0  0  0  0
   -3.5162   -2.8871   -0.3049 H   0  0  0  0  0  0  0  0  0  0  0  0
   -1.8129   -2.2543    0.8452 C   0  0  0  0  0  0  0  0  0  0  0  0
   -0.9178   -2.8712    1.4015 O   0  0  0  0  0  0  0  0  0  0  0  0
   -1.5602   -1.0179    0.2931 N   0  0  0  0  0  0  0  0  0  0  0  0
   -2.3275   -0.5583   -0.2001 H   0  0  0  0  0  0  0  0  0  0  0  0
   -0.2496   -0.3533    0.2726 C   0  0  1  0  0  0  0  0  0  0  0  0
    0.4064   -0.8089    1.0216 H   0  0  0  0  0  0  0  0  0  0  0  0
    0.4491   -0.4621   -1.1106 C   0  0  0  0  0  0  0  0  0  0  0  0
    0.9288    0.4937   -1.3514 H   0  0  0  0  0  0  0  0  0  0  0  0
    1.2503   -1.2018   -1.0135 H   0  0  0  0  0  0  0  0  0  0  0  0
   -0.4196   -0.8889   -2.3176 C   0  0  0  0  0  0  0  0  0  0  0  0
    0.2099   -0.9437   -3.2104 H   0  0  0  0  0  0  0  0  0  0  0  0
   -0.8231   -1.8907   -2.1460 H   0  0  0  0  0  0  0  0  0  0  0  0
   -1.5781    0.0700   -2.5975 C   0  0  0  0  0  0  0  0  0  0  0  0
   -1.3315    1.0583   -3.2662 O   0  0  0  0  0  0  0  0  0  0  0  0
   -2.8147   -0.2195   -2.1217 O   0  0  0  0  0  0  0  0  0  0  0  0
   -3.3644    0.5358   -2.3886 H   0  0  0  0  0  0  0  0  0  0  0  0
   -0.4156    1.1286    0.6742 C   0  0  0  0  0  0  0  0  0  0  0  0
   -1.3431    1.7888    0.2197 O   0  0  0  0  0  0  0  0  0  0  0  0
    0.4558    1.7143    1.5739 N   0  0  0  0  0  0  0  0  0  0  0  0
    1.1672    1.1224    1.9930 H   0  0  0  0  0  0  0  0  0  0  0  0
    0.3156    3.0883    2.0416 C   0  0  0  0  0  0  0  0  0  0  0  0
   -0.6129    3.2056    2.6103 H   0  0  0  0  0  0  0  0  0  0  0  0
    1.1561    3.3550    2.6896 H   0  0  0  0  0  0  0  0  0  0  0  0
    0.3003    3.7834    1.1952 H   0  0  0  0  0  0  0  0  0  0  0  0
  1  2  1  0  0  0  0
  2  3  1  0  0  0  0
  2  4  1  0  0  0  0
  2  5  1  0  0  0  0
  5  6  2  0  0  0  0
  5  7  1  0  0  0  0
  7  8  1  0  0  0  0
  7  9  1  0  0  0  0
  9 10  1  0  0  0  0
  9 11  1  0  0  0  0
  9 21  1  0  0  0  0
 11 12  1  0  0  0  0
 11 13  1  0  0  0  0
 11 14  1  0  0  0  0
 14 15  1  0  0  0  0
 14 16  1  0  0  0  0
 14 17  1  0  0  0  0
 17 18  2  0  0  0  0
 17 19  1  0  0  0  0
 19 20  1  0  0  0  0
 21 22  2  0  0  0  0
 21 23  1  0  0  0  0
 23 24  1  0  0  0  0
 23 25  1  0  0  0  0
 25 26  1  0  0  0  0
 25 27  1  0  0  0  0
 25 28  1  0  0  0  0
M  END
$$$$

  -OEChem-02102214123D

 28 27  0     1  0  0  0  0  0999 V2000
   -3.2236   -3.8614    1.1729 H   0  0  0  0  0  0  0  0  0  0  0  0
   -3.2114   -2.8564    0.7423 C   0  0  0  0  0  0  0  0  0  0  0  0
   -3.9158   -2.2278    1.2922 H   0  0  0  0  0  0  0  0  0  0  0  0
   -3.5268   -2.9163   -0.3022 H   0  0  0  0  0  0  0  0  0  0  0  0
   -1.8168   -2.2671    0.8291 C   0  0  0  0  0  0  0  0  0  0  0  0
   -0.9230   -2.8814    1.3899 O   0  0  0  0  0  0  0  0  0  0  0  0
   -1.5594   -1.0386    0.2620 N   0  0  0  0  0  0  0  0  0  0  0  0
   -2.3285   -0.5647   -0.2145 H   0  0  0  0  0  0  0  0  0  0  0  0
   -0.2542   -0.3612    0.2597 C   0  0  1  0  0  0  0  0  0  0  0  0
    0.3878   -0.7997    1.0306 H   0  0  0  0  0  0  0  0  0  0  0  0
    0.4767   -0.4850   -1.1045 C   0  0  0  0  0  0  0  0  0  0  0  0
    0.9713    0.4604   -1.3571 H   0  0  0  0  0  0  0  0  0  0  0  0
    1.2679   -1.2310   -0.9767 H   0  0  0  0  0  0  0  0  0  0  0  0
   -0.3896   -0.9473   -2.2975 C   0  0  0  0  0  0  0  0  0  0  0  0
    0.2699   -1.2236   -3.1253 H   0  0  0  0  0  0  0  0  0  0  0  0
   -0.9742   -1.8378   -2.0536 H   0  0  0  0  0  0  0  0  0  0  0  0
   -1.3025    0.1727   -2.7817 C   0  0  0  0  0  0  0  0  0  0  0  0
   -0.8403    1.0205   -3.5260 O   0  0  0  0  0  0  0  0  0  0  0  0
   -2.5825    0.1767   -2.3360 O   0  0  0  0  0  0  0  0  0  0  0  0
   -2.9624    1.0085   -2.6615 H   0  0  0  0  0  0  0  0  0  0  0  0
   -0.4333    1.1275    0.6300 C   0  0  0  0  0  0  0  0  0  0  0  0
   -1.3448    1.7819    0.1365 O   0  0  0  0  0  0  0  0  0  0  0  0
    0.4173    1.7315    1.5374 N   0  0  0  0  0  0  0  0  0  0  0  0
    1.1219    1.1497    1.9812 H   0  0  0  0  0  0  0  0  0  0  0  0
    0.2696    3.1154    1.9720 C   0  0  0  0  0  0  0  0  0  0  0  0
   -0.6755    3.2489    2.5087 H   0  0  0  0  0  0  0  0  0  0  0  0
    1.0904    3.3919    2.6407 H   0  0  0  0  0  0  0  0  0  0  0  0
    0.2845    3.7924    1.1112 H   0  0  0  0  0  0  0  0  0  0  0  0
  1  2  1  0  0  0  0
  2  3  1  0  0  0  0
  2  4  1  0  0  0  0
  2  5  1  0  0  0  0
  5  6  2  0  0  0  0
  5  7  1  0  0  0  0
  7  8  1  0  0  0  0
  7  9  1  0  0  0  0
  9 10  1  0  0  0  0
  9 11  1  0  0  0  0
  9 21  1  0  0  0  0
 11 12  1  0  0  0  0
 11 13  1  0  0  0  0
 11 14  1  0  0  0  0
 14 15  1  0  0  0  0
 14 16  1  0  0  0  0
 14 17  1  0  0  0  0
 17 18  2  0  0  0  0
 17 19  1  0  0  0  0
 19 20  1  0  0  0  0
 21 22  2  0  0  0  0
 21 23  1  0  0  0  0
 23 24  1  0  0  0  0
 23 25  1  0  0  0  0
 25 26  1  0  0  0  0
 25 27  1  0  0  0  0
 25 28  1  0  0  0  0
M  END
$$$$

  -OEChem-02102214123D

 28 27  0     1  0  0  0  0  0999 V2000
   -3.2242   -3.8462    1.2935 H   0  0  0  0  0  0  0  0  0  0  0  0
   -3.2158   -2.8488    0.8454 C   0  0  0  0  0  0  0  0  0  0  0  0
   -3.8818   -2.1988    1.4176 H   0  0  0  0  0  0  0  0  0  0  0  0
   -3.5826   -2.9208   -0.1812 H   0  0  0  0  0  0  0  0  0  0  0  0
   -1.8087   -2.2832    0.8535 C   0  0  0  0  0  0  0  0  0  0  0  0
   -0.8970   -2.9117    1.3676 O   0  0  0  0  0  0  0  0  0  0  0  0
   -1.5606   -1.0590    0.2714 N   0  0  0  0  0  0  0  0  0  0  0  0
   -2.3549   -0.5432   -0.1076 H   0  0  0  0  0  0  0  0  0  0  0  0
   -0.2561   -0.3807    0.2540 C   0  0  1  0  0  0  0  0  0  0  0  0
    0.3896   -0.8093    1.0276 H   0  0  0  0  0  0  0  0  0  0  0  0
    0.4800   -0.4979   -1.1075 C   0  0  0  0  0  0  0  0  0  0  0  0
    0.9933    0.4405   -1.3485 H   0  0  0  0  0  0  0  0  0  0  0  0
    1.2630   -1.2509   -0.9697 H   0  0  0  0  0  0  0  0  0  0  0  0
   -0.3681   -0.9622   -2.3157 C   0  0  0  0  0  0  0  0  0  0  0  0
    0.2952   -1.4546   -3.0324 H   0  0  0  0  0  0  0  0  0  0  0  0
   -1.1273   -1.6994   -2.0488 H   0  0  0  0  0  0  0  0  0  0  0  0
   -1.0003    0.2239   -3.0318 C   0  0  0  0  0  0  0  0  0  0  0  0
   -0.2876    0.9585   -3.6954 O   0  0  0  0  0  0  0  0  0  0  0  0
   -2.3314    0.4095   -2.8713 O   0  0  0  0  0  0  0  0  0  0  0  0
   -2.5345    1.2445   -3.3201 H   0  0  0  0  0  0  0  0  0  0  0  0
   -0.4460    1.1089    0.6122 C   0  0  0  0  0  0  0  0  0  0  0  0
   -1.3718    1.7449    0.1213 O   0  0  0  0  0  0  0  0  0  0  0  0
    0.4020    1.7311    1.5098 N   0  0  0  0  0  0  0  0  0  0  0  0
    1.1193    1.1634    1.9519 H   0  0  0  0  0  0  0  0  0  0  0  0
    0.2416    3.1183    1.9295 C   0  0  0  0  0  0  0  0  0  0  0  0
   -0.7061    3.2497    2.4621 H   0  0  0  0  0  0  0  0  0  0  0  0
    1.0583    3.4090    2.5975 H   0  0  0  0  0  0  0  0  0  0  0  0
    0.2530    3.7859    1.0614 H   0  0  0  0  0  0  0  0  0  0  0  0
  1  2  1  0  0  0  0
  2  3  1  0  0  0  0
  2  4  1  0  0  0  0
  2  5  1  0  0  0  0
  5  6  2  0  0  0  0
  5  7  1  0  0  0  0
  7  8  1  0  0  0  0
  7  9  1  0  0  0  0
  9 10  1  0  0  0  0
  9 11  1  0  0  0  0
  9 21  1  0  0  0  0
 11 12  1  0  0  0  0
 11 13  1  0  0  0  0
 11 14  1  0  0  0  0
 14 15  1  0  0  0  0
 14 16  1  0  0  0  0
 14 17  1  0  0  0  0
 17 18  2  0  0  0  0
 17 19  1  0  0  0  0
 19 20  1  0  0  0  0
 21 22  2  0  0  0  0
 21 23  1  0  0  0  0
 23 24  1  0  0  0  0
 23 25  1  0  0  0  0
 25 26  1  0  0  0  0
 25 27  1  0  0  0  0
 25 28  1  0  0  0  0
M  END
$$$$

  -OEChem-02102214123D

 28 27  0     1  0  0  0  0  0999 V2000
   -3.2182   -3.8366    1.4045 H   0  0  0  0  0  0  0  0  0  0  0  0
   -3.2156   -2.8491    0.9347 C   0  0  0  0  0  0  0  0  0  0  0  0
   -3.8571   -2.1808    1.5142 H   0  0  0  0  0  0  0  0  0  0  0  0
   -3.6160   -2.9398   -0.0780 H   0  0  0  0  0  0  0  0  0  0  0  0
   -1.8036   -2.2976    0.8849 C   0  0  0  0  0  0  0  0  0  0  0  0
   -0.8775   -2.9373    1.3575 O   0  0  0  0  0  0  0  0  0  0  0  0
   -1.5688   -1.0732    0.2975 N   0  0  0  0  0  0  0  0  0  0  0  0
   -2.3772   -0.5348   -0.0128 H   0  0  0  0  0  0  0  0  0  0  0  0
   -0.2652   -0.3943    0.2587 C   0  0  1  0  0  0  0  0  0  0  0  0
    0.3904   -0.8198    1.0260 H   0  0  0  0  0  0  0  0  0  0  0  0
    0.4637   -0.5017   -1.1083 C   0  0  0  0  0  0  0  0  0  0  0  0
    0.9834    0.4370   -1.3328 H   0  0  0  0  0  0  0  0  0  0  0  0
    1.2470   -1.2548   -0.9730 H   0  0  0  0  0  0  0  0  0  0  0  0
   -0.3700   -0.9619   -2.3342 C   0  0  0  0  0  0  0  0  0  0  0  0
    0.2286   -1.6729   -2.9105 H   0  0  0  0  0  0  0  0  0  0  0  0
   -1.2857   -1.4875   -2.0626 H   0  0  0  0  0  0  0  0  0  0  0  0
   -0.7036    0.1974   -3.2671 C   0  0  0  0  0  0  0  0  0  0  0  0
    0.2095    0.8065   -3.8001 O   0  0  0  0  0  0  0  0  0  0  0  0
   -2.0111    0.4913   -3.4546 O   0  0  0  0  0  0  0  0  0  0  0  0
   -2.0262    1.2711   -4.0296 H   0  0  0  0  0  0  0  0  0  0  0  0
   -0.4585    1.0936    0.6197 C   0  0  0  0  0  0  0  0  0  0  0  0
   -1.4014    1.7188    0.1484 O   0  0  0  0  0  0  0  0  0  0  0  0
    0.3978    1.7231    1.5041 N   0  0  0  0  0  0  0  0  0  0  0  0
    1.1424    1.1687    1.9167 H   0  0  0  0  0  0  0  0  0  0  0  0
    0.2488    3.1172    1.9046 C   0  0  0  0  0  0  0  0  0  0  0  0
   -0.7014    3.2660    2.4283 H   0  0  0  0  0  0  0  0  0  0  0  0
    1.0634    3.4077    2.5751 H   0  0  0  0  0  0  0  0  0  0  0  0
    0.2742    3.7728    1.0275 H   0  0  0  0  0  0  0  0  0  0  0  0
  1  2  1  0  0  0  0
  2  3  1  0  0  0  0
  2  4  1  0  0  0  0
  2  5  1  0  0  0  0
  5  6  2  0  0  0  0
  5  7  1  0  0  0  0
  7  8  1  0  0  0  0
  7  9  1  0  0  0  0
  9 10  1  0  0  0  0
  9 11  1  0  0  0  0
  9 21  1  0  0  0  0
 11 12  1  0  0  0  0
 11 13  1  0  0  0  0
 11 14  1  0  0  0  0
 14 15  1  0  0  0  0
 14 16  1  0  0  0  0
 14 17  1  0  0  0  0
 17 18  2  0  0  0  0
 17 19  1  0  0  0  0
 19 20  1  0  0  0  0
 21 22  2  0  0  0  0
 21 23  1  0  0  0  0
 23 24  1  0  0  0  0
 23 25  1  0  0  0  0
 25 26  1  0  0  0  0
 25 27  1  0  0  0  0
 25 28  1  0  0  0  0
M  END
$$$$

  -OEChem-02102214123D

 28 27  0     1  0  0  0  0  0999 V2000
   -3.2069   -3.8228    1.4633 H   0  0  0  0  0  0  0  0  0  0  0  0
   -3.2138   -2.8320    1.0003 C   0  0  0  0  0  0  0  0  0  0  0  0
   -3.8251   -2.1620    1.6098 H   0  0  0  0  0  0  0  0  0  0  0  0
   -3.6560   -2.9122    0.0043 H   0  0  0  0  0  0  0  0  0  0  0  0
   -1.7996   -2.2932    0.8976 C   0  0  0  0  0  0  0  0  0  0  0  0
   -0.8639   -2.9395    1.3417 O   0  0  0  0  0  0  0  0  0  0  0  0
   -1.5747   -1.0693    0.3048 N   0  0  0  0  0  0  0  0  0  0  0  0
   -2.3897   -0.5201    0.0336 H   0  0  0  0  0  0  0  0  0  0  0  0
   -0.2703   -0.3920    0.2475 C   0  0  1  0  0  0  0  0  0  0  0  0
    0.3903   -0.8151    1.0116 H   0  0  0  0  0  0  0  0  0  0  0  0
    0.4517   -0.5140   -1.1227 C   0  0  0  0  0  0  0  0  0  0  0  0
    0.9457    0.4373   -1.3513 H   0  0  0  0  0  0  0  0  0  0  0  0
    1.2554   -1.2466   -0.9921 H   0  0  0  0  0  0  0  0  0  0  0  0
   -0.3822   -0.9863   -2.3476 C   0  0  0  0  0  0  0  0  0  0  0  0
    0.0561   -1.9063   -2.7443 H   0  0  0  0  0  0  0  0  0  0  0  0
   -1.4155   -1.2179   -2.0896 H   0  0  0  0  0  0  0  0  0  0  0  0
   -0.4082    0.0480   -3.4697 C   0  0  0  0  0  0  0  0  0  0  0  0
    0.6510    0.4489   -3.9238 O   0  0  0  0  0  0  0  0  0  0  0  0
   -1.6171    0.4631   -3.9137 O   0  0  0  0  0  0  0  0  0  0  0  0
   -1.4354    1.1246   -4.5980 H   0  0  0  0  0  0  0  0  0  0  0  0
   -0.4575    1.0965    0.6100 C   0  0  0  0  0  0  0  0  0  0  0  0
   -1.4182    1.7158    0.1676 O   0  0  0  0  0  0  0  0  0  0  0  0
    0.4117    1.7253    1.4822 N   0  0  0  0  0  0  0  0  0  0  0  0
    1.1653    1.1714    1.8791 H   0  0  0  0  0  0  0  0  0  0  0  0
    0.2463    3.1073    1.9168 C   0  0  0  0  0  0  0  0  0  0  0  0
   -0.6898    3.2238    2.4728 H   0  0  0  0  0  0  0  0  0  0  0  0
    1.0752    3.4013    2.5679 H   0  0  0  0  0  0  0  0  0  0  0  0
    0.2297    3.7820    1.0542 H   0  0  0  0  0  0  0  0  0  0  0  0
  1  2  1  0  0  0  0
  2  3  1  0  0  0  0
  2  4  1  0  0  0  0
  2  5  1  0  0  0  0
  5  6  2  0  0  0  0
  5  7  1  0  0  0  0
  7  8  1  0  0  0  0
  7  9  1  0  0  0  0
  9 10  1  0  0  0  0
  9 11  1  0  0  0  0
  9 21  1  0  0  0  0
 11 12  1  0  0  0  0
 11 13  1  0  0  0  0
 11 14  1  0  0  0  0
 14 15  1  0  0  0  0
 14 16  1  0  0  0  0
 14 17  1  0  0  0  0
 17 18  2  0  0  0  0
 17 19  1  0  0  0  0
 19 20  1  0  0  0  0
 21 22  2  0  0  0  0
 21 23  1  0  0  0  0
 23 24  1  0  0  0  0
 23 25  1  0  0  0  0
 25 26  1  0  0  0  0
 25 27  1  0  0  0  0
 25 28  1  0  0  0  0
M  END
$$$$

  -OEChem-02102214123D

 28 27  0     1  0  0  0  0  0999 V2000
   -3.2078   -3.8010    1.4880 H   0  0  0  0  0  0  0  0  0  0  0  0
   -3.2118   -2.8191    1.0067 C   0  0  0  0  0  0  0  0  0  0  0  0
   -3.8201   -2.1359    1.6042 H   0  0  0  0  0  0  0  0  0  0  0  0
   -3.6550   -2.9159    0.0127 H   0  0  0  0  0  0  0  0  0  0  0  0
   -1.7960   -2.2873    0.8931 C   0  0  0  0  0  0  0  0  0  0  0  0
   -0.8592   -2.9411    1.3236 O   0  0  0  0  0  0  0  0  0  0  0  0
   -1.5712   -1.0605    0.3063 N   0  0  0  0  0  0  0  0  0  0  0  0
   -2.3867   -0.5027    0.0554 H   0  0  0  0  0  0  0  0  0  0  0  0
   -0.2643   -0.3868    0.2493 C   0  0  1  0  0  0  0  0  0  0  0  0
    0.3970   -0.8168    1.0090 H   0  0  0  0  0  0  0  0  0  0  0  0
    0.4488   -0.5166   -1.1246 C   0  0  0  0  0  0  0  0  0  0  0  0
    0.9112    0.4487   -1.3607 H   0  0  0  0  0  0  0  0  0  0  0  0
    1.2710   -1.2312   -1.0130 H   0  0  0  0  0  0  0  0  0  0  0  0
   -0.4108   -0.9885   -2.3302 C   0  0  0  0  0  0  0  0  0  0  0  0
   -0.2112   -2.0435   -2.5367 H   0  0  0  0  0  0  0  0  0  0  0  0
   -1.4759   -0.8942   -2.1133 H   0  0  0  0  0  0  0  0  0  0  0  0
   -0.1721   -0.1684   -3.5973 C   0  0  0  0  0  0  0  0  0  0  0  0
    0.9706    0.1320   -3.9032 O   0  0  0  0  0  0  0  0  0  0  0  0
   -1.2548    0.1706   -4.3352 O   0  0  0  0  0  0  0  0  0  0  0  0
   -0.9149    0.6857   -5.0824 H   0  0  0  0  0  0  0  0  0  0  0  0
   -0.4444    1.1006    0.6208 C   0  0  0  0  0  0  0  0  0  0  0  0
   -1.4067    1.7248    0.1884 O   0  0  0  0  0  0  0  0  0  0  0  0
    0.4303    1.7203    1.4940 N   0  0  0  0  0  0  0  0  0  0  0  0
    1.1871    1.1624    1.8793 H   0  0  0  0  0  0  0  0  0  0  0  0
    0.2744    3.1009    1.9363 C   0  0  0  0  0  0  0  0  0  0  0  0
   -0.6700    3.2260    2.4766 H   0  0  0  0  0  0  0  0  0  0  0  0
    1.0948    3.3791    2.6049 H   0  0  0  0  0  0  0  0  0  0  0  0
    0.2825    3.7817    1.0784 H   0  0  0  0  0  0  0  0  0  0  0  0
  1  2  1  0  0  0  0
  2  3  1  0  0  0  0
  2  4  1  0  0  0  0
  2  5  1  0  0  0  0
  5  6  2  0  0  0  0
  5  7  1  0  0  0  0
  7  8  1  0  0  0  0
  7  9  1  0  0  0  0
  9 10  1  0  0  0  0
  9 11  1  0  0  0  0
  9 21  1  0  0  0  0
 11 12  1  0  0  0  0
 11 13  1  0  0  0  0
 11 14  1  0  0  0  0
 14 15  1  0  0  0  0
 14 16  1  0  0  0  0
 14 17  1  0  0  0  0
 17 18  2  0  0  0  0
 17 19  1  0  0  0  0
 19 20  1  0  0  0  0
 21 22  2  0  0  0  0
 21 23  1  0  0  0  0
 23 24  1  0  0  0  0
 23 25  1  0  0  0  0
 25 26  1  0  0  0  0
 25 27  1  0  0  0  0
 25 28  1  0  0  0  0
M  END
$$$$

  -OEChem-02102214123D

 28 27  0     1  0  0  0  0  0999 V2000
   -3.2206   -3.7795    1.4767 H   0  0  0  0  0  0  0  0  0  0  0  0
   -3.2147   -2.8033    0.9835 C   0  0  0  0  0  0  0  0  0  0  0  0
   -3.8246   -2.1099    1.5678 H   0  0  0  0  0  0  0  0  0  0  0  0
   -3.6495   -2.9096   -0.0133 H   0  0  0  0  0  0  0  0  0  0  0  0
   -1.7948   -2.2807    0.8758 C   0  0  0  0  0  0  0  0  0  0  0  0
   -0.8635   -2.9439    1.3035 O   0  0  0  0  0  0  0  0  0  0  0  0
   -1.5603   -1.0514    0.2980 N   0  0  0  0  0  0  0  0  0  0  0  0
   -2.3717   -0.4865    0.0506 H   0  0  0  0  0  0  0  0  0  0  0  0
   -0.2497   -0.3826    0.2558 C   0  0  1  0  0  0  0  0  0  0  0  0
    0.4080   -0.8212    1.0136 H   0  0  0  0  0  0  0  0  0  0  0  0
    0.4572   -0.5133   -1.1192 C   0  0  0  0  0  0  0  0  0  0  0  0
    0.9071    0.4558   -1.3644 H   0  0  0  0  0  0  0  0  0  0  0  0
    1.2822   -1.2273   -1.0233 H   0  0  0  0  0  0  0  0  0  0  0  0
   -0.4352   -0.9754   -2.2993 C   0  0  0  0  0  0  0  0  0  0  0  0
   -0.4763   -2.0674   -2.3318 H   0  0  0  0  0  0  0  0  0  0  0  0
   -1.4535   -0.6048   -2.1574 H   0  0  0  0  0  0  0  0  0  0  0  0
    0.0114   -0.4352   -3.6580 C   0  0  0  0  0  0  0  0  0  0  0  0
    1.1880   -0.1688   -3.8438 O   0  0  0  0  0  0  0  0  0  0  0  0
   -0.9410   -0.2998   -4.6095 O   0  0  0  0  0  0  0  0  0  0  0  0
   -0.4847    0.0447   -5.3919 H   0  0  0  0  0  0  0  0  0  0  0  0
   -0.4239    1.1035    0.6340 C   0  0  0  0  0  0  0  0  0  0  0  0
   -1.3791    1.7348    0.1960 O   0  0  0  0  0  0  0  0  0  0  0  0
    0.4466    1.7144    1.5174 N   0  0  0  0  0  0  0  0  0  0  0  0
    1.2012    1.1529    1.9019 H   0  0  0  0  0  0  0  0  0  0  0  0
    0.2992    3.0968    1.9570 C   0  0  0  0  0  0  0  0  0  0  0  0
   -0.6555    3.2348    2.4755 H   0  0  0  0  0  0  0  0  0  0  0  0
    1.1076    3.3639    2.6445 H   0  0  0  0  0  0  0  0  0  0  0  0
    0.3359    3.7771    1.0996 H   0  0  0  0  0  0  0  0  0  0  0  0
  1  2  1  0  0  0  0
  2  3  1  0  0  0  0
  2  4  1  0  0  0  0
  2  5  1  0  0  0  0
  5  6  2  0  0  0  0
  5  7  1  0  0  0  0
  7  8  1  0  0  0  0
  7  9  1  0  0  0  0
  9 10  1  0  0  0  0
  9 11  1  0  0  0  0
  9 21  1  0  0  0  0
 11 12  1  0  0  0  0
 11 13  1  0  0  0  0
 11 14  1  0  0  0  0
 14 15  1  0  0  0  0
 14 16  1  0  0  0  0
 14 17  1  0  0  0  0
 17 18  2  0  0  0  0
 17 19  1  0  0  0  0
 19 20  1  0  0  0  0
 21 22  2  0  0  0  0
 21 23  1  0  0  0  0
 23 24  1  0  0  0  0
 23 25  1  0  0  0  0
 25 26  1  0  0  0  0
 25 27  1  0  0  0  0
 25 28  1  0  0  0  0
M  END
$$$$

  -OEChem-02102214123D

 28 27  0     1  0  0  0  0  0999 V2000
   -3.2396   -3.7607    1.4615 H   0  0  0  0  0  0  0  0  0  0  0  0
   -3.2225   -2.7863    0.9652 C   0  0  0  0  0  0  0  0  0  0  0  0
   -3.8318   -2.0864    1.5421 H   0  0  0  0  0  0  0  0  0  0  0  0
   -3.6501   -2.8925   -0.0346 H   0  0  0  0  0  0  0  0  0  0  0  0
   -1.7984   -2.2739    0.8677 C   0  0  0  0  0  0  0  0  0  0  0  0
   -0.8751   -2.9418    1.3050 O   0  0  0  0  0  0  0  0  0  0  0  0
   -1.5518   -1.0457    0.2930 N   0  0  0  0  0  0  0  0  0  0  0  0
   -2.3577   -0.4776    0.0353 H   0  0  0  0  0  0  0  0  0  0  0  0
   -0.2366   -0.3844    0.2613 C   0  0  1  0  0  0  0  0  0  0  0  0
    0.4179   -0.8296    1.0182 H   0  0  0  0  0  0  0  0  0  0  0  0
    0.4659   -0.5098   -1.1147 C   0  0  0  0  0  0  0  0  0  0  0  0
    0.9264    0.4527   -1.3672 H   0  0  0  0  0  0  0  0  0  0  0  0
    1.2786   -1.2387   -1.0250 H   0  0  0  0  0  0  0  0  0  0  0  0
   -0.4502   -0.9564   -2.2781 C   0  0  0  0  0  0  0  0  0  0  0  0
   -0.6999   -2.0153   -2.1680 H   0  0  0  0  0  0  0  0  0  0  0  0
   -1.3805   -0.3822   -2.2422 H   0  0  0  0  0  0  0  0  0  0  0  0
    0.1532   -0.7319   -3.6648 C   0  0  0  0  0  0  0  0  0  0  0  0
    1.3432   -0.4855   -3.7801 O   0  0  0  0  0  0  0  0  0  0  0  0
   -0.6896   -0.8348   -4.7181 O   0  0  0  0  0  0  0  0  0  0  0  0
   -0.1501   -0.6671   -5.5056 H   0  0  0  0  0  0  0  0  0  0  0  0
   -0.4061    1.1017    0.6399 C   0  0  0  0  0  0  0  0  0  0  0  0
   -1.3534    1.7388    0.1929 O   0  0  0  0  0  0  0  0  0  0  0  0
    0.4602    1.7080    1.5306 N   0  0  0  0  0  0  0  0  0  0  0  0
    1.2090    1.1427    1.9208 H   0  0  0  0  0  0  0  0  0  0  0  0
    0.3147    3.0904    1.9703 C   0  0  0  0  0  0  0  0  0  0  0  0
   -0.6459    3.2323    2.4770 H   0  0  0  0  0  0  0  0  0  0  0  0
    1.1156    3.3522    2.6685 H   0  0  0  0  0  0  0  0  0  0  0  0
    0.3660    3.7720    1.1146 H   0  0  0  0  0  0  0  0  0  0  0  0
  1  2  1  0  0  0  0
  2  3  1  0  0  0  0
  2  4  1  0  0  0  0
  2  5  1  0  0  0  0
  5  6  2  0  0  0  0
  5  7  1  0  0  0  0
  7  8  1  0  0  0  0
  7  9  1  0  0  0  0
  9 10  1  0  0  0  0
  9 11  1  0  0  0  0
  9 21  1  0  0  0  0
 11 12  1  0  0  0  0
 11 13  1  0  0  0  0
 11 14  1  0  0  0  0
 14 15  1  0  0  0  0
 14 16  1  0  0  0  0
 14 17  1  0  0  0  0
 17 18  2  0  0  0  0
 17 19  1  0  0  0  0
 19 20  1  0  0  0  0
 21 22  2  0  0  0  0
 21 23  1  0  0  0  0
 23 24  1  0  0  0  0
 23 25  1  0  0  0  0
 25 26  1  0  0  0  0
 25 27  1  0  0  0  0
 25 28  1  0  0  0  0
M  END
$$$$

  -OEChem-02102214123D

 28 27  0     1  0  0  0  0  0999 V2000
   -3.2410   -3.7647    1.4184 H   0  0  0  0  0  0  0  0  0  0  0  0
   -3.2220   -2.7907    0.9215 C   0  0  0  0  0  0  0  0  0  0  0  0
   -3.8491   -2.0957    1.4850 H   0  0  0  0  0  0  0  0  0  0  0  0
   -3.6275   -2.9017   -0.0870 H   0  0  0  0  0  0  0  0  0  0  0  0
   -1.8004   -2.2667    0.8521 C   0  0  0  0  0  0  0  0  0  0  0  0
   -0.8794   -2.9333    1.2964 O   0  0  0  0  0  0  0  0  0  0  0  0
   -1.5519   -1.0340    0.2875 N   0  0  0  0  0  0  0  0  0  0  0  0
   -2.3560   -0.4672    0.0217 H   0  0  0  0  0  0  0  0  0  0  0  0
   -0.2369   -0.3743    0.2637 C   0  0  1  0  0  0  0  0  0  0  0  0
    0.4210   -0.8277    1.0125 H   0  0  0  0  0  0  0  0  0  0  0  0
    0.4513   -0.4892   -1.1159 C   0  0  0  0  0  0  0  0  0  0  0  0
    1.1436    0.3499   -1.2491 H   0  0  0  0  0  0  0  0  0  0  0  0
    1.0512   -1.4059   -1.1141 H   0  0  0  0  0  0  0  0  0  0  0  0
   -0.5175   -0.5598   -2.3191 C   0  0  0  0  0  0  0  0  0  0  0  0
   -1.1698   -1.4312   -2.2202 H   0  0  0  0  0  0  0  0  0  0  0  0
   -1.1467    0.3348   -2.3313 H   0  0  0  0  0  0  0  0  0  0  0  0
    0.1857   -0.6719   -3.6719 C   0  0  0  0  0  0  0  0  0  0  0  0
    1.4006   -0.5749   -3.7403 O   0  0  0  0  0  0  0  0  0  0  0  0
   -0.6044   -0.8801   -4.7500 O   0  0  0  0  0  0  0  0  0  0  0  0
   -0.0055   -0.9234   -5.5107 H   0  0  0  0  0  0  0  0  0  0  0  0
   -0.3954    1.1102    0.6527 C   0  0  0  0  0  0  0  0  0  0  0  0
   -1.3364    1.7599    0.2107 O   0  0  0  0  0  0  0  0  0  0  0  0
    0.4763    1.7017    1.5483 N   0  0  0  0  0  0  0  0  0  0  0  0
    1.2199    1.1263    1.9338 H   0  0  0  0  0  0  0  0  0  0  0  0
    0.3486    3.0840    1.9943 C   0  0  0  0  0  0  0  0  0  0  0  0
   -0.6149    3.2394    2.4915 H   0  0  0  0  0  0  0  0  0  0  0  0
    1.1459    3.3284    2.7028 H   0  0  0  0  0  0  0  0  0  0  0  0
    0.4209    3.7695    1.1432 H   0  0  0  0  0  0  0  0  0  0  0  0
  1  2  1  0  0  0  0
  2  3  1  0  0  0  0
  2  4  1  0  0  0  0
  2  5  1  0  0  0  0
  5  6  2  0  0  0  0
  5  7  1  0  0  0  0
  7  8  1  0  0  0  0
  7  9  1  0  0  0  0
  9 10  1  0  0  0  0
  9 11  1  0  0  0  0
  9 21  1  0  0  0  0
 11 12  1  0  0  0  0
 11 13  1  0  0  0  0
 11 14  1  0  0  0  0
 14 15  1  0  0  0  0
 14 16  1  0  0  0  0
 14 17  1  0  0  0  0
 17 18  2  0  0  0  0
 17 19  1  0  0  0  0
 19 20  1  0  0  0  0
 21 22  2  0  0  0  0
 21 23  1  0  0  0  0
 23 24  1  0  0  0  0
 23 25  1  0  0  0  0
 25 26  1  0  0  0  0
 25 27  1  0  0  0  0
 25 28  1  0  0  0  0
M  END
$$$$

  -OEChem-02102214123D

 28 27  0     1  0  0  0  0  0999 V2000
   -3.2611   -3.7545    1.4478 H   0  0  0  0  0  0  0  0  0  0  0  0
   -3.2415   -2.7844    0.9429 C   0  0  0  0  0  0  0  0  0  0  0  0
   -3.8622   -2.0824    1.5050 H   0  0  0  0  0  0  0  0  0  0  0  0
   -3.6541   -2.9012   -0.0621 H   0  0  0  0  0  0  0  0  0  0  0  0
   -1.8180   -2.2672    0.8603 C   0  0  0  0  0  0  0  0  0  0  0  0
   -0.8957   -2.9393    1.2936 O   0  0  0  0  0  0  0  0  0  0  0  0
   -1.5693   -1.0331    0.2987 N   0  0  0  0  0  0  0  0  0  0  0  0
   -2.3732   -0.4609    0.0435 H   0  0  0  0  0  0  0  0  0  0  0  0
   -0.2513   -0.3808    0.2628 C   0  0  1  0  0  0  0  0  0  0  0  0
    0.4116   -0.8407    1.0033 H   0  0  0  0  0  0  0  0  0  0  0  0
    0.4332   -0.4775   -1.1214 C   0  0  0  0  0  0  0  0  0  0  0  0
    1.1463    0.3448   -1.2482 H   0  0  0  0  0  0  0  0  0  0  0  0
    1.0133   -1.4072   -1.1161 H   0  0  0  0  0  0  0  0  0  0  0  0
   -0.5184   -0.5300   -2.3418 C   0  0  0  0  0  0  0  0  0  0  0  0
   -1.3252   -1.2439   -2.1636 H   0  0  0  0  0  0  0  0  0  0  0  0
   -0.9704    0.4533   -2.4988 H   0  0  0  0  0  0  0  0  0  0  0  0
    0.1716   -0.9807   -3.6294 C   0  0  0  0  0  0  0  0  0  0  0  0
    1.3852   -0.8957   -3.7280 O   0  0  0  0  0  0  0  0  0  0  0  0
   -0.6231   -1.4498   -4.6186 O   0  0  0  0  0  0  0  0  0  0  0  0
   -0.0280   -1.6763   -5.3493 H   0  0  0  0  0  0  0  0  0  0  0  0
   -0.4026    1.1016    0.6615 C   0  0  0  0  0  0  0  0  0  0  0  0
   -1.3455    1.7567    0.2314 O   0  0  0  0  0  0  0  0  0  0  0  0
    0.4803    1.6855    1.5507 N   0  0  0  0  0  0  0  0  0  0  0  0
    1.2261    1.1056    1.9247 H   0  0  0  0  0  0  0  0  0  0  0  0
    0.3682    3.0688    1.9974 C   0  0  0  0  0  0  0  0  0  0  0  0
   -0.5909    3.2339    2.4996 H   0  0  0  0  0  0  0  0  0  0  0  0
    1.1718    3.3053    2.7015 H   0  0  0  0  0  0  0  0  0  0  0  0
    0.4424    3.7536    1.1459 H   0  0  0  0  0  0  0  0  0  0  0  0
  1  2  1  0  0  0  0
  2  3  1  0  0  0  0
  2  4  1  0  0  0  0
  2  5  1  0  0  0  0
  5  6  2  0  0  0  0
  5  7  1  0  0  0  0
  7  8  1  0  0  0  0
  7  9  1  0  0  0  0
  9 10  1  0  0  0  0
  9 11  1  0  0  0  0
  9 21  1  0  0  0  0
 11 12  1  0  0  0  0
 11 13  1  0  0  0  0
 11 14  1  0  0  0  0
 14 15  1  0  0  0  0
 14 16  1  0  0  0  0
 14 17  1  0  0  0  0
 17 18  2  0  0  0  0
 17 19  1  0  0  0  0
 19 20  1  0  0  0  0
 21 22  2  0  0  0  0
 21 23  1  0  0  0  0
 23 24  1  0  0  0  0
 23 25  1  0  0  0  0
 25 26  1  0  0  0  0
 25 27  1  0  0  0  0
 25 28  1  0  0  0  0
M  END
$$$$

  -OEChem-02102214123D

 28 27  0     1  0  0  0  0  0999 V2000
   -3.2814   -3.7394    1.4426 H   0  0  0  0  0  0  0  0  0  0  0  0
   -3.2589   -2.7650    0.9469 C   0  0  0  0  0  0  0  0  0  0  0  0
   -3.8655   -2.0622    1.5230 H   0  0  0  0  0  0  0  0  0  0  0  0
   -3.6850   -2.8687   -0.0539 H   0  0  0  0  0  0  0  0  0  0  0  0
   -1.8322   -2.2602    0.8508 C   0  0  0  0  0  0  0  0  0  0  0  0
   -0.9102   -2.9428    1.2678 O   0  0  0  0  0  0  0  0  0  0  0  0
   -1.5806   -1.0237    0.2963 N   0  0  0  0  0  0  0  0  0  0  0  0
   -2.3833   -0.4431    0.0570 H   0  0  0  0  0  0  0  0  0  0  0  0
   -0.2596   -0.3788    0.2551 C   0  0  1  0  0  0  0  0  0  0  0  0
    0.4035   -0.8465    0.9906 H   0  0  0  0  0  0  0  0  0  0  0  0
    0.4234   -0.4670   -1.1317 C   0  0  0  0  0  0  0  0  0  0  0  0
    1.1522    0.3423   -1.2517 H   0  0  0  0  0  0  0  0  0  0  0  0
    0.9915   -1.4040   -1.1188 H   0  0  0  0  0  0  0  0  0  0  0  0
   -0.5105   -0.5067   -2.3699 C   0  0  0  0  0  0  0  0  0  0  0  0
   -1.4561   -0.9975   -2.1355 H   0  0  0  0  0  0  0  0  0  0  0  0
   -0.7438    0.5133   -2.6865 H   0  0  0  0  0  0  0  0  0  0  0  0
    0.0887   -1.2821   -3.5422 C   0  0  0  0  0  0  0  0  0  0  0  0
    1.2903   -1.2189   -3.7460 O   0  0  0  0  0  0  0  0  0  0  0  0
   -0.7606   -2.0002   -4.3131 O   0  0  0  0  0  0  0  0  0  0  0  0
   -0.2111   -2.4132   -4.9965 H   0  0  0  0  0  0  0  0  0  0  0  0
   -0.4025    1.1012    0.6658 C   0  0  0  0  0  0  0  0  0  0  0  0
   -1.3466    1.7624    0.2477 O   0  0  0  0  0  0  0  0  0  0  0  0
    0.4883    1.6760    1.5531 N   0  0  0  0  0  0  0  0  0  0  0  0
    1.2294    1.0887    1.9252 H   0  0  0  0  0  0  0  0  0  0  0  0
    0.3746    3.0521    2.0214 C   0  0  0  0  0  0  0  0  0  0  0  0
   -0.5788    3.2042    2.5382 H   0  0  0  0  0  0  0  0  0  0  0  0
    1.1858    3.2831    2.7185 H   0  0  0  0  0  0  0  0  0  0  0  0
    0.4338    3.7494    1.1790 H   0  0  0  0  0  0  0  0  0  0  0  0
  1  2  1  0  0  0  0
  2  3  1  0  0  0  0
  2  4  1  0  0  0  0
  2  5  1  0  0  0  0
  5  6  2  0  0  0  0
  5  7  1  0  0  0  0
  7  8  1  0  0  0  0
  7  9  1  0  0  0  0
  9 10  1  0  0  0  0
  9 11  1  0  0  0  0
  9 21  1  0  0  0  0
 11 12  1  0  0  0  0
 11 13  1  0  0  0  0
 11 14  1  0  0  0  0
 14 15  1  0  0  0  0
 14 16  1  0  0  0  0
 14 17  1  0  0  0  0
 17 18  2  0  0  0  0
 17 19  1  0  0  0  0
 19 20  1  0  0  0  0
 21 22  2  0  0  0  0
 21 23  1  0  0  0  0
 23 24  1  0  0  0  0
 23 25  1  0  0  0  0
 25 26  1  0  0  0  0
 25 27  1  0  0  0  0
 25 28  1  0  0  0  0
M  END
$$$$

  -OEChem-02102214123D

 28 27  0     1  0  0  0  0  0999 V2000
   -3.2997   -3.7375    1.3852 H   0  0  0  0  0  0  0  0  0  0  0  0
   -3.2697   -2.7565    0.9027 C   0  0  0  0  0  0  0  0  0  0  0  0
   -3.8863   -2.0620    1.4783 H   0  0  0  0  0  0  0  0  0  0  0  0
   -3.6792   -2.8475   -0.1063 H   0  0  0  0  0  0  0  0  0  0  0  0
   -1.8420   -2.2494    0.8360 C   0  0  0  0  0  0  0  0  0  0  0  0
   -0.9277   -2.9326    1.2693 O   0  0  0  0  0  0  0  0  0  0  0  0
   -1.5802   -1.0128    0.2864 N   0  0  0  0  0  0  0  0  0  0  0  0
   -2.3781   -0.4318    0.0328 H   0  0  0  0  0  0  0  0  0  0  0  0
   -0.2553   -0.3750    0.2546 C   0  0  1  0  0  0  0  0  0  0  0  0
    0.4023   -0.8478    0.9918 H   0  0  0  0  0  0  0  0  0  0  0  0
    0.4302   -0.4644   -1.1313 C   0  0  0  0  0  0  0  0  0  0  0  0
    1.1609    0.3438   -1.2462 H   0  0  0  0  0  0  0  0  0  0  0  0
    1.0018   -1.3993   -1.1164 H   0  0  0  0  0  0  0  0  0  0  0  0
   -0.4969   -0.4939   -2.3774 C   0  0  0  0  0  0  0  0  0  0  0  0
   -1.5362   -0.6908   -2.1131 H   0  0  0  0  0  0  0  0  0  0  0  0
   -0.4806    0.4872   -2.8599 H   0  0  0  0  0  0  0  0  0  0  0  0
   -0.0792   -1.5530   -3.3937 C   0  0  0  0  0  0  0  0  0  0  0  0
    1.0802   -1.5765   -3.7730 O   0  0  0  0  0  0  0  0  0  0  0  0
   -1.0250   -2.4200   -3.8252 O   0  0  0  0  0  0  0  0  0  0  0  0
   -0.5760   -3.0110   -4.4484 H   0  0  0  0  0  0  0  0  0  0  0  0
   -0.3935    1.1046    0.6682 C   0  0  0  0  0  0  0  0  0  0  0  0
   -1.3291    1.7723    0.2418 O   0  0  0  0  0  0  0  0  0  0  0  0
    0.4938    1.6742    1.5624 N   0  0  0  0  0  0  0  0  0  0  0  0
    1.2228    1.0802    1.9473 H   0  0  0  0  0  0  0  0  0  0  0  0
    0.3756    3.0468    2.0397 C   0  0  0  0  0  0  0  0  0  0  0  0
   -0.5778    3.1915    2.5588 H   0  0  0  0  0  0  0  0  0  0  0  0
    1.1872    3.2764    2.7368 H   0  0  0  0  0  0  0  0  0  0  0  0
    0.4308    3.7499    1.2018 H   0  0  0  0  0  0  0  0  0  0  0  0
  1  2  1  0  0  0  0
  2  3  1  0  0  0  0
  2  4  1  0  0  0  0
  2  5  1  0  0  0  0
  5  6  2  0  0  0  0
  5  7  1  0  0  0  0
  7  8  1  0  0  0  0
  7  9  1  0  0  0  0
  9 10  1  0  0  0  0
  9 11  1  0  0  0  0
  9 21  1  0  0  0  0
 11 12  1  0  0  0  0
 11 13  1  0  0  0  0
 11 14  1  0  0  0  0
 14 15  1  0  0  0  0
 14 16  1  0  0  0  0
 14 17  1  0  0  0  0
 17 18  2  0  0  0  0
 17 19  1  0  0  0  0
 19 20  1  0  0  0  0
 21 22  2  0  0  0  0
 21 23  1  0  0  0  0
 23 24  1  0  0  0  0
 23 25  1  0  0  0  0
 25 26  1  0  0  0  0
 25 27  1  0  0  0  0
 25 28  1  0  0  0  0
M  END
$$$$

  -OEChem-02102214123D

 28 27  0     1  0  0  0  0  0999 V2000
   -3.3136   -3.7370    1.2887 H   0  0  0  0  0  0  0  0  0  0  0  0
   -3.2711   -2.7524    0.8148 C   0  0  0  0  0  0  0  0  0  0  0  0
   -3.9117   -2.0648    1.3723 H   0  0  0  0  0  0  0  0  0  0  0  0
   -3.6427   -2.8378   -0.2094 H   0  0  0  0  0  0  0  0  0  0  0  0
   -1.8444   -2.2379    0.8038 C   0  0  0  0  0  0  0  0  0  0  0  0
   -0.9435   -2.9148    1.2742 O   0  0  0  0  0  0  0  0  0  0  0  0
   -1.5685   -1.0010    0.2619 N   0  0  0  0  0  0  0  0  0  0  0  0
   -2.3585   -0.4294   -0.0335 H   0  0  0  0  0  0  0  0  0  0  0  0
   -0.2420   -0.3652    0.2545 C   0  0  1  0  0  0  0  0  0  0  0  0
    0.4050   -0.8417    0.9983 H   0  0  0  0  0  0  0  0  0  0  0  0
    0.4502   -0.4695   -1.1264 C   0  0  0  0  0  0  0  0  0  0  0  0
    1.1613    0.3559   -1.2417 H   0  0  0  0  0  0  0  0  0  0  0  0
    1.0450   -1.3899   -1.1146 H   0  0  0  0  0  0  0  0  0  0  0  0
   -0.4858   -0.5016   -2.3641 C   0  0  0  0  0  0  0  0  0  0  0  0
   -1.5369   -0.3769   -2.0995 H   0  0  0  0  0  0  0  0  0  0  0  0
   -0.2363    0.3435   -3.0119 H   0  0  0  0  0  0  0  0  0  0  0  0
   -0.3220   -1.7794   -3.1785 C   0  0  0  0  0  0  0  0  0  0  0  0
    0.7302   -1.9649   -3.7665 O   0  0  0  0  0  0  0  0  0  0  0  0
   -1.3544   -2.6548   -3.1947 O   0  0  0  0  0  0  0  0  0  0  0  0
   -1.0566   -3.4008   -3.7374 H   0  0  0  0  0  0  0  0  0  0  0  0
   -0.3797    1.1147    0.6676 C   0  0  0  0  0  0  0  0  0  0  0  0
   -1.2986    1.7900    0.2177 O   0  0  0  0  0  0  0  0  0  0  0  0
    0.4947    1.6802    1.5773 N   0  0  0  0  0  0  0  0  0  0  0  0
    1.2039    1.0787    1.9870 H   0  0  0  0  0  0  0  0  0  0  0  0
    0.3697    3.0519    2.0560 C   0  0  0  0  0  0  0  0  0  0  0  0
   -0.5882    3.1933    2.5676 H   0  0  0  0  0  0  0  0  0  0  0  0
    1.1749    3.2835    2.7597 H   0  0  0  0  0  0  0  0  0  0  0  0
    0.4293    3.7564    1.2197 H   0  0  0  0  0  0  0  0  0  0  0  0
  1  2  1  0  0  0  0
  2  3  1  0  0  0  0
  2  4  1  0  0  0  0
  2  5  1  0  0  0  0
  5  6  2  0  0  0  0
  5  7  1  0  0  0  0
  7  8  1  0  0  0  0
  7  9  1  0  0  0  0
  9 10  1  0  0  0  0
  9 11  1  0  0  0  0
  9 21  1  0  0  0  0
 11 12  1  0  0  0  0
 11 13  1  0  0  0  0
 11 14  1  0  0  0  0
 14 15  1  0  0  0  0
 14 16  1  0  0  0  0
 14 17  1  0  0  0  0
 17 18  2  0  0  0  0
 17 19  1  0  0  0  0
 19 20  1  0  0  0  0
 21 22  2  0  0  0  0
 21 23  1  0  0  0  0
 23 24  1  0  0  0  0
 23 25  1  0  0  0  0
 25 26  1  0  0  0  0
 25 27  1  0  0  0  0
 25 28  1  0  0  0  0
M  END
$$$$

  -OEChem-02102214123D

 28 27  0     1  0  0  0  0  0999 V2000
   -3.3084   -3.7530    1.1970 H   0  0  0  0  0  0  0  0  0  0  0  0
   -3.2623   -2.7621    0.7370 C   0  0  0  0  0  0  0  0  0  0  0  0
   -3.9342   -2.0907    1.2766 H   0  0  0  0  0  0  0  0  0  0  0  0
   -3.5921   -2.8398   -0.3019 H   0  0  0  0  0  0  0  0  0  0  0  0
   -1.8444   -2.2272    0.7875 C   0  0  0  0  0  0  0  0  0  0  0  0
   -0.9565   -2.8894    1.3016 O   0  0  0  0  0  0  0  0  0  0  0  0
   -1.5597   -0.9930    0.2445 N   0  0  0  0  0  0  0  0  0  0  0  0
   -2.3406   -0.4435   -0.1104 H   0  0  0  0  0  0  0  0  0  0  0  0
   -0.2350   -0.3536    0.2591 C   0  0  1  0  0  0  0  0  0  0  0  0
    0.3998   -0.8253    1.0165 H   0  0  0  0  0  0  0  0  0  0  0  0
    0.4716   -0.4804   -1.1116 C   0  0  0  0  0  0  0  0  0  0  0  0
    1.1628    0.3608   -1.2332 H   0  0  0  0  0  0  0  0  0  0  0  0
    1.0861   -1.3877   -1.0960 H   0  0  0  0  0  0  0  0  0  0  0  0
   -0.4715   -0.5301   -2.3393 C   0  0  0  0  0  0  0  0  0  0  0  0
   -1.4613   -0.1260   -2.1132 H   0  0  0  0  0  0  0  0  0  0  0  0
   -0.0532    0.1077   -3.1232 H   0  0  0  0  0  0  0  0  0  0  0  0
   -0.5911   -1.9368   -2.9150 C   0  0  0  0  0  0  0  0  0  0  0  0
    0.3424   -2.3823   -3.5609 O   0  0  0  0  0  0  0  0  0  0  0  0
   -1.7290   -2.6284   -2.6676 O   0  0  0  0  0  0  0  0  0  0  0  0
   -1.6033   -3.4921   -3.0896 H   0  0  0  0  0  0  0  0  0  0  0  0
   -0.3753    1.1295    0.6600 C   0  0  0  0  0  0  0  0  0  0  0  0
   -1.2763    1.8091    0.1817 O   0  0  0  0  0  0  0  0  0  0  0  0
    0.4859    1.6954    1.5819 N   0  0  0  0  0  0  0  0  0  0  0  0
    1.1772    1.0890    2.0141 H   0  0  0  0  0  0  0  0  0  0  0  0
    0.3596    3.0695    2.0532 C   0  0  0  0  0  0  0  0  0  0  0  0
   -0.5972    3.2117    2.5668 H   0  0  0  0  0  0  0  0  0  0  0  0
    1.1669    3.3056    2.7533 H   0  0  0  0  0  0  0  0  0  0  0  0
    0.4162    3.7702    1.2134 H   0  0  0  0  0  0  0  0  0  0  0  0
  1  2  1  0  0  0  0
  2  3  1  0  0  0  0
  2  4  1  0  0  0  0
  2  5  1  0  0  0  0
  5  6  2  0  0  0  0
  5  7  1  0  0  0  0
  7  8  1  0  0  0  0
  7  9  1  0  0  0  0
  9 10  1  0  0  0  0
  9 11  1  0  0  0  0
  9 21  1  0  0  0  0
 11 12  1  0  0  0  0
 11 13  1  0  0  0  0
 11 14  1  0  0  0  0
 14 15  1  0  0  0  0
 14 16  1  0  0  0  0
 14 17  1  0  0  0  0
 17 18  2  0  0  0  0
 17 19  1  0  0  0  0
 19 20  1  0  0  0  0
 21 22  2  0  0  0  0
 21 23  1  0  0  0  0
 23 24  1  0  0  0  0
 23 25  1  0  0  0  0
 25 26  1  0  0  0  0
 25 27  1  0  0  0  0
 25 28  1  0  0  0  0
M  END
$$$$

  -OEChem-02102214123D

 28 27  0     1  0  0  0  0  0999 V2000
   -3.3090   -3.7424    1.2784 H   0  0  0  0  0  0  0  0  0  0  0  0
   -3.2621   -2.7599    0.8008 C   0  0  0  0  0  0  0  0  0  0  0  0
   -3.9130   -2.0714    1.3448 H   0  0  0  0  0  0  0  0  0  0  0  0
   -3.6194   -2.8505   -0.2276 H   0  0  0  0  0  0  0  0  0  0  0  0
   -1.8370   -2.2405    0.8108 C   0  0  0  0  0  0  0  0  0  0  0  0
   -0.9476   -2.8995    1.3254 O   0  0  0  0  0  0  0  0  0  0  0  0
   -1.5523   -1.0131    0.2527 N   0  0  0  0  0  0  0  0  0  0  0  0
   -2.3330   -0.4728   -0.1175 H   0  0  0  0  0  0  0  0  0  0  0  0
   -0.2318   -0.3657    0.2683 C   0  0  1  0  0  0  0  0  0  0  0  0
    0.3987   -0.8236    1.0379 H   0  0  0  0  0  0  0  0  0  0  0  0
    0.4955   -0.4969   -1.0920 C   0  0  0  0  0  0  0  0  0  0  0  0
    1.1744    0.3543   -1.2125 H   0  0  0  0  0  0  0  0  0  0  0  0
    1.1222   -1.3954   -1.0662 H   0  0  0  0  0  0  0  0  0  0  0  0
   -0.4306   -0.5661   -2.3287 C   0  0  0  0  0  0  0  0  0  0  0  0
   -1.3223    0.0494   -2.1789 H   0  0  0  0  0  0  0  0  0  0  0  0
    0.1009   -0.1506   -3.1893 H   0  0  0  0  0  0  0  0  0  0  0  0
   -0.8323   -1.9939   -2.6911 C   0  0  0  0  0  0  0  0  0  0  0  0
    0.0342   -2.7550   -3.0874 O   0  0  0  0  0  0  0  0  0  0  0  0
   -2.1350   -2.3447   -2.5706 O   0  0  0  0  0  0  0  0  0  0  0  0
   -2.1764   -3.2702   -2.8571 H   0  0  0  0  0  0  0  0  0  0  0  0
   -0.3858    1.1223    0.6472 C   0  0  0  0  0  0  0  0  0  0  0  0
   -1.2895    1.7892    0.1563 O   0  0  0  0  0  0  0  0  0  0  0  0
    0.4648    1.7060    1.5680 N   0  0  0  0  0  0  0  0  0  0  0  0
    1.1579    1.1100    2.0118 H   0  0  0  0  0  0  0  0  0  0  0  0
    0.3231    3.0836    2.0244 C   0  0  0  0  0  0  0  0  0  0  0  0
   -0.6385    3.2226    2.5296 H   0  0  0  0  0  0  0  0  0  0  0  0
    1.1233    3.3340    2.7277 H   0  0  0  0  0  0  0  0  0  0  0  0
    0.3796    3.7763    1.1781 H   0  0  0  0  0  0  0  0  0  0  0  0
  1  2  1  0  0  0  0
  2  3  1  0  0  0  0
  2  4  1  0  0  0  0
  2  5  1  0  0  0  0
  5  6  2  0  0  0  0
  5  7  1  0  0  0  0
  7  8  1  0  0  0  0
  7  9  1  0  0  0  0
  9 10  1  0  0  0  0
  9 11  1  0  0  0  0
  9 21  1  0  0  0  0
 11 12  1  0  0  0  0
 11 13  1  0  0  0  0
 11 14  1  0  0  0  0
 14 15  1  0  0  0  0
 14 16  1  0  0  0  0
 14 17  1  0  0  0  0
 17 18  2  0  0  0  0
 17 19  1  0  0  0  0
 19 20  1  0  0  0  0
 21 22  2  0  0  0  0
 21 23  1  0  0  0  0
 23 24  1  0  0  0  0
 23 25  1  0  0  0  0
 25 26  1  0  0  0  0
 25 27  1  0  0  0  0
 25 28  1  0  0  0  0
M  END
$$$$

  -OEChem-02102214123D

 28 27  0     1  0  0  0  0  0999 V2000
   -3.2863   -3.7682    1.3817 H   0  0  0  0  0  0  0  0  0  0  0  0
   -3.2485   -2.7990    0.8764 C   0  0  0  0  0  0  0  0  0  0  0  0
   -3.9152   -2.1051    1.3941 H   0  0  0  0  0  0  0  0  0  0  0  0
   -3.5935   -2.9243   -0.1521 H   0  0  0  0  0  0  0  0  0  0  0  0
   -1.8309   -2.2588    0.8875 C   0  0  0  0  0  0  0  0  0  0  0  0
   -0.9412   -2.8884    1.4369 O   0  0  0  0  0  0  0  0  0  0  0  0
   -1.5569   -1.0394    0.3054 N   0  0  0  0  0  0  0  0  0  0  0  0
   -2.3365   -0.5240   -0.1016 H   0  0  0  0  0  0  0  0  0  0  0  0
   -0.2390   -0.3880    0.3006 C   0  0  1  0  0  0  0  0  0  0  0  0
    0.4008   -0.8319    1.0706 H   0  0  0  0  0  0  0  0  0  0  0  0
    0.4904   -0.5042   -1.0621 C   0  0  0  0  0  0  0  0  0  0  0  0
    1.1747    0.3440   -1.1732 H   0  0  0  0  0  0  0  0  0  0  0  0
    1.1108   -1.4069   -1.0380 H   0  0  0  0  0  0  0  0  0  0  0  0
   -0.4125   -0.5750   -2.3157 C   0  0  0  0  0  0  0  0  0  0  0  0
   -1.1690    0.2136   -2.2639 H   0  0  0  0  0  0  0  0  0  0  0  0
    0.1976   -0.3792   -3.2016 H   0  0  0  0  0  0  0  0  0  0  0  0
   -1.1029   -1.9212   -2.5234 C   0  0  0  0  0  0  0  0  0  0  0  0
   -0.4084   -2.9098   -2.6849 O   0  0  0  0  0  0  0  0  0  0  0  0
   -2.4569   -1.9500   -2.5454 O   0  0  0  0  0  0  0  0  0  0  0  0
   -2.6890   -2.8716   -2.7374 H   0  0  0  0  0  0  0  0  0  0  0  0
   -0.4050    1.1043    0.6573 C   0  0  0  0  0  0  0  0  0  0  0  0
   -1.3022    1.7630    0.1437 O   0  0  0  0  0  0  0  0  0  0  0  0
    0.4459    1.7088    1.5639 N   0  0  0  0  0  0  0  0  0  0  0  0
    1.1365    1.1228    2.0244 H   0  0  0  0  0  0  0  0  0  0  0  0
    0.3191    3.1032    1.9705 C   0  0  0  0  0  0  0  0  0  0  0  0
   -0.6476    3.2748    2.4557 H   0  0  0  0  0  0  0  0  0  0  0  0
    1.1126    3.3656    2.6769 H   0  0  0  0  0  0  0  0  0  0  0  0
    0.3990    3.7643    1.1010 H   0  0  0  0  0  0  0  0  0  0  0  0
  1  2  1  0  0  0  0
  2  3  1  0  0  0  0
  2  4  1  0  0  0  0
  2  5  1  0  0  0  0
  5  6  2  0  0  0  0
  5  7  1  0  0  0  0
  7  8  1  0  0  0  0
  7  9  1  0  0  0  0
  9 10  1  0  0  0  0
  9 11  1  0  0  0  0
  9 21  1  0  0  0  0
 11 12  1  0  0  0  0
 11 13  1  0  0  0  0
 11 14  1  0  0  0  0
 14 15  1  0  0  0  0
 14 16  1  0  0  0  0
 14 17  1  0  0  0  0
 17 18  2  0  0  0  0
 17 19  1  0  0  0  0
 19 20  1  0  0  0  0
 21 22  2  0  0  0  0
 21 23  1  0  0  0  0
 23 24  1  0  0  0  0
 23 25  1  0  0  0  0
 25 26  1  0  0  0  0
 25 27  1  0  0  0  0
 25 28  1  0  0  0  0
M  END
$$$$

  -OEChem-02102214123D

 28 27  0     1  0  0  0  0  0999 V2000
   -3.2531   -3.7915    1.4786 H   0  0  0  0  0  0  0  0  0  0  0  0
   -3.2302   -2.8312    0.9559 C   0  0  0  0  0  0  0  0  0  0  0  0
   -3.9174   -2.1421    1.4526 H   0  0  0  0  0  0  0  0  0  0  0  0
   -3.5588   -2.9838   -0.0743 H   0  0  0  0  0  0  0  0  0  0  0  0
   -1.8247   -2.2612    0.9726 C   0  0  0  0  0  0  0  0  0  0  0  0
   -0.9284   -2.8627    1.5425 O   0  0  0  0  0  0  0  0  0  0  0  0
   -1.5697   -1.0472    0.3695 N   0  0  0  0  0  0  0  0  0  0  0  0
   -2.3550   -0.5492   -0.0492 H   0  0  0  0  0  0  0  0  0  0  0  0
   -0.2543   -0.3953    0.3244 C   0  0  1  0  0  0  0  0  0  0  0  0
    0.4012   -0.8278    1.0873 H   0  0  0  0  0  0  0  0  0  0  0  0
    0.4636   -0.5083   -1.0483 C   0  0  0  0  0  0  0  0  0  0  0  0
    1.1644    0.3267   -1.1566 H   0  0  0  0  0  0  0  0  0  0  0  0
    1.0662   -1.4227   -1.0169 H   0  0  0  0  0  0  0  0  0  0  0  0
   -0.4057   -0.5892   -2.3278 C   0  0  0  0  0  0  0  0  0  0  0  0
   -0.9916    0.3316   -2.4044 H   0  0  0  0  0  0  0  0  0  0  0  0
    0.2532   -0.6274   -3.1994 H   0  0  0  0  0  0  0  0  0  0  0  0
   -1.3667   -1.7719   -2.4209 C   0  0  0  0  0  0  0  0  0  0  0  0
   -0.8981   -2.8965   -2.4530 O   0  0  0  0  0  0  0  0  0  0  0  0
   -2.6956   -1.5162   -2.4834 O   0  0  0  0  0  0  0  0  0  0  0  0
   -3.1193   -2.3791   -2.6076 H   0  0  0  0  0  0  0  0  0  0  0  0
   -0.4203    1.0998    0.6699 C   0  0  0  0  0  0  0  0  0  0  0  0
   -1.3277    1.7505    0.1643 O   0  0  0  0  0  0  0  0  0  0  0  0
    0.4484    1.7191    1.5497 N   0  0  0  0  0  0  0  0  0  0  0  0
    1.1499    1.1409    2.0038 H   0  0  0  0  0  0  0  0  0  0  0  0
    0.3225    3.1172    1.9440 C   0  0  0  0  0  0  0  0  0  0  0  0
   -0.6426    3.2931    2.4306 H   0  0  0  0  0  0  0  0  0  0  0  0
    1.1180    3.3861    2.6457 H   0  0  0  0  0  0  0  0  0  0  0  0
    0.3989    3.7706    1.0684 H   0  0  0  0  0  0  0  0  0  0  0  0
  1  2  1  0  0  0  0
  2  3  1  0  0  0  0
  2  4  1  0  0  0  0
  2  5  1  0  0  0  0
  5  6  2  0  0  0  0
  5  7  1  0  0  0  0
  7  8  1  0  0  0  0
  7  9  1  0  0  0  0
  9 10  1  0  0  0  0
  9 11  1  0  0  0  0
  9 21  1  0  0  0  0
 11 12  1  0  0  0  0
 11 13  1  0  0  0  0
 11 14  1  0  0  0  0
 14 15  1  0  0  0  0
 14 16  1  0  0  0  0
 14 17  1  0  0  0  0
 17 18  2  0  0  0  0
 17 19  1  0  0  0  0
 19 20  1  0  0  0  0
 21 22  2  0  0  0  0
 21 23  1  0  0  0  0
 23 24  1  0  0  0  0
 23 25  1  0  0  0  0
 25 26  1  0  0  0  0
 25 27  1  0  0  0  0
 25 28  1  0  0  0  0
M  END
$$$$

  -OEChem-02102214123D

 28 27  0     1  0  0  0  0  0999 V2000
   -3.2192   -3.7874    1.6059 H   0  0  0  0  0  0  0  0  0  0  0  0
   -3.2022   -2.8578    1.0302 C   0  0  0  0  0  0  0  0  0  0  0  0
   -3.9090   -2.1536    1.4758 H   0  0  0  0  0  0  0  0  0  0  0  0
   -3.5087   -3.0737    0.0041 H   0  0  0  0  0  0  0  0  0  0  0  0
   -1.8064   -2.2653    1.0366 C   0  0  0  0  0  0  0  0  0  0  0  0
   -0.8935   -2.8540    1.5940 O   0  0  0  0  0  0  0  0  0  0  0  0
   -1.5762   -1.0508    0.4252 N   0  0  0  0  0  0  0  0  0  0  0  0
   -2.3735   -0.5636    0.0157 H   0  0  0  0  0  0  0  0  0  0  0  0
   -0.2679   -0.3934    0.3356 C   0  0  1  0  0  0  0  0  0  0  0  0
    0.4101   -0.8195    1.0824 H   0  0  0  0  0  0  0  0  0  0  0  0
    0.4227   -0.5032   -1.0534 C   0  0  0  0  0  0  0  0  0  0  0  0
    1.1373    0.3194   -1.1663 H   0  0  0  0  0  0  0  0  0  0  0  0
    1.0115   -1.4262   -1.0175 H   0  0  0  0  0  0  0  0  0  0  0  0
   -0.4247   -0.5967   -2.3514 C   0  0  0  0  0  0  0  0  0  0  0  0
   -0.8137    0.4039   -2.5622 H   0  0  0  0  0  0  0  0  0  0  0  0
    0.2350   -0.8655   -3.1814 H   0  0  0  0  0  0  0  0  0  0  0  0
   -1.6176   -1.5490   -2.3703 C   0  0  0  0  0  0  0  0  0  0  0  0
   -1.3981   -2.7465   -2.4280 O   0  0  0  0  0  0  0  0  0  0  0  0
   -2.8651   -1.0212   -2.3384 O   0  0  0  0  0  0  0  0  0  0  0  0
   -3.4706   -1.7714   -2.4358 H   0  0  0  0  0  0  0  0  0  0  0  0
   -0.4310    1.1009    0.6855 C   0  0  0  0  0  0  0  0  0  0  0  0
   -1.3553    1.7482    0.2073 O   0  0  0  0  0  0  0  0  0  0  0  0
    0.4638    1.7245    1.5357 N   0  0  0  0  0  0  0  0  0  0  0  0
    1.1736    1.1465    1.9765 H   0  0  0  0  0  0  0  0  0  0  0  0
    0.3389    3.1197    1.9408 C   0  0  0  0  0  0  0  0  0  0  0  0
   -0.6054    3.2819    2.4712 H   0  0  0  0  0  0  0  0  0  0  0  0
    1.1620    3.3958    2.6069 H   0  0  0  0  0  0  0  0  0  0  0  0
    0.3683    3.7771    1.0653 H   0  0  0  0  0  0  0  0  0  0  0  0
  1  2  1  0  0  0  0
  2  3  1  0  0  0  0
  2  4  1  0  0  0  0
  2  5  1  0  0  0  0
  5  6  2  0  0  0  0
  5  7  1  0  0  0  0
  7  8  1  0  0  0  0
  7  9  1  0  0  0  0
  9 10  1  0  0  0  0
  9 11  1  0  0  0  0
  9 21  1  0  0  0  0
 11 12  1  0  0  0  0
 11 13  1  0  0  0  0
 11 14  1  0  0  0  0
 14 15  1  0  0  0  0
 14 16  1  0  0  0  0
 14 17  1  0  0  0  0
 17 18  2  0  0  0  0
 17 19  1  0  0  0  0
 19 20  1  0  0  0  0
 21 22  2  0  0  0  0
 21 23  1  0  0  0  0
 23 24  1  0  0  0  0
 23 25  1  0  0  0  0
 25 26  1  0  0  0  0
 25 27  1  0  0  0  0
 25 28  1  0  0  0  0
M  END
$$$$

  -OEChem-02102214123D

 28 27  0     1  0  0  0  0  0999 V2000
   -3.1950   -3.7953    1.6574 H   0  0  0  0  0  0  0  0  0  0  0  0
   -3.1974   -2.8508    1.1063 C   0  0  0  0  0  0  0  0  0  0  0  0
   -3.8798   -2.1556    1.6010 H   0  0  0  0  0  0  0  0  0  0  0  0
   -3.5497   -3.0379    0.0890 H   0  0  0  0  0  0  0  0  0  0  0  0
   -1.7989   -2.2660    1.0669 C   0  0  0  0  0  0  0  0  0  0  0  0
   -0.8673   -2.8666    1.5792 O   0  0  0  0  0  0  0  0  0  0  0  0
   -1.5842   -1.0483    0.4567 N   0  0  0  0  0  0  0  0  0  0  0  0
   -2.3949   -0.5441    0.0970 H   0  0  0  0  0  0  0  0  0  0  0  0
   -0.2805   -0.3892    0.3322 C   0  0  1  0  0  0  0  0  0  0  0  0
    0.4130   -0.8166    1.0641 H   0  0  0  0  0  0  0  0  0  0  0  0
    0.3836   -0.5054   -1.0693 C   0  0  0  0  0  0  0  0  0  0  0  0
    1.1076    0.3076   -1.1921 H   0  0  0  0  0  0  0  0  0  0  0  0
    0.9643   -1.4334   -1.0272 H   0  0  0  0  0  0  0  0  0  0  0  0
   -0.4561   -0.6115   -2.3759 C   0  0  0  0  0  0  0  0  0  0  0  0
   -0.6263    0.4097   -2.7292 H   0  0  0  0  0  0  0  0  0  0  0  0
    0.1466   -1.1142   -3.1379 H   0  0  0  0  0  0  0  0  0  0  0  0
   -1.8293   -1.2777   -2.3417 C   0  0  0  0  0  0  0  0  0  0  0  0
   -1.8828   -2.4921   -2.4362 O   0  0  0  0  0  0  0  0  0  0  0  0
   -2.9262   -0.4914   -2.2281 O   0  0  0  0  0  0  0  0  0  0  0  0
   -3.6886   -1.0840   -2.3060 H   0  0  0  0  0  0  0  0  0  0  0  0
   -0.4290    1.1038    0.6934 C   0  0  0  0  0  0  0  0  0  0  0  0
   -1.3731    1.7525    0.2589 O   0  0  0  0  0  0  0  0  0  0  0  0
    0.4926    1.7218    1.5188 N   0  0  0  0  0  0  0  0  0  0  0  0
    1.2213    1.1429    1.9265 H   0  0  0  0  0  0  0  0  0  0  0  0
    0.3767    3.1120    1.9429 C   0  0  0  0  0  0  0  0  0  0  0  0
   -0.5492    3.2648    2.5076 H   0  0  0  0  0  0  0  0  0  0  0  0
    1.2215    3.3848    2.5828 H   0  0  0  0  0  0  0  0  0  0  0  0
    0.3730    3.7788    1.0740 H   0  0  0  0  0  0  0  0  0  0  0  0
  1  2  1  0  0  0  0
  2  3  1  0  0  0  0
  2  4  1  0  0  0  0
  2  5  1  0  0  0  0
  5  6  2  0  0  0  0
  5  7  1  0  0  0  0
  7  8  1  0  0  0  0
  7  9  1  0  0  0  0
  9 10  1  0  0  0  0
  9 11  1  0  0  0  0
  9 21  1  0  0  0  0
 11 12  1  0  0  0  0
 11 13  1  0  0  0  0
 11 14  1  0  0  0  0
 14 15  1  0  0  0  0
 14 16  1  0  0  0  0
 14 17  1  0  0  0  0
 17 18  2  0  0  0  0
 17 19  1  0  0  0  0
 19 20  1  0  0  0  0
 21 22  2  0  0  0  0
 21 23  1  0  0  0  0
 23 24  1  0  0  0  0
 23 25  1  0  0  0  0
 25 26  1  0  0  0  0
 25 27  1  0  0  0  0
 25 28  1  0  0  0  0
M  END
$$$$

  -OEChem-02102214123D

 28 27  0     1  0  0  0  0  0999 V2000
   -2.7860   -3.8811    1.9426 H   0  0  0  0  0  0  0  0  0  0  0  0
   -2.9135   -2.9416    1.3979 C   0  0  0  0  0  0  0  0  0  0  0  0
   -3.5335   -2.2688    1.9950 H   0  0  0  0  0  0  0  0  0  0  0  0
   -3.4183   -3.1498    0.4513 H   0  0  0  0  0  0  0  0  0  0  0  0
   -1.5636   -2.3044    1.1306 C   0  0  0  0  0  0  0  0  0  0  0  0
   -0.5371   -2.8777    1.4615 O   0  0  0  0  0  0  0  0  0  0  0  0
   -1.4988   -1.0697    0.5202 N   0  0  0  0  0  0  0  0  0  0  0  0
   -2.3754   -0.5789    0.3484 H   0  0  0  0  0  0  0  0  0  0  0  0
   -0.2597   -0.3426    0.2273 C   0  0  1  0  0  0  0  0  0  0  0  0
    0.5431   -0.7393    0.8577 H   0  0  0  0  0  0  0  0  0  0  0  0
    0.2240   -0.4328   -1.2477 C   0  0  0  0  0  0  0  0  0  0  0  0
    0.8826    0.4171   -1.4565 H   0  0  0  0  0  0  0  0  0  0  0  0
    0.8568   -1.3265   -1.2762 H   0  0  0  0  0  0  0  0  0  0  0  0
   -0.7543   -0.5928   -2.4506 C   0  0  0  0  0  0  0  0  0  0  0  0
   -0.8021    0.3764   -2.9551 H   0  0  0  0  0  0  0  0  0  0  0  0
   -0.3139   -1.2959   -3.1639 H   0  0  0  0  0  0  0  0  0  0  0  0
   -2.2031   -1.0109   -2.2143 C   0  0  0  0  0  0  0  0  0  0  0  0
   -2.4726   -2.2009   -2.2055 O   0  0  0  0  0  0  0  0  0  0  0  0
   -3.1287   -0.0364   -2.0580 O   0  0  0  0  0  0  0  0  0  0  0  0
   -3.9849   -0.4820   -1.9827 H   0  0  0  0  0  0  0  0  0  0  0  0
   -0.4255    1.1373    0.6329 C   0  0  0  0  0  0  0  0  0  0  0  0
   -1.4691    1.7307    0.3891 O   0  0  0  0  0  0  0  0  0  0  0  0
    0.5741    1.7898    1.3313 N   0  0  0  0  0  0  0  0  0  0  0  0
    1.3918    1.2491    1.5984 H   0  0  0  0  0  0  0  0  0  0  0  0
    0.4416    3.1569    1.8213 C   0  0  0  0  0  0  0  0  0  0  0  0
   -0.3860    3.2292    2.5348 H   0  0  0  0  0  0  0  0  0  0  0  0
    1.3614    3.4705    2.3245 H   0  0  0  0  0  0  0  0  0  0  0  0
    0.2513    3.8451    0.9910 H   0  0  0  0  0  0  0  0  0  0  0  0
  1  2  1  0  0  0  0
  2  3  1  0  0  0  0
  2  4  1  0  0  0  0
  2  5  1  0  0  0  0
  5  6  2  0  0  0  0
  5  7  1  0  0  0  0
  7  8  1  0  0  0  0
  7  9  1  0  0  0  0
  9 10  1  0  0  0  0
  9 11  1  0  0  0  0
  9 21  1  0  0  0  0
 11 12  1  0  0  0  0
 11 13  1  0  0  0  0
 11 14  1  0  0  0  0
 14 15  1  0  0  0  0
 14 16  1  0  0  0  0
 14 17  1  0  0  0  0
 17 18  2  0  0  0  0
 17 19  1  0  0  0  0
 19 20  1  0  0  0  0
 21 22  2  0  0  0  0
 21 23  1  0  0  0  0
 23 24  1  0  0  0  0
 23 25  1  0  0  0  0
 25 26  1  0  0  0  0
 25 27  1  0  0  0  0
 25 28  1  0  0  0  0
M  END
$$$$

  -OEChem-02102214123D

 28 27  0     1  0  0  0  0  0999 V2000
   -3.0596   -3.8974    1.5919 H   0  0  0  0  0  0  0  0  0  0  0  0
   -3.1124   -2.9229    1.0989 C   0  0  0  0  0  0  0  0  0  0  0  0
   -3.7579   -2.2647    1.6852 H   0  0  0  0  0  0  0  0  0  0  0  0
   -3.5444   -3.0549    0.1035 H   0  0  0  0  0  0  0  0  0  0  0  0
   -1.7259   -2.3200    0.9809 C   0  0  0  0  0  0  0  0  0  0  0  0
   -0.7500   -2.9408    1.3743 O   0  0  0  0  0  0  0  0  0  0  0  0
   -1.5708   -1.0637    0.4348 N   0  0  0  0  0  0  0  0  0  0  0  0
   -2.4160   -0.5467    0.1986 H   0  0  0  0  0  0  0  0  0  0  0  0
   -0.2898   -0.3649    0.2885 C   0  0  1  0  0  0  0  0  0  0  0  0
    0.4384   -0.8111    0.9738 H   0  0  0  0  0  0  0  0  0  0  0  0
    0.3234   -0.4290   -1.1393 C   0  0  0  0  0  0  0  0  0  0  0  0
    1.0018    0.4230   -1.2567 H   0  0  0  0  0  0  0  0  0  0  0  0
    0.9543   -1.3243   -1.1441 H   0  0  0  0  0  0  0  0  0  0  0  0
   -0.5463   -0.5226   -2.4311 C   0  0  0  0  0  0  0  0  0  0  0  0
   -0.2920    0.3321   -3.0643 H   0  0  0  0  0  0  0  0  0  0  0  0
   -0.2425   -1.4193   -2.9798 H   0  0  0  0  0  0  0  0  0  0  0  0
   -2.0693   -0.5520   -2.3298 C   0  0  0  0  0  0  0  0  0  0  0  0
   -2.6418   -1.6289   -2.2754 O   0  0  0  0  0  0  0  0  0  0  0  0
   -2.7151    0.6356   -2.3561 O   0  0  0  0  0  0  0  0  0  0  0  0
   -3.6616    0.4399   -2.3040 H   0  0  0  0  0  0  0  0  0  0  0  0
   -0.4499    1.1017    0.7428 C   0  0  0  0  0  0  0  0  0  0  0  0
   -1.4592    1.7319    0.4511 O   0  0  0  0  0  0  0  0  0  0  0  0
    0.5001    1.6907    1.5572 N   0  0  0  0  0  0  0  0  0  0  0  0
    1.2807    1.1162    1.8616 H   0  0  0  0  0  0  0  0  0  0  0  0
    0.3631    3.0383    2.0968 C   0  0  0  0  0  0  0  0  0  0  0  0
   -0.5355    3.1134    2.7181 H   0  0  0  0  0  0  0  0  0  0  0  0
    1.2315    3.2896    2.7134 H   0  0  0  0  0  0  0  0  0  0  0  0
    0.2921    3.7704    1.2853 H   0  0  0  0  0  0  0  0  0  0  0  0
  1  2  1  0  0  0  0
  2  3  1  0  0  0  0
  2  4  1  0  0  0  0
  2  5  1  0  0  0  0
  5  6  2  0  0  0  0
  5  7  1  0  0  0  0
  7  8  1  0  0  0  0
  7  9  1  0  0  0  0
  9 10  1  0  0  0  0
  9 11  1  0  0  0  0
  9 21  1  0  0  0  0
 11 12  1  0  0  0  0
 11 13  1  0  0  0  0
 11 14  1  0  0  0  0
 14 15  1  0  0  0  0
 14 16  1  0  0  0  0
 14 17  1  0  0  0  0
 17 18  2  0  0  0  0
 17 19  1  0  0  0  0
 19 20  1  0  0  0  0
 21 22  2  0  0  0  0
 21 23  1  0  0  0  0
 23 24  1  0  0  0  0
 23 25  1  0  0  0  0
 25 26  1  0  0  0  0
 25 27  1  0  0  0  0
 25 28  1  0  0  0  0
M  END
$$$$

  -OEChem-02102214123D

 28 27  0     1  0  0  0  0  0999 V2000
   -3.1870   -3.7884    1.3695 H   0  0  0  0  0  0  0  0  0  0  0  0
   -3.2045   -2.7907    0.9222 C   0  0  0  0  0  0  0  0  0  0  0  0
   -3.8002   -2.1305    1.5571 H   0  0  0  0  0  0  0  0  0  0  0  0
   -3.6694   -2.8542   -0.0646 H   0  0  0  0  0  0  0  0  0  0  0  0
   -1.7933   -2.2509    0.7917 C   0  0  0  0  0  0  0  0  0  0  0  0
   -0.8385   -2.9500    1.0936 O   0  0  0  0  0  0  0  0  0  0  0  0
   -1.5918   -0.9667    0.3338 N   0  0  0  0  0  0  0  0  0  0  0  0
   -2.4160   -0.3853    0.1883 H   0  0  0  0  0  0  0  0  0  0  0  0
   -0.2867   -0.3022    0.2525 C   0  0  1  0  0  0  0  0  0  0  0  0
    0.4103   -0.8153    0.9234 H   0  0  0  0  0  0  0  0  0  0  0  0
    0.3443   -0.3357   -1.1654 C   0  0  0  0  0  0  0  0  0  0  0  0
    1.0204    0.5227   -1.2435 H   0  0  0  0  0  0  0  0  0  0  0  0
    0.9753   -1.2300   -1.2064 H   0  0  0  0  0  0  0  0  0  0  0  0
   -0.5287   -0.3534   -2.4545 C   0  0  0  0  0  0  0  0  0  0  0  0
   -0.0633    0.3018   -3.1966 H   0  0  0  0  0  0  0  0  0  0  0  0
   -0.4893   -1.3675   -2.8625 H   0  0  0  0  0  0  0  0  0  0  0  0
   -2.0097    0.0127   -2.3688 C   0  0  0  0  0  0  0  0  0  0  0  0
   -2.3068    1.1902   -2.4523 O   0  0  0  0  0  0  0  0  0  0  0  0
   -2.9287   -0.9810   -2.2979 O   0  0  0  0  0  0  0  0  0  0  0  0
   -3.7881   -0.5341   -2.3427 H   0  0  0  0  0  0  0  0  0  0  0  0
   -0.3937    1.1373    0.8002 C   0  0  0  0  0  0  0  0  0  0  0  0
   -1.4018    1.8009    0.5947 O   0  0  0  0  0  0  0  0  0  0  0  0
    0.5692    1.6321    1.6609 N   0  0  0  0  0  0  0  0  0  0  0  0
    1.3444    1.0221    1.9035 H   0  0  0  0  0  0  0  0  0  0  0  0
    0.4620    2.9311    2.3145 C   0  0  0  0  0  0  0  0  0  0  0  0
   -0.4284    2.9675    2.9510 H   0  0  0  0  0  0  0  0  0  0  0  0
    1.3417    3.1150    2.9387 H   0  0  0  0  0  0  0  0  0  0  0  0
    0.3947    3.7305    1.5688 H   0  0  0  0  0  0  0  0  0  0  0  0
  1  2  1  0  0  0  0
  2  3  1  0  0  0  0
  2  4  1  0  0  0  0
  2  5  1  0  0  0  0
  5  6  2  0  0  0  0
  5  7  1  0  0  0  0
  7  8  1  0  0  0  0
  7  9  1  0  0  0  0
  9 10  1  0  0  0  0
  9 11  1  0  0  0  0
  9 21  1  0  0  0  0
 11 12  1  0  0  0  0
 11 13  1  0  0  0  0
 11 14  1  0  0  0  0
 14 15  1  0  0  0  0
 14 16  1  0  0  0  0
 14 17  1  0  0  0  0
 17 18  2  0  0  0  0
 17 19  1  0  0  0  0
 19 20  1  0  0  0  0
 21 22  2  0  0  0  0
 21 23  1  0  0  0  0
 23 24  1  0  0  0  0
 23 25  1  0  0  0  0
 25 26  1  0  0  0  0
 25 27  1  0  0  0  0
 25 28  1  0  0  0  0
M  END
$$$$

  -OEChem-02102214123D

 28 27  0     1  0  0  0  0  0999 V2000
   -3.0933   -3.8689    1.5135 H   0  0  0  0  0  0  0  0  0  0  0  0
   -3.1346   -2.8744    1.0612 C   0  0  0  0  0  0  0  0  0  0  0  0
   -3.8104   -2.2468    1.6470 H   0  0  0  0  0  0  0  0  0  0  0  0
   -3.5244   -2.9646    0.0441 H   0  0  0  0  0  0  0  0  0  0  0  0
   -1.7511   -2.2542    1.0303 C   0  0  0  0  0  0  0  0  0  0  0  0
   -0.8011   -2.8400    1.5267 O   0  0  0  0  0  0  0  0  0  0  0  0
   -1.5707   -1.0271    0.4317 N   0  0  0  0  0  0  0  0  0  0  0  0
   -2.3908   -0.5991   -0.0006 H   0  0  0  0  0  0  0  0  0  0  0  0
   -0.2810   -0.3408    0.2829 C   0  0  1  0  0  0  0  0  0  0  0  0
    0.4385   -0.7627    0.9924 H   0  0  0  0  0  0  0  0  0  0  0  0
    0.3156   -0.5068   -1.1423 C   0  0  0  0  0  0  0  0  0  0  0  0
    0.9658    0.3545   -1.3308 H   0  0  0  0  0  0  0  0  0  0  0  0
    0.9641   -1.3892   -1.1233 H   0  0  0  0  0  0  0  0  0  0  0  0
   -0.6204   -0.6633   -2.3747 C   0  0  0  0  0  0  0  0  0  0  0  0
   -0.0968   -0.3085   -3.2668 H   0  0  0  0  0  0  0  0  0  0  0  0
   -0.8117   -1.7309   -2.5178 H   0  0  0  0  0  0  0  0  0  0  0  0
   -1.9816    0.0285   -2.3063 C   0  0  0  0  0  0  0  0  0  0  0  0
   -2.9729   -0.6079   -1.9798 O   0  0  0  0  0  0  0  0  0  0  0  0
   -2.0089    1.3358   -2.6506 O   0  0  0  0  0  0  0  0  0  0  0  0
   -2.9007    1.6540   -2.4448 H   0  0  0  0  0  0  0  0  0  0  0  0
   -0.4289    1.1502    0.6626 C   0  0  0  0  0  0  0  0  0  0  0  0
   -1.4169    1.7860    0.3130 O   0  0  0  0  0  0  0  0  0  0  0  0
    0.5132    1.7643    1.4677 N   0  0  0  0  0  0  0  0  0  0  0  0
    1.2676    1.1886    1.8304 H   0  0  0  0  0  0  0  0  0  0  0  0
    0.3739    3.1319    1.9547 C   0  0  0  0  0  0  0  0  0  0  0  0
   -0.5231    3.2278    2.5756 H   0  0  0  0  0  0  0  0  0  0  0  0
    1.2437    3.4103    2.5574 H   0  0  0  0  0  0  0  0  0  0  0  0
    0.2977    3.8317    1.1158 H   0  0  0  0  0  0  0  0  0  0  0  0
  1  2  1  0  0  0  0
  2  3  1  0  0  0  0
  2  4  1  0  0  0  0
  2  5  1  0  0  0  0
  5  6  2  0  0  0  0
  5  7  1  0  0  0  0
  7  8  1  0  0  0  0
  7  9  1  0  0  0  0
  9 10  1  0  0  0  0
  9 11  1  0  0  0  0
  9 21  1  0  0  0  0
 11 12  1  0  0  0  0
 11 13  1  0  0  0  0
 11 14  1  0  0  0  0
 14 15  1  0  0  0  0
 14 16  1  0  0  0  0
 14 17  1  0  0  0  0
 17 18  2  0  0  0  0
 17 19  1  0  0  0  0
 19 20  1  0  0  0  0
 21 22  2  0  0  0  0
 21 23  1  0  0  0  0
 23 24  1  0  0  0  0
 23 25  1  0  0  0  0
 25 26  1  0  0  0  0
 25 27  1  0  0  0  0
 25 28  1  0  0  0  0
M  END
$$$$

  -OEChem-02102214123D

 28 27  0     1  0  0  0  0  0999 V2000
   -3.0989   -3.8734    1.4409 H   0  0  0  0  0  0  0  0  0  0  0  0
   -3.1446   -2.8740    0.9998 C   0  0  0  0  0  0  0  0  0  0  0  0
   -3.8232   -2.2562    1.5928 H   0  0  0  0  0  0  0  0  0  0  0  0
   -3.5340   -2.9550   -0.0180 H   0  0  0  0  0  0  0  0  0  0  0  0
   -1.7638   -2.2475    0.9765 C   0  0  0  0  0  0  0  0  0  0  0  0
   -0.8122   -2.8355    1.4672 O   0  0  0  0  0  0  0  0  0  0  0  0
   -1.5846   -1.0162    0.3858 N   0  0  0  0  0  0  0  0  0  0  0  0
   -2.4042   -0.5772   -0.0393 H   0  0  0  0  0  0  0  0  0  0  0  0
   -0.2980   -0.3161    0.2594 C   0  0  1  0  0  0  0  0  0  0  0  0
    0.4099   -0.7376    0.9806 H   0  0  0  0  0  0  0  0  0  0  0  0
    0.3142   -0.5084   -1.1533 C   0  0  0  0  0  0  0  0  0  0  0  0
    0.9590    0.3504   -1.3703 H   0  0  0  0  0  0  0  0  0  0  0  0
    0.9607   -1.3915   -1.1198 H   0  0  0  0  0  0  0  0  0  0  0  0
   -0.6598   -0.6969   -2.3439 C   0  0  0  0  0  0  0  0  0  0  0  0
   -0.1072   -0.5925   -3.2815 H   0  0  0  0  0  0  0  0  0  0  0  0
   -1.0596   -1.7150   -2.3143 H   0  0  0  0  0  0  0  0  0  0  0  0
   -1.8349    0.2767   -2.3608 C   0  0  0  0  0  0  0  0  0  0  0  0
   -2.9373   -0.1200   -2.0123 O   0  0  0  0  0  0  0  0  0  0  0  0
   -1.5808    1.5429   -2.7627 O   0  0  0  0  0  0  0  0  0  0  0  0
   -2.3860    2.0479   -2.5710 H   0  0  0  0  0  0  0  0  0  0  0  0
   -0.4314    1.1775    0.6362 C   0  0  0  0  0  0  0  0  0  0  0  0
   -1.4030    1.8321    0.2766 O   0  0  0  0  0  0  0  0  0  0  0  0
    0.5129    1.7762    1.4504 N   0  0  0  0  0  0  0  0  0  0  0  0
    1.2583    1.1900    1.8151 H   0  0  0  0  0  0  0  0  0  0  0  0
    0.4027    3.1514    1.9232 C   0  0  0  0  0  0  0  0  0  0  0  0
   -0.4798    3.2671    2.5612 H   0  0  0  0  0  0  0  0  0  0  0  0
    1.2891    3.4248    2.5036 H   0  0  0  0  0  0  0  0  0  0  0  0
    0.3191    3.8421    1.0773 H   0  0  0  0  0  0  0  0  0  0  0  0
  1  2  1  0  0  0  0
  2  3  1  0  0  0  0
  2  4  1  0  0  0  0
  2  5  1  0  0  0  0
  5  6  2  0  0  0  0
  5  7  1  0  0  0  0
  7  8  1  0  0  0  0
  7  9  1  0  0  0  0
  9 10  1  0  0  0  0
  9 11  1  0  0  0  0
  9 21  1  0  0  0  0
 11 12  1  0  0  0  0
 11 13  1  0  0  0  0
 11 14  1  0  0  0  0
 14 15  1  0  0  0  0
 14 16  1  0  0  0  0
 14 17  1  0  0  0  0
 17 18  2  0  0  0  0
 17 19  1  0  0  0  0
 19 20  1  0  0  0  0
 21 22  2  0  0  0  0
 21 23  1  0  0  0  0
 23 24  1  0  0  0  0
 23 25  1  0  0  0  0
 25 26  1  0  0  0  0
 25 27  1  0  0  0  0
 25 28  1  0  0  0  0
M  END
$$$$

  -OEChem-02102214123D

 28 27  0     1  0  0  0  0  0999 V2000
   -3.2359   -3.8047    1.1398 H   0  0  0  0  0  0  0  0  0  0  0  0
   -3.2209   -2.8015    0.7048 C   0  0  0  0  0  0  0  0  0  0  0  0
   -3.9164   -2.1663    1.2585 H   0  0  0  0  0  0  0  0  0  0  0  0
   -3.5457   -2.8638   -0.3367 H   0  0  0  0  0  0  0  0  0  0  0  0
   -1.8220   -2.2203    0.7768 C   0  0  0  0  0  0  0  0  0  0  0  0
   -0.9187   -2.8551    1.2982 O   0  0  0  0  0  0  0  0  0  0  0  0
   -1.5711   -0.9758    0.2418 N   0  0  0  0  0  0  0  0  0  0  0  0
   -2.3515   -0.4787   -0.1907 H   0  0  0  0  0  0  0  0  0  0  0  0
   -0.2683   -0.2944    0.2503 C   0  0  1  0  0  0  0  0  0  0  0  0
    0.3658   -0.7473    1.0197 H   0  0  0  0  0  0  0  0  0  0  0  0
    0.4639   -0.4611   -1.1057 C   0  0  0  0  0  0  0  0  0  0  0  0
    1.1494    0.3810   -1.2526 H   0  0  0  0  0  0  0  0  0  0  0  0
    1.0766   -1.3665   -1.0419 H   0  0  0  0  0  0  0  0  0  0  0  0
   -0.4353   -0.6024   -2.3555 C   0  0  0  0  0  0  0  0  0  0  0  0
    0.1973   -0.7232   -3.2396 H   0  0  0  0  0  0  0  0  0  0  0  0
   -1.0501   -1.5031   -2.2772 H   0  0  0  0  0  0  0  0  0  0  0  0
   -1.3410    0.6032   -2.5736 C   0  0  0  0  0  0  0  0  0  0  0  0
   -0.8609    1.5968   -3.0919 O   0  0  0  0  0  0  0  0  0  0  0  0
   -2.6294    0.5132   -2.1618 O   0  0  0  0  0  0  0  0  0  0  0  0
   -2.9887    1.4090   -2.2689 H   0  0  0  0  0  0  0  0  0  0  0  0
   -0.4157    1.1897    0.6588 C   0  0  0  0  0  0  0  0  0  0  0  0
   -1.3658    1.8555    0.2637 O   0  0  0  0  0  0  0  0  0  0  0  0
    0.4595    1.7511    1.5707 N   0  0  0  0  0  0  0  0  0  0  0  0
    1.1868    1.1550    1.9548 H   0  0  0  0  0  0  0  0  0  0  0  0
    0.3215    3.1110    2.0789 C   0  0  0  0  0  0  0  0  0  0  0  0
   -0.6171    3.2196    2.6325 H   0  0  0  0  0  0  0  0  0  0  0  0
    1.1504    3.3502    2.7521 H   0  0  0  0  0  0  0  0  0  0  0  0
    0.3295    3.8316    1.2540 H   0  0  0  0  0  0  0  0  0  0  0  0
  1  2  1  0  0  0  0
  2  3  1  0  0  0  0
  2  4  1  0  0  0  0
  2  5  1  0  0  0  0
  5  6  2  0  0  0  0
  5  7  1  0  0  0  0
  7  8  1  0  0  0  0
  7  9  1  0  0  0  0
  9 10  1  0  0  0  0
  9 11  1  0  0  0  0
  9 21  1  0  0  0  0
 11 12  1  0  0  0  0
 11 13  1  0  0  0  0
 11 14  1  0  0  0  0
 14 15  1  0  0  0  0
 14 16  1  0  0  0  0
 14 17  1  0  0  0  0
 17 18  2  0  0  0  0
 17 19  1  0  0  0  0
 19 20  1  0  0  0  0
 21 22  2  0  0  0  0
 21 23  1  0  0  0  0
 23 24  1  0  0  0  0
 23 25  1  0  0  0  0
 25 26  1  0  0  0  0
 25 27  1  0  0  0  0
 25 28  1  0  0  0  0
M  END
$$$$

  -OEChem-02102214123D

 28 27  0     1  0  0  0  0  0999 V2000
   -3.2418   -3.7908    1.2469 H   0  0  0  0  0  0  0  0  0  0  0  0
   -3.2248   -2.7975    0.7901 C   0  0  0  0  0  0  0  0  0  0  0  0
   -3.8795   -2.1351    1.3615 H   0  0  0  0  0  0  0  0  0  0  0  0
   -3.5987   -2.8737   -0.2337 H   0  0  0  0  0  0  0  0  0  0  0  0
   -1.8111   -2.2484    0.7847 C   0  0  0  0  0  0  0  0  0  0  0  0
   -0.8964   -2.9004    1.2632 O   0  0  0  0  0  0  0  0  0  0  0  0
   -1.5613   -1.0111    0.2321 N   0  0  0  0  0  0  0  0  0  0  0  0
   -2.3604   -0.4706   -0.0996 H   0  0  0  0  0  0  0  0  0  0  0  0
   -0.2571   -0.3323    0.2401 C   0  0  1  0  0  0  0  0  0  0  0  0
    0.3756   -0.7752    1.0164 H   0  0  0  0  0  0  0  0  0  0  0  0
    0.4878   -0.4770   -1.1102 C   0  0  0  0  0  0  0  0  0  0  0  0
    1.1958    0.3496   -1.2385 H   0  0  0  0  0  0  0  0  0  0  0  0
    1.0804   -1.3962   -1.0501 H   0  0  0  0  0  0  0  0  0  0  0  0
   -0.4087   -0.6022   -2.3635 C   0  0  0  0  0  0  0  0  0  0  0  0
    0.2071   -0.9368   -3.2029 H   0  0  0  0  0  0  0  0  0  0  0  0
   -1.1878   -1.3559   -2.2277 H   0  0  0  0  0  0  0  0  0  0  0  0
   -1.0337    0.7308   -2.7546 C   0  0  0  0  0  0  0  0  0  0  0  0
   -0.3021    1.6329   -3.1281 O   0  0  0  0  0  0  0  0  0  0  0  0
   -2.3776    0.8471   -2.6406 O   0  0  0  0  0  0  0  0  0  0  0  0
   -2.5705    1.7818   -2.8126 H   0  0  0  0  0  0  0  0  0  0  0  0
   -0.4286    1.1531    0.6289 C   0  0  0  0  0  0  0  0  0  0  0  0
   -1.3851    1.7950    0.2096 O   0  0  0  0  0  0  0  0  0  0  0  0
    0.4263    1.7419    1.5425 N   0  0  0  0  0  0  0  0  0  0  0  0
    1.1693    1.1689    1.9319 H   0  0  0  0  0  0  0  0  0  0  0  0
    0.2697    3.1125    2.0151 C   0  0  0  0  0  0  0  0  0  0  0  0
   -0.6824    3.2291    2.5433 H   0  0  0  0  0  0  0  0  0  0  0  0
    1.0808    3.3715    2.7025 H   0  0  0  0  0  0  0  0  0  0  0  0
    0.2939    3.8135    1.1739 H   0  0  0  0  0  0  0  0  0  0  0  0
  1  2  1  0  0  0  0
  2  3  1  0  0  0  0
  2  4  1  0  0  0  0
  2  5  1  0  0  0  0
  5  6  2  0  0  0  0
  5  7  1  0  0  0  0
  7  8  1  0  0  0  0
  7  9  1  0  0  0  0
  9 10  1  0  0  0  0
  9 11  1  0  0  0  0
  9 21  1  0  0  0  0
 11 12  1  0  0  0  0
 11 13  1  0  0  0  0
 11 14  1  0  0  0  0
 14 15  1  0  0  0  0
 14 16  1  0  0  0  0
 14 17  1  0  0  0  0
 17 18  2  0  0  0  0
 17 19  1  0  0  0  0
 19 20  1  0  0  0  0
 21 22  2  0  0  0  0
 21 23  1  0  0  0  0
 23 24  1  0  0  0  0
 23 25  1  0  0  0  0
 25 26  1  0  0  0  0
 25 27  1  0  0  0  0
 25 28  1  0  0  0  0
M  END
$$$$

  -OEChem-02102214123D

 28 27  0     1  0  0  0  0  0999 V2000
   -3.2352   -3.7973    1.3439 H   0  0  0  0  0  0  0  0  0  0  0  0
   -3.2216   -2.8094    0.8750 C   0  0  0  0  0  0  0  0  0  0  0  0
   -3.8548   -2.1345    1.4559 H   0  0  0  0  0  0  0  0  0  0  0  0
   -3.6241   -2.8944   -0.1374 H   0  0  0  0  0  0  0  0  0  0  0  0
   -1.8033   -2.2740    0.8251 C   0  0  0  0  0  0  0  0  0  0  0  0
   -0.8836   -2.9271    1.2922 O   0  0  0  0  0  0  0  0  0  0  0  0
   -1.5561   -1.0452    0.2521 N   0  0  0  0  0  0  0  0  0  0  0  0
   -2.3599   -0.4929   -0.0459 H   0  0  0  0  0  0  0  0  0  0  0  0
   -0.2499   -0.3701    0.2454 C   0  0  1  0  0  0  0  0  0  0  0  0
    0.3929   -0.8048    1.0181 H   0  0  0  0  0  0  0  0  0  0  0  0
    0.4864   -0.4877   -1.1111 C   0  0  0  0  0  0  0  0  0  0  0  0
    1.2160    0.3229   -1.2183 H   0  0  0  0  0  0  0  0  0  0  0  0
    1.0623   -1.4180   -1.0654 H   0  0  0  0  0  0  0  0  0  0  0  0
   -0.4090   -0.5891   -2.3715 C   0  0  0  0  0  0  0  0  0  0  0  0
    0.1407   -1.1384   -3.1408 H   0  0  0  0  0  0  0  0  0  0  0  0
   -1.3269   -1.1508   -2.1892 H   0  0  0  0  0  0  0  0  0  0  0  0
   -0.7427    0.7792   -2.9580 C   0  0  0  0  0  0  0  0  0  0  0  0
    0.1690    1.5359   -3.2510 O   0  0  0  0  0  0  0  0  0  0  0  0
   -2.0512    1.0824   -3.1208 O   0  0  0  0  0  0  0  0  0  0  0  0
   -2.0709    2.0046   -3.4179 H   0  0  0  0  0  0  0  0  0  0  0  0
   -0.4360    1.1172    0.6144 C   0  0  0  0  0  0  0  0  0  0  0  0
   -1.3862    1.7461    0.1620 O   0  0  0  0  0  0  0  0  0  0  0  0
    0.4104    1.7307    1.5195 N   0  0  0  0  0  0  0  0  0  0  0  0
    1.1607    1.1739    1.9183 H   0  0  0  0  0  0  0  0  0  0  0  0
    0.2478    3.1128    1.9548 C   0  0  0  0  0  0  0  0  0  0  0  0
   -0.7106    3.2420    2.4685 H   0  0  0  0  0  0  0  0  0  0  0  0
    1.0505    3.3897    2.6450 H   0  0  0  0  0  0  0  0  0  0  0  0
    0.2819    3.7921    1.0963 H   0  0  0  0  0  0  0  0  0  0  0  0
  1  2  1  0  0  0  0
  2  3  1  0  0  0  0
  2  4  1  0  0  0  0
  2  5  1  0  0  0  0
  5  6  2  0  0  0  0
  5  7  1  0  0  0  0
  7  8  1  0  0  0  0
  7  9  1  0  0  0  0
  9 10  1  0  0  0  0
  9 11  1  0  0  0  0
  9 21  1  0  0  0  0
 11 12  1  0  0  0  0
 11 13  1  0  0  0  0
 11 14  1  0  0  0  0
 14 15  1  0  0  0  0
 14 16  1  0  0  0  0
 14 17  1  0  0  0  0
 17 18  2  0  0  0  0
 17 19  1  0  0  0  0
 19 20  1  0  0  0  0
 21 22  2  0  0  0  0
 21 23  1  0  0  0  0
 23 24  1  0  0  0  0
 23 25  1  0  0  0  0
 25 26  1  0  0  0  0
 25 27  1  0  0  0  0
 25 28  1  0  0  0  0
M  END
$$$$

  -OEChem-02102214123D

 28 27  0     1  0  0  0  0  0999 V2000
   -3.2176   -3.8204    1.3832 H   0  0  0  0  0  0  0  0  0  0  0  0
   -3.2142   -2.8286    0.9223 C   0  0  0  0  0  0  0  0  0  0  0  0
   -3.8427   -2.1613    1.5170 H   0  0  0  0  0  0  0  0  0  0  0  0
   -3.6296   -2.9074   -0.0853 H   0  0  0  0  0  0  0  0  0  0  0  0
   -1.7988   -2.2867    0.8578 C   0  0  0  0  0  0  0  0  0  0  0  0
   -0.8726   -2.9342    1.3196 O   0  0  0  0  0  0  0  0  0  0  0  0
   -1.5610   -1.0600    0.2760 N   0  0  0  0  0  0  0  0  0  0  0  0
   -2.3701   -0.5081   -0.0073 H   0  0  0  0  0  0  0  0  0  0  0  0
   -0.2557   -0.3824    0.2543 C   0  0  1  0  0  0  0  0  0  0  0  0
    0.3966   -0.8128    1.0214 H   0  0  0  0  0  0  0  0  0  0  0  0
    0.4705   -0.4908   -1.1084 C   0  0  0  0  0  0  0  0  0  0  0  0
    1.2025    0.3187   -1.2052 H   0  0  0  0  0  0  0  0  0  0  0  0
    1.0485   -1.4201   -1.0690 H   0  0  0  0  0  0  0  0  0  0  0  0
   -0.4242   -0.5889   -2.3748 C   0  0  0  0  0  0  0  0  0  0  0  0
   -0.0078   -1.3548   -3.0346 H   0  0  0  0  0  0  0  0  0  0  0  0
   -1.4442   -0.8994   -2.1457 H   0  0  0  0  0  0  0  0  0  0  0  0
   -0.4726    0.7112   -3.1751 C   0  0  0  0  0  0  0  0  0  0  0  0
    0.5710    1.2800   -3.4527 O   0  0  0  0  0  0  0  0  0  0  0  0
   -1.6912    1.1594   -3.5552 O   0  0  0  0  0  0  0  0  0  0  0  0
   -1.5330    2.0021   -4.0062 H   0  0  0  0  0  0  0  0  0  0  0  0
   -0.4430    1.1055    0.6175 C   0  0  0  0  0  0  0  0  0  0  0  0
   -1.3891    1.7324    0.1543 O   0  0  0  0  0  0  0  0  0  0  0  0
    0.4087    1.7266    1.5122 N   0  0  0  0  0  0  0  0  0  0  0  0
    1.1581    1.1714    1.9151 H   0  0  0  0  0  0  0  0  0  0  0  0
    0.2583    3.1171    1.9244 C   0  0  0  0  0  0  0  0  0  0  0  0
   -0.6936    3.2608    2.4463 H   0  0  0  0  0  0  0  0  0  0  0  0
    1.0704    3.4018    2.6003 H   0  0  0  0  0  0  0  0  0  0  0  0
    0.2863    3.7807    1.0535 H   0  0  0  0  0  0  0  0  0  0  0  0
  1  2  1  0  0  0  0
  2  3  1  0  0  0  0
  2  4  1  0  0  0  0
  2  5  1  0  0  0  0
  5  6  2  0  0  0  0
  5  7  1  0  0  0  0
  7  8  1  0  0  0  0
  7  9  1  0  0  0  0
  9 10  1  0  0  0  0
  9 11  1  0  0  0  0
  9 21  1  0  0  0  0
 11 12  1  0  0  0  0
 11 13  1  0  0  0  0
 11 14  1  0  0  0  0
 14 15  1  0  0  0  0
 14 16  1  0  0  0  0
 14 17  1  0  0  0  0
 17 18  2  0  0  0  0
 17 19  1  0  0  0  0
 19 20  1  0  0  0  0
 21 22  2  0  0  0  0
 21 23  1  0  0  0  0
 23 24  1  0  0  0  0
 23 25  1  0  0  0  0
 25 26  1  0  0  0  0
 25 27  1  0  0  0  0
 25 28  1  0  0  0  0
M  END
$$$$

  -OEChem-02102214123D

 28 27  0     1  0  0  0  0  0999 V2000
   -3.2098   -3.8148    1.4134 H   0  0  0  0  0  0  0  0  0  0  0  0
   -3.2071   -2.8231    0.9522 C   0  0  0  0  0  0  0  0  0  0  0  0
   -3.8251   -2.1523    1.5539 H   0  0  0  0  0  0  0  0  0  0  0  0
   -3.6345   -2.9001   -0.0506 H   0  0  0  0  0  0  0  0  0  0  0  0
   -1.7901   -2.2880    0.8711 C   0  0  0  0  0  0  0  0  0  0  0  0
   -0.8620   -2.9374    1.3264 O   0  0  0  0  0  0  0  0  0  0  0  0
   -1.5546   -1.0633    0.2847 N   0  0  0  0  0  0  0  0  0  0  0  0
   -2.3653   -0.5075    0.0146 H   0  0  0  0  0  0  0  0  0  0  0  0
   -0.2480   -0.3880    0.2531 C   0  0  1  0  0  0  0  0  0  0  0  0
    0.4103   -0.8168    1.0163 H   0  0  0  0  0  0  0  0  0  0  0  0
    0.4642   -0.5032   -1.1165 C   0  0  0  0  0  0  0  0  0  0  0  0
    1.1769    0.3228   -1.2150 H   0  0  0  0  0  0  0  0  0  0  0  0
    1.0619   -1.4206   -1.0883 H   0  0  0  0  0  0  0  0  0  0  0  0
   -0.4473   -0.6017   -2.3729 C   0  0  0  0  0  0  0  0  0  0  0  0
   -0.2549   -1.5491   -2.8833 H   0  0  0  0  0  0  0  0  0  0  0  0
   -1.5047   -0.5923   -2.1049 H   0  0  0  0  0  0  0  0  0  0  0  0
   -0.2312    0.5331   -3.3743 C   0  0  0  0  0  0  0  0  0  0  0  0
    0.9060    0.8882   -3.6395 O   0  0  0  0  0  0  0  0  0  0  0  0
   -1.3323    1.0764   -3.9429 O   0  0  0  0  0  0  0  0  0  0  0  0
   -1.0095    1.7821   -4.5230 H   0  0  0  0  0  0  0  0  0  0  0  0
   -0.4358    1.1002    0.6147 C   0  0  0  0  0  0  0  0  0  0  0  0
   -1.3889    1.7223    0.1592 O   0  0  0  0  0  0  0  0  0  0  0  0
    0.4194    1.7248    1.5033 N   0  0  0  0  0  0  0  0  0  0  0  0
    1.1722    1.1721    1.9033 H   0  0  0  0  0  0  0  0  0  0  0  0
    0.2597    3.1115    1.9241 C   0  0  0  0  0  0  0  0  0  0  0  0
   -0.6900    3.2439    2.4531 H   0  0  0  0  0  0  0  0  0  0  0  0
    1.0736    3.3997    2.5962 H   0  0  0  0  0  0  0  0  0  0  0  0
    0.2757    3.7798    1.0564 H   0  0  0  0  0  0  0  0  0  0  0  0
  1  2  1  0  0  0  0
  2  3  1  0  0  0  0
  2  4  1  0  0  0  0
  2  5  1  0  0  0  0
  5  6  2  0  0  0  0
  5  7  1  0  0  0  0
  7  8  1  0  0  0  0
  7  9  1  0  0  0  0
  9 10  1  0  0  0  0
  9 11  1  0  0  0  0
  9 21  1  0  0  0  0
 11 12  1  0  0  0  0
 11 13  1  0  0  0  0
 11 14  1  0  0  0  0
 14 15  1  0  0  0  0
 14 16  1  0  0  0  0
 14 17  1  0  0  0  0
 17 18  2  0  0  0  0
 17 19  1  0  0  0  0
 19 20  1  0  0  0  0
 21 22  2  0  0  0  0
 21 23  1  0  0  0  0
 23 24  1  0  0  0  0
 23 25  1  0  0  0  0
 25 26  1  0  0  0  0
 25 27  1  0  0  0  0
 25 28  1  0  0  0  0
M  END
$$$$

  -OEChem-02102214123D

 28 27  0     1  0  0  0  0  0999 V2000
   -3.2059   -3.7935    1.4311 H   0  0  0  0  0  0  0  0  0  0  0  0
   -3.2010   -2.8100    0.9531 C   0  0  0  0  0  0  0  0  0  0  0  0
   -3.8155   -2.1273    1.5449 H   0  0  0  0  0  0  0  0  0  0  0  0
   -3.6308   -2.9023   -0.0472 H   0  0  0  0  0  0  0  0  0  0  0  0
   -1.7823   -2.2817    0.8597 C   0  0  0  0  0  0  0  0  0  0  0  0
   -0.8535   -2.9374    1.3043 O   0  0  0  0  0  0  0  0  0  0  0  0
   -1.5462   -1.0550    0.2773 N   0  0  0  0  0  0  0  0  0  0  0  0
   -2.3570   -0.4938    0.0197 H   0  0  0  0  0  0  0  0  0  0  0  0
   -0.2379   -0.3817    0.2515 C   0  0  1  0  0  0  0  0  0  0  0  0
    0.4189   -0.8150    1.0130 H   0  0  0  0  0  0  0  0  0  0  0  0
    0.4661   -0.5105   -1.1204 C   0  0  0  0  0  0  0  0  0  0  0  0
    1.1513    0.3373   -1.2304 H   0  0  0  0  0  0  0  0  0  0  0  0
    1.0865   -1.4129   -1.1045 H   0  0  0  0  0  0  0  0  0  0  0  0
   -0.4724   -0.6113   -2.3538 C   0  0  0  0  0  0  0  0  0  0  0  0
   -0.5395   -1.6509   -2.6851 H   0  0  0  0  0  0  0  0  0  0  0  0
   -1.4802   -0.2835   -2.0878 H   0  0  0  0  0  0  0  0  0  0  0  0
   -0.0481    0.2684   -3.5302 C   0  0  0  0  0  0  0  0  0  0  0  0
    1.1391    0.4534   -3.7459 O   0  0  0  0  0  0  0  0  0  0  0  0
   -1.0329    0.7825   -4.3026 O   0  0  0  0  0  0  0  0  0  0  0  0
   -0.5869    1.3070   -4.9845 H   0  0  0  0  0  0  0  0  0  0  0  0
   -0.4205    1.1062    0.6176 C   0  0  0  0  0  0  0  0  0  0  0  0
   -1.3727    1.7324    0.1659 O   0  0  0  0  0  0  0  0  0  0  0  0
    0.4358    1.7238    1.5102 N   0  0  0  0  0  0  0  0  0  0  0  0
    1.1846    1.1651    1.9096 H   0  0  0  0  0  0  0  0  0  0  0  0
    0.2733    3.1046    1.9495 C   0  0  0  0  0  0  0  0  0  0  0  0
   -0.6843    3.2325    2.4652 H   0  0  0  0  0  0  0  0  0  0  0  0
    1.0770    3.3797    2.6393 H   0  0  0  0  0  0  0  0  0  0  0  0
    0.3056    3.7862    1.0927 H   0  0  0  0  0  0  0  0  0  0  0  0
  1  2  1  0  0  0  0
  2  3  1  0  0  0  0
  2  4  1  0  0  0  0
  2  5  1  0  0  0  0
  5  6  2  0  0  0  0
  5  7  1  0  0  0  0
  7  8  1  0  0  0  0
  7  9  1  0  0  0  0
  9 10  1  0  0  0  0
  9 11  1  0  0  0  0
  9 21  1  0  0  0  0
 11 12  1  0  0  0  0
 11 13  1  0  0  0  0
 11 14  1  0  0  0  0
 14 15  1  0  0  0  0
 14 16  1  0  0  0  0
 14 17  1  0  0  0  0
 17 18  2  0  0  0  0
 17 19  1  0  0  0  0
 19 20  1  0  0  0  0
 21 22  2  0  0  0  0
 21 23  1  0  0  0  0
 23 24  1  0  0  0  0
 23 25  1  0  0  0  0
 25 26  1  0  0  0  0
 25 27  1  0  0  0  0
 25 28  1  0  0  0  0
M  END
$$$$

  -OEChem-02102214123D

 28 27  0     1  0  0  0  0  0999 V2000
   -3.2168   -3.7766    1.4174 H   0  0  0  0  0  0  0  0  0  0  0  0
   -3.2020   -2.7976    0.9301 C   0  0  0  0  0  0  0  0  0  0  0  0
   -3.8224   -2.1075    1.5070 H   0  0  0  0  0  0  0  0  0  0  0  0
   -3.6185   -2.8980   -0.0750 H   0  0  0  0  0  0  0  0  0  0  0  0
   -1.7807   -2.2735    0.8515 C   0  0  0  0  0  0  0  0  0  0  0  0
   -0.8582   -2.9321    1.3046 O   0  0  0  0  0  0  0  0  0  0  0  0
   -1.5355   -1.0461    0.2744 N   0  0  0  0  0  0  0  0  0  0  0  0
   -2.3420   -0.4835    0.0072 H   0  0  0  0  0  0  0  0  0  0  0  0
   -0.2243   -0.3773    0.2569 C   0  0  1  0  0  0  0  0  0  0  0  0
    0.4302   -0.8161    1.0174 H   0  0  0  0  0  0  0  0  0  0  0  0
    0.4724   -0.5122   -1.1168 C   0  0  0  0  0  0  0  0  0  0  0  0
    1.1484    0.3415   -1.2416 H   0  0  0  0  0  0  0  0  0  0  0  0
    1.0944   -1.4136   -1.1108 H   0  0  0  0  0  0  0  0  0  0  0  0
   -0.4928   -0.6066   -2.3250 C   0  0  0  0  0  0  0  0  0  0  0  0
   -0.7916   -1.6463   -2.4824 H   0  0  0  0  0  0  0  0  0  0  0  0
   -1.3957   -0.0278   -2.1105 H   0  0  0  0  0  0  0  0  0  0  0  0
    0.0736   -0.0373   -3.6263 C   0  0  0  0  0  0  0  0  0  0  0  0
    1.2818    0.0581   -3.7725 O   0  0  0  0  0  0  0  0  0  0  0  0
   -0.8203    0.3174   -4.5780 O   0  0  0  0  0  0  0  0  0  0  0  0
   -0.2962    0.6518   -5.3213 H   0  0  0  0  0  0  0  0  0  0  0  0
   -0.3999    1.1107    0.6263 C   0  0  0  0  0  0  0  0  0  0  0  0
   -1.3476    1.7431    0.1737 O   0  0  0  0  0  0  0  0  0  0  0  0
    0.4558    1.7215    1.5243 N   0  0  0  0  0  0  0  0  0  0  0  0
    1.1991    1.1577    1.9270 H   0  0  0  0  0  0  0  0  0  0  0  0
    0.2937    3.1002    1.9700 C   0  0  0  0  0  0  0  0  0  0  0  0
   -0.6725    3.2300    2.4690 H   0  0  0  0  0  0  0  0  0  0  0  0
    1.0859    3.3661    2.6765 H   0  0  0  0  0  0  0  0  0  0  0  0
    0.3456    3.7869    1.1185 H   0  0  0  0  0  0  0  0  0  0  0  0
  1  2  1  0  0  0  0
  2  3  1  0  0  0  0
  2  4  1  0  0  0  0
  2  5  1  0  0  0  0
  5  6  2  0  0  0  0
  5  7  1  0  0  0  0
  7  8  1  0  0  0  0
  7  9  1  0  0  0  0
  9 10  1  0  0  0  0
  9 11  1  0  0  0  0
  9 21  1  0  0  0  0
 11 12  1  0  0  0  0
 11 13  1  0  0  0  0
 11 14  1  0  0  0  0
 14 15  1  0  0  0  0
 14 16  1  0  0  0  0
 14 17  1  0  0  0  0
 17 18  2  0  0  0  0
 17 19  1  0  0  0  0
 19 20  1  0  0  0  0
 21 22  2  0  0  0  0
 21 23  1  0  0  0  0
 23 24  1  0  0  0  0
 23 25  1  0  0  0  0
 25 26  1  0  0  0  0
 25 27  1  0  0  0  0
 25 28  1  0  0  0  0
M  END
$$$$

  -OEChem-02102214123D

 28 27  0     1  0  0  0  0  0999 V2000
   -3.2241   -3.7695    1.4102 H   0  0  0  0  0  0  0  0  0  0  0  0
   -3.2075   -2.7916    0.9209 C   0  0  0  0  0  0  0  0  0  0  0  0
   -3.8296   -2.1002    1.4945 H   0  0  0  0  0  0  0  0  0  0  0  0
   -3.6202   -2.8943   -0.0856 H   0  0  0  0  0  0  0  0  0  0  0  0
   -1.7861   -2.2681    0.8464 C   0  0  0  0  0  0  0  0  0  0  0  0
   -0.8646   -2.9300    1.2965 O   0  0  0  0  0  0  0  0  0  0  0  0
   -1.5395   -1.0379    0.2760 N   0  0  0  0  0  0  0  0  0  0  0  0
   -2.3449   -0.4749    0.0065 H   0  0  0  0  0  0  0  0  0  0  0  0
   -0.2274   -0.3716    0.2599 C   0  0  1  0  0  0  0  0  0  0  0  0
    0.4270   -0.8163    1.0169 H   0  0  0  0  0  0  0  0  0  0  0  0
    0.4667   -0.5031   -1.1148 C   0  0  0  0  0  0  0  0  0  0  0  0
    1.1448    0.3476   -1.2492 H   0  0  0  0  0  0  0  0  0  0  0  0
    1.0824   -1.4090   -1.1103 H   0  0  0  0  0  0  0  0  0  0  0  0
   -0.5064   -0.5917   -2.3137 C   0  0  0  0  0  0  0  0  0  0  0  0
   -0.9914   -1.5714   -2.3249 H   0  0  0  0  0  0  0  0  0  0  0  0
   -1.2845    0.1688   -2.2003 H   0  0  0  0  0  0  0  0  0  0  0  0
    0.1542   -0.3614   -3.6731 C   0  0  0  0  0  0  0  0  0  0  0  0
    1.3705   -0.3062   -3.7605 O   0  0  0  0  0  0  0  0  0  0  0  0
   -0.6731   -0.2424   -4.7370 O   0  0  0  0  0  0  0  0  0  0  0  0
   -0.0980   -0.1039   -5.5046 H   0  0  0  0  0  0  0  0  0  0  0  0
   -0.3950    1.1150    0.6377 C   0  0  0  0  0  0  0  0  0  0  0  0
   -1.3380    1.7565    0.1881 O   0  0  0  0  0  0  0  0  0  0  0  0
    0.4669    1.7150    1.5369 N   0  0  0  0  0  0  0  0  0  0  0  0
    1.2055    1.1429    1.9368 H   0  0  0  0  0  0  0  0  0  0  0  0
    0.3194    3.0940    1.9867 C   0  0  0  0  0  0  0  0  0  0  0  0
   -0.6445    3.2328    2.4877 H   0  0  0  0  0  0  0  0  0  0  0  0
    1.1155    3.3496    2.6927 H   0  0  0  0  0  0  0  0  0  0  0  0
    0.3770    3.7825    1.1371 H   0  0  0  0  0  0  0  0  0  0  0  0
  1  2  1  0  0  0  0
  2  3  1  0  0  0  0
  2  4  1  0  0  0  0
  2  5  1  0  0  0  0
  5  6  2  0  0  0  0
  5  7  1  0  0  0  0
  7  8  1  0  0  0  0
  7  9  1  0  0  0  0
  9 10  1  0  0  0  0
  9 11  1  0  0  0  0
  9 21  1  0  0  0  0
 11 12  1  0  0  0  0
 11 13  1  0  0  0  0
 11 14  1  0  0  0  0
 14 15  1  0  0  0  0
 14 16  1  0  0  0  0
 14 17  1  0  0  0  0
 17 18  2  0  0  0  0
 17 19  1  0  0  0  0
 19 20  1  0  0  0  0
 21 22  2  0  0  0  0
 21 23  1  0  0  0  0
 23 24  1  0  0  0  0
 23 25  1  0  0  0  0
 25 26  1  0  0  0  0
 25 27  1  0  0  0  0
 25 28  1  0  0  0  0
M  END
$$$$

  -OEChem-02102214123D

 28 27  0     1  0  0  0  0  0999 V2000
   -3.2235   -3.7668    1.3619 H   0  0  0  0  0  0  0  0  0  0  0  0
   -3.2085   -2.7866    0.8772 C   0  0  0  0  0  0  0  0  0  0  0  0
   -3.8375   -2.1011    1.4503 H   0  0  0  0  0  0  0  0  0  0  0  0
   -3.6150   -2.8867   -0.1322 H   0  0  0  0  0  0  0  0  0  0  0  0
   -1.7884   -2.2566    0.8130 C   0  0  0  0  0  0  0  0  0  0  0  0
   -0.8647   -2.9248    1.2493 O   0  0  0  0  0  0  0  0  0  0  0  0
   -1.5451   -1.0157    0.2638 N   0  0  0  0  0  0  0  0  0  0  0  0
   -2.3526   -0.4490    0.0085 H   0  0  0  0  0  0  0  0  0  0  0  0
   -0.2357   -0.3455    0.2538 C   0  0  1  0  0  0  0  0  0  0  0  0
    0.4185   -0.8062    1.0015 H   0  0  0  0  0  0  0  0  0  0  0  0
    0.4501   -0.4779   -1.1212 C   0  0  0  0  0  0  0  0  0  0  0  0
    1.3090    0.2014   -1.1594 H   0  0  0  0  0  0  0  0  0  0  0  0
    0.8375   -1.4990   -1.2104 H   0  0  0  0  0  0  0  0  0  0  0  0
   -0.4817   -0.2048   -2.3253 C   0  0  0  0  0  0  0  0  0  0  0  0
   -1.3182   -0.9079   -2.3133 H   0  0  0  0  0  0  0  0  0  0  0  0
   -0.8928    0.8057   -2.2519 H   0  0  0  0  0  0  0  0  0  0  0  0
    0.2109   -0.3389   -3.6816 C   0  0  0  0  0  0  0  0  0  0  0  0
    1.4266   -0.4318   -3.7401 O   0  0  0  0  0  0  0  0  0  0  0  0
   -0.5877   -0.3456   -4.7735 O   0  0  0  0  0  0  0  0  0  0  0  0
    0.0065   -0.4315   -5.5343 H   0  0  0  0  0  0  0  0  0  0  0  0
   -0.3861    1.1367    0.6562 C   0  0  0  0  0  0  0  0  0  0  0  0
   -1.3389    1.7891    0.2441 O   0  0  0  0  0  0  0  0  0  0  0  0
    0.4882    1.7146    1.5580 N   0  0  0  0  0  0  0  0  0  0  0  0
    1.2352    1.1346    1.9299 H   0  0  0  0  0  0  0  0  0  0  0  0
    0.3529    3.0854    2.0363 C   0  0  0  0  0  0  0  0  0  0  0  0
   -0.6066    3.2205    2.5468 H   0  0  0  0  0  0  0  0  0  0  0  0
    1.1556    3.3216    2.7416 H   0  0  0  0  0  0  0  0  0  0  0  0
    0.4093    3.7904    1.2001 H   0  0  0  0  0  0  0  0  0  0  0  0
  1  2  1  0  0  0  0
  2  3  1  0  0  0  0
  2  4  1  0  0  0  0
  2  5  1  0  0  0  0
  5  6  2  0  0  0  0
  5  7  1  0  0  0  0
  7  8  1  0  0  0  0
  7  9  1  0  0  0  0
  9 10  1  0  0  0  0
  9 11  1  0  0  0  0
  9 21  1  0  0  0  0
 11 12  1  0  0  0  0
 11 13  1  0  0  0  0
 11 14  1  0  0  0  0
 14 15  1  0  0  0  0
 14 16  1  0  0  0  0
 14 17  1  0  0  0  0
 17 18  2  0  0  0  0
 17 19  1  0  0  0  0
 19 20  1  0  0  0  0
 21 22  2  0  0  0  0
 21 23  1  0  0  0  0
 23 24  1  0  0  0  0
 23 25  1  0  0  0  0
 25 26  1  0  0  0  0
 25 27  1  0  0  0  0
 25 28  1  0  0  0  0
M  END
$$$$

  -OEChem-02102214123D

 28 27  0     1  0  0  0  0  0999 V2000
   -3.2379   -3.7570    1.3732 H   0  0  0  0  0  0  0  0  0  0  0  0
   -3.2224   -2.7762    0.8898 C   0  0  0  0  0  0  0  0  0  0  0  0
   -3.8413   -2.0877    1.4703 H   0  0  0  0  0  0  0  0  0  0  0  0
   -3.6403   -2.8721   -0.1152 H   0  0  0  0  0  0  0  0  0  0  0  0
   -1.8003   -2.2545    0.8117 C   0  0  0  0  0  0  0  0  0  0  0  0
   -0.8762   -2.9284    1.2382 O   0  0  0  0  0  0  0  0  0  0  0  0
   -1.5555   -1.0129    0.2647 N   0  0  0  0  0  0  0  0  0  0  0  0
   -2.3622   -0.4405    0.0193 H   0  0  0  0  0  0  0  0  0  0  0  0
   -0.2426   -0.3504    0.2487 C   0  0  1  0  0  0  0  0  0  0  0  0
    0.4141   -0.8175    0.9902 H   0  0  0  0  0  0  0  0  0  0  0  0
    0.4405   -0.4647   -1.1303 C   0  0  0  0  0  0  0  0  0  0  0  0
    1.3142    0.1952   -1.1675 H   0  0  0  0  0  0  0  0  0  0  0  0
    0.8074   -1.4933   -1.2210 H   0  0  0  0  0  0  0  0  0  0  0  0
   -0.4785   -0.1732   -2.3413 C   0  0  0  0  0  0  0  0  0  0  0  0
   -1.4342   -0.6886   -2.2249 H   0  0  0  0  0  0  0  0  0  0  0  0
   -0.6863    0.8989   -2.3986 H   0  0  0  0  0  0  0  0  0  0  0  0
    0.1136   -0.6386   -3.6712 C   0  0  0  0  0  0  0  0  0  0  0  0
    1.3243   -0.7383   -3.7900 O   0  0  0  0  0  0  0  0  0  0  0  0
   -0.7567   -0.9147   -4.6697 O   0  0  0  0  0  0  0  0  0  0  0  0
   -0.2135   -1.1863   -5.4250 H   0  0  0  0  0  0  0  0  0  0  0  0
   -0.3875    1.1299    0.6578 C   0  0  0  0  0  0  0  0  0  0  0  0
   -1.3345    1.7894    0.2438 O   0  0  0  0  0  0  0  0  0  0  0  0
    0.4934    1.7009    1.5575 N   0  0  0  0  0  0  0  0  0  0  0  0
    1.2306    1.1118    1.9345 H   0  0  0  0  0  0  0  0  0  0  0  0
    0.3627    3.0684    2.0463 C   0  0  0  0  0  0  0  0  0  0  0  0
   -0.5944    3.2016    2.5618 H   0  0  0  0  0  0  0  0  0  0  0  0
    1.1687    3.2978    2.7500 H   0  0  0  0  0  0  0  0  0  0  0  0
    0.4169    3.7795    1.2151 H   0  0  0  0  0  0  0  0  0  0  0  0
  1  2  1  0  0  0  0
  2  3  1  0  0  0  0
  2  4  1  0  0  0  0
  2  5  1  0  0  0  0
  5  6  2  0  0  0  0
  5  7  1  0  0  0  0
  7  8  1  0  0  0  0
  7  9  1  0  0  0  0
  9 10  1  0  0  0  0
  9 11  1  0  0  0  0
  9 21  1  0  0  0  0
 11 12  1  0  0  0  0
 11 13  1  0  0  0  0
 11 14  1  0  0  0  0
 14 15  1  0  0  0  0
 14 16  1  0  0  0  0
 14 17  1  0  0  0  0
 17 18  2  0  0  0  0
 17 19  1  0  0  0  0
 19 20  1  0  0  0  0
 21 22  2  0  0  0  0
 21 23  1  0  0  0  0
 23 24  1  0  0  0  0
 23 25  1  0  0  0  0
 25 26  1  0  0  0  0
 25 27  1  0  0  0  0
 25 28  1  0  0  0  0
M  END
$$$$

  -OEChem-02102214123D

 28 27  0     1  0  0  0  0  0999 V2000
   -3.2594   -3.7527    1.3321 H   0  0  0  0  0  0  0  0  0  0  0  0
   -3.2357   -2.7655    0.8623 C   0  0  0  0  0  0  0  0  0  0  0  0
   -3.8588   -2.0828    1.4452 H   0  0  0  0  0  0  0  0  0  0  0  0
   -3.6425   -2.8463   -0.1486 H   0  0  0  0  0  0  0  0  0  0  0  0
   -1.8115   -2.2472    0.8058 C   0  0  0  0  0  0  0  0  0  0  0  0
   -0.8938   -2.9252    1.2398 O   0  0  0  0  0  0  0  0  0  0  0  0
   -1.5576   -1.0058    0.2637 N   0  0  0  0  0  0  0  0  0  0  0  0
   -2.3601   -0.4308    0.0116 H   0  0  0  0  0  0  0  0  0  0  0  0
   -0.2408   -0.3509    0.2499 C   0  0  1  0  0  0  0  0  0  0  0  0
    0.4147   -0.8244    0.9885 H   0  0  0  0  0  0  0  0  0  0  0  0
    0.4402   -0.4579   -1.1316 C   0  0  0  0  0  0  0  0  0  0  0  0
    1.3259    0.1858   -1.1684 H   0  0  0  0  0  0  0  0  0  0  0  0
    0.7923   -1.4922   -1.2196 H   0  0  0  0  0  0  0  0  0  0  0  0
   -0.4697   -0.1522   -2.3484 C   0  0  0  0  0  0  0  0  0  0  0  0
   -1.5065   -0.4216   -2.1397 H   0  0  0  0  0  0  0  0  0  0  0  0
   -0.4536    0.9206   -2.5589 H   0  0  0  0  0  0  0  0  0  0  0  0
   -0.0574   -0.9203   -3.6020 C   0  0  0  0  0  0  0  0  0  0  0  0
    1.1296   -1.0438   -3.8568 O   0  0  0  0  0  0  0  0  0  0  0  0
   -1.0436   -1.4267   -4.3785 O   0  0  0  0  0  0  0  0  0  0  0  0
   -0.5970   -1.8683   -5.1167 H   0  0  0  0  0  0  0  0  0  0  0  0
   -0.3816    1.1283    0.6643 C   0  0  0  0  0  0  0  0  0  0  0  0
   -1.3231    1.7930    0.2457 O   0  0  0  0  0  0  0  0  0  0  0  0
    0.4993    1.6953    1.5667 N   0  0  0  0  0  0  0  0  0  0  0  0
    1.2333    1.1036    1.9456 H   0  0  0  0  0  0  0  0  0  0  0  0
    0.3703    3.0623    2.0576 C   0  0  0  0  0  0  0  0  0  0  0  0
   -0.5856    3.1951    2.5754 H   0  0  0  0  0  0  0  0  0  0  0  0
    1.1781    3.2911    2.7596 H   0  0  0  0  0  0  0  0  0  0  0  0
    0.4227    3.7743    1.2272 H   0  0  0  0  0  0  0  0  0  0  0  0
  1  2  1  0  0  0  0
  2  3  1  0  0  0  0
  2  4  1  0  0  0  0
  2  5  1  0  0  0  0
  5  6  2  0  0  0  0
  5  7  1  0  0  0  0
  7  8  1  0  0  0  0
  7  9  1  0  0  0  0
  9 10  1  0  0  0  0
  9 11  1  0  0  0  0
  9 21  1  0  0  0  0
 11 12  1  0  0  0  0
 11 13  1  0  0  0  0
 11 14  1  0  0  0  0
 14 15  1  0  0  0  0
 14 16  1  0  0  0  0
 14 17  1  0  0  0  0
 17 18  2  0  0  0  0
 17 19  1  0  0  0  0
 19 20  1  0  0  0  0
 21 22  2  0  0  0  0
 21 23  1  0  0  0  0
 23 24  1  0  0  0  0
 23 25  1  0  0  0  0
 25 26  1  0  0  0  0
 25 27  1  0  0  0  0
 25 28  1  0  0  0  0
M  END
$$$$

  -OEChem-02102214123D

 28 27  0     1  0  0  0  0  0999 V2000
   -3.2839   -3.7409    1.2776 H   0  0  0  0  0  0  0  0  0  0  0  0
   -3.2497   -2.7518    0.8125 C   0  0  0  0  0  0  0  0  0  0  0  0
   -3.8810   -2.0699    1.3874 H   0  0  0  0  0  0  0  0  0  0  0  0
   -3.6388   -2.8276   -0.2058 H   0  0  0  0  0  0  0  0  0  0  0  0
   -1.8235   -2.2365    0.7826 C   0  0  0  0  0  0  0  0  0  0  0  0
   -0.9157   -2.9162    1.2345 O   0  0  0  0  0  0  0  0  0  0  0  0
   -1.5562   -0.9955    0.2459 N   0  0  0  0  0  0  0  0  0  0  0  0
   -2.3519   -0.4225   -0.0311 H   0  0  0  0  0  0  0  0  0  0  0  0
   -0.2359   -0.3469    0.2480 C   0  0  1  0  0  0  0  0  0  0  0  0
    0.4119   -0.8262    0.9895 H   0  0  0  0  0  0  0  0  0  0  0  0
    0.4494   -0.4570   -1.1303 C   0  0  0  0  0  0  0  0  0  0  0  0
    1.3347    0.1871   -1.1615 H   0  0  0  0  0  0  0  0  0  0  0  0
    0.8065   -1.4897   -1.2159 H   0  0  0  0  0  0  0  0  0  0  0  0
   -0.4549   -0.1427   -2.3502 C   0  0  0  0  0  0  0  0  0  0  0  0
   -1.5108   -0.1195   -2.0740 H   0  0  0  0  0  0  0  0  0  0  0  0
   -0.2121    0.8525   -2.7330 H   0  0  0  0  0  0  0  0  0  0  0  0
   -0.2876   -1.1596   -3.4744 C   0  0  0  0  0  0  0  0  0  0  0  0
    0.8256   -1.3373   -3.9401 O   0  0  0  0  0  0  0  0  0  0  0  0
   -1.3893   -1.8243   -3.8946 O   0  0  0  0  0  0  0  0  0  0  0  0
   -1.0852   -2.4192   -4.5967 H   0  0  0  0  0  0  0  0  0  0  0  0
   -0.3719    1.1326    0.6631 C   0  0  0  0  0  0  0  0  0  0  0  0
   -1.3024    1.8047    0.2325 O   0  0  0  0  0  0  0  0  0  0  0  0
    0.5024    1.6932    1.5759 N   0  0  0  0  0  0  0  0  0  0  0  0
    1.2209    1.0931    1.9710 H   0  0  0  0  0  0  0  0  0  0  0  0
    0.3730    3.0594    2.0688 C   0  0  0  0  0  0  0  0  0  0  0  0
   -0.5849    3.1922    2.5829 H   0  0  0  0  0  0  0  0  0  0  0  0
    1.1783    3.2857    2.7742 H   0  0  0  0  0  0  0  0  0  0  0  0
    0.4297    3.7731    1.2400 H   0  0  0  0  0  0  0  0  0  0  0  0
  1  2  1  0  0  0  0
  2  3  1  0  0  0  0
  2  4  1  0  0  0  0
  2  5  1  0  0  0  0
  5  6  2  0  0  0  0
  5  7  1  0  0  0  0
  7  8  1  0  0  0  0
  7  9  1  0  0  0  0
  9 10  1  0  0  0  0
  9 11  1  0  0  0  0
  9 21  1  0  0  0  0
 11 12  1  0  0  0  0
 11 13  1  0  0  0  0
 11 14  1  0  0  0  0
 14 15  1  0  0  0  0
 14 16  1  0  0  0  0
 14 17  1  0  0  0  0
 17 18  2  0  0  0  0
 17 19  1  0  0  0  0
 19 20  1  0  0  0  0
 21 22  2  0  0  0  0
 21 23  1  0  0  0  0
 23 24  1  0  0  0  0
 23 25  1  0  0  0  0
 25 26  1  0  0  0  0
 25 27  1  0  0  0  0
 25 28  1  0  0  0  0
M  END
$$$$

  -OEChem-02102214123D

 28 27  0     1  0  0  0  0  0999 V2000
   -3.3069   -3.7398    1.1446 H   0  0  0  0  0  0  0  0  0  0  0  0
   -3.2615   -2.7425    0.6985 C   0  0  0  0  0  0  0  0  0  0  0  0
   -3.9268   -2.0770    1.2539 H   0  0  0  0  0  0  0  0  0  0  0  0
   -3.6007   -2.8045   -0.3385 H   0  0  0  0  0  0  0  0  0  0  0  0
   -1.8412   -2.2125    0.7452 C   0  0  0  0  0  0  0  0  0  0  0  0
   -0.9506   -2.8837    1.2425 O   0  0  0  0  0  0  0  0  0  0  0  0
   -1.5591   -0.9707    0.2190 N   0  0  0  0  0  0  0  0  0  0  0  0
   -2.3433   -0.4137   -0.1161 H   0  0  0  0  0  0  0  0  0  0  0  0
   -0.2377   -0.3253    0.2456 C   0  0  1  0  0  0  0  0  0  0  0  0
    0.3966   -0.8097    0.9954 H   0  0  0  0  0  0  0  0  0  0  0  0
    0.4543   -0.4585   -1.1263 C   0  0  0  0  0  0  0  0  0  0  0  0
    1.3273    0.2024   -1.1564 H   0  0  0  0  0  0  0  0  0  0  0  0
    0.8326   -1.4840   -1.2080 H   0  0  0  0  0  0  0  0  0  0  0  0
   -0.4541   -0.1510   -2.3426 C   0  0  0  0  0  0  0  0  0  0  0  0
   -1.4534    0.1677   -2.0371 H   0  0  0  0  0  0  0  0  0  0  0  0
   -0.0236    0.6811   -2.9070 H   0  0  0  0  0  0  0  0  0  0  0  0
   -0.5762   -1.3509   -3.2732 C   0  0  0  0  0  0  0  0  0  0  0  0
    0.3396   -1.5850   -4.0433 O   0  0  0  0  0  0  0  0  0  0  0  0
   -1.6907   -2.1143   -3.1789 O   0  0  0  0  0  0  0  0  0  0  0  0
   -1.5742   -2.8261   -3.8266 H   0  0  0  0  0  0  0  0  0  0  0  0
   -0.3618    1.1549    0.6625 C   0  0  0  0  0  0  0  0  0  0  0  0
   -1.2698    1.8446    0.2125 O   0  0  0  0  0  0  0  0  0  0  0  0
    0.5074    1.7001    1.5892 N   0  0  0  0  0  0  0  0  0  0  0  0
    1.2010    1.0841    2.0039 H   0  0  0  0  0  0  0  0  0  0  0  0
    0.3908    3.0664    2.0851 C   0  0  0  0  0  0  0  0  0  0  0  0
   -0.5597    3.2025    2.6117 H   0  0  0  0  0  0  0  0  0  0  0  0
    1.2068    3.2881    2.7797 H   0  0  0  0  0  0  0  0  0  0  0  0
    0.4400    3.7811    1.2567 H   0  0  0  0  0  0  0  0  0  0  0  0
  1  2  1  0  0  0  0
  2  3  1  0  0  0  0
  2  4  1  0  0  0  0
  2  5  1  0  0  0  0
  5  6  2  0  0  0  0
  5  7  1  0  0  0  0
  7  8  1  0  0  0  0
  7  9  1  0  0  0  0
  9 10  1  0  0  0  0
  9 11  1  0  0  0  0
  9 21  1  0  0  0  0
 11 12  1  0  0  0  0
 11 13  1  0  0  0  0
 11 14  1  0  0  0  0
 14 15  1  0  0  0  0
 14 16  1  0  0  0  0
 14 17  1  0  0  0  0
 17 18  2  0  0  0  0
 17 19  1  0  0  0  0
 19 20  1  0  0  0  0
 21 22  2  0  0  0  0
 21 23  1  0  0  0  0
 23 24  1  0  0  0  0
 23 25  1  0  0  0  0
 25 26  1  0  0  0  0
 25 27  1  0  0  0  0
 25 28  1  0  0  0  0
M  END
$$$$

  -OEChem-02102214123D

 28 27  0     1  0  0  0  0  0999 V2000
   -3.0762   -3.8649    1.3349 H   0  0  0  0  0  0  0  0  0  0  0  0
   -3.1043   -2.8894    0.8417 C   0  0  0  0  0  0  0  0  0  0  0  0
   -3.8114   -2.2463    1.3711 H   0  0  0  0  0  0  0  0  0  0  0  0
   -3.4458   -3.0234   -0.1880 H   0  0  0  0  0  0  0  0  0  0  0  0
   -1.7246   -2.2601    0.8478 C   0  0  0  0  0  0  0  0  0  0  0  0
   -0.7693   -2.8761    1.2951 O   0  0  0  0  0  0  0  0  0  0  0  0
   -1.5479   -0.9954    0.3299 N   0  0  0  0  0  0  0  0  0  0  0  0
   -2.3729   -0.5168   -0.0275 H   0  0  0  0  0  0  0  0  0  0  0  0
   -0.2578   -0.2962    0.2329 C   0  0  1  0  0  0  0  0  0  0  0  0
    0.4729   -0.7727    0.8944 H   0  0  0  0  0  0  0  0  0  0  0  0
    0.2731   -0.3926   -1.2123 C   0  0  0  0  0  0  0  0  0  0  0  0
    1.0971    0.3194   -1.3296 H   0  0  0  0  0  0  0  0  0  0  0  0
    0.6944   -1.3925   -1.3655 H   0  0  0  0  0  0  0  0  0  0  0  0
   -0.7926   -0.1075   -2.2976 C   0  0  0  0  0  0  0  0  0  0  0  0
   -1.6497    0.4365   -1.8910 H   0  0  0  0  0  0  0  0  0  0  0  0
   -0.3491    0.5333   -3.0646 H   0  0  0  0  0  0  0  0  0  0  0  0
   -1.2591   -1.3869   -2.9827 C   0  0  0  0  0  0  0  0  0  0  0  0
   -2.3489   -1.8429   -2.6767 O   0  0  0  0  0  0  0  0  0  0  0  0
   -0.4340   -1.9598   -3.8896 O   0  0  0  0  0  0  0  0  0  0  0  0
   -0.8929   -2.7547   -4.2009 H   0  0  0  0  0  0  0  0  0  0  0  0
   -0.3756    1.1708    0.6990 C   0  0  0  0  0  0  0  0  0  0  0  0
   -1.3305    1.8560    0.3522 O   0  0  0  0  0  0  0  0  0  0  0  0
    0.5780    1.7178    1.5380 N   0  0  0  0  0  0  0  0  0  0  0  0
    1.3129    1.1034    1.8768 H   0  0  0  0  0  0  0  0  0  0  0  0
    0.4810    3.0670    2.0825 C   0  0  0  0  0  0  0  0  0  0  0  0
   -0.4013    3.1582    2.7247 H   0  0  0  0  0  0  0  0  0  0  0  0
    1.3689    3.2999    2.6779 H   0  0  0  0  0  0  0  0  0  0  0  0
    0.4061    3.8027    1.2746 H   0  0  0  0  0  0  0  0  0  0  0  0
  1  2  1  0  0  0  0
  2  3  1  0  0  0  0
  2  4  1  0  0  0  0
  2  5  1  0  0  0  0
  5  6  2  0  0  0  0
  5  7  1  0  0  0  0
  7  8  1  0  0  0  0
  7  9  1  0  0  0  0
  9 10  1  0  0  0  0
  9 11  1  0  0  0  0
  9 21  1  0  0  0  0
 11 12  1  0  0  0  0
 11 13  1  0  0  0  0
 11 14  1  0  0  0  0
 14 15  1  0  0  0  0
 14 16  1  0  0  0  0
 14 17  1  0  0  0  0
 17 18  2  0  0  0  0
 17 19  1  0  0  0  0
 19 20  1  0  0  0  0
 21 22  2  0  0  0  0
 21 23  1  0  0  0  0
 23 24  1  0  0  0  0
 23 25  1  0  0  0  0
 25 26  1  0  0  0  0
 25 27  1  0  0  0  0
 25 28  1  0  0  0  0
M  END
$$$$

  -OEChem-02102214123D

 28 27  0     1  0  0  0  0  0999 V2000
   -3.1929   -3.8045    1.3347 H   0  0  0  0  0  0  0  0  0  0  0  0
   -3.1740   -2.8384    0.8228 C   0  0  0  0  0  0  0  0  0  0  0  0
   -3.8907   -2.1694    1.3047 H   0  0  0  0  0  0  0  0  0  0  0  0
   -3.4665   -2.9868   -0.2194 H   0  0  0  0  0  0  0  0  0  0  0  0
   -1.7818   -2.2404    0.8866 C   0  0  0  0  0  0  0  0  0  0  0  0
   -0.8842   -2.8385    1.4590 O   0  0  0  0  0  0  0  0  0  0  0  0
   -1.5418   -1.0079    0.3158 N   0  0  0  0  0  0  0  0  0  0  0  0
   -2.3387   -0.4966   -0.0581 H   0  0  0  0  0  0  0  0  0  0  0  0
   -0.2354   -0.3344    0.2991 C   0  0  1  0  0  0  0  0  0  0  0  0
    0.4193   -0.7809    1.0547 H   0  0  0  0  0  0  0  0  0  0  0  0
    0.4457   -0.5053   -1.0767 C   0  0  0  0  0  0  0  0  0  0  0  0
    1.2775    0.2046   -1.1348 H   0  0  0  0  0  0  0  0  0  0  0  0
    0.8870   -1.5061   -1.1340 H   0  0  0  0  0  0  0  0  0  0  0  0
   -0.4876   -0.2652   -2.2922 C   0  0  0  0  0  0  0  0  0  0  0  0
   -1.2166    0.5151   -2.0581 H   0  0  0  0  0  0  0  0  0  0  0  0
    0.1222    0.1078   -3.1191 H   0  0  0  0  0  0  0  0  0  0  0  0
   -1.2347   -1.4933   -2.8209 C   0  0  0  0  0  0  0  0  0  0  0  0
   -0.9187   -2.6162   -2.4649 O   0  0  0  0  0  0  0  0  0  0  0  0
   -2.2414   -1.2507   -3.6908 O   0  0  0  0  0  0  0  0  0  0  0  0
   -2.5883   -2.1200   -3.9424 H   0  0  0  0  0  0  0  0  0  0  0  0
   -0.3776    1.1563    0.6738 C   0  0  0  0  0  0  0  0  0  0  0  0
   -1.3042    1.8208    0.2240 O   0  0  0  0  0  0  0  0  0  0  0  0
    0.5011    1.7414    1.5669 N   0  0  0  0  0  0  0  0  0  0  0  0
    1.2084    1.1461    1.9887 H   0  0  0  0  0  0  0  0  0  0  0  0
    0.3758    3.1206    2.0235 C   0  0  0  0  0  0  0  0  0  0  0  0
   -0.5783    3.2683    2.5405 H   0  0  0  0  0  0  0  0  0  0  0  0
    1.1865    3.3652    2.7167 H   0  0  0  0  0  0  0  0  0  0  0  0
    0.4272    3.8113    1.1750 H   0  0  0  0  0  0  0  0  0  0  0  0
  1  2  1  0  0  0  0
  2  3  1  0  0  0  0
  2  4  1  0  0  0  0
  2  5  1  0  0  0  0
  5  6  2  0  0  0  0
  5  7  1  0  0  0  0
  7  8  1  0  0  0  0
  7  9  1  0  0  0  0
  9 10  1  0  0  0  0
  9 11  1  0  0  0  0
  9 21  1  0  0  0  0
 11 12  1  0  0  0  0
 11 13  1  0  0  0  0
 11 14  1  0  0  0  0
 14 15  1  0  0  0  0
 14 16  1  0  0  0  0
 14 17  1  0  0  0  0
 17 18  2  0  0  0  0
 17 19  1  0  0  0  0
 19 20  1  0  0  0  0
 21 22  2  0  0  0  0
 21 23  1  0  0  0  0
 23 24  1  0  0  0  0
 23 25  1  0  0  0  0
 25 26  1  0  0  0  0
 25 27  1  0  0  0  0
 25 28  1  0  0  0  0
M  END
$$$$

  -OEChem-02102214123D

 28 27  0     1  0  0  0  0  0999 V2000
   -3.2799   -3.7512    1.3146 H   0  0  0  0  0  0  0  0  0  0  0  0
   -3.2361   -2.7924    0.7907 C   0  0  0  0  0  0  0  0  0  0  0  0
   -3.9430   -2.1026    1.2581 H   0  0  0  0  0  0  0  0  0  0  0  0
   -3.5234   -2.9467   -0.2517 H   0  0  0  0  0  0  0  0  0  0  0  0
   -1.8325   -2.2225    0.8611 C   0  0  0  0  0  0  0  0  0  0  0  0
   -0.9471   -2.8421    1.4287 O   0  0  0  0  0  0  0  0  0  0  0  0
   -1.5622   -0.9990    0.2873 N   0  0  0  0  0  0  0  0  0  0  0  0
   -2.3352   -0.5025   -0.1563 H   0  0  0  0  0  0  0  0  0  0  0  0
   -0.2488   -0.3420    0.2835 C   0  0  1  0  0  0  0  0  0  0  0  0
    0.3872   -0.7900    1.0542 H   0  0  0  0  0  0  0  0  0  0  0  0
    0.4708   -0.5067   -1.0762 C   0  0  0  0  0  0  0  0  0  0  0  0
    1.3246    0.1787   -1.1019 H   0  0  0  0  0  0  0  0  0  0  0  0
    0.8759   -1.5235   -1.1293 H   0  0  0  0  0  0  0  0  0  0  0  0
   -0.3946   -0.2608   -2.3353 C   0  0  0  0  0  0  0  0  0  0  0  0
   -0.9550    0.6719   -2.2250 H   0  0  0  0  0  0  0  0  0  0  0  0
    0.2666   -0.1383   -3.1974 H   0  0  0  0  0  0  0  0  0  0  0  0
   -1.3679   -1.3917   -2.6605 C   0  0  0  0  0  0  0  0  0  0  0  0
   -0.9100   -2.4590   -3.0303 O   0  0  0  0  0  0  0  0  0  0  0  0
   -2.6958   -1.1543   -2.5333 O   0  0  0  0  0  0  0  0  0  0  0  0
   -3.1330   -1.9625   -2.8422 H   0  0  0  0  0  0  0  0  0  0  0  0
   -0.3901    1.1520    0.6467 C   0  0  0  0  0  0  0  0  0  0  0  0
   -1.2996    1.8211    0.1703 O   0  0  0  0  0  0  0  0  0  0  0  0
    0.4772    1.7390    1.5500 N   0  0  0  0  0  0  0  0  0  0  0  0
    1.1661    1.1401    1.9963 H   0  0  0  0  0  0  0  0  0  0  0  0
    0.3387    3.1166    2.0081 C   0  0  0  0  0  0  0  0  0  0  0  0
   -0.6077    3.2485    2.5432 H   0  0  0  0  0  0  0  0  0  0  0  0
    1.1585    3.3759    2.6849 H   0  0  0  0  0  0  0  0  0  0  0  0
    0.3623    3.8079    1.1589 H   0  0  0  0  0  0  0  0  0  0  0  0
  1  2  1  0  0  0  0
  2  3  1  0  0  0  0
  2  4  1  0  0  0  0
  2  5  1  0  0  0  0
  5  6  2  0  0  0  0
  5  7  1  0  0  0  0
  7  8  1  0  0  0  0
  7  9  1  0  0  0  0
  9 10  1  0  0  0  0
  9 11  1  0  0  0  0
  9 21  1  0  0  0  0
 11 12  1  0  0  0  0
 11 13  1  0  0  0  0
 11 14  1  0  0  0  0
 14 15  1  0  0  0  0
 14 16  1  0  0  0  0
 14 17  1  0  0  0  0
 17 18  2  0  0  0  0
 17 19  1  0  0  0  0
 19 20  1  0  0  0  0
 21 22  2  0  0  0  0
 21 23  1  0  0  0  0
 23 24  1  0  0  0  0
 23 25  1  0  0  0  0
 25 26  1  0  0  0  0
 25 27  1  0  0  0  0
 25 28  1  0  0  0  0
M  END
$$$$

  -OEChem-02102214123D

 28 27  0     1  0  0  0  0  0999 V2000
   -3.2512   -3.7745    1.4180 H   0  0  0  0  0  0  0  0  0  0  0  0
   -3.2209   -2.8217    0.8821 C   0  0  0  0  0  0  0  0  0  0  0  0
   -3.9262   -2.1312    1.3507 H   0  0  0  0  0  0  0  0  0  0  0  0
   -3.5197   -2.9911   -0.1550 H   0  0  0  0  0  0  0  0  0  0  0  0
   -1.8207   -2.2412    0.9269 C   0  0  0  0  0  0  0  0  0  0  0  0
   -0.9219   -2.8488    1.4868 O   0  0  0  0  0  0  0  0  0  0  0  0
   -1.5692   -1.0203    0.3384 N   0  0  0  0  0  0  0  0  0  0  0  0
   -2.3554   -0.5224   -0.0804 H   0  0  0  0  0  0  0  0  0  0  0  0
   -0.2602   -0.3582    0.3000 C   0  0  1  0  0  0  0  0  0  0  0  0
    0.3927   -0.7968    1.0618 H   0  0  0  0  0  0  0  0  0  0  0  0
    0.4502   -0.5061   -1.0692 C   0  0  0  0  0  0  0  0  0  0  0  0
    1.3128    0.1682   -1.0922 H   0  0  0  0  0  0  0  0  0  0  0  0
    0.8421   -1.5281   -1.1224 H   0  0  0  0  0  0  0  0  0  0  0  0
   -0.3914   -0.2687   -2.3487 C   0  0  0  0  0  0  0  0  0  0  0  0
   -0.7555    0.7632   -2.3430 H   0  0  0  0  0  0  0  0  0  0  0  0
    0.2577   -0.3763   -3.2220 H   0  0  0  0  0  0  0  0  0  0  0  0
   -1.5916   -1.1926   -2.5429 C   0  0  0  0  0  0  0  0  0  0  0  0
   -1.3798   -2.3616   -2.8157 O   0  0  0  0  0  0  0  0  0  0  0  0
   -2.8354   -0.6736   -2.4058 O   0  0  0  0  0  0  0  0  0  0  0  0
   -3.4455   -1.3911   -2.6340 H   0  0  0  0  0  0  0  0  0  0  0  0
   -0.4104    1.1358    0.6567 C   0  0  0  0  0  0  0  0  0  0  0  0
   -1.3270    1.7948    0.1801 O   0  0  0  0  0  0  0  0  0  0  0  0
    0.4680    1.7395    1.5377 N   0  0  0  0  0  0  0  0  0  0  0  0
    1.1630    1.1493    1.9860 H   0  0  0  0  0  0  0  0  0  0  0  0
    0.3317    3.1242    1.9743 C   0  0  0  0  0  0  0  0  0  0  0  0
   -0.6173    3.2682    2.5015 H   0  0  0  0  0  0  0  0  0  0  0  0
    1.1483    3.3900    2.6524 H   0  0  0  0  0  0  0  0  0  0  0  0
    0.3634    3.8023    1.1149 H   0  0  0  0  0  0  0  0  0  0  0  0
  1  2  1  0  0  0  0
  2  3  1  0  0  0  0
  2  4  1  0  0  0  0
  2  5  1  0  0  0  0
  5  6  2  0  0  0  0
  5  7  1  0  0  0  0
  7  8  1  0  0  0  0
  7  9  1  0  0  0  0
  9 10  1  0  0  0  0
  9 11  1  0  0  0  0
  9 21  1  0  0  0  0
 11 12  1  0  0  0  0
 11 13  1  0  0  0  0
 11 14  1  0  0  0  0
 14 15  1  0  0  0  0
 14 16  1  0  0  0  0
 14 17  1  0  0  0  0
 17 18  2  0  0  0  0
 17 19  1  0  0  0  0
 19 20  1  0  0  0  0
 21 22  2  0  0  0  0
 21 23  1  0  0  0  0
 23 24  1  0  0  0  0
 23 25  1  0  0  0  0
 25 26  1  0  0  0  0
 25 27  1  0  0  0  0
 25 28  1  0  0  0  0
M  END
$$$$

  -OEChem-02102214123D

 28 27  0     1  0  0  0  0  0999 V2000
   -3.2036   -3.7952    1.5195 H   0  0  0  0  0  0  0  0  0  0  0  0
   -3.1989   -2.8429    0.9820 C   0  0  0  0  0  0  0  0  0  0  0  0
   -3.8887   -2.1552    1.4767 H   0  0  0  0  0  0  0  0  0  0  0  0
   -3.5367   -3.0153   -0.0428 H   0  0  0  0  0  0  0  0  0  0  0  0
   -1.8003   -2.2570    0.9700 C   0  0  0  0  0  0  0  0  0  0  0  0
   -0.8749   -2.8651    1.4847 O   0  0  0  0  0  0  0  0  0  0  0  0
   -1.5791   -1.0315    0.3788 N   0  0  0  0  0  0  0  0  0  0  0  0
   -2.3887   -0.5172    0.0323 H   0  0  0  0  0  0  0  0  0  0  0  0
   -0.2792   -0.3560    0.3047 C   0  0  1  0  0  0  0  0  0  0  0  0
    0.3913   -0.7877    1.0550 H   0  0  0  0  0  0  0  0  0  0  0  0
    0.4181   -0.4934   -1.0733 C   0  0  0  0  0  0  0  0  0  0  0  0
    1.2860    0.1739   -1.0986 H   0  0  0  0  0  0  0  0  0  0  0  0
    0.8035   -1.5182   -1.1176 H   0  0  0  0  0  0  0  0  0  0  0  0
   -0.4033   -0.2776   -2.3729 C   0  0  0  0  0  0  0  0  0  0  0  0
   -0.5624    0.7984   -2.4915 H   0  0  0  0  0  0  0  0  0  0  0  0
    0.1934   -0.6105   -3.2266 H   0  0  0  0  0  0  0  0  0  0  0  0
   -1.7747   -0.9425   -2.4652 C   0  0  0  0  0  0  0  0  0  0  0  0
   -1.8177   -2.1492   -2.6365 O   0  0  0  0  0  0  0  0  0  0  0  0
   -2.8788   -0.1665   -2.3609 O   0  0  0  0  0  0  0  0  0  0  0  0
   -3.6341   -0.7540   -2.5110 H   0  0  0  0  0  0  0  0  0  0  0  0
   -0.4328    1.1349    0.6701 C   0  0  0  0  0  0  0  0  0  0  0  0
   -1.3751    1.7840    0.2326 O   0  0  0  0  0  0  0  0  0  0  0  0
    0.4667    1.7424    1.5269 N   0  0  0  0  0  0  0  0  0  0  0  0
    1.1887    1.1591    1.9404 H   0  0  0  0  0  0  0  0  0  0  0  0
    0.3349    3.1243    1.9733 C   0  0  0  0  0  0  0  0  0  0  0  0
   -0.6097    3.2660    2.5091 H   0  0  0  0  0  0  0  0  0  0  0  0
    1.1572    3.3841    2.6469 H   0  0  0  0  0  0  0  0  0  0  0  0
    0.3608    3.8078    1.1180 H   0  0  0  0  0  0  0  0  0  0  0  0
  1  2  1  0  0  0  0
  2  3  1  0  0  0  0
  2  4  1  0  0  0  0
  2  5  1  0  0  0  0
  5  6  2  0  0  0  0
  5  7  1  0  0  0  0
  7  8  1  0  0  0  0
  7  9  1  0  0  0  0
  9 10  1  0  0  0  0
  9 11  1  0  0  0  0
  9 21  1  0  0  0  0
 11 12  1  0  0  0  0
 11 13  1  0  0  0  0
 11 14  1  0  0  0  0
 14 15  1  0  0  0  0
 14 16  1  0  0  0  0
 14 17  1  0  0  0  0
 17 18  2  0  0  0  0
 17 19  1  0  0  0  0
 19 20  1  0  0  0  0
 21 22  2  0  0  0  0
 21 23  1  0  0  0  0
 23 24  1  0  0  0  0
 23 25  1  0  0  0  0
 25 26  1  0  0  0  0
 25 27  1  0  0  0  0
 25 28  1  0  0  0  0
M  END
$$$$

  -OEChem-02102214123D

 28 27  0     1  0  0  0  0  0999 V2000
   -3.1366   -3.8313    1.5775 H   0  0  0  0  0  0  0  0  0  0  0  0
   -3.1620   -2.8626    1.0709 C   0  0  0  0  0  0  0  0  0  0  0  0
   -3.8222   -2.1911    1.6249 H   0  0  0  0  0  0  0  0  0  0  0  0
   -3.5582   -3.0031    0.0620 H   0  0  0  0  0  0  0  0  0  0  0  0
   -1.7660   -2.2745    0.9963 C   0  0  0  0  0  0  0  0  0  0  0  0
   -0.8144   -2.8906    1.4509 O   0  0  0  0  0  0  0  0  0  0  0  0
   -1.5761   -1.0383    0.4163 N   0  0  0  0  0  0  0  0  0  0  0  0
   -2.4052   -0.5182    0.1342 H   0  0  0  0  0  0  0  0  0  0  0  0
   -0.2830   -0.3565    0.2940 C   0  0  1  0  0  0  0  0  0  0  0  0
    0.4177   -0.7958    1.0117 H   0  0  0  0  0  0  0  0  0  0  0  0
    0.3627   -0.4784   -1.1106 C   0  0  0  0  0  0  0  0  0  0  0  0
    1.2380    0.1781   -1.1557 H   0  0  0  0  0  0  0  0  0  0  0  0
    0.7375   -1.5063   -1.1676 H   0  0  0  0  0  0  0  0  0  0  0  0
   -0.4777   -0.2612   -2.4015 C   0  0  0  0  0  0  0  0  0  0  0  0
   -0.4145    0.8022   -2.6514 H   0  0  0  0  0  0  0  0  0  0  0  0
   -0.0070   -0.8090   -3.2227 H   0  0  0  0  0  0  0  0  0  0  0  0
   -1.9644   -0.6082   -2.3924 C   0  0  0  0  0  0  0  0  0  0  0  0
   -2.2870   -1.7846   -2.4256 O   0  0  0  0  0  0  0  0  0  0  0  0
   -2.8567    0.4083   -2.3848 O   0  0  0  0  0  0  0  0  0  0  0  0
   -3.7350    0.0038   -2.4282 H   0  0  0  0  0  0  0  0  0  0  0  0
   -0.4227    1.1278    0.6903 C   0  0  0  0  0  0  0  0  0  0  0  0
   -1.3974    1.7737    0.3258 O   0  0  0  0  0  0  0  0  0  0  0  0
    0.5137    1.7251    1.5143 N   0  0  0  0  0  0  0  0  0  0  0  0
    1.2620    1.1410    1.8761 H   0  0  0  0  0  0  0  0  0  0  0  0
    0.3895    3.0937    2.0019 C   0  0  0  0  0  0  0  0  0  0  0  0
   -0.5130    3.2021    2.6127 H   0  0  0  0  0  0  0  0  0  0  0  0
    1.2564    3.3576    2.6152 H   0  0  0  0  0  0  0  0  0  0  0  0
    0.3339    3.7962    1.1635 H   0  0  0  0  0  0  0  0  0  0  0  0
  1  2  1  0  0  0  0
  2  3  1  0  0  0  0
  2  4  1  0  0  0  0
  2  5  1  0  0  0  0
  5  6  2  0  0  0  0
  5  7  1  0  0  0  0
  7  8  1  0  0  0  0
  7  9  1  0  0  0  0
  9 10  1  0  0  0  0
  9 11  1  0  0  0  0
  9 21  1  0  0  0  0
 11 12  1  0  0  0  0
 11 13  1  0  0  0  0
 11 14  1  0  0  0  0
 14 15  1  0  0  0  0
 14 16  1  0  0  0  0
 14 17  1  0  0  0  0
 17 18  2  0  0  0  0
 17 19  1  0  0  0  0
 19 20  1  0  0  0  0
 21 22  2  0  0  0  0
 21 23  1  0  0  0  0
 23 24  1  0  0  0  0
 23 25  1  0  0  0  0
 25 26  1  0  0  0  0
 25 27  1  0  0  0  0
 25 28  1  0  0  0  0
M  END
$$$$

  -OEChem-02102214123D

 28 27  0     1  0  0  0  0  0999 V2000
   -3.0603   -3.8898    1.5739 H   0  0  0  0  0  0  0  0  0  0  0  0
   -3.1057   -2.9177    1.0754 C   0  0  0  0  0  0  0  0  0  0  0  0
   -3.7912   -2.2697    1.6267 H   0  0  0  0  0  0  0  0  0  0  0  0
   -3.4850   -3.0594    0.0603 H   0  0  0  0  0  0  0  0  0  0  0  0
   -1.7261   -2.2900    1.0244 C   0  0  0  0  0  0  0  0  0  0  0  0
   -0.7632   -2.8832    1.4864 O   0  0  0  0  0  0  0  0  0  0  0  0
   -1.5630   -1.0465    0.4528 N   0  0  0  0  0  0  0  0  0  0  0  0
   -2.3974   -0.5845    0.0969 H   0  0  0  0  0  0  0  0  0  0  0  0
   -0.2808   -0.3494    0.3073 C   0  0  1  0  0  0  0  0  0  0  0  0
    0.4448   -0.7881    1.0003 H   0  0  0  0  0  0  0  0  0  0  0  0
    0.3209   -0.4541   -1.1184 C   0  0  0  0  0  0  0  0  0  0  0  0
    1.1909    0.2086   -1.1771 H   0  0  0  0  0  0  0  0  0  0  0  0
    0.7048   -1.4774   -1.1913 H   0  0  0  0  0  0  0  0  0  0  0  0
   -0.5410   -0.2342   -2.3990 C   0  0  0  0  0  0  0  0  0  0  0  0
   -0.2673    0.7446   -2.8035 H   0  0  0  0  0  0  0  0  0  0  0  0
   -0.2452   -0.9754   -3.1469 H   0  0  0  0  0  0  0  0  0  0  0  0
   -2.0667   -0.2447   -2.3184 C   0  0  0  0  0  0  0  0  0  0  0  0
   -2.6490   -1.3101   -2.1891 O   0  0  0  0  0  0  0  0  0  0  0  0
   -2.7041    0.9396   -2.4618 O   0  0  0  0  0  0  0  0  0  0  0  0
   -3.6517    0.7563   -2.3897 H   0  0  0  0  0  0  0  0  0  0  0  0
   -0.4284    1.1292    0.7222 C   0  0  0  0  0  0  0  0  0  0  0  0
   -1.4152    1.7701    0.3817 O   0  0  0  0  0  0  0  0  0  0  0  0
    0.5198    1.7291    1.5307 N   0  0  0  0  0  0  0  0  0  0  0  0
    1.2776    1.1479    1.8771 H   0  0  0  0  0  0  0  0  0  0  0  0
    0.3962    3.0952    2.0252 C   0  0  0  0  0  0  0  0  0  0  0  0
   -0.5114    3.2046    2.6282 H   0  0  0  0  0  0  0  0  0  0  0  0
    1.2584    3.3516    2.6483 H   0  0  0  0  0  0  0  0  0  0  0  0
    0.3514    3.8023    1.1900 H   0  0  0  0  0  0  0  0  0  0  0  0
  1  2  1  0  0  0  0
  2  3  1  0  0  0  0
  2  4  1  0  0  0  0
  2  5  1  0  0  0  0
  5  6  2  0  0  0  0
  5  7  1  0  0  0  0
  7  8  1  0  0  0  0
  7  9  1  0  0  0  0
  9 10  1  0  0  0  0
  9 11  1  0  0  0  0
  9 21  1  0  0  0  0
 11 12  1  0  0  0  0
 11 13  1  0  0  0  0
 11 14  1  0  0  0  0
 14 15  1  0  0  0  0
 14 16  1  0  0  0  0
 14 17  1  0  0  0  0
 17 18  2  0  0  0  0
 17 19  1  0  0  0  0
 19 20  1  0  0  0  0
 21 22  2  0  0  0  0
 21 23  1  0  0  0  0
 23 24  1  0  0  0  0
 23 25  1  0  0  0  0
 25 26  1  0  0  0  0
 25 27  1  0  0  0  0
 25 28  1  0  0  0  0
M  END
$$$$

  -OEChem-02102214123D

 28 27  0     1  0  0  0  0  0999 V2000
   -3.1846   -3.8272    1.2449 H   0  0  0  0  0  0  0  0  0  0  0  0
   -3.1938   -2.8159    0.8290 C   0  0  0  0  0  0  0  0  0  0  0  0
   -3.8515   -2.1904    1.4372 H   0  0  0  0  0  0  0  0  0  0  0  0
   -3.5822   -2.8578   -0.1916 H   0  0  0  0  0  0  0  0  0  0  0  0
   -1.7909   -2.2398    0.8224 C   0  0  0  0  0  0  0  0  0  0  0  0
   -0.8504   -2.9103    1.2195 O   0  0  0  0  0  0  0  0  0  0  0  0
   -1.5808   -0.9598    0.3575 N   0  0  0  0  0  0  0  0  0  0  0  0
   -2.3954   -0.4358    0.0432 H   0  0  0  0  0  0  0  0  0  0  0  0
   -0.2764   -0.2948    0.2823 C   0  0  1  0  0  0  0  0  0  0  0  0
    0.4248   -0.8106    0.9467 H   0  0  0  0  0  0  0  0  0  0  0  0
    0.3273   -0.3371   -1.1428 C   0  0  0  0  0  0  0  0  0  0  0  0
    1.2030    0.3208   -1.1524 H   0  0  0  0  0  0  0  0  0  0  0  0
    0.7054   -1.3564   -1.2779 H   0  0  0  0  0  0  0  0  0  0  0  0
   -0.5198   -0.0136   -2.4114 C   0  0  0  0  0  0  0  0  0  0  0  0
   -0.0183    0.8020   -2.9418 H   0  0  0  0  0  0  0  0  0  0  0  0
   -0.4773   -0.8856   -3.0698 H   0  0  0  0  0  0  0  0  0  0  0  0
   -1.9982    0.3667   -2.2943 C   0  0  0  0  0  0  0  0  0  0  0  0
   -2.2940    1.5306   -2.4962 O   0  0  0  0  0  0  0  0  0  0  0  0
   -2.9226   -0.6072   -2.1111 O   0  0  0  0  0  0  0  0  0  0  0  0
   -3.7778   -0.1546   -2.1847 H   0  0  0  0  0  0  0  0  0  0  0  0
   -0.3719    1.1507    0.8150 C   0  0  0  0  0  0  0  0  0  0  0  0
   -1.3567    1.8343    0.5670 O   0  0  0  0  0  0  0  0  0  0  0  0
    0.5907    1.6465    1.6756 N   0  0  0  0  0  0  0  0  0  0  0  0
    1.3430    1.0222    1.9515 H   0  0  0  0  0  0  0  0  0  0  0  0
    0.4961    2.9580    2.3062 C   0  0  0  0  0  0  0  0  0  0  0  0
   -0.3899    3.0119    2.9477 H   0  0  0  0  0  0  0  0  0  0  0  0
    1.3811    3.1476    2.9213 H   0  0  0  0  0  0  0  0  0  0  0  0
    0.4295    3.7445    1.5468 H   0  0  0  0  0  0  0  0  0  0  0  0
  1  2  1  0  0  0  0
  2  3  1  0  0  0  0
  2  4  1  0  0  0  0
  2  5  1  0  0  0  0
  5  6  2  0  0  0  0
  5  7  1  0  0  0  0
  7  8  1  0  0  0  0
  7  9  1  0  0  0  0
  9 10  1  0  0  0  0
  9 11  1  0  0  0  0
  9 21  1  0  0  0  0
 11 12  1  0  0  0  0
 11 13  1  0  0  0  0
 11 14  1  0  0  0  0
 14 15  1  0  0  0  0
 14 16  1  0  0  0  0
 14 17  1  0  0  0  0
 17 18  2  0  0  0  0
 17 19  1  0  0  0  0
 19 20  1  0  0  0  0
 21 22  2  0  0  0  0
 21 23  1  0  0  0  0
 23 24  1  0  0  0  0
 23 25  1  0  0  0  0
 25 26  1  0  0  0  0
 25 27  1  0  0  0  0
 25 28  1  0  0  0  0
M  END
$$$$

  -OEChem-02102214123D

 28 27  0     1  0  0  0  0  0999 V2000
   -3.0510   -3.8939    1.4515 H   0  0  0  0  0  0  0  0  0  0  0  0
   -3.1053   -2.9000    0.9987 C   0  0  0  0  0  0  0  0  0  0  0  0
   -3.8047   -2.2876    1.5730 H   0  0  0  0  0  0  0  0  0  0  0  0
   -3.4746   -2.9976   -0.0253 H   0  0  0  0  0  0  0  0  0  0  0  0
   -1.7349   -2.2504    0.9928 C   0  0  0  0  0  0  0  0  0  0  0  0
   -0.7753   -2.8340    1.4734 O   0  0  0  0  0  0  0  0  0  0  0  0
   -1.5753   -1.0040    0.4286 N   0  0  0  0  0  0  0  0  0  0  0  0
   -2.3979   -0.5858   -0.0100 H   0  0  0  0  0  0  0  0  0  0  0  0
   -0.2972   -0.2932    0.2971 C   0  0  1  0  0  0  0  0  0  0  0  0
    0.4215   -0.7270    1.0003 H   0  0  0  0  0  0  0  0  0  0  0  0
    0.2989   -0.4638   -1.1233 C   0  0  0  0  0  0  0  0  0  0  0  0
    1.1274    0.2470   -1.2124 H   0  0  0  0  0  0  0  0  0  0  0  0
    0.7405   -1.4653   -1.1678 H   0  0  0  0  0  0  0  0  0  0  0  0
   -0.5914   -0.3029   -2.3916 C   0  0  0  0  0  0  0  0  0  0  0  0
   -0.0240    0.2480   -3.1471 H   0  0  0  0  0  0  0  0  0  0  0  0
   -0.7746   -1.3009   -2.8003 H   0  0  0  0  0  0  0  0  0  0  0  0
   -1.9577    0.3659   -2.2472 C   0  0  0  0  0  0  0  0  0  0  0  0
   -2.9298   -0.3035   -1.9292 O   0  0  0  0  0  0  0  0  0  0  0  0
   -2.0160    1.6873   -2.5300 O   0  0  0  0  0  0  0  0  0  0  0  0
   -2.9033    1.9799   -2.2735 H   0  0  0  0  0  0  0  0  0  0  0  0
   -0.4301    1.1903    0.7110 C   0  0  0  0  0  0  0  0  0  0  0  0
   -1.4277    1.8373    0.4152 O   0  0  0  0  0  0  0  0  0  0  0  0
    0.5262    1.7744    1.5218 N   0  0  0  0  0  0  0  0  0  0  0  0
    1.2865    1.1861    1.8503 H   0  0  0  0  0  0  0  0  0  0  0  0
    0.4054    3.1286    2.0495 C   0  0  0  0  0  0  0  0  0  0  0  0
   -0.4778    3.2123    2.6916 H   0  0  0  0  0  0  0  0  0  0  0  0
    1.2895    3.3848    2.6412 H   0  0  0  0  0  0  0  0  0  0  0  0
    0.3164    3.8523    1.2323 H   0  0  0  0  0  0  0  0  0  0  0  0
  1  2  1  0  0  0  0
  2  3  1  0  0  0  0
  2  4  1  0  0  0  0
  2  5  1  0  0  0  0
  5  6  2  0  0  0  0
  5  7  1  0  0  0  0
  7  8  1  0  0  0  0
  7  9  1  0  0  0  0
  9 10  1  0  0  0  0
  9 11  1  0  0  0  0
  9 21  1  0  0  0  0
 11 12  1  0  0  0  0
 11 13  1  0  0  0  0
 11 14  1  0  0  0  0
 14 15  1  0  0  0  0
 14 16  1  0  0  0  0
 14 17  1  0  0  0  0
 17 18  2  0  0  0  0
 17 19  1  0  0  0  0
 19 20  1  0  0  0  0
 21 22  2  0  0  0  0
 21 23  1  0  0  0  0
 23 24  1  0  0  0  0
 23 25  1  0  0  0  0
 25 26  1  0  0  0  0
 25 27  1  0  0  0  0
 25 28  1  0  0  0  0
M  END
$$$$

  -OEChem-02102214123D

 28 27  0     1  0  0  0  0  0999 V2000
   -3.0564   -3.8724    1.4011 H   0  0  0  0  0  0  0  0  0  0  0  0
   -3.1136   -2.8792    0.9472 C   0  0  0  0  0  0  0  0  0  0  0  0
   -3.8041   -2.2637    1.5288 H   0  0  0  0  0  0  0  0  0  0  0  0
   -3.4957   -2.9775   -0.0718 H   0  0  0  0  0  0  0  0  0  0  0  0
   -1.7414   -2.2340    0.9240 C   0  0  0  0  0  0  0  0  0  0  0  0
   -0.7745   -2.8283    1.3756 O   0  0  0  0  0  0  0  0  0  0  0  0
   -1.5874   -0.9786    0.3780 N   0  0  0  0  0  0  0  0  0  0  0  0
   -2.4173   -0.5364   -0.0231 H   0  0  0  0  0  0  0  0  0  0  0  0
   -0.3161   -0.2509    0.2653 C   0  0  1  0  0  0  0  0  0  0  0  0
    0.3899   -0.6845    0.9810 H   0  0  0  0  0  0  0  0  0  0  0  0
    0.3007   -0.4605   -1.1397 C   0  0  0  0  0  0  0  0  0  0  0  0
    1.1117    0.2668   -1.2531 H   0  0  0  0  0  0  0  0  0  0  0  0
    0.7599   -1.4547   -1.1608 H   0  0  0  0  0  0  0  0  0  0  0  0
   -0.6185   -0.3435   -2.3858 C   0  0  0  0  0  0  0  0  0  0  0  0
   -0.0153   -0.0468   -3.2482 H   0  0  0  0  0  0  0  0  0  0  0  0
   -1.0239   -1.3361   -2.6037 H   0  0  0  0  0  0  0  0  0  0  0  0
   -1.8020    0.6115   -2.2693 C   0  0  0  0  0  0  0  0  0  0  0  0
   -2.8915    0.1660   -1.9386 O   0  0  0  0  0  0  0  0  0  0  0  0
   -1.5712    1.9152   -2.5455 O   0  0  0  0  0  0  0  0  0  0  0  0
   -2.3691    2.3884   -2.2621 H   0  0  0  0  0  0  0  0  0  0  0  0
   -0.4336    1.2324    0.6906 C   0  0  0  0  0  0  0  0  0  0  0  0
   -1.4345    1.8899    0.4317 O   0  0  0  0  0  0  0  0  0  0  0  0
    0.5315    1.7941    1.5070 N   0  0  0  0  0  0  0  0  0  0  0  0
    1.2993    1.1993    1.8052 H   0  0  0  0  0  0  0  0  0  0  0  0
    0.4266    3.1389    2.0614 C   0  0  0  0  0  0  0  0  0  0  0  0
   -0.4558    3.2208    2.7048 H   0  0  0  0  0  0  0  0  0  0  0  0
    1.3130    3.3725    2.6589 H   0  0  0  0  0  0  0  0  0  0  0  0
    0.3473    3.8795    1.2583 H   0  0  0  0  0  0  0  0  0  0  0  0
  1  2  1  0  0  0  0
  2  3  1  0  0  0  0
  2  4  1  0  0  0  0
  2  5  1  0  0  0  0
  5  6  2  0  0  0  0
  5  7  1  0  0  0  0
  7  8  1  0  0  0  0
  7  9  1  0  0  0  0
  9 10  1  0  0  0  0
  9 11  1  0  0  0  0
  9 21  1  0  0  0  0
 11 12  1  0  0  0  0
 11 13  1  0  0  0  0
 11 14  1  0  0  0  0
 14 15  1  0  0  0  0
 14 16  1  0  0  0  0
 14 17  1  0  0  0  0
 17 18  2  0  0  0  0
 17 19  1  0  0  0  0
 19 20  1  0  0  0  0
 21 22  2  0  0  0  0
 21 23  1  0  0  0  0
 23 24  1  0  0  0  0
 23 25  1  0  0  0  0
 25 26  1  0  0  0  0
 25 27  1  0  0  0  0
 25 28  1  0  0  0  0
M  END
$$$$

  -OEChem-02102214123D

 28 27  0     1  0  0  0  0  0999 V2000
   -3.1804   -3.7527    1.2514 H   0  0  0  0  0  0  0  0  0  0  0  0
   -3.1884   -2.7532    0.8076 C   0  0  0  0  0  0  0  0  0  0  0  0
   -3.8664   -2.1177    1.3824 H   0  0  0  0  0  0  0  0  0  0  0  0
   -3.5523   -2.8265   -0.2202 H   0  0  0  0  0  0  0  0  0  0  0  0
   -1.7914   -2.1626    0.8201 C   0  0  0  0  0  0  0  0  0  0  0  0
   -0.8603   -2.7978    1.2902 O   0  0  0  0  0  0  0  0  0  0  0  0
   -1.5743   -0.9113    0.2853 N   0  0  0  0  0  0  0  0  0  0  0  0
   -2.3787   -0.4139   -0.0993 H   0  0  0  0  0  0  0  0  0  0  0  0
   -0.2820   -0.2127    0.2547 C   0  0  1  0  0  0  0  0  0  0  0  0
    0.3630   -0.6590    1.0187 H   0  0  0  0  0  0  0  0  0  0  0  0
    0.4230   -0.4550   -1.1011 C   0  0  0  0  0  0  0  0  0  0  0  0
    1.2594    0.2479   -1.1790 H   0  0  0  0  0  0  0  0  0  0  0  0
    0.8501   -1.4635   -1.0868 H   0  0  0  0  0  0  0  0  0  0  0  0
   -0.4384   -0.3270   -2.3809 C   0  0  0  0  0  0  0  0  0  0  0  0
    0.2177   -0.3060   -3.2558 H   0  0  0  0  0  0  0  0  0  0  0  0
   -1.0671   -1.2172   -2.4705 H   0  0  0  0  0  0  0  0  0  0  0  0
   -1.3522    0.8902   -2.4240 C   0  0  0  0  0  0  0  0  0  0  0  0
   -0.8771    1.9460   -2.8062 O   0  0  0  0  0  0  0  0  0  0  0  0
   -2.6397    0.7393   -2.0272 O   0  0  0  0  0  0  0  0  0  0  0  0
   -2.9959    1.6425   -1.9960 H   0  0  0  0  0  0  0  0  0  0  0  0
   -0.3962    1.2734    0.6725 C   0  0  0  0  0  0  0  0  0  0  0  0
   -1.3940    1.9296    0.3962 O   0  0  0  0  0  0  0  0  0  0  0  0
    0.5250    1.8175    1.5492 N   0  0  0  0  0  0  0  0  0  0  0  0
    1.2969    1.2292    1.8488 H   0  0  0  0  0  0  0  0  0  0  0  0
    0.4169    3.1683    2.0884 C   0  0  0  0  0  0  0  0  0  0  0  0
   -0.5157    3.2839    2.6509 H   0  0  0  0  0  0  0  0  0  0  0  0
    1.2543    3.3752    2.7616 H   0  0  0  0  0  0  0  0  0  0  0  0
    0.4336    3.9056    1.2787 H   0  0  0  0  0  0  0  0  0  0  0  0
  1  2  1  0  0  0  0
  2  3  1  0  0  0  0
  2  4  1  0  0  0  0
  2  5  1  0  0  0  0
  5  6  2  0  0  0  0
  5  7  1  0  0  0  0
  7  8  1  0  0  0  0
  7  9  1  0  0  0  0
  9 10  1  0  0  0  0
  9 11  1  0  0  0  0
  9 21  1  0  0  0  0
 11 12  1  0  0  0  0
 11 13  1  0  0  0  0
 11 14  1  0  0  0  0
 14 15  1  0  0  0  0
 14 16  1  0  0  0  0
 14 17  1  0  0  0  0
 17 18  2  0  0  0  0
 17 19  1  0  0  0  0
 19 20  1  0  0  0  0
 21 22  2  0  0  0  0
 21 23  1  0  0  0  0
 23 24  1  0  0  0  0
 23 25  1  0  0  0  0
 25 26  1  0  0  0  0
 25 27  1  0  0  0  0
 25 28  1  0  0  0  0
M  END
$$$$

  -OEChem-02102214123D

 28 27  0     1  0  0  0  0  0999 V2000
   -3.2262   -3.7481    1.2019 H   0  0  0  0  0  0  0  0  0  0  0  0
   -3.2188   -2.7481    0.7591 C   0  0  0  0  0  0  0  0  0  0  0  0
   -3.8656   -2.0956    1.3508 H   0  0  0  0  0  0  0  0  0  0  0  0
   -3.6098   -2.8107   -0.2593 H   0  0  0  0  0  0  0  0  0  0  0  0
   -1.8061   -2.1962    0.7370 C   0  0  0  0  0  0  0  0  0  0  0  0
   -0.8785   -2.8658    1.1636 O   0  0  0  0  0  0  0  0  0  0  0  0
   -1.5715   -0.9394    0.2225 N   0  0  0  0  0  0  0  0  0  0  0  0
   -2.3819   -0.3845   -0.0525 H   0  0  0  0  0  0  0  0  0  0  0  0
   -0.2722   -0.2521    0.2357 C   0  0  1  0  0  0  0  0  0  0  0  0
    0.3520   -0.7119    1.0092 H   0  0  0  0  0  0  0  0  0  0  0  0
    0.4710   -0.4564   -1.1052 C   0  0  0  0  0  0  0  0  0  0  0  0
    1.3263    0.2270   -1.1445 H   0  0  0  0  0  0  0  0  0  0  0  0
    0.8716   -1.4758   -1.1120 H   0  0  0  0  0  0  0  0  0  0  0  0
   -0.3746   -0.2786   -2.3864 C   0  0  0  0  0  0  0  0  0  0  0  0
    0.2564   -0.4627   -3.2601 H   0  0  0  0  0  0  0  0  0  0  0  0
   -1.1753   -1.0228   -2.4049 H   0  0  0  0  0  0  0  0  0  0  0  0
   -0.9874    1.1073   -2.5276 C   0  0  0  0  0  0  0  0  0  0  0  0
   -0.2366    2.0577   -2.6742 O   0  0  0  0  0  0  0  0  0  0  0  0
   -2.3350    1.2119   -2.4561 O   0  0  0  0  0  0  0  0  0  0  0  0
   -2.5157    2.1643   -2.4214 H   0  0  0  0  0  0  0  0  0  0  0  0
   -0.4103    1.2250    0.6720 C   0  0  0  0  0  0  0  0  0  0  0  0
   -1.4139    1.8665    0.3808 O   0  0  0  0  0  0  0  0  0  0  0  0
    0.4771    1.7648    1.5850 N   0  0  0  0  0  0  0  0  0  0  0  0
    1.2611    1.1895    1.8789 H   0  0  0  0  0  0  0  0  0  0  0  0
    0.3372    3.1054    2.1413 C   0  0  0  0  0  0  0  0  0  0  0  0
   -0.6031    3.1948    2.6955 H   0  0  0  0  0  0  0  0  0  0  0  0
    1.1635    3.3198    2.8261 H   0  0  0  0  0  0  0  0  0  0  0  0
    0.3474    3.8539    1.3420 H   0  0  0  0  0  0  0  0  0  0  0  0
  1  2  1  0  0  0  0
  2  3  1  0  0  0  0
  2  4  1  0  0  0  0
  2  5  1  0  0  0  0
  5  6  2  0  0  0  0
  5  7  1  0  0  0  0
  7  8  1  0  0  0  0
  7  9  1  0  0  0  0
  9 10  1  0  0  0  0
  9 11  1  0  0  0  0
  9 21  1  0  0  0  0
 11 12  1  0  0  0  0
 11 13  1  0  0  0  0
 11 14  1  0  0  0  0
 14 15  1  0  0  0  0
 14 16  1  0  0  0  0
 14 17  1  0  0  0  0
 17 18  2  0  0  0  0
 17 19  1  0  0  0  0
 19 20  1  0  0  0  0
 21 22  2  0  0  0  0
 21 23  1  0  0  0  0
 23 24  1  0  0  0  0
 23 25  1  0  0  0  0
 25 26  1  0  0  0  0
 25 27  1  0  0  0  0
 25 28  1  0  0  0  0
M  END
$$$$

  -OEChem-02102214123D

 28 27  0     1  0  0  0  0  0999 V2000
   -3.2318   -3.7501    1.2963 H   0  0  0  0  0  0  0  0  0  0  0  0
   -3.2171   -2.7687    0.8144 C   0  0  0  0  0  0  0  0  0  0  0  0
   -3.8501   -2.0860    1.3863 H   0  0  0  0  0  0  0  0  0  0  0  0
   -3.6192   -2.8664   -0.1968 H   0  0  0  0  0  0  0  0  0  0  0  0
   -1.7982   -2.2355    0.7576 C   0  0  0  0  0  0  0  0  0  0  0  0
   -0.8721   -2.9099    1.1799 O   0  0  0  0  0  0  0  0  0  0  0  0
   -1.5568   -0.9876    0.2245 N   0  0  0  0  0  0  0  0  0  0  0  0
   -2.3663   -0.4171   -0.0186 H   0  0  0  0  0  0  0  0  0  0  0  0
   -0.2532   -0.3076    0.2416 C   0  0  1  0  0  0  0  0  0  0  0  0
    0.3758   -0.7625    1.0141 H   0  0  0  0  0  0  0  0  0  0  0  0
    0.4877   -0.4699   -1.1051 C   0  0  0  0  0  0  0  0  0  0  0  0
    1.3650    0.1858   -1.1241 H   0  0  0  0  0  0  0  0  0  0  0  0
    0.8597   -1.4993   -1.1437 H   0  0  0  0  0  0  0  0  0  0  0  0
   -0.3682   -0.2451   -2.3742 C   0  0  0  0  0  0  0  0  0  0  0  0
    0.1787   -0.6299   -3.2390 H   0  0  0  0  0  0  0  0  0  0  0  0
   -1.3033   -0.8071   -2.3143 H   0  0  0  0  0  0  0  0  0  0  0  0
   -0.6765    1.2239   -2.6479 C   0  0  0  0  0  0  0  0  0  0  0  0
    0.2367    2.0332   -2.6093 O   0  0  0  0  0  0  0  0  0  0  0  0
   -1.9602    1.5520   -2.9212 O   0  0  0  0  0  0  0  0  0  0  0  0
   -1.9761    2.5200   -2.9671 H   0  0  0  0  0  0  0  0  0  0  0  0
   -0.4197    1.1711    0.6562 C   0  0  0  0  0  0  0  0  0  0  0  0
   -1.4129    1.7978    0.3029 O   0  0  0  0  0  0  0  0  0  0  0  0
    0.4395    1.7430    1.5764 N   0  0  0  0  0  0  0  0  0  0  0  0
    1.2319    1.1905    1.8905 H   0  0  0  0  0  0  0  0  0  0  0  0
    0.2908    3.1076    2.0679 C   0  0  0  0  0  0  0  0  0  0  0  0
   -0.6819    3.2369    2.5544 H   0  0  0  0  0  0  0  0  0  0  0  0
    1.0740    3.3348    2.7978 H   0  0  0  0  0  0  0  0  0  0  0  0
    0.3689    3.8222    1.2416 H   0  0  0  0  0  0  0  0  0  0  0  0
  1  2  1  0  0  0  0
  2  3  1  0  0  0  0
  2  4  1  0  0  0  0
  2  5  1  0  0  0  0
  5  6  2  0  0  0  0
  5  7  1  0  0  0  0
  7  8  1  0  0  0  0
  7  9  1  0  0  0  0
  9 10  1  0  0  0  0
  9 11  1  0  0  0  0
  9 21  1  0  0  0  0
 11 12  1  0  0  0  0
 11 13  1  0  0  0  0
 11 14  1  0  0  0  0
 14 15  1  0  0  0  0
 14 16  1  0  0  0  0
 14 17  1  0  0  0  0
 17 18  2  0  0  0  0
 17 19  1  0  0  0  0
 19 20  1  0  0  0  0
 21 22  2  0  0  0  0
 21 23  1  0  0  0  0
 23 24  1  0  0  0  0
 23 25  1  0  0  0  0
 25 26  1  0  0  0  0
 25 27  1  0  0  0  0
 25 28  1  0  0  0  0
M  END
$$$$

  -OEChem-02102214123D

 28 27  0     1  0  0  0  0  0999 V2000
   -3.2315   -3.7636    1.3619 H   0  0  0  0  0  0  0  0  0  0  0  0
   -3.2145   -2.7856    0.8730 C   0  0  0  0  0  0  0  0  0  0  0  0
   -3.8331   -2.0935    1.4494 H   0  0  0  0  0  0  0  0  0  0  0  0
   -3.6313   -2.8867   -0.1319 H   0  0  0  0  0  0  0  0  0  0  0  0
   -1.7919   -2.2654    0.7928 C   0  0  0  0  0  0  0  0  0  0  0  0
   -0.8677   -2.9385    1.2207 O   0  0  0  0  0  0  0  0  0  0  0  0
   -1.5466   -1.0270    0.2395 N   0  0  0  0  0  0  0  0  0  0  0  0
   -2.3547   -0.4527    0.0011 H   0  0  0  0  0  0  0  0  0  0  0  0
   -0.2395   -0.3528    0.2488 C   0  0  1  0  0  0  0  0  0  0  0  0
    0.3991   -0.8037    1.0158 H   0  0  0  0  0  0  0  0  0  0  0  0
    0.4894   -0.4768   -1.1065 C   0  0  0  0  0  0  0  0  0  0  0  0
    1.3861    0.1521   -1.1097 H   0  0  0  0  0  0  0  0  0  0  0  0
    0.8381   -1.5127   -1.1763 H   0  0  0  0  0  0  0  0  0  0  0  0
   -0.3845   -0.2113   -2.3601 C   0  0  0  0  0  0  0  0  0  0  0  0
    0.0232   -0.7900   -3.1930 H   0  0  0  0  0  0  0  0  0  0  0  0
   -1.4103   -0.5544   -2.2115 H   0  0  0  0  0  0  0  0  0  0  0  0
   -0.4074    1.2512   -2.8080 C   0  0  0  0  0  0  0  0  0  0  0  0
    0.5851    1.9460   -2.6563 O   0  0  0  0  0  0  0  0  0  0  0  0
   -1.5489    1.6972   -3.3809 O   0  0  0  0  0  0  0  0  0  0  0  0
   -1.4057    2.6409   -3.5475 H   0  0  0  0  0  0  0  0  0  0  0  0
   -0.4186    1.1293    0.6409 C   0  0  0  0  0  0  0  0  0  0  0  0
   -1.3940    1.7525    0.2347 O   0  0  0  0  0  0  0  0  0  0  0  0
    0.4285    1.7245    1.5569 N   0  0  0  0  0  0  0  0  0  0  0  0
    1.2148    1.1792    1.8978 H   0  0  0  0  0  0  0  0  0  0  0  0
    0.2791    3.1047    2.0020 C   0  0  0  0  0  0  0  0  0  0  0  0
   -0.6960    3.2507    2.4787 H   0  0  0  0  0  0  0  0  0  0  0  0
    1.0587    3.3550    2.7280 H   0  0  0  0  0  0  0  0  0  0  0  0
    0.3628    3.7915    1.1531 H   0  0  0  0  0  0  0  0  0  0  0  0
  1  2  1  0  0  0  0
  2  3  1  0  0  0  0
  2  4  1  0  0  0  0
  2  5  1  0  0  0  0
  5  6  2  0  0  0  0
  5  7  1  0  0  0  0
  7  8  1  0  0  0  0
  7  9  1  0  0  0  0
  9 10  1  0  0  0  0
  9 11  1  0  0  0  0
  9 21  1  0  0  0  0
 11 12  1  0  0  0  0
 11 13  1  0  0  0  0
 11 14  1  0  0  0  0
 14 15  1  0  0  0  0
 14 16  1  0  0  0  0
 14 17  1  0  0  0  0
 17 18  2  0  0  0  0
 17 19  1  0  0  0  0
 19 20  1  0  0  0  0
 21 22  2  0  0  0  0
 21 23  1  0  0  0  0
 23 24  1  0  0  0  0
 23 25  1  0  0  0  0
 25 26  1  0  0  0  0
 25 27  1  0  0  0  0
 25 28  1  0  0  0  0
M  END
$$$$

  -OEChem-02102214123D

 28 27  0     1  0  0  0  0  0999 V2000
   -3.2235   -3.7830    1.3663 H   0  0  0  0  0  0  0  0  0  0  0  0
   -3.2092   -2.7956    0.8964 C   0  0  0  0  0  0  0  0  0  0  0  0
   -3.8208   -2.1133    1.4917 H   0  0  0  0  0  0  0  0  0  0  0  0
   -3.6356   -2.8761   -0.1063 H   0  0  0  0  0  0  0  0  0  0  0  0
   -1.7863   -2.2769    0.8127 C   0  0  0  0  0  0  0  0  0  0  0  0
   -0.8618   -2.9498    1.2403 O   0  0  0  0  0  0  0  0  0  0  0  0
   -1.5414   -1.0401    0.2558 N   0  0  0  0  0  0  0  0  0  0  0  0
   -2.3497   -0.4652    0.0206 H   0  0  0  0  0  0  0  0  0  0  0  0
   -0.2329   -0.3675    0.2587 C   0  0  1  0  0  0  0  0  0  0  0  0
    0.4139   -0.8209    1.0171 H   0  0  0  0  0  0  0  0  0  0  0  0
    0.4795   -0.4743   -1.1059 C   0  0  0  0  0  0  0  0  0  0  0  0
    1.3818    0.1452   -1.1012 H   0  0  0  0  0  0  0  0  0  0  0  0
    0.8237   -1.5103   -1.1940 H   0  0  0  0  0  0  0  0  0  0  0  0
   -0.4134   -0.1887   -2.3469 C   0  0  0  0  0  0  0  0  0  0  0  0
   -0.2035   -0.9506   -3.1022 H   0  0  0  0  0  0  0  0  0  0  0  0
   -1.4740   -0.2703   -2.1026 H   0  0  0  0  0  0  0  0  0  0  0  0
   -0.1886    1.1711   -3.0151 C   0  0  0  0  0  0  0  0  0  0  0  0
    0.8133    1.8246   -2.7715 O   0  0  0  0  0  0  0  0  0  0  0  0
   -1.1413    1.5732   -3.8872 O   0  0  0  0  0  0  0  0  0  0  0  0
   -0.8636    2.4500   -4.1922 H   0  0  0  0  0  0  0  0  0  0  0  0
   -0.4103    1.1151    0.6482 C   0  0  0  0  0  0  0  0  0  0  0  0
   -1.3752    1.7424    0.2241 O   0  0  0  0  0  0  0  0  0  0  0  0
    0.4389    1.7135    1.5602 N   0  0  0  0  0  0  0  0  0  0  0  0
    1.2168    1.1640    1.9134 H   0  0  0  0  0  0  0  0  0  0  0  0
    0.2973    3.0988    1.9921 C   0  0  0  0  0  0  0  0  0  0  0  0
   -0.6743    3.2532    2.4732 H   0  0  0  0  0  0  0  0  0  0  0  0
    1.0824    3.3540    2.7104 H   0  0  0  0  0  0  0  0  0  0  0  0
    0.3782    3.7767    1.1358 H   0  0  0  0  0  0  0  0  0  0  0  0
  1  2  1  0  0  0  0
  2  3  1  0  0  0  0
  2  4  1  0  0  0  0
  2  5  1  0  0  0  0
  5  6  2  0  0  0  0
  5  7  1  0  0  0  0
  7  8  1  0  0  0  0
  7  9  1  0  0  0  0
  9 10  1  0  0  0  0
  9 11  1  0  0  0  0
  9 21  1  0  0  0  0
 11 12  1  0  0  0  0
 11 13  1  0  0  0  0
 11 14  1  0  0  0  0
 14 15  1  0  0  0  0
 14 16  1  0  0  0  0
 14 17  1  0  0  0  0
 17 18  2  0  0  0  0
 17 19  1  0  0  0  0
 19 20  1  0  0  0  0
 21 22  2  0  0  0  0
 21 23  1  0  0  0  0
 23 24  1  0  0  0  0
 23 25  1  0  0  0  0
 25 26  1  0  0  0  0
 25 27  1  0  0  0  0
 25 28  1  0  0  0  0
M  END
$$$$

  -OEChem-02102214123D

 28 27  0     1  0  0  0  0  0999 V2000
   -3.2208   -3.7788    1.3696 H   0  0  0  0  0  0  0  0  0  0  0  0
   -3.2050   -2.7982    0.8857 C   0  0  0  0  0  0  0  0  0  0  0  0
   -3.8267   -2.1103    1.4638 H   0  0  0  0  0  0  0  0  0  0  0  0
   -3.6193   -2.8949   -0.1207 H   0  0  0  0  0  0  0  0  0  0  0  0
   -1.7833   -2.2745    0.8112 C   0  0  0  0  0  0  0  0  0  0  0  0
   -0.8589   -2.9474    1.2390 O   0  0  0  0  0  0  0  0  0  0  0  0
   -1.5391   -1.0350    0.2599 N   0  0  0  0  0  0  0  0  0  0  0  0
   -2.3475   -0.4611    0.0236 H   0  0  0  0  0  0  0  0  0  0  0  0
   -0.2304   -0.3623    0.2632 C   0  0  1  0  0  0  0  0  0  0  0  0
    0.4183   -0.8195    1.0176 H   0  0  0  0  0  0  0  0  0  0  0  0
    0.4720   -0.4713   -1.1051 C   0  0  0  0  0  0  0  0  0  0  0  0
    1.3600    0.1679   -1.0958 H   0  0  0  0  0  0  0  0  0  0  0  0
    0.8375   -1.4991   -1.2035 H   0  0  0  0  0  0  0  0  0  0  0  0
   -0.4402   -0.1822   -2.3326 C   0  0  0  0  0  0  0  0  0  0  0  0
   -0.4822   -1.0809   -2.9536 H   0  0  0  0  0  0  0  0  0  0  0  0
   -1.4616    0.0344   -2.0128 H   0  0  0  0  0  0  0  0  0  0  0  0
   -0.0123    0.9852   -3.2281 C   0  0  0  0  0  0  0  0  0  0  0  0
    0.9966    1.6268   -2.9830 O   0  0  0  0  0  0  0  0  0  0  0  0
   -0.8089    1.2383   -4.2922 O   0  0  0  0  0  0  0  0  0  0  0  0
   -0.4166    2.0046   -4.7372 H   0  0  0  0  0  0  0  0  0  0  0  0
   -0.3995    1.1193    0.6596 C   0  0  0  0  0  0  0  0  0  0  0  0
   -1.3629    1.7539    0.2431 O   0  0  0  0  0  0  0  0  0  0  0  0
    0.4564    1.7085    1.5713 N   0  0  0  0  0  0  0  0  0  0  0  0
    1.2349    1.1544    1.9162 H   0  0  0  0  0  0  0  0  0  0  0  0
    0.3236    3.0920    2.0110 C   0  0  0  0  0  0  0  0  0  0  0  0
   -0.6501    3.2511    2.4862 H   0  0  0  0  0  0  0  0  0  0  0  0
    1.1056    3.3361    2.7364 H   0  0  0  0  0  0  0  0  0  0  0  0
    0.4160    3.7744    1.1594 H   0  0  0  0  0  0  0  0  0  0  0  0
  1  2  1  0  0  0  0
  2  3  1  0  0  0  0
  2  4  1  0  0  0  0
  2  5  1  0  0  0  0
  5  6  2  0  0  0  0
  5  7  1  0  0  0  0
  7  8  1  0  0  0  0
  7  9  1  0  0  0  0
  9 10  1  0  0  0  0
  9 11  1  0  0  0  0
  9 21  1  0  0  0  0
 11 12  1  0  0  0  0
 11 13  1  0  0  0  0
 11 14  1  0  0  0  0
 14 15  1  0  0  0  0
 14 16  1  0  0  0  0
 14 17  1  0  0  0  0
 17 18  2  0  0  0  0
 17 19  1  0  0  0  0
 19 20  1  0  0  0  0
 21 22  2  0  0  0  0
 21 23  1  0  0  0  0
 23 24  1  0  0  0  0
 23 25  1  0  0  0  0
 25 26  1  0  0  0  0
 25 27  1  0  0  0  0
 25 28  1  0  0  0  0
M  END
$$$$

  -OEChem-02102214123D

 28 27  0     1  0  0  0  0  0999 V2000
   -3.1943   -3.8028    1.3177 H   0  0  0  0  0  0  0  0  0  0  0  0
   -3.1902   -2.8030    0.8749 C   0  0  0  0  0  0  0  0  0  0  0  0
   -3.8163   -2.1454    1.4826 H   0  0  0  0  0  0  0  0  0  0  0  0
   -3.6071   -2.8629   -0.1333 H   0  0  0  0  0  0  0  0  0  0  0  0
   -1.7743   -2.2621    0.8184 C   0  0  0  0  0  0  0  0  0  0  0  0
   -0.8498   -2.9151    1.2758 O   0  0  0  0  0  0  0  0  0  0  0  0
   -1.5358   -1.0281    0.2526 N   0  0  0  0  0  0  0  0  0  0  0  0
   -2.3462   -0.4731   -0.0184 H   0  0  0  0  0  0  0  0  0  0  0  0
   -0.2334   -0.3438    0.2549 C   0  0  1  0  0  0  0  0  0  0  0  0
    0.4127   -0.7856    1.0207 H   0  0  0  0  0  0  0  0  0  0  0  0
    0.4705   -0.5028   -1.1076 C   0  0  0  0  0  0  0  0  0  0  0  0
    1.3215    0.1866   -1.1237 H   0  0  0  0  0  0  0  0  0  0  0  0
    0.8811   -1.5158   -1.1770 H   0  0  0  0  0  0  0  0  0  0  0  0
   -0.4469   -0.2655   -2.3369 C   0  0  0  0  0  0  0  0  0  0  0  0
   -0.7366   -1.2273   -2.7679 H   0  0  0  0  0  0  0  0  0  0  0  0
   -1.3643    0.2401   -2.0245 H   0  0  0  0  0  0  0  0  0  0  0  0
    0.1728    0.6041   -3.4317 C   0  0  0  0  0  0  0  0  0  0  0  0
    1.3836    0.6114   -3.5862 O   0  0  0  0  0  0  0  0  0  0  0  0
   -0.6790    1.3130   -4.2074 O   0  0  0  0  0  0  0  0  0  0  0  0
   -0.1236    1.7997   -4.8346 H   0  0  0  0  0  0  0  0  0  0  0  0
   -0.3998    1.1442    0.6287 C   0  0  0  0  0  0  0  0  0  0  0  0
   -1.3510    1.7820    0.1919 O   0  0  0  0  0  0  0  0  0  0  0  0
    0.4554    1.7433    1.5349 N   0  0  0  0  0  0  0  0  0  0  0  0
    1.1970    1.1740    1.9326 H   0  0  0  0  0  0  0  0  0  0  0  0
    0.2988    3.1192    1.9916 C   0  0  0  0  0  0  0  0  0  0  0  0
   -0.6460    3.2378    2.5326 H   0  0  0  0  0  0  0  0  0  0  0  0
    1.1190    3.3917    2.6629 H   0  0  0  0  0  0  0  0  0  0  0  0
    0.3065    3.8092    1.1410 H   0  0  0  0  0  0  0  0  0  0  0  0
  1  2  1  0  0  0  0
  2  3  1  0  0  0  0
  2  4  1  0  0  0  0
  2  5  1  0  0  0  0
  5  6  2  0  0  0  0
  5  7  1  0  0  0  0
  7  8  1  0  0  0  0
  7  9  1  0  0  0  0
  9 10  1  0  0  0  0
  9 11  1  0  0  0  0
  9 21  1  0  0  0  0
 11 12  1  0  0  0  0
 11 13  1  0  0  0  0
 11 14  1  0  0  0  0
 14 15  1  0  0  0  0
 14 16  1  0  0  0  0
 14 17  1  0  0  0  0
 17 18  2  0  0  0  0
 17 19  1  0  0  0  0
 19 20  1  0  0  0  0
 21 22  2  0  0  0  0
 21 23  1  0  0  0  0
 23 24  1  0  0  0  0
 23 25  1  0  0  0  0
 25 26  1  0  0  0  0
 25 27  1  0  0  0  0
 25 28  1  0  0  0  0
M  END
$$$$

  -OEChem-02102214123D

 28 27  0     1  0  0  0  0  0999 V2000
   -3.1973   -3.7819    1.3368 H   0  0  0  0  0  0  0  0  0  0  0  0
   -3.1886   -2.7922    0.8716 C   0  0  0  0  0  0  0  0  0  0  0  0
   -3.8169   -2.1202    1.4613 H   0  0  0  0  0  0  0  0  0  0  0  0
   -3.6001   -2.8736   -0.1373 H   0  0  0  0  0  0  0  0  0  0  0  0
   -1.7715   -2.2547    0.8107 C   0  0  0  0  0  0  0  0  0  0  0  0
   -0.8464   -2.9119    1.2608 O   0  0  0  0  0  0  0  0  0  0  0  0
   -1.5340   -1.0168    0.2527 N   0  0  0  0  0  0  0  0  0  0  0  0
   -2.3446   -0.4599   -0.0139 H   0  0  0  0  0  0  0  0  0  0  0  0
   -0.2310   -0.3341    0.2521 C   0  0  1  0  0  0  0  0  0  0  0  0
    0.4173   -0.7811    1.0131 H   0  0  0  0  0  0  0  0  0  0  0  0
    0.4652   -0.4977   -1.1138 C   0  0  0  0  0  0  0  0  0  0  0  0
    1.3068    0.2033   -1.1413 H   0  0  0  0  0  0  0  0  0  0  0  0
    0.8831   -1.5075   -1.1881 H   0  0  0  0  0  0  0  0  0  0  0  0
   -0.4650   -0.2602   -2.3301 C   0  0  0  0  0  0  0  0  0  0  0  0
   -0.9725   -1.1927   -2.5902 H   0  0  0  0  0  0  0  0  0  0  0  0
   -1.2346    0.4697   -2.0652 H   0  0  0  0  0  0  0  0  0  0  0  0
    0.2414    0.2858   -3.5720 C   0  0  0  0  0  0  0  0  0  0  0  0
    1.4556    0.2061   -3.6678 O   0  0  0  0  0  0  0  0  0  0  0  0
   -0.5453    0.8208   -4.5335 O   0  0  0  0  0  0  0  0  0  0  0  0
    0.0550    1.1085   -5.2378 H   0  0  0  0  0  0  0  0  0  0  0  0
   -0.3903    1.1523    0.6378 C   0  0  0  0  0  0  0  0  0  0  0  0
   -1.3487    1.7943    0.2232 O   0  0  0  0  0  0  0  0  0  0  0  0
    0.4739    1.7405    1.5429 N   0  0  0  0  0  0  0  0  0  0  0  0
    1.2183    1.1654    1.9272 H   0  0  0  0  0  0  0  0  0  0  0  0
    0.3156    3.1069    2.0270 C   0  0  0  0  0  0  0  0  0  0  0  0
   -0.6373    3.2182    2.5553 H   0  0  0  0  0  0  0  0  0  0  0  0
    1.1257    3.3606    2.7177 H   0  0  0  0  0  0  0  0  0  0  0  0
    0.3401    3.8151    1.1919 H   0  0  0  0  0  0  0  0  0  0  0  0
  1  2  1  0  0  0  0
  2  3  1  0  0  0  0
  2  4  1  0  0  0  0
  2  5  1  0  0  0  0
  5  6  2  0  0  0  0
  5  7  1  0  0  0  0
  7  8  1  0  0  0  0
  7  9  1  0  0  0  0
  9 10  1  0  0  0  0
  9 11  1  0  0  0  0
  9 21  1  0  0  0  0
 11 12  1  0  0  0  0
 11 13  1  0  0  0  0
 11 14  1  0  0  0  0
 14 15  1  0  0  0  0
 14 16  1  0  0  0  0
 14 17  1  0  0  0  0
 17 18  2  0  0  0  0
 17 19  1  0  0  0  0
 19 20  1  0  0  0  0
 21 22  2  0  0  0  0
 21 23  1  0  0  0  0
 23 24  1  0  0  0  0
 23 25  1  0  0  0  0
 25 26  1  0  0  0  0
 25 27  1  0  0  0  0
 25 28  1  0  0  0  0
M  END
$$$$

  -OEChem-02102214123D

 28 27  0     1  0  0  0  0  0999 V2000
   -3.2089   -3.7682    1.3607 H   0  0  0  0  0  0  0  0  0  0  0  0
   -3.1972   -2.7874    0.8769 C   0  0  0  0  0  0  0  0  0  0  0  0
   -3.8228   -2.1026    1.4545 H   0  0  0  0  0  0  0  0  0  0  0  0
   -3.6097   -2.8860   -0.1300 H   0  0  0  0  0  0  0  0  0  0  0  0
   -1.7781   -2.2567    0.8045 C   0  0  0  0  0  0  0  0  0  0  0  0
   -0.8518   -2.9231    1.2380 O   0  0  0  0  0  0  0  0  0  0  0  0
   -1.5395   -1.0157    0.2540 N   0  0  0  0  0  0  0  0  0  0  0  0
   -2.3496   -0.4525   -0.0009 H   0  0  0  0  0  0  0  0  0  0  0  0
   -0.2340   -0.3380    0.2518 C   0  0  1  0  0  0  0  0  0  0  0  0
    0.4154   -0.7925    1.0075 H   0  0  0  0  0  0  0  0  0  0  0  0
    0.4596   -0.4877   -1.1171 C   0  0  0  0  0  0  0  0  0  0  0  0
    1.3060    0.2077   -1.1488 H   0  0  0  0  0  0  0  0  0  0  0  0
    0.8669   -1.5013   -1.1996 H   0  0  0  0  0  0  0  0  0  0  0  0
   -0.4735   -0.2343   -2.3252 C   0  0  0  0  0  0  0  0  0  0  0  0
   -1.1604   -1.0771   -2.4393 H   0  0  0  0  0  0  0  0  0  0  0  0
   -1.0734    0.6614   -2.1437 H   0  0  0  0  0  0  0  0  0  0  0  0
    0.2578   -0.0246   -3.6518 C   0  0  0  0  0  0  0  0  0  0  0  0
    1.4751   -0.1006   -3.7011 O   0  0  0  0  0  0  0  0  0  0  0  0
   -0.5141    0.2321   -4.7325 O   0  0  0  0  0  0  0  0  0  0  0  0
    0.0985    0.3374   -5.4759 H   0  0  0  0  0  0  0  0  0  0  0  0
   -0.3895    1.1453    0.6494 C   0  0  0  0  0  0  0  0  0  0  0  0
   -1.3479    1.7921    0.2419 O   0  0  0  0  0  0  0  0  0  0  0  0
    0.4792    1.7257    1.5548 N   0  0  0  0  0  0  0  0  0  0  0  0
    1.2300    1.1499    1.9252 H   0  0  0  0  0  0  0  0  0  0  0  0
    0.3357    3.0949    2.0355 C   0  0  0  0  0  0  0  0  0  0  0  0
   -0.6221    3.2218    2.5511 H   0  0  0  0  0  0  0  0  0  0  0  0
    1.1404    3.3368    2.7365 H   0  0  0  0  0  0  0  0  0  0  0  0
    0.3819    3.8013    1.1998 H   0  0  0  0  0  0  0  0  0  0  0  0
  1  2  1  0  0  0  0
  2  3  1  0  0  0  0
  2  4  1  0  0  0  0
  2  5  1  0  0  0  0
  5  6  2  0  0  0  0
  5  7  1  0  0  0  0
  7  8  1  0  0  0  0
  7  9  1  0  0  0  0
  9 10  1  0  0  0  0
  9 11  1  0  0  0  0
  9 21  1  0  0  0  0
 11 12  1  0  0  0  0
 11 13  1  0  0  0  0
 11 14  1  0  0  0  0
 14 15  1  0  0  0  0
 14 16  1  0  0  0  0
 14 17  1  0  0  0  0
 17 18  2  0  0  0  0
 17 19  1  0  0  0  0
 19 20  1  0  0  0  0
 21 22  2  0  0  0  0
 21 23  1  0  0  0  0
 23 24  1  0  0  0  0
 23 25  1  0  0  0  0
 25 26  1  0  0  0  0
 25 27  1  0  0  0  0
 25 28  1  0  0  0  0
M  END
$$$$

  -OEChem-02102214123D

 28 27  0     1  0  0  0  0  0999 V2000
   -3.1972   -3.7680    1.2877 H   0  0  0  0  0  0  0  0  0  0  0  0
   -3.1925   -2.7736    0.8327 C   0  0  0  0  0  0  0  0  0  0  0  0
   -3.8182   -2.1086    1.4328 H   0  0  0  0  0  0  0  0  0  0  0  0
   -3.6097   -2.8453   -0.1746 H   0  0  0  0  0  0  0  0  0  0  0  0
   -1.7761   -2.2349    0.7692 C   0  0  0  0  0  0  0  0  0  0  0  0
   -0.8470   -2.9036    1.1929 O   0  0  0  0  0  0  0  0  0  0  0  0
   -1.5436   -0.9833    0.2397 N   0  0  0  0  0  0  0  0  0  0  0  0
   -2.3568   -0.4188   -0.0017 H   0  0  0  0  0  0  0  0  0  0  0  0
   -0.2411   -0.3011    0.2421 C   0  0  1  0  0  0  0  0  0  0  0  0
    0.4057   -0.7702    0.9908 H   0  0  0  0  0  0  0  0  0  0  0  0
    0.4463   -0.4637   -1.1269 C   0  0  0  0  0  0  0  0  0  0  0  0
    1.4271    0.0224   -1.0852 H   0  0  0  0  0  0  0  0  0  0  0  0
    0.6181   -1.5309   -1.3056 H   0  0  0  0  0  0  0  0  0  0  0  0
   -0.3613    0.1199   -2.3092 C   0  0  0  0  0  0  0  0  0  0  0  0
   -1.3355   -0.3727   -2.3640 H   0  0  0  0  0  0  0  0  0  0  0  0
   -0.5362    1.1876   -2.1537 H   0  0  0  0  0  0  0  0  0  0  0  0
    0.3276   -0.0459   -3.6638 C   0  0  0  0  0  0  0  0  0  0  0  0
    1.5148   -0.3254   -3.7131 O   0  0  0  0  0  0  0  0  0  0  0  0
   -0.4396    0.1335   -4.7635 O   0  0  0  0  0  0  0  0  0  0  0  0
    0.1488   -0.0036   -5.5213 H   0  0  0  0  0  0  0  0  0  0  0  0
   -0.3822    1.1765    0.6649 C   0  0  0  0  0  0  0  0  0  0  0  0
   -1.3502    1.8316    0.2950 O   0  0  0  0  0  0  0  0  0  0  0  0
    0.5005    1.7326    1.5722 N   0  0  0  0  0  0  0  0  0  0  0  0
    1.2487    1.1421    1.9244 H   0  0  0  0  0  0  0  0  0  0  0  0
    0.3573    3.0829    2.1032 C   0  0  0  0  0  0  0  0  0  0  0  0
   -0.5842    3.1800    2.6542 H   0  0  0  0  0  0  0  0  0  0  0  0
    1.1823    3.3109    2.7849 H   0  0  0  0  0  0  0  0  0  0  0  0
    0.3680    3.8176    1.2912 H   0  0  0  0  0  0  0  0  0  0  0  0
  1  2  1  0  0  0  0
  2  3  1  0  0  0  0
  2  4  1  0  0  0  0
  2  5  1  0  0  0  0
  5  6  2  0  0  0  0
  5  7  1  0  0  0  0
  7  8  1  0  0  0  0
  7  9  1  0  0  0  0
  9 10  1  0  0  0  0
  9 11  1  0  0  0  0
  9 21  1  0  0  0  0
 11 12  1  0  0  0  0
 11 13  1  0  0  0  0
 11 14  1  0  0  0  0
 14 15  1  0  0  0  0
 14 16  1  0  0  0  0
 14 17  1  0  0  0  0
 17 18  2  0  0  0  0
 17 19  1  0  0  0  0
 19 20  1  0  0  0  0
 21 22  2  0  0  0  0
 21 23  1  0  0  0  0
 23 24  1  0  0  0  0
 23 25  1  0  0  0  0
 25 26  1  0  0  0  0
 25 27  1  0  0  0  0
 25 28  1  0  0  0  0
M  END
$$$$

  -OEChem-02102214123D

 28 27  0     1  0  0  0  0  0999 V2000
   -3.2221   -3.7577    1.2727 H   0  0  0  0  0  0  0  0  0  0  0  0
   -3.2083   -2.7628    0.8188 C   0  0  0  0  0  0  0  0  0  0  0  0
   -3.8327   -2.0943    1.4166 H   0  0  0  0  0  0  0  0  0  0  0  0
   -3.6210   -2.8310   -0.1906 H   0  0  0  0  0  0  0  0  0  0  0  0
   -1.7879   -2.2333    0.7627 C   0  0  0  0  0  0  0  0  0  0  0  0
   -0.8651   -2.9085    1.1900 O   0  0  0  0  0  0  0  0  0  0  0  0
   -1.5440   -0.9833    0.2349 N   0  0  0  0  0  0  0  0  0  0  0  0
   -2.3521   -0.4128   -0.0096 H   0  0  0  0  0  0  0  0  0  0  0  0
   -0.2361   -0.3111    0.2411 C   0  0  1  0  0  0  0  0  0  0  0  0
    0.4095   -0.7878    0.9864 H   0  0  0  0  0  0  0  0  0  0  0  0
    0.4495   -0.4564   -1.1308 C   0  0  0  0  0  0  0  0  0  0  0  0
    1.4418    0.0061   -1.0955 H   0  0  0  0  0  0  0  0  0  0  0  0
    0.5959   -1.5265   -1.3173 H   0  0  0  0  0  0  0  0  0  0  0  0
   -0.3539    0.1513   -2.3035 C   0  0  0  0  0  0  0  0  0  0  0  0
   -1.4043   -0.1392   -2.2242 H   0  0  0  0  0  0  0  0  0  0  0  0
   -0.3107    1.2431   -2.2617 H   0  0  0  0  0  0  0  0  0  0  0  0
    0.1466   -0.3097   -3.6711 C   0  0  0  0  0  0  0  0  0  0  0  0
    1.3297   -0.5702   -3.8185 O   0  0  0  0  0  0  0  0  0  0  0  0
   -0.7652   -0.4004   -4.6665 O   0  0  0  0  0  0  0  0  0  0  0  0
   -0.2741   -0.6964   -5.4479 H   0  0  0  0  0  0  0  0  0  0  0  0
   -0.3728    1.1664    0.6651 C   0  0  0  0  0  0  0  0  0  0  0  0
   -1.3299    1.8282    0.2787 O   0  0  0  0  0  0  0  0  0  0  0  0
    0.5070    1.7211    1.5761 N   0  0  0  0  0  0  0  0  0  0  0  0
    1.2492    1.1280    1.9366 H   0  0  0  0  0  0  0  0  0  0  0  0
    0.3658    3.0737    2.1023 C   0  0  0  0  0  0  0  0  0  0  0  0
   -0.5804    3.1772    2.6440 H   0  0  0  0  0  0  0  0  0  0  0  0
    1.1853    3.2996    2.7914 H   0  0  0  0  0  0  0  0  0  0  0  0
    0.3878    3.8063    1.2885 H   0  0  0  0  0  0  0  0  0  0  0  0
  1  2  1  0  0  0  0
  2  3  1  0  0  0  0
  2  4  1  0  0  0  0
  2  5  1  0  0  0  0
  5  6  2  0  0  0  0
  5  7  1  0  0  0  0
  7  8  1  0  0  0  0
  7  9  1  0  0  0  0
  9 10  1  0  0  0  0
  9 11  1  0  0  0  0
  9 21  1  0  0  0  0
 11 12  1  0  0  0  0
 11 13  1  0  0  0  0
 11 14  1  0  0  0  0
 14 15  1  0  0  0  0
 14 16  1  0  0  0  0
 14 17  1  0  0  0  0
 17 18  2  0  0  0  0
 17 19  1  0  0  0  0
 19 20  1  0  0  0  0
 21 22  2  0  0  0  0
 21 23  1  0  0  0  0
 23 24  1  0  0  0  0
 23 25  1  0  0  0  0
 25 26  1  0  0  0  0
 25 27  1  0  0  0  0
 25 28  1  0  0  0  0
M  END
$$$$

  -OEChem-02102214123D

 28 27  0     1  0  0  0  0  0999 V2000
   -3.2444   -3.7493    1.2399 H   0  0  0  0  0  0  0  0  0  0  0  0
   -3.2217   -2.7544    0.7864 C   0  0  0  0  0  0  0  0  0  0  0  0
   -3.8529   -2.0844    1.3750 H   0  0  0  0  0  0  0  0  0  0  0  0
   -3.6198   -2.8207   -0.2290 H   0  0  0  0  0  0  0  0  0  0  0  0
   -1.7997   -2.2279    0.7501 C   0  0  0  0  0  0  0  0  0  0  0  0
   -0.8835   -2.9064    1.1863 O   0  0  0  0  0  0  0  0  0  0  0  0
   -1.5463   -0.9781    0.2262 N   0  0  0  0  0  0  0  0  0  0  0  0
   -2.3499   -0.4071   -0.0314 H   0  0  0  0  0  0  0  0  0  0  0  0
   -0.2351   -0.3118    0.2423 C   0  0  1  0  0  0  0  0  0  0  0  0
    0.4056   -0.7943    0.9875 H   0  0  0  0  0  0  0  0  0  0  0  0
    0.4533   -0.4510   -1.1288 C   0  0  0  0  0  0  0  0  0  0  0  0
    1.4517   -0.0024   -1.0938 H   0  0  0  0  0  0  0  0  0  0  0  0
    0.5878   -1.5229   -1.3141 H   0  0  0  0  0  0  0  0  0  0  0  0
   -0.3421    0.1689   -2.3018 C   0  0  0  0  0  0  0  0  0  0  0  0
   -1.4150    0.1165   -2.1021 H   0  0  0  0  0  0  0  0  0  0  0  0
   -0.0854    1.2265   -2.4088 H   0  0  0  0  0  0  0  0  0  0  0  0
   -0.0899   -0.5494   -3.6244 C   0  0  0  0  0  0  0  0  0  0  0  0
    1.0566   -0.8347   -3.9291 O   0  0  0  0  0  0  0  0  0  0  0  0
   -1.1618   -0.8365   -4.3993 O   0  0  0  0  0  0  0  0  0  0  0  0
   -0.8082   -1.2814   -5.1844 H   0  0  0  0  0  0  0  0  0  0  0  0
   -0.3663    1.1657    0.6678 C   0  0  0  0  0  0  0  0  0  0  0  0
   -1.3084    1.8381    0.2638 O   0  0  0  0  0  0  0  0  0  0  0  0
    0.5100    1.7149    1.5855 N   0  0  0  0  0  0  0  0  0  0  0  0
    1.2357    1.1126    1.9636 H   0  0  0  0  0  0  0  0  0  0  0  0
    0.3785    3.0722    2.1020 C   0  0  0  0  0  0  0  0  0  0  0  0
   -0.5714    3.1892    2.6342 H   0  0  0  0  0  0  0  0  0  0  0  0
    1.1939    3.2944    2.7970 H   0  0  0  0  0  0  0  0  0  0  0  0
    0.4155    3.7991    1.2837 H   0  0  0  0  0  0  0  0  0  0  0  0
  1  2  1  0  0  0  0
  2  3  1  0  0  0  0
  2  4  1  0  0  0  0
  2  5  1  0  0  0  0
  5  6  2  0  0  0  0
  5  7  1  0  0  0  0
  7  8  1  0  0  0  0
  7  9  1  0  0  0  0
  9 10  1  0  0  0  0
  9 11  1  0  0  0  0
  9 21  1  0  0  0  0
 11 12  1  0  0  0  0
 11 13  1  0  0  0  0
 11 14  1  0  0  0  0
 14 15  1  0  0  0  0
 14 16  1  0  0  0  0
 14 17  1  0  0  0  0
 17 18  2  0  0  0  0
 17 19  1  0  0  0  0
 19 20  1  0  0  0  0
 21 22  2  0  0  0  0
 21 23  1  0  0  0  0
 23 24  1  0  0  0  0
 23 25  1  0  0  0  0
 25 26  1  0  0  0  0
 25 27  1  0  0  0  0
 25 28  1  0  0  0  0
M  END
$$$$

  -OEChem-02102214123D

 28 27  0     1  0  0  0  0  0999 V2000
   -3.2684   -3.7444    1.1234 H   0  0  0  0  0  0  0  0  0  0  0  0
   -3.2396   -2.7372    0.6985 C   0  0  0  0  0  0  0  0  0  0  0  0
   -3.8916   -2.0873    1.2871 H   0  0  0  0  0  0  0  0  0  0  0  0
   -3.6081   -2.7778   -0.3294 H   0  0  0  0  0  0  0  0  0  0  0  0
   -1.8204   -2.2027    0.7171 C   0  0  0  0  0  0  0  0  0  0  0  0
   -0.9163   -2.8795    1.1809 O   0  0  0  0  0  0  0  0  0  0  0  0
   -1.5544   -0.9508    0.2054 N   0  0  0  0  0  0  0  0  0  0  0  0
   -2.3490   -0.3877   -0.0936 H   0  0  0  0  0  0  0  0  0  0  0  0
   -0.2408   -0.2906    0.2382 C   0  0  1  0  0  0  0  0  0  0  0  0
    0.3908   -0.7822    0.9856 H   0  0  0  0  0  0  0  0  0  0  0  0
    0.4500   -0.4401   -1.1298 C   0  0  0  0  0  0  0  0  0  0  0  0
    1.4479    0.0091   -1.0909 H   0  0  0  0  0  0  0  0  0  0  0  0
    0.5899   -1.5125   -1.3092 H   0  0  0  0  0  0  0  0  0  0  0  0
   -0.3378    0.1816   -2.3071 C   0  0  0  0  0  0  0  0  0  0  0  0
   -1.3698    0.3963   -2.0188 H   0  0  0  0  0  0  0  0  0  0  0  0
    0.1166    1.1337   -2.5954 H   0  0  0  0  0  0  0  0  0  0  0  0
   -0.3763   -0.7470   -3.5145 C   0  0  0  0  0  0  0  0  0  0  0  0
    0.6621   -0.9546   -4.1191 O   0  0  0  0  0  0  0  0  0  0  0  0
   -1.5603   -1.3157   -3.8416 O   0  0  0  0  0  0  0  0  0  0  0  0
   -1.3801   -1.8690   -4.6168 H   0  0  0  0  0  0  0  0  0  0  0  0
   -0.3570    1.1860    0.6719 C   0  0  0  0  0  0  0  0  0  0  0  0
   -1.2834    1.8765    0.2625 O   0  0  0  0  0  0  0  0  0  0  0  0
    0.5209    1.7161    1.5993 N   0  0  0  0  0  0  0  0  0  0  0  0
    1.2258    1.0964    1.9887 H   0  0  0  0  0  0  0  0  0  0  0  0
    0.4066    3.0720    2.1237 C   0  0  0  0  0  0  0  0  0  0  0  0
   -0.5341    3.1930    2.6712 H   0  0  0  0  0  0  0  0  0  0  0  0
    1.2349    3.2849    2.8062 H   0  0  0  0  0  0  0  0  0  0  0  0
    0.4360    3.8027    1.3083 H   0  0  0  0  0  0  0  0  0  0  0  0
  1  2  1  0  0  0  0
  2  3  1  0  0  0  0
  2  4  1  0  0  0  0
  2  5  1  0  0  0  0
  5  6  2  0  0  0  0
  5  7  1  0  0  0  0
  7  8  1  0  0  0  0
  7  9  1  0  0  0  0
  9 10  1  0  0  0  0
  9 11  1  0  0  0  0
  9 21  1  0  0  0  0
 11 12  1  0  0  0  0
 11 13  1  0  0  0  0
 11 14  1  0  0  0  0
 14 15  1  0  0  0  0
 14 16  1  0  0  0  0
 14 17  1  0  0  0  0
 17 18  2  0  0  0  0
 17 19  1  0  0  0  0
 19 20  1  0  0  0  0
 21 22  2  0  0  0  0
 21 23  1  0  0  0  0
 23 24  1  0  0  0  0
 23 25  1  0  0  0  0
 25 26  1  0  0  0  0
 25 27  1  0  0  0  0
 25 28  1  0  0  0  0
M  END
$$$$

  -OEChem-02102214123D

 28 27  0     1  0  0  0  0  0999 V2000
   -3.2937   -3.7379    0.9996 H   0  0  0  0  0  0  0  0  0  0  0  0
   -3.2542   -2.7253    0.5887 C   0  0  0  0  0  0  0  0  0  0  0  0
   -3.9458   -2.0901    1.1473 H   0  0  0  0  0  0  0  0  0  0  0  0
   -3.5643   -2.7573   -0.4587 H   0  0  0  0  0  0  0  0  0  0  0  0
   -1.8458   -2.1727    0.6921 C   0  0  0  0  0  0  0  0  0  0  0  0
   -0.9608   -2.8383    1.2069 O   0  0  0  0  0  0  0  0  0  0  0  0
   -1.5672   -0.9193    0.1920 N   0  0  0  0  0  0  0  0  0  0  0  0
   -2.3433   -0.3859   -0.1957 H   0  0  0  0  0  0  0  0  0  0  0  0
   -0.2532   -0.2622    0.2391 C   0  0  1  0  0  0  0  0  0  0  0  0
    0.3682   -0.7594    0.9912 H   0  0  0  0  0  0  0  0  0  0  0  0
    0.4402   -0.4394   -1.1242 C   0  0  0  0  0  0  0  0  0  0  0  0
    1.4307    0.0253   -1.0814 H   0  0  0  0  0  0  0  0  0  0  0  0
    0.6003   -1.5111   -1.2907 H   0  0  0  0  0  0  0  0  0  0  0  0
   -0.3421    0.1678   -2.3126 C   0  0  0  0  0  0  0  0  0  0  0  0
   -1.2670    0.6465   -1.9824 H   0  0  0  0  0  0  0  0  0  0  0  0
    0.2644    0.9414   -2.7929 H   0  0  0  0  0  0  0  0  0  0  0  0
   -0.6999   -0.8967   -3.3421 C   0  0  0  0  0  0  0  0  0  0  0  0
    0.0693   -1.0929   -4.2671 O   0  0  0  0  0  0  0  0  0  0  0  0
   -1.8494   -1.5904   -3.1622 O   0  0  0  0  0  0  0  0  0  0  0  0
   -1.8914   -2.2180   -3.8999 H   0  0  0  0  0  0  0  0  0  0  0  0
   -0.3505    1.2150    0.6792 C   0  0  0  0  0  0  0  0  0  0  0  0
   -1.2608    1.9260    0.2695 O   0  0  0  0  0  0  0  0  0  0  0  0
    0.5321    1.7262    1.6130 N   0  0  0  0  0  0  0  0  0  0  0  0
    1.2217    1.0919    2.0060 H   0  0  0  0  0  0  0  0  0  0  0  0
    0.4385    3.0816    2.1428 C   0  0  0  0  0  0  0  0  0  0  0  0
   -0.5043    3.2178    2.6829 H   0  0  0  0  0  0  0  0  0  0  0  0
    1.2647    3.2759    2.8335 H   0  0  0  0  0  0  0  0  0  0  0  0
    0.4888    3.8152    1.3311 H   0  0  0  0  0  0  0  0  0  0  0  0
  1  2  1  0  0  0  0
  2  3  1  0  0  0  0
  2  4  1  0  0  0  0
  2  5  1  0  0  0  0
  5  6  2  0  0  0  0
  5  7  1  0  0  0  0
  7  8  1  0  0  0  0
  7  9  1  0  0  0  0
  9 10  1  0  0  0  0
  9 11  1  0  0  0  0
  9 21  1  0  0  0  0
 11 12  1  0  0  0  0
 11 13  1  0  0  0  0
 11 14  1  0  0  0  0
 14 15  1  0  0  0  0
 14 16  1  0  0  0  0
 14 17  1  0  0  0  0
 17 18  2  0  0  0  0
 17 19  1  0  0  0  0
 19 20  1  0  0  0  0
 21 22  2  0  0  0  0
 21 23  1  0  0  0  0
 23 24  1  0  0  0  0
 23 25  1  0  0  0  0
 25 26  1  0  0  0  0
 25 27  1  0  0  0  0
 25 28  1  0  0  0  0
M  END
$$$$

  -OEChem-02102214123D

 28 27  0     1  0  0  0  0  0999 V2000
   -3.0540   -3.8857    1.1369 H   0  0  0  0  0  0  0  0  0  0  0  0
   -3.0969   -2.8710    0.7319 C   0  0  0  0  0  0  0  0  0  0  0  0
   -3.8116   -2.2869    1.3167 H   0  0  0  0  0  0  0  0  0  0  0  0
   -3.4388   -2.9188   -0.3053 H   0  0  0  0  0  0  0  0  0  0  0  0
   -1.7266   -2.2238    0.7922 C   0  0  0  0  0  0  0  0  0  0  0  0
   -0.7745   -2.8395    1.2466 O   0  0  0  0  0  0  0  0  0  0  0  0
   -1.5556   -0.9452    0.3079 N   0  0  0  0  0  0  0  0  0  0  0  0
   -2.3719   -0.4894   -0.0978 H   0  0  0  0  0  0  0  0  0  0  0  0
   -0.2742   -0.2299    0.2349 C   0  0  1  0  0  0  0  0  0  0  0  0
    0.4432   -0.7186    0.9021 H   0  0  0  0  0  0  0  0  0  0  0  0
    0.2731   -0.3619   -1.1995 C   0  0  0  0  0  0  0  0  0  0  0  0
    1.2324    0.1641   -1.2456 H   0  0  0  0  0  0  0  0  0  0  0  0
    0.4806   -1.4176   -1.4089 H   0  0  0  0  0  0  0  0  0  0  0  0
   -0.6556    0.2222   -2.2895 C   0  0  0  0  0  0  0  0  0  0  0  0
   -1.3959    0.9091   -1.8732 H   0  0  0  0  0  0  0  0  0  0  0  0
   -0.0537    0.7942   -3.0010 H   0  0  0  0  0  0  0  0  0  0  0  0
   -1.3689   -0.8820   -3.0613 C   0  0  0  0  0  0  0  0  0  0  0  0
   -2.4598   -1.2576   -2.6624 O   0  0  0  0  0  0  0  0  0  0  0  0
   -0.7431   -1.4076   -4.1398 O   0  0  0  0  0  0  0  0  0  0  0  0
   -1.3378   -2.0898   -4.4865 H   0  0  0  0  0  0  0  0  0  0  0  0
   -0.3727    1.2306    0.7301 C   0  0  0  0  0  0  0  0  0  0  0  0
   -1.3391    1.9265    0.4422 O   0  0  0  0  0  0  0  0  0  0  0  0
    0.5929    1.7449    1.5765 N   0  0  0  0  0  0  0  0  0  0  0  0
    1.3265    1.1150    1.8882 H   0  0  0  0  0  0  0  0  0  0  0  0
    0.5057    3.0728    2.1729 C   0  0  0  0  0  0  0  0  0  0  0  0
   -0.3699    3.1420    2.8268 H   0  0  0  0  0  0  0  0  0  0  0  0
    1.4004    3.2804    2.7676 H   0  0  0  0  0  0  0  0  0  0  0  0
    0.4249    3.8388    1.3944 H   0  0  0  0  0  0  0  0  0  0  0  0
  1  2  1  0  0  0  0
  2  3  1  0  0  0  0
  2  4  1  0  0  0  0
  2  5  1  0  0  0  0
  5  6  2  0  0  0  0
  5  7  1  0  0  0  0
  7  8  1  0  0  0  0
  7  9  1  0  0  0  0
  9 10  1  0  0  0  0
  9 11  1  0  0  0  0
  9 21  1  0  0  0  0
 11 12  1  0  0  0  0
 11 13  1  0  0  0  0
 11 14  1  0  0  0  0
 14 15  1  0  0  0  0
 14 16  1  0  0  0  0
 14 17  1  0  0  0  0
 17 18  2  0  0  0  0
 17 19  1  0  0  0  0
 19 20  1  0  0  0  0
 21 22  2  0  0  0  0
 21 23  1  0  0  0  0
 23 24  1  0  0  0  0
 23 25  1  0  0  0  0
 25 26  1  0  0  0  0
 25 27  1  0  0  0  0
 25 28  1  0  0  0  0
M  END
$$$$

  -OEChem-02102214123D

 28 27  0     1  0  0  0  0  0999 V2000
   -3.1490   -3.8155    1.3148 H   0  0  0  0  0  0  0  0  0  0  0  0
   -3.1497   -2.8419    0.8172 C   0  0  0  0  0  0  0  0  0  0  0  0
   -3.8822   -2.1956    1.3062 H   0  0  0  0  0  0  0  0  0  0  0  0
   -3.4351   -2.9809   -0.2285 H   0  0  0  0  0  0  0  0  0  0  0  0
   -1.7713   -2.2144    0.8933 C   0  0  0  0  0  0  0  0  0  0  0  0
   -0.8577   -2.8071    1.4472 O   0  0  0  0  0  0  0  0  0  0  0  0
   -1.5583   -0.9678    0.3435 N   0  0  0  0  0  0  0  0  0  0  0  0
   -2.3570   -0.4978   -0.0758 H   0  0  0  0  0  0  0  0  0  0  0  0
   -0.2609   -0.2839    0.2901 C   0  0  1  0  0  0  0  0  0  0  0  0
    0.4112   -0.7419    1.0227 H   0  0  0  0  0  0  0  0  0  0  0  0
    0.3835   -0.4805   -1.1003 C   0  0  0  0  0  0  0  0  0  0  0  0
    1.3483    0.0369   -1.0903 H   0  0  0  0  0  0  0  0  0  0  0  0
    0.5996   -1.5445   -1.2480 H   0  0  0  0  0  0  0  0  0  0  0  0
   -0.4348    0.0610   -2.3022 C   0  0  0  0  0  0  0  0  0  0  0  0
   -0.9764    0.9672   -2.0233 H   0  0  0  0  0  0  0  0  0  0  0  0
    0.2738    0.3456   -3.0846 H   0  0  0  0  0  0  0  0  0  0  0  0
   -1.4240   -0.9136   -2.9494 C   0  0  0  0  0  0  0  0  0  0  0  0
   -1.6200   -2.0188   -2.4712 O   0  0  0  0  0  0  0  0  0  0  0  0
   -2.0456   -0.4721   -4.0666 O   0  0  0  0  0  0  0  0  0  0  0  0
   -2.6207   -1.1967   -4.3551 H   0  0  0  0  0  0  0  0  0  0  0  0
   -0.3770    1.2003    0.7009 C   0  0  0  0  0  0  0  0  0  0  0  0
   -1.3305    1.8758    0.3304 O   0  0  0  0  0  0  0  0  0  0  0  0
    0.5453    1.7593    1.5668 N   0  0  0  0  0  0  0  0  0  0  0  0
    1.2597    1.1464    1.9493 H   0  0  0  0  0  0  0  0  0  0  0  0
    0.4192    3.1104    2.1006 C   0  0  0  0  0  0  0  0  0  0  0  0
   -0.4987    3.2046    2.6903 H   0  0  0  0  0  0  0  0  0  0  0  0
    1.2712    3.3442    2.7464 H   0  0  0  0  0  0  0  0  0  0  0  0
    0.3920    3.8436    1.2876 H   0  0  0  0  0  0  0  0  0  0  0  0
  1  2  1  0  0  0  0
  2  3  1  0  0  0  0
  2  4  1  0  0  0  0
  2  5  1  0  0  0  0
  5  6  2  0  0  0  0
  5  7  1  0  0  0  0
  7  8  1  0  0  0  0
  7  9  1  0  0  0  0
  9 10  1  0  0  0  0
  9 11  1  0  0  0  0
  9 21  1  0  0  0  0
 11 12  1  0  0  0  0
 11 13  1  0  0  0  0
 11 14  1  0  0  0  0
 14 15  1  0  0  0  0
 14 16  1  0  0  0  0
 14 17  1  0  0  0  0
 17 18  2  0  0  0  0
 17 19  1  0  0  0  0
 19 20  1  0  0  0  0
 21 22  2  0  0  0  0
 21 23  1  0  0  0  0
 23 24  1  0  0  0  0
 23 25  1  0  0  0  0
 25 26  1  0  0  0  0
 25 27  1  0  0  0  0
 25 28  1  0  0  0  0
M  END
$$$$

  -OEChem-02102214123D

 28 27  0     1  0  0  0  0  0999 V2000
   -3.2804   -3.7401    1.2273 H   0  0  0  0  0  0  0  0  0  0  0  0
   -3.2390   -2.7727    0.7191 C   0  0  0  0  0  0  0  0  0  0  0  0
   -3.9595   -2.0975    1.1868 H   0  0  0  0  0  0  0  0  0  0  0  0
   -3.5091   -2.9139   -0.3300 H   0  0  0  0  0  0  0  0  0  0  0  0
   -1.8428   -2.1893    0.8187 C   0  0  0  0  0  0  0  0  0  0  0  0
   -0.9562   -2.8121    1.3816 O   0  0  0  0  0  0  0  0  0  0  0  0
   -1.5776   -0.9557    0.2643 N   0  0  0  0  0  0  0  0  0  0  0  0
   -2.3499   -0.4603   -0.1835 H   0  0  0  0  0  0  0  0  0  0  0  0
   -0.2702   -0.2881    0.2696 C   0  0  1  0  0  0  0  0  0  0  0  0
    0.3551   -0.7458    1.0431 H   0  0  0  0  0  0  0  0  0  0  0  0
    0.4506   -0.4961   -1.0809 C   0  0  0  0  0  0  0  0  0  0  0  0
    1.4262   -0.0028   -1.0227 H   0  0  0  0  0  0  0  0  0  0  0  0
    0.6404   -1.5670   -1.2175 H   0  0  0  0  0  0  0  0  0  0  0  0
   -0.2887    0.0447   -2.3268 C   0  0  0  0  0  0  0  0  0  0  0  0
   -0.6351    1.0672   -2.1558 H   0  0  0  0  0  0  0  0  0  0  0  0
    0.4148    0.0824   -3.1632 H   0  0  0  0  0  0  0  0  0  0  0  0
   -1.4720   -0.8201   -2.7545 C   0  0  0  0  0  0  0  0  0  0  0  0
   -1.2379   -1.8519   -3.3598 O   0  0  0  0  0  0  0  0  0  0  0  0
   -2.7244   -0.4066   -2.4440 O   0  0  0  0  0  0  0  0  0  0  0  0
   -3.3204   -1.0488   -2.8588 H   0  0  0  0  0  0  0  0  0  0  0  0
   -0.3872    1.2038    0.6507 C   0  0  0  0  0  0  0  0  0  0  0  0
   -1.3076    1.8874    0.2187 O   0  0  0  0  0  0  0  0  0  0  0  0
    0.4966    1.7631    1.5554 N   0  0  0  0  0  0  0  0  0  0  0  0
    1.1867    1.1491    1.9785 H   0  0  0  0  0  0  0  0  0  0  0  0
    0.3793    3.1322    2.0429 C   0  0  0  0  0  0  0  0  0  0  0  0
   -0.5559    3.2619    2.5978 H   0  0  0  0  0  0  0  0  0  0  0  0
    1.2139    3.3702    2.7093 H   0  0  0  0  0  0  0  0  0  0  0  0
    0.3940    3.8398    1.2070 H   0  0  0  0  0  0  0  0  0  0  0  0
  1  2  1  0  0  0  0
  2  3  1  0  0  0  0
  2  4  1  0  0  0  0
  2  5  1  0  0  0  0
  5  6  2  0  0  0  0
  5  7  1  0  0  0  0
  7  8  1  0  0  0  0
  7  9  1  0  0  0  0
  9 10  1  0  0  0  0
  9 11  1  0  0  0  0
  9 21  1  0  0  0  0
 11 12  1  0  0  0  0
 11 13  1  0  0  0  0
 11 14  1  0  0  0  0
 14 15  1  0  0  0  0
 14 16  1  0  0  0  0
 14 17  1  0  0  0  0
 17 18  2  0  0  0  0
 17 19  1  0  0  0  0
 19 20  1  0  0  0  0
 21 22  2  0  0  0  0
 21 23  1  0  0  0  0
 23 24  1  0  0  0  0
 23 25  1  0  0  0  0
 25 26  1  0  0  0  0
 25 27  1  0  0  0  0
 25 28  1  0  0  0  0
M  END
$$$$

  -OEChem-02102214123D

 28 27  0     1  0  0  0  0  0999 V2000
   -3.2049   -3.7904    1.3809 H   0  0  0  0  0  0  0  0  0  0  0  0
   -3.1954   -2.8236    0.8701 C   0  0  0  0  0  0  0  0  0  0  0  0
   -3.8894   -2.1494    1.3775 H   0  0  0  0  0  0  0  0  0  0  0  0
   -3.5242   -2.9672   -0.1622 H   0  0  0  0  0  0  0  0  0  0  0  0
   -1.7969   -2.2372    0.8864 C   0  0  0  0  0  0  0  0  0  0  0  0
   -0.8773   -2.8570    1.3980 O   0  0  0  0  0  0  0  0  0  0  0  0
   -1.5706   -0.9992    0.3236 N   0  0  0  0  0  0  0  0  0  0  0  0
   -2.3806   -0.4773   -0.0066 H   0  0  0  0  0  0  0  0  0  0  0  0
   -0.2713   -0.3171    0.2832 C   0  0  1  0  0  0  0  0  0  0  0  0
    0.3833   -0.7662    1.0371 H   0  0  0  0  0  0  0  0  0  0  0  0
    0.4270   -0.4914   -1.0860 C   0  0  0  0  0  0  0  0  0  0  0  0
    1.4045   -0.0006   -1.0380 H   0  0  0  0  0  0  0  0  0  0  0  0
    0.6118   -1.5615   -1.2334 H   0  0  0  0  0  0  0  0  0  0  0  0
   -0.3212    0.0462   -2.3313 C   0  0  0  0  0  0  0  0  0  0  0  0
   -0.4509    1.1275   -2.2280 H   0  0  0  0  0  0  0  0  0  0  0  0
    0.3001   -0.1203   -3.2152 H   0  0  0  0  0  0  0  0  0  0  0  0
   -1.6911   -0.5728   -2.6050 C   0  0  0  0  0  0  0  0  0  0  0  0
   -1.7871   -1.7881   -2.6595 O   0  0  0  0  0  0  0  0  0  0  0  0
   -2.7361    0.2642   -2.7968 O   0  0  0  0  0  0  0  0  0  0  0  0
   -3.4986   -0.2982   -2.9970 H   0  0  0  0  0  0  0  0  0  0  0  0
   -0.4086    1.1693    0.6720 C   0  0  0  0  0  0  0  0  0  0  0  0
   -1.3571    1.8276    0.2622 O   0  0  0  0  0  0  0  0  0  0  0  0
    0.4885    1.7515    1.5485 N   0  0  0  0  0  0  0  0  0  0  0  0
    1.2132    1.1587    1.9432 H   0  0  0  0  0  0  0  0  0  0  0  0
    0.3616    3.1236    2.0252 C   0  0  0  0  0  0  0  0  0  0  0  0
   -0.5766    3.2531    2.5751 H   0  0  0  0  0  0  0  0  0  0  0  0
    1.1918    3.3708    2.6937 H   0  0  0  0  0  0  0  0  0  0  0  0
    0.3757    3.8244    1.1838 H   0  0  0  0  0  0  0  0  0  0  0  0
  1  2  1  0  0  0  0
  2  3  1  0  0  0  0
  2  4  1  0  0  0  0
  2  5  1  0  0  0  0
  5  6  2  0  0  0  0
  5  7  1  0  0  0  0
  7  8  1  0  0  0  0
  7  9  1  0  0  0  0
  9 10  1  0  0  0  0
  9 11  1  0  0  0  0
  9 21  1  0  0  0  0
 11 12  1  0  0  0  0
 11 13  1  0  0  0  0
 11 14  1  0  0  0  0
 14 15  1  0  0  0  0
 14 16  1  0  0  0  0
 14 17  1  0  0  0  0
 17 18  2  0  0  0  0
 17 19  1  0  0  0  0
 19 20  1  0  0  0  0
 21 22  2  0  0  0  0
 21 23  1  0  0  0  0
 23 24  1  0  0  0  0
 23 25  1  0  0  0  0
 25 26  1  0  0  0  0
 25 27  1  0  0  0  0
 25 28  1  0  0  0  0
M  END
$$$$

  -OEChem-02102214123D

 28 27  0     1  0  0  0  0  0999 V2000
   -3.1423   -3.8544    1.4354 H   0  0  0  0  0  0  0  0  0  0  0  0
   -3.1537   -2.8866    0.9266 C   0  0  0  0  0  0  0  0  0  0  0  0
   -3.8771   -2.2350    1.4223 H   0  0  0  0  0  0  0  0  0  0  0  0
   -3.4598   -3.0374   -0.1118 H   0  0  0  0  0  0  0  0  0  0  0  0
   -1.7747   -2.2574    0.9687 C   0  0  0  0  0  0  0  0  0  0  0  0
   -0.8475   -2.8446    1.5053 O   0  0  0  0  0  0  0  0  0  0  0  0
   -1.5730   -1.0202    0.3955 N   0  0  0  0  0  0  0  0  0  0  0  0
   -2.3805   -0.5612   -0.0202 H   0  0  0  0  0  0  0  0  0  0  0  0
   -0.2809   -0.3297    0.3156 C   0  0  1  0  0  0  0  0  0  0  0  0
    0.4012   -0.7735    1.0482 H   0  0  0  0  0  0  0  0  0  0  0  0
    0.3809   -0.4797   -1.0758 C   0  0  0  0  0  0  0  0  0  0  0  0
    1.3677   -0.0068   -1.0423 H   0  0  0  0  0  0  0  0  0  0  0  0
    0.5454   -1.5518   -1.2311 H   0  0  0  0  0  0  0  0  0  0  0  0
   -0.3674    0.0552   -2.3271 C   0  0  0  0  0  0  0  0  0  0  0  0
   -0.2700    1.1451   -2.3287 H   0  0  0  0  0  0  0  0  0  0  0  0
    0.1397   -0.3133   -3.2228 H   0  0  0  0  0  0  0  0  0  0  0  0
   -1.8564   -0.2561   -2.4734 C   0  0  0  0  0  0  0  0  0  0  0  0
   -2.2289   -1.4167   -2.4088 O   0  0  0  0  0  0  0  0  0  0  0  0
   -2.6901    0.7789   -2.7248 O   0  0  0  0  0  0  0  0  0  0  0  0
   -3.5777    0.4025   -2.8114 H   0  0  0  0  0  0  0  0  0  0  0  0
   -0.4210    1.1567    0.7036 C   0  0  0  0  0  0  0  0  0  0  0  0
   -1.3689    1.8141    0.2913 O   0  0  0  0  0  0  0  0  0  0  0  0
    0.4948    1.7501    1.5531 N   0  0  0  0  0  0  0  0  0  0  0  0
    1.2236    1.1607    1.9450 H   0  0  0  0  0  0  0  0  0  0  0  0
    0.3842    3.1314    2.0071 C   0  0  0  0  0  0  0  0  0  0  0  0
   -0.5471    3.2790    2.5642 H   0  0  0  0  0  0  0  0  0  0  0  0
    1.2232    3.3830    2.6630 H   0  0  0  0  0  0  0  0  0  0  0  0
    0.3963    3.8173    1.1533 H   0  0  0  0  0  0  0  0  0  0  0  0
  1  2  1  0  0  0  0
  2  3  1  0  0  0  0
  2  4  1  0  0  0  0
  2  5  1  0  0  0  0
  5  6  2  0  0  0  0
  5  7  1  0  0  0  0
  7  8  1  0  0  0  0
  7  9  1  0  0  0  0
  9 10  1  0  0  0  0
  9 11  1  0  0  0  0
  9 21  1  0  0  0  0
 11 12  1  0  0  0  0
 11 13  1  0  0  0  0
 11 14  1  0  0  0  0
 14 15  1  0  0  0  0
 14 16  1  0  0  0  0
 14 17  1  0  0  0  0
 17 18  2  0  0  0  0
 17 19  1  0  0  0  0
 19 20  1  0  0  0  0
 21 22  2  0  0  0  0
 21 23  1  0  0  0  0
 23 24  1  0  0  0  0
 23 25  1  0  0  0  0
 25 26  1  0  0  0  0
 25 27  1  0  0  0  0
 25 28  1  0  0  0  0
M  END
$$$$

  -OEChem-02102214123D

 28 27  0     1  0  0  0  0  0999 V2000
   -3.0426   -3.9460    1.3762 H   0  0  0  0  0  0  0  0  0  0  0  0
   -3.0918   -2.9489    0.9304 C   0  0  0  0  0  0  0  0  0  0  0  0
   -3.8317   -2.3550    1.4724 H   0  0  0  0  0  0  0  0  0  0  0  0
   -3.4043   -3.0440   -0.1127 H   0  0  0  0  0  0  0  0  0  0  0  0
   -1.7353   -2.2749    1.0024 C   0  0  0  0  0  0  0  0  0  0  0  0
   -0.7981   -2.8365    1.5489 O   0  0  0  0  0  0  0  0  0  0  0  0
   -1.5659   -1.0286    0.4393 N   0  0  0  0  0  0  0  0  0  0  0  0
   -2.3604   -0.6483   -0.0729 H   0  0  0  0  0  0  0  0  0  0  0  0
   -0.2817   -0.3280    0.3227 C   0  0  1  0  0  0  0  0  0  0  0  0
    0.4326   -0.7788    1.0191 H   0  0  0  0  0  0  0  0  0  0  0  0
    0.3219   -0.4489   -1.0981 C   0  0  0  0  0  0  0  0  0  0  0  0
    1.3142    0.0140   -1.0914 H   0  0  0  0  0  0  0  0  0  0  0  0
    0.4743   -1.5201   -1.2700 H   0  0  0  0  0  0  0  0  0  0  0  0
   -0.4517    0.0963   -2.3345 C   0  0  0  0  0  0  0  0  0  0  0  0
   -0.1363    1.1352   -2.4699 H   0  0  0  0  0  0  0  0  0  0  0  0
   -0.1229   -0.4526   -3.2212 H   0  0  0  0  0  0  0  0  0  0  0  0
   -1.9813    0.1170   -2.3415 C   0  0  0  0  0  0  0  0  0  0  0  0
   -2.5985   -0.9209   -2.1587 O   0  0  0  0  0  0  0  0  0  0  0  0
   -2.5789    1.2965   -2.6275 O   0  0  0  0  0  0  0  0  0  0  0  0
   -3.5330    1.1429   -2.5737 H   0  0  0  0  0  0  0  0  0  0  0  0
   -0.4140    1.1525    0.7368 C   0  0  0  0  0  0  0  0  0  0  0  0
   -1.3729    1.8175    0.3639 O   0  0  0  0  0  0  0  0  0  0  0  0
    0.5314    1.7353    1.5607 N   0  0  0  0  0  0  0  0  0  0  0  0
    1.2597    1.1343    1.9357 H   0  0  0  0  0  0  0  0  0  0  0  0
    0.4210    3.1018    2.0576 C   0  0  0  0  0  0  0  0  0  0  0  0
   -0.4824    3.2166    2.6660 H   0  0  0  0  0  0  0  0  0  0  0  0
    1.2887    3.3510    2.6757 H   0  0  0  0  0  0  0  0  0  0  0  0
    0.3767    3.8107    1.2240 H   0  0  0  0  0  0  0  0  0  0  0  0
  1  2  1  0  0  0  0
  2  3  1  0  0  0  0
  2  4  1  0  0  0  0
  2  5  1  0  0  0  0
  5  6  2  0  0  0  0
  5  7  1  0  0  0  0
  7  8  1  0  0  0  0
  7  9  1  0  0  0  0
  9 10  1  0  0  0  0
  9 11  1  0  0  0  0
  9 21  1  0  0  0  0
 11 12  1  0  0  0  0
 11 13  1  0  0  0  0
 11 14  1  0  0  0  0
 14 15  1  0  0  0  0
 14 16  1  0  0  0  0
 14 17  1  0  0  0  0
 17 18  2  0  0  0  0
 17 19  1  0  0  0  0
 19 20  1  0  0  0  0
 21 22  2  0  0  0  0
 21 23  1  0  0  0  0
 23 24  1  0  0  0  0
 23 25  1  0  0  0  0
 25 26  1  0  0  0  0
 25 27  1  0  0  0  0
 25 28  1  0  0  0  0
M  END
$$$$

  -OEChem-02102214123D

 28 27  0     1  0  0  0  0  0999 V2000
   -3.1743   -3.8390    1.1655 H   0  0  0  0  0  0  0  0  0  0  0  0
   -3.1827   -2.8242    0.7581 C   0  0  0  0  0  0  0  0  0  0  0  0
   -3.8960   -2.2216    1.3254 H   0  0  0  0  0  0  0  0  0  0  0  0
   -3.5006   -2.8654   -0.2867 H   0  0  0  0  0  0  0  0  0  0  0  0
   -1.7985   -2.2114    0.8512 C   0  0  0  0  0  0  0  0  0  0  0  0
   -0.8747   -2.8512    1.3299 O   0  0  0  0  0  0  0  0  0  0  0  0
   -1.5863   -0.9368    0.3728 N   0  0  0  0  0  0  0  0  0  0  0  0
   -2.3737   -0.4761   -0.0817 H   0  0  0  0  0  0  0  0  0  0  0  0
   -0.2832   -0.2677    0.3044 C   0  0  1  0  0  0  0  0  0  0  0  0
    0.4105   -0.7820    0.9774 H   0  0  0  0  0  0  0  0  0  0  0  0
    0.3150   -0.3533   -1.1182 C   0  0  0  0  0  0  0  0  0  0  0  0
    1.3198    0.0811   -1.0871 H   0  0  0  0  0  0  0  0  0  0  0  0
    0.4444   -1.4211   -1.3260 H   0  0  0  0  0  0  0  0  0  0  0  0
   -0.4242    0.2552   -2.3484 C   0  0  0  0  0  0  0  0  0  0  0  0
    0.1283    1.1564   -2.6334 H   0  0  0  0  0  0  0  0  0  0  0  0
   -0.3276   -0.4488   -3.1794 H   0  0  0  0  0  0  0  0  0  0  0  0
   -1.9026    0.6560   -2.2750 C   0  0  0  0  0  0  0  0  0  0  0  0
   -2.1822    1.7989   -2.5916 O   0  0  0  0  0  0  0  0  0  0  0  0
   -2.8435   -0.2857   -2.0200 O   0  0  0  0  0  0  0  0  0  0  0  0
   -3.6887    0.1793   -2.1314 H   0  0  0  0  0  0  0  0  0  0  0  0
   -0.3603    1.1876    0.8123 C   0  0  0  0  0  0  0  0  0  0  0  0
   -1.3234    1.8899    0.5339 O   0  0  0  0  0  0  0  0  0  0  0  0
    0.6059    1.6818    1.6698 N   0  0  0  0  0  0  0  0  0  0  0  0
    1.3367    1.0444    1.9724 H   0  0  0  0  0  0  0  0  0  0  0  0
    0.5327    3.0076    2.2732 C   0  0  0  0  0  0  0  0  0  0  0  0
   -0.3612    3.0946    2.8997 H   0  0  0  0  0  0  0  0  0  0  0  0
    1.4125    3.1887    2.8982 H   0  0  0  0  0  0  0  0  0  0  0  0
    0.4958    3.7802    1.4977 H   0  0  0  0  0  0  0  0  0  0  0  0
  1  2  1  0  0  0  0
  2  3  1  0  0  0  0
  2  4  1  0  0  0  0
  2  5  1  0  0  0  0
  5  6  2  0  0  0  0
  5  7  1  0  0  0  0
  7  8  1  0  0  0  0
  7  9  1  0  0  0  0
  9 10  1  0  0  0  0
  9 11  1  0  0  0  0
  9 21  1  0  0  0  0
 11 12  1  0  0  0  0
 11 13  1  0  0  0  0
 11 14  1  0  0  0  0
 14 15  1  0  0  0  0
 14 16  1  0  0  0  0
 14 17  1  0  0  0  0
 17 18  2  0  0  0  0
 17 19  1  0  0  0  0
 19 20  1  0  0  0  0
 21 22  2  0  0  0  0
 21 23  1  0  0  0  0
 23 24  1  0  0  0  0
 23 25  1  0  0  0  0
 25 26  1  0  0  0  0
 25 27  1  0  0  0  0
 25 28  1  0  0  0  0
M  END
$$$$

  -OEChem-02102214123D

 28 27  0     1  0  0  0  0  0999 V2000
   -3.0373   -3.8987    1.3862 H   0  0  0  0  0  0  0  0  0  0  0  0
   -3.0969   -2.9016    0.9413 C   0  0  0  0  0  0  0  0  0  0  0  0
   -3.8105   -2.3026    1.5121 H   0  0  0  0  0  0  0  0  0  0  0  0
   -3.4520   -2.9944   -0.0881 H   0  0  0  0  0  0  0  0  0  0  0  0
   -1.7338   -2.2368    0.9590 C   0  0  0  0  0  0  0  0  0  0  0  0
   -0.7726   -2.8190    1.4381 O   0  0  0  0  0  0  0  0  0  0  0  0
   -1.5832   -0.9774    0.4208 N   0  0  0  0  0  0  0  0  0  0  0  0
   -2.4014   -0.5661   -0.0325 H   0  0  0  0  0  0  0  0  0  0  0  0
   -0.3128   -0.2495    0.3054 C   0  0  1  0  0  0  0  0  0  0  0  0
    0.3956   -0.6949    1.0113 H   0  0  0  0  0  0  0  0  0  0  0  0
    0.2973   -0.4415   -1.1043 C   0  0  0  0  0  0  0  0  0  0  0  0
    1.2674    0.0665   -1.1111 H   0  0  0  0  0  0  0  0  0  0  0  0
    0.5052   -1.5114   -1.2161 H   0  0  0  0  0  0  0  0  0  0  0  0
   -0.4765    0.0123   -2.3782 C   0  0  0  0  0  0  0  0  0  0  0  0
    0.1538    0.7230   -2.9206 H   0  0  0  0  0  0  0  0  0  0  0  0
   -0.6009   -0.8572   -3.0301 H   0  0  0  0  0  0  0  0  0  0  0  0
   -1.8538    0.6558   -2.2234 C   0  0  0  0  0  0  0  0  0  0  0  0
   -2.8139   -0.0440   -1.9360 O   0  0  0  0  0  0  0  0  0  0  0  0
   -1.9383    1.9843   -2.4641 O   0  0  0  0  0  0  0  0  0  0  0  0
   -2.8329    2.2475   -2.2007 H   0  0  0  0  0  0  0  0  0  0  0  0
   -0.4254    1.2298    0.7416 C   0  0  0  0  0  0  0  0  0  0  0  0
   -1.4295    1.8866    0.4944 O   0  0  0  0  0  0  0  0  0  0  0  0
    0.5450    1.7861    1.5555 N   0  0  0  0  0  0  0  0  0  0  0  0
    1.3068    1.1848    1.8555 H   0  0  0  0  0  0  0  0  0  0  0  0
    0.4358    3.1221    2.1300 C   0  0  0  0  0  0  0  0  0  0  0  0
   -0.4377    3.1863    2.7876 H   0  0  0  0  0  0  0  0  0  0  0  0
    1.3294    3.3568    2.7166 H   0  0  0  0  0  0  0  0  0  0  0  0
    0.3362    3.8727    1.3387 H   0  0  0  0  0  0  0  0  0  0  0  0
  1  2  1  0  0  0  0
  2  3  1  0  0  0  0
  2  4  1  0  0  0  0
  2  5  1  0  0  0  0
  5  6  2  0  0  0  0
  5  7  1  0  0  0  0
  7  8  1  0  0  0  0
  7  9  1  0  0  0  0
  9 10  1  0  0  0  0
  9 11  1  0  0  0  0
  9 21  1  0  0  0  0
 11 12  1  0  0  0  0
 11 13  1  0  0  0  0
 11 14  1  0  0  0  0
 14 15  1  0  0  0  0
 14 16  1  0  0  0  0
 14 17  1  0  0  0  0
 17 18  2  0  0  0  0
 17 19  1  0  0  0  0
 19 20  1  0  0  0  0
 21 22  2  0  0  0  0
 21 23  1  0  0  0  0
 23 24  1  0  0  0  0
 23 25  1  0  0  0  0
 25 26  1  0  0  0  0
 25 27  1  0  0  0  0
 25 28  1  0  0  0  0
M  END
$$$$

  -OEChem-02102214123D

 28 27  0     1  0  0  0  0  0999 V2000
   -2.7872   -3.8553    1.7313 H   0  0  0  0  0  0  0  0  0  0  0  0
   -2.9241   -2.8772    1.2619 C   0  0  0  0  0  0  0  0  0  0  0  0
   -3.5780   -2.2708    1.8932 H   0  0  0  0  0  0  0  0  0  0  0  0
   -3.3980   -3.0162    0.2870 H   0  0  0  0  0  0  0  0  0  0  0  0
   -1.5851   -2.1856    1.0917 C   0  0  0  0  0  0  0  0  0  0  0  0
   -0.5587   -2.7334    1.4643 O   0  0  0  0  0  0  0  0  0  0  0  0
   -1.5303   -0.9426    0.5000 N   0  0  0  0  0  0  0  0  0  0  0  0
   -2.4092   -0.5430    0.1644 H   0  0  0  0  0  0  0  0  0  0  0  0
   -0.3067   -0.1702    0.2475 C   0  0  1  0  0  0  0  0  0  0  0  0
    0.4623   -0.5546    0.9256 H   0  0  0  0  0  0  0  0  0  0  0  0
    0.2155   -0.4643   -1.1792 C   0  0  0  0  0  0  0  0  0  0  0  0
    1.1417    0.1066   -1.3034 H   0  0  0  0  0  0  0  0  0  0  0  0
    0.4906   -1.5238   -1.2251 H   0  0  0  0  0  0  0  0  0  0  0  0
   -0.6876   -0.1542   -2.4051 C   0  0  0  0  0  0  0  0  0  0  0  0
   -0.0737    0.2921   -3.1924 H   0  0  0  0  0  0  0  0  0  0  0  0
   -1.0646   -1.1038   -2.7963 H   0  0  0  0  0  0  0  0  0  0  0  0
   -1.8979    0.7438   -2.1775 C   0  0  0  0  0  0  0  0  0  0  0  0
   -2.9366    0.2390   -1.7767 O   0  0  0  0  0  0  0  0  0  0  0  0
   -1.7499    2.0627   -2.4385 O   0  0  0  0  0  0  0  0  0  0  0  0
   -2.5445    2.4895   -2.0815 H   0  0  0  0  0  0  0  0  0  0  0  0
   -0.4136    1.3258    0.6318 C   0  0  0  0  0  0  0  0  0  0  0  0
   -1.4645    1.9428    0.5043 O   0  0  0  0  0  0  0  0  0  0  0  0
    0.6180    1.9306    1.3277 N   0  0  0  0  0  0  0  0  0  0  0  0
    1.4334    1.3650    1.5447 H   0  0  0  0  0  0  0  0  0  0  0  0
    0.5341    3.2810    1.8717 C   0  0  0  0  0  0  0  0  0  0  0  0
   -0.2547    3.3407    2.6290 H   0  0  0  0  0  0  0  0  0  0  0  0
    1.4838    3.5611    2.3374 H   0  0  0  0  0  0  0  0  0  0  0  0
    0.3147    4.0018    1.0768 H   0  0  0  0  0  0  0  0  0  0  0  0
  1  2  1  0  0  0  0
  2  3  1  0  0  0  0
  2  4  1  0  0  0  0
  2  5  1  0  0  0  0
  5  6  2  0  0  0  0
  5  7  1  0  0  0  0
  7  8  1  0  0  0  0
  7  9  1  0  0  0  0
  9 10  1  0  0  0  0
  9 11  1  0  0  0  0
  9 21  1  0  0  0  0
 11 12  1  0  0  0  0
 11 13  1  0  0  0  0
 11 14  1  0  0  0  0
 14 15  1  0  0  0  0
 14 16  1  0  0  0  0
 14 17  1  0  0  0  0
 17 18  2  0  0  0  0
 17 19  1  0  0  0  0
 19 20  1  0  0  0  0
 21 22  2  0  0  0  0
 21 23  1  0  0  0  0
 23 24  1  0  0  0  0
 23 25  1  0  0  0  0
 25 26  1  0  0  0  0
 25 27  1  0  0  0  0
 25 28  1  0  0  0  0
M  END
$$$$

  -OEChem-02102214123D

 28 27  0     1  0  0  0  0  0999 V2000
   -3.0229   -3.8780    1.2765 H   0  0  0  0  0  0  0  0  0  0  0  0
   -3.0978   -2.8707    0.8575 C   0  0  0  0  0  0  0  0  0  0  0  0
   -3.7875   -2.2845    1.4694 H   0  0  0  0  0  0  0  0  0  0  0  0
   -3.4925   -2.9397   -0.1591 H   0  0  0  0  0  0  0  0  0  0  0  0
   -1.7337   -2.2082    0.8383 C   0  0  0  0  0  0  0  0  0  0  0  0
   -0.7547   -2.8051    1.2593 O   0  0  0  0  0  0  0  0  0  0  0  0
   -1.6012   -0.9343    0.3292 N   0  0  0  0  0  0  0  0  0  0  0  0
   -2.4473   -0.4682   -0.0005 H   0  0  0  0  0  0  0  0  0  0  0  0
   -0.3534   -0.1619    0.2765 C   0  0  1  0  0  0  0  0  0  0  0  0
    0.3097   -0.5861    1.0377 H   0  0  0  0  0  0  0  0  0  0  0  0
    0.3657   -0.4212   -1.0685 C   0  0  0  0  0  0  0  0  0  0  0  0
    1.2953    0.1574   -1.0518 H   0  0  0  0  0  0  0  0  0  0  0  0
    0.6490   -1.4786   -1.1105 H   0  0  0  0  0  0  0  0  0  0  0  0
   -0.3776   -0.0685   -2.3813 C   0  0  0  0  0  0  0  0  0  0  0  0
    0.3574    0.1529   -3.1597 H   0  0  0  0  0  0  0  0  0  0  0  0
   -0.9307   -0.9554   -2.7051 H   0  0  0  0  0  0  0  0  0  0  0  0
   -1.3682    1.0841   -2.3129 C   0  0  0  0  0  0  0  0  0  0  0  0
   -2.5563    0.8175   -2.2179 O   0  0  0  0  0  0  0  0  0  0  0  0
   -0.8752    2.3430   -2.3543 O   0  0  0  0  0  0  0  0  0  0  0  0
   -1.6291    2.9183   -2.1474 H   0  0  0  0  0  0  0  0  0  0  0  0
   -0.4922    1.3133    0.7262 C   0  0  0  0  0  0  0  0  0  0  0  0
   -1.5249    1.9426    0.5294 O   0  0  0  0  0  0  0  0  0  0  0  0
    0.4520    1.8611    1.5763 N   0  0  0  0  0  0  0  0  0  0  0  0
    1.2425    1.2791    1.8376 H   0  0  0  0  0  0  0  0  0  0  0  0
    0.3074    3.1711    2.2006 C   0  0  0  0  0  0  0  0  0  0  0  0
   -0.5667    3.1870    2.8601 H   0  0  0  0  0  0  0  0  0  0  0  0
    1.1949    3.4067    2.7958 H   0  0  0  0  0  0  0  0  0  0  0  0
    0.1879    3.9481    1.4382 H   0  0  0  0  0  0  0  0  0  0  0  0
  1  2  1  0  0  0  0
  2  3  1  0  0  0  0
  2  4  1  0  0  0  0
  2  5  1  0  0  0  0
  5  6  2  0  0  0  0
  5  7  1  0  0  0  0
  7  8  1  0  0  0  0
  7  9  1  0  0  0  0
  9 10  1  0  0  0  0
  9 11  1  0  0  0  0
  9 21  1  0  0  0  0
 11 12  1  0  0  0  0
 11 13  1  0  0  0  0
 11 14  1  0  0  0  0
 14 15  1  0  0  0  0
 14 16  1  0  0  0  0
 14 17  1  0  0  0  0
 17 18  2  0  0  0  0
 17 19  1  0  0  0  0
 19 20  1  0  0  0  0
 21 22  2  0  0  0  0
 21 23  1  0  0  0  0
 23 24  1  0  0  0  0
 23 25  1  0  0  0  0
 25 26  1  0  0  0  0
 25 27  1  0  0  0  0
 25 28  1  0  0  0  0
M  END
$$$$

  -OEChem-02102214123D

 28 27  0     1  0  0  0  0  0999 V2000
   -3.2941   -3.7079    1.0473 H   0  0  0  0  0  0  0  0  0  0  0  0
   -3.2724   -2.6937    0.6388 C   0  0  0  0  0  0  0  0  0  0  0  0
   -3.9177   -2.0550    1.2470 H   0  0  0  0  0  0  0  0  0  0  0  0
   -3.6548   -2.7170   -0.3846 H   0  0  0  0  0  0  0  0  0  0  0  0
   -1.8539   -2.1568    0.6486 C   0  0  0  0  0  0  0  0  0  0  0  0
   -0.9364   -2.8550    1.0507 O   0  0  0  0  0  0  0  0  0  0  0  0
   -1.6025   -0.8802    0.1937 N   0  0  0  0  0  0  0  0  0  0  0  0
   -2.4067   -0.3046   -0.0551 H   0  0  0  0  0  0  0  0  0  0  0  0
   -0.3038   -0.1977    0.2700 C   0  0  1  0  0  0  0  0  0  0  0  0
    0.2747   -0.6857    1.0616 H   0  0  0  0  0  0  0  0  0  0  0  0
    0.4952   -0.4420   -1.0326 C   0  0  0  0  0  0  0  0  0  0  0  0
    1.4633    0.0578   -0.9225 H   0  0  0  0  0  0  0  0  0  0  0  0
    0.6957   -1.5157   -1.1159 H   0  0  0  0  0  0  0  0  0  0  0  0
   -0.1303    0.0340   -2.3647 C   0  0  0  0  0  0  0  0  0  0  0  0
    0.6257   -0.0078   -3.1536 H   0  0  0  0  0  0  0  0  0  0  0  0
   -0.9247   -0.6651   -2.6411 H   0  0  0  0  0  0  0  0  0  0  0  0
   -0.7322    1.4303   -2.3443 C   0  0  0  0  0  0  0  0  0  0  0  0
    0.0306    2.3796   -2.2685 O   0  0  0  0  0  0  0  0  0  0  0  0
   -2.0804    1.5430   -2.3834 O   0  0  0  0  0  0  0  0  0  0  0  0
   -2.2634    2.4781   -2.1998 H   0  0  0  0  0  0  0  0  0  0  0  0
   -0.4293    1.2645    0.7623 C   0  0  0  0  0  0  0  0  0  0  0  0
   -1.4459    1.9093    0.5259 O   0  0  0  0  0  0  0  0  0  0  0  0
    0.4461    1.7533    1.7150 N   0  0  0  0  0  0  0  0  0  0  0  0
    1.2433    1.1756    1.9648 H   0  0  0  0  0  0  0  0  0  0  0  0
    0.3054    3.0665    2.3334 C   0  0  0  0  0  0  0  0  0  0  0  0
   -0.6380    3.1314    2.8858 H   0  0  0  0  0  0  0  0  0  0  0  0
    1.1278    3.2465    3.0322 H   0  0  0  0  0  0  0  0  0  0  0  0
    0.3218    3.8521    1.5704 H   0  0  0  0  0  0  0  0  0  0  0  0
  1  2  1  0  0  0  0
  2  3  1  0  0  0  0
  2  4  1  0  0  0  0
  2  5  1  0  0  0  0
  5  6  2  0  0  0  0
  5  7  1  0  0  0  0
  7  8  1  0  0  0  0
  7  9  1  0  0  0  0
  9 10  1  0  0  0  0
  9 11  1  0  0  0  0
  9 21  1  0  0  0  0
 11 12  1  0  0  0  0
 11 13  1  0  0  0  0
 11 14  1  0  0  0  0
 14 15  1  0  0  0  0
 14 16  1  0  0  0  0
 14 17  1  0  0  0  0
 17 18  2  0  0  0  0
 17 19  1  0  0  0  0
 19 20  1  0  0  0  0
 21 22  2  0  0  0  0
 21 23  1  0  0  0  0
 23 24  1  0  0  0  0
 23 25  1  0  0  0  0
 25 26  1  0  0  0  0
 25 27  1  0  0  0  0
 25 28  1  0  0  0  0
M  END
$$$$

  -OEChem-02102214123D

 28 27  0     1  0  0  0  0  0999 V2000
   -3.2164   -3.7362    1.1922 H   0  0  0  0  0  0  0  0  0  0  0  0
   -3.2118   -2.7288    0.7669 C   0  0  0  0  0  0  0  0  0  0  0  0
   -3.8277   -2.0791    1.3934 H   0  0  0  0  0  0  0  0  0  0  0  0
   -3.6403   -2.7681   -0.2374 H   0  0  0  0  0  0  0  0  0  0  0  0
   -1.7939   -2.1937    0.7034 C   0  0  0  0  0  0  0  0  0  0  0  0
   -0.8599   -2.8846    1.0795 O   0  0  0  0  0  0  0  0  0  0  0  0
   -1.5644   -0.9239    0.2181 N   0  0  0  0  0  0  0  0  0  0  0  0
   -2.3807   -0.3455    0.0208 H   0  0  0  0  0  0  0  0  0  0  0  0
   -0.2661   -0.2358    0.2499 C   0  0  1  0  0  0  0  0  0  0  0  0
    0.3497   -0.7116    1.0203 H   0  0  0  0  0  0  0  0  0  0  0  0
    0.4783   -0.4529   -1.0882 C   0  0  0  0  0  0  0  0  0  0  0  0
    1.4593    0.0293   -1.0181 H   0  0  0  0  0  0  0  0  0  0  0  0
    0.6566   -1.5275   -1.2031 H   0  0  0  0  0  0  0  0  0  0  0  0
   -0.2246    0.0531   -2.3692 C   0  0  0  0  0  0  0  0  0  0  0  0
    0.3958   -0.1887   -3.2362 H   0  0  0  0  0  0  0  0  0  0  0  0
   -1.1711   -0.4815   -2.4885 H   0  0  0  0  0  0  0  0  0  0  0  0
   -0.5116    1.5495   -2.4013 C   0  0  0  0  0  0  0  0  0  0  0  0
    0.4071    2.3201   -2.1711 O   0  0  0  0  0  0  0  0  0  0  0  0
   -1.7740    1.9446   -2.6853 O   0  0  0  0  0  0  0  0  0  0  0  0
   -1.7833    2.9037   -2.5455 H   0  0  0  0  0  0  0  0  0  0  0  0
   -0.4119    1.2290    0.7216 C   0  0  0  0  0  0  0  0  0  0  0  0
   -1.4347    1.8554    0.4624 O   0  0  0  0  0  0  0  0  0  0  0  0
    0.4686    1.7546    1.6493 N   0  0  0  0  0  0  0  0  0  0  0  0
    1.2853    1.2012    1.8913 H   0  0  0  0  0  0  0  0  0  0  0  0
    0.3232    3.0864    2.2246 C   0  0  0  0  0  0  0  0  0  0  0  0
   -0.6269    3.1699    2.7629 H   0  0  0  0  0  0  0  0  0  0  0  0
    1.1368    3.2864    2.9285 H   0  0  0  0  0  0  0  0  0  0  0  0
    0.3506    3.8479    1.4380 H   0  0  0  0  0  0  0  0  0  0  0  0
  1  2  1  0  0  0  0
  2  3  1  0  0  0  0
  2  4  1  0  0  0  0
  2  5  1  0  0  0  0
  5  6  2  0  0  0  0
  5  7  1  0  0  0  0
  7  8  1  0  0  0  0
  7  9  1  0  0  0  0
  9 10  1  0  0  0  0
  9 11  1  0  0  0  0
  9 21  1  0  0  0  0
 11 12  1  0  0  0  0
 11 13  1  0  0  0  0
 11 14  1  0  0  0  0
 14 15  1  0  0  0  0
 14 16  1  0  0  0  0
 14 17  1  0  0  0  0
 17 18  2  0  0  0  0
 17 19  1  0  0  0  0
 19 20  1  0  0  0  0
 21 22  2  0  0  0  0
 21 23  1  0  0  0  0
 23 24  1  0  0  0  0
 23 25  1  0  0  0  0
 25 26  1  0  0  0  0
 25 27  1  0  0  0  0
 25 28  1  0  0  0  0
M  END
$$$$

  -OEChem-02102214123D

 28 27  0     1  0  0  0  0  0999 V2000
   -3.2191   -3.7514    1.2640 H   0  0  0  0  0  0  0  0  0  0  0  0
   -3.2068   -2.7614    0.7997 C   0  0  0  0  0  0  0  0  0  0  0  0
   -3.8323   -2.0876    1.3904 H   0  0  0  0  0  0  0  0  0  0  0  0
   -3.6191   -2.8394   -0.2091 H   0  0  0  0  0  0  0  0  0  0  0  0
   -1.7875   -2.2303    0.7376 C   0  0  0  0  0  0  0  0  0  0  0  0
   -0.8585   -2.9152    1.1355 O   0  0  0  0  0  0  0  0  0  0  0  0
   -1.5507   -0.9720    0.2270 N   0  0  0  0  0  0  0  0  0  0  0  0
   -2.3638   -0.3930    0.0201 H   0  0  0  0  0  0  0  0  0  0  0  0
   -0.2499   -0.2874    0.2579 C   0  0  1  0  0  0  0  0  0  0  0  0
    0.3736   -0.7555    1.0269 H   0  0  0  0  0  0  0  0  0  0  0  0
    0.4849   -0.4683   -1.0885 C   0  0  0  0  0  0  0  0  0  0  0  0
    1.4806   -0.0170   -1.0208 H   0  0  0  0  0  0  0  0  0  0  0  0
    0.6350   -1.5430   -1.2377 H   0  0  0  0  0  0  0  0  0  0  0  0
   -0.2534    0.0843   -2.3315 C   0  0  0  0  0  0  0  0  0  0  0  0
    0.2130   -0.3302   -3.2289 H   0  0  0  0  0  0  0  0  0  0  0  0
   -1.2934   -0.2522   -2.3232 H   0  0  0  0  0  0  0  0  0  0  0  0
   -0.2295    1.6064   -2.4703 C   0  0  0  0  0  0  0  0  0  0  0  0
    0.7626    2.2214   -2.1105 O   0  0  0  0  0  0  0  0  0  0  0  0
   -1.3205    2.1959   -3.0105 O   0  0  0  0  0  0  0  0  0  0  0  0
   -1.1603    3.1494   -2.9485 H   0  0  0  0  0  0  0  0  0  0  0  0
   -0.4141    1.1836    0.6978 C   0  0  0  0  0  0  0  0  0  0  0  0
   -1.4169    1.8085    0.3671 O   0  0  0  0  0  0  0  0  0  0  0  0
    0.4456    1.7392    1.6267 N   0  0  0  0  0  0  0  0  0  0  0  0
    1.2647    1.1998    1.8911 H   0  0  0  0  0  0  0  0  0  0  0  0
    0.3172    3.1083    2.1101 C   0  0  0  0  0  0  0  0  0  0  0  0
   -0.6570    3.2569    2.5878 H   0  0  0  0  0  0  0  0  0  0  0  0
    1.0980    3.3249    2.8456 H   0  0  0  0  0  0  0  0  0  0  0  0
    0.4153    3.8168    1.2807 H   0  0  0  0  0  0  0  0  0  0  0  0
  1  2  1  0  0  0  0
  2  3  1  0  0  0  0
  2  4  1  0  0  0  0
  2  5  1  0  0  0  0
  5  6  2  0  0  0  0
  5  7  1  0  0  0  0
  7  8  1  0  0  0  0
  7  9  1  0  0  0  0
  9 10  1  0  0  0  0
  9 11  1  0  0  0  0
  9 21  1  0  0  0  0
 11 12  1  0  0  0  0
 11 13  1  0  0  0  0
 11 14  1  0  0  0  0
 14 15  1  0  0  0  0
 14 16  1  0  0  0  0
 14 17  1  0  0  0  0
 17 18  2  0  0  0  0
 17 19  1  0  0  0  0
 19 20  1  0  0  0  0
 21 22  2  0  0  0  0
 21 23  1  0  0  0  0
 23 24  1  0  0  0  0
 23 25  1  0  0  0  0
 25 26  1  0  0  0  0
 25 27  1  0  0  0  0
 25 28  1  0  0  0  0
M  END
$$$$

  -OEChem-02102214123D

 28 27  0     1  0  0  0  0  0999 V2000
   -3.2174   -3.7664    1.3119 H   0  0  0  0  0  0  0  0  0  0  0  0
   -3.2011   -2.7877    0.8241 C   0  0  0  0  0  0  0  0  0  0  0  0
   -3.8324   -2.1006    1.3927 H   0  0  0  0  0  0  0  0  0  0  0  0
   -3.6040   -2.8909   -0.1863 H   0  0  0  0  0  0  0  0  0  0  0  0
   -1.7816   -2.2569    0.7622 C   0  0  0  0  0  0  0  0  0  0  0  0
   -0.8546   -2.9370    1.1727 O   0  0  0  0  0  0  0  0  0  0  0  0
   -1.5420   -1.0058    0.2353 N   0  0  0  0  0  0  0  0  0  0  0  0
   -2.3534   -0.4303    0.0137 H   0  0  0  0  0  0  0  0  0  0  0  0
   -0.2401   -0.3225    0.2646 C   0  0  1  0  0  0  0  0  0  0  0  0
    0.3912   -0.7881    1.0285 H   0  0  0  0  0  0  0  0  0  0  0  0
    0.4813   -0.4723   -1.0898 C   0  0  0  0  0  0  0  0  0  0  0  0
    1.4883   -0.0476   -1.0244 H   0  0  0  0  0  0  0  0  0  0  0  0
    0.6093   -1.5455   -1.2676 H   0  0  0  0  0  0  0  0  0  0  0  0
   -0.2904    0.1178   -2.2979 C   0  0  0  0  0  0  0  0  0  0  0  0
   -0.0200   -0.4528   -3.1901 H   0  0  0  0  0  0  0  0  0  0  0  0
   -1.3678    0.0018   -2.1574 H   0  0  0  0  0  0  0  0  0  0  0  0
    0.0079    1.5881   -2.6059 C   0  0  0  0  0  0  0  0  0  0  0  0
    1.0048    2.1217   -2.1439 O   0  0  0  0  0  0  0  0  0  0  0  0
   -0.8682    2.2253   -3.4159 O   0  0  0  0  0  0  0  0  0  0  0  0
   -0.5572    3.1413   -3.4691 H   0  0  0  0  0  0  0  0  0  0  0  0
   -0.4082    1.1539    0.6834 C   0  0  0  0  0  0  0  0  0  0  0  0
   -1.3876    1.7853    0.2995 O   0  0  0  0  0  0  0  0  0  0  0  0
    0.4425    1.7262    1.6104 N   0  0  0  0  0  0  0  0  0  0  0  0
    1.2497    1.1845    1.9048 H   0  0  0  0  0  0  0  0  0  0  0  0
    0.3291    3.1136    2.0431 C   0  0  0  0  0  0  0  0  0  0  0  0
   -0.6517    3.2963    2.4946 H   0  0  0  0  0  0  0  0  0  0  0  0
    1.0983    3.3427    2.7867 H   0  0  0  0  0  0  0  0  0  0  0  0
    0.4571    3.7908    1.1920 H   0  0  0  0  0  0  0  0  0  0  0  0
  1  2  1  0  0  0  0
  2  3  1  0  0  0  0
  2  4  1  0  0  0  0
  2  5  1  0  0  0  0
  5  6  2  0  0  0  0
  5  7  1  0  0  0  0
  7  8  1  0  0  0  0
  7  9  1  0  0  0  0
  9 10  1  0  0  0  0
  9 11  1  0  0  0  0
  9 21  1  0  0  0  0
 11 12  1  0  0  0  0
 11 13  1  0  0  0  0
 11 14  1  0  0  0  0
 14 15  1  0  0  0  0
 14 16  1  0  0  0  0
 14 17  1  0  0  0  0
 17 18  2  0  0  0  0
 17 19  1  0  0  0  0
 19 20  1  0  0  0  0
 21 22  2  0  0  0  0
 21 23  1  0  0  0  0
 23 24  1  0  0  0  0
 23 25  1  0  0  0  0
 25 26  1  0  0  0  0
 25 27  1  0  0  0  0
 25 28  1  0  0  0  0
M  END
$$$$

  -OEChem-02102214123D

 28 27  0     1  0  0  0  0  0999 V2000
   -3.2046   -3.7826    1.3295 H   0  0  0  0  0  0  0  0  0  0  0  0
   -3.1944   -2.8056    0.8384 C   0  0  0  0  0  0  0  0  0  0  0  0
   -3.8264   -2.1193    1.4071 H   0  0  0  0  0  0  0  0  0  0  0  0
   -3.6003   -2.9136   -0.1703 H   0  0  0  0  0  0  0  0  0  0  0  0
   -1.7769   -2.2704    0.7705 C   0  0  0  0  0  0  0  0  0  0  0  0
   -0.8465   -2.9486    1.1766 O   0  0  0  0  0  0  0  0  0  0  0  0
   -1.5429   -1.0182    0.2436 N   0  0  0  0  0  0  0  0  0  0  0  0
   -2.3566   -0.4440    0.0274 H   0  0  0  0  0  0  0  0  0  0  0  0
   -0.2413   -0.3332    0.2664 C   0  0  1  0  0  0  0  0  0  0  0  0
    0.3999   -0.8033    1.0194 H   0  0  0  0  0  0  0  0  0  0  0  0
    0.4639   -0.4618   -1.0965 C   0  0  0  0  0  0  0  0  0  0  0  0
    1.4722   -0.0409   -1.0320 H   0  0  0  0  0  0  0  0  0  0  0  0
    0.5917   -1.5317   -1.2939 H   0  0  0  0  0  0  0  0  0  0  0  0
   -0.3333    0.1491   -2.2800 C   0  0  0  0  0  0  0  0  0  0  0  0
   -0.2947   -0.5550   -3.1156 H   0  0  0  0  0  0  0  0  0  0  0  0
   -1.3867    0.2740   -2.0184 H   0  0  0  0  0  0  0  0  0  0  0  0
    0.1916    1.4899   -2.8027 C   0  0  0  0  0  0  0  0  0  0  0  0
    1.1105    2.0606   -2.2357 O   0  0  0  0  0  0  0  0  0  0  0  0
   -0.4146    1.9795   -3.9085 O   0  0  0  0  0  0  0  0  0  0  0  0
    0.0101    2.8326   -4.0840 H   0  0  0  0  0  0  0  0  0  0  0  0
   -0.4038    1.1433    0.6880 C   0  0  0  0  0  0  0  0  0  0  0  0
   -1.3812    1.7794    0.3064 O   0  0  0  0  0  0  0  0  0  0  0  0
    0.4540    1.7131    1.6101 N   0  0  0  0  0  0  0  0  0  0  0  0
    1.2622    1.1696    1.8983 H   0  0  0  0  0  0  0  0  0  0  0  0
    0.3537    3.1047    2.0328 C   0  0  0  0  0  0  0  0  0  0  0  0
   -0.6232    3.2985    2.4886 H   0  0  0  0  0  0  0  0  0  0  0  0
    1.1291    3.3337    2.7700 H   0  0  0  0  0  0  0  0  0  0  0  0
    0.4816    3.7742    1.1753 H   0  0  0  0  0  0  0  0  0  0  0  0
  1  2  1  0  0  0  0
  2  3  1  0  0  0  0
  2  4  1  0  0  0  0
  2  5  1  0  0  0  0
  5  6  2  0  0  0  0
  5  7  1  0  0  0  0
  7  8  1  0  0  0  0
  7  9  1  0  0  0  0
  9 10  1  0  0  0  0
  9 11  1  0  0  0  0
  9 21  1  0  0  0  0
 11 12  1  0  0  0  0
 11 13  1  0  0  0  0
 11 14  1  0  0  0  0
 14 15  1  0  0  0  0
 14 16  1  0  0  0  0
 14 17  1  0  0  0  0
 17 18  2  0  0  0  0
 17 19  1  0  0  0  0
 19 20  1  0  0  0  0
 21 22  2  0  0  0  0
 21 23  1  0  0  0  0
 23 24  1  0  0  0  0
 23 25  1  0  0  0  0
 25 26  1  0  0  0  0
 25 27  1  0  0  0  0
 25 28  1  0  0  0  0
M  END
$$$$

  -OEChem-02102214123D

 28 27  0     1  0  0  0  0  0999 V2000
   -3.1809   -3.7940    1.2897 H   0  0  0  0  0  0  0  0  0  0  0  0
   -3.1834   -2.7928    0.8498 C   0  0  0  0  0  0  0  0  0  0  0  0
   -3.7895   -2.1341    1.4765 H   0  0  0  0  0  0  0  0  0  0  0  0
   -3.6278   -2.8467   -0.1470 H   0  0  0  0  0  0  0  0  0  0  0  0
   -1.7669   -2.2588    0.7561 C   0  0  0  0  0  0  0  0  0  0  0  0
   -0.8276   -2.9415    1.1331 O   0  0  0  0  0  0  0  0  0  0  0  0
   -1.5452   -0.9992    0.2420 N   0  0  0  0  0  0  0  0  0  0  0  0
   -2.3644   -0.4237    0.0521 H   0  0  0  0  0  0  0  0  0  0  0  0
   -0.2462   -0.3098    0.2488 C   0  0  1  0  0  0  0  0  0  0  0  0
    0.4057   -0.7854    0.9887 H   0  0  0  0  0  0  0  0  0  0  0  0
    0.4370   -0.4416   -1.1241 C   0  0  0  0  0  0  0  0  0  0  0  0
    1.4348    0.0047   -1.0665 H   0  0  0  0  0  0  0  0  0  0  0  0
    0.5878   -1.5079   -1.3250 H   0  0  0  0  0  0  0  0  0  0  0  0
   -0.3814    0.1625   -2.2960 C   0  0  0  0  0  0  0  0  0  0  0  0
   -0.5995   -0.6374   -3.0090 H   0  0  0  0  0  0  0  0  0  0  0  0
   -1.3434    0.5466   -1.9489 H   0  0  0  0  0  0  0  0  0  0  0  0
    0.3227    1.2885   -3.0558 C   0  0  0  0  0  0  0  0  0  0  0  0
    1.1325    1.9989   -2.4814 O   0  0  0  0  0  0  0  0  0  0  0  0
   -0.0061    1.4416   -4.3592 O   0  0  0  0  0  0  0  0  0  0  0  0
    0.5097    2.1995   -4.6731 H   0  0  0  0  0  0  0  0  0  0  0  0
   -0.3958    1.1626    0.6918 C   0  0  0  0  0  0  0  0  0  0  0  0
   -1.3937    1.7975    0.3665 O   0  0  0  0  0  0  0  0  0  0  0  0
    0.4845    1.7164    1.6027 N   0  0  0  0  0  0  0  0  0  0  0  0
    1.2971    1.1673    1.8670 H   0  0  0  0  0  0  0  0  0  0  0  0
    0.3620    3.0808    2.1018 C   0  0  0  0  0  0  0  0  0  0  0  0
   -0.5949    3.2166    2.6168 H   0  0  0  0  0  0  0  0  0  0  0  0
    1.1678    3.2994    2.8091 H   0  0  0  0  0  0  0  0  0  0  0  0
    0.4222    3.7975    1.2759 H   0  0  0  0  0  0  0  0  0  0  0  0
  1  2  1  0  0  0  0
  2  3  1  0  0  0  0
  2  4  1  0  0  0  0
  2  5  1  0  0  0  0
  5  6  2  0  0  0  0
  5  7  1  0  0  0  0
  7  8  1  0  0  0  0
  7  9  1  0  0  0  0
  9 10  1  0  0  0  0
  9 11  1  0  0  0  0
  9 21  1  0  0  0  0
 11 12  1  0  0  0  0
 11 13  1  0  0  0  0
 11 14  1  0  0  0  0
 14 15  1  0  0  0  0
 14 16  1  0  0  0  0
 14 17  1  0  0  0  0
 17 18  2  0  0  0  0
 17 19  1  0  0  0  0
 19 20  1  0  0  0  0
 21 22  2  0  0  0  0
 21 23  1  0  0  0  0
 23 24  1  0  0  0  0
 23 25  1  0  0  0  0
 25 26  1  0  0  0  0
 25 27  1  0  0  0  0
 25 28  1  0  0  0  0
M  END
$$$$

  -OEChem-02102214123D

 28 27  0     1  0  0  0  0  0999 V2000
   -3.1904   -3.7731    1.2925 H   0  0  0  0  0  0  0  0  0  0  0  0
   -3.1860   -2.7887    0.8162 C   0  0  0  0  0  0  0  0  0  0  0  0
   -3.8229   -2.1151    1.3947 H   0  0  0  0  0  0  0  0  0  0  0  0
   -3.5909   -2.8839   -0.1942 H   0  0  0  0  0  0  0  0  0  0  0  0
   -1.7721   -2.2421    0.7572 C   0  0  0  0  0  0  0  0  0  0  0  0
   -0.8388   -2.9113    1.1713 O   0  0  0  0  0  0  0  0  0  0  0  0
   -1.5461   -0.9856    0.2366 N   0  0  0  0  0  0  0  0  0  0  0  0
   -2.3635   -0.4245    0.0015 H   0  0  0  0  0  0  0  0  0  0  0  0
   -0.2505   -0.2903    0.2580 C   0  0  1  0  0  0  0  0  0  0  0  0
    0.3844   -0.7567    1.0188 H   0  0  0  0  0  0  0  0  0  0  0  0
    0.4630   -0.4630   -1.0958 C   0  0  0  0  0  0  0  0  0  0  0  0
    1.4388    0.0237   -1.0065 H   0  0  0  0  0  0  0  0  0  0  0  0
    0.6567   -1.5276   -1.2659 H   0  0  0  0  0  0  0  0  0  0  0  0
   -0.3296    0.0996   -2.3085 C   0  0  0  0  0  0  0  0  0  0  0  0
   -0.7858   -0.7385   -2.8421 H   0  0  0  0  0  0  0  0  0  0  0  0
   -1.1479    0.7362   -1.9656 H   0  0  0  0  0  0  0  0  0  0  0  0
    0.4726    0.9281   -3.3165 C   0  0  0  0  0  0  0  0  0  0  0  0
    1.6510    1.1794   -3.1228 O   0  0  0  0  0  0  0  0  0  0  0  0
   -0.2011    1.3435   -4.4135 O   0  0  0  0  0  0  0  0  0  0  0  0
    0.4351    1.8535   -4.9372 H   0  0  0  0  0  0  0  0  0  0  0  0
   -0.3929    1.1875    0.6846 C   0  0  0  0  0  0  0  0  0  0  0  0
   -1.3677    1.8398    0.3278 O   0  0  0  0  0  0  0  0  0  0  0  0
    0.4833    1.7391    1.6012 N   0  0  0  0  0  0  0  0  0  0  0  0
    1.2586    1.1640    1.9182 H   0  0  0  0  0  0  0  0  0  0  0  0
    0.3579    3.0991    2.1120 C   0  0  0  0  0  0  0  0  0  0  0  0
   -0.6075    3.2347    2.6112 H   0  0  0  0  0  0  0  0  0  0  0  0
    1.1522    3.3060    2.8358 H   0  0  0  0  0  0  0  0  0  0  0  0
    0.4371    3.8239    1.2947 H   0  0  0  0  0  0  0  0  0  0  0  0
  1  2  1  0  0  0  0
  2  3  1  0  0  0  0
  2  4  1  0  0  0  0
  2  5  1  0  0  0  0
  5  6  2  0  0  0  0
  5  7  1  0  0  0  0
  7  8  1  0  0  0  0
  7  9  1  0  0  0  0
  9 10  1  0  0  0  0
  9 11  1  0  0  0  0
  9 21  1  0  0  0  0
 11 12  1  0  0  0  0
 11 13  1  0  0  0  0
 11 14  1  0  0  0  0
 14 15  1  0  0  0  0
 14 16  1  0  0  0  0
 14 17  1  0  0  0  0
 17 18  2  0  0  0  0
 17 19  1  0  0  0  0
 19 20  1  0  0  0  0
 21 22  2  0  0  0  0
 21 23  1  0  0  0  0
 23 24  1  0  0  0  0
 23 25  1  0  0  0  0
 25 26  1  0  0  0  0
 25 27  1  0  0  0  0
 25 28  1  0  0  0  0
M  END
$$$$

  -OEChem-02102214123D

 28 27  0     1  0  0  0  0  0999 V2000
   -3.1699   -3.7918    1.2649 H   0  0  0  0  0  0  0  0  0  0  0  0
   -3.1765   -2.7878    0.8315 C   0  0  0  0  0  0  0  0  0  0  0  0
   -3.8067   -2.1420    1.4477 H   0  0  0  0  0  0  0  0  0  0  0  0
   -3.5967   -2.8417   -0.1756 H   0  0  0  0  0  0  0  0  0  0  0  0
   -1.7657   -2.2336    0.7748 C   0  0  0  0  0  0  0  0  0  0  0  0
   -0.8308   -2.8930    1.2008 O   0  0  0  0  0  0  0  0  0  0  0  0
   -1.5448   -0.9811    0.2429 N   0  0  0  0  0  0  0  0  0  0  0  0
   -2.3637   -0.4276   -0.0045 H   0  0  0  0  0  0  0  0  0  0  0  0
   -0.2509   -0.2833    0.2467 C   0  0  1  0  0  0  0  0  0  0  0  0
    0.3913   -0.7407    1.0068 H   0  0  0  0  0  0  0  0  0  0  0  0
    0.4499   -0.4783   -1.1115 C   0  0  0  0  0  0  0  0  0  0  0  0
    1.4146    0.0363   -1.0476 H   0  0  0  0  0  0  0  0  0  0  0  0
    0.6610   -1.5420   -1.2669 H   0  0  0  0  0  0  0  0  0  0  0  0
   -0.3492    0.0606   -2.3253 C   0  0  0  0  0  0  0  0  0  0  0  0
   -1.0283   -0.7180   -2.6824 H   0  0  0  0  0  0  0  0  0  0  0  0
   -0.9634    0.9110   -2.0227 H   0  0  0  0  0  0  0  0  0  0  0  0
    0.5085    0.5421   -3.4972 C   0  0  0  0  0  0  0  0  0  0  0  0
    1.7038    0.2967   -3.5253 O   0  0  0  0  0  0  0  0  0  0  0  0
   -0.1326    1.2194   -4.4770 O   0  0  0  0  0  0  0  0  0  0  0  0
    0.5457    1.4443   -5.1315 H   0  0  0  0  0  0  0  0  0  0  0  0
   -0.3942    1.1972    0.6631 C   0  0  0  0  0  0  0  0  0  0  0  0
   -1.3754    1.8433    0.3131 O   0  0  0  0  0  0  0  0  0  0  0  0
    0.4882    1.7588    1.5675 N   0  0  0  0  0  0  0  0  0  0  0  0
    1.2462    1.1760    1.9112 H   0  0  0  0  0  0  0  0  0  0  0  0
    0.3379    3.1081    2.1000 C   0  0  0  0  0  0  0  0  0  0  0  0
   -0.5848    3.1888    2.6844 H   0  0  0  0  0  0  0  0  0  0  0  0
    1.1827    3.3555    2.7502 H   0  0  0  0  0  0  0  0  0  0  0  0
    0.3037    3.8399    1.2860 H   0  0  0  0  0  0  0  0  0  0  0  0
  1  2  1  0  0  0  0
  2  3  1  0  0  0  0
  2  4  1  0  0  0  0
  2  5  1  0  0  0  0
  5  6  2  0  0  0  0
  5  7  1  0  0  0  0
  7  8  1  0  0  0  0
  7  9  1  0  0  0  0
  9 10  1  0  0  0  0
  9 11  1  0  0  0  0
  9 21  1  0  0  0  0
 11 12  1  0  0  0  0
 11 13  1  0  0  0  0
 11 14  1  0  0  0  0
 14 15  1  0  0  0  0
 14 16  1  0  0  0  0
 14 17  1  0  0  0  0
 17 18  2  0  0  0  0
 17 19  1  0  0  0  0
 19 20  1  0  0  0  0
 21 22  2  0  0  0  0
 21 23  1  0  0  0  0
 23 24  1  0  0  0  0
 23 25  1  0  0  0  0
 25 26  1  0  0  0  0
 25 27  1  0  0  0  0
 25 28  1  0  0  0  0
M  END
$$$$

  -OEChem-02102214123D

 28 27  0     1  0  0  0  0  0999 V2000
   -3.1815   -3.7691    1.3141 H   0  0  0  0  0  0  0  0  0  0  0  0
   -3.1807   -2.7861    0.8347 C   0  0  0  0  0  0  0  0  0  0  0  0
   -3.8160   -2.1118    1.4141 H   0  0  0  0  0  0  0  0  0  0  0  0
   -3.5896   -2.8855   -0.1736 H   0  0  0  0  0  0  0  0  0  0  0  0
   -1.7678   -2.2382    0.7681 C   0  0  0  0  0  0  0  0  0  0  0  0
   -0.8329   -2.9047    1.1826 O   0  0  0  0  0  0  0  0  0  0  0  0
   -1.5445   -0.9833    0.2421 N   0  0  0  0  0  0  0  0  0  0  0  0
   -2.3622   -0.4226    0.0073 H   0  0  0  0  0  0  0  0  0  0  0  0
   -0.2473   -0.2914    0.2448 C   0  0  1  0  0  0  0  0  0  0  0  0
    0.3993   -0.7560    0.9964 H   0  0  0  0  0  0  0  0  0  0  0  0
    0.4437   -0.4688   -1.1207 C   0  0  0  0  0  0  0  0  0  0  0  0
    1.4138    0.0375   -1.0676 H   0  0  0  0  0  0  0  0  0  0  0  0
    0.6406   -1.5331   -1.2906 H   0  0  0  0  0  0  0  0  0  0  0  0
   -0.3629    0.0923   -2.3167 C   0  0  0  0  0  0  0  0  0  0  0  0
   -1.2148   -0.5625   -2.5172 H   0  0  0  0  0  0  0  0  0  0  0  0
   -0.7574    1.0811   -2.0725 H   0  0  0  0  0  0  0  0  0  0  0  0
    0.4474    0.2482   -3.6047 C   0  0  0  0  0  0  0  0  0  0  0  0
    1.6400   -0.0114   -3.6150 O   0  0  0  0  0  0  0  0  0  0  0  0
   -0.2289    0.6717   -4.6969 O   0  0  0  0  0  0  0  0  0  0  0  0
    0.4235    0.7141   -5.4123 H   0  0  0  0  0  0  0  0  0  0  0  0
   -0.3906    1.1856    0.6712 C   0  0  0  0  0  0  0  0  0  0  0  0
   -1.3681    1.8355    0.3177 O   0  0  0  0  0  0  0  0  0  0  0  0
    0.4931    1.7428    1.5770 N   0  0  0  0  0  0  0  0  0  0  0  0
    1.2547    1.1603    1.9134 H   0  0  0  0  0  0  0  0  0  0  0  0
    0.3531    3.0958    2.1023 C   0  0  0  0  0  0  0  0  0  0  0  0
   -0.6037    3.2082    2.6231 H   0  0  0  0  0  0  0  0  0  0  0  0
    1.1589    3.3127    2.8101 H   0  0  0  0  0  0  0  0  0  0  0  0
    0.4003    3.8286    1.2898 H   0  0  0  0  0  0  0  0  0  0  0  0
  1  2  1  0  0  0  0
  2  3  1  0  0  0  0
  2  4  1  0  0  0  0
  2  5  1  0  0  0  0
  5  6  2  0  0  0  0
  5  7  1  0  0  0  0
  7  8  1  0  0  0  0
  7  9  1  0  0  0  0
  9 10  1  0  0  0  0
  9 11  1  0  0  0  0
  9 21  1  0  0  0  0
 11 12  1  0  0  0  0
 11 13  1  0  0  0  0
 11 14  1  0  0  0  0
 14 15  1  0  0  0  0
 14 16  1  0  0  0  0
 14 17  1  0  0  0  0
 17 18  2  0  0  0  0
 17 19  1  0  0  0  0
 19 20  1  0  0  0  0
 21 22  2  0  0  0  0
 21 23  1  0  0  0  0
 23 24  1  0  0  0  0
 23 25  1  0  0  0  0
 25 26  1  0  0  0  0
 25 27  1  0  0  0  0
 25 28  1  0  0  0  0
M  END
$$$$

  -OEChem-02102214123D

 28 27  0     1  0  0  0  0  0999 V2000
   -3.1829   -3.7566    1.2861 H   0  0  0  0  0  0  0  0  0  0  0  0
   -3.1810   -2.7681    0.8181 C   0  0  0  0  0  0  0  0  0  0  0  0
   -3.8059   -2.0962    1.4115 H   0  0  0  0  0  0  0  0  0  0  0  0
   -3.6012   -2.8527   -0.1870 H   0  0  0  0  0  0  0  0  0  0  0  0
   -1.7656   -2.2280    0.7436 C   0  0  0  0  0  0  0  0  0  0  0  0
   -0.8314   -2.9007    1.1496 O   0  0  0  0  0  0  0  0  0  0  0  0
   -1.5410   -0.9679    0.2308 N   0  0  0  0  0  0  0  0  0  0  0  0
   -2.3585   -0.4041    0.0026 H   0  0  0  0  0  0  0  0  0  0  0  0
   -0.2429   -0.2778    0.2376 C   0  0  1  0  0  0  0  0  0  0  0  0
    0.4005   -0.7556    0.9839 H   0  0  0  0  0  0  0  0  0  0  0  0
    0.4431   -0.4589   -1.1310 C   0  0  0  0  0  0  0  0  0  0  0  0
    1.5005   -0.1954   -1.0203 H   0  0  0  0  0  0  0  0  0  0  0  0
    0.4008   -1.5168   -1.4141 H   0  0  0  0  0  0  0  0  0  0  0  0
   -0.1634    0.4030   -2.2614 C   0  0  0  0  0  0  0  0  0  0  0  0
   -1.2218    0.1543   -2.3752 H   0  0  0  0  0  0  0  0  0  0  0  0
   -0.0971    1.4638   -2.0069 H   0  0  0  0  0  0  0  0  0  0  0  0
    0.5240    0.2146   -3.6139 C   0  0  0  0  0  0  0  0  0  0  0  0
    1.6135   -0.3323   -3.6720 O   0  0  0  0  0  0  0  0  0  0  0  0
   -0.1298    0.6839   -4.7010 O   0  0  0  0  0  0  0  0  0  0  0  0
    0.4428    0.4899   -5.4584 H   0  0  0  0  0  0  0  0  0  0  0  0
   -0.3835    1.1942    0.6804 C   0  0  0  0  0  0  0  0  0  0  0  0
   -1.3589    1.8489    0.3292 O   0  0  0  0  0  0  0  0  0  0  0  0
    0.5020    1.7421    1.5899 N   0  0  0  0  0  0  0  0  0  0  0  0
    1.2532    1.1498    1.9327 H   0  0  0  0  0  0  0  0  0  0  0  0
    0.3526    3.0839    2.1408 C   0  0  0  0  0  0  0  0  0  0  0  0
   -0.5972    3.1735    2.6786 H   0  0  0  0  0  0  0  0  0  0  0  0
    1.1669    3.3000    2.8390 H   0  0  0  0  0  0  0  0  0  0  0  0
    0.3761    3.8315    1.3409 H   0  0  0  0  0  0  0  0  0  0  0  0
  1  2  1  0  0  0  0
  2  3  1  0  0  0  0
  2  4  1  0  0  0  0
  2  5  1  0  0  0  0
  5  6  2  0  0  0  0
  5  7  1  0  0  0  0
  7  8  1  0  0  0  0
  7  9  1  0  0  0  0
  9 10  1  0  0  0  0
  9 11  1  0  0  0  0
  9 21  1  0  0  0  0
 11 12  1  0  0  0  0
 11 13  1  0  0  0  0
 11 14  1  0  0  0  0
 14 15  1  0  0  0  0
 14 16  1  0  0  0  0
 14 17  1  0  0  0  0
 17 18  2  0  0  0  0
 17 19  1  0  0  0  0
 19 20  1  0  0  0  0
 21 22  2  0  0  0  0
 21 23  1  0  0  0  0
 23 24  1  0  0  0  0
 23 25  1  0  0  0  0
 25 26  1  0  0  0  0
 25 27  1  0  0  0  0
 25 28  1  0  0  0  0
M  END
$$$$

  -OEChem-02102214123D

 28 27  0     1  0  0  0  0  0999 V2000
   -3.2046   -3.7607    1.1951 H   0  0  0  0  0  0  0  0  0  0  0  0
   -3.1961   -2.7544    0.7673 C   0  0  0  0  0  0  0  0  0  0  0  0
   -3.8278   -2.1060    1.3791 H   0  0  0  0  0  0  0  0  0  0  0  0
   -3.6038   -2.7987   -0.2455 H   0  0  0  0  0  0  0  0  0  0  0  0
   -1.7794   -2.2139    0.7318 C   0  0  0  0  0  0  0  0  0  0  0  0
   -0.8556   -2.8886    1.1576 O   0  0  0  0  0  0  0  0  0  0  0  0
   -1.5407   -0.9552    0.2220 N   0  0  0  0  0  0  0  0  0  0  0  0
   -2.3514   -0.3900   -0.0256 H   0  0  0  0  0  0  0  0  0  0  0  0
   -0.2381   -0.2733    0.2390 C   0  0  1  0  0  0  0  0  0  0  0  0
    0.3986   -0.7579    0.9864 H   0  0  0  0  0  0  0  0  0  0  0  0
    0.4510   -0.4484   -1.1280 C   0  0  0  0  0  0  0  0  0  0  0  0
    1.5148   -0.2069   -1.0281 H   0  0  0  0  0  0  0  0  0  0  0  0
    0.3850   -1.5042   -1.4148 H   0  0  0  0  0  0  0  0  0  0  0  0
   -0.1537    0.4302   -2.2447 C   0  0  0  0  0  0  0  0  0  0  0  0
   -1.2449    0.3737   -2.1995 H   0  0  0  0  0  0  0  0  0  0  0  0
    0.1295    1.4764   -2.0996 H   0  0  0  0  0  0  0  0  0  0  0  0
    0.2794   -0.0054   -3.6429 C   0  0  0  0  0  0  0  0  0  0  0  0
    1.4020   -0.4552   -3.8055 O   0  0  0  0  0  0  0  0  0  0  0  0
   -0.6180    0.1377   -4.6451 O   0  0  0  0  0  0  0  0  0  0  0  0
   -0.1730   -0.1796   -5.4454 H   0  0  0  0  0  0  0  0  0  0  0  0
   -0.3676    1.2001    0.6809 C   0  0  0  0  0  0  0  0  0  0  0  0
   -1.3298    1.8668    0.3164 O   0  0  0  0  0  0  0  0  0  0  0  0
    0.5170    1.7393    1.5965 N   0  0  0  0  0  0  0  0  0  0  0  0
    1.2583    1.1386    1.9457 H   0  0  0  0  0  0  0  0  0  0  0  0
    0.3731    3.0792    2.1536 C   0  0  0  0  0  0  0  0  0  0  0  0
   -0.5592    3.1589    2.7227 H   0  0  0  0  0  0  0  0  0  0  0  0
    1.2083    3.3023    2.8246 H   0  0  0  0  0  0  0  0  0  0  0  0
    0.3629    3.8283    1.3548 H   0  0  0  0  0  0  0  0  0  0  0  0
  1  2  1  0  0  0  0
  2  3  1  0  0  0  0
  2  4  1  0  0  0  0
  2  5  1  0  0  0  0
  5  6  2  0  0  0  0
  5  7  1  0  0  0  0
  7  8  1  0  0  0  0
  7  9  1  0  0  0  0
  9 10  1  0  0  0  0
  9 11  1  0  0  0  0
  9 21  1  0  0  0  0
 11 12  1  0  0  0  0
 11 13  1  0  0  0  0
 11 14  1  0  0  0  0
 14 15  1  0  0  0  0
 14 16  1  0  0  0  0
 14 17  1  0  0  0  0
 17 18  2  0  0  0  0
 17 19  1  0  0  0  0
 19 20  1  0  0  0  0
 21 22  2  0  0  0  0
 21 23  1  0  0  0  0
 23 24  1  0  0  0  0
 23 25  1  0  0  0  0
 25 26  1  0  0  0  0
 25 27  1  0  0  0  0
 25 28  1  0  0  0  0
M  END
$$$$

  -OEChem-02102214123D

 28 27  0     1  0  0  0  0  0999 V2000
   -3.2235   -3.7436    1.1829 H   0  0  0  0  0  0  0  0  0  0  0  0
   -3.2109   -2.7406    0.7471 C   0  0  0  0  0  0  0  0  0  0  0  0
   -3.8440   -2.0861    1.3511 H   0  0  0  0  0  0  0  0  0  0  0  0
   -3.6141   -2.7920   -0.2671 H   0  0  0  0  0  0  0  0  0  0  0  0
   -1.7926   -2.2036    0.7130 C   0  0  0  0  0  0  0  0  0  0  0  0
   -0.8708   -2.8823    1.1369 O   0  0  0  0  0  0  0  0  0  0  0  0
   -1.5493   -0.9437    0.2078 N   0  0  0  0  0  0  0  0  0  0  0  0
   -2.3577   -0.3770   -0.0440 H   0  0  0  0  0  0  0  0  0  0  0  0
   -0.2445   -0.2659    0.2320 C   0  0  1  0  0  0  0  0  0  0  0  0
    0.3862   -0.7553    0.9815 H   0  0  0  0  0  0  0  0  0  0  0  0
    0.4536   -0.4389   -1.1304 C   0  0  0  0  0  0  0  0  0  0  0  0
    1.5194   -0.2081   -1.0296 H   0  0  0  0  0  0  0  0  0  0  0  0
    0.3798   -1.4956   -1.4130 H   0  0  0  0  0  0  0  0  0  0  0  0
   -0.1399    0.4429   -2.2513 C   0  0  0  0  0  0  0  0  0  0  0  0
   -1.2080    0.5962   -2.0726 H   0  0  0  0  0  0  0  0  0  0  0  0
    0.3372    1.4269   -2.2538 H   0  0  0  0  0  0  0  0  0  0  0  0
    0.0006   -0.1960   -3.6298 C   0  0  0  0  0  0  0  0  0  0  0  0
    1.0819   -0.6600   -3.9517 O   0  0  0  0  0  0  0  0  0  0  0  0
   -1.0894   -0.2173   -4.4313 O   0  0  0  0  0  0  0  0  0  0  0  0
   -0.8060   -0.6507   -5.2505 H   0  0  0  0  0  0  0  0  0  0  0  0
   -0.3634    1.2074    0.6775 C   0  0  0  0  0  0  0  0  0  0  0  0
   -1.3186    1.8845    0.3145 O   0  0  0  0  0  0  0  0  0  0  0  0
    0.5243    1.7351    1.5968 N   0  0  0  0  0  0  0  0  0  0  0  0
    1.2540    1.1235    1.9515 H   0  0  0  0  0  0  0  0  0  0  0  0
    0.3875    3.0720    2.1628 C   0  0  0  0  0  0  0  0  0  0  0  0
   -0.5457    3.1536    2.7302 H   0  0  0  0  0  0  0  0  0  0  0  0
    1.2226    3.2855    2.8369 H   0  0  0  0  0  0  0  0  0  0  0  0
    0.3841    3.8262    1.3687 H   0  0  0  0  0  0  0  0  0  0  0  0
  1  2  1  0  0  0  0
  2  3  1  0  0  0  0
  2  4  1  0  0  0  0
  2  5  1  0  0  0  0
  5  6  2  0  0  0  0
  5  7  1  0  0  0  0
  7  8  1  0  0  0  0
  7  9  1  0  0  0  0
  9 10  1  0  0  0  0
  9 11  1  0  0  0  0
  9 21  1  0  0  0  0
 11 12  1  0  0  0  0
 11 13  1  0  0  0  0
 11 14  1  0  0  0  0
 14 15  1  0  0  0  0
 14 16  1  0  0  0  0
 14 17  1  0  0  0  0
 17 18  2  0  0  0  0
 17 19  1  0  0  0  0
 19 20  1  0  0  0  0
 21 22  2  0  0  0  0
 21 23  1  0  0  0  0
 23 24  1  0  0  0  0
 23 25  1  0  0  0  0
 25 26  1  0  0  0  0
 25 27  1  0  0  0  0
 25 28  1  0  0  0  0
M  END
$$$$

  -OEChem-02102214123D

 28 27  0     1  0  0  0  0  0999 V2000
   -3.2664   -3.7239    1.0451 H   0  0  0  0  0  0  0  0  0  0  0  0
   -3.2443   -2.7083    0.6399 C   0  0  0  0  0  0  0  0  0  0  0  0
   -3.8922   -2.0722    1.2478 H   0  0  0  0  0  0  0  0  0  0  0  0
   -3.6232   -2.7292   -0.3849 H   0  0  0  0  0  0  0  0  0  0  0  0
   -1.8265   -2.1695    0.6562 C   0  0  0  0  0  0  0  0  0  0  0  0
   -0.9152   -2.8557    1.0914 O   0  0  0  0  0  0  0  0  0  0  0  0
   -1.5713   -0.9010    0.1798 N   0  0  0  0  0  0  0  0  0  0  0  0
   -2.3707   -0.3399   -0.1094 H   0  0  0  0  0  0  0  0  0  0  0  0
   -0.2643   -0.2298    0.2218 C   0  0  1  0  0  0  0  0  0  0  0  0
    0.3554   -0.7380    0.9679 H   0  0  0  0  0  0  0  0  0  0  0  0
    0.4378   -0.4062   -1.1378 C   0  0  0  0  0  0  0  0  0  0  0  0
    1.5020   -0.1738   -1.0268 H   0  0  0  0  0  0  0  0  0  0  0  0
    0.3726   -1.4643   -1.4172 H   0  0  0  0  0  0  0  0  0  0  0  0
   -0.1384    0.4765   -2.2666 C   0  0  0  0  0  0  0  0  0  0  0  0
   -1.1219    0.8653   -1.9911 H   0  0  0  0  0  0  0  0  0  0  0  0
    0.5144    1.3356   -2.4466 H   0  0  0  0  0  0  0  0  0  0  0  0
   -0.3186   -0.3201   -3.5524 C   0  0  0  0  0  0  0  0  0  0  0  0
    0.6335   -0.4217   -4.3068 O   0  0  0  0  0  0  0  0  0  0  0  0
   -1.5206   -0.9002   -3.7796 O   0  0  0  0  0  0  0  0  0  0  0  0
   -1.4330   -1.3596   -4.6285 H   0  0  0  0  0  0  0  0  0  0  0  0
   -0.3579    1.2374    0.6957 C   0  0  0  0  0  0  0  0  0  0  0  0
   -1.3005    1.9407    0.3505 O   0  0  0  0  0  0  0  0  0  0  0  0
    0.5410    1.7295    1.6242 N   0  0  0  0  0  0  0  0  0  0  0  0
    1.2597    1.0974    1.9651 H   0  0  0  0  0  0  0  0  0  0  0  0
    0.4454    3.0653    2.2010 C   0  0  0  0  0  0  0  0  0  0  0  0
   -0.4945    3.1793    2.7512 H   0  0  0  0  0  0  0  0  0  0  0  0
    1.2748    3.2387    2.8933 H   0  0  0  0  0  0  0  0  0  0  0  0
    0.4878    3.8265    1.4148 H   0  0  0  0  0  0  0  0  0  0  0  0
  1  2  1  0  0  0  0
  2  3  1  0  0  0  0
  2  4  1  0  0  0  0
  2  5  1  0  0  0  0
  5  6  2  0  0  0  0
  5  7  1  0  0  0  0
  7  8  1  0  0  0  0
  7  9  1  0  0  0  0
  9 10  1  0  0  0  0
  9 11  1  0  0  0  0
  9 21  1  0  0  0  0
 11 12  1  0  0  0  0
 11 13  1  0  0  0  0
 11 14  1  0  0  0  0
 14 15  1  0  0  0  0
 14 16  1  0  0  0  0
 14 17  1  0  0  0  0
 17 18  2  0  0  0  0
 17 19  1  0  0  0  0
 19 20  1  0  0  0  0
 21 22  2  0  0  0  0
 21 23  1  0  0  0  0
 23 24  1  0  0  0  0
 23 25  1  0  0  0  0
 25 26  1  0  0  0  0
 25 27  1  0  0  0  0
 25 28  1  0  0  0  0
M  END
$$$$

  -OEChem-02102214123D

 28 27  0     1  0  0  0  0  0999 V2000
   -3.1685   -3.7751    1.2765 H   0  0  0  0  0  0  0  0  0  0  0  0
   -3.1735   -2.7872    0.8074 C   0  0  0  0  0  0  0  0  0  0  0  0
   -3.8411   -2.1322    1.3724 H   0  0  0  0  0  0  0  0  0  0  0  0
   -3.5481   -2.8846   -0.2146 H   0  0  0  0  0  0  0  0  0  0  0  0
   -1.7715   -2.2086    0.7901 C   0  0  0  0  0  0  0  0  0  0  0  0
   -0.8382   -2.8501    1.2466 O   0  0  0  0  0  0  0  0  0  0  0  0
   -1.5592   -0.9497    0.2687 N   0  0  0  0  0  0  0  0  0  0  0  0
   -2.3793   -0.4146   -0.0108 H   0  0  0  0  0  0  0  0  0  0  0  0
   -0.2671   -0.2500    0.2539 C   0  0  1  0  0  0  0  0  0  0  0  0
    0.3783   -0.7168    1.0053 H   0  0  0  0  0  0  0  0  0  0  0  0
    0.4152   -0.4770   -1.1108 C   0  0  0  0  0  0  0  0  0  0  0  0
    1.4666   -0.1874   -1.0157 H   0  0  0  0  0  0  0  0  0  0  0  0
    0.4137   -1.5520   -1.3169 H   0  0  0  0  0  0  0  0  0  0  0  0
   -0.1918    0.3358   -2.2896 C   0  0  0  0  0  0  0  0  0  0  0  0
   -1.0117    0.9646   -1.9380 H   0  0  0  0  0  0  0  0  0  0  0  0
    0.5760    1.0049   -2.6871 H   0  0  0  0  0  0  0  0  0  0  0  0
   -0.7491   -0.4821   -3.4597 C   0  0  0  0  0  0  0  0  0  0  0  0
   -0.5863   -1.6896   -3.5164 O   0  0  0  0  0  0  0  0  0  0  0  0
   -1.4124    0.2178   -4.4084 O   0  0  0  0  0  0  0  0  0  0  0  0
   -1.6926   -0.4334   -5.0691 H   0  0  0  0  0  0  0  0  0  0  0  0
   -0.3815    1.2287    0.6871 C   0  0  0  0  0  0  0  0  0  0  0  0
   -1.3644    1.8911    0.3749 O   0  0  0  0  0  0  0  0  0  0  0  0
    0.5316    1.7678    1.5752 N   0  0  0  0  0  0  0  0  0  0  0  0
    1.2730    1.1608    1.9133 H   0  0  0  0  0  0  0  0  0  0  0  0
    0.3917    3.0985    2.1554 C   0  0  0  0  0  0  0  0  0  0  0  0
   -0.5325    3.1666    2.7389 H   0  0  0  0  0  0  0  0  0  0  0  0
    1.2358    3.3140    2.8177 H   0  0  0  0  0  0  0  0  0  0  0  0
    0.3679    3.8595    1.3682 H   0  0  0  0  0  0  0  0  0  0  0  0
  1  2  1  0  0  0  0
  2  3  1  0  0  0  0
  2  4  1  0  0  0  0
  2  5  1  0  0  0  0
  5  6  2  0  0  0  0
  5  7  1  0  0  0  0
  7  8  1  0  0  0  0
  7  9  1  0  0  0  0
  9 10  1  0  0  0  0
  9 11  1  0  0  0  0
  9 21  1  0  0  0  0
 11 12  1  0  0  0  0
 11 13  1  0  0  0  0
 11 14  1  0  0  0  0
 14 15  1  0  0  0  0
 14 16  1  0  0  0  0
 14 17  1  0  0  0  0
 17 18  2  0  0  0  0
 17 19  1  0  0  0  0
 19 20  1  0  0  0  0
 21 22  2  0  0  0  0
 21 23  1  0  0  0  0
 23 24  1  0  0  0  0
 23 25  1  0  0  0  0
 25 26  1  0  0  0  0
 25 27  1  0  0  0  0
 25 28  1  0  0  0  0
M  END
$$$$

  -OEChem-02102214123D

 28 27  0     1  0  0  0  0  0999 V2000
   -3.0610   -3.8611    1.0864 H   0  0  0  0  0  0  0  0  0  0  0  0
   -3.1017   -2.8438    0.6878 C   0  0  0  0  0  0  0  0  0  0  0  0
   -3.8317   -2.2682    1.2618 H   0  0  0  0  0  0  0  0  0  0  0  0
   -3.4211   -2.8857   -0.3566 H   0  0  0  0  0  0  0  0  0  0  0  0
   -1.7374   -2.1887    0.7827 C   0  0  0  0  0  0  0  0  0  0  0  0
   -0.7925   -2.8018    1.2560 O   0  0  0  0  0  0  0  0  0  0  0  0
   -1.5660   -0.9043    0.3138 N   0  0  0  0  0  0  0  0  0  0  0  0
   -2.3684   -0.4649   -0.1360 H   0  0  0  0  0  0  0  0  0  0  0  0
   -0.2867   -0.1858    0.2532 C   0  0  1  0  0  0  0  0  0  0  0  0
    0.4128   -0.6814    0.9341 H   0  0  0  0  0  0  0  0  0  0  0  0
    0.2868   -0.3557   -1.1692 C   0  0  0  0  0  0  0  0  0  0  0  0
    1.3375   -0.0500   -1.1330 H   0  0  0  0  0  0  0  0  0  0  0  0
    0.2792   -1.4173   -1.4423 H   0  0  0  0  0  0  0  0  0  0  0  0
   -0.4049    0.4869   -2.2674 C   0  0  0  0  0  0  0  0  0  0  0  0
   -0.9914    1.3104   -1.8579 H   0  0  0  0  0  0  0  0  0  0  0  0
    0.3639    0.9315   -2.9058 H   0  0  0  0  0  0  0  0  0  0  0  0
   -1.3099   -0.3691   -3.1479 C   0  0  0  0  0  0  0  0  0  0  0  0
   -2.3334   -0.8258   -2.6633 O   0  0  0  0  0  0  0  0  0  0  0  0
   -0.9207   -0.5946   -4.4242 O   0  0  0  0  0  0  0  0  0  0  0  0
   -1.6104   -1.1494   -4.8191 H   0  0  0  0  0  0  0  0  0  0  0  0
   -0.3736    1.2716    0.7620 C   0  0  0  0  0  0  0  0  0  0  0  0
   -1.3512    1.9678    0.5151 O   0  0  0  0  0  0  0  0  0  0  0  0
    0.5984    1.7672    1.6125 N   0  0  0  0  0  0  0  0  0  0  0  0
    1.3343    1.1302    1.9035 H   0  0  0  0  0  0  0  0  0  0  0  0
    0.5060    3.0737    2.2539 C   0  0  0  0  0  0  0  0  0  0  0  0
   -0.3549    3.1076    2.9298 H   0  0  0  0  0  0  0  0  0  0  0  0
    1.4115    3.2755    2.8343 H   0  0  0  0  0  0  0  0  0  0  0  0
    0.3958    3.8637    1.5033 H   0  0  0  0  0  0  0  0  0  0  0  0
  1  2  1  0  0  0  0
  2  3  1  0  0  0  0
  2  4  1  0  0  0  0
  2  5  1  0  0  0  0
  5  6  2  0  0  0  0
  5  7  1  0  0  0  0
  7  8  1  0  0  0  0
  7  9  1  0  0  0  0
  9 10  1  0  0  0  0
  9 11  1  0  0  0  0
  9 21  1  0  0  0  0
 11 12  1  0  0  0  0
 11 13  1  0  0  0  0
 11 14  1  0  0  0  0
 14 15  1  0  0  0  0
 14 16  1  0  0  0  0
 14 17  1  0  0  0  0
 17 18  2  0  0  0  0
 17 19  1  0  0  0  0
 19 20  1  0  0  0  0
 21 22  2  0  0  0  0
 21 23  1  0  0  0  0
 23 24  1  0  0  0  0
 23 25  1  0  0  0  0
 25 26  1  0  0  0  0
 25 27  1  0  0  0  0
 25 28  1  0  0  0  0
M  END
$$$$

  -OEChem-02102214123D

 28 27  0     1  0  0  0  0  0999 V2000
   -3.0845   -3.8467    1.0862 H   0  0  0  0  0  0  0  0  0  0  0  0
   -3.1151   -2.8329    0.6777 C   0  0  0  0  0  0  0  0  0  0  0  0
   -3.8399   -2.2449    1.2460 H   0  0  0  0  0  0  0  0  0  0  0  0
   -3.4356   -2.8813   -0.3660 H   0  0  0  0  0  0  0  0  0  0  0  0
   -1.7446   -2.1897    0.7665 C   0  0  0  0  0  0  0  0  0  0  0  0
   -0.7989   -2.8179    1.2172 O   0  0  0  0  0  0  0  0  0  0  0  0
   -1.5666   -0.9022    0.3099 N   0  0  0  0  0  0  0  0  0  0  0  0
   -2.3698   -0.4486   -0.1292 H   0  0  0  0  0  0  0  0  0  0  0  0
   -0.2857   -0.1878    0.2507 C   0  0  1  0  0  0  0  0  0  0  0  0
    0.4145   -0.6924    0.9240 H   0  0  0  0  0  0  0  0  0  0  0  0
    0.2896   -0.3329   -1.1754 C   0  0  0  0  0  0  0  0  0  0  0  0
    1.3402   -0.0280   -1.1304 H   0  0  0  0  0  0  0  0  0  0  0  0
    0.2800   -1.3881   -1.4709 H   0  0  0  0  0  0  0  0  0  0  0  0
   -0.3945    0.5262   -2.2641 C   0  0  0  0  0  0  0  0  0  0  0  0
   -0.7405    1.4873   -1.8790 H   0  0  0  0  0  0  0  0  0  0  0  0
    0.3396    0.7471   -3.0441 H   0  0  0  0  0  0  0  0  0  0  0  0
   -1.5581   -0.2107   -2.9231 C   0  0  0  0  0  0  0  0  0  0  0  0
   -2.6316   -0.2627   -2.3439 O   0  0  0  0  0  0  0  0  0  0  0  0
   -1.3271   -0.7969   -4.1207 O   0  0  0  0  0  0  0  0  0  0  0  0
   -2.1644   -1.2095   -4.3815 H   0  0  0  0  0  0  0  0  0  0  0  0
   -0.3715    1.2637    0.7749 C   0  0  0  0  0  0  0  0  0  0  0  0
   -1.3417    1.9683    0.5242 O   0  0  0  0  0  0  0  0  0  0  0  0
    0.6029    1.7504    1.6279 N   0  0  0  0  0  0  0  0  0  0  0  0
    1.3377    1.1095    1.9133 H   0  0  0  0  0  0  0  0  0  0  0  0
    0.5185    3.0556    2.2730 C   0  0  0  0  0  0  0  0  0  0  0  0
   -0.3686    3.1100    2.9130 H   0  0  0  0  0  0  0  0  0  0  0  0
    1.4034    3.2297    2.8925 H   0  0  0  0  0  0  0  0  0  0  0  0
    0.4609    3.8513    1.5228 H   0  0  0  0  0  0  0  0  0  0  0  0
  1  2  1  0  0  0  0
  2  3  1  0  0  0  0
  2  4  1  0  0  0  0
  2  5  1  0  0  0  0
  5  6  2  0  0  0  0
  5  7  1  0  0  0  0
  7  8  1  0  0  0  0
  7  9  1  0  0  0  0
  9 10  1  0  0  0  0
  9 11  1  0  0  0  0
  9 21  1  0  0  0  0
 11 12  1  0  0  0  0
 11 13  1  0  0  0  0
 11 14  1  0  0  0  0
 14 15  1  0  0  0  0
 14 16  1  0  0  0  0
 14 17  1  0  0  0  0
 17 18  2  0  0  0  0
 17 19  1  0  0  0  0
 19 20  1  0  0  0  0
 21 22  2  0  0  0  0
 21 23  1  0  0  0  0
 23 24  1  0  0  0  0
 23 25  1  0  0  0  0
 25 26  1  0  0  0  0
 25 27  1  0  0  0  0
 25 28  1  0  0  0  0
M  END
$$$$

  -OEChem-02102214123D

 28 27  0     1  0  0  0  0  0999 V2000
   -3.1180   -3.8613    1.2364 H   0  0  0  0  0  0  0  0  0  0  0  0
   -3.1310   -2.8694    0.7763 C   0  0  0  0  0  0  0  0  0  0  0  0
   -3.9034   -2.2656    1.2585 H   0  0  0  0  0  0  0  0  0  0  0  0
   -3.3707   -2.9759   -0.2848 H   0  0  0  0  0  0  0  0  0  0  0  0
   -1.7784   -2.2014    0.9325 C   0  0  0  0  0  0  0  0  0  0  0  0
   -0.8781   -2.7710    1.5306 O   0  0  0  0  0  0  0  0  0  0  0  0
   -1.5692   -0.9548    0.3831 N   0  0  0  0  0  0  0  0  0  0  0  0
   -2.3287   -0.5675   -0.1738 H   0  0  0  0  0  0  0  0  0  0  0  0
   -0.2715   -0.2723    0.3187 C   0  0  1  0  0  0  0  0  0  0  0  0
    0.4035   -0.7369    1.0448 H   0  0  0  0  0  0  0  0  0  0  0  0
    0.3559   -0.4801   -1.0820 C   0  0  0  0  0  0  0  0  0  0  0  0
    1.4132   -0.2070   -1.0067 H   0  0  0  0  0  0  0  0  0  0  0  0
    0.3223   -1.5464   -1.3328 H   0  0  0  0  0  0  0  0  0  0  0  0
   -0.2495    0.3421   -2.2508 C   0  0  0  0  0  0  0  0  0  0  0  0
   -0.3227    1.3960   -1.9733 H   0  0  0  0  0  0  0  0  0  0  0  0
    0.4495    0.2886   -3.0896 H   0  0  0  0  0  0  0  0  0  0  0  0
   -1.6084   -0.1078   -2.7940 C   0  0  0  0  0  0  0  0  0  0  0  0
   -2.1137   -1.1562   -2.4256 O   0  0  0  0  0  0  0  0  0  0  0  0
   -2.1805    0.7068   -3.7099 O   0  0  0  0  0  0  0  0  0  0  0  0
   -3.0208    0.2906   -3.9529 H   0  0  0  0  0  0  0  0  0  0  0  0
   -0.3809    1.2114    0.7331 C   0  0  0  0  0  0  0  0  0  0  0  0
   -1.3228    1.8967    0.3508 O   0  0  0  0  0  0  0  0  0  0  0  0
    0.5500    1.7681    1.5912 N   0  0  0  0  0  0  0  0  0  0  0  0
    1.2565    1.1502    1.9802 H   0  0  0  0  0  0  0  0  0  0  0  0
    0.4408    3.1265    2.1100 C   0  0  0  0  0  0  0  0  0  0  0  0
   -0.4794    3.2409    2.6927 H   0  0  0  0  0  0  0  0  0  0  0  0
    1.2922    3.3540    2.7587 H   0  0  0  0  0  0  0  0  0  0  0  0
    0.4298    3.8512    1.2891 H   0  0  0  0  0  0  0  0  0  0  0  0
  1  2  1  0  0  0  0
  2  3  1  0  0  0  0
  2  4  1  0  0  0  0
  2  5  1  0  0  0  0
  5  6  2  0  0  0  0
  5  7  1  0  0  0  0
  7  8  1  0  0  0  0
  7  9  1  0  0  0  0
  9 10  1  0  0  0  0
  9 11  1  0  0  0  0
  9 21  1  0  0  0  0
 11 12  1  0  0  0  0
 11 13  1  0  0  0  0
 11 14  1  0  0  0  0
 14 15  1  0  0  0  0
 14 16  1  0  0  0  0
 14 17  1  0  0  0  0
 17 18  2  0  0  0  0
 17 19  1  0  0  0  0
 19 20  1  0  0  0  0
 21 22  2  0  0  0  0
 21 23  1  0  0  0  0
 23 24  1  0  0  0  0
 23 25  1  0  0  0  0
 25 26  1  0  0  0  0
 25 27  1  0  0  0  0
 25 28  1  0  0  0  0
M  END
$$$$

  -OEChem-02102214123D

 28 27  0     1  0  0  0  0  0999 V2000
   -3.1094   -3.8875    1.2616 H   0  0  0  0  0  0  0  0  0  0  0  0
   -3.1266   -2.8968    0.7993 C   0  0  0  0  0  0  0  0  0  0  0  0
   -3.9073   -2.2982    1.2746 H   0  0  0  0  0  0  0  0  0  0  0  0
   -3.3577   -3.0072   -0.2633 H   0  0  0  0  0  0  0  0  0  0  0  0
   -1.7809   -2.2174    0.9653 C   0  0  0  0  0  0  0  0  0  0  0  0
   -0.8848   -2.7726    1.5829 O   0  0  0  0  0  0  0  0  0  0  0  0
   -1.5724   -0.9779    0.4002 N   0  0  0  0  0  0  0  0  0  0  0  0
   -2.3215   -0.6152   -0.1877 H   0  0  0  0  0  0  0  0  0  0  0  0
   -0.2745   -0.2959    0.3316 C   0  0  1  0  0  0  0  0  0  0  0  0
    0.4037   -0.7540    1.0586 H   0  0  0  0  0  0  0  0  0  0  0  0
    0.3559   -0.4890   -1.0701 C   0  0  0  0  0  0  0  0  0  0  0  0
    1.4187   -0.2372   -0.9957 H   0  0  0  0  0  0  0  0  0  0  0  0
    0.2976   -1.5525   -1.3278 H   0  0  0  0  0  0  0  0  0  0  0  0
   -0.2376    0.3379   -2.2425 C   0  0  0  0  0  0  0  0  0  0  0  0
   -0.0855    1.4009   -2.0350 H   0  0  0  0  0  0  0  0  0  0  0  0
    0.3332    0.1073   -3.1458 H   0  0  0  0  0  0  0  0  0  0  0  0
   -1.7160    0.1406   -2.5851 C   0  0  0  0  0  0  0  0  0  0  0  0
   -2.2691   -0.9202   -2.3404 O   0  0  0  0  0  0  0  0  0  0  0  0
   -2.3325    1.1720   -3.2065 O   0  0  0  0  0  0  0  0  0  0  0  0
   -3.2503    0.8965   -3.3458 H   0  0  0  0  0  0  0  0  0  0  0  0
   -0.3924    1.1915    0.7277 C   0  0  0  0  0  0  0  0  0  0  0  0
   -1.3217    1.8734    0.3107 O   0  0  0  0  0  0  0  0  0  0  0  0
    0.5311    1.7636    1.5833 N   0  0  0  0  0  0  0  0  0  0  0  0
    1.2327    1.1530    1.9923 H   0  0  0  0  0  0  0  0  0  0  0  0
    0.4317    3.1394    2.0561 C   0  0  0  0  0  0  0  0  0  0  0  0
   -0.5071    3.2914    2.5996 H   0  0  0  0  0  0  0  0  0  0  0  0
    1.2627    3.3697    2.7296 H   0  0  0  0  0  0  0  0  0  0  0  0
    0.4675    3.8374    1.2130 H   0  0  0  0  0  0  0  0  0  0  0  0
  1  2  1  0  0  0  0
  2  3  1  0  0  0  0
  2  4  1  0  0  0  0
  2  5  1  0  0  0  0
  5  6  2  0  0  0  0
  5  7  1  0  0  0  0
  7  8  1  0  0  0  0
  7  9  1  0  0  0  0
  9 10  1  0  0  0  0
  9 11  1  0  0  0  0
  9 21  1  0  0  0  0
 11 12  1  0  0  0  0
 11 13  1  0  0  0  0
 11 14  1  0  0  0  0
 14 15  1  0  0  0  0
 14 16  1  0  0  0  0
 14 17  1  0  0  0  0
 17 18  2  0  0  0  0
 17 19  1  0  0  0  0
 19 20  1  0  0  0  0
 21 22  2  0  0  0  0
 21 23  1  0  0  0  0
 23 24  1  0  0  0  0
 23 25  1  0  0  0  0
 25 26  1  0  0  0  0
 25 27  1  0  0  0  0
 25 28  1  0  0  0  0
M  END
$$$$

  -OEChem-02102214123D

 28 27  0     1  0  0  0  0  0999 V2000
   -3.0922   -3.9091    1.2856 H   0  0  0  0  0  0  0  0  0  0  0  0
   -3.1191   -2.9160    0.8288 C   0  0  0  0  0  0  0  0  0  0  0  0
   -3.8958   -2.3228    1.3172 H   0  0  0  0  0  0  0  0  0  0  0  0
   -3.3644   -3.0209   -0.2312 H   0  0  0  0  0  0  0  0  0  0  0  0
   -1.7744   -2.2316    0.9807 C   0  0  0  0  0  0  0  0  0  0  0  0
   -0.8666   -2.7863    1.5813 O   0  0  0  0  0  0  0  0  0  0  0  0
   -1.5805   -0.9887    0.4183 N   0  0  0  0  0  0  0  0  0  0  0  0
   -2.3377   -0.6333   -0.1659 H   0  0  0  0  0  0  0  0  0  0  0  0
   -0.2906   -0.2921    0.3384 C   0  0  1  0  0  0  0  0  0  0  0  0
    0.3950   -0.7476    1.0602 H   0  0  0  0  0  0  0  0  0  0  0  0
    0.3379   -0.4742   -1.0649 C   0  0  0  0  0  0  0  0  0  0  0  0
    1.4025   -0.2288   -0.9939 H   0  0  0  0  0  0  0  0  0  0  0  0
    0.2735   -1.5385   -1.3167 H   0  0  0  0  0  0  0  0  0  0  0  0
   -0.2513    0.3354   -2.2534 C   0  0  0  0  0  0  0  0  0  0  0  0
    0.1024    1.3663   -2.1568 H   0  0  0  0  0  0  0  0  0  0  0  0
    0.1644   -0.0590   -3.1842 H   0  0  0  0  0  0  0  0  0  0  0  0
   -1.7714    0.4085   -2.4193 C   0  0  0  0  0  0  0  0  0  0  0  0
   -2.4560   -0.5805   -2.2058 O   0  0  0  0  0  0  0  0  0  0  0  0
   -2.2775    1.5785   -2.8724 O   0  0  0  0  0  0  0  0  0  0  0  0
   -3.2394    1.4698   -2.8898 H   0  0  0  0  0  0  0  0  0  0  0  0
   -0.4037    1.1951    0.7374 C   0  0  0  0  0  0  0  0  0  0  0  0
   -1.3389    1.8787    0.3384 O   0  0  0  0  0  0  0  0  0  0  0  0
    0.5320    1.7649    1.5816 N   0  0  0  0  0  0  0  0  0  0  0  0
    1.2434    1.1547    1.9738 H   0  0  0  0  0  0  0  0  0  0  0  0
    0.4415    3.1398    2.0586 C   0  0  0  0  0  0  0  0  0  0  0  0
   -0.4783    3.2856    2.6348 H   0  0  0  0  0  0  0  0  0  0  0  0
    1.2945    3.3743    2.7025 H   0  0  0  0  0  0  0  0  0  0  0  0
    0.4435    3.8385    1.2153 H   0  0  0  0  0  0  0  0  0  0  0  0
  1  2  1  0  0  0  0
  2  3  1  0  0  0  0
  2  4  1  0  0  0  0
  2  5  1  0  0  0  0
  5  6  2  0  0  0  0
  5  7  1  0  0  0  0
  7  8  1  0  0  0  0
  7  9  1  0  0  0  0
  9 10  1  0  0  0  0
  9 11  1  0  0  0  0
  9 21  1  0  0  0  0
 11 12  1  0  0  0  0
 11 13  1  0  0  0  0
 11 14  1  0  0  0  0
 14 15  1  0  0  0  0
 14 16  1  0  0  0  0
 14 17  1  0  0  0  0
 17 18  2  0  0  0  0
 17 19  1  0  0  0  0
 19 20  1  0  0  0  0
 21 22  2  0  0  0  0
 21 23  1  0  0  0  0
 23 24  1  0  0  0  0
 23 25  1  0  0  0  0
 25 26  1  0  0  0  0
 25 27  1  0  0  0  0
 25 28  1  0  0  0  0
M  END
$$$$

  -OEChem-02102214123D

 28 27  0     1  0  0  0  0  0999 V2000
   -3.0712   -3.9095    1.2945 H   0  0  0  0  0  0  0  0  0  0  0  0
   -3.1146   -2.9101    0.8531 C   0  0  0  0  0  0  0  0  0  0  0  0
   -3.8702   -2.3229    1.3806 H   0  0  0  0  0  0  0  0  0  0  0  0
   -3.4019   -2.9999   -0.1975 H   0  0  0  0  0  0  0  0  0  0  0  0
   -1.7635   -2.2302    0.9621 C   0  0  0  0  0  0  0  0  0  0  0  0
   -0.8320   -2.7991    1.5108 O   0  0  0  0  0  0  0  0  0  0  0  0
   -1.5895   -0.9754    0.4201 N   0  0  0  0  0  0  0  0  0  0  0  0
   -2.3711   -0.5953   -0.1165 H   0  0  0  0  0  0  0  0  0  0  0  0
   -0.3091   -0.2620    0.3302 C   0  0  1  0  0  0  0  0  0  0  0  0
    0.3810   -0.7197    1.0461 H   0  0  0  0  0  0  0  0  0  0  0  0
    0.3183   -0.4544   -1.0717 C   0  0  0  0  0  0  0  0  0  0  0  0
    1.3830   -0.2085   -1.0044 H   0  0  0  0  0  0  0  0  0  0  0  0
    0.2575   -1.5237   -1.3018 H   0  0  0  0  0  0  0  0  0  0  0  0
   -0.2664    0.3181   -2.2882 C   0  0  0  0  0  0  0  0  0  0  0  0
    0.2745    1.2667   -2.3558 H   0  0  0  0  0  0  0  0  0  0  0  0
   -0.0438   -0.2405   -3.2011 H   0  0  0  0  0  0  0  0  0  0  0  0
   -1.7555    0.6730   -2.3050 C   0  0  0  0  0  0  0  0  0  0  0  0
   -2.5852   -0.1952   -2.0789 O   0  0  0  0  0  0  0  0  0  0  0  0
   -2.0780    1.9426   -2.6443 O   0  0  0  0  0  0  0  0  0  0  0  0
   -3.0375    2.0150   -2.5347 H   0  0  0  0  0  0  0  0  0  0  0  0
   -0.4107    1.2201    0.7543 C   0  0  0  0  0  0  0  0  0  0  0  0
   -1.3775    1.9007    0.4348 O   0  0  0  0  0  0  0  0  0  0  0  0
    0.5465    1.7715    1.5866 N   0  0  0  0  0  0  0  0  0  0  0  0
    1.2773    1.1566    1.9326 H   0  0  0  0  0  0  0  0  0  0  0  0
    0.4552    3.1257    2.1197 C   0  0  0  0  0  0  0  0  0  0  0  0
   -0.4330    3.2294    2.7519 H   0  0  0  0  0  0  0  0  0  0  0  0
    1.3388    3.3558    2.7227 H   0  0  0  0  0  0  0  0  0  0  0  0
    0.3944    3.8555    1.3053 H   0  0  0  0  0  0  0  0  0  0  0  0
  1  2  1  0  0  0  0
  2  3  1  0  0  0  0
  2  4  1  0  0  0  0
  2  5  1  0  0  0  0
  5  6  2  0  0  0  0
  5  7  1  0  0  0  0
  7  8  1  0  0  0  0
  7  9  1  0  0  0  0
  9 10  1  0  0  0  0
  9 11  1  0  0  0  0
  9 21  1  0  0  0  0
 11 12  1  0  0  0  0
 11 13  1  0  0  0  0
 11 14  1  0  0  0  0
 14 15  1  0  0  0  0
 14 16  1  0  0  0  0
 14 17  1  0  0  0  0
 17 18  2  0  0  0  0
 17 19  1  0  0  0  0
 19 20  1  0  0  0  0
 21 22  2  0  0  0  0
 21 23  1  0  0  0  0
 23 24  1  0  0  0  0
 23 25  1  0  0  0  0
 25 26  1  0  0  0  0
 25 27  1  0  0  0  0
 25 28  1  0  0  0  0
M  END
$$$$

  -OEChem-02102214123D

 28 27  0     1  0  0  0  0  0999 V2000
   -3.0510   -3.8844    1.3162 H   0  0  0  0  0  0  0  0  0  0  0  0
   -3.1052   -2.8825    0.8816 C   0  0  0  0  0  0  0  0  0  0  0  0
   -3.8258   -2.2895    1.4502 H   0  0  0  0  0  0  0  0  0  0  0  0
   -3.4478   -2.9641   -0.1530 H   0  0  0  0  0  0  0  0  0  0  0  0
   -1.7427   -2.2179    0.9235 C   0  0  0  0  0  0  0  0  0  0  0  0
   -0.7849   -2.8084    1.3990 O   0  0  0  0  0  0  0  0  0  0  0  0
   -1.5900   -0.9498    0.4070 N   0  0  0  0  0  0  0  0  0  0  0  0
   -2.4024   -0.5346   -0.0532 H   0  0  0  0  0  0  0  0  0  0  0  0
   -0.3234   -0.2131    0.3079 C   0  0  1  0  0  0  0  0  0  0  0  0
    0.3681   -0.6682    1.0242 H   0  0  0  0  0  0  0  0  0  0  0  0
    0.3106   -0.4355   -1.0866 C   0  0  0  0  0  0  0  0  0  0  0  0
    1.3688   -0.1619   -1.0197 H   0  0  0  0  0  0  0  0  0  0  0  0
    0.2803   -1.5132   -1.2813 H   0  0  0  0  0  0  0  0  0  0  0  0
   -0.2782    0.2817   -2.3352 C   0  0  0  0  0  0  0  0  0  0  0  0
    0.4092    1.0875   -2.6086 H   0  0  0  0  0  0  0  0  0  0  0  0
   -0.2897   -0.4211   -3.1728 H   0  0  0  0  0  0  0  0  0  0  0  0
   -1.6683    0.9078   -2.2307 C   0  0  0  0  0  0  0  0  0  0  0  0
   -2.6274    0.1885   -1.9923 O   0  0  0  0  0  0  0  0  0  0  0  0
   -1.7646    2.2389   -2.4528 O   0  0  0  0  0  0  0  0  0  0  0  0
   -2.6750    2.4800   -2.2245 H   0  0  0  0  0  0  0  0  0  0  0  0
   -0.4188    1.2627    0.7611 C   0  0  0  0  0  0  0  0  0  0  0  0
   -1.4264    1.9260    0.5478 O   0  0  0  0  0  0  0  0  0  0  0  0
    0.5594    1.7980    1.5801 N   0  0  0  0  0  0  0  0  0  0  0  0
    1.3225    1.1885    1.8594 H   0  0  0  0  0  0  0  0  0  0  0  0
    0.4550    3.1183    2.1910 C   0  0  0  0  0  0  0  0  0  0  0  0
   -0.3999    3.1575    2.8743 H   0  0  0  0  0  0  0  0  0  0  0  0
    1.3627    3.3468    2.7578 H   0  0  0  0  0  0  0  0  0  0  0  0
    0.3265    3.8879    1.4224 H   0  0  0  0  0  0  0  0  0  0  0  0
  1  2  1  0  0  0  0
  2  3  1  0  0  0  0
  2  4  1  0  0  0  0
  2  5  1  0  0  0  0
  5  6  2  0  0  0  0
  5  7  1  0  0  0  0
  7  8  1  0  0  0  0
  7  9  1  0  0  0  0
  9 10  1  0  0  0  0
  9 11  1  0  0  0  0
  9 21  1  0  0  0  0
 11 12  1  0  0  0  0
 11 13  1  0  0  0  0
 11 14  1  0  0  0  0
 14 15  1  0  0  0  0
 14 16  1  0  0  0  0
 14 17  1  0  0  0  0
 17 18  2  0  0  0  0
 17 19  1  0  0  0  0
 19 20  1  0  0  0  0
 21 22  2  0  0  0  0
 21 23  1  0  0  0  0
 23 24  1  0  0  0  0
 23 25  1  0  0  0  0
 25 26  1  0  0  0  0
 25 27  1  0  0  0  0
 25 28  1  0  0  0  0
M  END
$$$$

  -OEChem-02102214123D

 28 27  0     1  0  0  0  0  0999 V2000
   -2.7966   -3.7920    1.8392 H   0  0  0  0  0  0  0  0  0  0  0  0
   -2.9351   -2.8163    1.3654 C   0  0  0  0  0  0  0  0  0  0  0  0
   -3.5543   -2.1931    2.0152 H   0  0  0  0  0  0  0  0  0  0  0  0
   -3.4482   -2.9567    0.4109 H   0  0  0  0  0  0  0  0  0  0  0  0
   -1.5926   -2.1487    1.1373 C   0  0  0  0  0  0  0  0  0  0  0  0
   -0.5613   -2.7166    1.4629 O   0  0  0  0  0  0  0  0  0  0  0  0
   -1.5421   -0.9027    0.5505 N   0  0  0  0  0  0  0  0  0  0  0  0
   -2.4264   -0.4868    0.2529 H   0  0  0  0  0  0  0  0  0  0  0  0
   -0.3203   -0.1451    0.2499 C   0  0  1  0  0  0  0  0  0  0  0  0
    0.4541   -0.5429    0.9140 H   0  0  0  0  0  0  0  0  0  0  0  0
    0.1720   -0.4863   -1.1783 C   0  0  0  0  0  0  0  0  0  0  0  0
    1.2124   -0.1523   -1.2469 H   0  0  0  0  0  0  0  0  0  0  0  0
    0.1904   -1.5778   -1.2718 H   0  0  0  0  0  0  0  0  0  0  0  0
   -0.5741    0.0874   -2.4146 C   0  0  0  0  0  0  0  0  0  0  0  0
    0.1379    0.6630   -3.0128 H   0  0  0  0  0  0  0  0  0  0  0  0
   -0.9076   -0.7477   -3.0373 H   0  0  0  0  0  0  0  0  0  0  0  0
   -1.7846    0.9765   -2.1572 C   0  0  0  0  0  0  0  0  0  0  0  0
   -2.8247    0.4498   -1.7906 O   0  0  0  0  0  0  0  0  0  0  0  0
   -1.6383    2.3071   -2.3508 O   0  0  0  0  0  0  0  0  0  0  0  0
   -2.4410    2.7111   -1.9850 H   0  0  0  0  0  0  0  0  0  0  0  0
   -0.3731    1.3528    0.6403 C   0  0  0  0  0  0  0  0  0  0  0  0
   -1.4216    1.9854    0.5933 O   0  0  0  0  0  0  0  0  0  0  0  0
    0.7045    1.9298    1.2886 N   0  0  0  0  0  0  0  0  0  0  0  0
    1.5230    1.3495    1.4473 H   0  0  0  0  0  0  0  0  0  0  0  0
    0.6728    3.2719    1.8587 C   0  0  0  0  0  0  0  0  0  0  0  0
   -0.0929    3.3398    2.6388 H   0  0  0  0  0  0  0  0  0  0  0  0
    1.6419    3.5170    2.3036 H   0  0  0  0  0  0  0  0  0  0  0  0
    0.4521    4.0125    1.0826 H   0  0  0  0  0  0  0  0  0  0  0  0
  1  2  1  0  0  0  0
  2  3  1  0  0  0  0
  2  4  1  0  0  0  0
  2  5  1  0  0  0  0
  5  6  2  0  0  0  0
  5  7  1  0  0  0  0
  7  8  1  0  0  0  0
  7  9  1  0  0  0  0
  9 10  1  0  0  0  0
  9 11  1  0  0  0  0
  9 21  1  0  0  0  0
 11 12  1  0  0  0  0
 11 13  1  0  0  0  0
 11 14  1  0  0  0  0
 14 15  1  0  0  0  0
 14 16  1  0  0  0  0
 14 17  1  0  0  0  0
 17 18  2  0  0  0  0
 17 19  1  0  0  0  0
 19 20  1  0  0  0  0
 21 22  2  0  0  0  0
 21 23  1  0  0  0  0
 23 24  1  0  0  0  0
 23 25  1  0  0  0  0
 25 26  1  0  0  0  0
 25 27  1  0  0  0  0
 25 28  1  0  0  0  0
M  END
$$$$

  -OEChem-02102214123D

 28 27  0     1  0  0  0  0  0999 V2000
   -3.0362   -3.8219    1.3957 H   0  0  0  0  0  0  0  0  0  0  0  0
   -3.1131   -2.8199    0.9646 C   0  0  0  0  0  0  0  0  0  0  0  0
   -3.7868   -2.2210    1.5822 H   0  0  0  0  0  0  0  0  0  0  0  0
   -3.5289   -2.9004   -0.0427 H   0  0  0  0  0  0  0  0  0  0  0  0
   -1.7454   -2.1668    0.9089 C   0  0  0  0  0  0  0  0  0  0  0  0
   -0.7618   -2.7652    1.3165 O   0  0  0  0  0  0  0  0  0  0  0  0
   -1.6165   -0.8988    0.3837 N   0  0  0  0  0  0  0  0  0  0  0  0
   -2.4680   -0.4285    0.0757 H   0  0  0  0  0  0  0  0  0  0  0  0
   -0.3700   -0.1266    0.3072 C   0  0  1  0  0  0  0  0  0  0  0  0
    0.2800   -0.5383    1.0864 H   0  0  0  0  0  0  0  0  0  0  0  0
    0.3714   -0.4510   -1.0139 C   0  0  0  0  0  0  0  0  0  0  0  0
    1.3944   -0.0806   -0.8922 H   0  0  0  0  0  0  0  0  0  0  0  0
    0.4442   -1.5401   -1.1107 H   0  0  0  0  0  0  0  0  0  0  0  0
   -0.1518    0.1222   -2.3572 C   0  0  0  0  0  0  0  0  0  0  0  0
    0.6993    0.4602   -2.9548 H   0  0  0  0  0  0  0  0  0  0  0  0
   -0.6237   -0.6948   -2.9114 H   0  0  0  0  0  0  0  0  0  0  0  0
   -1.1625    1.2568   -2.2860 C   0  0  0  0  0  0  0  0  0  0  0  0
   -2.3491    0.9695   -2.2775 O   0  0  0  0  0  0  0  0  0  0  0  0
   -0.6896    2.5228   -2.2291 O   0  0  0  0  0  0  0  0  0  0  0  0
   -1.4652    3.0745   -2.0383 H   0  0  0  0  0  0  0  0  0  0  0  0
   -0.4970    1.3549    0.7393 C   0  0  0  0  0  0  0  0  0  0  0  0
   -1.5417    1.9735    0.5717 O   0  0  0  0  0  0  0  0  0  0  0  0
    0.4596    1.9115    1.5697 N   0  0  0  0  0  0  0  0  0  0  0  0
    1.2649    1.3402    1.8088 H   0  0  0  0  0  0  0  0  0  0  0  0
    0.3242    3.2280    2.1826 C   0  0  0  0  0  0  0  0  0  0  0  0
   -0.5699    3.2681    2.8140 H   0  0  0  0  0  0  0  0  0  0  0  0
    1.1966    3.4467    2.8059 H   0  0  0  0  0  0  0  0  0  0  0  0
    0.2470    4.0027    1.4123 H   0  0  0  0  0  0  0  0  0  0  0  0
  1  2  1  0  0  0  0
  2  3  1  0  0  0  0
  2  4  1  0  0  0  0
  2  5  1  0  0  0  0
  5  6  2  0  0  0  0
  5  7  1  0  0  0  0
  7  8  1  0  0  0  0
  7  9  1  0  0  0  0
  9 10  1  0  0  0  0
  9 11  1  0  0  0  0
  9 21  1  0  0  0  0
 11 12  1  0  0  0  0
 11 13  1  0  0  0  0
 11 14  1  0  0  0  0
 14 15  1  0  0  0  0
 14 16  1  0  0  0  0
 14 17  1  0  0  0  0
 17 18  2  0  0  0  0
 17 19  1  0  0  0  0
 19 20  1  0  0  0  0
 21 22  2  0  0  0  0
 21 23  1  0  0  0  0
 23 24  1  0  0  0  0
 23 25  1  0  0  0  0
 25 26  1  0  0  0  0
 25 27  1  0  0  0  0
 25 28  1  0  0  0  0
M  END
$$$$

  -OEChem-02102214123D

 28 27  0     1  0  0  0  0  0999 V2000
   -3.3560   -3.6623    1.0027 H   0  0  0  0  0  0  0  0  0  0  0  0
   -3.3202   -2.6447    0.6040 C   0  0  0  0  0  0  0  0  0  0  0  0
   -3.9722   -2.0075    1.2063 H   0  0  0  0  0  0  0  0  0  0  0  0
   -3.6842   -2.6564   -0.4263 H   0  0  0  0  0  0  0  0  0  0  0  0
   -1.8991   -2.1165    0.6447 C   0  0  0  0  0  0  0  0  0  0  0  0
   -0.9933   -2.8254    1.0547 O   0  0  0  0  0  0  0  0  0  0  0  0
   -1.6332   -0.8349    0.2114 N   0  0  0  0  0  0  0  0  0  0  0  0
   -2.4302   -0.2531   -0.0448 H   0  0  0  0  0  0  0  0  0  0  0  0
   -0.3330   -0.1591    0.3155 C   0  0  1  0  0  0  0  0  0  0  0  0
    0.2101   -0.6576    1.1253 H   0  0  0  0  0  0  0  0  0  0  0  0
    0.5077   -0.4477   -0.9551 C   0  0  0  0  0  0  0  0  0  0  0  0
    1.5360   -0.1630   -0.7092 H   0  0  0  0  0  0  0  0  0  0  0  0
    0.5148   -1.5291   -1.1302 H   0  0  0  0  0  0  0  0  0  0  0  0
    0.1670    0.2596   -2.2914 C   0  0  0  0  0  0  0  0  0  0  0  0
    1.0684    0.3141   -2.9087 H   0  0  0  0  0  0  0  0  0  0  0  0
   -0.5496   -0.3692   -2.8276 H   0  0  0  0  0  0  0  0  0  0  0  0
   -0.4474    1.6475   -2.2048 C   0  0  0  0  0  0  0  0  0  0  0  0
    0.2987    2.5884   -1.9885 O   0  0  0  0  0  0  0  0  0  0  0  0
   -1.7880    1.7611   -2.3504 O   0  0  0  0  0  0  0  0  0  0  0  0
   -1.9969    2.6746   -2.0982 H   0  0  0  0  0  0  0  0  0  0  0  0
   -0.4485    1.2977    0.8251 C   0  0  0  0  0  0  0  0  0  0  0  0
   -1.4628    1.9495    0.5963 O   0  0  0  0  0  0  0  0  0  0  0  0
    0.4215    1.7634    1.7943 N   0  0  0  0  0  0  0  0  0  0  0  0
    1.2218    1.1834    2.0281 H   0  0  0  0  0  0  0  0  0  0  0  0
    0.2886    3.0692    2.4295 C   0  0  0  0  0  0  0  0  0  0  0  0
   -0.6673    3.1433    2.9588 H   0  0  0  0  0  0  0  0  0  0  0  0
    1.0955    3.2224    3.1525 H   0  0  0  0  0  0  0  0  0  0  0  0
    0.3392    3.8661    1.6799 H   0  0  0  0  0  0  0  0  0  0  0  0
  1  2  1  0  0  0  0
  2  3  1  0  0  0  0
  2  4  1  0  0  0  0
  2  5  1  0  0  0  0
  5  6  2  0  0  0  0
  5  7  1  0  0  0  0
  7  8  1  0  0  0  0
  7  9  1  0  0  0  0
  9 10  1  0  0  0  0
  9 11  1  0  0  0  0
  9 21  1  0  0  0  0
 11 12  1  0  0  0  0
 11 13  1  0  0  0  0
 11 14  1  0  0  0  0
 14 15  1  0  0  0  0
 14 16  1  0  0  0  0
 14 17  1  0  0  0  0
 17 18  2  0  0  0  0
 17 19  1  0  0  0  0
 19 20  1  0  0  0  0
 21 22  2  0  0  0  0
 21 23  1  0  0  0  0
 23 24  1  0  0  0  0
 23 25  1  0  0  0  0
 25 26  1  0  0  0  0
 25 27  1  0  0  0  0
 25 28  1  0  0  0  0
M  END
$$$$

  -OEChem-02102214123D

 28 27  0     1  0  0  0  0  0999 V2000
   -3.2491   -3.7330    1.0703 H   0  0  0  0  0  0  0  0  0  0  0  0
   -3.2393   -2.7162    0.6680 C   0  0  0  0  0  0  0  0  0  0  0  0
   -3.8701   -2.0829    1.2965 H   0  0  0  0  0  0  0  0  0  0  0  0
   -3.6476   -2.7339   -0.3453 H   0  0  0  0  0  0  0  0  0  0  0  0
   -1.8219   -2.1764    0.6456 C   0  0  0  0  0  0  0  0  0  0  0  0
   -0.8913   -2.8819    1.0020 O   0  0  0  0  0  0  0  0  0  0  0  0
   -1.5886   -0.8867    0.2175 N   0  0  0  0  0  0  0  0  0  0  0  0
   -2.4039   -0.3039    0.0306 H   0  0  0  0  0  0  0  0  0  0  0  0
   -0.2937   -0.1954    0.2904 C   0  0  1  0  0  0  0  0  0  0  0  0
    0.2946   -0.6974    1.0660 H   0  0  0  0  0  0  0  0  0  0  0  0
    0.4869   -0.4285   -1.0286 C   0  0  0  0  0  0  0  0  0  0  0  0
    1.5270   -0.1486   -0.8304 H   0  0  0  0  0  0  0  0  0  0  0  0
    0.4848   -1.5019   -1.2476 H   0  0  0  0  0  0  0  0  0  0  0  0
    0.0585    0.3312   -2.3085 C   0  0  0  0  0  0  0  0  0  0  0  0
    0.8311    0.2084   -3.0724 H   0  0  0  0  0  0  0  0  0  0  0  0
   -0.8504   -0.1432   -2.6892 H   0  0  0  0  0  0  0  0  0  0  0  0
   -0.2338    1.8183   -2.1632 C   0  0  0  0  0  0  0  0  0  0  0  0
    0.6641    2.5420   -1.7628 O   0  0  0  0  0  0  0  0  0  0  0  0
   -1.4717    2.2581   -2.4865 O   0  0  0  0  0  0  0  0  0  0  0  0
   -1.5005    3.1865   -2.2089 H   0  0  0  0  0  0  0  0  0  0  0  0
   -0.4366    1.2496    0.8207 C   0  0  0  0  0  0  0  0  0  0  0  0
   -1.4605    1.8849    0.5890 O   0  0  0  0  0  0  0  0  0  0  0  0
    0.4402    1.7332    1.7745 N   0  0  0  0  0  0  0  0  0  0  0  0
    1.2721    1.1839    1.9690 H   0  0  0  0  0  0  0  0  0  0  0  0
    0.3165    3.0569    2.3729 C   0  0  0  0  0  0  0  0  0  0  0  0
   -0.6464    3.1588    2.8846 H   0  0  0  0  0  0  0  0  0  0  0  0
    1.1138    3.2177    3.1049 H   0  0  0  0  0  0  0  0  0  0  0  0
    0.3909    3.8326    1.6032 H   0  0  0  0  0  0  0  0  0  0  0  0
  1  2  1  0  0  0  0
  2  3  1  0  0  0  0
  2  4  1  0  0  0  0
  2  5  1  0  0  0  0
  5  6  2  0  0  0  0
  5  7  1  0  0  0  0
  7  8  1  0  0  0  0
  7  9  1  0  0  0  0
  9 10  1  0  0  0  0
  9 11  1  0  0  0  0
  9 21  1  0  0  0  0
 11 12  1  0  0  0  0
 11 13  1  0  0  0  0
 11 14  1  0  0  0  0
 14 15  1  0  0  0  0
 14 16  1  0  0  0  0
 14 17  1  0  0  0  0
 17 18  2  0  0  0  0
 17 19  1  0  0  0  0
 19 20  1  0  0  0  0
 21 22  2  0  0  0  0
 21 23  1  0  0  0  0
 23 24  1  0  0  0  0
 23 25  1  0  0  0  0
 25 26  1  0  0  0  0
 25 27  1  0  0  0  0
 25 28  1  0  0  0  0
M  END
$$$$

  -OEChem-02102214123D

 28 27  0     1  0  0  0  0  0999 V2000
   -3.2030   -3.7502    1.1911 H   0  0  0  0  0  0  0  0  0  0  0  0
   -3.2007   -2.7442    0.7623 C   0  0  0  0  0  0  0  0  0  0  0  0
   -3.8192   -2.0941    1.3857 H   0  0  0  0  0  0  0  0  0  0  0  0
   -3.6276   -2.7878   -0.2426 H   0  0  0  0  0  0  0  0  0  0  0  0
   -1.7842   -2.2055    0.6992 C   0  0  0  0  0  0  0  0  0  0  0  0
   -0.8468   -2.9040    1.0514 O   0  0  0  0  0  0  0  0  0  0  0  0
   -1.5591   -0.9261    0.2372 N   0  0  0  0  0  0  0  0  0  0  0  0
   -2.3778   -0.3438    0.0643 H   0  0  0  0  0  0  0  0  0  0  0  0
   -0.2627   -0.2346    0.2799 C   0  0  1  0  0  0  0  0  0  0  0  0
    0.3529   -0.7238    1.0421 H   0  0  0  0  0  0  0  0  0  0  0  0
    0.4700   -0.4517   -1.0669 C   0  0  0  0  0  0  0  0  0  0  0  0
    1.5249   -0.1994   -0.9154 H   0  0  0  0  0  0  0  0  0  0  0  0
    0.4328   -1.5195   -1.3082 H   0  0  0  0  0  0  0  0  0  0  0  0
   -0.0300    0.3436   -2.2969 C   0  0  0  0  0  0  0  0  0  0  0  0
    0.5595    0.0527   -3.1702 H   0  0  0  0  0  0  0  0  0  0  0  0
   -1.0666    0.0554   -2.4929 H   0  0  0  0  0  0  0  0  0  0  0  0
    0.0214    1.8651   -2.1871 C   0  0  0  0  0  0  0  0  0  0  0  0
    1.0065    2.3810   -1.6817 O   0  0  0  0  0  0  0  0  0  0  0  0
   -1.0219    2.5669   -2.6854 O   0  0  0  0  0  0  0  0  0  0  0  0
   -0.8501    3.4928   -2.4581 H   0  0  0  0  0  0  0  0  0  0  0  0
   -0.4213    1.2180    0.7793 C   0  0  0  0  0  0  0  0  0  0  0  0
   -1.4361    1.8484    0.4993 O   0  0  0  0  0  0  0  0  0  0  0  0
    0.4518    1.7366    1.7172 N   0  0  0  0  0  0  0  0  0  0  0  0
    1.2922    1.2029    1.9185 H   0  0  0  0  0  0  0  0  0  0  0  0
    0.3351    3.0882    2.2501 C   0  0  0  0  0  0  0  0  0  0  0  0
   -0.6359    3.2263    2.7375 H   0  0  0  0  0  0  0  0  0  0  0  0
    1.1202    3.2727    2.9897 H   0  0  0  0  0  0  0  0  0  0  0  0
    0.4350    3.8252    1.4462 H   0  0  0  0  0  0  0  0  0  0  0  0
  1  2  1  0  0  0  0
  2  3  1  0  0  0  0
  2  4  1  0  0  0  0
  2  5  1  0  0  0  0
  5  6  2  0  0  0  0
  5  7  1  0  0  0  0
  7  8  1  0  0  0  0
  7  9  1  0  0  0  0
  9 10  1  0  0  0  0
  9 11  1  0  0  0  0
  9 21  1  0  0  0  0
 11 12  1  0  0  0  0
 11 13  1  0  0  0  0
 11 14  1  0  0  0  0
 14 15  1  0  0  0  0
 14 16  1  0  0  0  0
 14 17  1  0  0  0  0
 17 18  2  0  0  0  0
 17 19  1  0  0  0  0
 19 20  1  0  0  0  0
 21 22  2  0  0  0  0
 21 23  1  0  0  0  0
 23 24  1  0  0  0  0
 23 25  1  0  0  0  0
 25 26  1  0  0  0  0
 25 27  1  0  0  0  0
 25 28  1  0  0  0  0
M  END
$$$$

  -OEChem-02102214123D

 28 27  0     1  0  0  0  0  0999 V2000
   -3.2075   -3.7634    1.2372 H   0  0  0  0  0  0  0  0  0  0  0  0
   -3.1969   -2.7721    0.7756 C   0  0  0  0  0  0  0  0  0  0  0  0
   -3.8319   -2.1042    1.3625 H   0  0  0  0  0  0  0  0  0  0  0  0
   -3.5997   -2.8502   -0.2371 H   0  0  0  0  0  0  0  0  0  0  0  0
   -1.7800   -2.2327    0.7285 C   0  0  0  0  0  0  0  0  0  0  0  0
   -0.8498   -2.9205    1.1183 O   0  0  0  0  0  0  0  0  0  0  0  0
   -1.5464   -0.9654    0.2383 N   0  0  0  0  0  0  0  0  0  0  0  0
   -2.3609   -0.3886    0.0314 H   0  0  0  0  0  0  0  0  0  0  0  0
   -0.2484   -0.2759    0.2801 C   0  0  1  0  0  0  0  0  0  0  0  0
    0.3728   -0.7555    1.0437 H   0  0  0  0  0  0  0  0  0  0  0  0
    0.4750   -0.4692   -1.0721 C   0  0  0  0  0  0  0  0  0  0  0  0
    1.5392   -0.2476   -0.9383 H   0  0  0  0  0  0  0  0  0  0  0  0
    0.4079   -1.5287   -1.3418 H   0  0  0  0  0  0  0  0  0  0  0  0
   -0.0708    0.3710   -2.2521 C   0  0  0  0  0  0  0  0  0  0  0  0
    0.3157   -0.0453   -3.1859 H   0  0  0  0  0  0  0  0  0  0  0  0
   -1.1603    0.2811   -2.2811 H   0  0  0  0  0  0  0  0  0  0  0  0
    0.2913    1.8577   -2.2365 C   0  0  0  0  0  0  0  0  0  0  0  0
    1.2952    2.2264   -1.6460 O   0  0  0  0  0  0  0  0  0  0  0  0
   -0.5226    2.6947   -2.9192 O   0  0  0  0  0  0  0  0  0  0  0  0
   -0.1787    3.5862   -2.7607 H   0  0  0  0  0  0  0  0  0  0  0  0
   -0.4147    1.1873    0.7426 C   0  0  0  0  0  0  0  0  0  0  0  0
   -1.4040    1.8241    0.3940 O   0  0  0  0  0  0  0  0  0  0  0  0
    0.4429    1.7325    1.6795 N   0  0  0  0  0  0  0  0  0  0  0  0
    1.2759    1.2006    1.9140 H   0  0  0  0  0  0  0  0  0  0  0  0
    0.3407    3.1121    2.1381 C   0  0  0  0  0  0  0  0  0  0  0  0
   -0.6427    3.2976    2.5827 H   0  0  0  0  0  0  0  0  0  0  0  0
    1.1039    3.3164    2.8950 H   0  0  0  0  0  0  0  0  0  0  0  0
    0.4862    3.8040    1.3017 H   0  0  0  0  0  0  0  0  0  0  0  0
  1  2  1  0  0  0  0
  2  3  1  0  0  0  0
  2  4  1  0  0  0  0
  2  5  1  0  0  0  0
  5  6  2  0  0  0  0
  5  7  1  0  0  0  0
  7  8  1  0  0  0  0
  7  9  1  0  0  0  0
  9 10  1  0  0  0  0
  9 11  1  0  0  0  0
  9 21  1  0  0  0  0
 11 12  1  0  0  0  0
 11 13  1  0  0  0  0
 11 14  1  0  0  0  0
 14 15  1  0  0  0  0
 14 16  1  0  0  0  0
 14 17  1  0  0  0  0
 17 18  2  0  0  0  0
 17 19  1  0  0  0  0
 19 20  1  0  0  0  0
 21 22  2  0  0  0  0
 21 23  1  0  0  0  0
 23 24  1  0  0  0  0
 23 25  1  0  0  0  0
 25 26  1  0  0  0  0
 25 27  1  0  0  0  0
 25 28  1  0  0  0  0
M  END
$$$$

  -OEChem-02102214123D

 28 27  0     1  0  0  0  0  0999 V2000
   -3.1994   -3.7831    1.2636 H   0  0  0  0  0  0  0  0  0  0  0  0
   -3.1913   -2.7937    0.7980 C   0  0  0  0  0  0  0  0  0  0  0  0
   -3.8233   -2.1233    1.3855 H   0  0  0  0  0  0  0  0  0  0  0  0
   -3.5990   -2.8763   -0.2125 H   0  0  0  0  0  0  0  0  0  0  0  0
   -1.7748   -2.2541    0.7414 C   0  0  0  0  0  0  0  0  0  0  0  0
   -0.8430   -2.9365    1.1369 O   0  0  0  0  0  0  0  0  0  0  0  0
   -1.5442   -0.9916    0.2378 N   0  0  0  0  0  0  0  0  0  0  0  0
   -2.3601   -0.4188    0.0260 H   0  0  0  0  0  0  0  0  0  0  0  0
   -0.2474   -0.2991    0.2748 C   0  0  1  0  0  0  0  0  0  0  0  0
    0.3804   -0.7758    1.0349 H   0  0  0  0  0  0  0  0  0  0  0  0
    0.4702   -0.4679   -1.0805 C   0  0  0  0  0  0  0  0  0  0  0  0
    1.5391   -0.2662   -0.9569 H   0  0  0  0  0  0  0  0  0  0  0  0
    0.3879   -1.5203   -1.3727 H   0  0  0  0  0  0  0  0  0  0  0  0
   -0.1122    0.4031   -2.2209 C   0  0  0  0  0  0  0  0  0  0  0  0
    0.0525   -0.1191   -3.1669 H   0  0  0  0  0  0  0  0  0  0  0  0
   -1.1933    0.5104   -2.0966 H   0  0  0  0  0  0  0  0  0  0  0  0
    0.5076    1.7959   -2.3728 C   0  0  0  0  0  0  0  0  0  0  0  0
    1.4552    2.1274   -1.6767 O   0  0  0  0  0  0  0  0  0  0  0  0
   -0.0381    2.5984   -3.3149 O   0  0  0  0  0  0  0  0  0  0  0  0
    0.4441    3.4368   -3.2595 H   0  0  0  0  0  0  0  0  0  0  0  0
   -0.4106    1.1702    0.7210 C   0  0  0  0  0  0  0  0  0  0  0  0
   -1.3914    1.8101    0.3545 O   0  0  0  0  0  0  0  0  0  0  0  0
    0.4473    1.7240    1.6523 N   0  0  0  0  0  0  0  0  0  0  0  0
    1.2796    1.1929    1.8913 H   0  0  0  0  0  0  0  0  0  0  0  0
    0.3556    3.1130    2.0843 C   0  0  0  0  0  0  0  0  0  0  0  0
   -0.6263    3.3148    2.5255 H   0  0  0  0  0  0  0  0  0  0  0  0
    1.1206    3.3265    2.8369 H   0  0  0  0  0  0  0  0  0  0  0  0
    0.5061    3.7872    1.2346 H   0  0  0  0  0  0  0  0  0  0  0  0
  1  2  1  0  0  0  0
  2  3  1  0  0  0  0
  2  4  1  0  0  0  0
  2  5  1  0  0  0  0
  5  6  2  0  0  0  0
  5  7  1  0  0  0  0
  7  8  1  0  0  0  0
  7  9  1  0  0  0  0
  9 10  1  0  0  0  0
  9 11  1  0  0  0  0
  9 21  1  0  0  0  0
 11 12  1  0  0  0  0
 11 13  1  0  0  0  0
 11 14  1  0  0  0  0
 14 15  1  0  0  0  0
 14 16  1  0  0  0  0
 14 17  1  0  0  0  0
 17 18  2  0  0  0  0
 17 19  1  0  0  0  0
 19 20  1  0  0  0  0
 21 22  2  0  0  0  0
 21 23  1  0  0  0  0
 23 24  1  0  0  0  0
 23 25  1  0  0  0  0
 25 26  1  0  0  0  0
 25 27  1  0  0  0  0
 25 28  1  0  0  0  0
M  END
$$$$

  -OEChem-02102214123D

 28 27  0     1  0  0  0  0  0999 V2000
   -3.1717   -3.8060    1.2623 H   0  0  0  0  0  0  0  0  0  0  0  0
   -3.1791   -2.8070    0.8175 C   0  0  0  0  0  0  0  0  0  0  0  0
   -3.7975   -2.1514    1.4355 H   0  0  0  0  0  0  0  0  0  0  0  0
   -3.6135   -2.8697   -0.1831 H   0  0  0  0  0  0  0  0  0  0  0  0
   -1.7663   -2.2607    0.7349 C   0  0  0  0  0  0  0  0  0  0  0  0
   -0.8232   -2.9430    1.1032 O   0  0  0  0  0  0  0  0  0  0  0  0
   -1.5523   -0.9921    0.2391 N   0  0  0  0  0  0  0  0  0  0  0  0
   -2.3757   -0.4222    0.0503 H   0  0  0  0  0  0  0  0  0  0  0  0
   -0.2602   -0.2902    0.2605 C   0  0  1  0  0  0  0  0  0  0  0  0
    0.3796   -0.7709    1.0081 H   0  0  0  0  0  0  0  0  0  0  0  0
    0.4458   -0.4421   -1.1006 C   0  0  0  0  0  0  0  0  0  0  0  0
    1.5137   -0.2318   -0.9818 H   0  0  0  0  0  0  0  0  0  0  0  0
    0.3735   -1.4931   -1.4007 H   0  0  0  0  0  0  0  0  0  0  0  0
   -0.1611    0.4341   -2.2251 C   0  0  0  0  0  0  0  0  0  0  0  0
   -0.2348   -0.1814   -3.1260 H   0  0  0  0  0  0  0  0  0  0  0  0
   -1.1781    0.7474   -1.9754 H   0  0  0  0  0  0  0  0  0  0  0  0
    0.6648    1.6679   -2.5978 C   0  0  0  0  0  0  0  0  0  0  0  0
    1.4827    2.1166   -1.8095 O   0  0  0  0  0  0  0  0  0  0  0  0
    0.4334    2.2084   -3.8162 O   0  0  0  0  0  0  0  0  0  0  0  0
    1.0139    2.9820   -3.8767 H   0  0  0  0  0  0  0  0  0  0  0  0
   -0.4125    1.1770    0.7213 C   0  0  0  0  0  0  0  0  0  0  0  0
   -1.4131    1.8128    0.4047 O   0  0  0  0  0  0  0  0  0  0  0  0
    0.4660    1.7202    1.6400 N   0  0  0  0  0  0  0  0  0  0  0  0
    1.3053    1.1889    1.8522 H   0  0  0  0  0  0  0  0  0  0  0  0
    0.3709    3.0969    2.1098 C   0  0  0  0  0  0  0  0  0  0  0  0
   -0.5989    3.2745    2.5863 H   0  0  0  0  0  0  0  0  0  0  0  0
    1.1568    3.3014    2.8432 H   0  0  0  0  0  0  0  0  0  0  0  0
    0.4856    3.7947    1.2736 H   0  0  0  0  0  0  0  0  0  0  0  0
  1  2  1  0  0  0  0
  2  3  1  0  0  0  0
  2  4  1  0  0  0  0
  2  5  1  0  0  0  0
  5  6  2  0  0  0  0
  5  7  1  0  0  0  0
  7  8  1  0  0  0  0
  7  9  1  0  0  0  0
  9 10  1  0  0  0  0
  9 11  1  0  0  0  0
  9 21  1  0  0  0  0
 11 12  1  0  0  0  0
 11 13  1  0  0  0  0
 11 14  1  0  0  0  0
 14 15  1  0  0  0  0
 14 16  1  0  0  0  0
 14 17  1  0  0  0  0
 17 18  2  0  0  0  0
 17 19  1  0  0  0  0
 19 20  1  0  0  0  0
 21 22  2  0  0  0  0
 21 23  1  0  0  0  0
 23 24  1  0  0  0  0
 23 25  1  0  0  0  0
 25 26  1  0  0  0  0
 25 27  1  0  0  0  0
 25 28  1  0  0  0  0
M  END
$$$$

  -OEChem-02102214123D

 28 27  0     1  0  0  0  0  0999 V2000
   -3.1408   -3.8142    1.2482 H   0  0  0  0  0  0  0  0  0  0  0  0
   -3.1654   -2.8069    0.8230 C   0  0  0  0  0  0  0  0  0  0  0  0
   -3.7717   -2.1671    1.4688 H   0  0  0  0  0  0  0  0  0  0  0  0
   -3.6243   -2.8534   -0.1674 H   0  0  0  0  0  0  0  0  0  0  0  0
   -1.7586   -2.2499    0.7154 C   0  0  0  0  0  0  0  0  0  0  0  0
   -0.8029   -2.9322    1.0495 O   0  0  0  0  0  0  0  0  0  0  0  0
   -1.5642   -0.9714    0.2367 N   0  0  0  0  0  0  0  0  0  0  0  0
   -2.3954   -0.4036    0.0774 H   0  0  0  0  0  0  0  0  0  0  0  0
   -0.2769   -0.2617    0.2413 C   0  0  1  0  0  0  0  0  0  0  0  0
    0.3738   -0.7497    0.9747 H   0  0  0  0  0  0  0  0  0  0  0  0
    0.4133   -0.4076   -1.1282 C   0  0  0  0  0  0  0  0  0  0  0  0
    1.4745   -0.1684   -1.0043 H   0  0  0  0  0  0  0  0  0  0  0  0
    0.3698   -1.4601   -1.4294 H   0  0  0  0  0  0  0  0  0  0  0  0
   -0.2045    0.4601   -2.2544 C   0  0  0  0  0  0  0  0  0  0  0  0
   -0.5456   -0.2081   -3.0501 H   0  0  0  0  0  0  0  0  0  0  0  0
   -1.0861    1.0035   -1.9088 H   0  0  0  0  0  0  0  0  0  0  0  0
    0.7714    1.4616   -2.8707 C   0  0  0  0  0  0  0  0  0  0  0  0
    1.5399    2.0708   -2.1436 O   0  0  0  0  0  0  0  0  0  0  0  0
    0.7293    1.6237   -4.2131 O   0  0  0  0  0  0  0  0  0  0  0  0
    1.3943    2.2978   -4.4190 H   0  0  0  0  0  0  0  0  0  0  0  0
   -0.4152    1.1983    0.7290 C   0  0  0  0  0  0  0  0  0  0  0  0
   -1.4331    1.8330    0.4720 O   0  0  0  0  0  0  0  0  0  0  0  0
    0.4885    1.7234    1.6339 N   0  0  0  0  0  0  0  0  0  0  0  0
    1.3263    1.1827    1.8278 H   0  0  0  0  0  0  0  0  0  0  0  0
    0.3834    3.0744    2.1712 C   0  0  0  0  0  0  0  0  0  0  0  0
   -0.5593    3.1986    2.7145 H   0  0  0  0  0  0  0  0  0  0  0  0
    1.2081    3.2726    2.8625 H   0  0  0  0  0  0  0  0  0  0  0  0
    0.4243    3.8118    1.3623 H   0  0  0  0  0  0  0  0  0  0  0  0
  1  2  1  0  0  0  0
  2  3  1  0  0  0  0
  2  4  1  0  0  0  0
  2  5  1  0  0  0  0
  5  6  2  0  0  0  0
  5  7  1  0  0  0  0
  7  8  1  0  0  0  0
  7  9  1  0  0  0  0
  9 10  1  0  0  0  0
  9 11  1  0  0  0  0
  9 21  1  0  0  0  0
 11 12  1  0  0  0  0
 11 13  1  0  0  0  0
 11 14  1  0  0  0  0
 14 15  1  0  0  0  0
 14 16  1  0  0  0  0
 14 17  1  0  0  0  0
 17 18  2  0  0  0  0
 17 19  1  0  0  0  0
 19 20  1  0  0  0  0
 21 22  2  0  0  0  0
 21 23  1  0  0  0  0
 23 24  1  0  0  0  0
 23 25  1  0  0  0  0
 25 26  1  0  0  0  0
 25 27  1  0  0  0  0
 25 28  1  0  0  0  0
M  END
$$$$

  -OEChem-02102214123D

 28 27  0     1  0  0  0  0  0999 V2000
   -3.1232   -3.8239    1.1796 H   0  0  0  0  0  0  0  0  0  0  0  0
   -3.1580   -2.7951    0.8105 C   0  0  0  0  0  0  0  0  0  0  0  0
   -3.7436   -2.1907    1.5075 H   0  0  0  0  0  0  0  0  0  0  0  0
   -3.6463   -2.7879   -0.1669 H   0  0  0  0  0  0  0  0  0  0  0  0
   -1.7537   -2.2342    0.6919 C   0  0  0  0  0  0  0  0  0  0  0  0
   -0.7922   -2.9201    1.0014 O   0  0  0  0  0  0  0  0  0  0  0  0
   -1.5678   -0.9481    0.2310 N   0  0  0  0  0  0  0  0  0  0  0  0
   -2.4020   -0.3798    0.0910 H   0  0  0  0  0  0  0  0  0  0  0  0
   -0.2818   -0.2365    0.2271 C   0  0  1  0  0  0  0  0  0  0  0  0
    0.3781   -0.7323    0.9469 H   0  0  0  0  0  0  0  0  0  0  0  0
    0.3907   -0.3806   -1.1525 C   0  0  0  0  0  0  0  0  0  0  0  0
    1.4443   -0.1103   -1.0240 H   0  0  0  0  0  0  0  0  0  0  0  0
    0.3747   -1.4330   -1.4559 H   0  0  0  0  0  0  0  0  0  0  0  0
   -0.2297    0.4818   -2.2806 C   0  0  0  0  0  0  0  0  0  0  0  0
   -0.8363   -0.1631   -2.9225 H   0  0  0  0  0  0  0  0  0  0  0  0
   -0.8990    1.2468   -1.8843 H   0  0  0  0  0  0  0  0  0  0  0  0
    0.8171    1.1932   -3.1343 C   0  0  0  0  0  0  0  0  0  0  0  0
    1.6516    1.8921   -2.5826 O   0  0  0  0  0  0  0  0  0  0  0  0
    0.7693    1.0036   -4.4732 O   0  0  0  0  0  0  0  0  0  0  0  0
    1.4958    1.5290   -4.8414 H   0  0  0  0  0  0  0  0  0  0  0  0
   -0.4141    1.2151    0.7399 C   0  0  0  0  0  0  0  0  0  0  0  0
   -1.4349    1.8542    0.5078 O   0  0  0  0  0  0  0  0  0  0  0  0
    0.5028    1.7271    1.6392 N   0  0  0  0  0  0  0  0  0  0  0  0
    1.3251    1.1672    1.8450 H   0  0  0  0  0  0  0  0  0  0  0  0
    0.3907    3.0578    2.2245 C   0  0  0  0  0  0  0  0  0  0  0  0
   -0.5391    3.1487    2.7958 H   0  0  0  0  0  0  0  0  0  0  0  0
    1.2305    3.2467    2.9002 H   0  0  0  0  0  0  0  0  0  0  0  0
    0.3986    3.8221    1.4402 H   0  0  0  0  0  0  0  0  0  0  0  0
  1  2  1  0  0  0  0
  2  3  1  0  0  0  0
  2  4  1  0  0  0  0
  2  5  1  0  0  0  0
  5  6  2  0  0  0  0
  5  7  1  0  0  0  0
  7  8  1  0  0  0  0
  7  9  1  0  0  0  0
  9 10  1  0  0  0  0
  9 11  1  0  0  0  0
  9 21  1  0  0  0  0
 11 12  1  0  0  0  0
 11 13  1  0  0  0  0
 11 14  1  0  0  0  0
 14 15  1  0  0  0  0
 14 16  1  0  0  0  0
 14 17  1  0  0  0  0
 17 18  2  0  0  0  0
 17 19  1  0  0  0  0
 19 20  1  0  0  0  0
 21 22  2  0  0  0  0
 21 23  1  0  0  0  0
 23 24  1  0  0  0  0
 23 25  1  0  0  0  0
 25 26  1  0  0  0  0
 25 27  1  0  0  0  0
 25 28  1  0  0  0  0
M  END
$$$$

  -OEChem-02102214123D

 28 27  0     1  0  0  0  0  0999 V2000
   -3.1440   -3.7932    1.2473 H   0  0  0  0  0  0  0  0  0  0  0  0
   -3.1638   -2.7836    0.8277 C   0  0  0  0  0  0  0  0  0  0  0  0
   -3.7839   -2.1490    1.4656 H   0  0  0  0  0  0  0  0  0  0  0  0
   -3.6039   -2.8257   -0.1715 H   0  0  0  0  0  0  0  0  0  0  0  0
   -1.7572   -2.2220    0.7490 C   0  0  0  0  0  0  0  0  0  0  0  0
   -0.8100   -2.8862    1.1389 O   0  0  0  0  0  0  0  0  0  0  0  0
   -1.5546   -0.9570    0.2392 N   0  0  0  0  0  0  0  0  0  0  0  0
   -2.3822   -0.4035    0.0228 H   0  0  0  0  0  0  0  0  0  0  0  0
   -0.2677   -0.2474    0.2378 C   0  0  1  0  0  0  0  0  0  0  0  0
    0.3727   -0.7132    0.9943 H   0  0  0  0  0  0  0  0  0  0  0  0
    0.4347   -0.4607   -1.1184 C   0  0  0  0  0  0  0  0  0  0  0  0
    1.4774   -0.1612   -0.9693 H   0  0  0  0  0  0  0  0  0  0  0  0
    0.4419   -1.5268   -1.3711 H   0  0  0  0  0  0  0  0  0  0  0  0
   -0.1558    0.3464   -2.3038 C   0  0  0  0  0  0  0  0  0  0  0  0
   -0.9676   -0.2285   -2.7566 H   0  0  0  0  0  0  0  0  0  0  0  0
   -0.5855    1.2859   -1.9529 H   0  0  0  0  0  0  0  0  0  0  0  0
    0.8523    0.7227   -3.3923 C   0  0  0  0  0  0  0  0  0  0  0  0
    1.9763    0.2471   -3.3813 O   0  0  0  0  0  0  0  0  0  0  0  0
    0.4200    1.5807   -4.3444 O   0  0  0  0  0  0  0  0  0  0  0  0
    1.1676    1.7058   -4.9481 H   0  0  0  0  0  0  0  0  0  0  0  0
   -0.4080    1.2243    0.6843 C   0  0  0  0  0  0  0  0  0  0  0  0
   -1.4080    1.8649    0.3798 O   0  0  0  0  0  0  0  0  0  0  0  0
    0.4886    1.7708    1.5841 N   0  0  0  0  0  0  0  0  0  0  0  0
    1.2606    1.1872    1.8939 H   0  0  0  0  0  0  0  0  0  0  0  0
    0.3345    3.1010    2.1609 C   0  0  0  0  0  0  0  0  0  0  0  0
   -0.5709    3.1493    2.7751 H   0  0  0  0  0  0  0  0  0  0  0  0
    1.1950    3.3418    2.7926 H   0  0  0  0  0  0  0  0  0  0  0  0
    0.2656    3.8565    1.3710 H   0  0  0  0  0  0  0  0  0  0  0  0
  1  2  1  0  0  0  0
  2  3  1  0  0  0  0
  2  4  1  0  0  0  0
  2  5  1  0  0  0  0
  5  6  2  0  0  0  0
  5  7  1  0  0  0  0
  7  8  1  0  0  0  0
  7  9  1  0  0  0  0
  9 10  1  0  0  0  0
  9 11  1  0  0  0  0
  9 21  1  0  0  0  0
 11 12  1  0  0  0  0
 11 13  1  0  0  0  0
 11 14  1  0  0  0  0
 14 15  1  0  0  0  0
 14 16  1  0  0  0  0
 14 17  1  0  0  0  0
 17 18  2  0  0  0  0
 17 19  1  0  0  0  0
 19 20  1  0  0  0  0
 21 22  2  0  0  0  0
 21 23  1  0  0  0  0
 23 24  1  0  0  0  0
 23 25  1  0  0  0  0
 25 26  1  0  0  0  0
 25 27  1  0  0  0  0
 25 28  1  0  0  0  0
M  END
$$$$

  -OEChem-02102214123D

 28 27  0     1  0  0  0  0  0999 V2000
   -3.1572   -3.7694    1.2879 H   0  0  0  0  0  0  0  0  0  0  0  0
   -3.1664   -2.7802    0.8213 C   0  0  0  0  0  0  0  0  0  0  0  0
   -3.7994   -2.1167    1.4155 H   0  0  0  0  0  0  0  0  0  0  0  0
   -3.5852   -2.8686   -0.1840 H   0  0  0  0  0  0  0  0  0  0  0  0
   -1.7570   -2.2236    0.7480 C   0  0  0  0  0  0  0  0  0  0  0  0
   -0.8149   -2.8899    1.1464 O   0  0  0  0  0  0  0  0  0  0  0  0
   -1.5457   -0.9596    0.2386 N   0  0  0  0  0  0  0  0  0  0  0  0
   -2.3690   -0.4016    0.0172 H   0  0  0  0  0  0  0  0  0  0  0  0
   -0.2537   -0.2586    0.2385 C   0  0  1  0  0  0  0  0  0  0  0  0
    0.3915   -0.7302    0.9870 H   0  0  0  0  0  0  0  0  0  0  0  0
    0.4328   -0.4568   -1.1282 C   0  0  0  0  0  0  0  0  0  0  0  0
    1.4825   -0.1701   -1.0014 H   0  0  0  0  0  0  0  0  0  0  0  0
    0.4184   -1.5188   -1.3971 H   0  0  0  0  0  0  0  0  0  0  0  0
   -0.1703    0.3768   -2.2850 C   0  0  0  0  0  0  0  0  0  0  0  0
   -1.1394   -0.0446   -2.5650 H   0  0  0  0  0  0  0  0  0  0  0  0
   -0.3396    1.4068   -1.9645 H   0  0  0  0  0  0  0  0  0  0  0  0
    0.7142    0.4558   -3.5312 C   0  0  0  0  0  0  0  0  0  0  0  0
    1.8169   -0.0674   -3.5355 O   0  0  0  0  0  0  0  0  0  0  0  0
    0.2042    1.1190   -4.5941 O   0  0  0  0  0  0  0  0  0  0  0  0
    0.8819    1.0721   -5.2853 H   0  0  0  0  0  0  0  0  0  0  0  0
   -0.3950    1.2118    0.6868 C   0  0  0  0  0  0  0  0  0  0  0  0
   -1.3845    1.8594    0.3631 O   0  0  0  0  0  0  0  0  0  0  0  0
    0.4984    1.7574    1.5900 N   0  0  0  0  0  0  0  0  0  0  0  0
    1.2637    1.1702    1.9096 H   0  0  0  0  0  0  0  0  0  0  0  0
    0.3463    3.0911    2.1594 C   0  0  0  0  0  0  0  0  0  0  0  0
   -0.6056    3.1734    2.6948 H   0  0  0  0  0  0  0  0  0  0  0  0
    1.1575    3.2967    2.8645 H   0  0  0  0  0  0  0  0  0  0  0  0
    0.3736    3.8499    1.3702 H   0  0  0  0  0  0  0  0  0  0  0  0
  1  2  1  0  0  0  0
  2  3  1  0  0  0  0
  2  4  1  0  0  0  0
  2  5  1  0  0  0  0
  5  6  2  0  0  0  0
  5  7  1  0  0  0  0
  7  8  1  0  0  0  0
  7  9  1  0  0  0  0
  9 10  1  0  0  0  0
  9 11  1  0  0  0  0
  9 21  1  0  0  0  0
 11 12  1  0  0  0  0
 11 13  1  0  0  0  0
 11 14  1  0  0  0  0
 14 15  1  0  0  0  0
 14 16  1  0  0  0  0
 14 17  1  0  0  0  0
 17 18  2  0  0  0  0
 17 19  1  0  0  0  0
 19 20  1  0  0  0  0
 21 22  2  0  0  0  0
 21 23  1  0  0  0  0
 23 24  1  0  0  0  0
 23 25  1  0  0  0  0
 25 26  1  0  0  0  0
 25 27  1  0  0  0  0
 25 28  1  0  0  0  0
M  END
$$$$

  -OEChem-02102214123D

 28 27  0     1  0  0  0  0  0999 V2000
   -3.1660   -3.7791    1.2249 H   0  0  0  0  0  0  0  0  0  0  0  0
   -3.1734   -2.7742    0.7937 C   0  0  0  0  0  0  0  0  0  0  0  0
   -3.8048   -2.1308    1.4113 H   0  0  0  0  0  0  0  0  0  0  0  0
   -3.5930   -2.8262   -0.2139 H   0  0  0  0  0  0  0  0  0  0  0  0
   -1.7626   -2.2190    0.7389 C   0  0  0  0  0  0  0  0  0  0  0  0
   -0.8257   -2.8880    1.1448 O   0  0  0  0  0  0  0  0  0  0  0  0
   -1.5435   -0.9531    0.2371 N   0  0  0  0  0  0  0  0  0  0  0  0
   -2.3631   -0.3939    0.0053 H   0  0  0  0  0  0  0  0  0  0  0  0
   -0.2480   -0.2580    0.2427 C   0  0  1  0  0  0  0  0  0  0  0  0
    0.3928   -0.7398    0.9885 H   0  0  0  0  0  0  0  0  0  0  0  0
    0.4371   -0.4510   -1.1285 C   0  0  0  0  0  0  0  0  0  0  0  0
    1.5201   -0.4364   -0.9653 H   0  0  0  0  0  0  0  0  0  0  0  0
    0.1866   -1.4418   -1.5243 H   0  0  0  0  0  0  0  0  0  0  0  0
    0.0967    0.6309   -2.1787 C   0  0  0  0  0  0  0  0  0  0  0  0
   -0.9849    0.6448   -2.3411 H   0  0  0  0  0  0  0  0  0  0  0  0
    0.3915    1.6192   -1.8166 H   0  0  0  0  0  0  0  0  0  0  0  0
    0.7857    0.4173   -3.5270 C   0  0  0  0  0  0  0  0  0  0  0  0
    1.7203   -0.3625   -3.6160 O   0  0  0  0  0  0  0  0  0  0  0  0
    0.3129    1.1317   -4.5736 O   0  0  0  0  0  0  0  0  0  0  0  0
    0.8592    0.8809   -5.3338 H   0  0  0  0  0  0  0  0  0  0  0  0
   -0.3905    1.2097    0.6999 C   0  0  0  0  0  0  0  0  0  0  0  0
   -1.3643    1.8675    0.3503 O   0  0  0  0  0  0  0  0  0  0  0  0
    0.4987    1.7522    1.6091 N   0  0  0  0  0  0  0  0  0  0  0  0
    1.2503    1.1571    1.9459 H   0  0  0  0  0  0  0  0  0  0  0  0
    0.3524    3.0902    2.1696 C   0  0  0  0  0  0  0  0  0  0  0  0
   -0.5760    3.1644    2.7457 H   0  0  0  0  0  0  0  0  0  0  0  0
    1.1917    3.3163    2.8344 H   0  0  0  0  0  0  0  0  0  0  0  0
    0.3326    3.8401    1.3717 H   0  0  0  0  0  0  0  0  0  0  0  0
  1  2  1  0  0  0  0
  2  3  1  0  0  0  0
  2  4  1  0  0  0  0
  2  5  1  0  0  0  0
  5  6  2  0  0  0  0
  5  7  1  0  0  0  0
  7  8  1  0  0  0  0
  7  9  1  0  0  0  0
  9 10  1  0  0  0  0
  9 11  1  0  0  0  0
  9 21  1  0  0  0  0
 11 12  1  0  0  0  0
 11 13  1  0  0  0  0
 11 14  1  0  0  0  0
 14 15  1  0  0  0  0
 14 16  1  0  0  0  0
 14 17  1  0  0  0  0
 17 18  2  0  0  0  0
 17 19  1  0  0  0  0
 19 20  1  0  0  0  0
 21 22  2  0  0  0  0
 21 23  1  0  0  0  0
 23 24  1  0  0  0  0
 23 25  1  0  0  0  0
 25 26  1  0  0  0  0
 25 27  1  0  0  0  0
 25 28  1  0  0  0  0
M  END
$$$$

  -OEChem-02102214123D

 28 27  0     1  0  0  0  0  0999 V2000
   -3.1855   -3.7764    1.1816 H   0  0  0  0  0  0  0  0  0  0  0  0
   -3.1858   -2.7680    0.7586 C   0  0  0  0  0  0  0  0  0  0  0  0
   -3.8278   -2.1296    1.3702 H   0  0  0  0  0  0  0  0  0  0  0  0
   -3.5875   -2.8121   -0.2566 H   0  0  0  0  0  0  0  0  0  0  0  0
   -1.7751   -2.2117    0.7323 C   0  0  0  0  0  0  0  0  0  0  0  0
   -0.8453   -2.8807    1.1542 O   0  0  0  0  0  0  0  0  0  0  0  0
   -1.5486   -0.9463    0.2330 N   0  0  0  0  0  0  0  0  0  0  0  0
   -2.3644   -0.3895   -0.0170 H   0  0  0  0  0  0  0  0  0  0  0  0
   -0.2513   -0.2545    0.2444 C   0  0  1  0  0  0  0  0  0  0  0  0
    0.3836   -0.7403    0.9928 H   0  0  0  0  0  0  0  0  0  0  0  0
    0.4441   -0.4446   -1.1214 C   0  0  0  0  0  0  0  0  0  0  0  0
    1.5285   -0.4451   -0.9679 H   0  0  0  0  0  0  0  0  0  0  0  0
    0.1778   -1.4311   -1.5180 H   0  0  0  0  0  0  0  0  0  0  0  0
    0.1053    0.6450   -2.1620 C   0  0  0  0  0  0  0  0  0  0  0  0
   -0.9744    0.8229   -2.1548 H   0  0  0  0  0  0  0  0  0  0  0  0
    0.6001    1.5851   -1.9039 H   0  0  0  0  0  0  0  0  0  0  0  0
    0.4971    0.2600   -3.5878 C   0  0  0  0  0  0  0  0  0  0  0  0
    1.4393   -0.4944   -3.7670 O   0  0  0  0  0  0  0  0  0  0  0  0
   -0.2281    0.7966   -4.5956 O   0  0  0  0  0  0  0  0  0  0  0  0
    0.1618    0.4538   -5.4139 H   0  0  0  0  0  0  0  0  0  0  0  0
   -0.3810    1.2151    0.7011 C   0  0  0  0  0  0  0  0  0  0  0  0
   -1.3493    1.8822    0.3538 O   0  0  0  0  0  0  0  0  0  0  0  0
    0.5121    1.7487    1.6119 N   0  0  0  0  0  0  0  0  0  0  0  0
    1.2578    1.1464    1.9491 H   0  0  0  0  0  0  0  0  0  0  0  0
    0.3796    3.0891    2.1702 C   0  0  0  0  0  0  0  0  0  0  0  0
   -0.5474    3.1736    2.7469 H   0  0  0  0  0  0  0  0  0  0  0  0
    1.2216    3.3083    2.8339 H   0  0  0  0  0  0  0  0  0  0  0  0
    0.3664    3.8379    1.3712 H   0  0  0  0  0  0  0  0  0  0  0  0
  1  2  1  0  0  0  0
  2  3  1  0  0  0  0
  2  4  1  0  0  0  0
  2  5  1  0  0  0  0
  5  6  2  0  0  0  0
  5  7  1  0  0  0  0
  7  8  1  0  0  0  0
  7  9  1  0  0  0  0
  9 10  1  0  0  0  0
  9 11  1  0  0  0  0
  9 21  1  0  0  0  0
 11 12  1  0  0  0  0
 11 13  1  0  0  0  0
 11 14  1  0  0  0  0
 14 15  1  0  0  0  0
 14 16  1  0  0  0  0
 14 17  1  0  0  0  0
 17 18  2  0  0  0  0
 17 19  1  0  0  0  0
 19 20  1  0  0  0  0
 21 22  2  0  0  0  0
 21 23  1  0  0  0  0
 23 24  1  0  0  0  0
 23 25  1  0  0  0  0
 25 26  1  0  0  0  0
 25 27  1  0  0  0  0
 25 28  1  0  0  0  0
M  END
$$$$

  -OEChem-02102214123D

 28 27  0     1  0  0  0  0  0999 V2000
   -3.2011   -3.7600    1.1122 H   0  0  0  0  0  0  0  0  0  0  0  0
   -3.2014   -2.7395    0.7194 C   0  0  0  0  0  0  0  0  0  0  0  0
   -3.8375   -2.1174    1.3538 H   0  0  0  0  0  0  0  0  0  0  0  0
   -3.6103   -2.7527   -0.2939 H   0  0  0  0  0  0  0  0  0  0  0  0
   -1.7890   -2.1868    0.6997 C   0  0  0  0  0  0  0  0  0  0  0  0
   -0.8602   -2.8657    1.1081 O   0  0  0  0  0  0  0  0  0  0  0  0
   -1.5584   -0.9165    0.2148 N   0  0  0  0  0  0  0  0  0  0  0  0
   -2.3730   -0.3528   -0.0236 H   0  0  0  0  0  0  0  0  0  0  0  0
   -0.2591   -0.2287    0.2328 C   0  0  1  0  0  0  0  0  0  0  0  0
    0.3681   -0.7236    0.9816 H   0  0  0  0  0  0  0  0  0  0  0  0
    0.4472   -0.4220   -1.1269 C   0  0  0  0  0  0  0  0  0  0  0  0
    1.5310   -0.4325   -0.9704 H   0  0  0  0  0  0  0  0  0  0  0  0
    0.1761   -1.4103   -1.5164 H   0  0  0  0  0  0  0  0  0  0  0  0
    0.1243    0.6627   -2.1783 C   0  0  0  0  0  0  0  0  0  0  0  0
   -0.8961    1.0268   -2.0284 H   0  0  0  0  0  0  0  0  0  0  0  0
    0.8010    1.5148   -2.0711 H   0  0  0  0  0  0  0  0  0  0  0  0
    0.1940    0.1251   -3.6054 C   0  0  0  0  0  0  0  0  0  0  0  0
    1.1642   -0.5379   -3.9332 O   0  0  0  0  0  0  0  0  0  0  0  0
   -0.8309    0.4117   -4.4411 O   0  0  0  0  0  0  0  0  0  0  0  0
   -0.6075   -0.0067   -5.2862 H   0  0  0  0  0  0  0  0  0  0  0  0
   -0.3721    1.2378    0.7049 C   0  0  0  0  0  0  0  0  0  0  0  0
   -1.3455    1.9121    0.3882 O   0  0  0  0  0  0  0  0  0  0  0  0
    0.5302    1.7515    1.6183 N   0  0  0  0  0  0  0  0  0  0  0  0
    1.2710    1.1375    1.9449 H   0  0  0  0  0  0  0  0  0  0  0  0
    0.3981    3.0760    2.2139 C   0  0  0  0  0  0  0  0  0  0  0  0
   -0.5090    3.1323    2.8247 H   0  0  0  0  0  0  0  0  0  0  0  0
    1.2601    3.2919    2.8525 H   0  0  0  0  0  0  0  0  0  0  0  0
    0.3464    3.8440    1.4348 H   0  0  0  0  0  0  0  0  0  0  0  0
  1  2  1  0  0  0  0
  2  3  1  0  0  0  0
  2  4  1  0  0  0  0
  2  5  1  0  0  0  0
  5  6  2  0  0  0  0
  5  7  1  0  0  0  0
  7  8  1  0  0  0  0
  7  9  1  0  0  0  0
  9 10  1  0  0  0  0
  9 11  1  0  0  0  0
  9 21  1  0  0  0  0
 11 12  1  0  0  0  0
 11 13  1  0  0  0  0
 11 14  1  0  0  0  0
 14 15  1  0  0  0  0
 14 16  1  0  0  0  0
 14 17  1  0  0  0  0
 17 18  2  0  0  0  0
 17 19  1  0  0  0  0
 19 20  1  0  0  0  0
 21 22  2  0  0  0  0
 21 23  1  0  0  0  0
 23 24  1  0  0  0  0
 23 25  1  0  0  0  0
 25 26  1  0  0  0  0
 25 27  1  0  0  0  0
 25 28  1  0  0  0  0
M  END
$$$$

  -OEChem-02102214123D

 28 27  0     1  0  0  0  0  0999 V2000
   -3.2753   -3.6958    0.9996 H   0  0  0  0  0  0  0  0  0  0  0  0
   -3.2543   -2.6724    0.6146 C   0  0  0  0  0  0  0  0  0  0  0  0
   -3.8950   -2.0468    1.2409 H   0  0  0  0  0  0  0  0  0  0  0  0
   -3.6422   -2.6719   -0.4070 H   0  0  0  0  0  0  0  0  0  0  0  0
   -1.8352   -2.1373    0.6286 C   0  0  0  0  0  0  0  0  0  0  0  0
   -0.9196   -2.8377    1.0310 O   0  0  0  0  0  0  0  0  0  0  0  0
   -1.5835   -0.8582    0.1800 N   0  0  0  0  0  0  0  0  0  0  0  0
   -2.3855   -0.2886   -0.0852 H   0  0  0  0  0  0  0  0  0  0  0  0
   -0.2756   -0.1892    0.2171 C   0  0  1  0  0  0  0  0  0  0  0  0
    0.3369   -0.7113    0.9596 H   0  0  0  0  0  0  0  0  0  0  0  0
    0.4346   -0.3816   -1.1411 C   0  0  0  0  0  0  0  0  0  0  0  0
    1.5159   -0.4015   -0.9702 H   0  0  0  0  0  0  0  0  0  0  0  0
    0.1652   -1.3691   -1.5337 H   0  0  0  0  0  0  0  0  0  0  0  0
    0.1445    0.7086   -2.1973 C   0  0  0  0  0  0  0  0  0  0  0  0
   -0.7455    1.2830   -1.9320 H   0  0  0  0  0  0  0  0  0  0  0  0
    0.9838    1.4073   -2.2616 H   0  0  0  0  0  0  0  0  0  0  0  0
   -0.1391    0.0953   -3.5633 C   0  0  0  0  0  0  0  0  0  0  0  0
    0.7213    0.1748   -4.4230 O   0  0  0  0  0  0  0  0  0  0  0  0
   -1.3321   -0.5171   -3.7513 O   0  0  0  0  0  0  0  0  0  0  0  0
   -1.3226   -0.8347   -4.6669 H   0  0  0  0  0  0  0  0  0  0  0  0
   -0.3588    1.2669    0.7282 C   0  0  0  0  0  0  0  0  0  0  0  0
   -1.3208    1.9688    0.4376 O   0  0  0  0  0  0  0  0  0  0  0  0
    0.5554    1.7379    1.6530 N   0  0  0  0  0  0  0  0  0  0  0  0
    1.2947    1.1072    1.9497 H   0  0  0  0  0  0  0  0  0  0  0  0
    0.4639    3.0569    2.2685 C   0  0  0  0  0  0  0  0  0  0  0  0
   -0.4754    3.1576    2.8226 H   0  0  0  0  0  0  0  0  0  0  0  0
    1.2942    3.2087    2.9650 H   0  0  0  0  0  0  0  0  0  0  0  0
    0.5072    3.8400    1.5040 H   0  0  0  0  0  0  0  0  0  0  0  0
  1  2  1  0  0  0  0
  2  3  1  0  0  0  0
  2  4  1  0  0  0  0
  2  5  1  0  0  0  0
  5  6  2  0  0  0  0
  5  7  1  0  0  0  0
  7  8  1  0  0  0  0
  7  9  1  0  0  0  0
  9 10  1  0  0  0  0
  9 11  1  0  0  0  0
  9 21  1  0  0  0  0
 11 12  1  0  0  0  0
 11 13  1  0  0  0  0
 11 14  1  0  0  0  0
 14 15  1  0  0  0  0
 14 16  1  0  0  0  0
 14 17  1  0  0  0  0
 17 18  2  0  0  0  0
 17 19  1  0  0  0  0
 19 20  1  0  0  0  0
 21 22  2  0  0  0  0
 21 23  1  0  0  0  0
 23 24  1  0  0  0  0
 23 25  1  0  0  0  0
 25 26  1  0  0  0  0
 25 27  1  0  0  0  0
 25 28  1  0  0  0  0
M  END
$$$$

  -OEChem-02102214123D

 28 27  0     1  0  0  0  0  0999 V2000
   -3.0345   -3.8700    1.0805 H   0  0  0  0  0  0  0  0  0  0  0  0
   -3.0931   -2.8380    0.7239 C   0  0  0  0  0  0  0  0  0  0  0  0
   -3.7758   -2.2797    1.3690 H   0  0  0  0  0  0  0  0  0  0  0  0
   -3.4856   -2.8392   -0.2962 H   0  0  0  0  0  0  0  0  0  0  0  0
   -1.7185   -2.1974    0.7471 C   0  0  0  0  0  0  0  0  0  0  0  0
   -0.7538   -2.8296    1.1490 O   0  0  0  0  0  0  0  0  0  0  0  0
   -1.5609   -0.9036    0.2978 N   0  0  0  0  0  0  0  0  0  0  0  0
   -2.3952   -0.4124   -0.0193 H   0  0  0  0  0  0  0  0  0  0  0  0
   -0.2898   -0.1688    0.2454 C   0  0  1  0  0  0  0  0  0  0  0  0
    0.4028   -0.6639    0.9338 H   0  0  0  0  0  0  0  0  0  0  0  0
    0.3098   -0.3420   -1.1688 C   0  0  0  0  0  0  0  0  0  0  0  0
    1.3988   -0.2856   -1.0701 H   0  0  0  0  0  0  0  0  0  0  0  0
    0.0906   -1.3532   -1.5316 H   0  0  0  0  0  0  0  0  0  0  0  0
   -0.1076    0.7165   -2.2199 C   0  0  0  0  0  0  0  0  0  0  0  0
   -0.7788    1.4709   -1.8085 H   0  0  0  0  0  0  0  0  0  0  0  0
    0.7835    1.2388   -2.5795 H   0  0  0  0  0  0  0  0  0  0  0  0
   -0.8193    0.0795   -3.4096 C   0  0  0  0  0  0  0  0  0  0  0  0
   -1.8537   -0.5367   -3.2094 O   0  0  0  0  0  0  0  0  0  0  0  0
   -0.2572    0.2199   -4.6322 O   0  0  0  0  0  0  0  0  0  0  0  0
   -0.8443   -0.2448   -5.2478 H   0  0  0  0  0  0  0  0  0  0  0  0
   -0.3978    1.2788    0.7774 C   0  0  0  0  0  0  0  0  0  0  0  0
   -1.4025    1.9475    0.5633 O   0  0  0  0  0  0  0  0  0  0  0  0
    0.5654    1.7800    1.6345 N   0  0  0  0  0  0  0  0  0  0  0  0
    1.3315    1.1643    1.8916 H   0  0  0  0  0  0  0  0  0  0  0  0
    0.4498    3.0743    2.2965 C   0  0  0  0  0  0  0  0  0  0  0  0
   -0.4353    3.0976    2.9410 H   0  0  0  0  0  0  0  0  0  0  0  0
    1.3329    3.2637    2.9143 H   0  0  0  0  0  0  0  0  0  0  0  0
    0.3677    3.8775    1.5565 H   0  0  0  0  0  0  0  0  0  0  0  0
  1  2  1  0  0  0  0
  2  3  1  0  0  0  0
  2  4  1  0  0  0  0
  2  5  1  0  0  0  0
  5  6  2  0  0  0  0
  5  7  1  0  0  0  0
  7  8  1  0  0  0  0
  7  9  1  0  0  0  0
  9 10  1  0  0  0  0
  9 11  1  0  0  0  0
  9 21  1  0  0  0  0
 11 12  1  0  0  0  0
 11 13  1  0  0  0  0
 11 14  1  0  0  0  0
 14 15  1  0  0  0  0
 14 16  1  0  0  0  0
 14 17  1  0  0  0  0
 17 18  2  0  0  0  0
 17 19  1  0  0  0  0
 19 20  1  0  0  0  0
 21 22  2  0  0  0  0
 21 23  1  0  0  0  0
 23 24  1  0  0  0  0
 23 25  1  0  0  0  0
 25 26  1  0  0  0  0
 25 27  1  0  0  0  0
 25 28  1  0  0  0  0
M  END
$$$$

  -OEChem-02102214123D

 28 27  0     1  0  0  0  0  0999 V2000
   -3.0732   -3.8427    1.0726 H   0  0  0  0  0  0  0  0  0  0  0  0
   -3.1089   -2.8219    0.6824 C   0  0  0  0  0  0  0  0  0  0  0  0
   -3.8298   -2.2453    1.2668 H   0  0  0  0  0  0  0  0  0  0  0  0
   -3.4368   -2.8533   -0.3597 H   0  0  0  0  0  0  0  0  0  0  0  0
   -1.7385   -2.1788    0.7724 C   0  0  0  0  0  0  0  0  0  0  0  0
   -0.7958   -2.8037    1.2340 O   0  0  0  0  0  0  0  0  0  0  0  0
   -1.5604   -0.8909    0.3156 N   0  0  0  0  0  0  0  0  0  0  0  0
   -2.3645   -0.4316   -0.1107 H   0  0  0  0  0  0  0  0  0  0  0  0
   -0.2807   -0.1723    0.2716 C   0  0  1  0  0  0  0  0  0  0  0  0
    0.4040   -0.6711    0.9652 H   0  0  0  0  0  0  0  0  0  0  0  0
    0.3150   -0.3637   -1.1427 C   0  0  0  0  0  0  0  0  0  0  0  0
    1.4023   -0.3030   -1.0310 H   0  0  0  0  0  0  0  0  0  0  0  0
    0.1032   -1.3765   -1.5052 H   0  0  0  0  0  0  0  0  0  0  0  0
   -0.0818    0.6906   -2.2061 C   0  0  0  0  0  0  0  0  0  0  0  0
   -0.4669    1.6140   -1.7735 H   0  0  0  0  0  0  0  0  0  0  0  0
    0.8142    0.9601   -2.7728 H   0  0  0  0  0  0  0  0  0  0  0  0
   -1.1081    0.1486   -3.1991 C   0  0  0  0  0  0  0  0  0  0  0  0
   -2.0937   -0.4340   -2.7732 O   0  0  0  0  0  0  0  0  0  0  0  0
   -0.8653    0.3391   -4.5166 O   0  0  0  0  0  0  0  0  0  0  0  0
   -1.6147   -0.0597   -4.9842 H   0  0  0  0  0  0  0  0  0  0  0  0
   -0.3815    1.2792    0.7928 C   0  0  0  0  0  0  0  0  0  0  0  0
   -1.3642    1.9677    0.5424 O   0  0  0  0  0  0  0  0  0  0  0  0
    0.5773    1.7744    1.6580 N   0  0  0  0  0  0  0  0  0  0  0  0
    1.3181    1.1422    1.9471 H   0  0  0  0  0  0  0  0  0  0  0  0
    0.4732    3.0778    2.3034 C   0  0  0  0  0  0  0  0  0  0  0  0
   -0.4043    3.1122    2.9576 H   0  0  0  0  0  0  0  0  0  0  0  0
    1.3645    3.2732    2.9075 H   0  0  0  0  0  0  0  0  0  0  0  0
    0.3844    3.8713    1.5539 H   0  0  0  0  0  0  0  0  0  0  0  0
  1  2  1  0  0  0  0
  2  3  1  0  0  0  0
  2  4  1  0  0  0  0
  2  5  1  0  0  0  0
  5  6  2  0  0  0  0
  5  7  1  0  0  0  0
  7  8  1  0  0  0  0
  7  9  1  0  0  0  0
  9 10  1  0  0  0  0
  9 11  1  0  0  0  0
  9 21  1  0  0  0  0
 11 12  1  0  0  0  0
 11 13  1  0  0  0  0
 11 14  1  0  0  0  0
 14 15  1  0  0  0  0
 14 16  1  0  0  0  0
 14 17  1  0  0  0  0
 17 18  2  0  0  0  0
 17 19  1  0  0  0  0
 19 20  1  0  0  0  0
 21 22  2  0  0  0  0
 21 23  1  0  0  0  0
 23 24  1  0  0  0  0
 23 25  1  0  0  0  0
 25 26  1  0  0  0  0
 25 27  1  0  0  0  0
 25 28  1  0  0  0  0
M  END
$$$$

  -OEChem-02102214123D

 28 27  0     1  0  0  0  0  0999 V2000
   -3.0996   -3.8506    1.1065 H   0  0  0  0  0  0  0  0  0  0  0  0
   -3.1181   -2.8409    0.6874 C   0  0  0  0  0  0  0  0  0  0  0  0
   -3.8801   -2.2560    1.2080 H   0  0  0  0  0  0  0  0  0  0  0  0
   -3.3777   -2.9026   -0.3723 H   0  0  0  0  0  0  0  0  0  0  0  0
   -1.7616   -2.1822    0.8480 C   0  0  0  0  0  0  0  0  0  0  0  0
   -0.8487   -2.7822    1.3950 O   0  0  0  0  0  0  0  0  0  0  0  0
   -1.5611   -0.9114    0.3545 N   0  0  0  0  0  0  0  0  0  0  0  0
   -2.3231   -0.5018   -0.1868 H   0  0  0  0  0  0  0  0  0  0  0  0
   -0.2707   -0.2129    0.3102 C   0  0  1  0  0  0  0  0  0  0  0  0
    0.4071   -0.7026    1.0167 H   0  0  0  0  0  0  0  0  0  0  0  0
    0.3265   -0.4209   -1.1038 C   0  0  0  0  0  0  0  0  0  0  0  0
    1.4142   -0.3784   -0.9878 H   0  0  0  0  0  0  0  0  0  0  0  0
    0.0943   -1.4288   -1.4663 H   0  0  0  0  0  0  0  0  0  0  0  0
   -0.0463    0.6330   -2.1778 C   0  0  0  0  0  0  0  0  0  0  0  0
   -0.1300    1.6394   -1.7649 H   0  0  0  0  0  0  0  0  0  0  0  0
    0.7724    0.6659   -2.9021 H   0  0  0  0  0  0  0  0  0  0  0  0
   -1.3141    0.3062   -2.9706 C   0  0  0  0  0  0  0  0  0  0  0  0
   -2.1847   -0.3943   -2.4762 O   0  0  0  0  0  0  0  0  0  0  0  0
   -1.4003    0.8287   -4.2155 O   0  0  0  0  0  0  0  0  0  0  0  0
   -2.2590    0.5454   -4.5637 H   0  0  0  0  0  0  0  0  0  0  0  0
   -0.3737    1.2530    0.7882 C   0  0  0  0  0  0  0  0  0  0  0  0
   -1.3244    1.9538    0.4600 O   0  0  0  0  0  0  0  0  0  0  0  0
    0.5691    1.7701    1.6580 N   0  0  0  0  0  0  0  0  0  0  0  0
    1.2872    1.1386    2.0005 H   0  0  0  0  0  0  0  0  0  0  0  0
    0.4751    3.1075    2.2315 C   0  0  0  0  0  0  0  0  0  0  0  0
   -0.4356    3.2038    2.8322 H   0  0  0  0  0  0  0  0  0  0  0  0
    1.3376    3.3053    2.8752 H   0  0  0  0  0  0  0  0  0  0  0  0
    0.4558    3.8633    1.4391 H   0  0  0  0  0  0  0  0  0  0  0  0
  1  2  1  0  0  0  0
  2  3  1  0  0  0  0
  2  4  1  0  0  0  0
  2  5  1  0  0  0  0
  5  6  2  0  0  0  0
  5  7  1  0  0  0  0
  7  8  1  0  0  0  0
  7  9  1  0  0  0  0
  9 10  1  0  0  0  0
  9 11  1  0  0  0  0
  9 21  1  0  0  0  0
 11 12  1  0  0  0  0
 11 13  1  0  0  0  0
 11 14  1  0  0  0  0
 14 15  1  0  0  0  0
 14 16  1  0  0  0  0
 14 17  1  0  0  0  0
 17 18  2  0  0  0  0
 17 19  1  0  0  0  0
 19 20  1  0  0  0  0
 21 22  2  0  0  0  0
 21 23  1  0  0  0  0
 23 24  1  0  0  0  0
 23 25  1  0  0  0  0
 25 26  1  0  0  0  0
 25 27  1  0  0  0  0
 25 28  1  0  0  0  0
M  END
$$$$

  -OEChem-02102214123D

 28 27  0     1  0  0  0  0  0999 V2000
   -3.1154   -3.8619    1.1600 H   0  0  0  0  0  0  0  0  0  0  0  0
   -3.1261   -2.8619    0.7181 C   0  0  0  0  0  0  0  0  0  0  0  0
   -3.9013   -2.2674    1.2074 H   0  0  0  0  0  0  0  0  0  0  0  0
   -3.3606   -2.9480   -0.3458 H   0  0  0  0  0  0  0  0  0  0  0  0
   -1.7753   -2.1957    0.8954 C   0  0  0  0  0  0  0  0  0  0  0  0
   -0.8764   -2.7771    1.4840 O   0  0  0  0  0  0  0  0  0  0  0  0
   -1.5640   -0.9393    0.3706 N   0  0  0  0  0  0  0  0  0  0  0  0
   -2.3092   -0.5543   -0.2109 H   0  0  0  0  0  0  0  0  0  0  0  0
   -0.2693   -0.2482    0.3261 C   0  0  1  0  0  0  0  0  0  0  0  0
    0.4020   -0.7246    1.0478 H   0  0  0  0  0  0  0  0  0  0  0  0
    0.3445   -0.4658   -1.0802 C   0  0  0  0  0  0  0  0  0  0  0  0
    1.4322   -0.4398   -0.9598 H   0  0  0  0  0  0  0  0  0  0  0  0
    0.0949   -1.4696   -1.4422 H   0  0  0  0  0  0  0  0  0  0  0  0
   -0.0132    0.5861   -2.1611 C   0  0  0  0  0  0  0  0  0  0  0  0
    0.1522    1.5997   -1.7883 H   0  0  0  0  0  0  0  0  0  0  0  0
    0.6750    0.4479   -2.9992 H   0  0  0  0  0  0  0  0  0  0  0  0
   -1.4286    0.4987   -2.7410 C   0  0  0  0  0  0  0  0  0  0  0  0
   -2.1978   -0.3803   -2.3820 O   0  0  0  0  0  0  0  0  0  0  0  0
   -1.7467    1.4255   -3.6736 O   0  0  0  0  0  0  0  0  0  0  0  0
   -2.6680    1.2525   -3.9177 H   0  0  0  0  0  0  0  0  0  0  0  0
   -0.3802    1.2291    0.7647 C   0  0  0  0  0  0  0  0  0  0  0  0
   -1.3091    1.9287    0.3766 O   0  0  0  0  0  0  0  0  0  0  0  0
    0.5480    1.7694    1.6359 N   0  0  0  0  0  0  0  0  0  0  0  0
    1.2516    1.1442    2.0181 H   0  0  0  0  0  0  0  0  0  0  0  0
    0.4602    3.1307    2.1510 C   0  0  0  0  0  0  0  0  0  0  0  0
   -0.4662    3.2666    2.7191 H   0  0  0  0  0  0  0  0  0  0  0  0
    1.3061    3.3410    2.8126 H   0  0  0  0  0  0  0  0  0  0  0  0
    0.4781    3.8536    1.3285 H   0  0  0  0  0  0  0  0  0  0  0  0
  1  2  1  0  0  0  0
  2  3  1  0  0  0  0
  2  4  1  0  0  0  0
  2  5  1  0  0  0  0
  5  6  2  0  0  0  0
  5  7  1  0  0  0  0
  7  8  1  0  0  0  0
  7  9  1  0  0  0  0
  9 10  1  0  0  0  0
  9 11  1  0  0  0  0
  9 21  1  0  0  0  0
 11 12  1  0  0  0  0
 11 13  1  0  0  0  0
 11 14  1  0  0  0  0
 14 15  1  0  0  0  0
 14 16  1  0  0  0  0
 14 17  1  0  0  0  0
 17 18  2  0  0  0  0
 17 19  1  0  0  0  0
 19 20  1  0  0  0  0
 21 22  2  0  0  0  0
 21 23  1  0  0  0  0
 23 24  1  0  0  0  0
 23 25  1  0  0  0  0
 25 26  1  0  0  0  0
 25 27  1  0  0  0  0
 25 28  1  0  0  0  0
M  END
$$$$

  -OEChem-02102214123D

 28 27  0     1  0  0  0  0  0999 V2000
   -3.1146   -3.8730    1.1884 H   0  0  0  0  0  0  0  0  0  0  0  0
   -3.1303   -2.8747    0.7429 C   0  0  0  0  0  0  0  0  0  0  0  0
   -3.9058   -2.2811    1.2325 H   0  0  0  0  0  0  0  0  0  0  0  0
   -3.3687   -2.9663   -0.3196 H   0  0  0  0  0  0  0  0  0  0  0  0
   -1.7813   -2.2031    0.9131 C   0  0  0  0  0  0  0  0  0  0  0  0
   -0.8798   -2.7780    1.5040 O   0  0  0  0  0  0  0  0  0  0  0  0
   -1.5739   -0.9507    0.3772 N   0  0  0  0  0  0  0  0  0  0  0  0
   -2.3226   -0.5698   -0.2031 H   0  0  0  0  0  0  0  0  0  0  0  0
   -0.2817   -0.2543    0.3277 C   0  0  1  0  0  0  0  0  0  0  0  0
    0.3866   -0.7230    1.0572 H   0  0  0  0  0  0  0  0  0  0  0  0
    0.3493   -0.4749   -1.0705 C   0  0  0  0  0  0  0  0  0  0  0  0
    1.4371   -0.4628   -0.9476 H   0  0  0  0  0  0  0  0  0  0  0  0
    0.0843   -1.4762   -1.4283 H   0  0  0  0  0  0  0  0  0  0  0  0
    0.0001    0.5633   -2.1669 C   0  0  0  0  0  0  0  0  0  0  0  0
    0.3698    1.5463   -1.8620 H   0  0  0  0  0  0  0  0  0  0  0  0
    0.5315    0.2926   -3.0830 H   0  0  0  0  0  0  0  0  0  0  0  0
   -1.4825    0.7089   -2.5245 C   0  0  0  0  0  0  0  0  0  0  0  0
   -2.2652   -0.2007   -2.2920 O   0  0  0  0  0  0  0  0  0  0  0  0
   -1.8416    1.8594   -3.1389 O   0  0  0  0  0  0  0  0  0  0  0  0
   -2.8021    1.8124   -3.2534 H   0  0  0  0  0  0  0  0  0  0  0  0
   -0.3874    1.2282    0.7506 C   0  0  0  0  0  0  0  0  0  0  0  0
   -1.3169    1.9253    0.3611 O   0  0  0  0  0  0  0  0  0  0  0  0
    0.5432    1.7755    1.6151 N   0  0  0  0  0  0  0  0  0  0  0  0
    1.2496    1.1543    1.9988 H   0  0  0  0  0  0  0  0  0  0  0  0
    0.4566    3.1412    2.1189 C   0  0  0  0  0  0  0  0  0  0  0  0
   -0.4690    3.2823    2.6870 H   0  0  0  0  0  0  0  0  0  0  0  0
    1.3034    3.3565    2.7777 H   0  0  0  0  0  0  0  0  0  0  0  0
    0.4733    3.8573    1.2905 H   0  0  0  0  0  0  0  0  0  0  0  0
  1  2  1  0  0  0  0
  2  3  1  0  0  0  0
  2  4  1  0  0  0  0
  2  5  1  0  0  0  0
  5  6  2  0  0  0  0
  5  7  1  0  0  0  0
  7  8  1  0  0  0  0
  7  9  1  0  0  0  0
  9 10  1  0  0  0  0
  9 11  1  0  0  0  0
  9 21  1  0  0  0  0
 11 12  1  0  0  0  0
 11 13  1  0  0  0  0
 11 14  1  0  0  0  0
 14 15  1  0  0  0  0
 14 16  1  0  0  0  0
 14 17  1  0  0  0  0
 17 18  2  0  0  0  0
 17 19  1  0  0  0  0
 19 20  1  0  0  0  0
 21 22  2  0  0  0  0
 21 23  1  0  0  0  0
 23 24  1  0  0  0  0
 23 25  1  0  0  0  0
 25 26  1  0  0  0  0
 25 27  1  0  0  0  0
 25 28  1  0  0  0  0
M  END
$$$$

  -OEChem-02102214123D

 28 27  0     1  0  0  0  0  0999 V2000
   -3.0943   -3.8783    1.2167 H   0  0  0  0  0  0  0  0  0  0  0  0
   -3.1267   -2.8775    0.7772 C   0  0  0  0  0  0  0  0  0  0  0  0
   -3.8886   -2.2891    1.2942 H   0  0  0  0  0  0  0  0  0  0  0  0
   -3.3975   -2.9637   -0.2781 H   0  0  0  0  0  0  0  0  0  0  0  0
   -1.7749   -2.2027    0.9093 C   0  0  0  0  0  0  0  0  0  0  0  0
   -0.8509   -2.7830    1.4587 O   0  0  0  0  0  0  0  0  0  0  0  0
   -1.5903   -0.9417    0.3849 N   0  0  0  0  0  0  0  0  0  0  0  0
   -2.3625   -0.5472   -0.1547 H   0  0  0  0  0  0  0  0  0  0  0  0
   -0.3090   -0.2261    0.3208 C   0  0  1  0  0  0  0  0  0  0  0  0
    0.3603   -0.6911    1.0517 H   0  0  0  0  0  0  0  0  0  0  0  0
    0.3395   -0.4560   -1.0671 C   0  0  0  0  0  0  0  0  0  0  0  0
    1.4265   -0.4421   -0.9380 H   0  0  0  0  0  0  0  0  0  0  0  0
    0.0765   -1.4646   -1.4044 H   0  0  0  0  0  0  0  0  0  0  0  0
   -0.0042    0.5422   -2.2019 C   0  0  0  0  0  0  0  0  0  0  0  0
    0.5490    1.4681   -2.0186 H   0  0  0  0  0  0  0  0  0  0  0  0
    0.3506    0.1361   -3.1527 H   0  0  0  0  0  0  0  0  0  0  0  0
   -1.4773    0.9249   -2.3690 C   0  0  0  0  0  0  0  0  0  0  0  0
   -2.3451    0.0839   -2.1845 O   0  0  0  0  0  0  0  0  0  0  0  0
   -1.7373    2.1907   -2.7693 O   0  0  0  0  0  0  0  0  0  0  0  0
   -2.7012    2.2831   -2.7491 H   0  0  0  0  0  0  0  0  0  0  0  0
   -0.4006    1.2539    0.7577 C   0  0  0  0  0  0  0  0  0  0  0  0
   -1.3617    1.9463    0.4459 O   0  0  0  0  0  0  0  0  0  0  0  0
    0.5543    1.7860    1.6051 N   0  0  0  0  0  0  0  0  0  0  0  0
    1.2815    1.1621    1.9427 H   0  0  0  0  0  0  0  0  0  0  0  0
    0.4685    3.1324    2.1585 C   0  0  0  0  0  0  0  0  0  0  0  0
   -0.4295    3.2360    2.7766 H   0  0  0  0  0  0  0  0  0  0  0  0
    1.3435    3.3427    2.7810 H   0  0  0  0  0  0  0  0  0  0  0  0
    0.4303    3.8756    1.3550 H   0  0  0  0  0  0  0  0  0  0  0  0
  1  2  1  0  0  0  0
  2  3  1  0  0  0  0
  2  4  1  0  0  0  0
  2  5  1  0  0  0  0
  5  6  2  0  0  0  0
  5  7  1  0  0  0  0
  7  8  1  0  0  0  0
  7  9  1  0  0  0  0
  9 10  1  0  0  0  0
  9 11  1  0  0  0  0
  9 21  1  0  0  0  0
 11 12  1  0  0  0  0
 11 13  1  0  0  0  0
 11 14  1  0  0  0  0
 14 15  1  0  0  0  0
 14 16  1  0  0  0  0
 14 17  1  0  0  0  0
 17 18  2  0  0  0  0
 17 19  1  0  0  0  0
 19 20  1  0  0  0  0
 21 22  2  0  0  0  0
 21 23  1  0  0  0  0
 23 24  1  0  0  0  0
 23 25  1  0  0  0  0
 25 26  1  0  0  0  0
 25 27  1  0  0  0  0
 25 28  1  0  0  0  0
M  END
$$$$

  -OEChem-02102214123D

 28 27  0     1  0  0  0  0  0999 V2000
   -3.0719   -3.8641    1.2566 H   0  0  0  0  0  0  0  0  0  0  0  0
   -3.1209   -2.8600    0.8265 C   0  0  0  0  0  0  0  0  0  0  0  0
   -3.8452   -2.2687    1.3921 H   0  0  0  0  0  0  0  0  0  0  0  0
   -3.4547   -2.9358   -0.2112 H   0  0  0  0  0  0  0  0  0  0  0  0
   -1.7572   -2.1986    0.8828 C   0  0  0  0  0  0  0  0  0  0  0  0
   -0.8024   -2.7989    1.3520 O   0  0  0  0  0  0  0  0  0  0  0  0
   -1.5988   -0.9238    0.3839 N   0  0  0  0  0  0  0  0  0  0  0  0
   -2.4081   -0.4943   -0.0671 H   0  0  0  0  0  0  0  0  0  0  0  0
   -0.3314   -0.1853    0.3036 C   0  0  1  0  0  0  0  0  0  0  0  0
    0.3392   -0.6481    1.0348 H   0  0  0  0  0  0  0  0  0  0  0  0
    0.3347   -0.4329   -1.0738 C   0  0  0  0  0  0  0  0  0  0  0  0
    1.4202   -0.4041   -0.9345 H   0  0  0  0  0  0  0  0  0  0  0  0
    0.0888   -1.4553   -1.3814 H   0  0  0  0  0  0  0  0  0  0  0  0
   -0.0052    0.5135   -2.2543 C   0  0  0  0  0  0  0  0  0  0  0  0
    0.7117    1.3396   -2.2370 H   0  0  0  0  0  0  0  0  0  0  0  0
    0.1407   -0.0193   -3.1977 H   0  0  0  0  0  0  0  0  0  0  0  0
   -1.3999    1.1392   -2.2649 C   0  0  0  0  0  0  0  0  0  0  0  0
   -2.3732    0.4162   -2.1089 O   0  0  0  0  0  0  0  0  0  0  0  0
   -1.4813    2.4719   -2.4832 O   0  0  0  0  0  0  0  0  0  0  0  0
   -2.4116    2.7043   -2.3421 H   0  0  0  0  0  0  0  0  0  0  0  0
   -0.4156    1.2870    0.7718 C   0  0  0  0  0  0  0  0  0  0  0  0
   -1.4209    1.9582    0.5729 O   0  0  0  0  0  0  0  0  0  0  0  0
    0.5646    1.8030    1.6005 N   0  0  0  0  0  0  0  0  0  0  0  0
    1.3256    1.1854    1.8677 H   0  0  0  0  0  0  0  0  0  0  0  0
    0.4692    3.1144    2.2315 C   0  0  0  0  0  0  0  0  0  0  0  0
   -0.3915    3.1525    2.9077 H   0  0  0  0  0  0  0  0  0  0  0  0
    1.3740    3.3234    2.8104 H   0  0  0  0  0  0  0  0  0  0  0  0
    0.3564    3.8970    1.4738 H   0  0  0  0  0  0  0  0  0  0  0  0
  1  2  1  0  0  0  0
  2  3  1  0  0  0  0
  2  4  1  0  0  0  0
  2  5  1  0  0  0  0
  5  6  2  0  0  0  0
  5  7  1  0  0  0  0
  7  8  1  0  0  0  0
  7  9  1  0  0  0  0
  9 10  1  0  0  0  0
  9 11  1  0  0  0  0
  9 21  1  0  0  0  0
 11 12  1  0  0  0  0
 11 13  1  0  0  0  0
 11 14  1  0  0  0  0
 14 15  1  0  0  0  0
 14 16  1  0  0  0  0
 14 17  1  0  0  0  0
 17 18  2  0  0  0  0
 17 19  1  0  0  0  0
 19 20  1  0  0  0  0
 21 22  2  0  0  0  0
 21 23  1  0  0  0  0
 23 24  1  0  0  0  0
 23 25  1  0  0  0  0
 25 26  1  0  0  0  0
 25 27  1  0  0  0  0
 25 28  1  0  0  0  0
M  END
$$$$

  -OEChem-02102214123D

 28 27  0     1  0  0  0  0  0999 V2000
   -2.7664   -3.8444    1.7351 H   0  0  0  0  0  0  0  0  0  0  0  0
   -2.9128   -2.8620    1.2777 C   0  0  0  0  0  0  0  0  0  0  0  0
   -3.5479   -2.2594    1.9316 H   0  0  0  0  0  0  0  0  0  0  0  0
   -3.4127   -2.9916    0.3147 H   0  0  0  0  0  0  0  0  0  0  0  0
   -1.5763   -2.1732    1.0774 C   0  0  0  0  0  0  0  0  0  0  0  0
   -0.5407   -2.7394    1.3918 O   0  0  0  0  0  0  0  0  0  0  0  0
   -1.5351   -0.9112    0.5244 N   0  0  0  0  0  0  0  0  0  0  0  0
   -2.4227   -0.4860    0.2549 H   0  0  0  0  0  0  0  0  0  0  0  0
   -0.3216   -0.1241    0.2677 C   0  0  1  0  0  0  0  0  0  0  0  0
    0.4327   -0.5221    0.9544 H   0  0  0  0  0  0  0  0  0  0  0  0
    0.2374   -0.4474   -1.1434 C   0  0  0  0  0  0  0  0  0  0  0  0
    1.3270   -0.3502   -1.0965 H   0  0  0  0  0  0  0  0  0  0  0  0
    0.0333   -1.5049   -1.3444 H   0  0  0  0  0  0  0  0  0  0  0  0
   -0.2390    0.3678   -2.3749 C   0  0  0  0  0  0  0  0  0  0  0  0
    0.5666    1.0491   -2.6640 H   0  0  0  0  0  0  0  0  0  0  0  0
   -0.3980   -0.3134   -3.2156 H   0  0  0  0  0  0  0  0  0  0  0  0
   -1.4971    1.2103   -2.2005 C   0  0  0  0  0  0  0  0  0  0  0  0
   -2.5534    0.6333   -1.9912 O   0  0  0  0  0  0  0  0  0  0  0  0
   -1.3739    2.5550   -2.2846 O   0  0  0  0  0  0  0  0  0  0  0  0
   -2.2297    2.9103   -1.9974 H   0  0  0  0  0  0  0  0  0  0  0  0
   -0.4098    1.3613    0.6959 C   0  0  0  0  0  0  0  0  0  0  0  0
   -1.4751    1.9664    0.6568 O   0  0  0  0  0  0  0  0  0  0  0  0
    0.6423    1.9437    1.3801 N   0  0  0  0  0  0  0  0  0  0  0  0
    1.4776    1.3839    1.5239 H   0  0  0  0  0  0  0  0  0  0  0  0
    0.5722    3.2713    1.9800 C   0  0  0  0  0  0  0  0  0  0  0  0
   -0.2028    3.3025    2.7533 H   0  0  0  0  0  0  0  0  0  0  0  0
    1.5305    3.5302    2.4402 H   0  0  0  0  0  0  0  0  0  0  0  0
    0.3409    4.0237    1.2184 H   0  0  0  0  0  0  0  0  0  0  0  0
  1  2  1  0  0  0  0
  2  3  1  0  0  0  0
  2  4  1  0  0  0  0
  2  5  1  0  0  0  0
  5  6  2  0  0  0  0
  5  7  1  0  0  0  0
  7  8  1  0  0  0  0
  7  9  1  0  0  0  0
  9 10  1  0  0  0  0
  9 11  1  0  0  0  0
  9 21  1  0  0  0  0
 11 12  1  0  0  0  0
 11 13  1  0  0  0  0
 11 14  1  0  0  0  0
 14 15  1  0  0  0  0
 14 16  1  0  0  0  0
 14 17  1  0  0  0  0
 17 18  2  0  0  0  0
 17 19  1  0  0  0  0
 19 20  1  0  0  0  0
 21 22  2  0  0  0  0
 21 23  1  0  0  0  0
 23 24  1  0  0  0  0
 23 25  1  0  0  0  0
 25 26  1  0  0  0  0
 25 27  1  0  0  0  0
 25 28  1  0  0  0  0
M  END
$$$$

  -OEChem-02102214123D

 28 27  0     1  0  0  0  0  0999 V2000
   -2.9549   -3.8209    1.5271 H   0  0  0  0  0  0  0  0  0  0  0  0
   -3.0573   -2.8270    1.0824 C   0  0  0  0  0  0  0  0  0  0  0  0
   -3.7063   -2.2207    1.7191 H   0  0  0  0  0  0  0  0  0  0  0  0
   -3.5170   -2.9267    0.0961 H   0  0  0  0  0  0  0  0  0  0  0  0
   -1.6970   -2.1685    0.9540 C   0  0  0  0  0  0  0  0  0  0  0  0
   -0.6913   -2.7635    1.3096 O   0  0  0  0  0  0  0  0  0  0  0  0
   -1.6000   -0.8979    0.4272 N   0  0  0  0  0  0  0  0  0  0  0  0
   -2.4684   -0.4251    0.1777 H   0  0  0  0  0  0  0  0  0  0  0  0
   -0.3639   -0.1129    0.3102 C   0  0  1  0  0  0  0  0  0  0  0  0
    0.3014   -0.5172    1.0804 H   0  0  0  0  0  0  0  0  0  0  0  0
    0.3650   -0.4476   -1.0199 C   0  0  0  0  0  0  0  0  0  0  0  0
    1.4354   -0.3218   -0.8261 H   0  0  0  0  0  0  0  0  0  0  0  0
    0.2178   -1.5133   -1.2276 H   0  0  0  0  0  0  0  0  0  0  0  0
    0.0618    0.3398   -2.3237 C   0  0  0  0  0  0  0  0  0  0  0  0
    0.9928    0.7841   -2.6868 H   0  0  0  0  0  0  0  0  0  0  0  0
   -0.2669   -0.3713   -3.0874 H   0  0  0  0  0  0  0  0  0  0  0  0
   -0.9781    1.4483   -2.2539 C   0  0  0  0  0  0  0  0  0  0  0  0
   -2.1543    1.1369   -2.3463 O   0  0  0  0  0  0  0  0  0  0  0  0
   -0.5423    2.7187   -2.0902 O   0  0  0  0  0  0  0  0  0  0  0  0
   -1.3437    3.2428   -1.9307 H   0  0  0  0  0  0  0  0  0  0  0  0
   -0.4981    1.3646    0.7515 C   0  0  0  0  0  0  0  0  0  0  0  0
   -1.5633    1.9588    0.6281 O   0  0  0  0  0  0  0  0  0  0  0  0
    0.4750    1.9361    1.5519 N   0  0  0  0  0  0  0  0  0  0  0  0
    1.3076    1.3876    1.7459 H   0  0  0  0  0  0  0  0  0  0  0  0
    0.3364    3.2491    2.1714 C   0  0  0  0  0  0  0  0  0  0  0  0
   -0.5178    3.2616    2.8566 H   0  0  0  0  0  0  0  0  0  0  0  0
    1.2382    3.4968    2.7393 H   0  0  0  0  0  0  0  0  0  0  0  0
    0.1871    4.0194    1.4074 H   0  0  0  0  0  0  0  0  0  0  0  0
  1  2  1  0  0  0  0
  2  3  1  0  0  0  0
  2  4  1  0  0  0  0
  2  5  1  0  0  0  0
  5  6  2  0  0  0  0
  5  7  1  0  0  0  0
  7  8  1  0  0  0  0
  7  9  1  0  0  0  0
  9 10  1  0  0  0  0
  9 11  1  0  0  0  0
  9 21  1  0  0  0  0
 11 12  1  0  0  0  0
 11 13  1  0  0  0  0
 11 14  1  0  0  0  0
 14 15  1  0  0  0  0
 14 16  1  0  0  0  0
 14 17  1  0  0  0  0
 17 18  2  0  0  0  0
 17 19  1  0  0  0  0
 19 20  1  0  0  0  0
 21 22  2  0  0  0  0
 21 23  1  0  0  0  0
 23 24  1  0  0  0  0
 23 25  1  0  0  0  0
 25 26  1  0  0  0  0
 25 27  1  0  0  0  0
 25 28  1  0  0  0  0
M  END
$$$$

  -OEChem-02102214123D

 28 27  0     1  0  0  0  0  0999 V2000
   -3.4266   -3.6233    0.9658 H   0  0  0  0  0  0  0  0  0  0  0  0
   -3.3722   -2.6054    0.5701 C   0  0  0  0  0  0  0  0  0  0  0  0
   -4.0289   -1.9623    1.1610 H   0  0  0  0  0  0  0  0  0  0  0  0
   -3.7162   -2.6114   -0.4669 H   0  0  0  0  0  0  0  0  0  0  0  0
   -1.9461   -2.0934    0.6385 C   0  0  0  0  0  0  0  0  0  0  0  0
   -1.0548   -2.8167    1.0550 O   0  0  0  0  0  0  0  0  0  0  0  0
   -1.6593   -0.8104    0.2221 N   0  0  0  0  0  0  0  0  0  0  0  0
   -2.4463   -0.2164   -0.0366 H   0  0  0  0  0  0  0  0  0  0  0  0
   -0.3541   -0.1479    0.3551 C   0  0  1  0  0  0  0  0  0  0  0  0
    0.1562   -0.6564    1.1802 H   0  0  0  0  0  0  0  0  0  0  0  0
    0.5234   -0.4608   -0.8901 C   0  0  0  0  0  0  0  0  0  0  0  0
    1.5572   -0.4365   -0.5298 H   0  0  0  0  0  0  0  0  0  0  0  0
    0.3335   -1.4948   -1.1983 H   0  0  0  0  0  0  0  0  0  0  0  0
    0.5053    0.4341   -2.1597 C   0  0  0  0  0  0  0  0  0  0  0  0
    1.5281    0.5425   -2.5326 H   0  0  0  0  0  0  0  0  0  0  0  0
   -0.0565   -0.0997   -2.9317 H   0  0  0  0  0  0  0  0  0  0  0  0
   -0.1162    1.8176   -2.0554 C   0  0  0  0  0  0  0  0  0  0  0  0
    0.5995    2.7408   -1.7026 O   0  0  0  0  0  0  0  0  0  0  0  0
   -1.4315    1.9460   -2.3453 O   0  0  0  0  0  0  0  0  0  0  0  0
   -1.6714    2.8430   -2.0637 H   0  0  0  0  0  0  0  0  0  0  0  0
   -0.4710    1.3042    0.8761 C   0  0  0  0  0  0  0  0  0  0  0  0
   -1.4738    1.9655    0.6234 O   0  0  0  0  0  0  0  0  0  0  0  0
    0.3813    1.7590    1.8657 N   0  0  0  0  0  0  0  0  0  0  0  0
    1.1814    1.1795    2.1012 H   0  0  0  0  0  0  0  0  0  0  0  0
    0.2631    3.0771    2.4781 C   0  0  0  0  0  0  0  0  0  0  0  0
   -0.7110    3.1883    2.9662 H   0  0  0  0  0  0  0  0  0  0  0  0
    1.0436    3.2150    3.2325 H   0  0  0  0  0  0  0  0  0  0  0  0
    0.3703    3.8613    1.7208 H   0  0  0  0  0  0  0  0  0  0  0  0
  1  2  1  0  0  0  0
  2  3  1  0  0  0  0
  2  4  1  0  0  0  0
  2  5  1  0  0  0  0
  5  6  2  0  0  0  0
  5  7  1  0  0  0  0
  7  8  1  0  0  0  0
  7  9  1  0  0  0  0
  9 10  1  0  0  0  0
  9 11  1  0  0  0  0
  9 21  1  0  0  0  0
 11 12  1  0  0  0  0
 11 13  1  0  0  0  0
 11 14  1  0  0  0  0
 14 15  1  0  0  0  0
 14 16  1  0  0  0  0
 14 17  1  0  0  0  0
 17 18  2  0  0  0  0
 17 19  1  0  0  0  0
 19 20  1  0  0  0  0
 21 22  2  0  0  0  0
 21 23  1  0  0  0  0
 23 24  1  0  0  0  0
 23 25  1  0  0  0  0
 25 26  1  0  0  0  0
 25 27  1  0  0  0  0
 25 28  1  0  0  0  0
M  END
$$$$

  -OEChem-02102214123D

 28 27  0     1  0  0  0  0  0999 V2000
   -3.3325   -3.7372    0.7714 H   0  0  0  0  0  0  0  0  0  0  0  0
   -3.2987   -2.6972    0.4350 C   0  0  0  0  0  0  0  0  0  0  0  0
   -3.9579   -2.1002    1.0700 H   0  0  0  0  0  0  0  0  0  0  0  0
   -3.6553   -2.6485   -0.5967 H   0  0  0  0  0  0  0  0  0  0  0  0
   -1.8800   -2.1670    0.5170 C   0  0  0  0  0  0  0  0  0  0  0  0
   -0.9755   -2.8937    0.8972 O   0  0  0  0  0  0  0  0  0  0  0  0
   -1.6149   -0.8626    0.1563 N   0  0  0  0  0  0  0  0  0  0  0  0
   -2.4143   -0.2662   -0.0556 H   0  0  0  0  0  0  0  0  0  0  0  0
   -0.3228   -0.1845    0.3334 C   0  0  1  0  0  0  0  0  0  0  0  0
    0.2023   -0.7186    1.1326 H   0  0  0  0  0  0  0  0  0  0  0  0
    0.5489   -0.4060   -0.9356 C   0  0  0  0  0  0  0  0  0  0  0  0
    1.5848   -0.3804   -0.5814 H   0  0  0  0  0  0  0  0  0  0  0  0
    0.3771   -1.4221   -1.3073 H   0  0  0  0  0  0  0  0  0  0  0  0
    0.5038    0.5686   -2.1435 C   0  0  0  0  0  0  0  0  0  0  0  0
    1.4538    0.5113   -2.6824 H   0  0  0  0  0  0  0  0  0  0  0  0
   -0.2702    0.2045   -2.8252 H   0  0  0  0  0  0  0  0  0  0  0  0
    0.1937    2.0353   -1.8811 C   0  0  0  0  0  0  0  0  0  0  0  0
    1.0294    2.6981   -1.2875 O   0  0  0  0  0  0  0  0  0  0  0  0
   -0.9876    2.5261   -2.3212 O   0  0  0  0  0  0  0  0  0  0  0  0
   -1.0582    3.4178   -1.9475 H   0  0  0  0  0  0  0  0  0  0  0  0
   -0.4975    1.2373    0.9127 C   0  0  0  0  0  0  0  0  0  0  0  0
   -1.4993    1.8892    0.6340 O   0  0  0  0  0  0  0  0  0  0  0  0
    0.3182    1.6810    1.9372 N   0  0  0  0  0  0  0  0  0  0  0  0
    1.1438    1.1292    2.1500 H   0  0  0  0  0  0  0  0  0  0  0  0
    0.1719    2.9915    2.5584 C   0  0  0  0  0  0  0  0  0  0  0  0
   -0.8182    3.0912    3.0157 H   0  0  0  0  0  0  0  0  0  0  0  0
    0.9265    3.1266    3.3392 H   0  0  0  0  0  0  0  0  0  0  0  0
    0.2986    3.7840    1.8130 H   0  0  0  0  0  0  0  0  0  0  0  0
  1  2  1  0  0  0  0
  2  3  1  0  0  0  0
  2  4  1  0  0  0  0
  2  5  1  0  0  0  0
  5  6  2  0  0  0  0
  5  7  1  0  0  0  0
  7  8  1  0  0  0  0
  7  9  1  0  0  0  0
  9 10  1  0  0  0  0
  9 11  1  0  0  0  0
  9 21  1  0  0  0  0
 11 12  1  0  0  0  0
 11 13  1  0  0  0  0
 11 14  1  0  0  0  0
 14 15  1  0  0  0  0
 14 16  1  0  0  0  0
 14 17  1  0  0  0  0
 17 18  2  0  0  0  0
 17 19  1  0  0  0  0
 19 20  1  0  0  0  0
 21 22  2  0  0  0  0
 21 23  1  0  0  0  0
 23 24  1  0  0  0  0
 23 25  1  0  0  0  0
 25 26  1  0  0  0  0
 25 27  1  0  0  0  0
 25 28  1  0  0  0  0
M  END
$$$$

  -OEChem-02102214123D

 28 27  0     1  0  0  0  0  0999 V2000
   -3.1958   -3.7632    1.1292 H   0  0  0  0  0  0  0  0  0  0  0  0
   -3.1973   -2.7414    0.7396 C   0  0  0  0  0  0  0  0  0  0  0  0
   -3.8077   -2.1152    1.3949 H   0  0  0  0  0  0  0  0  0  0  0  0
   -3.6362   -2.7459   -0.2610 H   0  0  0  0  0  0  0  0  0  0  0  0
   -1.7811   -2.2015    0.6800 C   0  0  0  0  0  0  0  0  0  0  0  0
   -0.8403   -2.9092    1.0037 O   0  0  0  0  0  0  0  0  0  0  0  0
   -1.5616   -0.9076    0.2573 N   0  0  0  0  0  0  0  0  0  0  0  0
   -2.3828   -0.3229    0.1041 H   0  0  0  0  0  0  0  0  0  0  0  0
   -0.2665   -0.2141    0.3076 C   0  0  1  0  0  0  0  0  0  0  0  0
    0.3479   -0.7214    1.0592 H   0  0  0  0  0  0  0  0  0  0  0  0
    0.4619   -0.4298   -1.0485 C   0  0  0  0  0  0  0  0  0  0  0  0
    1.5328   -0.4071   -0.8210 H   0  0  0  0  0  0  0  0  0  0  0  0
    0.2440   -1.4413   -1.4078 H   0  0  0  0  0  0  0  0  0  0  0  0
    0.2583    0.5605   -2.2243 C   0  0  0  0  0  0  0  0  0  0  0  0
    0.9996    0.3480   -2.9994 H   0  0  0  0  0  0  0  0  0  0  0  0
   -0.7263    0.3577   -2.6553 H   0  0  0  0  0  0  0  0  0  0  0  0
    0.3121    2.0536   -1.9209 C   0  0  0  0  0  0  0  0  0  0  0  0
    1.2735    2.4816   -1.3015 O   0  0  0  0  0  0  0  0  0  0  0  0
   -0.6945    2.8314   -2.3807 O   0  0  0  0  0  0  0  0  0  0  0  0
   -0.5325    3.7168   -2.0227 H   0  0  0  0  0  0  0  0  0  0  0  0
   -0.4347    1.2194    0.8562 C   0  0  0  0  0  0  0  0  0  0  0  0
   -1.4517    1.8541    0.5947 O   0  0  0  0  0  0  0  0  0  0  0  0
    0.4411    1.7159    1.8035 N   0  0  0  0  0  0  0  0  0  0  0  0
    1.2959    1.1917    1.9652 H   0  0  0  0  0  0  0  0  0  0  0  0
    0.3250    3.0548    2.3677 C   0  0  0  0  0  0  0  0  0  0  0  0
   -0.6464    3.1830    2.8570 H   0  0  0  0  0  0  0  0  0  0  0  0
    1.1092    3.2204    3.1125 H   0  0  0  0  0  0  0  0  0  0  0  0
    0.4275    3.8107    1.5820 H   0  0  0  0  0  0  0  0  0  0  0  0
  1  2  1  0  0  0  0
  2  3  1  0  0  0  0
  2  4  1  0  0  0  0
  2  5  1  0  0  0  0
  5  6  2  0  0  0  0
  5  7  1  0  0  0  0
  7  8  1  0  0  0  0
  7  9  1  0  0  0  0
  9 10  1  0  0  0  0
  9 11  1  0  0  0  0
  9 21  1  0  0  0  0
 11 12  1  0  0  0  0
 11 13  1  0  0  0  0
 11 14  1  0  0  0  0
 14 15  1  0  0  0  0
 14 16  1  0  0  0  0
 14 17  1  0  0  0  0
 17 18  2  0  0  0  0
 17 19  1  0  0  0  0
 19 20  1  0  0  0  0
 21 22  2  0  0  0  0
 21 23  1  0  0  0  0
 23 24  1  0  0  0  0
 23 25  1  0  0  0  0
 25 26  1  0  0  0  0
 25 27  1  0  0  0  0
 25 28  1  0  0  0  0
M  END
$$$$

  -OEChem-02102214123D

 28 27  0     1  0  0  0  0  0999 V2000
   -3.2041   -3.7558    1.1963 H   0  0  0  0  0  0  0  0  0  0  0  0
   -3.1953   -2.7550    0.7555 C   0  0  0  0  0  0  0  0  0  0  0  0
   -3.8261   -2.0986    1.3598 H   0  0  0  0  0  0  0  0  0  0  0  0
   -3.6042   -2.8118   -0.2562 H   0  0  0  0  0  0  0  0  0  0  0  0
   -1.7783   -2.2158    0.7107 C   0  0  0  0  0  0  0  0  0  0  0  0
   -0.8451   -2.9159    1.0703 O   0  0  0  0  0  0  0  0  0  0  0  0
   -1.5469   -0.9353    0.2545 N   0  0  0  0  0  0  0  0  0  0  0  0
   -2.3621   -0.3528    0.0665 H   0  0  0  0  0  0  0  0  0  0  0  0
   -0.2478   -0.2480    0.3028 C   0  0  1  0  0  0  0  0  0  0  0  0
    0.3715   -0.7428    1.0586 H   0  0  0  0  0  0  0  0  0  0  0  0
    0.4640   -0.4597   -1.0604 C   0  0  0  0  0  0  0  0  0  0  0  0
    1.5413   -0.4706   -0.8638 H   0  0  0  0  0  0  0  0  0  0  0  0
    0.2086   -1.4559   -1.4372 H   0  0  0  0  0  0  0  0  0  0  0  0
    0.2198    0.5699   -2.1915 C   0  0  0  0  0  0  0  0  0  0  0  0
    0.7583    0.2460   -3.0859 H   0  0  0  0  0  0  0  0  0  0  0  0
   -0.8474    0.5619   -2.4318 H   0  0  0  0  0  0  0  0  0  0  0  0
    0.6201    2.0175   -1.9097 C   0  0  0  0  0  0  0  0  0  0  0  0
    1.6079    2.2324   -1.2240 O   0  0  0  0  0  0  0  0  0  0  0  0
   -0.1255    2.9934   -2.4763 O   0  0  0  0  0  0  0  0  0  0  0  0
    0.2413    3.8306   -2.1561 H   0  0  0  0  0  0  0  0  0  0  0  0
   -0.4261    1.1992    0.8097 C   0  0  0  0  0  0  0  0  0  0  0  0
   -1.4183    1.8399    0.4772 O   0  0  0  0  0  0  0  0  0  0  0  0
    0.4312    1.7262    1.7574 N   0  0  0  0  0  0  0  0  0  0  0  0
    1.2822    1.2064    1.9515 H   0  0  0  0  0  0  0  0  0  0  0  0
    0.3168    3.0900    2.2583 C   0  0  0  0  0  0  0  0  0  0  0  0
   -0.6733    3.2571    2.6956 H   0  0  0  0  0  0  0  0  0  0  0  0
    1.0687    3.2734    3.0317 H   0  0  0  0  0  0  0  0  0  0  0  0
    0.4701    3.8085    1.4464 H   0  0  0  0  0  0  0  0  0  0  0  0
  1  2  1  0  0  0  0
  2  3  1  0  0  0  0
  2  4  1  0  0  0  0
  2  5  1  0  0  0  0
  5  6  2  0  0  0  0
  5  7  1  0  0  0  0
  7  8  1  0  0  0  0
  7  9  1  0  0  0  0
  9 10  1  0  0  0  0
  9 11  1  0  0  0  0
  9 21  1  0  0  0  0
 11 12  1  0  0  0  0
 11 13  1  0  0  0  0
 11 14  1  0  0  0  0
 14 15  1  0  0  0  0
 14 16  1  0  0  0  0
 14 17  1  0  0  0  0
 17 18  2  0  0  0  0
 17 19  1  0  0  0  0
 19 20  1  0  0  0  0
 21 22  2  0  0  0  0
 21 23  1  0  0  0  0
 23 24  1  0  0  0  0
 23 25  1  0  0  0  0
 25 26  1  0  0  0  0
 25 27  1  0  0  0  0
 25 28  1  0  0  0  0
M  END
$$$$

  -OEChem-02102214123D

 28 27  0     1  0  0  0  0  0999 V2000
   -3.2015   -3.7716    1.2274 H   0  0  0  0  0  0  0  0  0  0  0  0
   -3.1929   -2.7741    0.7794 C   0  0  0  0  0  0  0  0  0  0  0  0
   -3.8207   -2.1127    1.3813 H   0  0  0  0  0  0  0  0  0  0  0  0
   -3.6049   -2.8374   -0.2305 H   0  0  0  0  0  0  0  0  0  0  0  0
   -1.7753   -2.2371    0.7264 C   0  0  0  0  0  0  0  0  0  0  0  0
   -0.8438   -2.9290    1.1056 O   0  0  0  0  0  0  0  0  0  0  0  0
   -1.5431   -0.9660    0.2448 N   0  0  0  0  0  0  0  0  0  0  0  0
   -2.3582   -0.3880    0.0436 H   0  0  0  0  0  0  0  0  0  0  0  0
   -0.2451   -0.2762    0.2877 C   0  0  1  0  0  0  0  0  0  0  0  0
    0.3773   -0.7611    1.0473 H   0  0  0  0  0  0  0  0  0  0  0  0
    0.4703   -0.4726   -1.0722 C   0  0  0  0  0  0  0  0  0  0  0  0
    1.5502   -0.5095   -0.8942 H   0  0  0  0  0  0  0  0  0  0  0  0
    0.1920   -1.4541   -1.4707 H   0  0  0  0  0  0  0  0  0  0  0  0
    0.1839    0.5963   -2.1545 C   0  0  0  0  0  0  0  0  0  0  0  0
    0.5068    0.2052   -3.1229 H   0  0  0  0  0  0  0  0  0  0  0  0
   -0.8957    0.7629   -2.2139 H   0  0  0  0  0  0  0  0  0  0  0  0
    0.8738    1.9501   -1.9629 C   0  0  0  0  0  0  0  0  0  0  0  0
    1.8274    2.0414   -1.2046 O   0  0  0  0  0  0  0  0  0  0  0  0
    0.3959    2.9881   -2.6863 O   0  0  0  0  0  0  0  0  0  0  0  0
    0.9224    3.7588   -2.4277 H   0  0  0  0  0  0  0  0  0  0  0  0
   -0.4215    1.1825    0.7624 C   0  0  0  0  0  0  0  0  0  0  0  0
   -1.4016    1.8241    0.3976 O   0  0  0  0  0  0  0  0  0  0  0  0
    0.4314    1.7280    1.7031 N   0  0  0  0  0  0  0  0  0  0  0  0
    1.2813    1.2109    1.9097 H   0  0  0  0  0  0  0  0  0  0  0  0
    0.3277    3.1087    2.1579 C   0  0  0  0  0  0  0  0  0  0  0  0
   -0.6619    3.2986    2.5868 H   0  0  0  0  0  0  0  0  0  0  0  0
    1.0796    3.3112    2.9265 H   0  0  0  0  0  0  0  0  0  0  0  0
    0.4891    3.7990    1.3233 H   0  0  0  0  0  0  0  0  0  0  0  0
  1  2  1  0  0  0  0
  2  3  1  0  0  0  0
  2  4  1  0  0  0  0
  2  5  1  0  0  0  0
  5  6  2  0  0  0  0
  5  7  1  0  0  0  0
  7  8  1  0  0  0  0
  7  9  1  0  0  0  0
  9 10  1  0  0  0  0
  9 11  1  0  0  0  0
  9 21  1  0  0  0  0
 11 12  1  0  0  0  0
 11 13  1  0  0  0  0
 11 14  1  0  0  0  0
 14 15  1  0  0  0  0
 14 16  1  0  0  0  0
 14 17  1  0  0  0  0
 17 18  2  0  0  0  0
 17 19  1  0  0  0  0
 19 20  1  0  0  0  0
 21 22  2  0  0  0  0
 21 23  1  0  0  0  0
 23 24  1  0  0  0  0
 23 25  1  0  0  0  0
 25 26  1  0  0  0  0
 25 27  1  0  0  0  0
 25 28  1  0  0  0  0
M  END
$$$$

  -OEChem-02102214123D

 28 27  0     1  0  0  0  0  0999 V2000
   -3.1781   -3.7941    1.2594 H   0  0  0  0  0  0  0  0  0  0  0  0
   -3.1826   -2.8046    0.7939 C   0  0  0  0  0  0  0  0  0  0  0  0
   -3.8135   -2.1395    1.3882 H   0  0  0  0  0  0  0  0  0  0  0  0
   -3.6006   -2.8900   -0.2120 H   0  0  0  0  0  0  0  0  0  0  0  0
   -1.7707   -2.2542    0.7228 C   0  0  0  0  0  0  0  0  0  0  0  0
   -0.8284   -2.9402    1.0855 O   0  0  0  0  0  0  0  0  0  0  0  0
   -1.5552   -0.9801    0.2409 N   0  0  0  0  0  0  0  0  0  0  0  0
   -2.3780   -0.4088    0.0533 H   0  0  0  0  0  0  0  0  0  0  0  0
   -0.2630   -0.2783    0.2752 C   0  0  1  0  0  0  0  0  0  0  0  0
    0.3645   -0.7625    1.0311 H   0  0  0  0  0  0  0  0  0  0  0  0
    0.4580   -0.4558   -1.0813 C   0  0  0  0  0  0  0  0  0  0  0  0
    1.5389   -0.4982   -0.9107 H   0  0  0  0  0  0  0  0  0  0  0  0
    0.1776   -1.4318   -1.4919 H   0  0  0  0  0  0  0  0  0  0  0  0
    0.1395    0.6313   -2.1364 C   0  0  0  0  0  0  0  0  0  0  0  0
    0.2409    0.1782   -3.1263 H   0  0  0  0  0  0  0  0  0  0  0  0
   -0.8994    0.9596   -2.0430 H   0  0  0  0  0  0  0  0  0  0  0  0
    1.0602    1.8554   -2.1204 C   0  0  0  0  0  0  0  0  0  0  0  0
    1.9046    1.9773   -1.2459 O   0  0  0  0  0  0  0  0  0  0  0  0
    0.8869    2.7550   -3.1155 O   0  0  0  0  0  0  0  0  0  0  0  0
    1.5270    3.4630   -2.9490 H   0  0  0  0  0  0  0  0  0  0  0  0
   -0.4251    1.1830    0.7512 C   0  0  0  0  0  0  0  0  0  0  0  0
   -1.4151    1.8247    0.4141 O   0  0  0  0  0  0  0  0  0  0  0  0
    0.4437    1.7230    1.6811 N   0  0  0  0  0  0  0  0  0  0  0  0
    1.2985    1.2058    1.8657 H   0  0  0  0  0  0  0  0  0  0  0  0
    0.3578    3.1067    2.1316 C   0  0  0  0  0  0  0  0  0  0  0  0
   -0.6240    3.3074    2.5735 H   0  0  0  0  0  0  0  0  0  0  0  0
    1.1221    3.3061    2.8888 H   0  0  0  0  0  0  0  0  0  0  0  0
    0.5132    3.7919    1.2916 H   0  0  0  0  0  0  0  0  0  0  0  0
  1  2  1  0  0  0  0
  2  3  1  0  0  0  0
  2  4  1  0  0  0  0
  2  5  1  0  0  0  0
  5  6  2  0  0  0  0
  5  7  1  0  0  0  0
  7  8  1  0  0  0  0
  7  9  1  0  0  0  0
  9 10  1  0  0  0  0
  9 11  1  0  0  0  0
  9 21  1  0  0  0  0
 11 12  1  0  0  0  0
 11 13  1  0  0  0  0
 11 14  1  0  0  0  0
 14 15  1  0  0  0  0
 14 16  1  0  0  0  0
 14 17  1  0  0  0  0
 17 18  2  0  0  0  0
 17 19  1  0  0  0  0
 19 20  1  0  0  0  0
 21 22  2  0  0  0  0
 21 23  1  0  0  0  0
 23 24  1  0  0  0  0
 23 25  1  0  0  0  0
 25 26  1  0  0  0  0
 25 27  1  0  0  0  0
 25 28  1  0  0  0  0
M  END
$$$$

  -OEChem-02102214123D

 28 27  0     1  0  0  0  0  0999 V2000
   -3.1409   -3.8248    1.2279 H   0  0  0  0  0  0  0  0  0  0  0  0
   -3.1647   -2.8157    0.8070 C   0  0  0  0  0  0  0  0  0  0  0  0
   -3.7765   -2.1797    1.4514 H   0  0  0  0  0  0  0  0  0  0  0  0
   -3.6169   -2.8587   -0.1867 H   0  0  0  0  0  0  0  0  0  0  0  0
   -1.7583   -2.2555    0.7110 C   0  0  0  0  0  0  0  0  0  0  0  0
   -0.8027   -2.9394    1.0417 O   0  0  0  0  0  0  0  0  0  0  0  0
   -1.5646   -0.9737    0.2413 N   0  0  0  0  0  0  0  0  0  0  0  0
   -2.3966   -0.4064    0.0847 H   0  0  0  0  0  0  0  0  0  0  0  0
   -0.2795   -0.2593    0.2541 C   0  0  1  0  0  0  0  0  0  0  0  0
    0.3610   -0.7470    0.9967 H   0  0  0  0  0  0  0  0  0  0  0  0
    0.4332   -0.4191   -1.1068 C   0  0  0  0  0  0  0  0  0  0  0  0
    1.5150   -0.4477   -0.9394 H   0  0  0  0  0  0  0  0  0  0  0  0
    0.1664   -1.3980   -1.5199 H   0  0  0  0  0  0  0  0  0  0  0  0
    0.0909    0.6696   -2.1541 C   0  0  0  0  0  0  0  0  0  0  0  0
   -0.0592    0.1693   -3.1149 H   0  0  0  0  0  0  0  0  0  0  0  0
   -0.8487    1.1753   -1.9213 H   0  0  0  0  0  0  0  0  0  0  0  0
    1.1945    1.7072   -2.3638 C   0  0  0  0  0  0  0  0  0  0  0  0
    1.9253    2.0034   -1.4311 O   0  0  0  0  0  0  0  0  0  0  0  0
    1.3005    2.2556   -3.5957 O   0  0  0  0  0  0  0  0  0  0  0  0
    2.0277    2.8937   -3.5407 H   0  0  0  0  0  0  0  0  0  0  0  0
   -0.4308    1.1967    0.7510 C   0  0  0  0  0  0  0  0  0  0  0  0
   -1.4510    1.8249    0.4854 O   0  0  0  0  0  0  0  0  0  0  0  0
    0.4631    1.7256    1.6632 N   0  0  0  0  0  0  0  0  0  0  0  0
    1.3322    1.2186    1.8040 H   0  0  0  0  0  0  0  0  0  0  0  0
    0.3621    3.0889    2.1693 C   0  0  0  0  0  0  0  0  0  0  0  0
   -0.6023    3.2441    2.6645 H   0  0  0  0  0  0  0  0  0  0  0  0
    1.1564    3.2826    2.8964 H   0  0  0  0  0  0  0  0  0  0  0  0
    0.4577    3.8085    1.3494 H   0  0  0  0  0  0  0  0  0  0  0  0
  1  2  1  0  0  0  0
  2  3  1  0  0  0  0
  2  4  1  0  0  0  0
  2  5  1  0  0  0  0
  5  6  2  0  0  0  0
  5  7  1  0  0  0  0
  7  8  1  0  0  0  0
  7  9  1  0  0  0  0
  9 10  1  0  0  0  0
  9 11  1  0  0  0  0
  9 21  1  0  0  0  0
 11 12  1  0  0  0  0
 11 13  1  0  0  0  0
 11 14  1  0  0  0  0
 14 15  1  0  0  0  0
 14 16  1  0  0  0  0
 14 17  1  0  0  0  0
 17 18  2  0  0  0  0
 17 19  1  0  0  0  0
 19 20  1  0  0  0  0
 21 22  2  0  0  0  0
 21 23  1  0  0  0  0
 23 24  1  0  0  0  0
 23 25  1  0  0  0  0
 25 26  1  0  0  0  0
 25 27  1  0  0  0  0
 25 28  1  0  0  0  0
M  END
$$$$

  -OEChem-02102214123D

 28 27  0     1  0  0  0  0  0999 V2000
   -3.1048   -3.8260    1.2217 H   0  0  0  0  0  0  0  0  0  0  0  0
   -3.1464   -2.8159    0.8044 C   0  0  0  0  0  0  0  0  0  0  0  0
   -3.7505   -2.1878    1.4636 H   0  0  0  0  0  0  0  0  0  0  0  0
   -3.6193   -2.8601   -0.1795 H   0  0  0  0  0  0  0  0  0  0  0  0
   -1.7472   -2.2431    0.6808 C   0  0  0  0  0  0  0  0  0  0  0  0
   -0.7788   -2.9258    0.9749 O   0  0  0  0  0  0  0  0  0  0  0  0
   -1.5737   -0.9506    0.2321 N   0  0  0  0  0  0  0  0  0  0  0  0
   -2.4134   -0.3876    0.1038 H   0  0  0  0  0  0  0  0  0  0  0  0
   -0.2945   -0.2258    0.2344 C   0  0  1  0  0  0  0  0  0  0  0  0
    0.3558   -0.7212    0.9633 H   0  0  0  0  0  0  0  0  0  0  0  0
    0.4063   -0.3763   -1.1336 C   0  0  0  0  0  0  0  0  0  0  0  0
    1.4868   -0.3741   -0.9545 H   0  0  0  0  0  0  0  0  0  0  0  0
    0.1705   -1.3639   -1.5448 H   0  0  0  0  0  0  0  0  0  0  0  0
    0.0569    0.7035   -2.1899 C   0  0  0  0  0  0  0  0  0  0  0  0
   -0.3731    0.1998   -3.0603 H   0  0  0  0  0  0  0  0  0  0  0  0
   -0.7031    1.4019   -1.8367 H   0  0  0  0  0  0  0  0  0  0  0  0
    1.2711    1.5002   -2.6610 C   0  0  0  0  0  0  0  0  0  0  0  0
    2.0248    1.9709   -1.8240 O   0  0  0  0  0  0  0  0  0  0  0  0
    1.4513    1.6445   -3.9940 O   0  0  0  0  0  0  0  0  0  0  0  0
    2.2524    2.1799   -4.0980 H   0  0  0  0  0  0  0  0  0  0  0  0
   -0.4360    1.2206    0.7604 C   0  0  0  0  0  0  0  0  0  0  0  0
   -1.4665    1.8489    0.5404 O   0  0  0  0  0  0  0  0  0  0  0  0
    0.4783    1.7322    1.6623 N   0  0  0  0  0  0  0  0  0  0  0  0
    1.3343    1.2052    1.8099 H   0  0  0  0  0  0  0  0  0  0  0  0
    0.3673    3.0669    2.2382 C   0  0  0  0  0  0  0  0  0  0  0  0
   -0.5729    3.1691    2.7905 H   0  0  0  0  0  0  0  0  0  0  0  0
    1.1944    3.2507    2.9304 H   0  0  0  0  0  0  0  0  0  0  0  0
    0.3988    3.8275    1.4508 H   0  0  0  0  0  0  0  0  0  0  0  0
  1  2  1  0  0  0  0
  2  3  1  0  0  0  0
  2  4  1  0  0  0  0
  2  5  1  0  0  0  0
  5  6  2  0  0  0  0
  5  7  1  0  0  0  0
  7  8  1  0  0  0  0
  7  9  1  0  0  0  0
  9 10  1  0  0  0  0
  9 11  1  0  0  0  0
  9 21  1  0  0  0  0
 11 12  1  0  0  0  0
 11 13  1  0  0  0  0
 11 14  1  0  0  0  0
 14 15  1  0  0  0  0
 14 16  1  0  0  0  0
 14 17  1  0  0  0  0
 17 18  2  0  0  0  0
 17 19  1  0  0  0  0
 19 20  1  0  0  0  0
 21 22  2  0  0  0  0
 21 23  1  0  0  0  0
 23 24  1  0  0  0  0
 23 25  1  0  0  0  0
 25 26  1  0  0  0  0
 25 27  1  0  0  0  0
 25 28  1  0  0  0  0
M  END
$$$$

  -OEChem-02102214123D

 28 27  0     1  0  0  0  0  0999 V2000
   -3.0891   -3.8475    1.1072 H   0  0  0  0  0  0  0  0  0  0  0  0
   -3.1374   -2.8097    0.7661 C   0  0  0  0  0  0  0  0  0  0  0  0
   -3.7310   -2.2320    1.4787 H   0  0  0  0  0  0  0  0  0  0  0  0
   -3.6255   -2.7827   -0.2111 H   0  0  0  0  0  0  0  0  0  0  0  0
   -1.7403   -2.2274    0.6636 C   0  0  0  0  0  0  0  0  0  0  0  0
   -0.7706   -2.9082    0.9581 O   0  0  0  0  0  0  0  0  0  0  0  0
   -1.5697   -0.9286    0.2319 N   0  0  0  0  0  0  0  0  0  0  0  0
   -2.4103   -0.3681    0.0995 H   0  0  0  0  0  0  0  0  0  0  0  0
   -0.2910   -0.2036    0.2322 C   0  0  1  0  0  0  0  0  0  0  0  0
    0.3685   -0.7077    0.9464 H   0  0  0  0  0  0  0  0  0  0  0  0
    0.3860   -0.3449   -1.1499 C   0  0  0  0  0  0  0  0  0  0  0  0
    1.4655   -0.3160   -0.9673 H   0  0  0  0  0  0  0  0  0  0  0  0
    0.1731   -1.3361   -1.5650 H   0  0  0  0  0  0  0  0  0  0  0  0
    0.0341    0.7356   -2.2046 C   0  0  0  0  0  0  0  0  0  0  0  0
   -0.6676    0.3087   -2.9266 H   0  0  0  0  0  0  0  0  0  0  0  0
   -0.4605    1.6017   -1.7641 H   0  0  0  0  0  0  0  0  0  0  0  0
    1.2652    1.2508   -2.9436 C   0  0  0  0  0  0  0  0  0  0  0  0
    2.1396    1.8092   -2.3012 O   0  0  0  0  0  0  0  0  0  0  0  0
    1.3321    1.0477   -4.2796 O   0  0  0  0  0  0  0  0  0  0  0  0
    2.1729    1.4354   -4.5657 H   0  0  0  0  0  0  0  0  0  0  0  0
   -0.4321    1.2338    0.7803 C   0  0  0  0  0  0  0  0  0  0  0  0
   -1.4568    1.8710    0.5603 O   0  0  0  0  0  0  0  0  0  0  0  0
    0.4879    1.7353    1.6820 N   0  0  0  0  0  0  0  0  0  0  0  0
    1.3225    1.1838    1.8588 H   0  0  0  0  0  0  0  0  0  0  0  0
    0.3789    3.0595    2.2821 C   0  0  0  0  0  0  0  0  0  0  0  0
   -0.5559    3.1501    2.8454 H   0  0  0  0  0  0  0  0  0  0  0  0
    1.2130    3.2344    2.9686 H   0  0  0  0  0  0  0  0  0  0  0  0
    0.3997    3.8332    1.5074 H   0  0  0  0  0  0  0  0  0  0  0  0
  1  2  1  0  0  0  0
  2  3  1  0  0  0  0
  2  4  1  0  0  0  0
  2  5  1  0  0  0  0
  5  6  2  0  0  0  0
  5  7  1  0  0  0  0
  7  8  1  0  0  0  0
  7  9  1  0  0  0  0
  9 10  1  0  0  0  0
  9 11  1  0  0  0  0
  9 21  1  0  0  0  0
 11 12  1  0  0  0  0
 11 13  1  0  0  0  0
 11 14  1  0  0  0  0
 14 15  1  0  0  0  0
 14 16  1  0  0  0  0
 14 17  1  0  0  0  0
 17 18  2  0  0  0  0
 17 19  1  0  0  0  0
 19 20  1  0  0  0  0
 21 22  2  0  0  0  0
 21 23  1  0  0  0  0
 23 24  1  0  0  0  0
 23 25  1  0  0  0  0
 25 26  1  0  0  0  0
 25 27  1  0  0  0  0
 25 28  1  0  0  0  0
M  END
$$$$

  -OEChem-02102214123D

 28 27  0     1  0  0  0  0  0999 V2000
   -3.1115   -3.8164    1.2234 H   0  0  0  0  0  0  0  0  0  0  0  0
   -3.1429   -2.7974    0.8279 C   0  0  0  0  0  0  0  0  0  0  0  0
   -3.7665   -2.1841    1.4829 H   0  0  0  0  0  0  0  0  0  0  0  0
   -3.5874   -2.8211   -0.1700 H   0  0  0  0  0  0  0  0  0  0  0  0
   -1.7419   -2.2202    0.7571 C   0  0  0  0  0  0  0  0  0  0  0  0
   -0.7889   -2.8760    1.1466 O   0  0  0  0  0  0  0  0  0  0  0  0
   -1.5510   -0.9498    0.2555 N   0  0  0  0  0  0  0  0  0  0  0  0
   -2.3833   -0.4045    0.0362 H   0  0  0  0  0  0  0  0  0  0  0  0
   -0.2682   -0.2322    0.2383 C   0  0  1  0  0  0  0  0  0  0  0  0
    0.3830   -0.6991    0.9850 H   0  0  0  0  0  0  0  0  0  0  0  0
    0.4130   -0.4518   -1.1332 C   0  0  0  0  0  0  0  0  0  0  0  0
    1.4900   -0.3984   -0.9410 H   0  0  0  0  0  0  0  0  0  0  0  0
    0.2105   -1.4651   -1.4973 H   0  0  0  0  0  0  0  0  0  0  0  0
    0.0752    0.5757   -2.2455 C   0  0  0  0  0  0  0  0  0  0  0  0
   -0.8265    0.2534   -2.7727 H   0  0  0  0  0  0  0  0  0  0  0  0
   -0.1347    1.5578   -1.8198 H   0  0  0  0  0  0  0  0  0  0  0  0
    1.2004    0.7922   -3.2593 C   0  0  0  0  0  0  0  0  0  0  0  0
    2.0520   -0.0679   -3.4131 O   0  0  0  0  0  0  0  0  0  0  0  0
    1.1819    1.9512   -3.9563 O   0  0  0  0  0  0  0  0  0  0  0  0
    1.9453    1.9154   -4.5524 H   0  0  0  0  0  0  0  0  0  0  0  0
   -0.4207    1.2332    0.7011 C   0  0  0  0  0  0  0  0  0  0  0  0
   -1.4243    1.8685    0.3971 O   0  0  0  0  0  0  0  0  0  0  0  0
    0.4798    1.7863    1.5928 N   0  0  0  0  0  0  0  0  0  0  0  0
    1.2533    1.2052    1.9034 H   0  0  0  0  0  0  0  0  0  0  0  0
    0.3194    3.1156    2.1707 C   0  0  0  0  0  0  0  0  0  0  0  0
   -0.5816    3.1567    2.7919 H   0  0  0  0  0  0  0  0  0  0  0  0
    1.1830    3.3643    2.7950 H   0  0  0  0  0  0  0  0  0  0  0  0
    0.2374    3.8703    1.3814 H   0  0  0  0  0  0  0  0  0  0  0  0
  1  2  1  0  0  0  0
  2  3  1  0  0  0  0
  2  4  1  0  0  0  0
  2  5  1  0  0  0  0
  5  6  2  0  0  0  0
  5  7  1  0  0  0  0
  7  8  1  0  0  0  0
  7  9  1  0  0  0  0
  9 10  1  0  0  0  0
  9 11  1  0  0  0  0
  9 21  1  0  0  0  0
 11 12  1  0  0  0  0
 11 13  1  0  0  0  0
 11 14  1  0  0  0  0
 14 15  1  0  0  0  0
 14 16  1  0  0  0  0
 14 17  1  0  0  0  0
 17 18  2  0  0  0  0
 17 19  1  0  0  0  0
 19 20  1  0  0  0  0
 21 22  2  0  0  0  0
 21 23  1  0  0  0  0
 23 24  1  0  0  0  0
 23 25  1  0  0  0  0
 25 26  1  0  0  0  0
 25 27  1  0  0  0  0
 25 28  1  0  0  0  0
M  END
$$$$

  -OEChem-02102214123D

 28 27  0     1  0  0  0  0  0999 V2000
   -3.1428   -3.7790    1.2622 H   0  0  0  0  0  0  0  0  0  0  0  0
   -3.1541   -2.7863    0.8035 C   0  0  0  0  0  0  0  0  0  0  0  0
   -3.7959   -2.1311    1.3973 H   0  0  0  0  0  0  0  0  0  0  0  0
   -3.5635   -2.8688   -0.2062 H   0  0  0  0  0  0  0  0  0  0  0  0
   -1.7482   -2.2203    0.7462 C   0  0  0  0  0  0  0  0  0  0  0  0
   -0.8043   -2.8841    1.1441 O   0  0  0  0  0  0  0  0  0  0  0  0
   -1.5430   -0.9507    0.2485 N   0  0  0  0  0  0  0  0  0  0  0  0
   -2.3688   -0.3980    0.0232 H   0  0  0  0  0  0  0  0  0  0  0  0
   -0.2535   -0.2452    0.2453 C   0  0  1  0  0  0  0  0  0  0  0  0
    0.3944   -0.7222    0.9884 H   0  0  0  0  0  0  0  0  0  0  0  0
    0.4235   -0.4488   -1.1294 C   0  0  0  0  0  0  0  0  0  0  0  0
    1.5038   -0.4131   -0.9510 H   0  0  0  0  0  0  0  0  0  0  0  0
    0.1985   -1.4504   -1.5129 H   0  0  0  0  0  0  0  0  0  0  0  0
    0.0827    0.6100   -2.2072 C   0  0  0  0  0  0  0  0  0  0  0  0
   -0.9445    0.4581   -2.5493 H   0  0  0  0  0  0  0  0  0  0  0  0
    0.1456    1.6170   -1.7892 H   0  0  0  0  0  0  0  0  0  0  0  0
    1.0193    0.5973   -3.4171 C   0  0  0  0  0  0  0  0  0  0  0  0
    1.9436   -0.1977   -3.4694 O   0  0  0  0  0  0  0  0  0  0  0  0
    0.7574    1.4947   -4.3944 O   0  0  0  0  0  0  0  0  0  0  0  0
    1.4304    1.3477   -5.0761 H   0  0  0  0  0  0  0  0  0  0  0  0
   -0.4021    1.2194    0.7101 C   0  0  0  0  0  0  0  0  0  0  0  0
   -1.3880    1.8689    0.3792 O   0  0  0  0  0  0  0  0  0  0  0  0
    0.4917    1.7645    1.6132 N   0  0  0  0  0  0  0  0  0  0  0  0
    1.2577    1.1777    1.9317 H   0  0  0  0  0  0  0  0  0  0  0  0
    0.3398    3.0982    2.1826 C   0  0  0  0  0  0  0  0  0  0  0  0
   -0.6168    3.1839    2.7090 H   0  0  0  0  0  0  0  0  0  0  0  0
    1.1450    3.2998    2.8957 H   0  0  0  0  0  0  0  0  0  0  0  0
    0.3773    3.8577    1.3944 H   0  0  0  0  0  0  0  0  0  0  0  0
  1  2  1  0  0  0  0
  2  3  1  0  0  0  0
  2  4  1  0  0  0  0
  2  5  1  0  0  0  0
  5  6  2  0  0  0  0
  5  7  1  0  0  0  0
  7  8  1  0  0  0  0
  7  9  1  0  0  0  0
  9 10  1  0  0  0  0
  9 11  1  0  0  0  0
  9 21  1  0  0  0  0
 11 12  1  0  0  0  0
 11 13  1  0  0  0  0
 11 14  1  0  0  0  0
 14 15  1  0  0  0  0
 14 16  1  0  0  0  0
 14 17  1  0  0  0  0
 17 18  2  0  0  0  0
 17 19  1  0  0  0  0
 19 20  1  0  0  0  0
 21 22  2  0  0  0  0
 21 23  1  0  0  0  0
 23 24  1  0  0  0  0
 23 25  1  0  0  0  0
 25 26  1  0  0  0  0
 25 27  1  0  0  0  0
 25 28  1  0  0  0  0
M  END
$$$$

  -OEChem-02102214123D

 28 27  0     1  0  0  0  0  0999 V2000
   -3.1605   -3.7733    1.2557 H   0  0  0  0  0  0  0  0  0  0  0  0
   -3.1622   -2.7818    0.7946 C   0  0  0  0  0  0  0  0  0  0  0  0
   -3.8080   -2.1224    1.3797 H   0  0  0  0  0  0  0  0  0  0  0  0
   -3.5603   -2.8655   -0.2196 H   0  0  0  0  0  0  0  0  0  0  0  0
   -1.7530   -2.2226    0.7524 C   0  0  0  0  0  0  0  0  0  0  0  0
   -0.8172   -2.8877    1.1672 O   0  0  0  0  0  0  0  0  0  0  0  0
   -1.5357   -0.9564    0.2513 N   0  0  0  0  0  0  0  0  0  0  0  0
   -2.3554   -0.4011    0.0102 H   0  0  0  0  0  0  0  0  0  0  0  0
   -0.2402   -0.2613    0.2497 C   0  0  1  0  0  0  0  0  0  0  0  0
    0.4073   -0.7398    0.9923 H   0  0  0  0  0  0  0  0  0  0  0  0
    0.4331   -0.4543   -1.1319 C   0  0  0  0  0  0  0  0  0  0  0  0
    1.4823   -0.7163   -0.9576 H   0  0  0  0  0  0  0  0  0  0  0  0
   -0.0229   -1.3081   -1.6457 H   0  0  0  0  0  0  0  0  0  0  0  0
    0.3969    0.7812   -2.0610 C   0  0  0  0  0  0  0  0  0  0  0  0
   -0.6440    1.0666   -2.2397 H   0  0  0  0  0  0  0  0  0  0  0  0
    0.9000    1.6263   -1.5835 H   0  0  0  0  0  0  0  0  0  0  0  0
    1.0688    0.5576   -3.4166 C   0  0  0  0  0  0  0  0  0  0  0  0
    1.6825   -0.4751   -3.6310 O   0  0  0  0  0  0  0  0  0  0  0  0
    0.9485    1.5518   -4.3256 O   0  0  0  0  0  0  0  0  0  0  0  0
    1.4251    1.2497   -5.1135 H   0  0  0  0  0  0  0  0  0  0  0  0
   -0.3972    1.2039    0.7120 C   0  0  0  0  0  0  0  0  0  0  0  0
   -1.3711    1.8575    0.3546 O   0  0  0  0  0  0  0  0  0  0  0  0
    0.4878    1.7548    1.6203 N   0  0  0  0  0  0  0  0  0  0  0  0
    1.2461    1.1678    1.9563 H   0  0  0  0  0  0  0  0  0  0  0  0
    0.3385    3.0985    2.1661 C   0  0  0  0  0  0  0  0  0  0  0  0
   -0.6213    3.1974    2.6842 H   0  0  0  0  0  0  0  0  0  0  0  0
    1.1400    3.3087    2.8809 H   0  0  0  0  0  0  0  0  0  0  0  0
    0.3846    3.8441    1.3654 H   0  0  0  0  0  0  0  0  0  0  0  0
  1  2  1  0  0  0  0
  2  3  1  0  0  0  0
  2  4  1  0  0  0  0
  2  5  1  0  0  0  0
  5  6  2  0  0  0  0
  5  7  1  0  0  0  0
  7  8  1  0  0  0  0
  7  9  1  0  0  0  0
  9 10  1  0  0  0  0
  9 11  1  0  0  0  0
  9 21  1  0  0  0  0
 11 12  1  0  0  0  0
 11 13  1  0  0  0  0
 11 14  1  0  0  0  0
 14 15  1  0  0  0  0
 14 16  1  0  0  0  0
 14 17  1  0  0  0  0
 17 18  2  0  0  0  0
 17 19  1  0  0  0  0
 19 20  1  0  0  0  0
 21 22  2  0  0  0  0
 21 23  1  0  0  0  0
 23 24  1  0  0  0  0
 23 25  1  0  0  0  0
 25 26  1  0  0  0  0
 25 27  1  0  0  0  0
 25 28  1  0  0  0  0
M  END
$$$$

  -OEChem-02102214123D

 28 27  0     1  0  0  0  0  0999 V2000
   -3.1731   -3.7745    1.1987 H   0  0  0  0  0  0  0  0  0  0  0  0
   -3.1801   -2.7646    0.7789 C   0  0  0  0  0  0  0  0  0  0  0  0
   -3.8097   -2.1271    1.4043 H   0  0  0  0  0  0  0  0  0  0  0  0
   -3.6008   -2.8047   -0.2287 H   0  0  0  0  0  0  0  0  0  0  0  0
   -1.7691   -2.2101    0.7287 C   0  0  0  0  0  0  0  0  0  0  0  0
   -0.8332   -2.8819    1.1319 O   0  0  0  0  0  0  0  0  0  0  0  0
   -1.5490   -0.9411    0.2356 N   0  0  0  0  0  0  0  0  0  0  0  0
   -2.3680   -0.3805    0.0051 H   0  0  0  0  0  0  0  0  0  0  0  0
   -0.2520   -0.2481    0.2402 C   0  0  1  0  0  0  0  0  0  0  0  0
    0.3851   -0.7319    0.9882 H   0  0  0  0  0  0  0  0  0  0  0  0
    0.4458   -0.4425   -1.1289 C   0  0  0  0  0  0  0  0  0  0  0  0
    1.4920   -0.7154   -0.9529 H   0  0  0  0  0  0  0  0  0  0  0  0
   -0.0179   -1.2922   -1.6433 H   0  0  0  0  0  0  0  0  0  0  0  0
    0.4207    0.7923   -2.0583 C   0  0  0  0  0  0  0  0  0  0  0  0
   -0.5899    1.2110   -2.0712 H   0  0  0  0  0  0  0  0  0  0  0  0
    1.1001    1.5632   -1.6849 H   0  0  0  0  0  0  0  0  0  0  0  0
    0.7851    0.4707   -3.5078 C   0  0  0  0  0  0  0  0  0  0  0  0
    1.4692   -0.5093   -3.7536 O   0  0  0  0  0  0  0  0  0  0  0  0
    0.3333    1.3193   -4.4592 O   0  0  0  0  0  0  0  0  0  0  0  0
    0.6601    0.9700   -5.3020 H   0  0  0  0  0  0  0  0  0  0  0  0
   -0.3928    1.2171    0.7095 C   0  0  0  0  0  0  0  0  0  0  0  0
   -1.3723    1.8755    0.3776 O   0  0  0  0  0  0  0  0  0  0  0  0
    0.5003    1.7528    1.6191 N   0  0  0  0  0  0  0  0  0  0  0  0
    1.2542    1.1556    1.9469 H   0  0  0  0  0  0  0  0  0  0  0  0
    0.3545    3.0853    2.1931 C   0  0  0  0  0  0  0  0  0  0  0  0
   -0.5630    3.1479    2.7877 H   0  0  0  0  0  0  0  0  0  0  0  0
    1.2051    3.3130    2.8429 H   0  0  0  0  0  0  0  0  0  0  0  0
    0.3136    3.8418    1.4021 H   0  0  0  0  0  0  0  0  0  0  0  0
  1  2  1  0  0  0  0
  2  3  1  0  0  0  0
  2  4  1  0  0  0  0
  2  5  1  0  0  0  0
  5  6  2  0  0  0  0
  5  7  1  0  0  0  0
  7  8  1  0  0  0  0
  7  9  1  0  0  0  0
  9 10  1  0  0  0  0
  9 11  1  0  0  0  0
  9 21  1  0  0  0  0
 11 12  1  0  0  0  0
 11 13  1  0  0  0  0
 11 14  1  0  0  0  0
 14 15  1  0  0  0  0
 14 16  1  0  0  0  0
 14 17  1  0  0  0  0
 17 18  2  0  0  0  0
 17 19  1  0  0  0  0
 19 20  1  0  0  0  0
 21 22  2  0  0  0  0
 21 23  1  0  0  0  0
 23 24  1  0  0  0  0
 23 25  1  0  0  0  0
 25 26  1  0  0  0  0
 25 27  1  0  0  0  0
 25 28  1  0  0  0  0
M  END
$$$$

  -OEChem-02102214123D

 28 27  0     1  0  0  0  0  0999 V2000
   -3.1842   -3.7650    1.1367 H   0  0  0  0  0  0  0  0  0  0  0  0
   -3.1923   -2.7440    0.7446 C   0  0  0  0  0  0  0  0  0  0  0  0
   -3.8174   -2.1233    1.3910 H   0  0  0  0  0  0  0  0  0  0  0  0
   -3.6193   -2.7567   -0.2612 H   0  0  0  0  0  0  0  0  0  0  0  0
   -1.7809   -2.1895    0.7006 C   0  0  0  0  0  0  0  0  0  0  0  0
   -0.8439   -2.8698    1.0872 O   0  0  0  0  0  0  0  0  0  0  0  0
   -1.5614   -0.9135    0.2246 N   0  0  0  0  0  0  0  0  0  0  0  0
   -2.3814   -0.3483    0.0085 H   0  0  0  0  0  0  0  0  0  0  0  0
   -0.2638   -0.2213    0.2347 C   0  0  1  0  0  0  0  0  0  0  0  0
    0.3644   -0.7136    0.9845 H   0  0  0  0  0  0  0  0  0  0  0  0
    0.4493   -0.4200   -1.1264 C   0  0  0  0  0  0  0  0  0  0  0  0
    1.4922   -0.6987   -0.9424 H   0  0  0  0  0  0  0  0  0  0  0  0
   -0.0142   -1.2744   -1.6329 H   0  0  0  0  0  0  0  0  0  0  0  0
    0.4421    0.8028   -2.0741 C   0  0  0  0  0  0  0  0  0  0  0  0
   -0.4775    1.3761   -1.9319 H   0  0  0  0  0  0  0  0  0  0  0  0
    1.2856    1.4624   -1.8540 H   0  0  0  0  0  0  0  0  0  0  0  0
    0.4671    0.4074   -3.5497 C   0  0  0  0  0  0  0  0  0  0  0  0
    1.1903   -0.5097   -3.9029 O   0  0  0  0  0  0  0  0  0  0  0  0
   -0.3132    1.1117   -4.4016 O   0  0  0  0  0  0  0  0  0  0  0  0
   -0.1624    0.7281   -5.2786 H   0  0  0  0  0  0  0  0  0  0  0  0
   -0.3900    1.2390    0.7236 C   0  0  0  0  0  0  0  0  0  0  0  0
   -1.3778    1.9016    0.4264 O   0  0  0  0  0  0  0  0  0  0  0  0
    0.5133    1.7551    1.6347 N   0  0  0  0  0  0  0  0  0  0  0  0
    1.2716    1.1517    1.9403 H   0  0  0  0  0  0  0  0  0  0  0  0
    0.3763    3.0765    2.2366 C   0  0  0  0  0  0  0  0  0  0  0  0
   -0.5232    3.1224    2.8595 H   0  0  0  0  0  0  0  0  0  0  0  0
    1.2446    3.2986    2.8645 H   0  0  0  0  0  0  0  0  0  0  0  0
    0.3070    3.8466    1.4609 H   0  0  0  0  0  0  0  0  0  0  0  0
  1  2  1  0  0  0  0
  2  3  1  0  0  0  0
  2  4  1  0  0  0  0
  2  5  1  0  0  0  0
  5  6  2  0  0  0  0
  5  7  1  0  0  0  0
  7  8  1  0  0  0  0
  7  9  1  0  0  0  0
  9 10  1  0  0  0  0
  9 11  1  0  0  0  0
  9 21  1  0  0  0  0
 11 12  1  0  0  0  0
 11 13  1  0  0  0  0
 11 14  1  0  0  0  0
 14 15  1  0  0  0  0
 14 16  1  0  0  0  0
 14 17  1  0  0  0  0
 17 18  2  0  0  0  0
 17 19  1  0  0  0  0
 19 20  1  0  0  0  0
 21 22  2  0  0  0  0
 21 23  1  0  0  0  0
 23 24  1  0  0  0  0
 23 25  1  0  0  0  0
 25 26  1  0  0  0  0
 25 27  1  0  0  0  0
 25 28  1  0  0  0  0
M  END
$$$$

  -OEChem-02102214123D

 28 27  0     1  0  0  0  0  0999 V2000
   -3.2579   -3.6962    0.9643 H   0  0  0  0  0  0  0  0  0  0  0  0
   -3.2453   -2.6589    0.6182 C   0  0  0  0  0  0  0  0  0  0  0  0
   -3.8746   -2.0589    1.2799 H   0  0  0  0  0  0  0  0  0  0  0  0
   -3.6529   -2.6209   -0.3950 H   0  0  0  0  0  0  0  0  0  0  0  0
   -1.8266   -2.1221    0.6255 C   0  0  0  0  0  0  0  0  0  0  0  0
   -0.9074   -2.8258    1.0134 O   0  0  0  0  0  0  0  0  0  0  0  0
   -1.5782   -0.8381    0.1884 N   0  0  0  0  0  0  0  0  0  0  0  0
   -2.3819   -0.2630   -0.0604 H   0  0  0  0  0  0  0  0  0  0  0  0
   -0.2690   -0.1701    0.2244 C   0  0  1  0  0  0  0  0  0  0  0  0
    0.3406   -0.6931    0.9686 H   0  0  0  0  0  0  0  0  0  0  0  0
    0.4501   -0.3696   -1.1341 C   0  0  0  0  0  0  0  0  0  0  0  0
    1.4866   -0.6594   -0.9323 H   0  0  0  0  0  0  0  0  0  0  0  0
   -0.0092   -1.2237   -1.6449 H   0  0  0  0  0  0  0  0  0  0  0  0
    0.4873    0.8494   -2.0871 C   0  0  0  0  0  0  0  0  0  0  0  0
   -0.2538    1.5999   -1.8077 H   0  0  0  0  0  0  0  0  0  0  0  0
    1.4715    1.3260   -2.0506 H   0  0  0  0  0  0  0  0  0  0  0  0
    0.1493    0.4447   -3.5177 C   0  0  0  0  0  0  0  0  0  0  0  0
    1.0468    0.4374   -4.3425 O   0  0  0  0  0  0  0  0  0  0  0  0
   -1.1307    0.1064   -3.8005 O   0  0  0  0  0  0  0  0  0  0  0  0
   -1.1438   -0.1080   -4.7455 H   0  0  0  0  0  0  0  0  0  0  0  0
   -0.3626    1.2787    0.7529 C   0  0  0  0  0  0  0  0  0  0  0  0
   -1.3317    1.9745    0.4708 O   0  0  0  0  0  0  0  0  0  0  0  0
    0.5502    1.7469    1.6806 N   0  0  0  0  0  0  0  0  0  0  0  0
    1.2948    1.1185    1.9691 H   0  0  0  0  0  0  0  0  0  0  0  0
    0.4479    3.0574    2.3119 C   0  0  0  0  0  0  0  0  0  0  0  0
   -0.4880    3.1397    2.8746 H   0  0  0  0  0  0  0  0  0  0  0  0
    1.2817    3.2113    3.0036 H   0  0  0  0  0  0  0  0  0  0  0  0
    0.4754    3.8500    1.5566 H   0  0  0  0  0  0  0  0  0  0  0  0
  1  2  1  0  0  0  0
  2  3  1  0  0  0  0
  2  4  1  0  0  0  0
  2  5  1  0  0  0  0
  5  6  2  0  0  0  0
  5  7  1  0  0  0  0
  7  8  1  0  0  0  0
  7  9  1  0  0  0  0
  9 10  1  0  0  0  0
  9 11  1  0  0  0  0
  9 21  1  0  0  0  0
 11 12  1  0  0  0  0
 11 13  1  0  0  0  0
 11 14  1  0  0  0  0
 14 15  1  0  0  0  0
 14 16  1  0  0  0  0
 14 17  1  0  0  0  0
 17 18  2  0  0  0  0
 17 19  1  0  0  0  0
 19 20  1  0  0  0  0
 21 22  2  0  0  0  0
 21 23  1  0  0  0  0
 23 24  1  0  0  0  0
 23 25  1  0  0  0  0
 25 26  1  0  0  0  0
 25 27  1  0  0  0  0
 25 28  1  0  0  0  0
M  END
$$$$

  -OEChem-02102214123D

 28 27  0     1  0  0  0  0  0999 V2000
   -3.0464   -3.8568    1.0664 H   0  0  0  0  0  0  0  0  0  0  0  0
   -3.1012   -2.8165    0.7339 C   0  0  0  0  0  0  0  0  0  0  0  0
   -3.7572   -2.2634    1.4104 H   0  0  0  0  0  0  0  0  0  0  0  0
   -3.5232   -2.7904   -0.2739 H   0  0  0  0  0  0  0  0  0  0  0  0
   -1.7178   -2.1947    0.7308 C   0  0  0  0  0  0  0  0  0  0  0  0
   -0.7531   -2.8421    1.1072 O   0  0  0  0  0  0  0  0  0  0  0  0
   -1.5531   -0.8979    0.2935 N   0  0  0  0  0  0  0  0  0  0  0  0
   -2.3882   -0.3849    0.0142 H   0  0  0  0  0  0  0  0  0  0  0  0
   -0.2785   -0.1681    0.2545 C   0  0  1  0  0  0  0  0  0  0  0  0
    0.4060   -0.6662    0.9488 H   0  0  0  0  0  0  0  0  0  0  0  0
    0.3389   -0.3356   -1.1585 C   0  0  0  0  0  0  0  0  0  0  0  0
    1.4025   -0.5535   -1.0156 H   0  0  0  0  0  0  0  0  0  0  0  0
   -0.0827   -1.2288   -1.6339 H   0  0  0  0  0  0  0  0  0  0  0  0
    0.2588    0.8774   -2.1238 C   0  0  0  0  0  0  0  0  0  0  0  0
   -0.2195    1.7482   -1.6757 H   0  0  0  0  0  0  0  0  0  0  0  0
    1.2738    1.1785   -2.3980 H   0  0  0  0  0  0  0  0  0  0  0  0
   -0.5109    0.5486   -3.4013 C   0  0  0  0  0  0  0  0  0  0  0  0
   -1.6201    0.0474   -3.3120 O   0  0  0  0  0  0  0  0  0  0  0  0
    0.0892    0.8262   -4.5816 O   0  0  0  0  0  0  0  0  0  0  0  0
   -0.5418    0.5582   -5.2669 H   0  0  0  0  0  0  0  0  0  0  0  0
   -0.4109    1.2698    0.8034 C   0  0  0  0  0  0  0  0  0  0  0  0
   -1.4174    1.9300    0.5720 O   0  0  0  0  0  0  0  0  0  0  0  0
    0.5344    1.7740    1.6781 N   0  0  0  0  0  0  0  0  0  0  0  0
    1.3019    1.1634    1.9430 H   0  0  0  0  0  0  0  0  0  0  0  0
    0.3969    3.0630    2.3458 C   0  0  0  0  0  0  0  0  0  0  0  0
   -0.4656    3.0542    3.0204 H   0  0  0  0  0  0  0  0  0  0  0  0
    1.2941    3.2834    2.9321 H   0  0  0  0  0  0  0  0  0  0  0  0
    0.2610    3.8635    1.6109 H   0  0  0  0  0  0  0  0  0  0  0  0
  1  2  1  0  0  0  0
  2  3  1  0  0  0  0
  2  4  1  0  0  0  0
  2  5  1  0  0  0  0
  5  6  2  0  0  0  0
  5  7  1  0  0  0  0
  7  8  1  0  0  0  0
  7  9  1  0  0  0  0
  9 10  1  0  0  0  0
  9 11  1  0  0  0  0
  9 21  1  0  0  0  0
 11 12  1  0  0  0  0
 11 13  1  0  0  0  0
 11 14  1  0  0  0  0
 14 15  1  0  0  0  0
 14 16  1  0  0  0  0
 14 17  1  0  0  0  0
 17 18  2  0  0  0  0
 17 19  1  0  0  0  0
 19 20  1  0  0  0  0
 21 22  2  0  0  0  0
 21 23  1  0  0  0  0
 23 24  1  0  0  0  0
 23 25  1  0  0  0  0
 25 26  1  0  0  0  0
 25 27  1  0  0  0  0
 25 28  1  0  0  0  0
M  END
$$$$

  -OEChem-02102214123D

 28 27  0     1  0  0  0  0  0999 V2000
   -3.0950   -3.8298    1.1054 H   0  0  0  0  0  0  0  0  0  0  0  0
   -3.1190   -2.8105    0.7100 C   0  0  0  0  0  0  0  0  0  0  0  0
   -3.8179   -2.2175    1.3047 H   0  0  0  0  0  0  0  0  0  0  0  0
   -3.4673   -2.8416   -0.3253 H   0  0  0  0  0  0  0  0  0  0  0  0
   -1.7355   -2.1921    0.7700 C   0  0  0  0  0  0  0  0  0  0  0  0
   -0.7952   -2.8327    1.2144 O   0  0  0  0  0  0  0  0  0  0  0  0
   -1.5429   -0.9062    0.3134 N   0  0  0  0  0  0  0  0  0  0  0  0
   -2.3520   -0.4123   -0.0619 H   0  0  0  0  0  0  0  0  0  0  0  0
   -0.2577   -0.1957    0.2860 C   0  0  1  0  0  0  0  0  0  0  0  0
    0.4190   -0.6930    0.9887 H   0  0  0  0  0  0  0  0  0  0  0  0
    0.3475   -0.3830   -1.1303 C   0  0  0  0  0  0  0  0  0  0  0  0
    1.4100   -0.5981   -0.9772 H   0  0  0  0  0  0  0  0  0  0  0  0
   -0.0676   -1.2789   -1.6063 H   0  0  0  0  0  0  0  0  0  0  0  0
    0.2852    0.8278   -2.0989 C   0  0  0  0  0  0  0  0  0  0  0  0
    0.1381    1.7827   -1.5944 H   0  0  0  0  0  0  0  0  0  0  0  0
    1.2499    0.8964   -2.6096 H   0  0  0  0  0  0  0  0  0  0  0  0
   -0.7813    0.6706   -3.1836 C   0  0  0  0  0  0  0  0  0  0  0  0
   -1.8204    0.0817   -2.9282 O   0  0  0  0  0  0  0  0  0  0  0  0
   -0.5097    1.2083   -4.3950 O   0  0  0  0  0  0  0  0  0  0  0  0
   -1.2906    1.0328   -4.9417 H   0  0  0  0  0  0  0  0  0  0  0  0
   -0.3920    1.2518    0.8090 C   0  0  0  0  0  0  0  0  0  0  0  0
   -1.3654    1.9333    0.5077 O   0  0  0  0  0  0  0  0  0  0  0  0
    0.5366    1.7647    1.6964 N   0  0  0  0  0  0  0  0  0  0  0  0
    1.2778    1.1451    2.0106 H   0  0  0  0  0  0  0  0  0  0  0  0
    0.4126    3.0828    2.3081 C   0  0  0  0  0  0  0  0  0  0  0  0
   -0.4923    3.1367    2.9225 H   0  0  0  0  0  0  0  0  0  0  0  0
    1.2776    3.2872    2.9464 H   0  0  0  0  0  0  0  0  0  0  0  0
    0.3618    3.8597    1.5378 H   0  0  0  0  0  0  0  0  0  0  0  0
  1  2  1  0  0  0  0
  2  3  1  0  0  0  0
  2  4  1  0  0  0  0
  2  5  1  0  0  0  0
  5  6  2  0  0  0  0
  5  7  1  0  0  0  0
  7  8  1  0  0  0  0
  7  9  1  0  0  0  0
  9 10  1  0  0  0  0
  9 11  1  0  0  0  0
  9 21  1  0  0  0  0
 11 12  1  0  0  0  0
 11 13  1  0  0  0  0
 11 14  1  0  0  0  0
 14 15  1  0  0  0  0
 14 16  1  0  0  0  0
 14 17  1  0  0  0  0
 17 18  2  0  0  0  0
 17 19  1  0  0  0  0
 19 20  1  0  0  0  0
 21 22  2  0  0  0  0
 21 23  1  0  0  0  0
 23 24  1  0  0  0  0
 23 25  1  0  0  0  0
 25 26  1  0  0  0  0
 25 27  1  0  0  0  0
 25 28  1  0  0  0  0
M  END
$$$$

  -OEChem-02102214123D

 28 27  0     1  0  0  0  0  0999 V2000
   -3.1251   -3.8257    1.1236 H   0  0  0  0  0  0  0  0  0  0  0  0
   -3.1309   -2.8182    0.6987 C   0  0  0  0  0  0  0  0  0  0  0  0
   -3.8632   -2.2117    1.2371 H   0  0  0  0  0  0  0  0  0  0  0  0
   -3.4223   -2.8795   -0.3527 H   0  0  0  0  0  0  0  0  0  0  0  0
   -1.7546   -2.1921    0.8168 C   0  0  0  0  0  0  0  0  0  0  0  0
   -0.8382   -2.8152    1.3306 O   0  0  0  0  0  0  0  0  0  0  0  0
   -1.5412   -0.9202    0.3314 N   0  0  0  0  0  0  0  0  0  0  0  0
   -2.3205   -0.4587   -0.1379 H   0  0  0  0  0  0  0  0  0  0  0  0
   -0.2488   -0.2231    0.3092 C   0  0  1  0  0  0  0  0  0  0  0  0
    0.4205   -0.7126    1.0243 H   0  0  0  0  0  0  0  0  0  0  0  0
    0.3562   -0.4331   -1.1039 C   0  0  0  0  0  0  0  0  0  0  0  0
    1.4167   -0.6575   -0.9505 H   0  0  0  0  0  0  0  0  0  0  0  0
   -0.0716   -1.3226   -1.5809 H   0  0  0  0  0  0  0  0  0  0  0  0
    0.3012    0.7778   -2.0686 C   0  0  0  0  0  0  0  0  0  0  0  0
    0.4427    1.7317   -1.5576 H   0  0  0  0  0  0  0  0  0  0  0  0
    1.1353    0.6792   -2.7687 H   0  0  0  0  0  0  0  0  0  0  0  0
   -0.9713    0.8333   -2.9185 C   0  0  0  0  0  0  0  0  0  0  0  0
   -1.9368    0.1420   -2.6284 O   0  0  0  0  0  0  0  0  0  0  0  0
   -0.9498    1.6698   -3.9815 O   0  0  0  0  0  0  0  0  0  0  0  0
   -1.8285    1.6057   -4.3849 H   0  0  0  0  0  0  0  0  0  0  0  0
   -0.3802    1.2384    0.7936 C   0  0  0  0  0  0  0  0  0  0  0  0
   -1.3202    1.9347    0.4275 O   0  0  0  0  0  0  0  0  0  0  0  0
    0.5366    1.7651    1.6850 N   0  0  0  0  0  0  0  0  0  0  0  0
    1.2568    1.1431    2.0406 H   0  0  0  0  0  0  0  0  0  0  0  0
    0.4275    3.1091    2.2402 C   0  0  0  0  0  0  0  0  0  0  0  0
   -0.5047    3.2165    2.8050 H   0  0  0  0  0  0  0  0  0  0  0  0
    1.2657    3.3103    2.9143 H   0  0  0  0  0  0  0  0  0  0  0  0
    0.4419    3.8563    1.4397 H   0  0  0  0  0  0  0  0  0  0  0  0
  1  2  1  0  0  0  0
  2  3  1  0  0  0  0
  2  4  1  0  0  0  0
  2  5  1  0  0  0  0
  5  6  2  0  0  0  0
  5  7  1  0  0  0  0
  7  8  1  0  0  0  0
  7  9  1  0  0  0  0
  9 10  1  0  0  0  0
  9 11  1  0  0  0  0
  9 21  1  0  0  0  0
 11 12  1  0  0  0  0
 11 13  1  0  0  0  0
 11 14  1  0  0  0  0
 14 15  1  0  0  0  0
 14 16  1  0  0  0  0
 14 17  1  0  0  0  0
 17 18  2  0  0  0  0
 17 19  1  0  0  0  0
 19 20  1  0  0  0  0
 21 22  2  0  0  0  0
 21 23  1  0  0  0  0
 23 24  1  0  0  0  0
 23 25  1  0  0  0  0
 25 26  1  0  0  0  0
 25 27  1  0  0  0  0
 25 28  1  0  0  0  0
M  END
$$$$

  -OEChem-02102214123D

 28 27  0     1  0  0  0  0  0999 V2000
   -3.1370   -3.8269    1.1528 H   0  0  0  0  0  0  0  0  0  0  0  0
   -3.1381   -2.8270    0.7103 C   0  0  0  0  0  0  0  0  0  0  0  0
   -3.8835   -2.2144    1.2229 H   0  0  0  0  0  0  0  0  0  0  0  0
   -3.4080   -2.9084   -0.3455 H   0  0  0  0  0  0  0  0  0  0  0  0
   -1.7673   -2.1925    0.8447 C   0  0  0  0  0  0  0  0  0  0  0  0
   -0.8580   -2.8027    1.3860 O   0  0  0  0  0  0  0  0  0  0  0  0
   -1.5504   -0.9293    0.3389 N   0  0  0  0  0  0  0  0  0  0  0  0
   -2.3201   -0.4864   -0.1637 H   0  0  0  0  0  0  0  0  0  0  0  0
   -0.2580   -0.2326    0.3134 C   0  0  1  0  0  0  0  0  0  0  0  0
    0.4038   -0.7115    1.0423 H   0  0  0  0  0  0  0  0  0  0  0  0
    0.3656   -0.4624   -1.0884 C   0  0  0  0  0  0  0  0  0  0  0  0
    1.4230   -0.6969   -0.9305 H   0  0  0  0  0  0  0  0  0  0  0  0
   -0.0755   -1.3466   -1.5630 H   0  0  0  0  0  0  0  0  0  0  0  0
    0.3137    0.7391   -2.0615 C   0  0  0  0  0  0  0  0  0  0  0  0
    0.6755    1.6516   -1.5808 H   0  0  0  0  0  0  0  0  0  0  0  0
    0.9900    0.5331   -2.8952 H   0  0  0  0  0  0  0  0  0  0  0  0
   -1.0709    1.0018   -2.6645 C   0  0  0  0  0  0  0  0  0  0  0  0
   -1.9863    0.2124   -2.4789 O   0  0  0  0  0  0  0  0  0  0  0  0
   -1.1958    2.1211   -3.4137 O   0  0  0  0  0  0  0  0  0  0  0  0
   -2.1272    2.1581   -3.6778 H   0  0  0  0  0  0  0  0  0  0  0  0
   -0.3798    1.2390    0.7698 C   0  0  0  0  0  0  0  0  0  0  0  0
   -1.3093    1.9390    0.3851 O   0  0  0  0  0  0  0  0  0  0  0  0
    0.5384    1.7729    1.6556 N   0  0  0  0  0  0  0  0  0  0  0  0
    1.2472    1.1490    2.0304 H   0  0  0  0  0  0  0  0  0  0  0  0
    0.4394    3.1273    2.1866 C   0  0  0  0  0  0  0  0  0  0  0  0
   -0.5133    3.2662    2.7088 H   0  0  0  0  0  0  0  0  0  0  0  0
    1.2519    3.3177    2.8943 H   0  0  0  0  0  0  0  0  0  0  0  0
    0.5073    3.8617    1.3771 H   0  0  0  0  0  0  0  0  0  0  0  0
  1  2  1  0  0  0  0
  2  3  1  0  0  0  0
  2  4  1  0  0  0  0
  2  5  1  0  0  0  0
  5  6  2  0  0  0  0
  5  7  1  0  0  0  0
  7  8  1  0  0  0  0
  7  9  1  0  0  0  0
  9 10  1  0  0  0  0
  9 11  1  0  0  0  0
  9 21  1  0  0  0  0
 11 12  1  0  0  0  0
 11 13  1  0  0  0  0
 11 14  1  0  0  0  0
 14 15  1  0  0  0  0
 14 16  1  0  0  0  0
 14 17  1  0  0  0  0
 17 18  2  0  0  0  0
 17 19  1  0  0  0  0
 19 20  1  0  0  0  0
 21 22  2  0  0  0  0
 21 23  1  0  0  0  0
 23 24  1  0  0  0  0
 23 25  1  0  0  0  0
 25 26  1  0  0  0  0
 25 27  1  0  0  0  0
 25 28  1  0  0  0  0
M  END
$$$$

  -OEChem-02102214123D

 28 27  0     1  0  0  0  0  0999 V2000
   -3.1287   -3.8324    1.1784 H   0  0  0  0  0  0  0  0  0  0  0  0
   -3.1454   -2.8302    0.7413 C   0  0  0  0  0  0  0  0  0  0  0  0
   -3.8812   -2.2242    1.2754 H   0  0  0  0  0  0  0  0  0  0  0  0
   -3.4403   -2.9077   -0.3080 H   0  0  0  0  0  0  0  0  0  0  0  0
   -1.7745   -2.1900    0.8468 C   0  0  0  0  0  0  0  0  0  0  0  0
   -0.8510   -2.7993    1.3644 O   0  0  0  0  0  0  0  0  0  0  0  0
   -1.5731   -0.9238    0.3414 N   0  0  0  0  0  0  0  0  0  0  0  0
   -2.3561   -0.4795   -0.1388 H   0  0  0  0  0  0  0  0  0  0  0  0
   -0.2879   -0.2139    0.3044 C   0  0  1  0  0  0  0  0  0  0  0  0
    0.3665   -0.6853    1.0447 H   0  0  0  0  0  0  0  0  0  0  0  0
    0.3715   -0.4594   -1.0785 C   0  0  0  0  0  0  0  0  0  0  0  0
    1.4261   -0.6960   -0.9041 H   0  0  0  0  0  0  0  0  0  0  0  0
   -0.0722   -1.3469   -1.5440 H   0  0  0  0  0  0  0  0  0  0  0  0
    0.3261    0.7133   -2.0843 C   0  0  0  0  0  0  0  0  0  0  0  0
    0.8692    1.5687   -1.6729 H   0  0  0  0  0  0  0  0  0  0  0  0
    0.8392    0.4147   -3.0021 H   0  0  0  0  0  0  0  0  0  0  0  0
   -1.0840    1.1755   -2.4643 C   0  0  0  0  0  0  0  0  0  0  0  0
   -2.0219    0.3956   -2.3791 O   0  0  0  0  0  0  0  0  0  0  0  0
   -1.2068    2.4450   -2.9146 O   0  0  0  0  0  0  0  0  0  0  0  0
   -2.1568    2.5892   -3.0384 H   0  0  0  0  0  0  0  0  0  0  0  0
   -0.3923    1.2604    0.7603 C   0  0  0  0  0  0  0  0  0  0  0  0
   -1.3525    1.9516    0.4424 O   0  0  0  0  0  0  0  0  0  0  0  0
    0.5451    1.7863    1.6308 N   0  0  0  0  0  0  0  0  0  0  0  0
    1.2735    1.1637    1.9680 H   0  0  0  0  0  0  0  0  0  0  0  0
    0.4466    3.1271    2.1965 C   0  0  0  0  0  0  0  0  0  0  0  0
   -0.4598    3.2210    2.8040 H   0  0  0  0  0  0  0  0  0  0  0  0
    1.3128    3.3346    2.8320 H   0  0  0  0  0  0  0  0  0  0  0  0
    0.4156    3.8784    1.4001 H   0  0  0  0  0  0  0  0  0  0  0  0
  1  2  1  0  0  0  0
  2  3  1  0  0  0  0
  2  4  1  0  0  0  0
  2  5  1  0  0  0  0
  5  6  2  0  0  0  0
  5  7  1  0  0  0  0
  7  8  1  0  0  0  0
  7  9  1  0  0  0  0
  9 10  1  0  0  0  0
  9 11  1  0  0  0  0
  9 21  1  0  0  0  0
 11 12  1  0  0  0  0
 11 13  1  0  0  0  0
 11 14  1  0  0  0  0
 14 15  1  0  0  0  0
 14 16  1  0  0  0  0
 14 17  1  0  0  0  0
 17 18  2  0  0  0  0
 17 19  1  0  0  0  0
 19 20  1  0  0  0  0
 21 22  2  0  0  0  0
 21 23  1  0  0  0  0
 23 24  1  0  0  0  0
 23 25  1  0  0  0  0
 25 26  1  0  0  0  0
 25 27  1  0  0  0  0
 25 28  1  0  0  0  0
M  END
$$$$

  -OEChem-02102214123D

 28 27  0     1  0  0  0  0  0999 V2000
   -3.1029   -3.8291    1.2327 H   0  0  0  0  0  0  0  0  0  0  0  0
   -3.1409   -2.8240    0.8036 C   0  0  0  0  0  0  0  0  0  0  0  0
   -3.8408   -2.2186    1.3844 H   0  0  0  0  0  0  0  0  0  0  0  0
   -3.4981   -2.8929   -0.2268 H   0  0  0  0  0  0  0  0  0  0  0  0
   -1.7634   -2.1900    0.8315 C   0  0  0  0  0  0  0  0  0  0  0  0
   -0.8104   -2.8126    1.2743 O   0  0  0  0  0  0  0  0  0  0  0  0
   -1.5910   -0.9122    0.3444 N   0  0  0  0  0  0  0  0  0  0  0  0
   -2.4080   -0.4418   -0.0454 H   0  0  0  0  0  0  0  0  0  0  0  0
   -0.3175   -0.1819    0.2866 C   0  0  1  0  0  0  0  0  0  0  0  0
    0.3369   -0.6493    1.0293 H   0  0  0  0  0  0  0  0  0  0  0  0
    0.3716   -0.4385   -1.0808 C   0  0  0  0  0  0  0  0  0  0  0  0
    1.4241   -0.6714   -0.8898 H   0  0  0  0  0  0  0  0  0  0  0  0
   -0.0681   -1.3371   -1.5280 H   0  0  0  0  0  0  0  0  0  0  0  0
    0.3334    0.6903   -2.1369 C   0  0  0  0  0  0  0  0  0  0  0  0
    1.0473    1.4647   -1.8417 H   0  0  0  0  0  0  0  0  0  0  0  0
    0.6604    0.2959   -3.1027 H   0  0  0  0  0  0  0  0  0  0  0  0
   -1.0262    1.3639   -2.3232 C   0  0  0  0  0  0  0  0  0  0  0  0
   -2.0330    0.6712   -2.3246 O   0  0  0  0  0  0  0  0  0  0  0  0
   -1.0366    2.7045   -2.5009 O   0  0  0  0  0  0  0  0  0  0  0  0
   -1.9714    2.9600   -2.4978 H   0  0  0  0  0  0  0  0  0  0  0  0
   -0.4137    1.2853    0.7681 C   0  0  0  0  0  0  0  0  0  0  0  0
   -1.4213    1.9510    0.5611 O   0  0  0  0  0  0  0  0  0  0  0  0
    0.5501    1.7981    1.6177 N   0  0  0  0  0  0  0  0  0  0  0  0
    1.3161    1.1858    1.8824 H   0  0  0  0  0  0  0  0  0  0  0  0
    0.4440    3.1074    2.2515 C   0  0  0  0  0  0  0  0  0  0  0  0
   -0.4314    3.1452    2.9086 H   0  0  0  0  0  0  0  0  0  0  0  0
    1.3362    3.3111    2.8514 H   0  0  0  0  0  0  0  0  0  0  0  0
    0.3508    3.8937    1.4947 H   0  0  0  0  0  0  0  0  0  0  0  0
  1  2  1  0  0  0  0
  2  3  1  0  0  0  0
  2  4  1  0  0  0  0
  2  5  1  0  0  0  0
  5  6  2  0  0  0  0
  5  7  1  0  0  0  0
  7  8  1  0  0  0  0
  7  9  1  0  0  0  0
  9 10  1  0  0  0  0
  9 11  1  0  0  0  0
  9 21  1  0  0  0  0
 11 12  1  0  0  0  0
 11 13  1  0  0  0  0
 11 14  1  0  0  0  0
 14 15  1  0  0  0  0
 14 16  1  0  0  0  0
 14 17  1  0  0  0  0
 17 18  2  0  0  0  0
 17 19  1  0  0  0  0
 19 20  1  0  0  0  0
 21 22  2  0  0  0  0
 21 23  1  0  0  0  0
 23 24  1  0  0  0  0
 23 25  1  0  0  0  0
 25 26  1  0  0  0  0
 25 27  1  0  0  0  0
 25 28  1  0  0  0  0
M  END
$$$$

  -OEChem-02102214123D

 28 27  0     1  0  0  0  0  0999 V2000
   -3.0579   -3.8422    1.2700 H   0  0  0  0  0  0  0  0  0  0  0  0
   -3.1235   -2.8304    0.8605 C   0  0  0  0  0  0  0  0  0  0  0  0
   -3.7811   -2.2342    1.4976 H   0  0  0  0  0  0  0  0  0  0  0  0
   -3.5505   -2.8826   -0.1439 H   0  0  0  0  0  0  0  0  0  0  0  0
   -1.7460   -2.1986    0.8036 C   0  0  0  0  0  0  0  0  0  0  0  0
   -0.7637   -2.8363    1.1505 O   0  0  0  0  0  0  0  0  0  0  0  0
   -1.6061   -0.9055    0.3465 N   0  0  0  0  0  0  0  0  0  0  0  0
   -2.4536   -0.4050    0.0795 H   0  0  0  0  0  0  0  0  0  0  0  0
   -0.3450   -0.1552    0.2761 C   0  0  1  0  0  0  0  0  0  0  0  0
    0.3124   -0.6239    1.0158 H   0  0  0  0  0  0  0  0  0  0  0  0
    0.3641   -0.4124   -1.0835 C   0  0  0  0  0  0  0  0  0  0  0  0
    1.4151   -0.6386   -0.8761 H   0  0  0  0  0  0  0  0  0  0  0  0
   -0.0650   -1.3240   -1.5138 H   0  0  0  0  0  0  0  0  0  0  0  0
    0.3391    0.6746   -2.1866 C   0  0  0  0  0  0  0  0  0  0  0  0
    1.2105    1.3206   -2.0458 H   0  0  0  0  0  0  0  0  0  0  0  0
    0.4444    0.2001   -3.1661 H   0  0  0  0  0  0  0  0  0  0  0  0
   -0.8894    1.5776   -2.2129 C   0  0  0  0  0  0  0  0  0  0  0  0
   -1.9865    1.0540   -2.3257 O   0  0  0  0  0  0  0  0  0  0  0  0
   -0.6971    2.9126   -2.1083 O   0  0  0  0  0  0  0  0  0  0  0  0
   -1.5842    3.2925   -2.0093 H   0  0  0  0  0  0  0  0  0  0  0  0
   -0.4455    1.2980    0.7981 C   0  0  0  0  0  0  0  0  0  0  0  0
   -1.4864    1.9345    0.6783 O   0  0  0  0  0  0  0  0  0  0  0  0
    0.5348    1.8008    1.6346 N   0  0  0  0  0  0  0  0  0  0  0  0
    1.3390    1.2105    1.8265 H   0  0  0  0  0  0  0  0  0  0  0  0
    0.4301    3.0904    2.3073 C   0  0  0  0  0  0  0  0  0  0  0  0
   -0.4242    3.0974    2.9927 H   0  0  0  0  0  0  0  0  0  0  0  0
    1.3379    3.2912    2.8840 H   0  0  0  0  0  0  0  0  0  0  0  0
    0.3016    3.8950    1.5753 H   0  0  0  0  0  0  0  0  0  0  0  0
  1  2  1  0  0  0  0
  2  3  1  0  0  0  0
  2  4  1  0  0  0  0
  2  5  1  0  0  0  0
  5  6  2  0  0  0  0
  5  7  1  0  0  0  0
  7  8  1  0  0  0  0
  7  9  1  0  0  0  0
  9 10  1  0  0  0  0
  9 11  1  0  0  0  0
  9 21  1  0  0  0  0
 11 12  1  0  0  0  0
 11 13  1  0  0  0  0
 11 14  1  0  0  0  0
 14 15  1  0  0  0  0
 14 16  1  0  0  0  0
 14 17  1  0  0  0  0
 17 18  2  0  0  0  0
 17 19  1  0  0  0  0
 19 20  1  0  0  0  0
 21 22  2  0  0  0  0
 21 23  1  0  0  0  0
 23 24  1  0  0  0  0
 23 25  1  0  0  0  0
 25 26  1  0  0  0  0
 25 27  1  0  0  0  0
 25 28  1  0  0  0  0
M  END
$$$$

  -OEChem-02102214123D

 28 27  0     1  0  0  0  0  0999 V2000
   -2.9552   -3.8353    1.4989 H   0  0  0  0  0  0  0  0  0  0  0  0
   -3.0571   -2.8340    1.0711 C   0  0  0  0  0  0  0  0  0  0  0  0
   -3.6853   -2.2308    1.7311 H   0  0  0  0  0  0  0  0  0  0  0  0
   -3.5397   -2.9150    0.0940 H   0  0  0  0  0  0  0  0  0  0  0  0
   -1.6934   -2.1874    0.9218 C   0  0  0  0  0  0  0  0  0  0  0  0
   -0.6861   -2.8005    1.2395 O   0  0  0  0  0  0  0  0  0  0  0  0
   -1.5948   -0.9066    0.4204 N   0  0  0  0  0  0  0  0  0  0  0  0
   -2.4639   -0.4134    0.2173 H   0  0  0  0  0  0  0  0  0  0  0  0
   -0.3532   -0.1286    0.3067 C   0  0  1  0  0  0  0  0  0  0  0  0
    0.3162   -0.5503    1.0642 H   0  0  0  0  0  0  0  0  0  0  0  0
    0.3662   -0.4394   -1.0392 C   0  0  0  0  0  0  0  0  0  0  0  0
    1.4201   -0.6245   -0.8065 H   0  0  0  0  0  0  0  0  0  0  0  0
   -0.0299   -1.3916   -1.4089 H   0  0  0  0  0  0  0  0  0  0  0  0
    0.3422    0.5563   -2.2307 C   0  0  0  0  0  0  0  0  0  0  0  0
    1.3260    1.0298   -2.2953 H   0  0  0  0  0  0  0  0  0  0  0  0
    0.2007   -0.0055   -3.1587 H   0  0  0  0  0  0  0  0  0  0  0  0
   -0.6851    1.6795   -2.1957 C   0  0  0  0  0  0  0  0  0  0  0  0
   -1.8448    1.3979   -2.4474 O   0  0  0  0  0  0  0  0  0  0  0  0
   -0.2590    2.9279   -1.8945 O   0  0  0  0  0  0  0  0  0  0  0  0
   -1.0681    3.4570   -1.8071 H   0  0  0  0  0  0  0  0  0  0  0  0
   -0.4912    1.3356    0.7849 C   0  0  0  0  0  0  0  0  0  0  0  0
   -1.5579    1.9286    0.6667 O   0  0  0  0  0  0  0  0  0  0  0  0
    0.4824    1.8953    1.5924 N   0  0  0  0  0  0  0  0  0  0  0  0
    1.3234    1.3521    1.7632 H   0  0  0  0  0  0  0  0  0  0  0  0
    0.3549    3.2099    2.2101 C   0  0  0  0  0  0  0  0  0  0  0  0
   -0.5049    3.2341    2.8881 H   0  0  0  0  0  0  0  0  0  0  0  0
    1.2550    3.4469    2.7855 H   0  0  0  0  0  0  0  0  0  0  0  0
    0.2218    3.9811    1.4440 H   0  0  0  0  0  0  0  0  0  0  0  0
  1  2  1  0  0  0  0
  2  3  1  0  0  0  0
  2  4  1  0  0  0  0
  2  5  1  0  0  0  0
  5  6  2  0  0  0  0
  5  7  1  0  0  0  0
  7  8  1  0  0  0  0
  7  9  1  0  0  0  0
  9 10  1  0  0  0  0
  9 11  1  0  0  0  0
  9 21  1  0  0  0  0
 11 12  1  0  0  0  0
 11 13  1  0  0  0  0
 11 14  1  0  0  0  0
 14 15  1  0  0  0  0
 14 16  1  0  0  0  0
 14 17  1  0  0  0  0
 17 18  2  0  0  0  0
 17 19  1  0  0  0  0
 19 20  1  0  0  0  0
 21 22  2  0  0  0  0
 21 23  1  0  0  0  0
 23 24  1  0  0  0  0
 23 25  1  0  0  0  0
 25 26  1  0  0  0  0
 25 27  1  0  0  0  0
 25 28  1  0  0  0  0
M  END
$$$$

  -OEChem-02102214123D

 28 27  0     1  0  0  0  0  0999 V2000
   -3.4066   -3.6271    1.0250 H   0  0  0  0  0  0  0  0  0  0  0  0
   -3.3528   -2.6198    0.6027 C   0  0  0  0  0  0  0  0  0  0  0  0
   -4.0196   -1.9650    1.1686 H   0  0  0  0  0  0  0  0  0  0  0  0
   -3.6842   -2.6551   -0.4380 H   0  0  0  0  0  0  0  0  0  0  0  0
   -1.9303   -2.0985    0.6739 C   0  0  0  0  0  0  0  0  0  0  0  0
   -1.0356   -2.8141    1.0962 O   0  0  0  0  0  0  0  0  0  0  0  0
   -1.6487   -0.8173    0.2483 N   0  0  0  0  0  0  0  0  0  0  0  0
   -2.4385   -0.2265   -0.0092 H   0  0  0  0  0  0  0  0  0  0  0  0
   -0.3463   -0.1484    0.3833 C   0  0  1  0  0  0  0  0  0  0  0  0
    0.1610   -0.6440    1.2180 H   0  0  0  0  0  0  0  0  0  0  0  0
    0.5417   -0.4685   -0.8591 C   0  0  0  0  0  0  0  0  0  0  0  0
    1.5264   -0.7318   -0.4589 H   0  0  0  0  0  0  0  0  0  0  0  0
    0.1569   -1.3838   -1.3222 H   0  0  0  0  0  0  0  0  0  0  0  0
    0.8132    0.5520   -2.0021 C   0  0  0  0  0  0  0  0  0  0  0  0
    1.8952    0.6830   -2.0999 H   0  0  0  0  0  0  0  0  0  0  0  0
    0.4661    0.1070   -2.9389 H   0  0  0  0  0  0  0  0  0  0  0  0
    0.1856    1.9348   -1.9152 C   0  0  0  0  0  0  0  0  0  0  0  0
    0.8554    2.8434   -1.4514 O   0  0  0  0  0  0  0  0  0  0  0  0
   -1.0866    2.0780   -2.3516 O   0  0  0  0  0  0  0  0  0  0  0  0
   -1.3593    2.9664   -2.0732 H   0  0  0  0  0  0  0  0  0  0  0  0
   -0.4937    1.3041    0.8929 C   0  0  0  0  0  0  0  0  0  0  0  0
   -1.4954    1.9522    0.6035 O   0  0  0  0  0  0  0  0  0  0  0  0
    0.3378    1.7850    1.8877 N   0  0  0  0  0  0  0  0  0  0  0  0
    1.1582    1.2333    2.1203 H   0  0  0  0  0  0  0  0  0  0  0  0
    0.2149    3.1269    2.4450 C   0  0  0  0  0  0  0  0  0  0  0  0
   -0.7724    3.2658    2.8981 H   0  0  0  0  0  0  0  0  0  0  0  0
    0.9732    3.2872    3.2174 H   0  0  0  0  0  0  0  0  0  0  0  0
    0.3527    3.8799    1.6615 H   0  0  0  0  0  0  0  0  0  0  0  0
  1  2  1  0  0  0  0
  2  3  1  0  0  0  0
  2  4  1  0  0  0  0
  2  5  1  0  0  0  0
  5  6  2  0  0  0  0
  5  7  1  0  0  0  0
  7  8  1  0  0  0  0
  7  9  1  0  0  0  0
  9 10  1  0  0  0  0
  9 11  1  0  0  0  0
  9 21  1  0  0  0  0
 11 12  1  0  0  0  0
 11 13  1  0  0  0  0
 11 14  1  0  0  0  0
 14 15  1  0  0  0  0
 14 16  1  0  0  0  0
 14 17  1  0  0  0  0
 17 18  2  0  0  0  0
 17 19  1  0  0  0  0
 19 20  1  0  0  0  0
 21 22  2  0  0  0  0
 21 23  1  0  0  0  0
 23 24  1  0  0  0  0
 23 25  1  0  0  0  0
 25 26  1  0  0  0  0
 25 27  1  0  0  0  0
 25 28  1  0  0  0  0
M  END
$$$$

  -OEChem-02102214123D

 28 27  0     1  0  0  0  0  0999 V2000
   -3.2096   -3.8122    0.7820 H   0  0  0  0  0  0  0  0  0  0  0  0
   -3.2072   -2.7712    0.4468 C   0  0  0  0  0  0  0  0  0  0  0  0
   -3.8713   -2.1921    1.0930 H   0  0  0  0  0  0  0  0  0  0  0  0
   -3.5807   -2.7298   -0.5792 H   0  0  0  0  0  0  0  0  0  0  0  0
   -1.8012   -2.2057    0.5076 C   0  0  0  0  0  0  0  0  0  0  0  0
   -0.8677   -2.9189    0.8405 O   0  0  0  0  0  0  0  0  0  0  0  0
   -1.5790   -0.8857    0.1760 N   0  0  0  0  0  0  0  0  0  0  0  0
   -2.3985   -0.3039    0.0039 H   0  0  0  0  0  0  0  0  0  0  0  0
   -0.2994   -0.1798    0.3389 C   0  0  1  0  0  0  0  0  0  0  0  0
    0.2572   -0.7179    1.1139 H   0  0  0  0  0  0  0  0  0  0  0  0
    0.5442   -0.3533   -0.9621 C   0  0  0  0  0  0  0  0  0  0  0  0
    1.5543   -0.5874   -0.6099 H   0  0  0  0  0  0  0  0  0  0  0  0
    0.1980   -1.2507   -1.4862 H   0  0  0  0  0  0  0  0  0  0  0  0
    0.7407    0.7699   -2.0214 C   0  0  0  0  0  0  0  0  0  0  0  0
    1.7781    0.7486   -2.3681 H   0  0  0  0  0  0  0  0  0  0  0  0
    0.1180    0.5120   -2.8832 H   0  0  0  0  0  0  0  0  0  0  0  0
    0.3949    2.2086   -1.6646 C   0  0  0  0  0  0  0  0  0  0  0  0
    1.1879    2.8365   -0.9813 O   0  0  0  0  0  0  0  0  0  0  0  0
   -0.7692    2.7157   -2.1311 O   0  0  0  0  0  0  0  0  0  0  0  0
   -0.8772    3.5763   -1.6984 H   0  0  0  0  0  0  0  0  0  0  0  0
   -0.5124    1.2175    0.9619 C   0  0  0  0  0  0  0  0  0  0  0  0
   -1.5309    1.8514    0.7030 O   0  0  0  0  0  0  0  0  0  0  0  0
    0.3083    1.6621    1.9819 N   0  0  0  0  0  0  0  0  0  0  0  0
    1.1642    1.1418    2.1503 H   0  0  0  0  0  0  0  0  0  0  0  0
    0.1477    2.9639    2.6179 C   0  0  0  0  0  0  0  0  0  0  0  0
   -0.8491    3.0550    3.0622 H   0  0  0  0  0  0  0  0  0  0  0  0
    0.8904    3.0907    3.4114 H   0  0  0  0  0  0  0  0  0  0  0  0
    0.2821    3.7663    1.8847 H   0  0  0  0  0  0  0  0  0  0  0  0
  1  2  1  0  0  0  0
  2  3  1  0  0  0  0
  2  4  1  0  0  0  0
  2  5  1  0  0  0  0
  5  6  2  0  0  0  0
  5  7  1  0  0  0  0
  7  8  1  0  0  0  0
  7  9  1  0  0  0  0
  9 10  1  0  0  0  0
  9 11  1  0  0  0  0
  9 21  1  0  0  0  0
 11 12  1  0  0  0  0
 11 13  1  0  0  0  0
 11 14  1  0  0  0  0
 14 15  1  0  0  0  0
 14 16  1  0  0  0  0
 14 17  1  0  0  0  0
 17 18  2  0  0  0  0
 17 19  1  0  0  0  0
 19 20  1  0  0  0  0
 21 22  2  0  0  0  0
 21 23  1  0  0  0  0
 23 24  1  0  0  0  0
 23 25  1  0  0  0  0
 25 26  1  0  0  0  0
 25 27  1  0  0  0  0
 25 28  1  0  0  0  0
M  END
$$$$

  -OEChem-02102214123D

 28 27  0     1  0  0  0  0  0999 V2000
   -3.0804   -3.8669    0.9718 H   0  0  0  0  0  0  0  0  0  0  0  0
   -3.1125   -2.8240    0.6444 C   0  0  0  0  0  0  0  0  0  0  0  0
   -3.7218   -2.2524    1.3488 H   0  0  0  0  0  0  0  0  0  0  0  0
   -3.5732   -2.7790   -0.3453 H   0  0  0  0  0  0  0  0  0  0  0  0
   -1.7095   -2.2502    0.5881 C   0  0  0  0  0  0  0  0  0  0  0  0
   -0.7480   -2.9537    0.8550 O   0  0  0  0  0  0  0  0  0  0  0  0
   -1.5239   -0.9306    0.2338 N   0  0  0  0  0  0  0  0  0  0  0  0
   -2.3591   -0.3556    0.1249 H   0  0  0  0  0  0  0  0  0  0  0  0
   -0.2423   -0.2129    0.3069 C   0  0  1  0  0  0  0  0  0  0  0  0
    0.3931   -0.7413    1.0259 H   0  0  0  0  0  0  0  0  0  0  0  0
    0.4669   -0.3487   -1.0760 C   0  0  0  0  0  0  0  0  0  0  0  0
    1.5098   -0.5798   -0.8343 H   0  0  0  0  0  0  0  0  0  0  0  0
    0.0759   -1.2330   -1.5912 H   0  0  0  0  0  0  0  0  0  0  0  0
    0.5423    0.8104   -2.1088 C   0  0  0  0  0  0  0  0  0  0  0  0
    1.4159    0.6569   -2.7485 H   0  0  0  0  0  0  0  0  0  0  0  0
   -0.3397    0.7225   -2.7498 H   0  0  0  0  0  0  0  0  0  0  0  0
    0.5687    2.2519   -1.6158 C   0  0  0  0  0  0  0  0  0  0  0  0
    1.4959    2.5953   -0.8997 O   0  0  0  0  0  0  0  0  0  0  0  0
   -0.4173    3.0834   -2.0234 O   0  0  0  0  0  0  0  0  0  0  0  0
   -0.2790    3.9176   -1.5508 H   0  0  0  0  0  0  0  0  0  0  0  0
   -0.4592    1.1798    0.9376 C   0  0  0  0  0  0  0  0  0  0  0  0
   -1.4906    1.8011    0.7016 O   0  0  0  0  0  0  0  0  0  0  0  0
    0.4031    1.6549    1.9082 N   0  0  0  0  0  0  0  0  0  0  0  0
    1.2846    1.1632    2.0245 H   0  0  0  0  0  0  0  0  0  0  0  0
    0.2448    2.9591    2.5394 C   0  0  0  0  0  0  0  0  0  0  0  0
   -0.7283    3.0295    3.0369 H   0  0  0  0  0  0  0  0  0  0  0  0
    1.0262    3.1131    3.2898 H   0  0  0  0  0  0  0  0  0  0  0  0
    0.3182    3.7568    1.7928 H   0  0  0  0  0  0  0  0  0  0  0  0
  1  2  1  0  0  0  0
  2  3  1  0  0  0  0
  2  4  1  0  0  0  0
  2  5  1  0  0  0  0
  5  6  2  0  0  0  0
  5  7  1  0  0  0  0
  7  8  1  0  0  0  0
  7  9  1  0  0  0  0
  9 10  1  0  0  0  0
  9 11  1  0  0  0  0
  9 21  1  0  0  0  0
 11 12  1  0  0  0  0
 11 13  1  0  0  0  0
 11 14  1  0  0  0  0
 14 15  1  0  0  0  0
 14 16  1  0  0  0  0
 14 17  1  0  0  0  0
 17 18  2  0  0  0  0
 17 19  1  0  0  0  0
 19 20  1  0  0  0  0
 21 22  2  0  0  0  0
 21 23  1  0  0  0  0
 23 24  1  0  0  0  0
 23 25  1  0  0  0  0
 25 26  1  0  0  0  0
 25 27  1  0  0  0  0
 25 28  1  0  0  0  0
M  END
$$$$

  -OEChem-02102214123D

 28 27  0     1  0  0  0  0  0999 V2000
   -3.1919   -3.7644    1.1646 H   0  0  0  0  0  0  0  0  0  0  0  0
   -3.1856   -2.7490    0.7586 C   0  0  0  0  0  0  0  0  0  0  0  0
   -3.7956   -2.1090    1.4009 H   0  0  0  0  0  0  0  0  0  0  0  0
   -3.6198   -2.7675   -0.2439 H   0  0  0  0  0  0  0  0  0  0  0  0
   -1.7659   -2.2188    0.6974 C   0  0  0  0  0  0  0  0  0  0  0  0
   -0.8310   -2.9305    1.0285 O   0  0  0  0  0  0  0  0  0  0  0  0
   -1.5351   -0.9291    0.2679 N   0  0  0  0  0  0  0  0  0  0  0  0
   -2.3499   -0.3386    0.1034 H   0  0  0  0  0  0  0  0  0  0  0  0
   -0.2326   -0.2477    0.3200 C   0  0  1  0  0  0  0  0  0  0  0  0
    0.3960   -0.7544    1.0603 H   0  0  0  0  0  0  0  0  0  0  0  0
    0.4543   -0.4399   -1.0658 C   0  0  0  0  0  0  0  0  0  0  0  0
    1.4922   -0.7116   -0.8461 H   0  0  0  0  0  0  0  0  0  0  0  0
    0.0134   -1.3086   -1.5668 H   0  0  0  0  0  0  0  0  0  0  0  0
    0.5322    0.7181   -2.0954 C   0  0  0  0  0  0  0  0  0  0  0  0
    1.2151    0.4316   -2.8996 H   0  0  0  0  0  0  0  0  0  0  0  0
   -0.4622    0.8260   -2.5381 H   0  0  0  0  0  0  0  0  0  0  0  0
    0.9458    2.1002   -1.5982 C   0  0  0  0  0  0  0  0  0  0  0  0
    1.8983    2.1807   -0.8381 O   0  0  0  0  0  0  0  0  0  0  0  0
    0.2633    3.1716   -2.0630 O   0  0  0  0  0  0  0  0  0  0  0  0
    0.6373    3.9449   -1.6162 H   0  0  0  0  0  0  0  0  0  0  0  0
   -0.4374    1.1826    0.8648 C   0  0  0  0  0  0  0  0  0  0  0  0
   -1.4335    1.8202    0.5390 O   0  0  0  0  0  0  0  0  0  0  0  0
    0.4107    1.7005    1.8256 N   0  0  0  0  0  0  0  0  0  0  0  0
    1.2813    1.2015    1.9866 H   0  0  0  0  0  0  0  0  0  0  0  0
    0.2738    3.0499    2.3587 C   0  0  0  0  0  0  0  0  0  0  0  0
   -0.7157    3.1875    2.8076 H   0  0  0  0  0  0  0  0  0  0  0  0
    1.0289    3.2298    3.1299 H   0  0  0  0  0  0  0  0  0  0  0  0
    0.4062    3.7902    1.5631 H   0  0  0  0  0  0  0  0  0  0  0  0
  1  2  1  0  0  0  0
  2  3  1  0  0  0  0
  2  4  1  0  0  0  0
  2  5  1  0  0  0  0
  5  6  2  0  0  0  0
  5  7  1  0  0  0  0
  7  8  1  0  0  0  0
  7  9  1  0  0  0  0
  9 10  1  0  0  0  0
  9 11  1  0  0  0  0
  9 21  1  0  0  0  0
 11 12  1  0  0  0  0
 11 13  1  0  0  0  0
 11 14  1  0  0  0  0
 14 15  1  0  0  0  0
 14 16  1  0  0  0  0
 14 17  1  0  0  0  0
 17 18  2  0  0  0  0
 17 19  1  0  0  0  0
 19 20  1  0  0  0  0
 21 22  2  0  0  0  0
 21 23  1  0  0  0  0
 23 24  1  0  0  0  0
 23 25  1  0  0  0  0
 25 26  1  0  0  0  0
 25 27  1  0  0  0  0
 25 28  1  0  0  0  0
M  END
$$$$

  -OEChem-02102214123D

 28 27  0     1  0  0  0  0  0999 V2000
   -3.2144   -3.7481    1.2162 H   0  0  0  0  0  0  0  0  0  0  0  0
   -3.1964   -2.7504    0.7689 C   0  0  0  0  0  0  0  0  0  0  0  0
   -3.8241   -2.0854    1.3670 H   0  0  0  0  0  0  0  0  0  0  0  0
   -3.6021   -2.8103   -0.2439 H   0  0  0  0  0  0  0  0  0  0  0  0
   -1.7751   -2.2224    0.7258 C   0  0  0  0  0  0  0  0  0  0  0  0
   -0.8491   -2.9253    1.0982 O   0  0  0  0  0  0  0  0  0  0  0  0
   -1.5320   -0.9483    0.2580 N   0  0  0  0  0  0  0  0  0  0  0  0
   -2.3415   -0.3605    0.0609 H   0  0  0  0  0  0  0  0  0  0  0  0
   -0.2267   -0.2719    0.3085 C   0  0  1  0  0  0  0  0  0  0  0  0
    0.3990   -0.7622    1.0622 H   0  0  0  0  0  0  0  0  0  0  0  0
    0.4664   -0.4712   -1.0699 C   0  0  0  0  0  0  0  0  0  0  0  0
    1.5004   -0.7714   -0.8691 H   0  0  0  0  0  0  0  0  0  0  0  0
   -0.0013   -1.3175   -1.5848 H   0  0  0  0  0  0  0  0  0  0  0  0
    0.5204    0.7208   -2.0574 C   0  0  0  0  0  0  0  0  0  0  0  0
    1.0016    0.3916   -2.9822 H   0  0  0  0  0  0  0  0  0  0  0  0
   -0.5068    1.0043   -2.3060 H   0  0  0  0  0  0  0  0  0  0  0  0
    1.2471    1.9780   -1.5781 C   0  0  0  0  0  0  0  0  0  0  0  0
    2.1583    1.8650   -0.7723 O   0  0  0  0  0  0  0  0  0  0  0  0
    0.8641    3.1600   -2.1115 O   0  0  0  0  0  0  0  0  0  0  0  0
    1.4162    3.8364   -1.6929 H   0  0  0  0  0  0  0  0  0  0  0  0
   -0.4321    1.1769    0.8034 C   0  0  0  0  0  0  0  0  0  0  0  0
   -1.4101    1.8140    0.4256 O   0  0  0  0  0  0  0  0  0  0  0  0
    0.4016    1.7251    1.7598 N   0  0  0  0  0  0  0  0  0  0  0  0
    1.2670    1.2277    1.9526 H   0  0  0  0  0  0  0  0  0  0  0  0
    0.2657    3.0957    2.2365 C   0  0  0  0  0  0  0  0  0  0  0  0
   -0.7312    3.2579    2.6601 H   0  0  0  0  0  0  0  0  0  0  0  0
    1.0069    3.3003    3.0149 H   0  0  0  0  0  0  0  0  0  0  0  0
    0.4192    3.8035    1.4152 H   0  0  0  0  0  0  0  0  0  0  0  0
  1  2  1  0  0  0  0
  2  3  1  0  0  0  0
  2  4  1  0  0  0  0
  2  5  1  0  0  0  0
  5  6  2  0  0  0  0
  5  7  1  0  0  0  0
  7  8  1  0  0  0  0
  7  9  1  0  0  0  0
  9 10  1  0  0  0  0
  9 11  1  0  0  0  0
  9 21  1  0  0  0  0
 11 12  1  0  0  0  0
 11 13  1  0  0  0  0
 11 14  1  0  0  0  0
 14 15  1  0  0  0  0
 14 16  1  0  0  0  0
 14 17  1  0  0  0  0
 17 18  2  0  0  0  0
 17 19  1  0  0  0  0
 19 20  1  0  0  0  0
 21 22  2  0  0  0  0
 21 23  1  0  0  0  0
 23 24  1  0  0  0  0
 23 25  1  0  0  0  0
 25 26  1  0  0  0  0
 25 27  1  0  0  0  0
 25 28  1  0  0  0  0
M  END
$$$$

  -OEChem-02102214123D

 28 27  0     1  0  0  0  0  0999 V2000
   -3.1990   -3.7686    1.2461 H   0  0  0  0  0  0  0  0  0  0  0  0
   -3.1909   -2.7740    0.7917 C   0  0  0  0  0  0  0  0  0  0  0  0
   -3.8158   -2.1082    1.3918 H   0  0  0  0  0  0  0  0  0  0  0  0
   -3.6073   -2.8433   -0.2160 H   0  0  0  0  0  0  0  0  0  0  0  0
   -1.7728   -2.2390    0.7297 C   0  0  0  0  0  0  0  0  0  0  0  0
   -0.8404   -2.9322    1.1038 O   0  0  0  0  0  0  0  0  0  0  0  0
   -1.5411   -0.9685    0.2465 N   0  0  0  0  0  0  0  0  0  0  0  0
   -2.3562   -0.3886    0.0506 H   0  0  0  0  0  0  0  0  0  0  0  0
   -0.2408   -0.2816    0.2843 C   0  0  1  0  0  0  0  0  0  0  0  0
    0.3864   -0.7631    1.0423 H   0  0  0  0  0  0  0  0  0  0  0  0
    0.4697   -0.4732   -1.0825 C   0  0  0  0  0  0  0  0  0  0  0  0
    1.5027   -0.7851   -0.8940 H   0  0  0  0  0  0  0  0  0  0  0  0
   -0.0063   -1.3065   -1.6105 H   0  0  0  0  0  0  0  0  0  0  0  0
    0.4871    0.7493   -2.0315 C   0  0  0  0  0  0  0  0  0  0  0  0
    0.7646    0.4048   -3.0312 H   0  0  0  0  0  0  0  0  0  0  0  0
   -0.5205    1.1692   -2.1036 H   0  0  0  0  0  0  0  0  0  0  0  0
    1.4635    1.8680   -1.6567 C   0  0  0  0  0  0  0  0  0  0  0  0
    2.2904    1.6846   -0.7761 O   0  0  0  0  0  0  0  0  0  0  0  0
    1.3650    3.0214   -2.3555 O   0  0  0  0  0  0  0  0  0  0  0  0
    2.0389    3.6147   -1.9920 H   0  0  0  0  0  0  0  0  0  0  0  0
   -0.4294    1.1763    0.7615 C   0  0  0  0  0  0  0  0  0  0  0  0
   -1.4137    1.8117    0.3975 O   0  0  0  0  0  0  0  0  0  0  0  0
    0.4191    1.7284    1.7025 N   0  0  0  0  0  0  0  0  0  0  0  0
    1.2890    1.2323    1.8789 H   0  0  0  0  0  0  0  0  0  0  0  0
    0.2986    3.1052    2.1657 C   0  0  0  0  0  0  0  0  0  0  0  0
   -0.6920    3.2797    2.5991 H   0  0  0  0  0  0  0  0  0  0  0  0
    1.0502    3.3122    2.9336 H   0  0  0  0  0  0  0  0  0  0  0  0
    0.4477    3.8030    1.3350 H   0  0  0  0  0  0  0  0  0  0  0  0
  1  2  1  0  0  0  0
  2  3  1  0  0  0  0
  2  4  1  0  0  0  0
  2  5  1  0  0  0  0
  5  6  2  0  0  0  0
  5  7  1  0  0  0  0
  7  8  1  0  0  0  0
  7  9  1  0  0  0  0
  9 10  1  0  0  0  0
  9 11  1  0  0  0  0
  9 21  1  0  0  0  0
 11 12  1  0  0  0  0
 11 13  1  0  0  0  0
 11 14  1  0  0  0  0
 14 15  1  0  0  0  0
 14 16  1  0  0  0  0
 14 17  1  0  0  0  0
 17 18  2  0  0  0  0
 17 19  1  0  0  0  0
 19 20  1  0  0  0  0
 21 22  2  0  0  0  0
 21 23  1  0  0  0  0
 23 24  1  0  0  0  0
 23 25  1  0  0  0  0
 25 26  1  0  0  0  0
 25 27  1  0  0  0  0
 25 28  1  0  0  0  0
M  END
$$$$

  -OEChem-02102214123D

 28 27  0     1  0  0  0  0  0999 V2000
   -3.1576   -3.8005    1.2476 H   0  0  0  0  0  0  0  0  0  0  0  0
   -3.1717   -2.7992    0.8083 C   0  0  0  0  0  0  0  0  0  0  0  0
   -3.7842   -2.1481    1.4367 H   0  0  0  0  0  0  0  0  0  0  0  0
   -3.6171   -2.8573   -0.1877 H   0  0  0  0  0  0  0  0  0  0  0  0
   -1.7607   -2.2503    0.7126 C   0  0  0  0  0  0  0  0  0  0  0  0
   -0.8117   -2.9402    1.0497 O   0  0  0  0  0  0  0  0  0  0  0  0
   -1.5552   -0.9716    0.2389 N   0  0  0  0  0  0  0  0  0  0  0  0
   -2.3817   -0.3975    0.0772 H   0  0  0  0  0  0  0  0  0  0  0  0
   -0.2642   -0.2671    0.2635 C   0  0  1  0  0  0  0  0  0  0  0  0
    0.3693   -0.7487    1.0161 H   0  0  0  0  0  0  0  0  0  0  0  0
    0.4564   -0.4423   -1.0978 C   0  0  0  0  0  0  0  0  0  0  0  0
    1.4916   -0.7502   -0.9143 H   0  0  0  0  0  0  0  0  0  0  0  0
   -0.0144   -1.2756   -1.6309 H   0  0  0  0  0  0  0  0  0  0  0  0
    0.4454    0.7918   -2.0323 C   0  0  0  0  0  0  0  0  0  0  0  0
    0.4997    0.4284   -3.0622 H   0  0  0  0  0  0  0  0  0  0  0  0
   -0.4945    1.3431   -1.9457 H   0  0  0  0  0  0  0  0  0  0  0  0
    1.6260    1.7484   -1.8453 C   0  0  0  0  0  0  0  0  0  0  0  0
    2.3102    1.6811   -0.8353 O   0  0  0  0  0  0  0  0  0  0  0  0
    1.8528    2.6376   -2.8388 O   0  0  0  0  0  0  0  0  0  0  0  0
    2.6183    3.1621   -2.5598 H   0  0  0  0  0  0  0  0  0  0  0  0
   -0.4409    1.1874    0.7563 C   0  0  0  0  0  0  0  0  0  0  0  0
   -1.4514    1.8131    0.4507 O   0  0  0  0  0  0  0  0  0  0  0  0
    0.4302    1.7270    1.6835 N   0  0  0  0  0  0  0  0  0  0  0  0
    1.3163    1.2439    1.8076 H   0  0  0  0  0  0  0  0  0  0  0  0
    0.3113    3.0927    2.1782 C   0  0  0  0  0  0  0  0  0  0  0  0
   -0.6691    3.2500    2.6404 H   0  0  0  0  0  0  0  0  0  0  0  0
    1.0806    3.2899    2.9309 H   0  0  0  0  0  0  0  0  0  0  0  0
    0.4339    3.8086    1.3588 H   0  0  0  0  0  0  0  0  0  0  0  0
  1  2  1  0  0  0  0
  2  3  1  0  0  0  0
  2  4  1  0  0  0  0
  2  5  1  0  0  0  0
  5  6  2  0  0  0  0
  5  7  1  0  0  0  0
  7  8  1  0  0  0  0
  7  9  1  0  0  0  0
  9 10  1  0  0  0  0
  9 11  1  0  0  0  0
  9 21  1  0  0  0  0
 11 12  1  0  0  0  0
 11 13  1  0  0  0  0
 11 14  1  0  0  0  0
 14 15  1  0  0  0  0
 14 16  1  0  0  0  0
 14 17  1  0  0  0  0
 17 18  2  0  0  0  0
 17 19  1  0  0  0  0
 19 20  1  0  0  0  0
 21 22  2  0  0  0  0
 21 23  1  0  0  0  0
 23 24  1  0  0  0  0
 23 25  1  0  0  0  0
 25 26  1  0  0  0  0
 25 27  1  0  0  0  0
 25 28  1  0  0  0  0
M  END
$$$$

  -OEChem-02102214123D

 28 27  0     1  0  0  0  0  0999 V2000
   -3.1084   -3.8334    1.2232 H   0  0  0  0  0  0  0  0  0  0  0  0
   -3.1456   -2.8266    0.7980 C   0  0  0  0  0  0  0  0  0  0  0  0
   -3.7592   -2.1943    1.4443 H   0  0  0  0  0  0  0  0  0  0  0  0
   -3.6047   -2.8784   -0.1921 H   0  0  0  0  0  0  0  0  0  0  0  0
   -1.7457   -2.2527    0.6889 C   0  0  0  0  0  0  0  0  0  0  0  0
   -0.7798   -2.9348    0.9926 O   0  0  0  0  0  0  0  0  0  0  0  0
   -1.5686   -0.9617    0.2374 N   0  0  0  0  0  0  0  0  0  0  0  0
   -2.4070   -0.3982    0.1012 H   0  0  0  0  0  0  0  0  0  0  0  0
   -0.2887   -0.2373    0.2478 C   0  0  1  0  0  0  0  0  0  0  0  0
    0.3560   -0.7246    0.9873 H   0  0  0  0  0  0  0  0  0  0  0  0
    0.4302   -0.3923   -1.1152 C   0  0  0  0  0  0  0  0  0  0  0  0
    1.4705   -0.6809   -0.9296 H   0  0  0  0  0  0  0  0  0  0  0  0
   -0.0226   -1.2356   -1.6480 H   0  0  0  0  0  0  0  0  0  0  0  0
    0.3948    0.8436   -2.0493 C   0  0  0  0  0  0  0  0  0  0  0  0
    0.1939    0.4853   -3.0631 H   0  0  0  0  0  0  0  0  0  0  0  0
   -0.4163    1.5327   -1.8064 H   0  0  0  0  0  0  0  0  0  0  0  0
    1.7220    1.5983   -2.1007 C   0  0  0  0  0  0  0  0  0  0  0  0
    2.3503    1.7563   -1.0652 O   0  0  0  0  0  0  0  0  0  0  0  0
    2.1355    2.0605   -3.3029 O   0  0  0  0  0  0  0  0  0  0  0  0
    2.9769    2.5131   -3.1403 H   0  0  0  0  0  0  0  0  0  0  0  0
   -0.4532    1.2077    0.7708 C   0  0  0  0  0  0  0  0  0  0  0  0
   -1.4806    1.8297    0.5191 O   0  0  0  0  0  0  0  0  0  0  0  0
    0.4436    1.7307    1.6830 N   0  0  0  0  0  0  0  0  0  0  0  0
    1.3275    1.2398    1.7880 H   0  0  0  0  0  0  0  0  0  0  0  0
    0.3355    3.0847    2.2112 C   0  0  0  0  0  0  0  0  0  0  0  0
   -0.6282    3.2260    2.7120 H   0  0  0  0  0  0  0  0  0  0  0  0
    1.1310    3.2711    2.9392 H   0  0  0  0  0  0  0  0  0  0  0  0
    0.4246    3.8184    1.4031 H   0  0  0  0  0  0  0  0  0  0  0  0
  1  2  1  0  0  0  0
  2  3  1  0  0  0  0
  2  4  1  0  0  0  0
  2  5  1  0  0  0  0
  5  6  2  0  0  0  0
  5  7  1  0  0  0  0
  7  8  1  0  0  0  0
  7  9  1  0  0  0  0
  9 10  1  0  0  0  0
  9 11  1  0  0  0  0
  9 21  1  0  0  0  0
 11 12  1  0  0  0  0
 11 13  1  0  0  0  0
 11 14  1  0  0  0  0
 14 15  1  0  0  0  0
 14 16  1  0  0  0  0
 14 17  1  0  0  0  0
 17 18  2  0  0  0  0
 17 19  1  0  0  0  0
 19 20  1  0  0  0  0
 21 22  2  0  0  0  0
 21 23  1  0  0  0  0
 23 24  1  0  0  0  0
 23 25  1  0  0  0  0
 25 26  1  0  0  0  0
 25 27  1  0  0  0  0
 25 28  1  0  0  0  0
M  END
$$$$

  -OEChem-02102214123D

 28 27  0     1  0  0  0  0  0999 V2000
   -3.0782   -3.8431    1.1633 H   0  0  0  0  0  0  0  0  0  0  0  0
   -3.1270   -2.8221    0.7745 C   0  0  0  0  0  0  0  0  0  0  0  0
   -3.7319   -2.2158    1.4529 H   0  0  0  0  0  0  0  0  0  0  0  0
   -3.6027   -2.8415   -0.2088 H   0  0  0  0  0  0  0  0  0  0  0  0
   -1.7314   -2.2382    0.6629 C   0  0  0  0  0  0  0  0  0  0  0  0
   -0.7590   -2.9175    0.9515 O   0  0  0  0  0  0  0  0  0  0  0  0
   -1.5659   -0.9387    0.2318 N   0  0  0  0  0  0  0  0  0  0  0  0
   -2.4087   -0.3796    0.1057 H   0  0  0  0  0  0  0  0  0  0  0  0
   -0.2901   -0.2075    0.2386 C   0  0  1  0  0  0  0  0  0  0  0  0
    0.3625   -0.7033    0.9651 H   0  0  0  0  0  0  0  0  0  0  0  0
    0.4145   -0.3505   -1.1342 C   0  0  0  0  0  0  0  0  0  0  0  0
    1.4586   -0.6176   -0.9379 H   0  0  0  0  0  0  0  0  0  0  0  0
   -0.0153   -1.2066   -1.6658 H   0  0  0  0  0  0  0  0  0  0  0  0
    0.3759    0.8808   -2.0783 C   0  0  0  0  0  0  0  0  0  0  0  0
   -0.1127    0.5803   -3.0098 H   0  0  0  0  0  0  0  0  0  0  0  0
   -0.2128    1.7086   -1.6823 H   0  0  0  0  0  0  0  0  0  0  0  0
    1.7697    1.3973   -2.4219 C   0  0  0  0  0  0  0  0  0  0  0  0
    2.5144    1.7064   -1.5054 O   0  0  0  0  0  0  0  0  0  0  0  0
    2.1140    1.4805   -3.7276 O   0  0  0  0  0  0  0  0  0  0  0  0
    3.0196    1.8256   -3.7436 H   0  0  0  0  0  0  0  0  0  0  0  0
   -0.4541    1.2270    0.7879 C   0  0  0  0  0  0  0  0  0  0  0  0
   -1.4844    1.8510    0.5552 O   0  0  0  0  0  0  0  0  0  0  0  0
    0.4518    1.7395    1.6975 N   0  0  0  0  0  0  0  0  0  0  0  0
    1.3166    1.2236    1.8348 H   0  0  0  0  0  0  0  0  0  0  0  0
    0.3299    3.0703    2.2798 C   0  0  0  0  0  0  0  0  0  0  0  0
   -0.6107    3.1620    2.8331 H   0  0  0  0  0  0  0  0  0  0  0  0
    1.1561    3.2570    2.9725 H   0  0  0  0  0  0  0  0  0  0  0  0
    0.3547    3.8351    1.4964 H   0  0  0  0  0  0  0  0  0  0  0  0
  1  2  1  0  0  0  0
  2  3  1  0  0  0  0
  2  4  1  0  0  0  0
  2  5  1  0  0  0  0
  5  6  2  0  0  0  0
  5  7  1  0  0  0  0
  7  8  1  0  0  0  0
  7  9  1  0  0  0  0
  9 10  1  0  0  0  0
  9 11  1  0  0  0  0
  9 21  1  0  0  0  0
 11 12  1  0  0  0  0
 11 13  1  0  0  0  0
 11 14  1  0  0  0  0
 14 15  1  0  0  0  0
 14 16  1  0  0  0  0
 14 17  1  0  0  0  0
 17 18  2  0  0  0  0
 17 19  1  0  0  0  0
 19 20  1  0  0  0  0
 21 22  2  0  0  0  0
 21 23  1  0  0  0  0
 23 24  1  0  0  0  0
 23 25  1  0  0  0  0
 25 26  1  0  0  0  0
 25 27  1  0  0  0  0
 25 28  1  0  0  0  0
M  END
$$$$

  -OEChem-02102214123D

 28 27  0     1  0  0  0  0  0999 V2000
   -3.0706   -3.8457    1.0624 H   0  0  0  0  0  0  0  0  0  0  0  0
   -3.1182   -2.8038    0.7335 C   0  0  0  0  0  0  0  0  0  0  0  0
   -3.7160   -2.2351    1.4499 H   0  0  0  0  0  0  0  0  0  0  0  0
   -3.6013   -2.7658   -0.2459 H   0  0  0  0  0  0  0  0  0  0  0  0
   -1.7214   -2.2188    0.6458 C   0  0  0  0  0  0  0  0  0  0  0  0
   -0.7529   -2.8990    0.9456 O   0  0  0  0  0  0  0  0  0  0  0  0
   -1.5495   -0.9164    0.2259 N   0  0  0  0  0  0  0  0  0  0  0  0
   -2.3894   -0.3568    0.0834 H   0  0  0  0  0  0  0  0  0  0  0  0
   -0.2711   -0.1904    0.2402 C   0  0  1  0  0  0  0  0  0  0  0  0
    0.3872   -0.6946    0.9559 H   0  0  0  0  0  0  0  0  0  0  0  0
    0.4081   -0.3239   -1.1474 C   0  0  0  0  0  0  0  0  0  0  0  0
    1.4563   -0.5718   -0.9470 H   0  0  0  0  0  0  0  0  0  0  0  0
   -0.0071   -1.1854   -1.6818 H   0  0  0  0  0  0  0  0  0  0  0  0
    0.3725    0.9101   -2.0874 C   0  0  0  0  0  0  0  0  0  0  0  0
   -0.3776    0.7435   -2.8658 H   0  0  0  0  0  0  0  0  0  0  0  0
    0.0894    1.8282   -1.5718 H   0  0  0  0  0  0  0  0  0  0  0  0
    1.7272    1.1713   -2.7363 C   0  0  0  0  0  0  0  0  0  0  0  0
    2.6502    1.5311   -2.0240 O   0  0  0  0  0  0  0  0  0  0  0  0
    1.8424    0.9734   -4.0697 O   0  0  0  0  0  0  0  0  0  0  0  0
    2.7620    1.1844   -4.2913 H   0  0  0  0  0  0  0  0  0  0  0  0
   -0.4413    1.2377    0.8025 C   0  0  0  0  0  0  0  0  0  0  0  0
   -1.4574    1.8750    0.5458 O   0  0  0  0  0  0  0  0  0  0  0  0
    0.4586    1.7449    1.7210 N   0  0  0  0  0  0  0  0  0  0  0  0
    1.2918    1.1966    1.9152 H   0  0  0  0  0  0  0  0  0  0  0  0
    0.3231    3.0622    2.3309 C   0  0  0  0  0  0  0  0  0  0  0  0
   -0.6145    3.1307    2.8926 H   0  0  0  0  0  0  0  0  0  0  0  0
    1.1522    3.2468    3.0208 H   0  0  0  0  0  0  0  0  0  0  0  0
    0.3318    3.8427    1.5628 H   0  0  0  0  0  0  0  0  0  0  0  0
  1  2  1  0  0  0  0
  2  3  1  0  0  0  0
  2  4  1  0  0  0  0
  2  5  1  0  0  0  0
  5  6  2  0  0  0  0
  5  7  1  0  0  0  0
  7  8  1  0  0  0  0
  7  9  1  0  0  0  0
  9 10  1  0  0  0  0
  9 11  1  0  0  0  0
  9 21  1  0  0  0  0
 11 12  1  0  0  0  0
 11 13  1  0  0  0  0
 11 14  1  0  0  0  0
 14 15  1  0  0  0  0
 14 16  1  0  0  0  0
 14 17  1  0  0  0  0
 17 18  2  0  0  0  0
 17 19  1  0  0  0  0
 19 20  1  0  0  0  0
 21 22  2  0  0  0  0
 21 23  1  0  0  0  0
 23 24  1  0  0  0  0
 23 25  1  0  0  0  0
 25 26  1  0  0  0  0
 25 27  1  0  0  0  0
 25 28  1  0  0  0  0
M  END
$$$$

  -OEChem-02102214123D

 28 27  0     1  0  0  0  0  0999 V2000
   -3.0711   -3.8337    1.2213 H   0  0  0  0  0  0  0  0  0  0  0  0
   -3.1132   -2.8113    0.8353 C   0  0  0  0  0  0  0  0  0  0  0  0
   -3.7406   -2.2099    1.4976 H   0  0  0  0  0  0  0  0  0  0  0  0
   -3.5601   -2.8299   -0.1616 H   0  0  0  0  0  0  0  0  0  0  0  0
   -1.7179   -2.2208    0.7655 C   0  0  0  0  0  0  0  0  0  0  0  0
   -0.7585   -2.8697    1.1511 O   0  0  0  0  0  0  0  0  0  0  0  0
   -1.5373   -0.9478    0.2668 N   0  0  0  0  0  0  0  0  0  0  0  0
   -2.3726   -0.4075    0.0456 H   0  0  0  0  0  0  0  0  0  0  0  0
   -0.2556   -0.2283    0.2379 C   0  0  1  0  0  0  0  0  0  0  0  0
    0.4121   -0.6937    0.9708 H   0  0  0  0  0  0  0  0  0  0  0  0
    0.3941   -0.4324   -1.1563 C   0  0  0  0  0  0  0  0  0  0  0  0
    1.4488   -0.6582   -0.9629 H   0  0  0  0  0  0  0  0  0  0  0  0
   -0.0246   -1.3199   -1.6437 H   0  0  0  0  0  0  0  0  0  0  0  0
    0.3460    0.7608   -2.1463 C   0  0  0  0  0  0  0  0  0  0  0  0
   -0.5868    0.7299   -2.7155 H   0  0  0  0  0  0  0  0  0  0  0  0
    0.3719    1.7152   -1.6178 H   0  0  0  0  0  0  0  0  0  0  0  0
    1.5330    0.7841   -3.1090 C   0  0  0  0  0  0  0  0  0  0  0  0
    1.9737   -0.2704   -3.5354 O   0  0  0  0  0  0  0  0  0  0  0  0
    2.0415    1.9923   -3.4432 O   0  0  0  0  0  0  0  0  0  0  0  0
    2.7673    1.8123   -4.0599 H   0  0  0  0  0  0  0  0  0  0  0  0
   -0.4334    1.2299    0.7130 C   0  0  0  0  0  0  0  0  0  0  0  0
   -1.4305    1.8620    0.3820 O   0  0  0  0  0  0  0  0  0  0  0  0
    0.4605    1.7949    1.6037 N   0  0  0  0  0  0  0  0  0  0  0  0
    1.2371    1.2213    1.9205 H   0  0  0  0  0  0  0  0  0  0  0  0
    0.2943    3.1302    2.1654 C   0  0  0  0  0  0  0  0  0  0  0  0
   -0.6081    3.1754    2.7841 H   0  0  0  0  0  0  0  0  0  0  0  0
    1.1557    3.3885    2.7888 H   0  0  0  0  0  0  0  0  0  0  0  0
    0.2120    3.8756    1.3671 H   0  0  0  0  0  0  0  0  0  0  0  0
  1  2  1  0  0  0  0
  2  3  1  0  0  0  0
  2  4  1  0  0  0  0
  2  5  1  0  0  0  0
  5  6  2  0  0  0  0
  5  7  1  0  0  0  0
  7  8  1  0  0  0  0
  7  9  1  0  0  0  0
  9 10  1  0  0  0  0
  9 11  1  0  0  0  0
  9 21  1  0  0  0  0
 11 12  1  0  0  0  0
 11 13  1  0  0  0  0
 11 14  1  0  0  0  0
 14 15  1  0  0  0  0
 14 16  1  0  0  0  0
 14 17  1  0  0  0  0
 17 18  2  0  0  0  0
 17 19  1  0  0  0  0
 19 20  1  0  0  0  0
 21 22  2  0  0  0  0
 21 23  1  0  0  0  0
 23 24  1  0  0  0  0
 23 25  1  0  0  0  0
 25 26  1  0  0  0  0
 25 27  1  0  0  0  0
 25 28  1  0  0  0  0
M  END
$$$$

  -OEChem-02102214123D

 28 27  0     1  0  0  0  0  0999 V2000
   -3.1371   -3.7931    1.2459 H   0  0  0  0  0  0  0  0  0  0  0  0
   -3.1504   -2.7903    0.8099 C   0  0  0  0  0  0  0  0  0  0  0  0
   -3.7883   -2.1484    1.4222 H   0  0  0  0  0  0  0  0  0  0  0  0
   -3.5661   -2.8501   -0.1988 H   0  0  0  0  0  0  0  0  0  0  0  0
   -1.7438   -2.2248    0.7567 C   0  0  0  0  0  0  0  0  0  0  0  0
   -0.8022   -2.8874    1.1620 O   0  0  0  0  0  0  0  0  0  0  0  0
   -1.5347   -0.9563    0.2575 N   0  0  0  0  0  0  0  0  0  0  0  0
   -2.3580   -0.4033    0.0235 H   0  0  0  0  0  0  0  0  0  0  0  0
   -0.2420   -0.2557    0.2506 C   0  0  1  0  0  0  0  0  0  0  0  0
    0.4109   -0.7311    0.9903 H   0  0  0  0  0  0  0  0  0  0  0  0
    0.4232   -0.4508   -1.1366 C   0  0  0  0  0  0  0  0  0  0  0  0
    1.4734   -0.6965   -0.9450 H   0  0  0  0  0  0  0  0  0  0  0  0
   -0.0124   -1.3178   -1.6456 H   0  0  0  0  0  0  0  0  0  0  0  0
    0.3891    0.7716   -2.0877 C   0  0  0  0  0  0  0  0  0  0  0  0
   -0.6292    0.9151   -2.4593 H   0  0  0  0  0  0  0  0  0  0  0  0
    0.6786    1.6788   -1.5522 H   0  0  0  0  0  0  0  0  0  0  0  0
    1.3460    0.6665   -3.2767 C   0  0  0  0  0  0  0  0  0  0  0  0
    1.9568   -0.3698   -3.4816 O   0  0  0  0  0  0  0  0  0  0  0  0
    1.4609    1.7628   -4.0606 O   0  0  0  0  0  0  0  0  0  0  0  0
    2.0863    1.5234   -4.7613 H   0  0  0  0  0  0  0  0  0  0  0  0
   -0.4115    1.2060    0.7184 C   0  0  0  0  0  0  0  0  0  0  0  0
   -1.3881    1.8541    0.3582 O   0  0  0  0  0  0  0  0  0  0  0  0
    0.4714    1.7625    1.6251 N   0  0  0  0  0  0  0  0  0  0  0  0
    1.2300    1.1780    1.9649 H   0  0  0  0  0  0  0  0  0  0  0  0
    0.3183    3.1077    2.1666 C   0  0  0  0  0  0  0  0  0  0  0  0
   -0.6180    3.1904    2.7287 H   0  0  0  0  0  0  0  0  0  0  0  0
    1.1482    3.3416    2.8402 H   0  0  0  0  0  0  0  0  0  0  0  0
    0.3107    3.8473    1.3588 H   0  0  0  0  0  0  0  0  0  0  0  0
  1  2  1  0  0  0  0
  2  3  1  0  0  0  0
  2  4  1  0  0  0  0
  2  5  1  0  0  0  0
  5  6  2  0  0  0  0
  5  7  1  0  0  0  0
  7  8  1  0  0  0  0
  7  9  1  0  0  0  0
  9 10  1  0  0  0  0
  9 11  1  0  0  0  0
  9 21  1  0  0  0  0
 11 12  1  0  0  0  0
 11 13  1  0  0  0  0
 11 14  1  0  0  0  0
 14 15  1  0  0  0  0
 14 16  1  0  0  0  0
 14 17  1  0  0  0  0
 17 18  2  0  0  0  0
 17 19  1  0  0  0  0
 19 20  1  0  0  0  0
 21 22  2  0  0  0  0
 21 23  1  0  0  0  0
 23 24  1  0  0  0  0
 23 25  1  0  0  0  0
 25 26  1  0  0  0  0
 25 27  1  0  0  0  0
 25 28  1  0  0  0  0
M  END
$$$$

  -OEChem-02102214123D

 28 27  0     1  0  0  0  0  0999 V2000
   -3.1559   -3.7758    1.2535 H   0  0  0  0  0  0  0  0  0  0  0  0
   -3.1589   -2.7760    0.8107 C   0  0  0  0  0  0  0  0  0  0  0  0
   -3.7941   -2.1248    1.4158 H   0  0  0  0  0  0  0  0  0  0  0  0
   -3.5704   -2.8395   -0.1995 H   0  0  0  0  0  0  0  0  0  0  0  0
   -1.7480   -2.2218    0.7602 C   0  0  0  0  0  0  0  0  0  0  0  0
   -0.8137   -2.8861    1.1795 O   0  0  0  0  0  0  0  0  0  0  0  0
   -1.5269   -0.9591    0.2521 N   0  0  0  0  0  0  0  0  0  0  0  0
   -2.3439   -0.4010    0.0075 H   0  0  0  0  0  0  0  0  0  0  0  0
   -0.2275   -0.2712    0.2481 C   0  0  1  0  0  0  0  0  0  0  0  0
    0.4262   -0.7409    0.9905 H   0  0  0  0  0  0  0  0  0  0  0  0
    0.4384   -0.4580   -1.1410 C   0  0  0  0  0  0  0  0  0  0  0  0
    1.3791   -1.0000   -0.9939 H   0  0  0  0  0  0  0  0  0  0  0  0
   -0.1970   -1.0955   -1.7664 H   0  0  0  0  0  0  0  0  0  0  0  0
    0.7370    0.8459   -1.9170 C   0  0  0  0  0  0  0  0  0  0  0  0
   -0.1964    1.3920   -2.0834 H   0  0  0  0  0  0  0  0  0  0  0  0
    1.4026    1.4839   -1.3294 H   0  0  0  0  0  0  0  0  0  0  0  0
    1.3927    0.6233   -3.2808 C   0  0  0  0  0  0  0  0  0  0  0  0
    1.6672   -0.5063   -3.6518 O   0  0  0  0  0  0  0  0  0  0  0  0
    1.6460    1.7285   -4.0179 O   0  0  0  0  0  0  0  0  0  0  0  0
    2.0503    1.4112   -4.8396 H   0  0  0  0  0  0  0  0  0  0  0  0
   -0.4021    1.1940    0.7063 C   0  0  0  0  0  0  0  0  0  0  0  0
   -1.3758    1.8404    0.3350 O   0  0  0  0  0  0  0  0  0  0  0  0
    0.4730    1.7549    1.6183 N   0  0  0  0  0  0  0  0  0  0  0  0
    1.2217    1.1682    1.9758 H   0  0  0  0  0  0  0  0  0  0  0  0
    0.3082    3.0982    2.1608 C   0  0  0  0  0  0  0  0  0  0  0  0
   -0.6322    3.1741    2.7168 H   0  0  0  0  0  0  0  0  0  0  0  0
    1.1325    3.3365    2.8401 H   0  0  0  0  0  0  0  0  0  0  0  0
    0.3013    3.8390    1.3540 H   0  0  0  0  0  0  0  0  0  0  0  0
  1  2  1  0  0  0  0
  2  3  1  0  0  0  0
  2  4  1  0  0  0  0
  2  5  1  0  0  0  0
  5  6  2  0  0  0  0
  5  7  1  0  0  0  0
  7  8  1  0  0  0  0
  7  9  1  0  0  0  0
  9 10  1  0  0  0  0
  9 11  1  0  0  0  0
  9 21  1  0  0  0  0
 11 12  1  0  0  0  0
 11 13  1  0  0  0  0
 11 14  1  0  0  0  0
 14 15  1  0  0  0  0
 14 16  1  0  0  0  0
 14 17  1  0  0  0  0
 17 18  2  0  0  0  0
 17 19  1  0  0  0  0
 19 20  1  0  0  0  0
 21 22  2  0  0  0  0
 21 23  1  0  0  0  0
 23 24  1  0  0  0  0
 23 25  1  0  0  0  0
 25 26  1  0  0  0  0
 25 27  1  0  0  0  0
 25 28  1  0  0  0  0
M  END
$$$$

  -OEChem-02102214123D

 28 27  0     1  0  0  0  0  0999 V2000
   -3.1666   -3.7649    1.2255 H   0  0  0  0  0  0  0  0  0  0  0  0
   -3.1713   -2.7591    0.7965 C   0  0  0  0  0  0  0  0  0  0  0  0
   -3.7958   -2.1136    1.4188 H   0  0  0  0  0  0  0  0  0  0  0  0
   -3.5963   -2.8070   -0.2090 H   0  0  0  0  0  0  0  0  0  0  0  0
   -1.7586   -2.2102    0.7354 C   0  0  0  0  0  0  0  0  0  0  0  0
   -0.8220   -2.8842    1.1338 O   0  0  0  0  0  0  0  0  0  0  0  0
   -1.5374   -0.9421    0.2403 N   0  0  0  0  0  0  0  0  0  0  0  0
   -2.3554   -0.3768    0.0166 H   0  0  0  0  0  0  0  0  0  0  0  0
   -0.2371   -0.2549    0.2420 C   0  0  1  0  0  0  0  0  0  0  0  0
    0.4077   -0.7309    0.9882 H   0  0  0  0  0  0  0  0  0  0  0  0
    0.4504   -0.4469   -1.1364 C   0  0  0  0  0  0  0  0  0  0  0  0
    1.3849   -0.9990   -0.9885 H   0  0  0  0  0  0  0  0  0  0  0  0
   -0.1918   -1.0811   -1.7584 H   0  0  0  0  0  0  0  0  0  0  0  0
    0.7620    0.8489   -1.9225 C   0  0  0  0  0  0  0  0  0  0  0  0
   -0.1153    1.5015   -1.9135 H   0  0  0  0  0  0  0  0  0  0  0  0
    1.5888    1.3858   -1.4502 H   0  0  0  0  0  0  0  0  0  0  0  0
    1.0990    0.6103   -3.3953 C   0  0  0  0  0  0  0  0  0  0  0  0
    1.4322   -0.5022   -3.7696 O   0  0  0  0  0  0  0  0  0  0  0  0
    1.0249    1.6799   -4.2200 O   0  0  0  0  0  0  0  0  0  0  0  0
    1.2689    1.3536   -5.0994 H   0  0  0  0  0  0  0  0  0  0  0  0
   -0.3990    1.2075    0.7144 C   0  0  0  0  0  0  0  0  0  0  0  0
   -1.3829    1.8553    0.3739 O   0  0  0  0  0  0  0  0  0  0  0  0
    0.4831    1.7541    1.6284 N   0  0  0  0  0  0  0  0  0  0  0  0
    1.2389    1.1642    1.9649 H   0  0  0  0  0  0  0  0  0  0  0  0
    0.3178    3.0851    2.2009 C   0  0  0  0  0  0  0  0  0  0  0  0
   -0.6076    3.1388    2.7840 H   0  0  0  0  0  0  0  0  0  0  0  0
    1.1578    3.3208    2.8615 H   0  0  0  0  0  0  0  0  0  0  0  0
    0.2796    3.8413    1.4094 H   0  0  0  0  0  0  0  0  0  0  0  0
  1  2  1  0  0  0  0
  2  3  1  0  0  0  0
  2  4  1  0  0  0  0
  2  5  1  0  0  0  0
  5  6  2  0  0  0  0
  5  7  1  0  0  0  0
  7  8  1  0  0  0  0
  7  9  1  0  0  0  0
  9 10  1  0  0  0  0
  9 11  1  0  0  0  0
  9 21  1  0  0  0  0
 11 12  1  0  0  0  0
 11 13  1  0  0  0  0
 11 14  1  0  0  0  0
 14 15  1  0  0  0  0
 14 16  1  0  0  0  0
 14 17  1  0  0  0  0
 17 18  2  0  0  0  0
 17 19  1  0  0  0  0
 19 20  1  0  0  0  0
 21 22  2  0  0  0  0
 21 23  1  0  0  0  0
 23 24  1  0  0  0  0
 23 25  1  0  0  0  0
 25 26  1  0  0  0  0
 25 27  1  0  0  0  0
 25 28  1  0  0  0  0
M  END
$$$$

  -OEChem-02102214123D

 28 27  0     1  0  0  0  0  0999 V2000
   -3.1752   -3.7527    1.1968 H   0  0  0  0  0  0  0  0  0  0  0  0
   -3.1799   -2.7427    0.7776 C   0  0  0  0  0  0  0  0  0  0  0  0
   -3.8027   -2.1028    1.4075 H   0  0  0  0  0  0  0  0  0  0  0  0
   -3.6074   -2.7805   -0.2273 H   0  0  0  0  0  0  0  0  0  0  0  0
   -1.7667   -2.1947    0.7189 C   0  0  0  0  0  0  0  0  0  0  0  0
   -0.8301   -2.8745    1.1076 O   0  0  0  0  0  0  0  0  0  0  0  0
   -1.5450   -0.9215    0.2376 N   0  0  0  0  0  0  0  0  0  0  0  0
   -2.3627   -0.3520    0.0235 H   0  0  0  0  0  0  0  0  0  0  0  0
   -0.2432   -0.2370    0.2424 C   0  0  1  0  0  0  0  0  0  0  0  0
    0.3965   -0.7206    0.9881 H   0  0  0  0  0  0  0  0  0  0  0  0
    0.4552   -0.4304   -1.1322 C   0  0  0  0  0  0  0  0  0  0  0  0
    1.3819   -0.9948   -0.9828 H   0  0  0  0  0  0  0  0  0  0  0  0
   -0.1946   -1.0644   -1.7461 H   0  0  0  0  0  0  0  0  0  0  0  0
    0.7859    0.8512   -1.9407 C   0  0  0  0  0  0  0  0  0  0  0  0
    0.0329    1.6204   -1.7567 H   0  0  0  0  0  0  0  0  0  0  0  0
    1.7552    1.2517   -1.6327 H   0  0  0  0  0  0  0  0  0  0  0  0
    0.7764    0.6343   -3.4546 C   0  0  0  0  0  0  0  0  0  0  0  0
    1.1174   -0.4465   -3.9067 O   0  0  0  0  0  0  0  0  0  0  0  0
    0.4089    1.6814   -4.2283 O   0  0  0  0  0  0  0  0  0  0  0  0
    0.4679    1.3678   -5.1432 H   0  0  0  0  0  0  0  0  0  0  0  0
   -0.3982    1.2199    0.7321 C   0  0  0  0  0  0  0  0  0  0  0  0
   -1.3863    1.8710    0.4107 O   0  0  0  0  0  0  0  0  0  0  0  0
    0.4896    1.7528    1.6484 N   0  0  0  0  0  0  0  0  0  0  0  0
    1.2480    1.1583    1.9704 H   0  0  0  0  0  0  0  0  0  0  0  0
    0.3304    3.0766    2.2391 C   0  0  0  0  0  0  0  0  0  0  0  0
   -0.5917    3.1247    2.8279 H   0  0  0  0  0  0  0  0  0  0  0  0
    1.1743    3.3014    2.8984 H   0  0  0  0  0  0  0  0  0  0  0  0
    0.2902    3.8434    1.4580 H   0  0  0  0  0  0  0  0  0  0  0  0
  1  2  1  0  0  0  0
  2  3  1  0  0  0  0
  2  4  1  0  0  0  0
  2  5  1  0  0  0  0
  5  6  2  0  0  0  0
  5  7  1  0  0  0  0
  7  8  1  0  0  0  0
  7  9  1  0  0  0  0
  9 10  1  0  0  0  0
  9 11  1  0  0  0  0
  9 21  1  0  0  0  0
 11 12  1  0  0  0  0
 11 13  1  0  0  0  0
 11 14  1  0  0  0  0
 14 15  1  0  0  0  0
 14 16  1  0  0  0  0
 14 17  1  0  0  0  0
 17 18  2  0  0  0  0
 17 19  1  0  0  0  0
 19 20  1  0  0  0  0
 21 22  2  0  0  0  0
 21 23  1  0  0  0  0
 23 24  1  0  0  0  0
 23 25  1  0  0  0  0
 25 26  1  0  0  0  0
 25 27  1  0  0  0  0
 25 28  1  0  0  0  0
M  END
$$$$

  -OEChem-02102214123D

 28 27  0     1  0  0  0  0  0999 V2000
   -3.1941   -3.7367    1.1206 H   0  0  0  0  0  0  0  0  0  0  0  0
   -3.1922   -2.7124    0.7378 C   0  0  0  0  0  0  0  0  0  0  0  0
   -3.8140   -2.0916    1.3873 H   0  0  0  0  0  0  0  0  0  0  0  0
   -3.6157   -2.7121   -0.2695 H   0  0  0  0  0  0  0  0  0  0  0  0
   -1.7762   -2.1699    0.7036 C   0  0  0  0  0  0  0  0  0  0  0  0
   -0.8461   -2.8583    1.0929 O   0  0  0  0  0  0  0  0  0  0  0  0
   -1.5435   -0.8940    0.2352 N   0  0  0  0  0  0  0  0  0  0  0  0
   -2.3561   -0.3187    0.0168 H   0  0  0  0  0  0  0  0  0  0  0  0
   -0.2375   -0.2178    0.2494 C   0  0  1  0  0  0  0  0  0  0  0  0
    0.3951   -0.7103    0.9955 H   0  0  0  0  0  0  0  0  0  0  0  0
    0.4606   -0.4212   -1.1252 C   0  0  0  0  0  0  0  0  0  0  0  0
    1.3842   -0.9860   -0.9609 H   0  0  0  0  0  0  0  0  0  0  0  0
   -0.1822   -1.0704   -1.7308 H   0  0  0  0  0  0  0  0  0  0  0  0
    0.8151    0.8404   -1.9599 C   0  0  0  0  0  0  0  0  0  0  0  0
    0.2807    1.7229   -1.6060 H   0  0  0  0  0  0  0  0  0  0  0  0
    1.8840    1.0531   -1.8742 H   0  0  0  0  0  0  0  0  0  0  0  0
    0.4488    0.6908   -3.4361 C   0  0  0  0  0  0  0  0  0  0  0  0
    0.7961   -0.3183   -4.0272 O   0  0  0  0  0  0  0  0  0  0  0  0
   -0.2340    1.7004   -4.0231 O   0  0  0  0  0  0  0  0  0  0  0  0
   -0.3713    1.4286   -4.9429 H   0  0  0  0  0  0  0  0  0  0  0  0
   -0.3882    1.2348    0.7521 C   0  0  0  0  0  0  0  0  0  0  0  0
   -1.3692    1.8944    0.4270 O   0  0  0  0  0  0  0  0  0  0  0  0
    0.4981    1.7570    1.6762 N   0  0  0  0  0  0  0  0  0  0  0  0
    1.2562    1.1591    1.9926 H   0  0  0  0  0  0  0  0  0  0  0  0
    0.3429    3.0779    2.2742 C   0  0  0  0  0  0  0  0  0  0  0  0
   -0.5730    3.1220    2.8728 H   0  0  0  0  0  0  0  0  0  0  0  0
    1.1934    3.3013    2.9254 H   0  0  0  0  0  0  0  0  0  0  0  0
    0.2932    3.8482    1.4972 H   0  0  0  0  0  0  0  0  0  0  0  0
  1  2  1  0  0  0  0
  2  3  1  0  0  0  0
  2  4  1  0  0  0  0
  2  5  1  0  0  0  0
  5  6  2  0  0  0  0
  5  7  1  0  0  0  0
  7  8  1  0  0  0  0
  7  9  1  0  0  0  0
  9 10  1  0  0  0  0
  9 11  1  0  0  0  0
  9 21  1  0  0  0  0
 11 12  1  0  0  0  0
 11 13  1  0  0  0  0
 11 14  1  0  0  0  0
 14 15  1  0  0  0  0
 14 16  1  0  0  0  0
 14 17  1  0  0  0  0
 17 18  2  0  0  0  0
 17 19  1  0  0  0  0
 19 20  1  0  0  0  0
 21 22  2  0  0  0  0
 21 23  1  0  0  0  0
 23 24  1  0  0  0  0
 23 25  1  0  0  0  0
 25 26  1  0  0  0  0
 25 27  1  0  0  0  0
 25 28  1  0  0  0  0
M  END
$$$$

  -OEChem-02102214123D

 28 27  0     1  0  0  0  0  0999 V2000
   -3.0665   -3.8367    1.1122 H   0  0  0  0  0  0  0  0  0  0  0  0
   -3.1026   -2.8058    0.7495 C   0  0  0  0  0  0  0  0  0  0  0  0
   -3.7545   -2.2237    1.4052 H   0  0  0  0  0  0  0  0  0  0  0  0
   -3.5174   -2.8020   -0.2615 H   0  0  0  0  0  0  0  0  0  0  0  0
   -1.7100   -2.2051    0.7388 C   0  0  0  0  0  0  0  0  0  0  0  0
   -0.7548   -2.8607    1.1249 O   0  0  0  0  0  0  0  0  0  0  0  0
   -1.5263   -0.9144    0.2914 N   0  0  0  0  0  0  0  0  0  0  0  0
   -2.3540   -0.3850    0.0195 H   0  0  0  0  0  0  0  0  0  0  0  0
   -0.2429   -0.1987    0.2718 C   0  0  1  0  0  0  0  0  0  0  0  0
    0.4396   -0.6886    0.9741 H   0  0  0  0  0  0  0  0  0  0  0  0
    0.3758   -0.3575   -1.1464 C   0  0  0  0  0  0  0  0  0  0  0  0
    1.3379   -0.8636   -1.0145 H   0  0  0  0  0  0  0  0  0  0  0  0
   -0.2369   -1.0526   -1.7312 H   0  0  0  0  0  0  0  0  0  0  0  0
    0.6512    0.9276   -1.9786 C   0  0  0  0  0  0  0  0  0  0  0  0
    0.4144    1.8474   -1.4447 H   0  0  0  0  0  0  0  0  0  0  0  0
    1.7208    0.9664   -2.2042 H   0  0  0  0  0  0  0  0  0  0  0  0
   -0.1093    0.9619   -3.3051 C   0  0  0  0  0  0  0  0  0  0  0  0
   -1.2722    0.5941   -3.3428 O   0  0  0  0  0  0  0  0  0  0  0  0
    0.5640    1.4106   -4.3894 O   0  0  0  0  0  0  0  0  0  0  0  0
   -0.0684    1.3756   -5.1232 H   0  0  0  0  0  0  0  0  0  0  0  0
   -0.4186    1.2379    0.8110 C   0  0  0  0  0  0  0  0  0  0  0  0
   -1.4062    1.8962    0.5053 O   0  0  0  0  0  0  0  0  0  0  0  0
    0.4873    1.7649    1.7135 N   0  0  0  0  0  0  0  0  0  0  0  0
    1.2506    1.1673    2.0173 H   0  0  0  0  0  0  0  0  0  0  0  0
    0.3205    3.0703    2.3413 C   0  0  0  0  0  0  0  0  0  0  0  0
   -0.6109    3.1032    2.9163 H   0  0  0  0  0  0  0  0  0  0  0  0
    1.1533    3.2729    3.0213 H   0  0  0  0  0  0  0  0  0  0  0  0
    0.2939    3.8598    1.5829 H   0  0  0  0  0  0  0  0  0  0  0  0
  1  2  1  0  0  0  0
  2  3  1  0  0  0  0
  2  4  1  0  0  0  0
  2  5  1  0  0  0  0
  5  6  2  0  0  0  0
  5  7  1  0  0  0  0
  7  8  1  0  0  0  0
  7  9  1  0  0  0  0
  9 10  1  0  0  0  0
  9 11  1  0  0  0  0
  9 21  1  0  0  0  0
 11 12  1  0  0  0  0
 11 13  1  0  0  0  0
 11 14  1  0  0  0  0
 14 15  1  0  0  0  0
 14 16  1  0  0  0  0
 14 17  1  0  0  0  0
 17 18  2  0  0  0  0
 17 19  1  0  0  0  0
 19 20  1  0  0  0  0
 21 22  2  0  0  0  0
 21 23  1  0  0  0  0
 23 24  1  0  0  0  0
 23 25  1  0  0  0  0
 25 26  1  0  0  0  0
 25 27  1  0  0  0  0
 25 28  1  0  0  0  0
M  END
$$$$

  -OEChem-02102214123D

 28 27  0     1  0  0  0  0  0999 V2000
   -3.1205   -3.8112    1.1862 H   0  0  0  0  0  0  0  0  0  0  0  0
   -3.1336   -2.8006    0.7685 C   0  0  0  0  0  0  0  0  0  0  0  0
   -3.8029   -2.1799    1.3689 H   0  0  0  0  0  0  0  0  0  0  0  0
   -3.5116   -2.8472   -0.2557 H   0  0  0  0  0  0  0  0  0  0  0  0
   -1.7357   -2.2117    0.7766 C   0  0  0  0  0  0  0  0  0  0  0  0
   -0.7970   -2.8648    1.2051 O   0  0  0  0  0  0  0  0  0  0  0  0
   -1.5284   -0.9340    0.3028 N   0  0  0  0  0  0  0  0  0  0  0  0
   -2.3409   -0.4095   -0.0204 H   0  0  0  0  0  0  0  0  0  0  0  0
   -0.2356   -0.2359    0.2867 C   0  0  1  0  0  0  0  0  0  0  0  0
    0.4388   -0.7211    0.9999 H   0  0  0  0  0  0  0  0  0  0  0  0
    0.3794   -0.4127   -1.1300 C   0  0  0  0  0  0  0  0  0  0  0  0
    1.3427   -0.9112   -0.9803 H   0  0  0  0  0  0  0  0  0  0  0  0
   -0.2198   -1.1160   -1.7190 H   0  0  0  0  0  0  0  0  0  0  0  0
    0.6687    0.8711   -1.9567 C   0  0  0  0  0  0  0  0  0  0  0  0
    0.7521    1.7687   -1.3432 H   0  0  0  0  0  0  0  0  0  0  0  0
    1.6445    0.7391   -2.4324 H   0  0  0  0  0  0  0  0  0  0  0  0
   -0.3283    1.1313   -3.0893 C   0  0  0  0  0  0  0  0  0  0  0  0
   -1.4221    0.5892   -3.0857 O   0  0  0  0  0  0  0  0  0  0  0  0
    0.0767    1.9775   -4.0640 O   0  0  0  0  0  0  0  0  0  0  0  0
   -0.6700    2.0454   -4.6783 H   0  0  0  0  0  0  0  0  0  0  0  0
   -0.4082    1.2136    0.7917 C   0  0  0  0  0  0  0  0  0  0  0  0
   -1.3680    1.8856    0.4323 O   0  0  0  0  0  0  0  0  0  0  0  0
    0.4875    1.7512    1.6980 N   0  0  0  0  0  0  0  0  0  0  0  0
    1.2279    1.1469    2.0425 H   0  0  0  0  0  0  0  0  0  0  0  0
    0.3382    3.0828    2.2730 C   0  0  0  0  0  0  0  0  0  0  0  0
   -0.5927    3.1503    2.8458 H   0  0  0  0  0  0  0  0  0  0  0  0
    1.1742    3.3024    2.9441 H   0  0  0  0  0  0  0  0  0  0  0  0
    0.3215    3.8416    1.4835 H   0  0  0  0  0  0  0  0  0  0  0  0
  1  2  1  0  0  0  0
  2  3  1  0  0  0  0
  2  4  1  0  0  0  0
  2  5  1  0  0  0  0
  5  6  2  0  0  0  0
  5  7  1  0  0  0  0
  7  8  1  0  0  0  0
  7  9  1  0  0  0  0
  9 10  1  0  0  0  0
  9 11  1  0  0  0  0
  9 21  1  0  0  0  0
 11 12  1  0  0  0  0
 11 13  1  0  0  0  0
 11 14  1  0  0  0  0
 14 15  1  0  0  0  0
 14 16  1  0  0  0  0
 14 17  1  0  0  0  0
 17 18  2  0  0  0  0
 17 19  1  0  0  0  0
 19 20  1  0  0  0  0
 21 22  2  0  0  0  0
 21 23  1  0  0  0  0
 23 24  1  0  0  0  0
 23 25  1  0  0  0  0
 25 26  1  0  0  0  0
 25 27  1  0  0  0  0
 25 28  1  0  0  0  0
M  END
$$$$

  -OEChem-02102214123D

 28 27  0     1  0  0  0  0  0999 V2000
   -3.1509   -3.7962    1.2121 H   0  0  0  0  0  0  0  0  0  0  0  0
   -3.1478   -2.7975    0.7669 C   0  0  0  0  0  0  0  0  0  0  0  0
   -3.8370   -2.1601    1.3262 H   0  0  0  0  0  0  0  0  0  0  0  0
   -3.4900   -2.8712   -0.2682 H   0  0  0  0  0  0  0  0  0  0  0  0
   -1.7502   -2.2101    0.8078 C   0  0  0  0  0  0  0  0  0  0  0  0
   -0.8268   -2.8539    1.2815 O   0  0  0  0  0  0  0  0  0  0  0  0
   -1.5262   -0.9454    0.3083 N   0  0  0  0  0  0  0  0  0  0  0  0
   -2.3255   -0.4331   -0.0639 H   0  0  0  0  0  0  0  0  0  0  0  0
   -0.2288   -0.2572    0.2931 C   0  0  1  0  0  0  0  0  0  0  0  0
    0.4383   -0.7333    1.0191 H   0  0  0  0  0  0  0  0  0  0  0  0
    0.3883   -0.4596   -1.1181 C   0  0  0  0  0  0  0  0  0  0  0  0
    1.3484   -0.9622   -0.9630 H   0  0  0  0  0  0  0  0  0  0  0  0
   -0.2157   -1.1575   -1.7087 H   0  0  0  0  0  0  0  0  0  0  0  0
    0.6805    0.8224   -1.9390 C   0  0  0  0  0  0  0  0  0  0  0  0
    1.0168    1.6470   -1.3070 H   0  0  0  0  0  0  0  0  0  0  0  0
    1.5076    0.6000   -2.6185 H   0  0  0  0  0  0  0  0  0  0  0  0
   -0.4813    1.2910   -2.8218 C   0  0  0  0  0  0  0  0  0  0  0  0
   -1.5030    0.6272   -2.9068 O   0  0  0  0  0  0  0  0  0  0  0  0
   -0.2926    2.4510   -3.4915 O   0  0  0  0  0  0  0  0  0  0  0  0
   -1.1230    2.6175   -3.9625 H   0  0  0  0  0  0  0  0  0  0  0  0
   -0.3953    1.2057    0.7629 C   0  0  0  0  0  0  0  0  0  0  0  0
   -1.3393    1.8809    0.3692 O   0  0  0  0  0  0  0  0  0  0  0  0
    0.4936    1.7566    1.6679 N   0  0  0  0  0  0  0  0  0  0  0  0
    1.2222    1.1533    2.0384 H   0  0  0  0  0  0  0  0  0  0  0  0
    0.3541    3.1059    2.2030 C   0  0  0  0  0  0  0  0  0  0  0  0
   -0.5989    3.2126    2.7320 H   0  0  0  0  0  0  0  0  0  0  0  0
    1.1650    3.3204    2.9058 H   0  0  0  0  0  0  0  0  0  0  0  0
    0.3931    3.8442    1.3951 H   0  0  0  0  0  0  0  0  0  0  0  0
  1  2  1  0  0  0  0
  2  3  1  0  0  0  0
  2  4  1  0  0  0  0
  2  5  1  0  0  0  0
  5  6  2  0  0  0  0
  5  7  1  0  0  0  0
  7  8  1  0  0  0  0
  7  9  1  0  0  0  0
  9 10  1  0  0  0  0
  9 11  1  0  0  0  0
  9 21  1  0  0  0  0
 11 12  1  0  0  0  0
 11 13  1  0  0  0  0
 11 14  1  0  0  0  0
 14 15  1  0  0  0  0
 14 16  1  0  0  0  0
 14 17  1  0  0  0  0
 17 18  2  0  0  0  0
 17 19  1  0  0  0  0
 19 20  1  0  0  0  0
 21 22  2  0  0  0  0
 21 23  1  0  0  0  0
 23 24  1  0  0  0  0
 23 25  1  0  0  0  0
 25 26  1  0  0  0  0
 25 27  1  0  0  0  0
 25 28  1  0  0  0  0
M  END
$$$$

  -OEChem-02102214123D

 28 27  0     1  0  0  0  0  0999 V2000
   -3.1604   -3.7864    1.2289 H   0  0  0  0  0  0  0  0  0  0  0  0
   -3.1597   -2.7885    0.7817 C   0  0  0  0  0  0  0  0  0  0  0  0
   -3.8417   -2.1486    1.3467 H   0  0  0  0  0  0  0  0  0  0  0  0
   -3.5126   -2.8637   -0.2496 H   0  0  0  0  0  0  0  0  0  0  0  0
   -1.7607   -2.2033    0.8073 C   0  0  0  0  0  0  0  0  0  0  0  0
   -0.8342   -2.8466    1.2753 O   0  0  0  0  0  0  0  0  0  0  0  0
   -1.5395   -0.9410    0.3003 N   0  0  0  0  0  0  0  0  0  0  0  0
   -2.3430   -0.4275   -0.0604 H   0  0  0  0  0  0  0  0  0  0  0  0
   -0.2443   -0.2487    0.2804 C   0  0  1  0  0  0  0  0  0  0  0  0
    0.4126   -0.7176    1.0204 H   0  0  0  0  0  0  0  0  0  0  0  0
    0.4042   -0.4728   -1.1131 C   0  0  0  0  0  0  0  0  0  0  0  0
    1.3590   -0.9814   -0.9441 H   0  0  0  0  0  0  0  0  0  0  0  0
   -0.2046   -1.1638   -1.7076 H   0  0  0  0  0  0  0  0  0  0  0  0
    0.6998    0.7964   -1.9455 C   0  0  0  0  0  0  0  0  0  0  0  0
    1.2232    1.5403   -1.3391 H   0  0  0  0  0  0  0  0  0  0  0  0
    1.3702    0.5258   -2.7656 H   0  0  0  0  0  0  0  0  0  0  0  0
   -0.5422    1.4364   -2.5733 C   0  0  0  0  0  0  0  0  0  0  0  0
   -1.5360    0.7581   -2.7841 O   0  0  0  0  0  0  0  0  0  0  0  0
   -0.4562    2.7498   -2.8845 O   0  0  0  0  0  0  0  0  0  0  0  0
   -1.3363    2.9989   -3.2042 H   0  0  0  0  0  0  0  0  0  0  0  0
   -0.3964    1.2201    0.7390 C   0  0  0  0  0  0  0  0  0  0  0  0
   -1.3639    1.8852    0.3876 O   0  0  0  0  0  0  0  0  0  0  0  0
    0.5020    1.7696    1.6353 N   0  0  0  0  0  0  0  0  0  0  0  0
    1.2464    1.1720    1.9826 H   0  0  0  0  0  0  0  0  0  0  0  0
    0.3626    3.1141    2.1827 C   0  0  0  0  0  0  0  0  0  0  0  0
   -0.5742    3.2048    2.7429 H   0  0  0  0  0  0  0  0  0  0  0  0
    1.1933    3.3363    2.8598 H   0  0  0  0  0  0  0  0  0  0  0  0
    0.3651    3.8574    1.3782 H   0  0  0  0  0  0  0  0  0  0  0  0
  1  2  1  0  0  0  0
  2  3  1  0  0  0  0
  2  4  1  0  0  0  0
  2  5  1  0  0  0  0
  5  6  2  0  0  0  0
  5  7  1  0  0  0  0
  7  8  1  0  0  0  0
  7  9  1  0  0  0  0
  9 10  1  0  0  0  0
  9 11  1  0  0  0  0
  9 21  1  0  0  0  0
 11 12  1  0  0  0  0
 11 13  1  0  0  0  0
 11 14  1  0  0  0  0
 14 15  1  0  0  0  0
 14 16  1  0  0  0  0
 14 17  1  0  0  0  0
 17 18  2  0  0  0  0
 17 19  1  0  0  0  0
 19 20  1  0  0  0  0
 21 22  2  0  0  0  0
 21 23  1  0  0  0  0
 23 24  1  0  0  0  0
 23 25  1  0  0  0  0
 25 26  1  0  0  0  0
 25 27  1  0  0  0  0
 25 28  1  0  0  0  0
M  END
$$$$

  -OEChem-02102214123D

 28 27  0     1  0  0  0  0  0999 V2000
   -3.1342   -3.7925    1.2521 H   0  0  0  0  0  0  0  0  0  0  0  0
   -3.1557   -2.7923    0.8103 C   0  0  0  0  0  0  0  0  0  0  0  0
   -3.8227   -2.1604    1.4016 H   0  0  0  0  0  0  0  0  0  0  0  0
   -3.5426   -2.8648   -0.2090 H   0  0  0  0  0  0  0  0  0  0  0  0
   -1.7604   -2.1981    0.7917 C   0  0  0  0  0  0  0  0  0  0  0  0
   -0.8116   -2.8473    1.2038 O   0  0  0  0  0  0  0  0  0  0  0  0
   -1.5655   -0.9250    0.3004 N   0  0  0  0  0  0  0  0  0  0  0  0
   -2.3874   -0.4030   -0.0022 H   0  0  0  0  0  0  0  0  0  0  0  0
   -0.2797   -0.2152    0.2690 C   0  0  1  0  0  0  0  0  0  0  0  0
    0.3704   -0.6811    1.0168 H   0  0  0  0  0  0  0  0  0  0  0  0
    0.4065   -0.4563   -1.1044 C   0  0  0  0  0  0  0  0  0  0  0  0
    1.3562   -0.9672   -0.9157 H   0  0  0  0  0  0  0  0  0  0  0  0
   -0.2034   -1.1505   -1.6936 H   0  0  0  0  0  0  0  0  0  0  0  0
    0.7059    0.7812   -1.9795 C   0  0  0  0  0  0  0  0  0  0  0  0
    1.3962    1.4413   -1.4467 H   0  0  0  0  0  0  0  0  0  0  0  0
    1.2053    0.4594   -2.8973 H   0  0  0  0  0  0  0  0  0  0  0  0
   -0.5313    1.5886   -2.3741 C   0  0  0  0  0  0  0  0  0  0  0  0
   -1.5592    0.9949   -2.6605 O   0  0  0  0  0  0  0  0  0  0  0  0
   -0.4116    2.9356   -2.3959 O   0  0  0  0  0  0  0  0  0  0  0  0
   -1.3039    3.2712   -2.5714 H   0  0  0  0  0  0  0  0  0  0  0  0
   -0.4151    1.2488    0.7484 C   0  0  0  0  0  0  0  0  0  0  0  0
   -1.4227    1.8973    0.4907 O   0  0  0  0  0  0  0  0  0  0  0  0
    0.5080    1.7810    1.6301 N   0  0  0  0  0  0  0  0  0  0  0  0
    1.2830    1.1896    1.9158 H   0  0  0  0  0  0  0  0  0  0  0  0
    0.3775    3.1084    2.2195 C   0  0  0  0  0  0  0  0  0  0  0  0
   -0.5396    3.1755    2.8144 H   0  0  0  0  0  0  0  0  0  0  0  0
    1.2294    3.3187    2.8732 H   0  0  0  0  0  0  0  0  0  0  0  0
    0.3462    3.8735    1.4363 H   0  0  0  0  0  0  0  0  0  0  0  0
  1  2  1  0  0  0  0
  2  3  1  0  0  0  0
  2  4  1  0  0  0  0
  2  5  1  0  0  0  0
  5  6  2  0  0  0  0
  5  7  1  0  0  0  0
  7  8  1  0  0  0  0
  7  9  1  0  0  0  0
  9 10  1  0  0  0  0
  9 11  1  0  0  0  0
  9 21  1  0  0  0  0
 11 12  1  0  0  0  0
 11 13  1  0  0  0  0
 11 14  1  0  0  0  0
 14 15  1  0  0  0  0
 14 16  1  0  0  0  0
 14 17  1  0  0  0  0
 17 18  2  0  0  0  0
 17 19  1  0  0  0  0
 19 20  1  0  0  0  0
 21 22  2  0  0  0  0
 21 23  1  0  0  0  0
 23 24  1  0  0  0  0
 23 25  1  0  0  0  0
 25 26  1  0  0  0  0
 25 27  1  0  0  0  0
 25 28  1  0  0  0  0
M  END
$$$$

  -OEChem-02102214123D

 28 27  0     1  0  0  0  0  0999 V2000
   -3.0780   -3.8193    1.2807 H   0  0  0  0  0  0  0  0  0  0  0  0
   -3.1307   -2.8051    0.8753 C   0  0  0  0  0  0  0  0  0  0  0  0
   -3.7615   -2.1965    1.5278 H   0  0  0  0  0  0  0  0  0  0  0  0
   -3.5800   -2.8458   -0.1198 H   0  0  0  0  0  0  0  0  0  0  0  0
   -1.7415   -2.2027    0.7906 C   0  0  0  0  0  0  0  0  0  0  0  0
   -0.7679   -2.8548    1.1346 O   0  0  0  0  0  0  0  0  0  0  0  0
   -1.5816   -0.9166    0.3205 N   0  0  0  0  0  0  0  0  0  0  0  0
   -2.4244   -0.3875    0.0981 H   0  0  0  0  0  0  0  0  0  0  0  0
   -0.3079   -0.1858    0.2654 C   0  0  1  0  0  0  0  0  0  0  0  0
    0.3495   -0.6497    1.0084 H   0  0  0  0  0  0  0  0  0  0  0  0
    0.3916   -0.4333   -1.1034 C   0  0  0  0  0  0  0  0  0  0  0  0
    1.3389   -0.9466   -0.9084 H   0  0  0  0  0  0  0  0  0  0  0  0
   -0.2254   -1.1359   -1.6747 H   0  0  0  0  0  0  0  0  0  0  0  0
    0.6913    0.7632   -2.0376 C   0  0  0  0  0  0  0  0  0  0  0  0
    1.5490    1.3094   -1.6349 H   0  0  0  0  0  0  0  0  0  0  0  0
    0.9784    0.3892   -3.0242 H   0  0  0  0  0  0  0  0  0  0  0  0
   -0.4506    1.7596   -2.2147 C   0  0  0  0  0  0  0  0  0  0  0  0
   -1.5374    1.3338   -2.5701 O   0  0  0  0  0  0  0  0  0  0  0  0
   -0.1964    3.0652   -1.9678 O   0  0  0  0  0  0  0  0  0  0  0  0
   -1.0582    3.5074   -2.0188 H   0  0  0  0  0  0  0  0  0  0  0  0
   -0.4417    1.2671    0.7778 C   0  0  0  0  0  0  0  0  0  0  0  0
   -1.4826    1.8920    0.6056 O   0  0  0  0  0  0  0  0  0  0  0  0
    0.5053    1.7901    1.6392 N   0  0  0  0  0  0  0  0  0  0  0  0
    1.3183    1.2191    1.8505 H   0  0  0  0  0  0  0  0  0  0  0  0
    0.3814    3.1012    2.2649 C   0  0  0  0  0  0  0  0  0  0  0  0
   -0.4982    3.1337    2.9164 H   0  0  0  0  0  0  0  0  0  0  0  0
    1.2675    3.3178    2.8690 H   0  0  0  0  0  0  0  0  0  0  0  0
    0.2845    3.8815    1.5025 H   0  0  0  0  0  0  0  0  0  0  0  0
  1  2  1  0  0  0  0
  2  3  1  0  0  0  0
  2  4  1  0  0  0  0
  2  5  1  0  0  0  0
  5  6  2  0  0  0  0
  5  7  1  0  0  0  0
  7  8  1  0  0  0  0
  7  9  1  0  0  0  0
  9 10  1  0  0  0  0
  9 11  1  0  0  0  0
  9 21  1  0  0  0  0
 11 12  1  0  0  0  0
 11 13  1  0  0  0  0
 11 14  1  0  0  0  0
 14 15  1  0  0  0  0
 14 16  1  0  0  0  0
 14 17  1  0  0  0  0
 17 18  2  0  0  0  0
 17 19  1  0  0  0  0
 19 20  1  0  0  0  0
 21 22  2  0  0  0  0
 21 23  1  0  0  0  0
 23 24  1  0  0  0  0
 23 25  1  0  0  0  0
 25 26  1  0  0  0  0
 25 27  1  0  0  0  0
 25 28  1  0  0  0  0
M  END
$$$$

  -OEChem-02102214123D

 28 27  0     1  0  0  0  0  0999 V2000
   -2.9862   -3.8462    1.4026 H   0  0  0  0  0  0  0  0  0  0  0  0
   -3.0728   -2.8352    0.9949 C   0  0  0  0  0  0  0  0  0  0  0  0
   -3.6904   -2.2356    1.6680 H   0  0  0  0  0  0  0  0  0  0  0  0
   -3.5578   -2.8895    0.0172 H   0  0  0  0  0  0  0  0  0  0  0  0
   -1.6992   -2.2071    0.8559 C   0  0  0  0  0  0  0  0  0  0  0  0
   -0.7019   -2.8391    1.1680 O   0  0  0  0  0  0  0  0  0  0  0  0
   -1.5798   -0.9209    0.3731 N   0  0  0  0  0  0  0  0  0  0  0  0
   -2.4404   -0.4029    0.1970 H   0  0  0  0  0  0  0  0  0  0  0  0
   -0.3243   -0.1598    0.2948 C   0  0  1  0  0  0  0  0  0  0  0  0
    0.3426   -0.5952    1.0464 H   0  0  0  0  0  0  0  0  0  0  0  0
    0.3892   -0.4341   -1.0651 C   0  0  0  0  0  0  0  0  0  0  0  0
    1.3380   -0.9356   -0.8467 H   0  0  0  0  0  0  0  0  0  0  0  0
   -0.2205   -1.1673   -1.6047 H   0  0  0  0  0  0  0  0  0  0  0  0
    0.6885    0.7007   -2.0802 C   0  0  0  0  0  0  0  0  0  0  0  0
    1.6779    1.1045   -1.8473 H   0  0  0  0  0  0  0  0  0  0  0  0
    0.7471    0.2735   -3.0855 H   0  0  0  0  0  0  0  0  0  0  0  0
   -0.2722    1.8832   -2.1162 C   0  0  0  0  0  0  0  0  0  0  0  0
   -1.3898    1.6933   -2.5646 O   0  0  0  0  0  0  0  0  0  0  0  0
    0.1650    3.0809   -1.6624 O   0  0  0  0  0  0  0  0  0  0  0  0
   -0.6157    3.6572   -1.6776 H   0  0  0  0  0  0  0  0  0  0  0  0
   -0.4886    1.2922    0.7979 C   0  0  0  0  0  0  0  0  0  0  0  0
   -1.5495    1.8859    0.6376 O   0  0  0  0  0  0  0  0  0  0  0  0
    0.4561    1.8459    1.6429 N   0  0  0  0  0  0  0  0  0  0  0  0
    1.3003    1.3104    1.8223 H   0  0  0  0  0  0  0  0  0  0  0  0
    0.3130    3.1624    2.2527 C   0  0  0  0  0  0  0  0  0  0  0  0
   -0.5768    3.1951    2.8903 H   0  0  0  0  0  0  0  0  0  0  0  0
    1.1877    3.3918    2.8690 H   0  0  0  0  0  0  0  0  0  0  0  0
    0.2228    3.9335    1.4803 H   0  0  0  0  0  0  0  0  0  0  0  0
  1  2  1  0  0  0  0
  2  3  1  0  0  0  0
  2  4  1  0  0  0  0
  2  5  1  0  0  0  0
  5  6  2  0  0  0  0
  5  7  1  0  0  0  0
  7  8  1  0  0  0  0
  7  9  1  0  0  0  0
  9 10  1  0  0  0  0
  9 11  1  0  0  0  0
  9 21  1  0  0  0  0
 11 12  1  0  0  0  0
 11 13  1  0  0  0  0
 11 14  1  0  0  0  0
 14 15  1  0  0  0  0
 14 16  1  0  0  0  0
 14 17  1  0  0  0  0
 17 18  2  0  0  0  0
 17 19  1  0  0  0  0
 19 20  1  0  0  0  0
 21 22  2  0  0  0  0
 21 23  1  0  0  0  0
 23 24  1  0  0  0  0
 23 25  1  0  0  0  0
 25 26  1  0  0  0  0
 25 27  1  0  0  0  0
 25 28  1  0  0  0  0
M  END
$$$$

  -OEChem-02102214123D

 28 27  0     1  0  0  0  0  0999 V2000
   -3.2613   -3.7674    1.0585 H   0  0  0  0  0  0  0  0  0  0  0  0
   -3.2621   -2.7513    0.6546 C   0  0  0  0  0  0  0  0  0  0  0  0
   -3.9323   -2.1332    1.2570 H   0  0  0  0  0  0  0  0  0  0  0  0
   -3.6307   -2.7806   -0.3736 H   0  0  0  0  0  0  0  0  0  0  0  0
   -1.8594   -2.1750    0.6847 C   0  0  0  0  0  0  0  0  0  0  0  0
   -0.9279   -2.8460    1.1006 O   0  0  0  0  0  0  0  0  0  0  0  0
   -1.6389   -0.8895    0.2376 N   0  0  0  0  0  0  0  0  0  0  0  0
   -2.4564   -0.3353   -0.0163 H   0  0  0  0  0  0  0  0  0  0  0  0
   -0.3623   -0.1667    0.3401 C   0  0  1  0  0  0  0  0  0  0  0  0
    0.1880   -0.6245    1.1690 H   0  0  0  0  0  0  0  0  0  0  0  0
    0.5101   -0.4586   -0.9224 C   0  0  0  0  0  0  0  0  0  0  0  0
    1.4013   -0.9932   -0.5769 H   0  0  0  0  0  0  0  0  0  0  0  0
   -0.0464   -1.1782   -1.5330 H   0  0  0  0  0  0  0  0  0  0  0  0
    0.9993    0.6398   -1.9100 C   0  0  0  0  0  0  0  0  0  0  0  0
    2.0660    0.7964   -1.7265 H   0  0  0  0  0  0  0  0  0  0  0  0
    0.9123    0.2517   -2.9292 H   0  0  0  0  0  0  0  0  0  0  0  0
    0.3551    2.0200   -1.8789 C   0  0  0  0  0  0  0  0  0  0  0  0
   -0.6498    2.1919   -2.5463 O   0  0  0  0  0  0  0  0  0  0  0  0
    0.9511    2.9944   -1.1531 O   0  0  0  0  0  0  0  0  0  0  0  0
    0.3577    3.7588   -1.2263 H   0  0  0  0  0  0  0  0  0  0  0  0
   -0.5742    1.2805    0.8342 C   0  0  0  0  0  0  0  0  0  0  0  0
   -1.5863    1.8967    0.5205 O   0  0  0  0  0  0  0  0  0  0  0  0
    0.2485    1.8100    1.8118 N   0  0  0  0  0  0  0  0  0  0  0  0
    1.0634    1.2689    2.0855 H   0  0  0  0  0  0  0  0  0  0  0  0
    0.0450    3.1260    2.4048 C   0  0  0  0  0  0  0  0  0  0  0  0
   -0.9379    3.1830    2.8847 H   0  0  0  0  0  0  0  0  0  0  0  0
    0.8102    3.3219    3.1621 H   0  0  0  0  0  0  0  0  0  0  0  0
    0.1089    3.9052    1.6382 H   0  0  0  0  0  0  0  0  0  0  0  0
  1  2  1  0  0  0  0
  2  3  1  0  0  0  0
  2  4  1  0  0  0  0
  2  5  1  0  0  0  0
  5  6  2  0  0  0  0
  5  7  1  0  0  0  0
  7  8  1  0  0  0  0
  7  9  1  0  0  0  0
  9 10  1  0  0  0  0
  9 11  1  0  0  0  0
  9 21  1  0  0  0  0
 11 12  1  0  0  0  0
 11 13  1  0  0  0  0
 11 14  1  0  0  0  0
 14 15  1  0  0  0  0
 14 16  1  0  0  0  0
 14 17  1  0  0  0  0
 17 18  2  0  0  0  0
 17 19  1  0  0  0  0
 19 20  1  0  0  0  0
 21 22  2  0  0  0  0
 21 23  1  0  0  0  0
 23 24  1  0  0  0  0
 23 25  1  0  0  0  0
 25 26  1  0  0  0  0
 25 27  1  0  0  0  0
 25 28  1  0  0  0  0
M  END
$$$$

  -OEChem-02102214123D

 28 27  0     1  0  0  0  0  0999 V2000
   -3.2100   -3.8047    0.8087 H   0  0  0  0  0  0  0  0  0  0  0  0
   -3.2027   -2.7621    0.4786 C   0  0  0  0  0  0  0  0  0  0  0  0
   -3.8529   -2.1800    1.1362 H   0  0  0  0  0  0  0  0  0  0  0  0
   -3.5899   -2.7126   -0.5419 H   0  0  0  0  0  0  0  0  0  0  0  0
   -1.7910   -2.2086    0.5239 C   0  0  0  0  0  0  0  0  0  0  0  0
   -0.8617   -2.9257    0.8596 O   0  0  0  0  0  0  0  0  0  0  0  0
   -1.5596   -0.8925    0.1834 N   0  0  0  0  0  0  0  0  0  0  0  0
   -2.3748   -0.3034    0.0147 H   0  0  0  0  0  0  0  0  0  0  0  0
   -0.2730   -0.1980    0.3472 C   0  0  1  0  0  0  0  0  0  0  0  0
    0.2945   -0.7277    1.1200 H   0  0  0  0  0  0  0  0  0  0  0  0
    0.5530   -0.3612   -0.9716 C   0  0  0  0  0  0  0  0  0  0  0  0
    1.4515   -0.9205   -0.6898 H   0  0  0  0  0  0  0  0  0  0  0  0
   -0.0085   -1.0289   -1.6345 H   0  0  0  0  0  0  0  0  0  0  0  0
    1.0446    0.8203   -1.8617 C   0  0  0  0  0  0  0  0  0  0  0  0
    2.1319    0.7441   -1.9575 H   0  0  0  0  0  0  0  0  0  0  0  0
    0.6345    0.6727   -2.8650 H   0  0  0  0  0  0  0  0  0  0  0  0
    0.7279    2.2564   -1.4695 C   0  0  0  0  0  0  0  0  0  0  0  0
    1.4897    2.8288   -0.7069 O   0  0  0  0  0  0  0  0  0  0  0  0
   -0.3772    2.8250   -2.0026 O   0  0  0  0  0  0  0  0  0  0  0  0
   -0.4834    3.6785   -1.5561 H   0  0  0  0  0  0  0  0  0  0  0  0
   -0.5165    1.1981    0.9621 C   0  0  0  0  0  0  0  0  0  0  0  0
   -1.5252    1.8306    0.6645 O   0  0  0  0  0  0  0  0  0  0  0  0
    0.2812    1.6590    1.9931 N   0  0  0  0  0  0  0  0  0  0  0  0
    1.1411    1.1507    2.1772 H   0  0  0  0  0  0  0  0  0  0  0  0
    0.1014    2.9674    2.6103 C   0  0  0  0  0  0  0  0  0  0  0  0
   -0.9032    3.0564    3.0370 H   0  0  0  0  0  0  0  0  0  0  0  0
    0.8296    3.1096    3.4144 H   0  0  0  0  0  0  0  0  0  0  0  0
    0.2424    3.7619    1.8699 H   0  0  0  0  0  0  0  0  0  0  0  0
  1  2  1  0  0  0  0
  2  3  1  0  0  0  0
  2  4  1  0  0  0  0
  2  5  1  0  0  0  0
  5  6  2  0  0  0  0
  5  7  1  0  0  0  0
  7  8  1  0  0  0  0
  7  9  1  0  0  0  0
  9 10  1  0  0  0  0
  9 11  1  0  0  0  0
  9 21  1  0  0  0  0
 11 12  1  0  0  0  0
 11 13  1  0  0  0  0
 11 14  1  0  0  0  0
 14 15  1  0  0  0  0
 14 16  1  0  0  0  0
 14 17  1  0  0  0  0
 17 18  2  0  0  0  0
 17 19  1  0  0  0  0
 19 20  1  0  0  0  0
 21 22  2  0  0  0  0
 21 23  1  0  0  0  0
 23 24  1  0  0  0  0
 23 25  1  0  0  0  0
 25 26  1  0  0  0  0
 25 27  1  0  0  0  0
 25 28  1  0  0  0  0
M  END
$$$$

  -OEChem-02102214123D

 28 27  0     1  0  0  0  0  0999 V2000
   -2.9590   -3.9529    0.8585 H   0  0  0  0  0  0  0  0  0  0  0  0
   -3.0155   -2.9062    0.5467 C   0  0  0  0  0  0  0  0  0  0  0  0
   -3.6435   -2.3615    1.2558 H   0  0  0  0  0  0  0  0  0  0  0  0
   -3.4708   -2.8571   -0.4454 H   0  0  0  0  0  0  0  0  0  0  0  0
   -1.6271   -2.2964    0.5096 C   0  0  0  0  0  0  0  0  0  0  0  0
   -0.6484   -2.9854    0.7496 O   0  0  0  0  0  0  0  0  0  0  0  0
   -1.4715   -0.9616    0.2013 N   0  0  0  0  0  0  0  0  0  0  0  0
   -2.3182   -0.3989    0.1195 H   0  0  0  0  0  0  0  0  0  0  0  0
   -0.2029   -0.2231    0.3021 C   0  0  1  0  0  0  0  0  0  0  0  0
    0.4585   -0.7536    0.9957 H   0  0  0  0  0  0  0  0  0  0  0  0
    0.4831   -0.2747   -1.1028 C   0  0  0  0  0  0  0  0  0  0  0  0
    1.4350   -0.7883   -0.9302 H   0  0  0  0  0  0  0  0  0  0  0  0
   -0.0955   -0.9429   -1.7502 H   0  0  0  0  0  0  0  0  0  0  0  0
    0.8391    0.9780   -1.9571 C   0  0  0  0  0  0  0  0  0  0  0  0
    1.8169    0.8177   -2.4203 H   0  0  0  0  0  0  0  0  0  0  0  0
    0.1120    1.0250   -2.7733 H   0  0  0  0  0  0  0  0  0  0  0  0
    0.8493    2.3616   -1.3213 C   0  0  0  0  0  0  0  0  0  0  0  0
    1.7442    2.6217   -0.5330 O   0  0  0  0  0  0  0  0  0  0  0  0
   -0.1138    3.2387   -1.6853 O   0  0  0  0  0  0  0  0  0  0  0  0
    0.0093    4.0236   -1.1315 H   0  0  0  0  0  0  0  0  0  0  0  0
   -0.4884    1.1329    0.9850 C   0  0  0  0  0  0  0  0  0  0  0  0
   -1.5332    1.7302    0.7461 O   0  0  0  0  0  0  0  0  0  0  0  0
    0.3401    1.6051    1.9860 N   0  0  0  0  0  0  0  0  0  0  0  0
    1.2441    1.1519    2.0872 H   0  0  0  0  0  0  0  0  0  0  0  0
    0.1224    2.8780    2.6618 C   0  0  0  0  0  0  0  0  0  0  0  0
   -0.8675    2.9003    3.1301 H   0  0  0  0  0  0  0  0  0  0  0  0
    0.8747    3.0247    3.4427 H   0  0  0  0  0  0  0  0  0  0  0  0
    0.1950    3.7063    1.9494 H   0  0  0  0  0  0  0  0  0  0  0  0
  1  2  1  0  0  0  0
  2  3  1  0  0  0  0
  2  4  1  0  0  0  0
  2  5  1  0  0  0  0
  5  6  2  0  0  0  0
  5  7  1  0  0  0  0
  7  8  1  0  0  0  0
  7  9  1  0  0  0  0
  9 10  1  0  0  0  0
  9 11  1  0  0  0  0
  9 21  1  0  0  0  0
 11 12  1  0  0  0  0
 11 13  1  0  0  0  0
 11 14  1  0  0  0  0
 14 15  1  0  0  0  0
 14 16  1  0  0  0  0
 14 17  1  0  0  0  0
 17 18  2  0  0  0  0
 17 19  1  0  0  0  0
 19 20  1  0  0  0  0
 21 22  2  0  0  0  0
 21 23  1  0  0  0  0
 23 24  1  0  0  0  0
 23 25  1  0  0  0  0
 25 26  1  0  0  0  0
 25 27  1  0  0  0  0
 25 28  1  0  0  0  0
M  END
$$$$

  -OEChem-02102214123D

 28 27  0     1  0  0  0  0  0999 V2000
   -3.1712   -3.7687    1.1812 H   0  0  0  0  0  0  0  0  0  0  0  0
   -3.1696   -2.7401    0.8100 C   0  0  0  0  0  0  0  0  0  0  0  0
   -3.7537   -2.1186    1.4930 H   0  0  0  0  0  0  0  0  0  0  0  0
   -3.6354   -2.7210   -0.1781 H   0  0  0  0  0  0  0  0  0  0  0  0
   -1.7480   -2.2183    0.7221 C   0  0  0  0  0  0  0  0  0  0  0  0
   -0.8102   -2.9396    1.0226 O   0  0  0  0  0  0  0  0  0  0  0  0
   -1.5171   -0.9265    0.2996 N   0  0  0  0  0  0  0  0  0  0  0  0
   -2.3298   -0.3238    0.1709 H   0  0  0  0  0  0  0  0  0  0  0  0
   -0.2059   -0.2593    0.3307 C   0  0  1  0  0  0  0  0  0  0  0  0
    0.4504   -0.7687    1.0448 H   0  0  0  0  0  0  0  0  0  0  0  0
    0.4219   -0.4244   -1.0906 C   0  0  0  0  0  0  0  0  0  0  0  0
    1.3509   -0.9808   -0.9265 H   0  0  0  0  0  0  0  0  0  0  0  0
   -0.2166   -1.0815   -1.6911 H   0  0  0  0  0  0  0  0  0  0  0  0
    0.8090    0.7794   -1.9938 C   0  0  0  0  0  0  0  0  0  0  0  0
    1.5957    0.4652   -2.6851 H   0  0  0  0  0  0  0  0  0  0  0  0
   -0.0700    1.0192   -2.5994 H   0  0  0  0  0  0  0  0  0  0  0  0
    1.2471    2.0858   -1.3420 C   0  0  0  0  0  0  0  0  0  0  0  0
    2.1741    2.0460   -0.5483 O   0  0  0  0  0  0  0  0  0  0  0  0
    0.6157    3.2257   -1.7044 O   0  0  0  0  0  0  0  0  0  0  0  0
    1.0068    3.9347   -1.1736 H   0  0  0  0  0  0  0  0  0  0  0  0
   -0.4311    1.1605    0.8991 C   0  0  0  0  0  0  0  0  0  0  0  0
   -1.4361    1.7913    0.5866 O   0  0  0  0  0  0  0  0  0  0  0  0
    0.4169    1.6807    1.8591 N   0  0  0  0  0  0  0  0  0  0  0  0
    1.3040    1.2021    1.9935 H   0  0  0  0  0  0  0  0  0  0  0  0
    0.2559    3.0155    2.4215 C   0  0  0  0  0  0  0  0  0  0  0  0
   -0.7232    3.1138    2.9022 H   0  0  0  0  0  0  0  0  0  0  0  0
    1.0283    3.2042    3.1733 H   0  0  0  0  0  0  0  0  0  0  0  0
    0.3415    3.7746    1.6371 H   0  0  0  0  0  0  0  0  0  0  0  0
  1  2  1  0  0  0  0
  2  3  1  0  0  0  0
  2  4  1  0  0  0  0
  2  5  1  0  0  0  0
  5  6  2  0  0  0  0
  5  7  1  0  0  0  0
  7  8  1  0  0  0  0
  7  9  1  0  0  0  0
  9 10  1  0  0  0  0
  9 11  1  0  0  0  0
  9 21  1  0  0  0  0
 11 12  1  0  0  0  0
 11 13  1  0  0  0  0
 11 14  1  0  0  0  0
 14 15  1  0  0  0  0
 14 16  1  0  0  0  0
 14 17  1  0  0  0  0
 17 18  2  0  0  0  0
 17 19  1  0  0  0  0
 19 20  1  0  0  0  0
 21 22  2  0  0  0  0
 21 23  1  0  0  0  0
 23 24  1  0  0  0  0
 23 25  1  0  0  0  0
 25 26  1  0  0  0  0
 25 27  1  0  0  0  0
 25 28  1  0  0  0  0
M  END
$$$$

  -OEChem-02102214123D

 28 27  0     1  0  0  0  0  0999 V2000
   -3.2382   -3.7146    1.2155 H   0  0  0  0  0  0  0  0  0  0  0  0
   -3.2036   -2.7173    0.7682 C   0  0  0  0  0  0  0  0  0  0  0  0
   -3.8231   -2.0426    1.3640 H   0  0  0  0  0  0  0  0  0  0  0  0
   -3.6069   -2.7716   -0.2460 H   0  0  0  0  0  0  0  0  0  0  0  0
   -1.7744   -2.2105    0.7303 C   0  0  0  0  0  0  0  0  0  0  0  0
   -0.8602   -2.9246    1.1102 O   0  0  0  0  0  0  0  0  0  0  0  0
   -1.5113   -0.9403    0.2643 N   0  0  0  0  0  0  0  0  0  0  0  0
   -2.3110   -0.3383    0.0684 H   0  0  0  0  0  0  0  0  0  0  0  0
   -0.1964   -0.2835    0.3271 C   0  0  1  0  0  0  0  0  0  0  0  0
    0.4356   -0.7713    1.0772 H   0  0  0  0  0  0  0  0  0  0  0  0
    0.4727   -0.4688   -1.0696 C   0  0  0  0  0  0  0  0  0  0  0  0
    1.3882   -1.0434   -0.8925 H   0  0  0  0  0  0  0  0  0  0  0  0
   -0.1659   -1.1021   -1.6948 H   0  0  0  0  0  0  0  0  0  0  0  0
    0.8764    0.7584   -1.9270 C   0  0  0  0  0  0  0  0  0  0  0  0
    1.4988    0.4219   -2.7604 H   0  0  0  0  0  0  0  0  0  0  0  0
   -0.0397    1.1776   -2.3541 H   0  0  0  0  0  0  0  0  0  0  0  0
    1.6036    1.9017   -1.2230 C   0  0  0  0  0  0  0  0  0  0  0  0
    2.4275    1.6264   -0.3641 O   0  0  0  0  0  0  0  0  0  0  0  0
    1.3261    3.1656   -1.6168 O   0  0  0  0  0  0  0  0  0  0  0  0
    1.8750    3.7466   -1.0703 H   0  0  0  0  0  0  0  0  0  0  0  0
   -0.4411    1.1601    0.8243 C   0  0  0  0  0  0  0  0  0  0  0  0
   -1.4157    1.7869    0.4207 O   0  0  0  0  0  0  0  0  0  0  0  0
    0.3606    1.7208    1.8008 N   0  0  0  0  0  0  0  0  0  0  0  0
    1.2350    1.2422    2.0044 H   0  0  0  0  0  0  0  0  0  0  0  0
    0.1755    3.0780    2.2982 C   0  0  0  0  0  0  0  0  0  0  0  0
   -0.8281    3.1976    2.7200 H   0  0  0  0  0  0  0  0  0  0  0  0
    0.9061    3.2954    3.0833 H   0  0  0  0  0  0  0  0  0  0  0  0
    0.3066    3.8037    1.4890 H   0  0  0  0  0  0  0  0  0  0  0  0
  1  2  1  0  0  0  0
  2  3  1  0  0  0  0
  2  4  1  0  0  0  0
  2  5  1  0  0  0  0
  5  6  2  0  0  0  0
  5  7  1  0  0  0  0
  7  8  1  0  0  0  0
  7  9  1  0  0  0  0
  9 10  1  0  0  0  0
  9 11  1  0  0  0  0
  9 21  1  0  0  0  0
 11 12  1  0  0  0  0
 11 13  1  0  0  0  0
 11 14  1  0  0  0  0
 14 15  1  0  0  0  0
 14 16  1  0  0  0  0
 14 17  1  0  0  0  0
 17 18  2  0  0  0  0
 17 19  1  0  0  0  0
 19 20  1  0  0  0  0
 21 22  2  0  0  0  0
 21 23  1  0  0  0  0
 23 24  1  0  0  0  0
 23 25  1  0  0  0  0
 25 26  1  0  0  0  0
 25 27  1  0  0  0  0
 25 28  1  0  0  0  0
M  END
$$$$

  -OEChem-02102214123D

 28 27  0     1  0  0  0  0  0999 V2000
   -3.2212   -3.7322    1.2539 H   0  0  0  0  0  0  0  0  0  0  0  0
   -3.1961   -2.7408    0.7929 C   0  0  0  0  0  0  0  0  0  0  0  0
   -3.8156   -2.0618    1.3838 H   0  0  0  0  0  0  0  0  0  0  0  0
   -3.6058   -2.8110   -0.2176 H   0  0  0  0  0  0  0  0  0  0  0  0
   -1.7704   -2.2260    0.7387 C   0  0  0  0  0  0  0  0  0  0  0  0
   -0.8506   -2.9283    1.1264 O   0  0  0  0  0  0  0  0  0  0  0  0
   -1.5176   -0.9616    0.2508 N   0  0  0  0  0  0  0  0  0  0  0  0
   -2.3220   -0.3701    0.0434 H   0  0  0  0  0  0  0  0  0  0  0  0
   -0.2072   -0.2948    0.2997 C   0  0  1  0  0  0  0  0  0  0  0  0
    0.4272   -0.7717    1.0548 H   0  0  0  0  0  0  0  0  0  0  0  0
    0.4750   -0.4779   -1.0874 C   0  0  0  0  0  0  0  0  0  0  0  0
    1.3910   -1.0574   -0.9286 H   0  0  0  0  0  0  0  0  0  0  0  0
   -0.1695   -1.0936   -1.7239 H   0  0  0  0  0  0  0  0  0  0  0  0
    0.8443    0.7895   -1.8960 C   0  0  0  0  0  0  0  0  0  0  0  0
    1.2804    0.4849   -2.8510 H   0  0  0  0  0  0  0  0  0  0  0  0
   -0.0739    1.3411   -2.1195 H   0  0  0  0  0  0  0  0  0  0  0  0
    1.8245    1.7522   -1.2225 C   0  0  0  0  0  0  0  0  0  0  0  0
    2.5528    1.3402   -0.3320 O   0  0  0  0  0  0  0  0  0  0  0  0
    1.8481    3.0264   -1.6747 O   0  0  0  0  0  0  0  0  0  0  0  0
    2.5208    3.4868   -1.1516 H   0  0  0  0  0  0  0  0  0  0  0  0
   -0.4347    1.1602    0.7719 C   0  0  0  0  0  0  0  0  0  0  0  0
   -1.4063    1.7881    0.3630 O   0  0  0  0  0  0  0  0  0  0  0  0
    0.3804    1.7306    1.7314 N   0  0  0  0  0  0  0  0  0  0  0  0
    1.2496    1.2436    1.9387 H   0  0  0  0  0  0  0  0  0  0  0  0
    0.2217    3.1033    2.1945 C   0  0  0  0  0  0  0  0  0  0  0  0
   -0.7800    3.2543    2.6108 H   0  0  0  0  0  0  0  0  0  0  0  0
    0.9548    3.3258    2.9757 H   0  0  0  0  0  0  0  0  0  0  0  0
    0.3695    3.8059    1.3678 H   0  0  0  0  0  0  0  0  0  0  0  0
  1  2  1  0  0  0  0
  2  3  1  0  0  0  0
  2  4  1  0  0  0  0
  2  5  1  0  0  0  0
  5  6  2  0  0  0  0
  5  7  1  0  0  0  0
  7  8  1  0  0  0  0
  7  9  1  0  0  0  0
  9 10  1  0  0  0  0
  9 11  1  0  0  0  0
  9 21  1  0  0  0  0
 11 12  1  0  0  0  0
 11 13  1  0  0  0  0
 11 14  1  0  0  0  0
 14 15  1  0  0  0  0
 14 16  1  0  0  0  0
 14 17  1  0  0  0  0
 17 18  2  0  0  0  0
 17 19  1  0  0  0  0
 19 20  1  0  0  0  0
 21 22  2  0  0  0  0
 21 23  1  0  0  0  0
 23 24  1  0  0  0  0
 23 25  1  0  0  0  0
 25 26  1  0  0  0  0
 25 27  1  0  0  0  0
 25 28  1  0  0  0  0
M  END
$$$$

  -OEChem-02102214123D

 28 27  0     1  0  0  0  0  0999 V2000
   -3.1895   -3.7603    1.2750 H   0  0  0  0  0  0  0  0  0  0  0  0
   -3.1817   -2.7717    0.8076 C   0  0  0  0  0  0  0  0  0  0  0  0
   -3.7994   -2.0957    1.4035 H   0  0  0  0  0  0  0  0  0  0  0  0
   -3.6056   -2.8524   -0.1962 H   0  0  0  0  0  0  0  0  0  0  0  0
   -1.7626   -2.2419    0.7288 C   0  0  0  0  0  0  0  0  0  0  0  0
   -0.8282   -2.9370    1.0944 O   0  0  0  0  0  0  0  0  0  0  0  0
   -1.5335   -0.9728    0.2417 N   0  0  0  0  0  0  0  0  0  0  0  0
   -2.3492   -0.3904    0.0551 H   0  0  0  0  0  0  0  0  0  0  0  0
   -0.2324   -0.2878    0.2761 C   0  0  1  0  0  0  0  0  0  0  0  0
    0.4048   -0.7610    1.0311 H   0  0  0  0  0  0  0  0  0  0  0  0
    0.4700   -0.4647   -1.0982 C   0  0  0  0  0  0  0  0  0  0  0  0
    1.3882   -1.0432   -0.9478 H   0  0  0  0  0  0  0  0  0  0  0  0
   -0.1724   -1.0755   -1.7415 H   0  0  0  0  0  0  0  0  0  0  0  0
    0.8068    0.8273   -1.8803 C   0  0  0  0  0  0  0  0  0  0  0  0
    1.0496    0.5479   -2.9092 H   0  0  0  0  0  0  0  0  0  0  0  0
   -0.0688    1.4811   -1.9277 H   0  0  0  0  0  0  0  0  0  0  0  0
    1.9999    1.6209   -1.3402 C   0  0  0  0  0  0  0  0  0  0  0  0
    2.5958    1.2288   -0.3479 O   0  0  0  0  0  0  0  0  0  0  0  0
    2.3391    2.7419   -2.0159 O   0  0  0  0  0  0  0  0  0  0  0  0
    3.1027    3.1164   -1.5518 H   0  0  0  0  0  0  0  0  0  0  0  0
   -0.4393    1.1686    0.7525 C   0  0  0  0  0  0  0  0  0  0  0  0
   -1.4299    1.7937    0.3872 O   0  0  0  0  0  0  0  0  0  0  0  0
    0.4013    1.7290    1.6954 N   0  0  0  0  0  0  0  0  0  0  0  0
    1.2827    1.2466    1.8591 H   0  0  0  0  0  0  0  0  0  0  0  0
    0.2616    3.1008    2.1671 C   0  0  0  0  0  0  0  0  0  0  0  0
   -0.7340    3.2604    2.5947 H   0  0  0  0  0  0  0  0  0  0  0  0
    1.0051    3.3109    2.9420 H   0  0  0  0  0  0  0  0  0  0  0  0
    0.4087    3.8065    1.3428 H   0  0  0  0  0  0  0  0  0  0  0  0
  1  2  1  0  0  0  0
  2  3  1  0  0  0  0
  2  4  1  0  0  0  0
  2  5  1  0  0  0  0
  5  6  2  0  0  0  0
  5  7  1  0  0  0  0
  7  8  1  0  0  0  0
  7  9  1  0  0  0  0
  9 10  1  0  0  0  0
  9 11  1  0  0  0  0
  9 21  1  0  0  0  0
 11 12  1  0  0  0  0
 11 13  1  0  0  0  0
 11 14  1  0  0  0  0
 14 15  1  0  0  0  0
 14 16  1  0  0  0  0
 14 17  1  0  0  0  0
 17 18  2  0  0  0  0
 17 19  1  0  0  0  0
 19 20  1  0  0  0  0
 21 22  2  0  0  0  0
 21 23  1  0  0  0  0
 23 24  1  0  0  0  0
 23 25  1  0  0  0  0
 25 26  1  0  0  0  0
 25 27  1  0  0  0  0
 25 28  1  0  0  0  0
M  END
$$$$

  -OEChem-02102214123D

 28 27  0     1  0  0  0  0  0999 V2000
   -3.1357   -3.8055    1.2435 H   0  0  0  0  0  0  0  0  0  0  0  0
   -3.1537   -2.8047    0.8032 C   0  0  0  0  0  0  0  0  0  0  0  0
   -3.7688   -2.1554    1.4309 H   0  0  0  0  0  0  0  0  0  0  0  0
   -3.5987   -2.8655   -0.1929 H   0  0  0  0  0  0  0  0  0  0  0  0
   -1.7451   -2.2503    0.7074 C   0  0  0  0  0  0  0  0  0  0  0  0
   -0.7929   -2.9379    1.0398 O   0  0  0  0  0  0  0  0  0  0  0  0
   -1.5456   -0.9693    0.2384 N   0  0  0  0  0  0  0  0  0  0  0  0
   -2.3744   -0.3959    0.0852 H   0  0  0  0  0  0  0  0  0  0  0  0
   -0.2560   -0.2622    0.2596 C   0  0  1  0  0  0  0  0  0  0  0  0
    0.3891   -0.7371    1.0068 H   0  0  0  0  0  0  0  0  0  0  0  0
    0.4566   -0.4205   -1.1103 C   0  0  0  0  0  0  0  0  0  0  0  0
    1.3810   -0.9907   -0.9657 H   0  0  0  0  0  0  0  0  0  0  0  0
   -0.1802   -1.0357   -1.7549 H   0  0  0  0  0  0  0  0  0  0  0  0
    0.7658    0.8833   -1.8854 C   0  0  0  0  0  0  0  0  0  0  0  0
    0.7858    0.6358   -2.9506 H   0  0  0  0  0  0  0  0  0  0  0  0
   -0.0185    1.6335   -1.7602 H   0  0  0  0  0  0  0  0  0  0  0  0
    2.1306    1.4871   -1.5508 C   0  0  0  0  0  0  0  0  0  0  0  0
    2.6118    1.3038   -0.4425 O   0  0  0  0  0  0  0  0  0  0  0  0
    2.7399    2.2109   -2.5176 O   0  0  0  0  0  0  0  0  0  0  0  0
    3.5776    2.5167   -2.1381 H   0  0  0  0  0  0  0  0  0  0  0  0
   -0.4543    1.1861    0.7622 C   0  0  0  0  0  0  0  0  0  0  0  0
   -1.4694    1.8023    0.4524 O   0  0  0  0  0  0  0  0  0  0  0  0
    0.4097    1.7323    1.6920 N   0  0  0  0  0  0  0  0  0  0  0  0
    1.3085    1.2663    1.7983 H   0  0  0  0  0  0  0  0  0  0  0  0
    0.2727    3.0936    2.1939 C   0  0  0  0  0  0  0  0  0  0  0  0
   -0.7106    3.2361    2.6547 H   0  0  0  0  0  0  0  0  0  0  0  0
    1.0379    3.2959    2.9495 H   0  0  0  0  0  0  0  0  0  0  0  0
    0.3884    3.8156    1.3789 H   0  0  0  0  0  0  0  0  0  0  0  0
  1  2  1  0  0  0  0
  2  3  1  0  0  0  0
  2  4  1  0  0  0  0
  2  5  1  0  0  0  0
  5  6  2  0  0  0  0
  5  7  1  0  0  0  0
  7  8  1  0  0  0  0
  7  9  1  0  0  0  0
  9 10  1  0  0  0  0
  9 11  1  0  0  0  0
  9 21  1  0  0  0  0
 11 12  1  0  0  0  0
 11 13  1  0  0  0  0
 11 14  1  0  0  0  0
 14 15  1  0  0  0  0
 14 16  1  0  0  0  0
 14 17  1  0  0  0  0
 17 18  2  0  0  0  0
 17 19  1  0  0  0  0
 19 20  1  0  0  0  0
 21 22  2  0  0  0  0
 21 23  1  0  0  0  0
 23 24  1  0  0  0  0
 23 25  1  0  0  0  0
 25 26  1  0  0  0  0
 25 27  1  0  0  0  0
 25 28  1  0  0  0  0
M  END
$$$$

  -OEChem-02102214123D

 28 27  0     1  0  0  0  0  0999 V2000
   -3.0815   -3.8403    1.1935 H   0  0  0  0  0  0  0  0  0  0  0  0
   -3.1227   -2.8289    0.7797 C   0  0  0  0  0  0  0  0  0  0  0  0
   -3.7391   -2.2065    1.4328 H   0  0  0  0  0  0  0  0  0  0  0  0
   -3.5817   -2.8716   -0.2109 H   0  0  0  0  0  0  0  0  0  0  0  0
   -1.7250   -2.2484    0.6775 C   0  0  0  0  0  0  0  0  0  0  0  0
   -0.7567   -2.9274    0.9796 O   0  0  0  0  0  0  0  0  0  0  0  0
   -1.5525   -0.9545    0.2331 N   0  0  0  0  0  0  0  0  0  0  0  0
   -2.3924   -0.3931    0.0973 H   0  0  0  0  0  0  0  0  0  0  0  0
   -0.2739   -0.2277    0.2485 C   0  0  1  0  0  0  0  0  0  0  0  0
    0.3787   -0.7087    0.9852 H   0  0  0  0  0  0  0  0  0  0  0  0
    0.4415   -0.3686   -1.1210 C   0  0  0  0  0  0  0  0  0  0  0  0
    1.3730   -0.9257   -0.9715 H   0  0  0  0  0  0  0  0  0  0  0  0
   -0.1823   -0.9982   -1.7645 H   0  0  0  0  0  0  0  0  0  0  0  0
    0.7328    0.9381   -1.9031 C   0  0  0  0  0  0  0  0  0  0  0  0
    0.5001    0.7529   -2.9559 H   0  0  0  0  0  0  0  0  0  0  0  0
    0.1045    1.7777   -1.6018 H   0  0  0  0  0  0  0  0  0  0  0  0
    2.2044    1.3349   -1.8336 C   0  0  0  0  0  0  0  0  0  0  0  0
    2.7380    1.3814   -0.7358 O   0  0  0  0  0  0  0  0  0  0  0  0
    2.8461    1.6139   -2.9916 O   0  0  0  0  0  0  0  0  0  0  0  0
    3.7558    1.8419   -2.7469 H   0  0  0  0  0  0  0  0  0  0  0  0
   -0.4651    1.2090    0.7821 C   0  0  0  0  0  0  0  0  0  0  0  0
   -1.4875    1.8279    0.5045 O   0  0  0  0  0  0  0  0  0  0  0  0
    0.4176    1.7395    1.7038 N   0  0  0  0  0  0  0  0  0  0  0  0
    1.3062    1.2569    1.8157 H   0  0  0  0  0  0  0  0  0  0  0  0
    0.2881    3.0898    2.2371 C   0  0  0  0  0  0  0  0  0  0  0  0
   -0.6821    3.2172    2.7291 H   0  0  0  0  0  0  0  0  0  0  0  0
    1.0742    3.2823    2.9736 H   0  0  0  0  0  0  0  0  0  0  0  0
    0.3757    3.8284    1.4335 H   0  0  0  0  0  0  0  0  0  0  0  0
  1  2  1  0  0  0  0
  2  3  1  0  0  0  0
  2  4  1  0  0  0  0
  2  5  1  0  0  0  0
  5  6  2  0  0  0  0
  5  7  1  0  0  0  0
  7  8  1  0  0  0  0
  7  9  1  0  0  0  0
  9 10  1  0  0  0  0
  9 11  1  0  0  0  0
  9 21  1  0  0  0  0
 11 12  1  0  0  0  0
 11 13  1  0  0  0  0
 11 14  1  0  0  0  0
 14 15  1  0  0  0  0
 14 16  1  0  0  0  0
 14 17  1  0  0  0  0
 17 18  2  0  0  0  0
 17 19  1  0  0  0  0
 19 20  1  0  0  0  0
 21 22  2  0  0  0  0
 21 23  1  0  0  0  0
 23 24  1  0  0  0  0
 23 25  1  0  0  0  0
 25 26  1  0  0  0  0
 25 27  1  0  0  0  0
 25 28  1  0  0  0  0
M  END
$$$$

  -OEChem-02102214123D

 28 27  0     1  0  0  0  0  0999 V2000
   -3.0620   -3.8407    1.1137 H   0  0  0  0  0  0  0  0  0  0  0  0
   -3.1046   -2.8140    0.7399 C   0  0  0  0  0  0  0  0  0  0  0  0
   -3.7186   -2.2172    1.4186 H   0  0  0  0  0  0  0  0  0  0  0  0
   -3.5664   -2.8184   -0.2503 H   0  0  0  0  0  0  0  0  0  0  0  0
   -1.7074   -2.2291    0.6570 C   0  0  0  0  0  0  0  0  0  0  0  0
   -0.7405   -2.9061    0.9683 O   0  0  0  0  0  0  0  0  0  0  0  0
   -1.5338   -0.9302    0.2275 N   0  0  0  0  0  0  0  0  0  0  0  0
   -2.3732   -0.3710    0.0800 H   0  0  0  0  0  0  0  0  0  0  0  0
   -0.2552   -0.2037    0.2519 C   0  0  1  0  0  0  0  0  0  0  0  0
    0.4029   -0.6924    0.9783 H   0  0  0  0  0  0  0  0  0  0  0  0
    0.4405   -0.3309   -1.1314 C   0  0  0  0  0  0  0  0  0  0  0  0
    1.3754   -0.8811   -0.9761 H   0  0  0  0  0  0  0  0  0  0  0  0
   -0.1740   -0.9698   -1.7749 H   0  0  0  0  0  0  0  0  0  0  0  0
    0.7378    0.9720   -1.9229 C   0  0  0  0  0  0  0  0  0  0  0  0
    0.2249    0.9143   -2.8874 H   0  0  0  0  0  0  0  0  0  0  0  0
    0.3704    1.8763   -1.4376 H   0  0  0  0  0  0  0  0  0  0  0  0
    2.2292    1.1449   -2.1861 C   0  0  0  0  0  0  0  0  0  0  0  0
    2.9683    1.2881   -1.2254 O   0  0  0  0  0  0  0  0  0  0  0  0
    2.6612    1.1152   -3.4680 O   0  0  0  0  0  0  0  0  0  0  0  0
    3.6224    1.2339   -3.4289 H   0  0  0  0  0  0  0  0  0  0  0  0
   -0.4590    1.2240    0.8031 C   0  0  0  0  0  0  0  0  0  0  0  0
   -1.4706    1.8516    0.5076 O   0  0  0  0  0  0  0  0  0  0  0  0
    0.4157    1.7500    1.7352 N   0  0  0  0  0  0  0  0  0  0  0  0
    1.2673    1.2278    1.9241 H   0  0  0  0  0  0  0  0  0  0  0  0
    0.2631    3.0798    2.3123 C   0  0  0  0  0  0  0  0  0  0  0  0
   -0.6884    3.1573    2.8489 H   0  0  0  0  0  0  0  0  0  0  0  0
    1.0745    3.2812    3.0184 H   0  0  0  0  0  0  0  0  0  0  0  0
    0.2890    3.8439    1.5281 H   0  0  0  0  0  0  0  0  0  0  0  0
  1  2  1  0  0  0  0
  2  3  1  0  0  0  0
  2  4  1  0  0  0  0
  2  5  1  0  0  0  0
  5  6  2  0  0  0  0
  5  7  1  0  0  0  0
  7  8  1  0  0  0  0
  7  9  1  0  0  0  0
  9 10  1  0  0  0  0
  9 11  1  0  0  0  0
  9 21  1  0  0  0  0
 11 12  1  0  0  0  0
 11 13  1  0  0  0  0
 11 14  1  0  0  0  0
 14 15  1  0  0  0  0
 14 16  1  0  0  0  0
 14 17  1  0  0  0  0
 17 18  2  0  0  0  0
 17 19  1  0  0  0  0
 19 20  1  0  0  0  0
 21 22  2  0  0  0  0
 21 23  1  0  0  0  0
 23 24  1  0  0  0  0
 23 25  1  0  0  0  0
 25 26  1  0  0  0  0
 25 27  1  0  0  0  0
 25 28  1  0  0  0  0
M  END
$$$$

  -OEChem-02102214123D

 28 27  0     1  0  0  0  0  0999 V2000
   -3.0702   -3.8280    1.0597 H   0  0  0  0  0  0  0  0  0  0  0  0
   -3.1036   -2.7958    0.6998 C   0  0  0  0  0  0  0  0  0  0  0  0
   -3.7230   -2.2057    1.3794 H   0  0  0  0  0  0  0  0  0  0  0  0
   -3.5537   -2.7839   -0.2958 H   0  0  0  0  0  0  0  0  0  0  0  0
   -1.7026   -2.2172    0.6425 C   0  0  0  0  0  0  0  0  0  0  0  0
   -0.7449   -2.8990    0.9713 O   0  0  0  0  0  0  0  0  0  0  0  0
   -1.5142   -0.9185    0.2194 N   0  0  0  0  0  0  0  0  0  0  0  0
   -2.3469   -0.3539    0.0546 H   0  0  0  0  0  0  0  0  0  0  0  0
   -0.2300   -0.2034    0.2578 C   0  0  1  0  0  0  0  0  0  0  0  0
    0.4291   -0.7012    0.9772 H   0  0  0  0  0  0  0  0  0  0  0  0
    0.4467   -0.3155   -1.1366 C   0  0  0  0  0  0  0  0  0  0  0  0
    1.3877   -0.8536   -0.9762 H   0  0  0  0  0  0  0  0  0  0  0  0
   -0.1566   -0.9567   -1.7886 H   0  0  0  0  0  0  0  0  0  0  0  0
    0.7508    0.9958   -1.9095 C   0  0  0  0  0  0  0  0  0  0  0  0
    0.0115    1.1269   -2.7048 H   0  0  0  0  0  0  0  0  0  0  0  0
    0.6980    1.8839   -1.2787 H   0  0  0  0  0  0  0  0  0  0  0  0
    2.1521    0.9777   -2.5088 C   0  0  0  0  0  0  0  0  0  0  0  0
    3.1019    1.1177   -1.7562 O   0  0  0  0  0  0  0  0  0  0  0  0
    2.2735    0.7847   -3.8423 O   0  0  0  0  0  0  0  0  0  0  0  0
    3.2248    0.7961   -4.0279 H   0  0  0  0  0  0  0  0  0  0  0  0
   -0.4434    1.2207    0.8141 C   0  0  0  0  0  0  0  0  0  0  0  0
   -1.4352    1.8620    0.4840 O   0  0  0  0  0  0  0  0  0  0  0  0
    0.4175    1.7440    1.7608 N   0  0  0  0  0  0  0  0  0  0  0  0
    1.2387    1.1967    2.0041 H   0  0  0  0  0  0  0  0  0  0  0  0
    0.2611    3.0748    2.3349 C   0  0  0  0  0  0  0  0  0  0  0  0
   -0.7168    3.1720    2.8182 H   0  0  0  0  0  0  0  0  0  0  0  0
    1.0355    3.2562    3.0865 H   0  0  0  0  0  0  0  0  0  0  0  0
    0.3474    3.8399    1.5562 H   0  0  0  0  0  0  0  0  0  0  0  0
  1  2  1  0  0  0  0
  2  3  1  0  0  0  0
  2  4  1  0  0  0  0
  2  5  1  0  0  0  0
  5  6  2  0  0  0  0
  5  7  1  0  0  0  0
  7  8  1  0  0  0  0
  7  9  1  0  0  0  0
  9 10  1  0  0  0  0
  9 11  1  0  0  0  0
  9 21  1  0  0  0  0
 11 12  1  0  0  0  0
 11 13  1  0  0  0  0
 11 14  1  0  0  0  0
 14 15  1  0  0  0  0
 14 16  1  0  0  0  0
 14 17  1  0  0  0  0
 17 18  2  0  0  0  0
 17 19  1  0  0  0  0
 19 20  1  0  0  0  0
 21 22  2  0  0  0  0
 21 23  1  0  0  0  0
 23 24  1  0  0  0  0
 23 25  1  0  0  0  0
 25 26  1  0  0  0  0
 25 27  1  0  0  0  0
 25 28  1  0  0  0  0
M  END
$$$$

  -OEChem-02102214123D

 28 27  0     1  0  0  0  0  0999 V2000
   -3.0580   -3.8246    1.2440 H   0  0  0  0  0  0  0  0  0  0  0  0
   -3.0933   -2.8090    0.8400 C   0  0  0  0  0  0  0  0  0  0  0  0
   -3.7238   -2.1942    1.4866 H   0  0  0  0  0  0  0  0  0  0  0  0
   -3.5320   -2.8428   -0.1601 H   0  0  0  0  0  0  0  0  0  0  0  0
   -1.6954   -2.2243    0.7719 C   0  0  0  0  0  0  0  0  0  0  0  0
   -0.7395   -2.8726    1.1671 O   0  0  0  0  0  0  0  0  0  0  0  0
   -1.5085   -0.9546    0.2678 N   0  0  0  0  0  0  0  0  0  0  0  0
   -2.3404   -0.4115    0.0398 H   0  0  0  0  0  0  0  0  0  0  0  0
   -0.2221   -0.2434    0.2412 C   0  0  1  0  0  0  0  0  0  0  0  0
    0.4604   -0.7021    0.9645 H   0  0  0  0  0  0  0  0  0  0  0  0
    0.4004   -0.4190   -1.1716 C   0  0  0  0  0  0  0  0  0  0  0  0
    1.3532   -0.9392   -1.0227 H   0  0  0  0  0  0  0  0  0  0  0  0
   -0.2205   -1.0869   -1.7790 H   0  0  0  0  0  0  0  0  0  0  0  0
    0.6743    0.8668   -1.9920 C   0  0  0  0  0  0  0  0  0  0  0  0
   -0.2197    1.1479   -2.5557 H   0  0  0  0  0  0  0  0  0  0  0  0
    0.9265    1.7031   -1.3372 H   0  0  0  0  0  0  0  0  0  0  0  0
    1.8601    0.7096   -2.9419 C   0  0  0  0  0  0  0  0  0  0  0  0
    1.9488   -0.3062   -3.6110 O   0  0  0  0  0  0  0  0  0  0  0  0
    2.7673    1.7128   -2.9859 O   0  0  0  0  0  0  0  0  0  0  0  0
    3.4301    1.4398   -3.6386 H   0  0  0  0  0  0  0  0  0  0  0  0
   -0.4334    1.2115    0.7153 C   0  0  0  0  0  0  0  0  0  0  0  0
   -1.4184    1.8401    0.3435 O   0  0  0  0  0  0  0  0  0  0  0  0
    0.4388    1.7923    1.6172 N   0  0  0  0  0  0  0  0  0  0  0  0
    1.2117    1.2271    1.9570 H   0  0  0  0  0  0  0  0  0  0  0  0
    0.2582    3.1370    2.1513 C   0  0  0  0  0  0  0  0  0  0  0  0
   -0.6613    3.1935    2.7434 H   0  0  0  0  0  0  0  0  0  0  0  0
    1.1018    3.4058    2.7943 H   0  0  0  0  0  0  0  0  0  0  0  0
    0.1991    3.8683    1.3382 H   0  0  0  0  0  0  0  0  0  0  0  0
  1  2  1  0  0  0  0
  2  3  1  0  0  0  0
  2  4  1  0  0  0  0
  2  5  1  0  0  0  0
  5  6  2  0  0  0  0
  5  7  1  0  0  0  0
  7  8  1  0  0  0  0
  7  9  1  0  0  0  0
  9 10  1  0  0  0  0
  9 11  1  0  0  0  0
  9 21  1  0  0  0  0
 11 12  1  0  0  0  0
 11 13  1  0  0  0  0
 11 14  1  0  0  0  0
 14 15  1  0  0  0  0
 14 16  1  0  0  0  0
 14 17  1  0  0  0  0
 17 18  2  0  0  0  0
 17 19  1  0  0  0  0
 19 20  1  0  0  0  0
 21 22  2  0  0  0  0
 21 23  1  0  0  0  0
 23 24  1  0  0  0  0
 23 25  1  0  0  0  0
 25 26  1  0  0  0  0
 25 27  1  0  0  0  0
 25 28  1  0  0  0  0
M  END
$$$$

  -OEChem-02102214123D

 28 27  0     1  0  0  0  0  0999 V2000
   -3.1269   -3.7869    1.2685 H   0  0  0  0  0  0  0  0  0  0  0  0
   -3.1389   -2.7832    0.8346 C   0  0  0  0  0  0  0  0  0  0  0  0
   -3.7663   -2.1385    1.4548 H   0  0  0  0  0  0  0  0  0  0  0  0
   -3.5656   -2.8383   -0.1698 H   0  0  0  0  0  0  0  0  0  0  0  0
   -1.7297   -2.2259    0.7685 C   0  0  0  0  0  0  0  0  0  0  0  0
   -0.7894   -2.8863    1.1807 O   0  0  0  0  0  0  0  0  0  0  0  0
   -1.5166   -0.9631    0.2573 N   0  0  0  0  0  0  0  0  0  0  0  0
   -2.3373   -0.4072    0.0200 H   0  0  0  0  0  0  0  0  0  0  0  0
   -0.2195   -0.2709    0.2456 C   0  0  1  0  0  0  0  0  0  0  0  0
    0.4458   -0.7368    0.9802 H   0  0  0  0  0  0  0  0  0  0  0  0
    0.4250   -0.4493   -1.1559 C   0  0  0  0  0  0  0  0  0  0  0  0
    1.3701   -0.9830   -1.0069 H   0  0  0  0  0  0  0  0  0  0  0  0
   -0.2038   -1.0966   -1.7777 H   0  0  0  0  0  0  0  0  0  0  0  0
    0.7174    0.8517   -1.9430 C   0  0  0  0  0  0  0  0  0  0  0  0
   -0.2207    1.2872   -2.2990 H   0  0  0  0  0  0  0  0  0  0  0  0
    1.2004    1.5825   -1.2894 H   0  0  0  0  0  0  0  0  0  0  0  0
    1.6599    0.6548   -3.1313 C   0  0  0  0  0  0  0  0  0  0  0  0
    1.8476   -0.4644   -3.5790 O   0  0  0  0  0  0  0  0  0  0  0  0
    2.2479    1.7640   -3.6347 O   0  0  0  0  0  0  0  0  0  0  0  0
    2.7930    1.4609   -4.3767 H   0  0  0  0  0  0  0  0  0  0  0  0
   -0.4135    1.1911    0.7049 C   0  0  0  0  0  0  0  0  0  0  0  0
   -1.3867    1.8308    0.3209 O   0  0  0  0  0  0  0  0  0  0  0  0
    0.4556    1.7630    1.6153 N   0  0  0  0  0  0  0  0  0  0  0  0
    1.2056    1.1821    1.9795 H   0  0  0  0  0  0  0  0  0  0  0  0
    0.2788    3.1071    2.1515 C   0  0  0  0  0  0  0  0  0  0  0  0
   -0.6517    3.1708    2.7253 H   0  0  0  0  0  0  0  0  0  0  0  0
    1.1124    3.3636    2.8123 H   0  0  0  0  0  0  0  0  0  0  0  0
    0.2433    3.8423    1.3403 H   0  0  0  0  0  0  0  0  0  0  0  0
  1  2  1  0  0  0  0
  2  3  1  0  0  0  0
  2  4  1  0  0  0  0
  2  5  1  0  0  0  0
  5  6  2  0  0  0  0
  5  7  1  0  0  0  0
  7  8  1  0  0  0  0
  7  9  1  0  0  0  0
  9 10  1  0  0  0  0
  9 11  1  0  0  0  0
  9 21  1  0  0  0  0
 11 12  1  0  0  0  0
 11 13  1  0  0  0  0
 11 14  1  0  0  0  0
 14 15  1  0  0  0  0
 14 16  1  0  0  0  0
 14 17  1  0  0  0  0
 17 18  2  0  0  0  0
 17 19  1  0  0  0  0
 19 20  1  0  0  0  0
 21 22  2  0  0  0  0
 21 23  1  0  0  0  0
 23 24  1  0  0  0  0
 23 25  1  0  0  0  0
 25 26  1  0  0  0  0
 25 27  1  0  0  0  0
 25 28  1  0  0  0  0
M  END
$$$$

  -OEChem-02102214123D

 28 27  0     1  0  0  0  0  0999 V2000
   -3.1604   -3.7668    1.2641 H   0  0  0  0  0  0  0  0  0  0  0  0
   -3.1544   -2.7696    0.8152 C   0  0  0  0  0  0  0  0  0  0  0  0
   -3.7904   -2.1110    1.4117 H   0  0  0  0  0  0  0  0  0  0  0  0
   -3.5592   -2.8367   -0.1975 H   0  0  0  0  0  0  0  0  0  0  0  0
   -1.7397   -2.2234    0.7710 C   0  0  0  0  0  0  0  0  0  0  0  0
   -0.8116   -2.8875    1.2045 O   0  0  0  0  0  0  0  0  0  0  0  0
   -1.5075   -0.9662    0.2549 N   0  0  0  0  0  0  0  0  0  0  0  0
   -2.3188   -0.4042   -0.0001 H   0  0  0  0  0  0  0  0  0  0  0  0
   -0.2030   -0.2883    0.2547 C   0  0  1  0  0  0  0  0  0  0  0  0
    0.4609   -0.7515    0.9921 H   0  0  0  0  0  0  0  0  0  0  0  0
    0.4428   -0.4606   -1.1452 C   0  0  0  0  0  0  0  0  0  0  0  0
    1.2027   -1.2471   -1.0782 H   0  0  0  0  0  0  0  0  0  0  0  0
   -0.3202   -0.8149   -1.8480 H   0  0  0  0  0  0  0  0  0  0  0  0
    1.0755    0.8154   -1.7490 C   0  0  0  0  0  0  0  0  0  0  0  0
    0.3118    1.5911   -1.8572 H   0  0  0  0  0  0  0  0  0  0  0  0
    1.8512    1.1933   -1.0775 H   0  0  0  0  0  0  0  0  0  0  0  0
    1.7026    0.6058   -3.1286 C   0  0  0  0  0  0  0  0  0  0  0  0
    1.6354   -0.4835   -3.6743 O   0  0  0  0  0  0  0  0  0  0  0  0
    2.3218    1.6749   -3.6789 O   0  0  0  0  0  0  0  0  0  0  0  0
    2.6512    1.3746   -4.5396 H   0  0  0  0  0  0  0  0  0  0  0  0
   -0.3963    1.1775    0.7040 C   0  0  0  0  0  0  0  0  0  0  0  0
   -1.3609    1.8187    0.3014 O   0  0  0  0  0  0  0  0  0  0  0  0
    0.4611    1.7531    1.6236 N   0  0  0  0  0  0  0  0  0  0  0  0
    1.2046    1.1734    2.0026 H   0  0  0  0  0  0  0  0  0  0  0  0
    0.2797    3.1017    2.1475 C   0  0  0  0  0  0  0  0  0  0  0  0
   -0.6723    3.1799    2.6831 H   0  0  0  0  0  0  0  0  0  0  0  0
    1.0883    3.3516    2.8410 H   0  0  0  0  0  0  0  0  0  0  0  0
    0.2862    3.8331    1.3324 H   0  0  0  0  0  0  0  0  0  0  0  0
  1  2  1  0  0  0  0
  2  3  1  0  0  0  0
  2  4  1  0  0  0  0
  2  5  1  0  0  0  0
  5  6  2  0  0  0  0
  5  7  1  0  0  0  0
  7  8  1  0  0  0  0
  7  9  1  0  0  0  0
  9 10  1  0  0  0  0
  9 11  1  0  0  0  0
  9 21  1  0  0  0  0
 11 12  1  0  0  0  0
 11 13  1  0  0  0  0
 11 14  1  0  0  0  0
 14 15  1  0  0  0  0
 14 16  1  0  0  0  0
 14 17  1  0  0  0  0
 17 18  2  0  0  0  0
 17 19  1  0  0  0  0
 19 20  1  0  0  0  0
 21 22  2  0  0  0  0
 21 23  1  0  0  0  0
 23 24  1  0  0  0  0
 23 25  1  0  0  0  0
 25 26  1  0  0  0  0
 25 27  1  0  0  0  0
 25 28  1  0  0  0  0
M  END
$$$$

  -OEChem-02102214123D

 28 27  0     1  0  0  0  0  0999 V2000
   -3.1675   -3.7586    1.2388 H   0  0  0  0  0  0  0  0  0  0  0  0
   -3.1628   -2.7601    0.7929 C   0  0  0  0  0  0  0  0  0  0  0  0
   -3.8018   -2.1050    1.3898 H   0  0  0  0  0  0  0  0  0  0  0  0
   -3.5646   -2.8257   -0.2209 H   0  0  0  0  0  0  0  0  0  0  0  0
   -1.7492   -2.2113    0.7540 C   0  0  0  0  0  0  0  0  0  0  0  0
   -0.8205   -2.8805    1.1783 O   0  0  0  0  0  0  0  0  0  0  0  0
   -1.5172   -0.9489    0.2503 N   0  0  0  0  0  0  0  0  0  0  0  0
   -2.3285   -0.3837    0.0028 H   0  0  0  0  0  0  0  0  0  0  0  0
   -0.2117   -0.2725    0.2577 C   0  0  1  0  0  0  0  0  0  0  0  0
    0.4428   -0.7413    1.0000 H   0  0  0  0  0  0  0  0  0  0  0  0
    0.4535   -0.4516   -1.1337 C   0  0  0  0  0  0  0  0  0  0  0  0
    1.2014   -1.2493   -1.0689 H   0  0  0  0  0  0  0  0  0  0  0  0
   -0.3172   -0.7984   -1.8315 H   0  0  0  0  0  0  0  0  0  0  0  0
    1.1011    0.8111   -1.7550 C   0  0  0  0  0  0  0  0  0  0  0  0
    0.4190    1.6612   -1.6741 H   0  0  0  0  0  0  0  0  0  0  0  0
    2.0191    1.0612   -1.2168 H   0  0  0  0  0  0  0  0  0  0  0  0
    1.4159    0.6739   -3.2461 C   0  0  0  0  0  0  0  0  0  0  0  0
    1.4071   -0.4265   -3.7731 O   0  0  0  0  0  0  0  0  0  0  0  0
    1.7162    1.8129   -3.9110 O   0  0  0  0  0  0  0  0  0  0  0  0
    1.8887    1.5465   -4.8269 H   0  0  0  0  0  0  0  0  0  0  0  0
   -0.3974    1.1892    0.7210 C   0  0  0  0  0  0  0  0  0  0  0  0
   -1.3636    1.8369    0.3326 O   0  0  0  0  0  0  0  0  0  0  0  0
    0.4647    1.7496    1.6453 N   0  0  0  0  0  0  0  0  0  0  0  0
    1.2090    1.1629    2.0118 H   0  0  0  0  0  0  0  0  0  0  0  0
    0.2939    3.0934    2.1844 C   0  0  0  0  0  0  0  0  0  0  0  0
   -0.6625    3.1760    2.7116 H   0  0  0  0  0  0  0  0  0  0  0  0
    1.0985    3.3239    2.8892 H   0  0  0  0  0  0  0  0  0  0  0  0
    0.3176    3.8354    1.3793 H   0  0  0  0  0  0  0  0  0  0  0  0
  1  2  1  0  0  0  0
  2  3  1  0  0  0  0
  2  4  1  0  0  0  0
  2  5  1  0  0  0  0
  5  6  2  0  0  0  0
  5  7  1  0  0  0  0
  7  8  1  0  0  0  0
  7  9  1  0  0  0  0
  9 10  1  0  0  0  0
  9 11  1  0  0  0  0
  9 21  1  0  0  0  0
 11 12  1  0  0  0  0
 11 13  1  0  0  0  0
 11 14  1  0  0  0  0
 14 15  1  0  0  0  0
 14 16  1  0  0  0  0
 14 17  1  0  0  0  0
 17 18  2  0  0  0  0
 17 19  1  0  0  0  0
 19 20  1  0  0  0  0
 21 22  2  0  0  0  0
 21 23  1  0  0  0  0
 23 24  1  0  0  0  0
 23 25  1  0  0  0  0
 25 26  1  0  0  0  0
 25 27  1  0  0  0  0
 25 28  1  0  0  0  0
M  END
$$$$

  -OEChem-02102214123D

 28 27  0     1  0  0  0  0  0999 V2000
   -3.1799   -3.7396    1.2200 H   0  0  0  0  0  0  0  0  0  0  0  0
   -3.1718   -2.7387    0.7795 C   0  0  0  0  0  0  0  0  0  0  0  0
   -3.8065   -2.0841    1.3817 H   0  0  0  0  0  0  0  0  0  0  0  0
   -3.5763   -2.7963   -0.2338 H   0  0  0  0  0  0  0  0  0  0  0  0
   -1.7555   -2.1967    0.7406 C   0  0  0  0  0  0  0  0  0  0  0  0
   -0.8295   -2.8736    1.1587 O   0  0  0  0  0  0  0  0  0  0  0  0
   -1.5174   -0.9309    0.2478 N   0  0  0  0  0  0  0  0  0  0  0  0
   -2.3256   -0.3597    0.0036 H   0  0  0  0  0  0  0  0  0  0  0  0
   -0.2078   -0.2614    0.2615 C   0  0  1  0  0  0  0  0  0  0  0  0
    0.4416   -0.7369    1.0040 H   0  0  0  0  0  0  0  0  0  0  0  0
    0.4638   -0.4449   -1.1291 C   0  0  0  0  0  0  0  0  0  0  0  0
    1.1966   -1.2568   -1.0690 H   0  0  0  0  0  0  0  0  0  0  0  0
   -0.3179   -0.7849   -1.8179 H   0  0  0  0  0  0  0  0  0  0  0  0
    1.1320    0.7996   -1.7751 C   0  0  0  0  0  0  0  0  0  0  0  0
    0.6057    1.7141   -1.4962 H   0  0  0  0  0  0  0  0  0  0  0  0
    2.1630    0.8903   -1.4241 H   0  0  0  0  0  0  0  0  0  0  0  0
    1.1152    0.7810   -3.3049 C   0  0  0  0  0  0  0  0  0  0  0  0
    1.1236   -0.2873   -3.8942 O   0  0  0  0  0  0  0  0  0  0  0  0
    1.1227    1.9780   -3.9357 O   0  0  0  0  0  0  0  0  0  0  0  0
    1.1164    1.7778   -4.8839 H   0  0  0  0  0  0  0  0  0  0  0  0
   -0.3934    1.1960    0.7385 C   0  0  0  0  0  0  0  0  0  0  0  0
   -1.3567    1.8487    0.3513 O   0  0  0  0  0  0  0  0  0  0  0  0
    0.4669    1.7482    1.6698 N   0  0  0  0  0  0  0  0  0  0  0  0
    1.2129    1.1596    2.0297 H   0  0  0  0  0  0  0  0  0  0  0  0
    0.2937    3.0865    2.2226 C   0  0  0  0  0  0  0  0  0  0  0  0
   -0.6665    3.1655    2.7435 H   0  0  0  0  0  0  0  0  0  0  0  0
    1.0930    3.3078    2.9365 H   0  0  0  0  0  0  0  0  0  0  0  0
    0.3248    3.8371    1.4257 H   0  0  0  0  0  0  0  0  0  0  0  0
  1  2  1  0  0  0  0
  2  3  1  0  0  0  0
  2  4  1  0  0  0  0
  2  5  1  0  0  0  0
  5  6  2  0  0  0  0
  5  7  1  0  0  0  0
  7  8  1  0  0  0  0
  7  9  1  0  0  0  0
  9 10  1  0  0  0  0
  9 11  1  0  0  0  0
  9 21  1  0  0  0  0
 11 12  1  0  0  0  0
 11 13  1  0  0  0  0
 11 14  1  0  0  0  0
 14 15  1  0  0  0  0
 14 16  1  0  0  0  0
 14 17  1  0  0  0  0
 17 18  2  0  0  0  0
 17 19  1  0  0  0  0
 19 20  1  0  0  0  0
 21 22  2  0  0  0  0
 21 23  1  0  0  0  0
 23 24  1  0  0  0  0
 23 25  1  0  0  0  0
 25 26  1  0  0  0  0
 25 27  1  0  0  0  0
 25 28  1  0  0  0  0
M  END
$$$$

  -OEChem-02102214123D

 28 27  0     1  0  0  0  0  0999 V2000
   -3.2038   -3.7185    1.2053 H   0  0  0  0  0  0  0  0  0  0  0  0
   -3.1851   -2.7138    0.7739 C   0  0  0  0  0  0  0  0  0  0  0  0
   -3.8095   -2.0567    1.3841 H   0  0  0  0  0  0  0  0  0  0  0  0
   -3.5941   -2.7573   -0.2383 H   0  0  0  0  0  0  0  0  0  0  0  0
   -1.7630   -2.1880    0.7352 C   0  0  0  0  0  0  0  0  0  0  0  0
   -0.8431   -2.8762    1.1480 O   0  0  0  0  0  0  0  0  0  0  0  0
   -1.5130   -0.9234    0.2463 N   0  0  0  0  0  0  0  0  0  0  0  0
   -2.3162   -0.3429    0.0072 H   0  0  0  0  0  0  0  0  0  0  0  0
   -0.1986   -0.2637    0.2663 C   0  0  1  0  0  0  0  0  0  0  0  0
    0.4472   -0.7440    1.0088 H   0  0  0  0  0  0  0  0  0  0  0  0
    0.4699   -0.4492   -1.1265 C   0  0  0  0  0  0  0  0  0  0  0  0
    1.1985   -1.2640   -1.0589 H   0  0  0  0  0  0  0  0  0  0  0  0
   -0.3114   -0.7989   -1.8108 H   0  0  0  0  0  0  0  0  0  0  0  0
    1.1558    0.7814   -1.7882 C   0  0  0  0  0  0  0  0  0  0  0  0
    0.8661    1.7180   -1.3115 H   0  0  0  0  0  0  0  0  0  0  0  0
    2.2399    0.6921   -1.6799 H   0  0  0  0  0  0  0  0  0  0  0  0
    0.8199    0.9398   -3.2718 C   0  0  0  0  0  0  0  0  0  0  0  0
    0.8049   -0.0495   -3.9858 O   0  0  0  0  0  0  0  0  0  0  0  0
    0.5822    2.1909   -3.7281 O   0  0  0  0  0  0  0  0  0  0  0  0
    0.3894    2.0964   -4.6731 H   0  0  0  0  0  0  0  0  0  0  0  0
   -0.3893    1.1918    0.7466 C   0  0  0  0  0  0  0  0  0  0  0  0
   -1.3454    1.8472    0.3471 O   0  0  0  0  0  0  0  0  0  0  0  0
    0.4637    1.7429    1.6851 N   0  0  0  0  0  0  0  0  0  0  0  0
    1.2107    1.1563    2.0460 H   0  0  0  0  0  0  0  0  0  0  0  0
    0.2974    3.0879    2.2236 C   0  0  0  0  0  0  0  0  0  0  0  0
   -0.6553    3.1724    2.7569 H   0  0  0  0  0  0  0  0  0  0  0  0
    1.1068    3.3192    2.9227 H   0  0  0  0  0  0  0  0  0  0  0  0
    0.3163    3.8287    1.4172 H   0  0  0  0  0  0  0  0  0  0  0  0
  1  2  1  0  0  0  0
  2  3  1  0  0  0  0
  2  4  1  0  0  0  0
  2  5  1  0  0  0  0
  5  6  2  0  0  0  0
  5  7  1  0  0  0  0
  7  8  1  0  0  0  0
  7  9  1  0  0  0  0
  9 10  1  0  0  0  0
  9 11  1  0  0  0  0
  9 21  1  0  0  0  0
 11 12  1  0  0  0  0
 11 13  1  0  0  0  0
 11 14  1  0  0  0  0
 14 15  1  0  0  0  0
 14 16  1  0  0  0  0
 14 17  1  0  0  0  0
 17 18  2  0  0  0  0
 17 19  1  0  0  0  0
 19 20  1  0  0  0  0
 21 22  2  0  0  0  0
 21 23  1  0  0  0  0
 23 24  1  0  0  0  0
 23 25  1  0  0  0  0
 25 26  1  0  0  0  0
 25 27  1  0  0  0  0
 25 28  1  0  0  0  0
M  END
$$$$

  -OEChem-02102214123D

 28 27  0     1  0  0  0  0  0999 V2000
   -3.2163   -3.7088    1.2319 H   0  0  0  0  0  0  0  0  0  0  0  0
   -3.1913   -2.7027    0.8038 C   0  0  0  0  0  0  0  0  0  0  0  0
   -3.8063   -2.0420    1.4197 H   0  0  0  0  0  0  0  0  0  0  0  0
   -3.6064   -2.7394   -0.2064 H   0  0  0  0  0  0  0  0  0  0  0  0
   -1.7649   -2.1889    0.7582 C   0  0  0  0  0  0  0  0  0  0  0  0
   -0.8501   -2.8775    1.1816 O   0  0  0  0  0  0  0  0  0  0  0  0
   -1.5054   -0.9334    0.2520 N   0  0  0  0  0  0  0  0  0  0  0  0
   -2.3039   -0.3509    0.0014 H   0  0  0  0  0  0  0  0  0  0  0  0
   -0.1868   -0.2830    0.2651 C   0  0  1  0  0  0  0  0  0  0  0  0
    0.4645   -0.7578    1.0066 H   0  0  0  0  0  0  0  0  0  0  0  0
    0.4599   -0.4726   -1.1366 C   0  0  0  0  0  0  0  0  0  0  0  0
    1.2003   -1.2751   -1.0532 H   0  0  0  0  0  0  0  0  0  0  0  0
   -0.3111   -0.8491   -1.8178 H   0  0  0  0  0  0  0  0  0  0  0  0
    1.1474    0.7565   -1.8004 C   0  0  0  0  0  0  0  0  0  0  0  0
    1.1542    1.6355   -1.1555 H   0  0  0  0  0  0  0  0  0  0  0  0
    2.1959    0.5068   -1.9838 H   0  0  0  0  0  0  0  0  0  0  0  0
    0.5365    1.1579   -3.1433 C   0  0  0  0  0  0  0  0  0  0  0  0
    0.3078    0.2960   -3.9761 O   0  0  0  0  0  0  0  0  0  0  0  0
    0.3084    2.4747   -3.3520 O   0  0  0  0  0  0  0  0  0  0  0  0
   -0.0842    2.5398   -4.2352 H   0  0  0  0  0  0  0  0  0  0  0  0
   -0.3854    1.1779    0.7264 C   0  0  0  0  0  0  0  0  0  0  0  0
   -1.3371    1.8281    0.3082 O   0  0  0  0  0  0  0  0  0  0  0  0
    0.4612    1.7426    1.6625 N   0  0  0  0  0  0  0  0  0  0  0  0
    1.2008    1.1587    2.0423 H   0  0  0  0  0  0  0  0  0  0  0  0
    0.2878    3.0930    2.1844 C   0  0  0  0  0  0  0  0  0  0  0  0
   -0.6569    3.1737    2.7325 H   0  0  0  0  0  0  0  0  0  0  0  0
    1.1065    3.3438    2.8656 H   0  0  0  0  0  0  0  0  0  0  0  0
    0.2845    3.8225    1.3675 H   0  0  0  0  0  0  0  0  0  0  0  0
  1  2  1  0  0  0  0
  2  3  1  0  0  0  0
  2  4  1  0  0  0  0
  2  5  1  0  0  0  0
  5  6  2  0  0  0  0
  5  7  1  0  0  0  0
  7  8  1  0  0  0  0
  7  9  1  0  0  0  0
  9 10  1  0  0  0  0
  9 11  1  0  0  0  0
  9 21  1  0  0  0  0
 11 12  1  0  0  0  0
 11 13  1  0  0  0  0
 11 14  1  0  0  0  0
 14 15  1  0  0  0  0
 14 16  1  0  0  0  0
 14 17  1  0  0  0  0
 17 18  2  0  0  0  0
 17 19  1  0  0  0  0
 19 20  1  0  0  0  0
 21 22  2  0  0  0  0
 21 23  1  0  0  0  0
 23 24  1  0  0  0  0
 23 25  1  0  0  0  0
 25 26  1  0  0  0  0
 25 27  1  0  0  0  0
 25 28  1  0  0  0  0
M  END
$$$$

  -OEChem-02102214123D

 28 27  0     1  0  0  0  0  0999 V2000
   -3.2056   -3.7381    1.2430 H   0  0  0  0  0  0  0  0  0  0  0  0
   -3.1845   -2.7293    0.8218 C   0  0  0  0  0  0  0  0  0  0  0  0
   -3.8112   -2.0778    1.4353 H   0  0  0  0  0  0  0  0  0  0  0  0
   -3.5892   -2.7625   -0.1926 H   0  0  0  0  0  0  0  0  0  0  0  0
   -1.7619   -2.2038    0.7943 C   0  0  0  0  0  0  0  0  0  0  0  0
   -0.8488   -2.8786    1.2433 O   0  0  0  0  0  0  0  0  0  0  0  0
   -1.5026   -0.9564    0.2684 N   0  0  0  0  0  0  0  0  0  0  0  0
   -2.2995   -0.3876   -0.0161 H   0  0  0  0  0  0  0  0  0  0  0  0
   -0.1855   -0.3037    0.2692 C   0  0  1  0  0  0  0  0  0  0  0  0
    0.4756   -0.7697    1.0073 H   0  0  0  0  0  0  0  0  0  0  0  0
    0.4360   -0.4942   -1.1414 C   0  0  0  0  0  0  0  0  0  0  0  0
    1.1980   -1.2749   -1.0485 H   0  0  0  0  0  0  0  0  0  0  0  0
   -0.3212   -0.8992   -1.8211 H   0  0  0  0  0  0  0  0  0  0  0  0
    1.1045    0.7490   -1.7918 C   0  0  0  0  0  0  0  0  0  0  0  0
    1.3852    1.5024   -1.0537 H   0  0  0  0  0  0  0  0  0  0  0  0
    2.0387    0.4208   -2.2555 H   0  0  0  0  0  0  0  0  0  0  0  0
    0.2855    1.4023   -2.9065 C   0  0  0  0  0  0  0  0  0  0  0  0
   -0.3119    0.7045   -3.7099 O   0  0  0  0  0  0  0  0  0  0  0  0
    0.2956    2.7539   -2.9573 O   0  0  0  0  0  0  0  0  0  0  0  0
   -0.2927    2.9952   -3.6882 H   0  0  0  0  0  0  0  0  0  0  0  0
   -0.3864    1.1647    0.7072 C   0  0  0  0  0  0  0  0  0  0  0  0
   -1.3327    1.8099    0.2693 O   0  0  0  0  0  0  0  0  0  0  0  0
    0.4592    1.7477    1.6329 N   0  0  0  0  0  0  0  0  0  0  0  0
    1.1945    1.1703    2.0304 H   0  0  0  0  0  0  0  0  0  0  0  0
    0.2882    3.1109    2.1212 C   0  0  0  0  0  0  0  0  0  0  0  0
   -0.6492    3.2019    2.6799 H   0  0  0  0  0  0  0  0  0  0  0  0
    1.1155    3.3829    2.7840 H   0  0  0  0  0  0  0  0  0  0  0  0
    0.2702    3.8189    1.2854 H   0  0  0  0  0  0  0  0  0  0  0  0
  1  2  1  0  0  0  0
  2  3  1  0  0  0  0
  2  4  1  0  0  0  0
  2  5  1  0  0  0  0
  5  6  2  0  0  0  0
  5  7  1  0  0  0  0
  7  8  1  0  0  0  0
  7  9  1  0  0  0  0
  9 10  1  0  0  0  0
  9 11  1  0  0  0  0
  9 21  1  0  0  0  0
 11 12  1  0  0  0  0
 11 13  1  0  0  0  0
 11 14  1  0  0  0  0
 14 15  1  0  0  0  0
 14 16  1  0  0  0  0
 14 17  1  0  0  0  0
 17 18  2  0  0  0  0
 17 19  1  0  0  0  0
 19 20  1  0  0  0  0
 21 22  2  0  0  0  0
 21 23  1  0  0  0  0
 23 24  1  0  0  0  0
 23 25  1  0  0  0  0
 25 26  1  0  0  0  0
 25 27  1  0  0  0  0
 25 28  1  0  0  0  0
M  END
$$$$

  -OEChem-02102214123D

 28 27  0     1  0  0  0  0  0999 V2000
   -3.1904   -3.7442    1.2944 H   0  0  0  0  0  0  0  0  0  0  0  0
   -3.1741   -2.7561    0.8259 C   0  0  0  0  0  0  0  0  0  0  0  0
   -3.8196   -2.0846    1.3970 H   0  0  0  0  0  0  0  0  0  0  0  0
   -3.5601   -2.8419   -0.1927 H   0  0  0  0  0  0  0  0  0  0  0  0
   -1.7576   -2.2141    0.7983 C   0  0  0  0  0  0  0  0  0  0  0  0
   -0.8370   -2.8789    1.2475 O   0  0  0  0  0  0  0  0  0  0  0  0
   -1.5120   -0.9645    0.2708 N   0  0  0  0  0  0  0  0  0  0  0  0
   -2.3142   -0.4067   -0.0208 H   0  0  0  0  0  0  0  0  0  0  0  0
   -0.2016   -0.2996    0.2654 C   0  0  1  0  0  0  0  0  0  0  0  0
    0.4620   -0.7611    1.0042 H   0  0  0  0  0  0  0  0  0  0  0  0
    0.4234   -0.4943   -1.1417 C   0  0  0  0  0  0  0  0  0  0  0  0
    1.1985   -1.2609   -1.0408 H   0  0  0  0  0  0  0  0  0  0  0  0
   -0.3214   -0.9103   -1.8291 H   0  0  0  0  0  0  0  0  0  0  0  0
    1.0722    0.7586   -1.7823 C   0  0  0  0  0  0  0  0  0  0  0  0
    1.5559    1.3831   -1.0273 H   0  0  0  0  0  0  0  0  0  0  0  0
    1.8627    0.4217   -2.4582 H   0  0  0  0  0  0  0  0  0  0  0  0
    0.1186    1.6063   -2.6275 C   0  0  0  0  0  0  0  0  0  0  0  0
   -0.7283    1.0619   -3.3169 O   0  0  0  0  0  0  0  0  0  0  0  0
    0.2908    2.9470   -2.5781 O   0  0  0  0  0  0  0  0  0  0  0  0
   -0.4212    3.3215   -3.1184 H   0  0  0  0  0  0  0  0  0  0  0  0
   -0.3946    1.1709    0.7019 C   0  0  0  0  0  0  0  0  0  0  0  0
   -1.3498    1.8158    0.2833 O   0  0  0  0  0  0  0  0  0  0  0  0
    0.4609    1.7523    1.6195 N   0  0  0  0  0  0  0  0  0  0  0  0
    1.2090    1.1786    1.9983 H   0  0  0  0  0  0  0  0  0  0  0  0
    0.3048    3.1199    2.1008 C   0  0  0  0  0  0  0  0  0  0  0  0
   -0.6586    3.2409    2.6073 H   0  0  0  0  0  0  0  0  0  0  0  0
    1.1010    3.3656    2.8100 H   0  0  0  0  0  0  0  0  0  0  0  0
    0.3550    3.8273    1.2663 H   0  0  0  0  0  0  0  0  0  0  0  0
  1  2  1  0  0  0  0
  2  3  1  0  0  0  0
  2  4  1  0  0  0  0
  2  5  1  0  0  0  0
  5  6  2  0  0  0  0
  5  7  1  0  0  0  0
  7  8  1  0  0  0  0
  7  9  1  0  0  0  0
  9 10  1  0  0  0  0
  9 11  1  0  0  0  0
  9 21  1  0  0  0  0
 11 12  1  0  0  0  0
 11 13  1  0  0  0  0
 11 14  1  0  0  0  0
 14 15  1  0  0  0  0
 14 16  1  0  0  0  0
 14 17  1  0  0  0  0
 17 18  2  0  0  0  0
 17 19  1  0  0  0  0
 19 20  1  0  0  0  0
 21 22  2  0  0  0  0
 21 23  1  0  0  0  0
 23 24  1  0  0  0  0
 23 25  1  0  0  0  0
 25 26  1  0  0  0  0
 25 27  1  0  0  0  0
 25 28  1  0  0  0  0
M  END
$$$$

  -OEChem-02102214123D

 28 27  0     1  0  0  0  0  0999 V2000
   -3.1748   -3.7519    1.2961 H   0  0  0  0  0  0  0  0  0  0  0  0
   -3.1690   -2.7639    0.8275 C   0  0  0  0  0  0  0  0  0  0  0  0
   -3.8119   -2.0959    1.4057 H   0  0  0  0  0  0  0  0  0  0  0  0
   -3.5656   -2.8521   -0.1868 H   0  0  0  0  0  0  0  0  0  0  0  0
   -1.7565   -2.2131    0.7839 C   0  0  0  0  0  0  0  0  0  0  0  0
   -0.8239   -2.8786    1.2067 O   0  0  0  0  0  0  0  0  0  0  0  0
   -1.5288   -0.9549    0.2696 N   0  0  0  0  0  0  0  0  0  0  0  0
   -2.3410   -0.3994    0.0019 H   0  0  0  0  0  0  0  0  0  0  0  0
   -0.2269   -0.2739    0.2592 C   0  0  1  0  0  0  0  0  0  0  0  0
    0.4312   -0.7336    1.0042 H   0  0  0  0  0  0  0  0  0  0  0  0
    0.4279   -0.4821   -1.1334 C   0  0  0  0  0  0  0  0  0  0  0  0
    1.2037   -1.2461   -1.0182 H   0  0  0  0  0  0  0  0  0  0  0  0
   -0.3110   -0.8983   -1.8276 H   0  0  0  0  0  0  0  0  0  0  0  0
    1.0685    0.7611   -1.7935 C   0  0  0  0  0  0  0  0  0  0  0  0
    1.7137    1.2749   -1.0758 H   0  0  0  0  0  0  0  0  0  0  0  0
    1.7049    0.4310   -2.6189 H   0  0  0  0  0  0  0  0  0  0  0  0
    0.0597    1.7546   -2.3713 C   0  0  0  0  0  0  0  0  0  0  0  0
   -0.8845    1.3343   -3.0198 O   0  0  0  0  0  0  0  0  0  0  0  0
    0.2801    3.0676   -2.1329 O   0  0  0  0  0  0  0  0  0  0  0  0
   -0.4935    3.5284   -2.4918 H   0  0  0  0  0  0  0  0  0  0  0  0
   -0.4091    1.1929    0.7123 C   0  0  0  0  0  0  0  0  0  0  0  0
   -1.3989    1.8273    0.3638 O   0  0  0  0  0  0  0  0  0  0  0  0
    0.4635    1.7605    1.6222 N   0  0  0  0  0  0  0  0  0  0  0  0
    1.2448    1.1968    1.9438 H   0  0  0  0  0  0  0  0  0  0  0  0
    0.3227    3.1236    2.1196 C   0  0  0  0  0  0  0  0  0  0  0  0
   -0.6342    3.2462    2.6376 H   0  0  0  0  0  0  0  0  0  0  0  0
    1.1284    3.3556    2.8226 H   0  0  0  0  0  0  0  0  0  0  0  0
    0.3694    3.8388    1.2915 H   0  0  0  0  0  0  0  0  0  0  0  0
  1  2  1  0  0  0  0
  2  3  1  0  0  0  0
  2  4  1  0  0  0  0
  2  5  1  0  0  0  0
  5  6  2  0  0  0  0
  5  7  1  0  0  0  0
  7  8  1  0  0  0  0
  7  9  1  0  0  0  0
  9 10  1  0  0  0  0
  9 11  1  0  0  0  0
  9 21  1  0  0  0  0
 11 12  1  0  0  0  0
 11 13  1  0  0  0  0
 11 14  1  0  0  0  0
 14 15  1  0  0  0  0
 14 16  1  0  0  0  0
 14 17  1  0  0  0  0
 17 18  2  0  0  0  0
 17 19  1  0  0  0  0
 19 20  1  0  0  0  0
 21 22  2  0  0  0  0
 21 23  1  0  0  0  0
 23 24  1  0  0  0  0
 23 25  1  0  0  0  0
 25 26  1  0  0  0  0
 25 27  1  0  0  0  0
 25 28  1  0  0  0  0
M  END
$$$$

  -OEChem-02102214123D

 28 27  0     1  0  0  0  0  0999 V2000
   -3.1253   -3.7777    1.3057 H   0  0  0  0  0  0  0  0  0  0  0  0
   -3.1480   -2.7847    0.8478 C   0  0  0  0  0  0  0  0  0  0  0  0
   -3.7855   -2.1335    1.4508 H   0  0  0  0  0  0  0  0  0  0  0  0
   -3.5708   -2.8689   -0.1563 H   0  0  0  0  0  0  0  0  0  0  0  0
   -1.7456   -2.2117    0.7719 C   0  0  0  0  0  0  0  0  0  0  0  0
   -0.7911   -2.8754    1.1459 O   0  0  0  0  0  0  0  0  0  0  0  0
   -1.5504   -0.9375    0.2831 N   0  0  0  0  0  0  0  0  0  0  0  0
   -2.3780   -0.3852    0.0595 H   0  0  0  0  0  0  0  0  0  0  0  0
   -0.2596   -0.2356    0.2609 C   0  0  1  0  0  0  0  0  0  0  0  0
    0.3999   -0.6966    1.0037 H   0  0  0  0  0  0  0  0  0  0  0  0
    0.4158   -0.4563   -1.1233 C   0  0  0  0  0  0  0  0  0  0  0  0
    1.1860   -1.2248   -0.9992 H   0  0  0  0  0  0  0  0  0  0  0  0
   -0.3299   -0.8741   -1.8094 H   0  0  0  0  0  0  0  0  0  0  0  0
    1.0526    0.7573   -1.8407 C   0  0  0  0  0  0  0  0  0  0  0  0
    1.8596    1.1539   -1.2184 H   0  0  0  0  0  0  0  0  0  0  0  0
    1.5012    0.4210   -2.7795 H   0  0  0  0  0  0  0  0  0  0  0  0
    0.0888    1.8964   -2.1653 C   0  0  0  0  0  0  0  0  0  0  0  0
   -0.9224    1.6384   -2.7963 O   0  0  0  0  0  0  0  0  0  0  0  0
    0.4128    3.1385   -1.7373 O   0  0  0  0  0  0  0  0  0  0  0  0
   -0.3549    3.6910   -1.9522 H   0  0  0  0  0  0  0  0  0  0  0  0
   -0.4339    1.2200    0.7503 C   0  0  0  0  0  0  0  0  0  0  0  0
   -1.4525    1.8458    0.4768 O   0  0  0  0  0  0  0  0  0  0  0  0
    0.4629    1.7672    1.6493 N   0  0  0  0  0  0  0  0  0  0  0  0
    1.2725    1.2107    1.9073 H   0  0  0  0  0  0  0  0  0  0  0  0
    0.3300    3.1140    2.1911 C   0  0  0  0  0  0  0  0  0  0  0  0
   -0.6221    3.2228    2.7214 H   0  0  0  0  0  0  0  0  0  0  0  0
    1.1419    3.3212    2.8949 H   0  0  0  0  0  0  0  0  0  0  0  0
    0.3721    3.8553    1.3860 H   0  0  0  0  0  0  0  0  0  0  0  0
  1  2  1  0  0  0  0
  2  3  1  0  0  0  0
  2  4  1  0  0  0  0
  2  5  1  0  0  0  0
  5  6  2  0  0  0  0
  5  7  1  0  0  0  0
  7  8  1  0  0  0  0
  7  9  1  0  0  0  0
  9 10  1  0  0  0  0
  9 11  1  0  0  0  0
  9 21  1  0  0  0  0
 11 12  1  0  0  0  0
 11 13  1  0  0  0  0
 11 14  1  0  0  0  0
 14 15  1  0  0  0  0
 14 16  1  0  0  0  0
 14 17  1  0  0  0  0
 17 18  2  0  0  0  0
 17 19  1  0  0  0  0
 19 20  1  0  0  0  0
 21 22  2  0  0  0  0
 21 23  1  0  0  0  0
 23 24  1  0  0  0  0
 23 25  1  0  0  0  0
 25 26  1  0  0  0  0
 25 27  1  0  0  0  0
 25 28  1  0  0  0  0
M  END
$$$$

  -OEChem-02102214123D

 28 27  0     1  0  0  0  0  0999 V2000
   -3.0731   -3.8086    1.3041 H   0  0  0  0  0  0  0  0  0  0  0  0
   -3.1197   -2.8047    0.8729 C   0  0  0  0  0  0  0  0  0  0  0  0
   -3.7441   -2.1753    1.5116 H   0  0  0  0  0  0  0  0  0  0  0  0
   -3.5727   -2.8680   -0.1194 H   0  0  0  0  0  0  0  0  0  0  0  0
   -1.7262   -2.2150    0.7691 C   0  0  0  0  0  0  0  0  0  0  0  0
   -0.7538   -2.8765    1.0977 O   0  0  0  0  0  0  0  0  0  0  0  0
   -1.5597   -0.9282    0.3034 N   0  0  0  0  0  0  0  0  0  0  0  0
   -2.4006   -0.3797    0.1247 H   0  0  0  0  0  0  0  0  0  0  0  0
   -0.2815   -0.2029    0.2765 C   0  0  1  0  0  0  0  0  0  0  0  0
    0.3821   -0.6599    1.0180 H   0  0  0  0  0  0  0  0  0  0  0  0
    0.4073   -0.4340   -1.1031 C   0  0  0  0  0  0  0  0  0  0  0  0
    1.1686   -1.2101   -0.9711 H   0  0  0  0  0  0  0  0  0  0  0  0
   -0.3487   -0.8569   -1.7744 H   0  0  0  0  0  0  0  0  0  0  0  0
    1.0446    0.7395   -1.8896 C   0  0  0  0  0  0  0  0  0  0  0  0
    1.9927    0.9956   -1.4085 H   0  0  0  0  0  0  0  0  0  0  0  0
    1.2790    0.4028   -2.9034 H   0  0  0  0  0  0  0  0  0  0  0  0
    0.2257    2.0219   -1.9917 C   0  0  0  0  0  0  0  0  0  0  0  0
   -0.8146    1.9828   -2.6254 O   0  0  0  0  0  0  0  0  0  0  0  0
    0.7002    3.1381   -1.3919 O   0  0  0  0  0  0  0  0  0  0  0  0
    0.0035    3.8032   -1.5093 H   0  0  0  0  0  0  0  0  0  0  0  0
   -0.4681    1.2397    0.7962 C   0  0  0  0  0  0  0  0  0  0  0  0
   -1.5045    1.8516    0.5623 O   0  0  0  0  0  0  0  0  0  0  0  0
    0.4366    1.7803    1.6917 N   0  0  0  0  0  0  0  0  0  0  0  0
    1.2705    1.2404    1.9033 H   0  0  0  0  0  0  0  0  0  0  0  0
    0.2864    3.1051    2.2814 C   0  0  0  0  0  0  0  0  0  0  0  0
   -0.6650    3.1816    2.8186 H   0  0  0  0  0  0  0  0  0  0  0  0
    1.0976    3.2980    2.9900 H   0  0  0  0  0  0  0  0  0  0  0  0
    0.3150    3.8755    1.5038 H   0  0  0  0  0  0  0  0  0  0  0  0
  1  2  1  0  0  0  0
  2  3  1  0  0  0  0
  2  4  1  0  0  0  0
  2  5  1  0  0  0  0
  5  6  2  0  0  0  0
  5  7  1  0  0  0  0
  7  8  1  0  0  0  0
  7  9  1  0  0  0  0
  9 10  1  0  0  0  0
  9 11  1  0  0  0  0
  9 21  1  0  0  0  0
 11 12  1  0  0  0  0
 11 13  1  0  0  0  0
 11 14  1  0  0  0  0
 14 15  1  0  0  0  0
 14 16  1  0  0  0  0
 14 17  1  0  0  0  0
 17 18  2  0  0  0  0
 17 19  1  0  0  0  0
 19 20  1  0  0  0  0
 21 22  2  0  0  0  0
 21 23  1  0  0  0  0
 23 24  1  0  0  0  0
 23 25  1  0  0  0  0
 25 26  1  0  0  0  0
 25 27  1  0  0  0  0
 25 28  1  0  0  0  0
M  END
$$$$

  -OEChem-02102214123D

 28 27  0     1  0  0  0  0  0999 V2000
   -3.1859   -3.7784    1.1286 H   0  0  0  0  0  0  0  0  0  0  0  0
   -3.1998   -2.7618    0.7257 C   0  0  0  0  0  0  0  0  0  0  0  0
   -3.8420   -2.1417    1.3559 H   0  0  0  0  0  0  0  0  0  0  0  0
   -3.6109   -2.7892   -0.2863 H   0  0  0  0  0  0  0  0  0  0  0  0
   -1.7947   -2.1910    0.6982 C   0  0  0  0  0  0  0  0  0  0  0  0
   -0.8506   -2.8646    1.0803 O   0  0  0  0  0  0  0  0  0  0  0  0
   -1.5847   -0.9065    0.2435 N   0  0  0  0  0  0  0  0  0  0  0  0
   -2.4079   -0.3433    0.0299 H   0  0  0  0  0  0  0  0  0  0  0  0
   -0.2999   -0.1938    0.3096 C   0  0  1  0  0  0  0  0  0  0  0  0
    0.3065   -0.6513    1.0983 H   0  0  0  0  0  0  0  0  0  0  0  0
    0.4785   -0.4445   -1.0205 C   0  0  0  0  0  0  0  0  0  0  0  0
    1.2009   -1.2465   -0.8345 H   0  0  0  0  0  0  0  0  0  0  0  0
   -0.2496   -0.8526   -1.7305 H   0  0  0  0  0  0  0  0  0  0  0  0
    1.2039    0.6781   -1.8127 C   0  0  0  0  0  0  0  0  0  0  0  0
    2.2301    0.7308   -1.4380 H   0  0  0  0  0  0  0  0  0  0  0  0
    1.2675    0.3798   -2.8634 H   0  0  0  0  0  0  0  0  0  0  0  0
    0.6541    2.0984   -1.7566 C   0  0  0  0  0  0  0  0  0  0  0  0
   -0.3057    2.3628   -2.4583 O   0  0  0  0  0  0  0  0  0  0  0  0
    1.2833    3.0041   -0.9728 O   0  0  0  0  0  0  0  0  0  0  0  0
    0.7619    3.8175   -1.0609 H   0  0  0  0  0  0  0  0  0  0  0  0
   -0.5327    1.2468    0.8141 C   0  0  0  0  0  0  0  0  0  0  0  0
   -1.5510    1.8535    0.5021 O   0  0  0  0  0  0  0  0  0  0  0  0
    0.2968    1.7895    1.7787 N   0  0  0  0  0  0  0  0  0  0  0  0
    1.1194    1.2571    2.0468 H   0  0  0  0  0  0  0  0  0  0  0  0
    0.0719    3.0942    2.3884 C   0  0  0  0  0  0  0  0  0  0  0  0
   -0.8925    3.1136    2.9070 H   0  0  0  0  0  0  0  0  0  0  0  0
    0.8595    3.3122    3.1159 H   0  0  0  0  0  0  0  0  0  0  0  0
    0.0781    3.8803    1.6263 H   0  0  0  0  0  0  0  0  0  0  0  0
  1  2  1  0  0  0  0
  2  3  1  0  0  0  0
  2  4  1  0  0  0  0
  2  5  1  0  0  0  0
  5  6  2  0  0  0  0
  5  7  1  0  0  0  0
  7  8  1  0  0  0  0
  7  9  1  0  0  0  0
  9 10  1  0  0  0  0
  9 11  1  0  0  0  0
  9 21  1  0  0  0  0
 11 12  1  0  0  0  0
 11 13  1  0  0  0  0
 11 14  1  0  0  0  0
 14 15  1  0  0  0  0
 14 16  1  0  0  0  0
 14 17  1  0  0  0  0
 17 18  2  0  0  0  0
 17 19  1  0  0  0  0
 19 20  1  0  0  0  0
 21 22  2  0  0  0  0
 21 23  1  0  0  0  0
 23 24  1  0  0  0  0
 23 25  1  0  0  0  0
 25 26  1  0  0  0  0
 25 27  1  0  0  0  0
 25 28  1  0  0  0  0
M  END
$$$$

  -OEChem-02102214123D

 28 27  0     1  0  0  0  0  0999 V2000
   -3.2128   -3.7780    0.8907 H   0  0  0  0  0  0  0  0  0  0  0  0
   -3.1911   -2.7471    0.5263 C   0  0  0  0  0  0  0  0  0  0  0  0
   -3.8431   -2.1371    1.1563 H   0  0  0  0  0  0  0  0  0  0  0  0
   -3.5653   -2.7278   -0.5000 H   0  0  0  0  0  0  0  0  0  0  0  0
   -1.7744   -2.2068    0.5705 C   0  0  0  0  0  0  0  0  0  0  0  0
   -0.8561   -2.9211    0.9408 O   0  0  0  0  0  0  0  0  0  0  0  0
   -1.5256   -0.9040    0.1948 N   0  0  0  0  0  0  0  0  0  0  0  0
   -2.3317   -0.3101    0.0000 H   0  0  0  0  0  0  0  0  0  0  0  0
   -0.2323   -0.2215    0.3579 C   0  0  1  0  0  0  0  0  0  0  0  0
    0.3499   -0.7282    1.1352 H   0  0  0  0  0  0  0  0  0  0  0  0
    0.5661   -0.3872   -0.9774 C   0  0  0  0  0  0  0  0  0  0  0  0
    1.2635   -1.2193   -0.8325 H   0  0  0  0  0  0  0  0  0  0  0  0
   -0.1555   -0.7318   -1.7267 H   0  0  0  0  0  0  0  0  0  0  0  0
    1.3427    0.7592   -1.6910 C   0  0  0  0  0  0  0  0  0  0  0  0
    2.4105    0.5784   -1.5340 H   0  0  0  0  0  0  0  0  0  0  0  0
    1.1679    0.6735   -2.7674 H   0  0  0  0  0  0  0  0  0  0  0  0
    1.0864    2.2086   -1.3024 C   0  0  0  0  0  0  0  0  0  0  0  0
    1.8232    2.7317   -0.4820 O   0  0  0  0  0  0  0  0  0  0  0  0
    0.0608    2.8454   -1.9113 O   0  0  0  0  0  0  0  0  0  0  0  0
   -0.0184    3.7091   -1.4793 H   0  0  0  0  0  0  0  0  0  0  0  0
   -0.5111    1.1866    0.9299 C   0  0  0  0  0  0  0  0  0  0  0  0
   -1.5008    1.8142    0.5656 O   0  0  0  0  0  0  0  0  0  0  0  0
    0.2526    1.6844    1.9692 N   0  0  0  0  0  0  0  0  0  0  0  0
    1.1093    1.1868    2.1945 H   0  0  0  0  0  0  0  0  0  0  0  0
    0.0465    3.0082    2.5436 C   0  0  0  0  0  0  0  0  0  0  0  0
   -0.9737    3.1053    2.9297 H   0  0  0  0  0  0  0  0  0  0  0  0
    0.7439    3.1740    3.3702 H   0  0  0  0  0  0  0  0  0  0  0  0
    0.2135    3.7833    1.7885 H   0  0  0  0  0  0  0  0  0  0  0  0
  1  2  1  0  0  0  0
  2  3  1  0  0  0  0
  2  4  1  0  0  0  0
  2  5  1  0  0  0  0
  5  6  2  0  0  0  0
  5  7  1  0  0  0  0
  7  8  1  0  0  0  0
  7  9  1  0  0  0  0
  9 10  1  0  0  0  0
  9 11  1  0  0  0  0
  9 21  1  0  0  0  0
 11 12  1  0  0  0  0
 11 13  1  0  0  0  0
 11 14  1  0  0  0  0
 14 15  1  0  0  0  0
 14 16  1  0  0  0  0
 14 17  1  0  0  0  0
 17 18  2  0  0  0  0
 17 19  1  0  0  0  0
 19 20  1  0  0  0  0
 21 22  2  0  0  0  0
 21 23  1  0  0  0  0
 23 24  1  0  0  0  0
 23 25  1  0  0  0  0
 25 26  1  0  0  0  0
 25 27  1  0  0  0  0
 25 28  1  0  0  0  0
M  END
$$$$

  -OEChem-02102214123D

 28 27  0     1  0  0  0  0  0999 V2000
   -2.9272   -3.9699    0.8394 H   0  0  0  0  0  0  0  0  0  0  0  0
   -2.9832   -2.9186    0.5436 C   0  0  0  0  0  0  0  0  0  0  0  0
   -3.5995   -2.3814    1.2685 H   0  0  0  0  0  0  0  0  0  0  0  0
   -3.4516   -2.8537   -0.4414 H   0  0  0  0  0  0  0  0  0  0  0  0
   -1.5930   -2.3137    0.4965 C   0  0  0  0  0  0  0  0  0  0  0  0
   -0.6139   -3.0055    0.7271 O   0  0  0  0  0  0  0  0  0  0  0  0
   -1.4370   -0.9778    0.1952 N   0  0  0  0  0  0  0  0  0  0  0  0
   -2.2827   -0.4115    0.1237 H   0  0  0  0  0  0  0  0  0  0  0  0
   -0.1648   -0.2445    0.2960 C   0  0  1  0  0  0  0  0  0  0  0  0
    0.5225   -0.7702    0.9676 H   0  0  0  0  0  0  0  0  0  0  0  0
    0.4759   -0.2477   -1.1310 C   0  0  0  0  0  0  0  0  0  0  0  0
    1.2359   -1.0364   -1.1186 H   0  0  0  0  0  0  0  0  0  0  0  0
   -0.2933   -0.5902   -1.8323 H   0  0  0  0  0  0  0  0  0  0  0  0
    1.1194    0.9952   -1.8172 C   0  0  0  0  0  0  0  0  0  0  0  0
    2.1515    0.7403   -2.0755 H   0  0  0  0  0  0  0  0  0  0  0  0
    0.5960    1.1612   -2.7635 H   0  0  0  0  0  0  0  0  0  0  0  0
    1.1606    2.3372   -1.1000 C   0  0  0  0  0  0  0  0  0  0  0  0
    2.0335    2.5166   -0.2659 O   0  0  0  0  0  0  0  0  0  0  0  0
    0.2451    3.2701   -1.4463 O   0  0  0  0  0  0  0  0  0  0  0  0
    0.3850    4.0250   -0.8562 H   0  0  0  0  0  0  0  0  0  0  0  0
   -0.4863    1.0980    0.9923 C   0  0  0  0  0  0  0  0  0  0  0  0
   -1.5328    1.6867    0.7391 O   0  0  0  0  0  0  0  0  0  0  0  0
    0.3223    1.5771    2.0064 N   0  0  0  0  0  0  0  0  0  0  0  0
    1.2365    1.1441    2.1088 H   0  0  0  0  0  0  0  0  0  0  0  0
    0.0715    2.8365    2.6960 C   0  0  0  0  0  0  0  0  0  0  0  0
   -0.9179    2.8272    3.1652 H   0  0  0  0  0  0  0  0  0  0  0  0
    0.8206    2.9943    3.4776 H   0  0  0  0  0  0  0  0  0  0  0  0
    0.1211    3.6745    1.9932 H   0  0  0  0  0  0  0  0  0  0  0  0
  1  2  1  0  0  0  0
  2  3  1  0  0  0  0
  2  4  1  0  0  0  0
  2  5  1  0  0  0  0
  5  6  2  0  0  0  0
  5  7  1  0  0  0  0
  7  8  1  0  0  0  0
  7  9  1  0  0  0  0
  9 10  1  0  0  0  0
  9 11  1  0  0  0  0
  9 21  1  0  0  0  0
 11 12  1  0  0  0  0
 11 13  1  0  0  0  0
 11 14  1  0  0  0  0
 14 15  1  0  0  0  0
 14 16  1  0  0  0  0
 14 17  1  0  0  0  0
 17 18  2  0  0  0  0
 17 19  1  0  0  0  0
 19 20  1  0  0  0  0
 21 22  2  0  0  0  0
 21 23  1  0  0  0  0
 23 24  1  0  0  0  0
 23 25  1  0  0  0  0
 25 26  1  0  0  0  0
 25 27  1  0  0  0  0
 25 28  1  0  0  0  0
M  END
$$$$

  -OEChem-02102214123D

 28 27  0     1  0  0  0  0  0999 V2000
   -3.0971   -3.7554    1.3432 H   0  0  0  0  0  0  0  0  0  0  0  0
   -3.1137   -2.7610    0.8885 C   0  0  0  0  0  0  0  0  0  0  0  0
   -3.7339   -2.1034    1.5026 H   0  0  0  0  0  0  0  0  0  0  0  0
   -3.5522   -2.8368   -0.1094 H   0  0  0  0  0  0  0  0  0  0  0  0
   -1.7051   -2.2061    0.7929 C   0  0  0  0  0  0  0  0  0  0  0  0
   -0.7520   -2.8865    1.1379 O   0  0  0  0  0  0  0  0  0  0  0  0
   -1.5016   -0.9290    0.3161 N   0  0  0  0  0  0  0  0  0  0  0  0
   -2.3266   -0.3505    0.1538 H   0  0  0  0  0  0  0  0  0  0  0  0
   -0.2050   -0.2325    0.3251 C   0  0  1  0  0  0  0  0  0  0  0  0
    0.4848   -0.6886    1.0433 H   0  0  0  0  0  0  0  0  0  0  0  0
    0.3891   -0.3948   -1.1103 C   0  0  0  0  0  0  0  0  0  0  0  0
    1.1419   -1.1859   -1.0251 H   0  0  0  0  0  0  0  0  0  0  0  0
   -0.3926   -0.7967   -1.7647 H   0  0  0  0  0  0  0  0  0  0  0  0
    1.0496    0.7655   -1.9105 C   0  0  0  0  0  0  0  0  0  0  0  0
    1.9362    0.3726   -2.4157 H   0  0  0  0  0  0  0  0  0  0  0  0
    0.3435    1.0597   -2.6938 H   0  0  0  0  0  0  0  0  0  0  0  0
    1.4627    2.0459   -1.1928 C   0  0  0  0  0  0  0  0  0  0  0  0
    0.9692    3.1048   -1.5370 O   0  0  0  0  0  0  0  0  0  0  0  0
    2.4361    1.9460   -0.2566 O   0  0  0  0  0  0  0  0  0  0  0  0
    2.6063    2.8575    0.0280 H   0  0  0  0  0  0  0  0  0  0  0  0
   -0.5106    1.1952    0.8357 C   0  0  0  0  0  0  0  0  0  0  0  0
   -1.5335    1.7679    0.4747 O   0  0  0  0  0  0  0  0  0  0  0  0
    0.2921    1.7957    1.7882 N   0  0  0  0  0  0  0  0  0  0  0  0
    1.1480    1.3131    2.0488 H   0  0  0  0  0  0  0  0  0  0  0  0
    0.0420    3.1323    2.3141 C   0  0  0  0  0  0  0  0  0  0  0  0
   -0.9382    3.1755    2.8005 H   0  0  0  0  0  0  0  0  0  0  0  0
    0.8050    3.3979    3.0520 H   0  0  0  0  0  0  0  0  0  0  0  0
    0.0670    3.8723    1.5069 H   0  0  0  0  0  0  0  0  0  0  0  0
  1  2  1  0  0  0  0
  2  3  1  0  0  0  0
  2  4  1  0  0  0  0
  2  5  1  0  0  0  0
  5  6  2  0  0  0  0
  5  7  1  0  0  0  0
  7  8  1  0  0  0  0
  7  9  1  0  0  0  0
  9 10  1  0  0  0  0
  9 11  1  0  0  0  0
  9 21  1  0  0  0  0
 11 12  1  0  0  0  0
 11 13  1  0  0  0  0
 11 14  1  0  0  0  0
 14 15  1  0  0  0  0
 14 16  1  0  0  0  0
 14 17  1  0  0  0  0
 17 18  2  0  0  0  0
 17 19  1  0  0  0  0
 19 20  1  0  0  0  0
 21 22  2  0  0  0  0
 21 23  1  0  0  0  0
 23 24  1  0  0  0  0
 23 25  1  0  0  0  0
 25 26  1  0  0  0  0
 25 27  1  0  0  0  0
 25 28  1  0  0  0  0
M  END
$$$$

  -OEChem-02102214123D

 28 27  0     1  0  0  0  0  0999 V2000
   -3.2622   -3.6901    1.2218 H   0  0  0  0  0  0  0  0  0  0  0  0
   -3.2137   -2.6927    0.7760 C   0  0  0  0  0  0  0  0  0  0  0  0
   -3.8261   -2.0107    1.3709 H   0  0  0  0  0  0  0  0  0  0  0  0
   -3.6145   -2.7400   -0.2393 H   0  0  0  0  0  0  0  0  0  0  0  0
   -1.7778   -2.2049    0.7425 C   0  0  0  0  0  0  0  0  0  0  0  0
   -0.8754   -2.9263    1.1364 O   0  0  0  0  0  0  0  0  0  0  0  0
   -1.4943   -0.9420    0.2689 N   0  0  0  0  0  0  0  0  0  0  0  0
   -2.2838   -0.3292    0.0633 H   0  0  0  0  0  0  0  0  0  0  0  0
   -0.1711   -0.3029    0.3467 C   0  0  1  0  0  0  0  0  0  0  0  0
    0.4666   -0.7846    1.0962 H   0  0  0  0  0  0  0  0  0  0  0  0
    0.4807   -0.4697   -1.0608 C   0  0  0  0  0  0  0  0  0  0  0  0
    1.2049   -1.2850   -0.9577 H   0  0  0  0  0  0  0  0  0  0  0  0
   -0.2787   -0.8245   -1.7664 H   0  0  0  0  0  0  0  0  0  0  0  0
    1.2148    0.7023   -1.7670 C   0  0  0  0  0  0  0  0  0  0  0  0
    1.9472    0.2951   -2.4692 H   0  0  0  0  0  0  0  0  0  0  0  0
    0.4681    1.2414   -2.3580 H   0  0  0  0  0  0  0  0  0  0  0  0
    1.9118    1.7450   -0.8984 C   0  0  0  0  0  0  0  0  0  0  0  0
    2.6182    1.3536    0.0180 O   0  0  0  0  0  0  0  0  0  0  0  0
    1.7390    3.0507   -1.2058 O   0  0  0  0  0  0  0  0  0  0  0  0
    2.2568    3.5528   -0.5597 H   0  0  0  0  0  0  0  0  0  0  0  0
   -0.4473    1.1419    0.8308 C   0  0  0  0  0  0  0  0  0  0  0  0
   -1.4119    1.7603    0.3907 O   0  0  0  0  0  0  0  0  0  0  0  0
    0.3207    1.7211    1.8237 N   0  0  0  0  0  0  0  0  0  0  0  0
    1.1906    1.2486    2.0621 H   0  0  0  0  0  0  0  0  0  0  0  0
    0.1072    3.0805    2.3042 C   0  0  0  0  0  0  0  0  0  0  0  0
   -0.8938    3.1798    2.7376 H   0  0  0  0  0  0  0  0  0  0  0  0
    0.8430    3.3281    3.0754 H   0  0  0  0  0  0  0  0  0  0  0  0
    0.2086    3.7986    1.4836 H   0  0  0  0  0  0  0  0  0  0  0  0
  1  2  1  0  0  0  0
  2  3  1  0  0  0  0
  2  4  1  0  0  0  0
  2  5  1  0  0  0  0
  5  6  2  0  0  0  0
  5  7  1  0  0  0  0
  7  8  1  0  0  0  0
  7  9  1  0  0  0  0
  9 10  1  0  0  0  0
  9 11  1  0  0  0  0
  9 21  1  0  0  0  0
 11 12  1  0  0  0  0
 11 13  1  0  0  0  0
 11 14  1  0  0  0  0
 14 15  1  0  0  0  0
 14 16  1  0  0  0  0
 14 17  1  0  0  0  0
 17 18  2  0  0  0  0
 17 19  1  0  0  0  0
 19 20  1  0  0  0  0
 21 22  2  0  0  0  0
 21 23  1  0  0  0  0
 23 24  1  0  0  0  0
 23 25  1  0  0  0  0
 25 26  1  0  0  0  0
 25 27  1  0  0  0  0
 25 28  1  0  0  0  0
M  END
$$$$

  -OEChem-02102214123D

 28 27  0     1  0  0  0  0  0999 V2000
   -3.2528   -3.7139    1.2357 H   0  0  0  0  0  0  0  0  0  0  0  0
   -3.2083   -2.7242    0.7726 C   0  0  0  0  0  0  0  0  0  0  0  0
   -3.8383   -2.0394    1.3452 H   0  0  0  0  0  0  0  0  0  0  0  0
   -3.5922   -2.7949   -0.2479 H   0  0  0  0  0  0  0  0  0  0  0  0
   -1.7776   -2.2204    0.7532 C   0  0  0  0  0  0  0  0  0  0  0  0
   -0.8741   -2.9268    1.1707 O   0  0  0  0  0  0  0  0  0  0  0  0
   -1.5009   -0.9632    0.2604 N   0  0  0  0  0  0  0  0  0  0  0  0
   -2.2935   -0.3641    0.0302 H   0  0  0  0  0  0  0  0  0  0  0  0
   -0.1830   -0.3133    0.3301 C   0  0  1  0  0  0  0  0  0  0  0  0
    0.4563   -0.7861    1.0838 H   0  0  0  0  0  0  0  0  0  0  0  0
    0.4779   -0.4754   -1.0696 C   0  0  0  0  0  0  0  0  0  0  0  0
    1.2104   -1.2849   -0.9800 H   0  0  0  0  0  0  0  0  0  0  0  0
   -0.2775   -0.8180   -1.7852 H   0  0  0  0  0  0  0  0  0  0  0  0
    1.1868    0.7377   -1.7237 C   0  0  0  0  0  0  0  0  0  0  0  0
    1.7589    0.3932   -2.5892 H   0  0  0  0  0  0  0  0  0  0  0  0
    0.4133    1.4174   -2.0949 H   0  0  0  0  0  0  0  0  0  0  0  0
    2.1183    1.5594   -0.8325 C   0  0  0  0  0  0  0  0  0  0  0  0
    2.6894    1.0095    0.0972 O   0  0  0  0  0  0  0  0  0  0  0  0
    2.2834    2.8658   -1.1411 O   0  0  0  0  0  0  0  0  0  0  0  0
    2.9132    3.2196   -0.4958 H   0  0  0  0  0  0  0  0  0  0  0  0
   -0.4409    1.1420    0.7889 C   0  0  0  0  0  0  0  0  0  0  0  0
   -1.3880    1.7695    0.3253 O   0  0  0  0  0  0  0  0  0  0  0  0
    0.3387    1.7285    1.7680 N   0  0  0  0  0  0  0  0  0  0  0  0
    1.1912    1.2351    2.0275 H   0  0  0  0  0  0  0  0  0  0  0  0
    0.1683    3.1102    2.1992 C   0  0  0  0  0  0  0  0  0  0  0  0
   -0.8438    3.2685    2.5864 H   0  0  0  0  0  0  0  0  0  0  0  0
    0.8815    3.3490    2.9940 H   0  0  0  0  0  0  0  0  0  0  0  0
    0.3371    3.7960    1.3624 H   0  0  0  0  0  0  0  0  0  0  0  0
  1  2  1  0  0  0  0
  2  3  1  0  0  0  0
  2  4  1  0  0  0  0
  2  5  1  0  0  0  0
  5  6  2  0  0  0  0
  5  7  1  0  0  0  0
  7  8  1  0  0  0  0
  7  9  1  0  0  0  0
  9 10  1  0  0  0  0
  9 11  1  0  0  0  0
  9 21  1  0  0  0  0
 11 12  1  0  0  0  0
 11 13  1  0  0  0  0
 11 14  1  0  0  0  0
 14 15  1  0  0  0  0
 14 16  1  0  0  0  0
 14 17  1  0  0  0  0
 17 18  2  0  0  0  0
 17 19  1  0  0  0  0
 19 20  1  0  0  0  0
 21 22  2  0  0  0  0
 21 23  1  0  0  0  0
 23 24  1  0  0  0  0
 23 25  1  0  0  0  0
 25 26  1  0  0  0  0
 25 27  1  0  0  0  0
 25 28  1  0  0  0  0
M  END
$$$$

  -OEChem-02102214123D

 28 27  0     1  0  0  0  0  0999 V2000
   -3.2214   -3.7412    1.2655 H   0  0  0  0  0  0  0  0  0  0  0  0
   -3.1940   -2.7542    0.7956 C   0  0  0  0  0  0  0  0  0  0  0  0
   -3.8204   -2.0713    1.3746 H   0  0  0  0  0  0  0  0  0  0  0  0
   -3.5947   -2.8349   -0.2177 H   0  0  0  0  0  0  0  0  0  0  0  0
   -1.7686   -2.2368    0.7487 C   0  0  0  0  0  0  0  0  0  0  0  0
   -0.8513   -2.9338    1.1518 O   0  0  0  0  0  0  0  0  0  0  0  0
   -1.5137   -0.9778    0.2484 N   0  0  0  0  0  0  0  0  0  0  0  0
   -2.3172   -0.3897    0.0290 H   0  0  0  0  0  0  0  0  0  0  0  0
   -0.2040   -0.3099    0.2992 C   0  0  1  0  0  0  0  0  0  0  0  0
    0.4390   -0.7769    1.0533 H   0  0  0  0  0  0  0  0  0  0  0  0
    0.4737   -0.4723   -1.0891 C   0  0  0  0  0  0  0  0  0  0  0  0
    1.2150   -1.2751   -1.0099 H   0  0  0  0  0  0  0  0  0  0  0  0
   -0.2780   -0.8099   -1.8109 H   0  0  0  0  0  0  0  0  0  0  0  0
    1.1501    0.7765   -1.7043 C   0  0  0  0  0  0  0  0  0  0  0  0
    1.5565    0.5047   -2.6822 H   0  0  0  0  0  0  0  0  0  0  0  0
    0.3937    1.5487   -1.8736 H   0  0  0  0  0  0  0  0  0  0  0  0
    2.2879    1.3911   -0.8847 C   0  0  0  0  0  0  0  0  0  0  0  0
    2.7243    0.8004    0.0919 O   0  0  0  0  0  0  0  0  0  0  0  0
    2.7628    2.5856   -1.3042 O   0  0  0  0  0  0  0  0  0  0  0  0
    3.4763    2.8230   -0.6933 H   0  0  0  0  0  0  0  0  0  0  0  0
   -0.4358    1.1501    0.7537 C   0  0  0  0  0  0  0  0  0  0  0  0
   -1.3938    1.7806    0.3178 O   0  0  0  0  0  0  0  0  0  0  0  0
    0.3730    1.7297    1.7127 N   0  0  0  0  0  0  0  0  0  0  0  0
    1.2267    1.2275    1.9507 H   0  0  0  0  0  0  0  0  0  0  0  0
    0.2275    3.1127    2.1488 C   0  0  0  0  0  0  0  0  0  0  0  0
   -0.7810    3.2884    2.5381 H   0  0  0  0  0  0  0  0  0  0  0  0
    0.9455    3.3357    2.9439 H   0  0  0  0  0  0  0  0  0  0  0  0
    0.4075    3.7987    1.3144 H   0  0  0  0  0  0  0  0  0  0  0  0
  1  2  1  0  0  0  0
  2  3  1  0  0  0  0
  2  4  1  0  0  0  0
  2  5  1  0  0  0  0
  5  6  2  0  0  0  0
  5  7  1  0  0  0  0
  7  8  1  0  0  0  0
  7  9  1  0  0  0  0
  9 10  1  0  0  0  0
  9 11  1  0  0  0  0
  9 21  1  0  0  0  0
 11 12  1  0  0  0  0
 11 13  1  0  0  0  0
 11 14  1  0  0  0  0
 14 15  1  0  0  0  0
 14 16  1  0  0  0  0
 14 17  1  0  0  0  0
 17 18  2  0  0  0  0
 17 19  1  0  0  0  0
 19 20  1  0  0  0  0
 21 22  2  0  0  0  0
 21 23  1  0  0  0  0
 23 24  1  0  0  0  0
 23 25  1  0  0  0  0
 25 26  1  0  0  0  0
 25 27  1  0  0  0  0
 25 28  1  0  0  0  0
M  END
$$$$

  -OEChem-02102214123D

 28 27  0     1  0  0  0  0  0999 V2000
   -3.1701   -3.7796    1.2579 H   0  0  0  0  0  0  0  0  0  0  0  0
   -3.1662   -2.7864    0.8004 C   0  0  0  0  0  0  0  0  0  0  0  0
   -3.7888   -2.1196    1.4019 H   0  0  0  0  0  0  0  0  0  0  0  0
   -3.5876   -2.8596   -0.2050 H   0  0  0  0  0  0  0  0  0  0  0  0
   -1.7495   -2.2490    0.7289 C   0  0  0  0  0  0  0  0  0  0  0  0
   -0.8137   -2.9395    1.0993 O   0  0  0  0  0  0  0  0  0  0  0  0
   -1.5241   -0.9799    0.2398 N   0  0  0  0  0  0  0  0  0  0  0  0
   -2.3415   -0.4000    0.0528 H   0  0  0  0  0  0  0  0  0  0  0  0
   -0.2255   -0.2904    0.2791 C   0  0  1  0  0  0  0  0  0  0  0  0
    0.4220   -0.7558    1.0302 H   0  0  0  0  0  0  0  0  0  0  0  0
    0.4686   -0.4411   -1.1010 C   0  0  0  0  0  0  0  0  0  0  0  0
    1.2177   -1.2377   -1.0323 H   0  0  0  0  0  0  0  0  0  0  0  0
   -0.2805   -0.7791   -1.8253 H   0  0  0  0  0  0  0  0  0  0  0  0
    1.1176    0.8309   -1.6978 C   0  0  0  0  0  0  0  0  0  0  0  0
    1.3365    0.6320   -2.7506 H   0  0  0  0  0  0  0  0  0  0  0  0
    0.4217    1.6739   -1.6775 H   0  0  0  0  0  0  0  0  0  0  0  0
    2.4364    1.2415   -1.0379 C   0  0  0  0  0  0  0  0  0  0  0  0
    2.7250    0.8089    0.0678 O   0  0  0  0  0  0  0  0  0  0  0  0
    3.2275    2.0889   -1.7342 O   0  0  0  0  0  0  0  0  0  0  0  0
    4.0123    2.2389   -1.1856 H   0  0  0  0  0  0  0  0  0  0  0  0
   -0.4505    1.1640    0.7522 C   0  0  0  0  0  0  0  0  0  0  0  0
   -1.4334    1.7870    0.3630 O   0  0  0  0  0  0  0  0  0  0  0  0
    0.3790    1.7317    1.7000 N   0  0  0  0  0  0  0  0  0  0  0  0
    1.2587    1.2479    1.8748 H   0  0  0  0  0  0  0  0  0  0  0  0
    0.2367    3.1074    2.1596 C   0  0  0  0  0  0  0  0  0  0  0  0
   -0.7629    3.2723    2.5757 H   0  0  0  0  0  0  0  0  0  0  0  0
    0.9726    3.3226    2.9403 H   0  0  0  0  0  0  0  0  0  0  0  0
    0.3931    3.8063    1.3313 H   0  0  0  0  0  0  0  0  0  0  0  0
  1  2  1  0  0  0  0
  2  3  1  0  0  0  0
  2  4  1  0  0  0  0
  2  5  1  0  0  0  0
  5  6  2  0  0  0  0
  5  7  1  0  0  0  0
  7  8  1  0  0  0  0
  7  9  1  0  0  0  0
  9 10  1  0  0  0  0
  9 11  1  0  0  0  0
  9 21  1  0  0  0  0
 11 12  1  0  0  0  0
 11 13  1  0  0  0  0
 11 14  1  0  0  0  0
 14 15  1  0  0  0  0
 14 16  1  0  0  0  0
 14 17  1  0  0  0  0
 17 18  2  0  0  0  0
 17 19  1  0  0  0  0
 19 20  1  0  0  0  0
 21 22  2  0  0  0  0
 21 23  1  0  0  0  0
 23 24  1  0  0  0  0
 23 25  1  0  0  0  0
 25 26  1  0  0  0  0
 25 27  1  0  0  0  0
 25 28  1  0  0  0  0
M  END
$$$$

  -OEChem-02102214123D

 28 27  0     1  0  0  0  0  0999 V2000
   -3.0972   -3.8210    1.2163 H   0  0  0  0  0  0  0  0  0  0  0  0
   -3.1209   -2.8165    0.7846 C   0  0  0  0  0  0  0  0  0  0  0  0
   -3.7426   -2.1767    1.4157 H   0  0  0  0  0  0  0  0  0  0  0  0
   -3.5617   -2.8717   -0.2138 H   0  0  0  0  0  0  0  0  0  0  0  0
   -1.7161   -2.2512    0.6982 C   0  0  0  0  0  0  0  0  0  0  0  0
   -0.7605   -2.9316    1.0360 O   0  0  0  0  0  0  0  0  0  0  0  0
   -1.5239   -0.9685    0.2311 N   0  0  0  0  0  0  0  0  0  0  0  0
   -2.3556   -0.4014    0.0703 H   0  0  0  0  0  0  0  0  0  0  0  0
   -0.2391   -0.2538    0.2606 C   0  0  1  0  0  0  0  0  0  0  0  0
    0.4183   -0.7195    1.0030 H   0  0  0  0  0  0  0  0  0  0  0  0
    0.4638   -0.3882   -1.1154 C   0  0  0  0  0  0  0  0  0  0  0  0
    1.2209   -1.1781   -1.0547 H   0  0  0  0  0  0  0  0  0  0  0  0
   -0.2842   -0.7322   -1.8379 H   0  0  0  0  0  0  0  0  0  0  0  0
    1.0847    0.8996   -1.7089 C   0  0  0  0  0  0  0  0  0  0  0  0
    1.0903    0.7927   -2.7975 H   0  0  0  0  0  0  0  0  0  0  0  0
    0.4989    1.7964   -1.4960 H   0  0  0  0  0  0  0  0  0  0  0  0
    2.5346    1.0946   -1.2722 C   0  0  0  0  0  0  0  0  0  0  0  0
    2.8093    0.9596   -0.0892 O   0  0  0  0  0  0  0  0  0  0  0  0
    3.4452    1.4129   -2.2205 O   0  0  0  0  0  0  0  0  0  0  0  0
    4.2951    1.4945   -1.7616 H   0  0  0  0  0  0  0  0  0  0  0  0
   -0.4647    1.1889    0.7645 C   0  0  0  0  0  0  0  0  0  0  0  0
   -1.4685    1.8044    0.4194 O   0  0  0  0  0  0  0  0  0  0  0  0
    0.3840    1.7433    1.7034 N   0  0  0  0  0  0  0  0  0  0  0  0
    1.2788    1.2739    1.8343 H   0  0  0  0  0  0  0  0  0  0  0  0
    0.2357    3.1059    2.1986 C   0  0  0  0  0  0  0  0  0  0  0  0
   -0.7542    3.2466    2.6457 H   0  0  0  0  0  0  0  0  0  0  0  0
    0.9900    3.3131    2.9638 H   0  0  0  0  0  0  0  0  0  0  0  0
    0.3600    3.8257    1.3828 H   0  0  0  0  0  0  0  0  0  0  0  0
  1  2  1  0  0  0  0
  2  3  1  0  0  0  0
  2  4  1  0  0  0  0
  2  5  1  0  0  0  0
  5  6  2  0  0  0  0
  5  7  1  0  0  0  0
  7  8  1  0  0  0  0
  7  9  1  0  0  0  0
  9 10  1  0  0  0  0
  9 11  1  0  0  0  0
  9 21  1  0  0  0  0
 11 12  1  0  0  0  0
 11 13  1  0  0  0  0
 11 14  1  0  0  0  0
 14 15  1  0  0  0  0
 14 16  1  0  0  0  0
 14 17  1  0  0  0  0
 17 18  2  0  0  0  0
 17 19  1  0  0  0  0
 19 20  1  0  0  0  0
 21 22  2  0  0  0  0
 21 23  1  0  0  0  0
 23 24  1  0  0  0  0
 23 25  1  0  0  0  0
 25 26  1  0  0  0  0
 25 27  1  0  0  0  0
 25 28  1  0  0  0  0
M  END
$$$$

  -OEChem-02102214123D

 28 27  0     1  0  0  0  0  0999 V2000
   -3.0654   -3.8371    1.1515 H   0  0  0  0  0  0  0  0  0  0  0  0
   -3.0976   -2.8222    0.7454 C   0  0  0  0  0  0  0  0  0  0  0  0
   -3.7278   -2.2047    1.3900 H   0  0  0  0  0  0  0  0  0  0  0  0
   -3.5344   -2.8566   -0.2555 H   0  0  0  0  0  0  0  0  0  0  0  0
   -1.6983   -2.2407    0.6793 C   0  0  0  0  0  0  0  0  0  0  0  0
   -0.7387   -2.9135    1.0204 O   0  0  0  0  0  0  0  0  0  0  0  0
   -1.5148   -0.9509    0.2282 N   0  0  0  0  0  0  0  0  0  0  0  0
   -2.3502   -0.3917    0.0589 H   0  0  0  0  0  0  0  0  0  0  0  0
   -0.2347   -0.2280    0.2637 C   0  0  1  0  0  0  0  0  0  0  0  0
    0.4252   -0.6987    1.0008 H   0  0  0  0  0  0  0  0  0  0  0  0
    0.4672   -0.3530   -1.1146 C   0  0  0  0  0  0  0  0  0  0  0  0
    1.2211   -1.1462   -1.0544 H   0  0  0  0  0  0  0  0  0  0  0  0
   -0.2810   -0.7006   -1.8352 H   0  0  0  0  0  0  0  0  0  0  0  0
    1.0872    0.9325   -1.7215 C   0  0  0  0  0  0  0  0  0  0  0  0
    0.8501    0.9484   -2.7894 H   0  0  0  0  0  0  0  0  0  0  0  0
    0.6853    1.8597   -1.3113 H   0  0  0  0  0  0  0  0  0  0  0  0
    2.6055    0.9288   -1.5955 C   0  0  0  0  0  0  0  0  0  0  0  0
    3.0819    0.8866   -0.4722 O   0  0  0  0  0  0  0  0  0  0  0  0
    3.3476    0.9640   -2.7263 O   0  0  0  0  0  0  0  0  0  0  0  0
    4.2735    0.9506   -2.4400 H   0  0  0  0  0  0  0  0  0  0  0  0
   -0.4647    1.2062    0.7854 C   0  0  0  0  0  0  0  0  0  0  0  0
   -1.4609    1.8304    0.4354 O   0  0  0  0  0  0  0  0  0  0  0  0
    0.3842    1.7535    1.7290 N   0  0  0  0  0  0  0  0  0  0  0  0
    1.2448    1.2477    1.9264 H   0  0  0  0  0  0  0  0  0  0  0  0
    0.2294    3.1054    2.2512 C   0  0  0  0  0  0  0  0  0  0  0  0
   -0.7524    3.2247    2.7216 H   0  0  0  0  0  0  0  0  0  0  0  0
    0.9979    3.3107    3.0028 H   0  0  0  0  0  0  0  0  0  0  0  0
    0.3262    3.8409    1.4456 H   0  0  0  0  0  0  0  0  0  0  0  0
  1  2  1  0  0  0  0
  2  3  1  0  0  0  0
  2  4  1  0  0  0  0
  2  5  1  0  0  0  0
  5  6  2  0  0  0  0
  5  7  1  0  0  0  0
  7  8  1  0  0  0  0
  7  9  1  0  0  0  0
  9 10  1  0  0  0  0
  9 11  1  0  0  0  0
  9 21  1  0  0  0  0
 11 12  1  0  0  0  0
 11 13  1  0  0  0  0
 11 14  1  0  0  0  0
 14 15  1  0  0  0  0
 14 16  1  0  0  0  0
 14 17  1  0  0  0  0
 17 18  2  0  0  0  0
 17 19  1  0  0  0  0
 19 20  1  0  0  0  0
 21 22  2  0  0  0  0
 21 23  1  0  0  0  0
 23 24  1  0  0  0  0
 23 25  1  0  0  0  0
 25 26  1  0  0  0  0
 25 27  1  0  0  0  0
 25 28  1  0  0  0  0
M  END
$$$$

  -OEChem-02102214123D

 28 27  0     1  0  0  0  0  0999 V2000
   -3.0712   -3.8101    1.0940 H   0  0  0  0  0  0  0  0  0  0  0  0
   -3.0926   -2.7868    0.7087 C   0  0  0  0  0  0  0  0  0  0  0  0
   -3.7193   -2.1767    1.3637 H   0  0  0  0  0  0  0  0  0  0  0  0
   -3.5266   -2.7968   -0.2941 H   0  0  0  0  0  0  0  0  0  0  0  0
   -1.6875   -2.2174    0.6594 C   0  0  0  0  0  0  0  0  0  0  0  0
   -0.7382   -2.8962    1.0173 O   0  0  0  0  0  0  0  0  0  0  0  0
   -1.4866   -0.9281    0.2143 N   0  0  0  0  0  0  0  0  0  0  0  0
   -2.3141   -0.3621    0.0288 H   0  0  0  0  0  0  0  0  0  0  0  0
   -0.1999   -0.2179    0.2684 C   0  0  1  0  0  0  0  0  0  0  0  0
    0.4584   -0.6963    1.0016 H   0  0  0  0  0  0  0  0  0  0  0  0
    0.4871   -0.3308   -1.1202 C   0  0  0  0  0  0  0  0  0  0  0  0
    1.2369   -1.1275   -1.0553 H   0  0  0  0  0  0  0  0  0  0  0  0
   -0.2578   -0.6779   -1.8448 H   0  0  0  0  0  0  0  0  0  0  0  0
    1.1249    0.9487   -1.7265 C   0  0  0  0  0  0  0  0  0  0  0  0
    0.6444    1.1612   -2.6861 H   0  0  0  0  0  0  0  0  0  0  0  0
    0.9929    1.8386   -1.1109 H   0  0  0  0  0  0  0  0  0  0  0  0
    2.6187    0.7646   -1.9631 C   0  0  0  0  0  0  0  0  0  0  0  0
    3.3507    0.7308   -0.9877 O   0  0  0  0  0  0  0  0  0  0  0  0
    3.0565    0.6296   -3.2361 O   0  0  0  0  0  0  0  0  0  0  0  0
    4.0172    0.5144   -3.1773 H   0  0  0  0  0  0  0  0  0  0  0  0
   -0.4478    1.2127    0.7942 C   0  0  0  0  0  0  0  0  0  0  0  0
   -1.4305    1.8420    0.4166 O   0  0  0  0  0  0  0  0  0  0  0  0
    0.3794    1.7604    1.7569 N   0  0  0  0  0  0  0  0  0  0  0  0
    1.1968    1.2235    2.0353 H   0  0  0  0  0  0  0  0  0  0  0  0
    0.1816    3.0899    2.3210 C   0  0  0  0  0  0  0  0  0  0  0  0
   -0.7883    3.1513    2.8260 H   0  0  0  0  0  0  0  0  0  0  0  0
    0.9657    3.3112    3.0517 H   0  0  0  0  0  0  0  0  0  0  0  0
    0.2183    3.8500    1.5334 H   0  0  0  0  0  0  0  0  0  0  0  0
  1  2  1  0  0  0  0
  2  3  1  0  0  0  0
  2  4  1  0  0  0  0
  2  5  1  0  0  0  0
  5  6  2  0  0  0  0
  5  7  1  0  0  0  0
  7  8  1  0  0  0  0
  7  9  1  0  0  0  0
  9 10  1  0  0  0  0
  9 11  1  0  0  0  0
  9 21  1  0  0  0  0
 11 12  1  0  0  0  0
 11 13  1  0  0  0  0
 11 14  1  0  0  0  0
 14 15  1  0  0  0  0
 14 16  1  0  0  0  0
 14 17  1  0  0  0  0
 17 18  2  0  0  0  0
 17 19  1  0  0  0  0
 19 20  1  0  0  0  0
 21 22  2  0  0  0  0
 21 23  1  0  0  0  0
 23 24  1  0  0  0  0
 23 25  1  0  0  0  0
 25 26  1  0  0  0  0
 25 27  1  0  0  0  0
 25 28  1  0  0  0  0
M  END
$$$$

  -OEChem-02102214123D

 28 27  0     1  0  0  0  0  0999 V2000
   -2.9364   -3.8552    1.2709 H   0  0  0  0  0  0  0  0  0  0  0  0
   -2.9974   -2.8352    0.8811 C   0  0  0  0  0  0  0  0  0  0  0  0
   -3.6178   -2.2372    1.5528 H   0  0  0  0  0  0  0  0  0  0  0  0
   -3.4639   -2.8631   -0.1066 H   0  0  0  0  0  0  0  0  0  0  0  0
   -1.6104   -2.2295    0.7814 C   0  0  0  0  0  0  0  0  0  0  0  0
   -0.6364   -2.8601    1.1605 O   0  0  0  0  0  0  0  0  0  0  0  0
   -1.4530   -0.9607    0.2658 N   0  0  0  0  0  0  0  0  0  0  0  0
   -2.2979   -0.4292    0.0579 H   0  0  0  0  0  0  0  0  0  0  0  0
   -0.1810   -0.2241    0.2313 C   0  0  1  0  0  0  0  0  0  0  0  0
    0.5288   -0.6552    0.9454 H   0  0  0  0  0  0  0  0  0  0  0  0
    0.4183   -0.3677   -1.1939 C   0  0  0  0  0  0  0  0  0  0  0  0
    1.2035   -1.1295   -1.1300 H   0  0  0  0  0  0  0  0  0  0  0  0
   -0.3429   -0.7701   -1.8714 H   0  0  0  0  0  0  0  0  0  0  0  0
    0.9888    0.9093   -1.8625 C   0  0  0  0  0  0  0  0  0  0  0  0
    0.2777    1.2897   -2.6023 H   0  0  0  0  0  0  0  0  0  0  0  0
    1.1672    1.7090   -1.1425 H   0  0  0  0  0  0  0  0  0  0  0  0
    2.3355    0.6310   -2.5185 C   0  0  0  0  0  0  0  0  0  0  0  0
    2.3828    0.5115   -3.7300 O   0  0  0  0  0  0  0  0  0  0  0  0
    3.4166    0.5220   -1.7112 O   0  0  0  0  0  0  0  0  0  0  0  0
    4.1661    0.3428   -2.2999 H   0  0  0  0  0  0  0  0  0  0  0  0
   -0.4502    1.2241    0.6974 C   0  0  0  0  0  0  0  0  0  0  0  0
   -1.4498    1.8174    0.3071 O   0  0  0  0  0  0  0  0  0  0  0  0
    0.3948    1.8430    1.6000 N   0  0  0  0  0  0  0  0  0  0  0  0
    1.2027    1.3194    1.9257 H   0  0  0  0  0  0  0  0  0  0  0  0
    0.1831    3.1980    2.0949 C   0  0  0  0  0  0  0  0  0  0  0  0
   -0.7660    3.2640    2.6373 H   0  0  0  0  0  0  0  0  0  0  0  0
    0.9908    3.4836    2.7757 H   0  0  0  0  0  0  0  0  0  0  0  0
    0.1641    3.9111    1.2639 H   0  0  0  0  0  0  0  0  0  0  0  0
  1  2  1  0  0  0  0
  2  3  1  0  0  0  0
  2  4  1  0  0  0  0
  2  5  1  0  0  0  0
  5  6  2  0  0  0  0
  5  7  1  0  0  0  0
  7  8  1  0  0  0  0
  7  9  1  0  0  0  0
  9 10  1  0  0  0  0
  9 11  1  0  0  0  0
  9 21  1  0  0  0  0
 11 12  1  0  0  0  0
 11 13  1  0  0  0  0
 11 14  1  0  0  0  0
 14 15  1  0  0  0  0
 14 16  1  0  0  0  0
 14 17  1  0  0  0  0
 17 18  2  0  0  0  0
 17 19  1  0  0  0  0
 19 20  1  0  0  0  0
 21 22  2  0  0  0  0
 21 23  1  0  0  0  0
 23 24  1  0  0  0  0
 23 25  1  0  0  0  0
 25 26  1  0  0  0  0
 25 27  1  0  0  0  0
 25 28  1  0  0  0  0
M  END
$$$$

  -OEChem-02102214123D

 28 27  0     1  0  0  0  0  0999 V2000
   -3.0669   -3.8047    1.2698 H   0  0  0  0  0  0  0  0  0  0  0  0
   -3.0874   -2.7972    0.8451 C   0  0  0  0  0  0  0  0  0  0  0  0
   -3.7166   -2.1623    1.4736 H   0  0  0  0  0  0  0  0  0  0  0  0
   -3.5179   -2.8468   -0.1580 H   0  0  0  0  0  0  0  0  0  0  0  0
   -1.6828   -2.2288    0.7780 C   0  0  0  0  0  0  0  0  0  0  0  0
   -0.7364   -2.8788    1.1930 O   0  0  0  0  0  0  0  0  0  0  0  0
   -1.4798   -0.9671    0.2612 N   0  0  0  0  0  0  0  0  0  0  0  0
   -2.3044   -0.4172    0.0229 H   0  0  0  0  0  0  0  0  0  0  0  0
   -0.1869   -0.2681    0.2446 C   0  0  1  0  0  0  0  0  0  0  0  0
    0.5036   -0.7194    0.9651 H   0  0  0  0  0  0  0  0  0  0  0  0
    0.4190   -0.4169   -1.1765 C   0  0  0  0  0  0  0  0  0  0  0  0
    1.1943   -1.1885   -1.1111 H   0  0  0  0  0  0  0  0  0  0  0  0
   -0.3400   -0.7959   -1.8700 H   0  0  0  0  0  0  0  0  0  0  0  0
    1.0242    0.8625   -1.8033 C   0  0  0  0  0  0  0  0  0  0  0  0
    0.2478    1.4318   -2.3228 H   0  0  0  0  0  0  0  0  0  0  0  0
    1.4454    1.5059   -1.0275 H   0  0  0  0  0  0  0  0  0  0  0  0
    2.1700    0.5507   -2.7630 C   0  0  0  0  0  0  0  0  0  0  0  0
    2.0106   -0.3132   -3.6085 O   0  0  0  0  0  0  0  0  0  0  0  0
    3.3196    1.2497   -2.6180 O   0  0  0  0  0  0  0  0  0  0  0  0
    3.9160    0.9212   -3.3082 H   0  0  0  0  0  0  0  0  0  0  0  0
   -0.4216    1.1895    0.7023 C   0  0  0  0  0  0  0  0  0  0  0  0
   -1.3963    1.8113    0.2935 O   0  0  0  0  0  0  0  0  0  0  0  0
    0.4268    1.7865    1.6167 N   0  0  0  0  0  0  0  0  0  0  0  0
    1.1908    1.2277    1.9862 H   0  0  0  0  0  0  0  0  0  0  0  0
    0.2273    3.1372    2.1284 C   0  0  0  0  0  0  0  0  0  0  0  0
   -0.7042    3.1958    2.7011 H   0  0  0  0  0  0  0  0  0  0  0  0
    1.0563    3.4201    2.7842 H   0  0  0  0  0  0  0  0  0  0  0  0
    0.1798    3.8568    1.3042 H   0  0  0  0  0  0  0  0  0  0  0  0
  1  2  1  0  0  0  0
  2  3  1  0  0  0  0
  2  4  1  0  0  0  0
  2  5  1  0  0  0  0
  5  6  2  0  0  0  0
  5  7  1  0  0  0  0
  7  8  1  0  0  0  0
  7  9  1  0  0  0  0
  9 10  1  0  0  0  0
  9 11  1  0  0  0  0
  9 21  1  0  0  0  0
 11 12  1  0  0  0  0
 11 13  1  0  0  0  0
 11 14  1  0  0  0  0
 14 15  1  0  0  0  0
 14 16  1  0  0  0  0
 14 17  1  0  0  0  0
 17 18  2  0  0  0  0
 17 19  1  0  0  0  0
 19 20  1  0  0  0  0
 21 22  2  0  0  0  0
 21 23  1  0  0  0  0
 23 24  1  0  0  0  0
 23 25  1  0  0  0  0
 25 26  1  0  0  0  0
 25 27  1  0  0  0  0
 25 28  1  0  0  0  0
M  END
$$$$

  -OEChem-02102214123D

 28 27  0     1  0  0  0  0  0999 V2000
   -3.1356   -3.7833    1.2773 H   0  0  0  0  0  0  0  0  0  0  0  0
   -3.1367   -2.7871    0.8259 C   0  0  0  0  0  0  0  0  0  0  0  0
   -3.7767   -2.1312    1.4211 H   0  0  0  0  0  0  0  0  0  0  0  0
   -3.5411   -2.8593   -0.1867 H   0  0  0  0  0  0  0  0  0  0  0  0
   -1.7261   -2.2315    0.7802 C   0  0  0  0  0  0  0  0  0  0  0  0
   -0.7933   -2.8887    1.2141 O   0  0  0  0  0  0  0  0  0  0  0  0
   -1.5024   -0.9745    0.2597 N   0  0  0  0  0  0  0  0  0  0  0  0
   -2.3171   -0.4181    0.0035 H   0  0  0  0  0  0  0  0  0  0  0  0
   -0.2009   -0.2914    0.2551 C   0  0  1  0  0  0  0  0  0  0  0  0
    0.4721   -0.7503    0.9869 H   0  0  0  0  0  0  0  0  0  0  0  0
    0.4280   -0.4534   -1.1532 C   0  0  0  0  0  0  0  0  0  0  0  0
    1.1954   -1.2321   -1.0826 H   0  0  0  0  0  0  0  0  0  0  0  0
   -0.3286   -0.8173   -1.8576 H   0  0  0  0  0  0  0  0  0  0  0  0
    1.0504    0.8285   -1.7545 C   0  0  0  0  0  0  0  0  0  0  0  0
    0.2585    1.5198   -2.0583 H   0  0  0  0  0  0  0  0  0  0  0  0
    1.6626    1.3267   -0.9981 H   0  0  0  0  0  0  0  0  0  0  0  0
    1.9620    0.5664   -2.9536 C   0  0  0  0  0  0  0  0  0  0  0  0
    1.8684   -0.4814   -3.5712 O   0  0  0  0  0  0  0  0  0  0  0  0
    2.8454    1.5402   -3.2713 O   0  0  0  0  0  0  0  0  0  0  0  0
    3.3252    1.2176   -4.0494 H   0  0  0  0  0  0  0  0  0  0  0  0
   -0.4075    1.1739    0.7019 C   0  0  0  0  0  0  0  0  0  0  0  0
   -1.3674    1.8127    0.2845 O   0  0  0  0  0  0  0  0  0  0  0  0
    0.4461    1.7577    1.6201 N   0  0  0  0  0  0  0  0  0  0  0  0
    1.1937    1.1840    2.0003 H   0  0  0  0  0  0  0  0  0  0  0  0
    0.2757    3.1177    2.1177 C   0  0  0  0  0  0  0  0  0  0  0  0
   -0.6722    3.2120    2.6579 H   0  0  0  0  0  0  0  0  0  0  0  0
    1.0908    3.3763    2.8003 H   0  0  0  0  0  0  0  0  0  0  0  0
    0.2811    3.8329    1.2882 H   0  0  0  0  0  0  0  0  0  0  0  0
  1  2  1  0  0  0  0
  2  3  1  0  0  0  0
  2  4  1  0  0  0  0
  2  5  1  0  0  0  0
  5  6  2  0  0  0  0
  5  7  1  0  0  0  0
  7  8  1  0  0  0  0
  7  9  1  0  0  0  0
  9 10  1  0  0  0  0
  9 11  1  0  0  0  0
  9 21  1  0  0  0  0
 11 12  1  0  0  0  0
 11 13  1  0  0  0  0
 11 14  1  0  0  0  0
 14 15  1  0  0  0  0
 14 16  1  0  0  0  0
 14 17  1  0  0  0  0
 17 18  2  0  0  0  0
 17 19  1  0  0  0  0
 19 20  1  0  0  0  0
 21 22  2  0  0  0  0
 21 23  1  0  0  0  0
 23 24  1  0  0  0  0
 23 25  1  0  0  0  0
 25 26  1  0  0  0  0
 25 27  1  0  0  0  0
 25 28  1  0  0  0  0
M  END
$$$$

  -OEChem-02102214123D

 28 27  0     1  0  0  0  0  0999 V2000
   -3.1620   -3.7699    1.2618 H   0  0  0  0  0  0  0  0  0  0  0  0
   -3.1518   -2.7775    0.8022 C   0  0  0  0  0  0  0  0  0  0  0  0
   -3.8022   -2.1154    1.3788 H   0  0  0  0  0  0  0  0  0  0  0  0
   -3.5363   -2.8576   -0.2174 H   0  0  0  0  0  0  0  0  0  0  0  0
   -1.7388   -2.2262    0.7793 C   0  0  0  0  0  0  0  0  0  0  0  0
   -0.8166   -2.8845    1.2338 O   0  0  0  0  0  0  0  0  0  0  0  0
   -1.4995   -0.9734    0.2558 N   0  0  0  0  0  0  0  0  0  0  0  0
   -2.3061   -0.4155   -0.0221 H   0  0  0  0  0  0  0  0  0  0  0  0
   -0.1930   -0.3003    0.2663 C   0  0  1  0  0  0  0  0  0  0  0  0
    0.4740   -0.7619    1.0020 H   0  0  0  0  0  0  0  0  0  0  0  0
    0.4399   -0.4619   -1.1360 C   0  0  0  0  0  0  0  0  0  0  0  0
    0.9816   -1.4139   -1.1656 H   0  0  0  0  0  0  0  0  0  0  0  0
   -0.3646   -0.5237   -1.8777 H   0  0  0  0  0  0  0  0  0  0  0  0
    1.3786    0.6895   -1.5658 C   0  0  0  0  0  0  0  0  0  0  0  0
    0.8282    1.6344   -1.5852 H   0  0  0  0  0  0  0  0  0  0  0  0
    2.1926    0.7854   -0.8423 H   0  0  0  0  0  0  0  0  0  0  0  0
    1.9910    0.5027   -2.9551 C   0  0  0  0  0  0  0  0  0  0  0  0
    1.6843   -0.4614   -3.6370 O   0  0  0  0  0  0  0  0  0  0  0  0
    2.8736    1.4454   -3.3569 O   0  0  0  0  0  0  0  0  0  0  0  0
    3.1571    1.1798   -4.2451 H   0  0  0  0  0  0  0  0  0  0  0  0
   -0.3914    1.1678    0.7024 C   0  0  0  0  0  0  0  0  0  0  0  0
   -1.3324    1.8167    0.2589 O   0  0  0  0  0  0  0  0  0  0  0  0
    0.4545    1.7485    1.6292 N   0  0  0  0  0  0  0  0  0  0  0  0
    1.1846    1.1671    2.0311 H   0  0  0  0  0  0  0  0  0  0  0  0
    0.2859    3.1114    2.1190 C   0  0  0  0  0  0  0  0  0  0  0  0
   -0.6810    3.2213    2.6214 H   0  0  0  0  0  0  0  0  0  0  0  0
    1.0769    3.3584    2.8336 H   0  0  0  0  0  0  0  0  0  0  0  0
    0.3352    3.8250    1.2896 H   0  0  0  0  0  0  0  0  0  0  0  0
  1  2  1  0  0  0  0
  2  3  1  0  0  0  0
  2  4  1  0  0  0  0
  2  5  1  0  0  0  0
  5  6  2  0  0  0  0
  5  7  1  0  0  0  0
  7  8  1  0  0  0  0
  7  9  1  0  0  0  0
  9 10  1  0  0  0  0
  9 11  1  0  0  0  0
  9 21  1  0  0  0  0
 11 12  1  0  0  0  0
 11 13  1  0  0  0  0
 11 14  1  0  0  0  0
 14 15  1  0  0  0  0
 14 16  1  0  0  0  0
 14 17  1  0  0  0  0
 17 18  2  0  0  0  0
 17 19  1  0  0  0  0
 19 20  1  0  0  0  0
 21 22  2  0  0  0  0
 21 23  1  0  0  0  0
 23 24  1  0  0  0  0
 23 25  1  0  0  0  0
 25 26  1  0  0  0  0
 25 27  1  0  0  0  0
 25 28  1  0  0  0  0
M  END
$$$$

  -OEChem-02102214123D

 28 27  0     1  0  0  0  0  0999 V2000
   -3.1774   -3.7497    1.2492 H   0  0  0  0  0  0  0  0  0  0  0  0
   -3.1582   -2.7636    0.7768 C   0  0  0  0  0  0  0  0  0  0  0  0
   -3.8167   -2.0932    1.3341 H   0  0  0  0  0  0  0  0  0  0  0  0
   -3.5260   -2.8562   -0.2479 H   0  0  0  0  0  0  0  0  0  0  0  0
   -1.7441   -2.2152    0.7703 C   0  0  0  0  0  0  0  0  0  0  0  0
   -0.8273   -2.8791    1.2273 O   0  0  0  0  0  0  0  0  0  0  0  0
   -1.4972   -0.9597    0.2570 N   0  0  0  0  0  0  0  0  0  0  0  0
   -2.2994   -0.3986   -0.0269 H   0  0  0  0  0  0  0  0  0  0  0  0
   -0.1882   -0.2915    0.2782 C   0  0  1  0  0  0  0  0  0  0  0  0
    0.4720   -0.7582    1.0167 H   0  0  0  0  0  0  0  0  0  0  0  0
    0.4531   -0.4606   -1.1216 C   0  0  0  0  0  0  0  0  0  0  0  0
    0.9767   -1.4219   -1.1614 H   0  0  0  0  0  0  0  0  0  0  0  0
   -0.3620   -0.5079   -1.8533 H   0  0  0  0  0  0  0  0  0  0  0  0
    1.4066    0.6730   -1.5752 C   0  0  0  0  0  0  0  0  0  0  0  0
    0.9564    1.6500   -1.3842 H   0  0  0  0  0  0  0  0  0  0  0  0
    2.3404    0.6164   -1.0098 H   0  0  0  0  0  0  0  0  0  0  0  0
    1.7261    0.6487   -3.0713 C   0  0  0  0  0  0  0  0  0  0  0  0
    1.4442   -0.3311   -3.7416 O   0  0  0  0  0  0  0  0  0  0  0  0
    2.3400    1.7426   -3.5771 O   0  0  0  0  0  0  0  0  0  0  0  0
    2.4644    1.5620   -4.5212 H   0  0  0  0  0  0  0  0  0  0  0  0
   -0.3886    1.1731    0.7243 C   0  0  0  0  0  0  0  0  0  0  0  0
   -1.3244    1.8270    0.2772 O   0  0  0  0  0  0  0  0  0  0  0  0
    0.4527    1.7459    1.6603 N   0  0  0  0  0  0  0  0  0  0  0  0
    1.1847    1.1627    2.0556 H   0  0  0  0  0  0  0  0  0  0  0  0
    0.2898    3.1078    2.1548 C   0  0  0  0  0  0  0  0  0  0  0  0
   -0.7023    3.2392    2.5999 H   0  0  0  0  0  0  0  0  0  0  0  0
    1.0419    3.3256    2.9193 H   0  0  0  0  0  0  0  0  0  0  0  0
    0.4077    3.8280    1.3382 H   0  0  0  0  0  0  0  0  0  0  0  0
  1  2  1  0  0  0  0
  2  3  1  0  0  0  0
  2  4  1  0  0  0  0
  2  5  1  0  0  0  0
  5  6  2  0  0  0  0
  5  7  1  0  0  0  0
  7  8  1  0  0  0  0
  7  9  1  0  0  0  0
  9 10  1  0  0  0  0
  9 11  1  0  0  0  0
  9 21  1  0  0  0  0
 11 12  1  0  0  0  0
 11 13  1  0  0  0  0
 11 14  1  0  0  0  0
 14 15  1  0  0  0  0
 14 16  1  0  0  0  0
 14 17  1  0  0  0  0
 17 18  2  0  0  0  0
 17 19  1  0  0  0  0
 19 20  1  0  0  0  0
 21 22  2  0  0  0  0
 21 23  1  0  0  0  0
 23 24  1  0  0  0  0
 23 25  1  0  0  0  0
 25 26  1  0  0  0  0
 25 27  1  0  0  0  0
 25 28  1  0  0  0  0
M  END
$$$$

  -OEChem-02102214123D

 28 27  0     1  0  0  0  0  0999 V2000
   -3.2067   -3.7242    1.2194 H   0  0  0  0  0  0  0  0  0  0  0  0
   -3.1748   -2.7287    0.7682 C   0  0  0  0  0  0  0  0  0  0  0  0
   -3.8165   -2.0592    1.3459 H   0  0  0  0  0  0  0  0  0  0  0  0
   -3.5534   -2.7925   -0.2547 H   0  0  0  0  0  0  0  0  0  0  0  0
   -1.7521   -2.2034    0.7605 C   0  0  0  0  0  0  0  0  0  0  0  0
   -0.8443   -2.8812    1.2152 O   0  0  0  0  0  0  0  0  0  0  0  0
   -1.4889   -0.9497    0.2517 N   0  0  0  0  0  0  0  0  0  0  0  0
   -2.2848   -0.3759   -0.0250 H   0  0  0  0  0  0  0  0  0  0  0  0
   -0.1735   -0.2942    0.2821 C   0  0  1  0  0  0  0  0  0  0  0  0
    0.4792   -0.7662    1.0238 H   0  0  0  0  0  0  0  0  0  0  0  0
    0.4733   -0.4652   -1.1169 C   0  0  0  0  0  0  0  0  0  0  0  0
    0.9761   -1.4370   -1.1676 H   0  0  0  0  0  0  0  0  0  0  0  0
   -0.3500   -0.4967   -1.8399 H   0  0  0  0  0  0  0  0  0  0  0  0
    1.4471    0.6496   -1.5865 C   0  0  0  0  0  0  0  0  0  0  0  0
    1.1630    1.6212   -1.1792 H   0  0  0  0  0  0  0  0  0  0  0  0
    2.4567    0.4282   -1.2310 H   0  0  0  0  0  0  0  0  0  0  0  0
    1.4760    0.8331   -3.1050 C   0  0  0  0  0  0  0  0  0  0  0  0
    1.2552   -0.1220   -3.8317 O   0  0  0  0  0  0  0  0  0  0  0  0
    1.7757    2.0677   -3.5698 O   0  0  0  0  0  0  0  0  0  0  0  0
    1.7456    2.0004   -4.5362 H   0  0  0  0  0  0  0  0  0  0  0  0
   -0.3795    1.1686    0.7316 C   0  0  0  0  0  0  0  0  0  0  0  0
   -1.3118    1.8229    0.2778 O   0  0  0  0  0  0  0  0  0  0  0  0
    0.4520    1.7402    1.6769 N   0  0  0  0  0  0  0  0  0  0  0  0
    1.1820    1.1578    2.0773 H   0  0  0  0  0  0  0  0  0  0  0  0
    0.2798    3.1002    2.1732 C   0  0  0  0  0  0  0  0  0  0  0  0
   -0.6978    3.2119    2.6542 H   0  0  0  0  0  0  0  0  0  0  0  0
    1.0558    3.3366    2.9076 H   0  0  0  0  0  0  0  0  0  0  0  0
    0.3517    3.8199    1.3508 H   0  0  0  0  0  0  0  0  0  0  0  0
  1  2  1  0  0  0  0
  2  3  1  0  0  0  0
  2  4  1  0  0  0  0
  2  5  1  0  0  0  0
  5  6  2  0  0  0  0
  5  7  1  0  0  0  0
  7  8  1  0  0  0  0
  7  9  1  0  0  0  0
  9 10  1  0  0  0  0
  9 11  1  0  0  0  0
  9 21  1  0  0  0  0
 11 12  1  0  0  0  0
 11 13  1  0  0  0  0
 11 14  1  0  0  0  0
 14 15  1  0  0  0  0
 14 16  1  0  0  0  0
 14 17  1  0  0  0  0
 17 18  2  0  0  0  0
 17 19  1  0  0  0  0
 19 20  1  0  0  0  0
 21 22  2  0  0  0  0
 21 23  1  0  0  0  0
 23 24  1  0  0  0  0
 23 25  1  0  0  0  0
 25 26  1  0  0  0  0
 25 27  1  0  0  0  0
 25 28  1  0  0  0  0
M  END
$$$$

  -OEChem-02102214123D

 28 27  0     1  0  0  0  0  0999 V2000
   -3.2276   -3.6942    1.2347 H   0  0  0  0  0  0  0  0  0  0  0  0
   -3.1887   -2.7001    0.7805 C   0  0  0  0  0  0  0  0  0  0  0  0
   -3.8150   -2.0212    1.3642 H   0  0  0  0  0  0  0  0  0  0  0  0
   -3.5805   -2.7621   -0.2375 H   0  0  0  0  0  0  0  0  0  0  0  0
   -1.7593   -2.1931    0.7550 C   0  0  0  0  0  0  0  0  0  0  0  0
   -0.8556   -2.8812    1.2025 O   0  0  0  0  0  0  0  0  0  0  0  0
   -1.4842   -0.9432    0.2434 N   0  0  0  0  0  0  0  0  0  0  0  0
   -2.2749   -0.3587   -0.0262 H   0  0  0  0  0  0  0  0  0  0  0  0
   -0.1628   -0.2995    0.2770 C   0  0  1  0  0  0  0  0  0  0  0  0
    0.4867   -0.7739    1.0201 H   0  0  0  0  0  0  0  0  0  0  0  0
    0.4800   -0.4748   -1.1237 C   0  0  0  0  0  0  0  0  0  0  0  0
    0.9777   -1.4495   -1.1674 H   0  0  0  0  0  0  0  0  0  0  0  0
   -0.3437   -0.5140   -1.8457 H   0  0  0  0  0  0  0  0  0  0  0  0
    1.4672    0.6267   -1.6023 C   0  0  0  0  0  0  0  0  0  0  0  0
    1.4050    1.5269   -0.9899 H   0  0  0  0  0  0  0  0  0  0  0  0
    2.4909    0.2541   -1.5111 H   0  0  0  0  0  0  0  0  0  0  0  0
    1.2335    1.0591   -3.0501 C   0  0  0  0  0  0  0  0  0  0  0  0
    1.0379    0.2052   -3.8992 O   0  0  0  0  0  0  0  0  0  0  0  0
    1.2794    2.3835   -3.3217 O   0  0  0  0  0  0  0  0  0  0  0  0
    1.1007    2.4653   -4.2706 H   0  0  0  0  0  0  0  0  0  0  0  0
   -0.3700    1.1649    0.7227 C   0  0  0  0  0  0  0  0  0  0  0  0
   -1.3006    1.8186    0.2646 O   0  0  0  0  0  0  0  0  0  0  0  0
    0.4567    1.7367    1.6724 N   0  0  0  0  0  0  0  0  0  0  0  0
    1.1814    1.1526    2.0798 H   0  0  0  0  0  0  0  0  0  0  0  0
    0.2818    3.0964    2.1685 C   0  0  0  0  0  0  0  0  0  0  0  0
   -0.6946    3.2053    2.6522 H   0  0  0  0  0  0  0  0  0  0  0  0
    1.0591    3.3355    2.9005 H   0  0  0  0  0  0  0  0  0  0  0  0
    0.3494    3.8160    1.3457 H   0  0  0  0  0  0  0  0  0  0  0  0
  1  2  1  0  0  0  0
  2  3  1  0  0  0  0
  2  4  1  0  0  0  0
  2  5  1  0  0  0  0
  5  6  2  0  0  0  0
  5  7  1  0  0  0  0
  7  8  1  0  0  0  0
  7  9  1  0  0  0  0
  9 10  1  0  0  0  0
  9 11  1  0  0  0  0
  9 21  1  0  0  0  0
 11 12  1  0  0  0  0
 11 13  1  0  0  0  0
 11 14  1  0  0  0  0
 14 15  1  0  0  0  0
 14 16  1  0  0  0  0
 14 17  1  0  0  0  0
 17 18  2  0  0  0  0
 17 19  1  0  0  0  0
 19 20  1  0  0  0  0
 21 22  2  0  0  0  0
 21 23  1  0  0  0  0
 23 24  1  0  0  0  0
 23 25  1  0  0  0  0
 25 26  1  0  0  0  0
 25 27  1  0  0  0  0
 25 28  1  0  0  0  0
M  END
$$$$

  -OEChem-02102214123D

 28 27  0     1  0  0  0  0  0999 V2000
   -3.2380   -3.6931    1.2580 H   0  0  0  0  0  0  0  0  0  0  0  0
   -3.1964   -2.6994    0.8034 C   0  0  0  0  0  0  0  0  0  0  0  0
   -3.8197   -2.0182    1.3878 H   0  0  0  0  0  0  0  0  0  0  0  0
   -3.5902   -2.7606   -0.2140 H   0  0  0  0  0  0  0  0  0  0  0  0
   -1.7655   -2.1968    0.7751 C   0  0  0  0  0  0  0  0  0  0  0  0
   -0.8643   -2.8838    1.2295 O   0  0  0  0  0  0  0  0  0  0  0  0
   -1.4854   -0.9544    0.2479 N   0  0  0  0  0  0  0  0  0  0  0  0
   -2.2739   -0.3695   -0.0279 H   0  0  0  0  0  0  0  0  0  0  0  0
   -0.1609   -0.3170    0.2709 C   0  0  1  0  0  0  0  0  0  0  0  0
    0.4937   -0.7875    1.0120 H   0  0  0  0  0  0  0  0  0  0  0  0
    0.4649   -0.4919   -1.1361 C   0  0  0  0  0  0  0  0  0  0  0  0
    0.9779   -1.4592   -1.1631 H   0  0  0  0  0  0  0  0  0  0  0  0
   -0.3530   -0.5569   -1.8627 H   0  0  0  0  0  0  0  0  0  0  0  0
    1.4500    0.6140   -1.6059 C   0  0  0  0  0  0  0  0  0  0  0  0
    1.6315    1.3634   -0.8344 H   0  0  0  0  0  0  0  0  0  0  0  0
    2.4182    0.1501   -1.8133 H   0  0  0  0  0  0  0  0  0  0  0  0
    1.0032    1.3248   -2.8823 C   0  0  0  0  0  0  0  0  0  0  0  0
    0.7017    0.6566   -3.8574 O   0  0  0  0  0  0  0  0  0  0  0  0
    0.9856    2.6770   -2.8692 O   0  0  0  0  0  0  0  0  0  0  0  0
    0.6572    2.9462   -3.7402 H   0  0  0  0  0  0  0  0  0  0  0  0
   -0.3651    1.1537    0.7000 C   0  0  0  0  0  0  0  0  0  0  0  0
   -1.2966    1.8026    0.2367 O   0  0  0  0  0  0  0  0  0  0  0  0
    0.4637    1.7353    1.6420 N   0  0  0  0  0  0  0  0  0  0  0  0
    1.1924    1.1574    2.0510 H   0  0  0  0  0  0  0  0  0  0  0  0
    0.3018    3.1065    2.1104 C   0  0  0  0  0  0  0  0  0  0  0  0
   -0.6670    3.2305    2.6056 H   0  0  0  0  0  0  0  0  0  0  0  0
    1.0908    3.3580    2.8258 H   0  0  0  0  0  0  0  0  0  0  0  0
    0.3609    3.8078    1.2711 H   0  0  0  0  0  0  0  0  0  0  0  0
  1  2  1  0  0  0  0
  2  3  1  0  0  0  0
  2  4  1  0  0  0  0
  2  5  1  0  0  0  0
  5  6  2  0  0  0  0
  5  7  1  0  0  0  0
  7  8  1  0  0  0  0
  7  9  1  0  0  0  0
  9 10  1  0  0  0  0
  9 11  1  0  0  0  0
  9 21  1  0  0  0  0
 11 12  1  0  0  0  0
 11 13  1  0  0  0  0
 11 14  1  0  0  0  0
 14 15  1  0  0  0  0
 14 16  1  0  0  0  0
 14 17  1  0  0  0  0
 17 18  2  0  0  0  0
 17 19  1  0  0  0  0
 19 20  1  0  0  0  0
 21 22  2  0  0  0  0
 21 23  1  0  0  0  0
 23 24  1  0  0  0  0
 23 25  1  0  0  0  0
 25 26  1  0  0  0  0
 25 27  1  0  0  0  0
 25 28  1  0  0  0  0
M  END
$$$$

  -OEChem-02102214123D

 28 27  0     1  0  0  0  0  0999 V2000
   -3.2318   -3.7044    1.2898 H   0  0  0  0  0  0  0  0  0  0  0  0
   -3.1938   -2.7141    0.8275 C   0  0  0  0  0  0  0  0  0  0  0  0
   -3.8162   -2.0294    1.4088 H   0  0  0  0  0  0  0  0  0  0  0  0
   -3.5910   -2.7839   -0.1881 H   0  0  0  0  0  0  0  0  0  0  0  0
   -1.7642   -2.2087    0.7900 C   0  0  0  0  0  0  0  0  0  0  0  0
   -0.8591   -2.8910    1.2438 O   0  0  0  0  0  0  0  0  0  0  0  0
   -1.4891   -0.9710    0.2496 N   0  0  0  0  0  0  0  0  0  0  0  0
   -2.2802   -0.3894   -0.0257 H   0  0  0  0  0  0  0  0  0  0  0  0
   -0.1660   -0.3313    0.2608 C   0  0  1  0  0  0  0  0  0  0  0  0
    0.4956   -0.7964    0.9991 H   0  0  0  0  0  0  0  0  0  0  0  0
    0.4467   -0.5041   -1.1502 C   0  0  0  0  0  0  0  0  0  0  0  0
    0.9812   -1.4598   -1.1629 H   0  0  0  0  0  0  0  0  0  0  0  0
   -0.3613   -0.5922   -1.8852 H   0  0  0  0  0  0  0  0  0  0  0  0
    1.4189    0.6164   -1.6001 C   0  0  0  0  0  0  0  0  0  0  0  0
    1.8129    1.1779   -0.7503 H   0  0  0  0  0  0  0  0  0  0  0  0
    2.2807    0.1475   -2.0832 H   0  0  0  0  0  0  0  0  0  0  0  0
    0.8147    1.5764   -2.6232 C   0  0  0  0  0  0  0  0  0  0  0  0
    0.3239    1.1255   -3.6450 O   0  0  0  0  0  0  0  0  0  0  0  0
    0.8735    2.8978   -2.3410 O   0  0  0  0  0  0  0  0  0  0  0  0
    0.4034    3.3429   -3.0622 H   0  0  0  0  0  0  0  0  0  0  0  0
   -0.3657    1.1447    0.6764 C   0  0  0  0  0  0  0  0  0  0  0  0
   -1.3011    1.7878    0.2122 O   0  0  0  0  0  0  0  0  0  0  0  0
    0.4667    1.7383    1.6077 N   0  0  0  0  0  0  0  0  0  0  0  0
    1.2050    1.1704    2.0131 H   0  0  0  0  0  0  0  0  0  0  0  0
    0.3200    3.1229    2.0403 C   0  0  0  0  0  0  0  0  0  0  0  0
   -0.6485    3.2711    2.5297 H   0  0  0  0  0  0  0  0  0  0  0  0
    1.1101    3.3841    2.7509 H   0  0  0  0  0  0  0  0  0  0  0  0
    0.3892    3.8010    1.1828 H   0  0  0  0  0  0  0  0  0  0  0  0
  1  2  1  0  0  0  0
  2  3  1  0  0  0  0
  2  4  1  0  0  0  0
  2  5  1  0  0  0  0
  5  6  2  0  0  0  0
  5  7  1  0  0  0  0
  7  8  1  0  0  0  0
  7  9  1  0  0  0  0
  9 10  1  0  0  0  0
  9 11  1  0  0  0  0
  9 21  1  0  0  0  0
 11 12  1  0  0  0  0
 11 13  1  0  0  0  0
 11 14  1  0  0  0  0
 14 15  1  0  0  0  0
 14 16  1  0  0  0  0
 14 17  1  0  0  0  0
 17 18  2  0  0  0  0
 17 19  1  0  0  0  0
 19 20  1  0  0  0  0
 21 22  2  0  0  0  0
 21 23  1  0  0  0  0
 23 24  1  0  0  0  0
 23 25  1  0  0  0  0
 25 26  1  0  0  0  0
 25 27  1  0  0  0  0
 25 28  1  0  0  0  0
M  END
$$$$

  -OEChem-02102214123D

 28 27  0     1  0  0  0  0  0999 V2000
   -3.2027   -3.7192    1.3189 H   0  0  0  0  0  0  0  0  0  0  0  0
   -3.1796   -2.7377    0.8371 C   0  0  0  0  0  0  0  0  0  0  0  0
   -3.8128   -2.0516    1.4048 H   0  0  0  0  0  0  0  0  0  0  0  0
   -3.5753   -2.8332   -0.1769 H   0  0  0  0  0  0  0  0  0  0  0  0
   -1.7576   -2.2120    0.7903 C   0  0  0  0  0  0  0  0  0  0  0  0
   -0.8405   -2.8837    1.2357 O   0  0  0  0  0  0  0  0  0  0  0  0
   -1.5023   -0.9691    0.2515 N   0  0  0  0  0  0  0  0  0  0  0  0
   -2.3019   -0.3980   -0.0211 H   0  0  0  0  0  0  0  0  0  0  0  0
   -0.1871   -0.3141    0.2536 C   0  0  1  0  0  0  0  0  0  0  0  0
    0.4768   -0.7732    0.9934 H   0  0  0  0  0  0  0  0  0  0  0  0
    0.4338   -0.4982   -1.1527 C   0  0  0  0  0  0  0  0  0  0  0  0
    0.9853   -1.4443   -1.1460 H   0  0  0  0  0  0  0  0  0  0  0  0
   -0.3641   -0.6087   -1.8957 H   0  0  0  0  0  0  0  0  0  0  0  0
    1.3896    0.6297   -1.6083 C   0  0  0  0  0  0  0  0  0  0  0  0
    1.9507    1.0282   -0.7592 H   0  0  0  0  0  0  0  0  0  0  0  0
    2.1225    0.2039   -2.2991 H   0  0  0  0  0  0  0  0  0  0  0  0
    0.6917    1.7673   -2.3530 C   0  0  0  0  0  0  0  0  0  0  0  0
   -0.0089    1.5051   -3.3164 O   0  0  0  0  0  0  0  0  0  0  0  0
    0.9069    3.0245   -1.9027 O   0  0  0  0  0  0  0  0  0  0  0  0
    0.3403    3.5953   -2.4437 H   0  0  0  0  0  0  0  0  0  0  0  0
   -0.3807    1.1608    0.6741 C   0  0  0  0  0  0  0  0  0  0  0  0
   -1.3321    1.8014    0.2400 O   0  0  0  0  0  0  0  0  0  0  0  0
    0.4658    1.7479    1.5963 N   0  0  0  0  0  0  0  0  0  0  0  0
    1.2212    1.1825    1.9724 H   0  0  0  0  0  0  0  0  0  0  0  0
    0.3299    3.1305    2.0379 C   0  0  0  0  0  0  0  0  0  0  0  0
   -0.6431    3.2868    2.5153 H   0  0  0  0  0  0  0  0  0  0  0  0
    1.1131    3.3755    2.7618 H   0  0  0  0  0  0  0  0  0  0  0  0
    0.4194    3.8144    1.1871 H   0  0  0  0  0  0  0  0  0  0  0  0
  1  2  1  0  0  0  0
  2  3  1  0  0  0  0
  2  4  1  0  0  0  0
  2  5  1  0  0  0  0
  5  6  2  0  0  0  0
  5  7  1  0  0  0  0
  7  8  1  0  0  0  0
  7  9  1  0  0  0  0
  9 10  1  0  0  0  0
  9 11  1  0  0  0  0
  9 21  1  0  0  0  0
 11 12  1  0  0  0  0
 11 13  1  0  0  0  0
 11 14  1  0  0  0  0
 14 15  1  0  0  0  0
 14 16  1  0  0  0  0
 14 17  1  0  0  0  0
 17 18  2  0  0  0  0
 17 19  1  0  0  0  0
 19 20  1  0  0  0  0
 21 22  2  0  0  0  0
 21 23  1  0  0  0  0
 23 24  1  0  0  0  0
 23 25  1  0  0  0  0
 25 26  1  0  0  0  0
 25 27  1  0  0  0  0
 25 28  1  0  0  0  0
M  END
$$$$

  -OEChem-02102214123D

 28 27  0     1  0  0  0  0  0999 V2000
   -3.1668   -3.7426    1.3101 H   0  0  0  0  0  0  0  0  0  0  0  0
   -3.1611   -2.7578    0.8347 C   0  0  0  0  0  0  0  0  0  0  0  0
   -3.7969   -2.0836    1.4135 H   0  0  0  0  0  0  0  0  0  0  0  0
   -3.5660   -2.8518   -0.1759 H   0  0  0  0  0  0  0  0  0  0  0  0
   -1.7465   -2.2134    0.7764 C   0  0  0  0  0  0  0  0  0  0  0  0
   -0.8127   -2.8843    1.1872 O   0  0  0  0  0  0  0  0  0  0  0  0
   -1.5168   -0.9561    0.2606 N   0  0  0  0  0  0  0  0  0  0  0  0
   -2.3293   -0.3908    0.0155 H   0  0  0  0  0  0  0  0  0  0  0  0
   -0.2133   -0.2783    0.2588 C   0  0  1  0  0  0  0  0  0  0  0  0
    0.4497   -0.7367    1.0001 H   0  0  0  0  0  0  0  0  0  0  0  0
    0.4277   -0.4803   -1.1381 C   0  0  0  0  0  0  0  0  0  0  0  0
    0.9839   -1.4235   -1.1131 H   0  0  0  0  0  0  0  0  0  0  0  0
   -0.3674   -0.6048   -1.8822 H   0  0  0  0  0  0  0  0  0  0  0  0
    1.3712    0.6381   -1.6376 C   0  0  0  0  0  0  0  0  0  0  0  0
    2.0825    0.8987   -0.8490 H   0  0  0  0  0  0  0  0  0  0  0  0
    1.9504    0.2578   -2.4836 H   0  0  0  0  0  0  0  0  0  0  0  0
    0.6544    1.9033   -2.1083 C   0  0  0  0  0  0  0  0  0  0  0  0
   -0.1967    1.8041   -2.9756 O   0  0  0  0  0  0  0  0  0  0  0  0
    1.0140    3.0776   -1.5413 O   0  0  0  0  0  0  0  0  0  0  0  0
    0.4048    3.7359   -1.9104 H   0  0  0  0  0  0  0  0  0  0  0  0
   -0.4047    1.1869    0.7087 C   0  0  0  0  0  0  0  0  0  0  0  0
   -1.3816    1.8237    0.3296 O   0  0  0  0  0  0  0  0  0  0  0  0
    0.4575    1.7574    1.6266 N   0  0  0  0  0  0  0  0  0  0  0  0
    1.2453    1.2007    1.9444 H   0  0  0  0  0  0  0  0  0  0  0  0
    0.3289    3.1310    2.0970 C   0  0  0  0  0  0  0  0  0  0  0  0
   -0.6430    3.2828    2.5783 H   0  0  0  0  0  0  0  0  0  0  0  0
    1.1135    3.3566    2.8256 H   0  0  0  0  0  0  0  0  0  0  0  0
    0.4219    3.8318    1.2606 H   0  0  0  0  0  0  0  0  0  0  0  0
  1  2  1  0  0  0  0
  2  3  1  0  0  0  0
  2  4  1  0  0  0  0
  2  5  1  0  0  0  0
  5  6  2  0  0  0  0
  5  7  1  0  0  0  0
  7  8  1  0  0  0  0
  7  9  1  0  0  0  0
  9 10  1  0  0  0  0
  9 11  1  0  0  0  0
  9 21  1  0  0  0  0
 11 12  1  0  0  0  0
 11 13  1  0  0  0  0
 11 14  1  0  0  0  0
 14 15  1  0  0  0  0
 14 16  1  0  0  0  0
 14 17  1  0  0  0  0
 17 18  2  0  0  0  0
 17 19  1  0  0  0  0
 19 20  1  0  0  0  0
 21 22  2  0  0  0  0
 21 23  1  0  0  0  0
 23 24  1  0  0  0  0
 23 25  1  0  0  0  0
 25 26  1  0  0  0  0
 25 27  1  0  0  0  0
 25 28  1  0  0  0  0
M  END
$$$$

  -OEChem-02102214123D

 28 27  0     1  0  0  0  0  0999 V2000
   -3.1152   -3.7676    1.2973 H   0  0  0  0  0  0  0  0  0  0  0  0
   -3.1323   -2.7713    0.8465 C   0  0  0  0  0  0  0  0  0  0  0  0
   -3.7615   -2.1191    1.4572 H   0  0  0  0  0  0  0  0  0  0  0  0
   -3.5611   -2.8452   -0.1557 H   0  0  0  0  0  0  0  0  0  0  0  0
   -1.7257   -2.2089    0.7668 C   0  0  0  0  0  0  0  0  0  0  0  0
   -0.7754   -2.8767    1.1435 O   0  0  0  0  0  0  0  0  0  0  0  0
   -1.5219   -0.9379    0.2734 N   0  0  0  0  0  0  0  0  0  0  0  0
   -2.3464   -0.3769    0.0601 H   0  0  0  0  0  0  0  0  0  0  0  0
   -0.2283   -0.2402    0.2670 C   0  0  1  0  0  0  0  0  0  0  0  0
    0.4391   -0.6961    1.0059 H   0  0  0  0  0  0  0  0  0  0  0  0
    0.4217   -0.4562   -1.1281 C   0  0  0  0  0  0  0  0  0  0  0  0
    0.9659   -1.4061   -1.0990 H   0  0  0  0  0  0  0  0  0  0  0  0
   -0.3855   -0.5784   -1.8594 H   0  0  0  0  0  0  0  0  0  0  0  0
    1.3611    0.6321   -1.7014 C   0  0  0  0  0  0  0  0  0  0  0  0
    2.2192    0.7423   -1.0327 H   0  0  0  0  0  0  0  0  0  0  0  0
    1.7452    0.2937   -2.6680 H   0  0  0  0  0  0  0  0  0  0  0  0
    0.7343    2.0089   -1.9060 C   0  0  0  0  0  0  0  0  0  0  0  0
   -0.1931    2.1045   -2.6906 O   0  0  0  0  0  0  0  0  0  0  0  0
    1.2527    3.0568   -1.2257 O   0  0  0  0  0  0  0  0  0  0  0  0
    0.6870    3.8112   -1.4539 H   0  0  0  0  0  0  0  0  0  0  0  0
   -0.4339    1.2121    0.7491 C   0  0  0  0  0  0  0  0  0  0  0  0
   -1.4370    1.8361    0.4218 O   0  0  0  0  0  0  0  0  0  0  0  0
    0.4361    1.7719    1.6664 N   0  0  0  0  0  0  0  0  0  0  0  0
    1.2436    1.2233    1.9467 H   0  0  0  0  0  0  0  0  0  0  0  0
    0.2650    3.1089    2.2212 C   0  0  0  0  0  0  0  0  0  0  0  0
   -0.7000    3.1918    2.7325 H   0  0  0  0  0  0  0  0  0  0  0  0
    1.0577    3.3222    2.9447 H   0  0  0  0  0  0  0  0  0  0  0  0
    0.3094    3.8615    1.4272 H   0  0  0  0  0  0  0  0  0  0  0  0
  1  2  1  0  0  0  0
  2  3  1  0  0  0  0
  2  4  1  0  0  0  0
  2  5  1  0  0  0  0
  5  6  2  0  0  0  0
  5  7  1  0  0  0  0
  7  8  1  0  0  0  0
  7  9  1  0  0  0  0
  9 10  1  0  0  0  0
  9 11  1  0  0  0  0
  9 21  1  0  0  0  0
 11 12  1  0  0  0  0
 11 13  1  0  0  0  0
 11 14  1  0  0  0  0
 14 15  1  0  0  0  0
 14 16  1  0  0  0  0
 14 17  1  0  0  0  0
 17 18  2  0  0  0  0
 17 19  1  0  0  0  0
 19 20  1  0  0  0  0
 21 22  2  0  0  0  0
 21 23  1  0  0  0  0
 23 24  1  0  0  0  0
 23 25  1  0  0  0  0
 25 26  1  0  0  0  0
 25 27  1  0  0  0  0
 25 28  1  0  0  0  0
M  END
$$$$

  -OEChem-02102214123D

 28 27  0     1  0  0  0  0  0999 V2000
   -3.1152   -3.7791    1.2241 H   0  0  0  0  0  0  0  0  0  0  0  0
   -3.1304   -2.7768    0.7870 C   0  0  0  0  0  0  0  0  0  0  0  0
   -3.7646   -2.1339    1.4021 H   0  0  0  0  0  0  0  0  0  0  0  0
   -3.5518   -2.8372   -0.2194 H   0  0  0  0  0  0  0  0  0  0  0  0
   -1.7245   -2.2108    0.7260 C   0  0  0  0  0  0  0  0  0  0  0  0
   -0.7747   -2.8826    1.0966 O   0  0  0  0  0  0  0  0  0  0  0  0
   -1.5213   -0.9319    0.2542 N   0  0  0  0  0  0  0  0  0  0  0  0
   -2.3476   -0.3671    0.0569 H   0  0  0  0  0  0  0  0  0  0  0  0
   -0.2340   -0.2228    0.2880 C   0  0  1  0  0  0  0  0  0  0  0  0
    0.4188   -0.6760    1.0415 H   0  0  0  0  0  0  0  0  0  0  0  0
    0.4496   -0.4390   -1.0937 C   0  0  0  0  0  0  0  0  0  0  0  0
    0.9717   -1.4011   -1.0610 H   0  0  0  0  0  0  0  0  0  0  0  0
   -0.3558   -0.5446   -1.8295 H   0  0  0  0  0  0  0  0  0  0  0  0
    1.4077    0.6174   -1.7014 C   0  0  0  0  0  0  0  0  0  0  0  0
    2.3626    0.5456   -1.1733 H   0  0  0  0  0  0  0  0  0  0  0  0
    1.6001    0.3549   -2.7457 H   0  0  0  0  0  0  0  0  0  0  0  0
    0.9784    2.0796   -1.6574 C   0  0  0  0  0  0  0  0  0  0  0  0
    0.0667    2.4272   -2.3860 O   0  0  0  0  0  0  0  0  0  0  0  0
    1.6554    2.9259   -0.8479 O   0  0  0  0  0  0  0  0  0  0  0  0
    1.2186    3.7849   -0.9597 H   0  0  0  0  0  0  0  0  0  0  0  0
   -0.4851    1.2175    0.7856 C   0  0  0  0  0  0  0  0  0  0  0  0
   -1.5048    1.8142    0.4589 O   0  0  0  0  0  0  0  0  0  0  0  0
    0.3448    1.7841    1.7357 N   0  0  0  0  0  0  0  0  0  0  0  0
    1.1757    1.2657    2.0055 H   0  0  0  0  0  0  0  0  0  0  0  0
    0.1087    3.0955    2.3268 C   0  0  0  0  0  0  0  0  0  0  0  0
   -0.8458    3.1074    2.8637 H   0  0  0  0  0  0  0  0  0  0  0  0
    0.9063    3.3410    3.0346 H   0  0  0  0  0  0  0  0  0  0  0  0
    0.0858    3.8674    1.5507 H   0  0  0  0  0  0  0  0  0  0  0  0
  1  2  1  0  0  0  0
  2  3  1  0  0  0  0
  2  4  1  0  0  0  0
  2  5  1  0  0  0  0
  5  6  2  0  0  0  0
  5  7  1  0  0  0  0
  7  8  1  0  0  0  0
  7  9  1  0  0  0  0
  9 10  1  0  0  0  0
  9 11  1  0  0  0  0
  9 21  1  0  0  0  0
 11 12  1  0  0  0  0
 11 13  1  0  0  0  0
 11 14  1  0  0  0  0
 14 15  1  0  0  0  0
 14 16  1  0  0  0  0
 14 17  1  0  0  0  0
 17 18  2  0  0  0  0
 17 19  1  0  0  0  0
 19 20  1  0  0  0  0
 21 22  2  0  0  0  0
 21 23  1  0  0  0  0
 23 24  1  0  0  0  0
 23 25  1  0  0  0  0
 25 26  1  0  0  0  0
 25 27  1  0  0  0  0
 25 28  1  0  0  0  0
M  END
$$$$

  -OEChem-02102214123D

 28 27  0     1  0  0  0  0  0999 V2000
   -3.0803   -3.8430    0.9901 H   0  0  0  0  0  0  0  0  0  0  0  0
   -3.0889   -2.8330    0.5711 C   0  0  0  0  0  0  0  0  0  0  0  0
   -3.7738   -2.2147    1.1563 H   0  0  0  0  0  0  0  0  0  0  0  0
   -3.4441   -2.8821   -0.4610 H   0  0  0  0  0  0  0  0  0  0  0  0
   -1.6938   -2.2396    0.6095 C   0  0  0  0  0  0  0  0  0  0  0  0
   -0.7567   -2.9008    1.0284 O   0  0  0  0  0  0  0  0  0  0  0  0
   -1.4841   -0.9498    0.1715 N   0  0  0  0  0  0  0  0  0  0  0  0
   -2.3066   -0.3899   -0.0551 H   0  0  0  0  0  0  0  0  0  0  0  0
   -0.2121   -0.2233    0.3043 C   0  0  1  0  0  0  0  0  0  0  0  0
    0.4102   -0.6761    1.0832 H   0  0  0  0  0  0  0  0  0  0  0  0
    0.5367   -0.3852   -1.0525 C   0  0  0  0  0  0  0  0  0  0  0  0
    1.0492   -1.3531   -1.0360 H   0  0  0  0  0  0  0  0  0  0  0  0
   -0.2429   -0.4607   -1.8193 H   0  0  0  0  0  0  0  0  0  0  0  0
    1.5203    0.6775   -1.6159 C   0  0  0  0  0  0  0  0  0  0  0  0
    2.5181    0.4194   -1.2498 H   0  0  0  0  0  0  0  0  0  0  0  0
    1.5505    0.5766   -2.7050 H   0  0  0  0  0  0  0  0  0  0  0  0
    1.3149    2.1512   -1.2891 C   0  0  0  0  0  0  0  0  0  0  0  0
    0.5133    2.7824   -1.9532 O   0  0  0  0  0  0  0  0  0  0  0  0
    2.0776    2.6997   -0.3150 O   0  0  0  0  0  0  0  0  0  0  0  0
    1.8089    3.6309   -0.2773 H   0  0  0  0  0  0  0  0  0  0  0  0
   -0.5589    1.1959    0.8077 C   0  0  0  0  0  0  0  0  0  0  0  0
   -1.5778    1.7551    0.4174 O   0  0  0  0  0  0  0  0  0  0  0  0
    0.1700    1.7777    1.8287 N   0  0  0  0  0  0  0  0  0  0  0  0
    1.0044    1.2930    2.1474 H   0  0  0  0  0  0  0  0  0  0  0  0
   -0.1748    3.0614    2.4271 C   0  0  0  0  0  0  0  0  0  0  0  0
   -1.1400    2.9963    2.9404 H   0  0  0  0  0  0  0  0  0  0  0  0
    0.5864    3.3563    3.1558 H   0  0  0  0  0  0  0  0  0  0  0  0
   -0.2367    3.8388    1.6583 H   0  0  0  0  0  0  0  0  0  0  0  0
  1  2  1  0  0  0  0
  2  3  1  0  0  0  0
  2  4  1  0  0  0  0
  2  5  1  0  0  0  0
  5  6  2  0  0  0  0
  5  7  1  0  0  0  0
  7  8  1  0  0  0  0
  7  9  1  0  0  0  0
  9 10  1  0  0  0  0
  9 11  1  0  0  0  0
  9 21  1  0  0  0  0
 11 12  1  0  0  0  0
 11 13  1  0  0  0  0
 11 14  1  0  0  0  0
 14 15  1  0  0  0  0
 14 16  1  0  0  0  0
 14 17  1  0  0  0  0
 17 18  2  0  0  0  0
 17 19  1  0  0  0  0
 19 20  1  0  0  0  0
 21 22  2  0  0  0  0
 21 23  1  0  0  0  0
 23 24  1  0  0  0  0
 23 25  1  0  0  0  0
 25 26  1  0  0  0  0
 25 27  1  0  0  0  0
 25 28  1  0  0  0  0
M  END
$$$$

  -OEChem-02102214123D

 28 27  0     1  0  0  0  0  0999 V2000
   -2.8281   -3.9763    1.0808 H   0  0  0  0  0  0  0  0  0  0  0  0
   -2.9047   -2.9625    0.6779 C   0  0  0  0  0  0  0  0  0  0  0  0
   -3.5654   -2.3771    1.3219 H   0  0  0  0  0  0  0  0  0  0  0  0
   -3.3351   -3.0127   -0.3252 H   0  0  0  0  0  0  0  0  0  0  0  0
   -1.5330   -2.3176    0.6202 C   0  0  0  0  0  0  0  0  0  0  0  0
   -0.5407   -2.9548    0.9364 O   0  0  0  0  0  0  0  0  0  0  0  0
   -1.4083   -1.0060    0.2161 N   0  0  0  0  0  0  0  0  0  0  0  0
   -2.2677   -0.4715    0.0835 H   0  0  0  0  0  0  0  0  0  0  0  0
   -0.1605   -0.2292    0.2870 C   0  0  1  0  0  0  0  0  0  0  0  0
    0.5489   -0.6772    0.9909 H   0  0  0  0  0  0  0  0  0  0  0  0
    0.4619   -0.2820   -1.1414 C   0  0  0  0  0  0  0  0  0  0  0  0
    1.0091   -1.2273   -1.2253 H   0  0  0  0  0  0  0  0  0  0  0  0
   -0.3827   -0.3544   -1.8361 H   0  0  0  0  0  0  0  0  0  0  0  0
    1.3500    0.8459   -1.7417 C   0  0  0  0  0  0  0  0  0  0  0  0
    2.3813    0.4817   -1.7349 H   0  0  0  0  0  0  0  0  0  0  0  0
    1.0740    0.9764   -2.7928 H   0  0  0  0  0  0  0  0  0  0  0  0
    1.3885    2.2252   -1.0970 C   0  0  0  0  0  0  0  0  0  0  0  0
    0.6587    3.0953   -1.5355 O   0  0  0  0  0  0  0  0  0  0  0  0
    2.2855    2.4312   -0.1040 O   0  0  0  0  0  0  0  0  0  0  0  0
    2.1841    3.3651    0.1379 H   0  0  0  0  0  0  0  0  0  0  0  0
   -0.5639    1.1467    0.8676 C   0  0  0  0  0  0  0  0  0  0  0  0
   -1.6321    1.6576    0.5474 O   0  0  0  0  0  0  0  0  0  0  0  0
    0.1860    1.7424    1.8653 N   0  0  0  0  0  0  0  0  0  0  0  0
    1.0751    1.3112    2.1045 H   0  0  0  0  0  0  0  0  0  0  0  0
   -0.1879    2.9992    2.5028 C   0  0  0  0  0  0  0  0  0  0  0  0
   -1.1432    2.8925    3.0276 H   0  0  0  0  0  0  0  0  0  0  0  0
    0.5740    3.2973    3.2293 H   0  0  0  0  0  0  0  0  0  0  0  0
   -0.2845    3.7941    1.7556 H   0  0  0  0  0  0  0  0  0  0  0  0
  1  2  1  0  0  0  0
  2  3  1  0  0  0  0
  2  4  1  0  0  0  0
  2  5  1  0  0  0  0
  5  6  2  0  0  0  0
  5  7  1  0  0  0  0
  7  8  1  0  0  0  0
  7  9  1  0  0  0  0
  9 10  1  0  0  0  0
  9 11  1  0  0  0  0
  9 21  1  0  0  0  0
 11 12  1  0  0  0  0
 11 13  1  0  0  0  0
 11 14  1  0  0  0  0
 14 15  1  0  0  0  0
 14 16  1  0  0  0  0
 14 17  1  0  0  0  0
 17 18  2  0  0  0  0
 17 19  1  0  0  0  0
 19 20  1  0  0  0  0
 21 22  2  0  0  0  0
 21 23  1  0  0  0  0
 23 24  1  0  0  0  0
 23 25  1  0  0  0  0
 25 26  1  0  0  0  0
 25 27  1  0  0  0  0
 25 28  1  0  0  0  0
M  END
$$$$

  -OEChem-02102214123D

 28 27  0     1  0  0  0  0  0999 V2000
   -3.0621   -3.7668    1.3900 H   0  0  0  0  0  0  0  0  0  0  0  0
   -3.0854   -2.7749    0.9300 C   0  0  0  0  0  0  0  0  0  0  0  0
   -3.6978   -2.1143    1.5487 H   0  0  0  0  0  0  0  0  0  0  0  0
   -3.5370   -2.8561   -0.0616 H   0  0  0  0  0  0  0  0  0  0  0  0
   -1.6786   -2.2199    0.8125 C   0  0  0  0  0  0  0  0  0  0  0  0
   -0.7195   -2.9038    1.1331 O   0  0  0  0  0  0  0  0  0  0  0  0
   -1.4836   -0.9398    0.3411 N   0  0  0  0  0  0  0  0  0  0  0  0
   -2.3109   -0.3586    0.2021 H   0  0  0  0  0  0  0  0  0  0  0  0
   -0.1857   -0.2466    0.3282 C   0  0  1  0  0  0  0  0  0  0  0  0
    0.5339   -0.7103    1.0116 H   0  0  0  0  0  0  0  0  0  0  0  0
    0.3417   -0.3697   -1.1325 C   0  0  0  0  0  0  0  0  0  0  0  0
    0.8418   -1.3416   -1.2045 H   0  0  0  0  0  0  0  0  0  0  0  0
   -0.5362   -0.4290   -1.7860 H   0  0  0  0  0  0  0  0  0  0  0  0
    1.2657    0.6896   -1.8014 C   0  0  0  0  0  0  0  0  0  0  0  0
    2.1798    0.1806   -2.1198 H   0  0  0  0  0  0  0  0  0  0  0  0
    0.7698    1.0393   -2.7126 H   0  0  0  0  0  0  0  0  0  0  0  0
    1.7034    1.9231   -1.0209 C   0  0  0  0  0  0  0  0  0  0  0  0
    1.2628    3.0121   -1.3421 O   0  0  0  0  0  0  0  0  0  0  0  0
    2.6268    1.7500   -0.0453 O   0  0  0  0  0  0  0  0  0  0  0  0
    2.8283    2.6442    0.2723 H   0  0  0  0  0  0  0  0  0  0  0  0
   -0.4901    1.1751    0.8578 C   0  0  0  0  0  0  0  0  0  0  0  0
   -1.5148    1.7520    0.5077 O   0  0  0  0  0  0  0  0  0  0  0  0
    0.3257    1.7718    1.8012 N   0  0  0  0  0  0  0  0  0  0  0  0
    1.1876    1.2894    2.0422 H   0  0  0  0  0  0  0  0  0  0  0  0
    0.0952    3.1157    2.3175 C   0  0  0  0  0  0  0  0  0  0  0  0
   -0.8899    3.1807    2.7917 H   0  0  0  0  0  0  0  0  0  0  0  0
    0.8534    3.3703    3.0640 H   0  0  0  0  0  0  0  0  0  0  0  0
    0.1444    3.8505    1.5066 H   0  0  0  0  0  0  0  0  0  0  0  0
  1  2  1  0  0  0  0
  2  3  1  0  0  0  0
  2  4  1  0  0  0  0
  2  5  1  0  0  0  0
  5  6  2  0  0  0  0
  5  7  1  0  0  0  0
  7  8  1  0  0  0  0
  7  9  1  0  0  0  0
  9 10  1  0  0  0  0
  9 11  1  0  0  0  0
  9 21  1  0  0  0  0
 11 12  1  0  0  0  0
 11 13  1  0  0  0  0
 11 14  1  0  0  0  0
 14 15  1  0  0  0  0
 14 16  1  0  0  0  0
 14 17  1  0  0  0  0
 17 18  2  0  0  0  0
 17 19  1  0  0  0  0
 19 20  1  0  0  0  0
 21 22  2  0  0  0  0
 21 23  1  0  0  0  0
 23 24  1  0  0  0  0
 23 25  1  0  0  0  0
 25 26  1  0  0  0  0
 25 27  1  0  0  0  0
 25 28  1  0  0  0  0
M  END
$$$$

  -OEChem-02102214123D

 28 27  0     1  0  0  0  0  0999 V2000
   -3.3038   -3.6496    1.2603 H   0  0  0  0  0  0  0  0  0  0  0  0
   -3.2349   -2.6628    0.7943 C   0  0  0  0  0  0  0  0  0  0  0  0
   -3.8549   -1.9625    1.3591 H   0  0  0  0  0  0  0  0  0  0  0  0
   -3.6114   -2.7289   -0.2293 H   0  0  0  0  0  0  0  0  0  0  0  0
   -1.7941   -2.1889    0.7849 C   0  0  0  0  0  0  0  0  0  0  0  0
   -0.9088   -2.9082    1.2191 O   0  0  0  0  0  0  0  0  0  0  0  0
   -1.4869   -0.9418    0.2852 N   0  0  0  0  0  0  0  0  0  0  0  0
   -2.2652   -0.3263    0.0475 H   0  0  0  0  0  0  0  0  0  0  0  0
   -0.1593   -0.3141    0.3782 C   0  0  1  0  0  0  0  0  0  0  0  0
    0.4712   -0.7837    1.1411 H   0  0  0  0  0  0  0  0  0  0  0  0
    0.4908   -0.4964   -1.0241 C   0  0  0  0  0  0  0  0  0  0  0  0
    0.9741   -1.4793   -1.0074 H   0  0  0  0  0  0  0  0  0  0  0  0
   -0.3107   -0.5586   -1.7689 H   0  0  0  0  0  0  0  0  0  0  0  0
    1.5210    0.5195   -1.5926 C   0  0  0  0  0  0  0  0  0  0  0  0
    2.3180   -0.0321   -2.0988 H   0  0  0  0  0  0  0  0  0  0  0  0
    1.0082    1.1095   -2.3584 H   0  0  0  0  0  0  0  0  0  0  0  0
    2.1717    1.5181   -0.6418 C   0  0  0  0  0  0  0  0  0  0  0  0
    2.7374    1.0856    0.3505 O   0  0  0  0  0  0  0  0  0  0  0  0
    2.1128    2.8322   -0.9576 O   0  0  0  0  0  0  0  0  0  0  0  0
    2.5847    3.3030   -0.2550 H   0  0  0  0  0  0  0  0  0  0  0  0
   -0.4439    1.1441    0.8179 C   0  0  0  0  0  0  0  0  0  0  0  0
   -1.3889    1.7566    0.3295 O   0  0  0  0  0  0  0  0  0  0  0  0
    0.2971    1.7493    1.8156 N   0  0  0  0  0  0  0  0  0  0  0  0
    1.1490    1.2719    2.1061 H   0  0  0  0  0  0  0  0  0  0  0  0
    0.0718    3.1195    2.2583 C   0  0  0  0  0  0  0  0  0  0  0  0
   -0.9406    3.2295    2.6610 H   0  0  0  0  0  0  0  0  0  0  0  0
    0.7855    3.3856    3.0439 H   0  0  0  0  0  0  0  0  0  0  0  0
    0.1967    3.8175    1.4238 H   0  0  0  0  0  0  0  0  0  0  0  0
  1  2  1  0  0  0  0
  2  3  1  0  0  0  0
  2  4  1  0  0  0  0
  2  5  1  0  0  0  0
  5  6  2  0  0  0  0
  5  7  1  0  0  0  0
  7  8  1  0  0  0  0
  7  9  1  0  0  0  0
  9 10  1  0  0  0  0
  9 11  1  0  0  0  0
  9 21  1  0  0  0  0
 11 12  1  0  0  0  0
 11 13  1  0  0  0  0
 11 14  1  0  0  0  0
 14 15  1  0  0  0  0
 14 16  1  0  0  0  0
 14 17  1  0  0  0  0
 17 18  2  0  0  0  0
 17 19  1  0  0  0  0
 19 20  1  0  0  0  0
 21 22  2  0  0  0  0
 21 23  1  0  0  0  0
 23 24  1  0  0  0  0
 23 25  1  0  0  0  0
 25 26  1  0  0  0  0
 25 27  1  0  0  0  0
 25 28  1  0  0  0  0
M  END
$$$$

  -OEChem-02102214123D

 28 27  0     1  0  0  0  0  0999 V2000
   -3.2924   -3.6966    1.2042 H   0  0  0  0  0  0  0  0  0  0  0  0
   -3.2285   -2.7088    0.7393 C   0  0  0  0  0  0  0  0  0  0  0  0
   -3.8693   -2.0174    1.2918 H   0  0  0  0  0  0  0  0  0  0  0  0
   -3.5840   -2.7806   -0.2914 H   0  0  0  0  0  0  0  0  0  0  0  0
   -1.7948   -2.2140    0.7579 C   0  0  0  0  0  0  0  0  0  0  0  0
   -0.9087   -2.9217    1.2088 O   0  0  0  0  0  0  0  0  0  0  0  0
   -1.4952   -0.9647    0.2585 N   0  0  0  0  0  0  0  0  0  0  0  0
   -2.2770   -0.3626    0.0008 H   0  0  0  0  0  0  0  0  0  0  0  0
   -0.1750   -0.3233    0.3578 C   0  0  1  0  0  0  0  0  0  0  0  0
    0.4533   -0.7950    1.1214 H   0  0  0  0  0  0  0  0  0  0  0  0
    0.4900   -0.4818   -1.0365 C   0  0  0  0  0  0  0  0  0  0  0  0
    0.9990   -1.4518   -1.0259 H   0  0  0  0  0  0  0  0  0  0  0  0
   -0.2959   -0.5475   -1.7971 H   0  0  0  0  0  0  0  0  0  0  0  0
    1.5034    0.5792   -1.5430 C   0  0  0  0  0  0  0  0  0  0  0  0
    2.1763    0.1128   -2.2676 H   0  0  0  0  0  0  0  0  0  0  0  0
    0.9320    1.3431   -2.0796 H   0  0  0  0  0  0  0  0  0  0  0  0
    2.3508    1.3197   -0.5092 C   0  0  0  0  0  0  0  0  0  0  0  0
    2.7482    0.7158    0.4753 O   0  0  0  0  0  0  0  0  0  0  0  0
    2.6428    2.6172   -0.7565 O   0  0  0  0  0  0  0  0  0  0  0  0
    3.2025    2.9153   -0.0242 H   0  0  0  0  0  0  0  0  0  0  0  0
   -0.4418    1.1382    0.7925 C   0  0  0  0  0  0  0  0  0  0  0  0
   -1.3656    1.7671    0.2858 O   0  0  0  0  0  0  0  0  0  0  0  0
    0.3096    1.7342    1.7878 N   0  0  0  0  0  0  0  0  0  0  0  0
    1.1347    1.2260    2.1030 H   0  0  0  0  0  0  0  0  0  0  0  0
    0.1298    3.1183    2.2069 C   0  0  0  0  0  0  0  0  0  0  0  0
   -0.8935    3.2815    2.5616 H   0  0  0  0  0  0  0  0  0  0  0  0
    0.8184    3.3589    3.0225 H   0  0  0  0  0  0  0  0  0  0  0  0
    0.3269    3.8000    1.3727 H   0  0  0  0  0  0  0  0  0  0  0  0
  1  2  1  0  0  0  0
  2  3  1  0  0  0  0
  2  4  1  0  0  0  0
  2  5  1  0  0  0  0
  5  6  2  0  0  0  0
  5  7  1  0  0  0  0
  7  8  1  0  0  0  0
  7  9  1  0  0  0  0
  9 10  1  0  0  0  0
  9 11  1  0  0  0  0
  9 21  1  0  0  0  0
 11 12  1  0  0  0  0
 11 13  1  0  0  0  0
 11 14  1  0  0  0  0
 14 15  1  0  0  0  0
 14 16  1  0  0  0  0
 14 17  1  0  0  0  0
 17 18  2  0  0  0  0
 17 19  1  0  0  0  0
 19 20  1  0  0  0  0
 21 22  2  0  0  0  0
 21 23  1  0  0  0  0
 23 24  1  0  0  0  0
 23 25  1  0  0  0  0
 25 26  1  0  0  0  0
 25 27  1  0  0  0  0
 25 28  1  0  0  0  0
M  END
$$$$

  -OEChem-02102214123D

 28 27  0     1  0  0  0  0  0999 V2000
   -3.2614   -3.7299    1.2384 H   0  0  0  0  0  0  0  0  0  0  0  0
   -3.2156   -2.7420    0.7715 C   0  0  0  0  0  0  0  0  0  0  0  0
   -3.8525   -2.0563    1.3355 H   0  0  0  0  0  0  0  0  0  0  0  0
   -3.5900   -2.8183   -0.2521 H   0  0  0  0  0  0  0  0  0  0  0  0
   -1.7863   -2.2340    0.7632 C   0  0  0  0  0  0  0  0  0  0  0  0
   -0.8880   -2.9300    1.2078 O   0  0  0  0  0  0  0  0  0  0  0  0
   -1.5067   -0.9845    0.2523 N   0  0  0  0  0  0  0  0  0  0  0  0
   -2.2981   -0.3957   -0.0053 H   0  0  0  0  0  0  0  0  0  0  0  0
   -0.1935   -0.3270    0.3286 C   0  0  1  0  0  0  0  0  0  0  0  0
    0.4409   -0.7955    1.0892 H   0  0  0  0  0  0  0  0  0  0  0  0
    0.4768   -0.4786   -1.0607 C   0  0  0  0  0  0  0  0  0  0  0  0
    1.0050   -1.4382   -1.0621 H   0  0  0  0  0  0  0  0  0  0  0  0
   -0.3050   -0.5438   -1.8254 H   0  0  0  0  0  0  0  0  0  0  0  0
    1.4624    0.6255   -1.5213 C   0  0  0  0  0  0  0  0  0  0  0  0
    1.9984    0.2724   -2.4063 H   0  0  0  0  0  0  0  0  0  0  0  0
    0.8746    1.4968   -1.8259 H   0  0  0  0  0  0  0  0  0  0  0  0
    2.4975    1.1142   -0.5049 C   0  0  0  0  0  0  0  0  0  0  0  0
    2.7561    0.4362    0.4773 O   0  0  0  0  0  0  0  0  0  0  0  0
    3.0932    2.3001   -0.7662 O   0  0  0  0  0  0  0  0  0  0  0  0
    3.7296    2.4477   -0.0506 H   0  0  0  0  0  0  0  0  0  0  0  0
   -0.4315    1.1393    0.7560 C   0  0  0  0  0  0  0  0  0  0  0  0
   -1.3530    1.7783    0.2587 O   0  0  0  0  0  0  0  0  0  0  0  0
    0.3518    1.7292    1.7297 N   0  0  0  0  0  0  0  0  0  0  0  0
    1.1632    1.2004    2.0466 H   0  0  0  0  0  0  0  0  0  0  0  0
    0.2102    3.1212    2.1377 C   0  0  0  0  0  0  0  0  0  0  0  0
   -0.8077    3.3157    2.4919 H   0  0  0  0  0  0  0  0  0  0  0  0
    0.9061    3.3497    2.9506 H   0  0  0  0  0  0  0  0  0  0  0  0
    0.4249    3.7896    1.2973 H   0  0  0  0  0  0  0  0  0  0  0  0
  1  2  1  0  0  0  0
  2  3  1  0  0  0  0
  2  4  1  0  0  0  0
  2  5  1  0  0  0  0
  5  6  2  0  0  0  0
  5  7  1  0  0  0  0
  7  8  1  0  0  0  0
  7  9  1  0  0  0  0
  9 10  1  0  0  0  0
  9 11  1  0  0  0  0
  9 21  1  0  0  0  0
 11 12  1  0  0  0  0
 11 13  1  0  0  0  0
 11 14  1  0  0  0  0
 14 15  1  0  0  0  0
 14 16  1  0  0  0  0
 14 17  1  0  0  0  0
 17 18  2  0  0  0  0
 17 19  1  0  0  0  0
 19 20  1  0  0  0  0
 21 22  2  0  0  0  0
 21 23  1  0  0  0  0
 23 24  1  0  0  0  0
 23 25  1  0  0  0  0
 25 26  1  0  0  0  0
 25 27  1  0  0  0  0
 25 28  1  0  0  0  0
M  END
$$$$

  -OEChem-02102214123D

 28 27  0     1  0  0  0  0  0999 V2000
   -3.2195   -3.7614    1.2546 H   0  0  0  0  0  0  0  0  0  0  0  0
   -3.1932   -2.7750    0.7833 C   0  0  0  0  0  0  0  0  0  0  0  0
   -3.8279   -2.0942    1.3556 H   0  0  0  0  0  0  0  0  0  0  0  0
   -3.5844   -2.8592   -0.2334 H   0  0  0  0  0  0  0  0  0  0  0  0
   -1.7702   -2.2507    0.7485 C   0  0  0  0  0  0  0  0  0  0  0  0
   -0.8541   -2.9412    1.1649 O   0  0  0  0  0  0  0  0  0  0  0  0
   -1.5173   -0.9937    0.2419 N   0  0  0  0  0  0  0  0  0  0  0  0
   -2.3224   -0.4141    0.0077 H   0  0  0  0  0  0  0  0  0  0  0  0
   -0.2142   -0.3154    0.3059 C   0  0  1  0  0  0  0  0  0  0  0  0
    0.4227   -0.7811    1.0659 H   0  0  0  0  0  0  0  0  0  0  0  0
    0.4720   -0.4591   -1.0746 C   0  0  0  0  0  0  0  0  0  0  0  0
    1.0138   -1.4111   -1.0870 H   0  0  0  0  0  0  0  0  0  0  0  0
   -0.3064   -0.5226   -1.8427 H   0  0  0  0  0  0  0  0  0  0  0  0
    1.4322    0.6781   -1.5039 C   0  0  0  0  0  0  0  0  0  0  0  0
    1.8168    0.4384   -2.4990 H   0  0  0  0  0  0  0  0  0  0  0  0
    0.8715    1.6128   -1.5962 H   0  0  0  0  0  0  0  0  0  0  0  0
    2.6390    0.9337   -0.5959 C   0  0  0  0  0  0  0  0  0  0  0  0
    2.7360    0.3651    0.4805 O   0  0  0  0  0  0  0  0  0  0  0  0
    3.5594    1.8109   -1.0562 O   0  0  0  0  0  0  0  0  0  0  0  0
    4.2563    1.8496   -0.3838 H   0  0  0  0  0  0  0  0  0  0  0  0
   -0.4410    1.1483    0.7432 C   0  0  0  0  0  0  0  0  0  0  0  0
   -1.3791    1.7873    0.2782 O   0  0  0  0  0  0  0  0  0  0  0  0
    0.3648    1.7264    1.7048 N   0  0  0  0  0  0  0  0  0  0  0  0
    1.1962    1.2022    1.9756 H   0  0  0  0  0  0  0  0  0  0  0  0
    0.2392    3.1163    2.1239 C   0  0  0  0  0  0  0  0  0  0  0  0
   -0.7693    3.3129    2.5031 H   0  0  0  0  0  0  0  0  0  0  0  0
    0.9553    3.3361    2.9217 H   0  0  0  0  0  0  0  0  0  0  0  0
    0.4373    3.7893    1.2830 H   0  0  0  0  0  0  0  0  0  0  0  0
  1  2  1  0  0  0  0
  2  3  1  0  0  0  0
  2  4  1  0  0  0  0
  2  5  1  0  0  0  0
  5  6  2  0  0  0  0
  5  7  1  0  0  0  0
  7  8  1  0  0  0  0
  7  9  1  0  0  0  0
  9 10  1  0  0  0  0
  9 11  1  0  0  0  0
  9 21  1  0  0  0  0
 11 12  1  0  0  0  0
 11 13  1  0  0  0  0
 11 14  1  0  0  0  0
 14 15  1  0  0  0  0
 14 16  1  0  0  0  0
 14 17  1  0  0  0  0
 17 18  2  0  0  0  0
 17 19  1  0  0  0  0
 19 20  1  0  0  0  0
 21 22  2  0  0  0  0
 21 23  1  0  0  0  0
 23 24  1  0  0  0  0
 23 25  1  0  0  0  0
 25 26  1  0  0  0  0
 25 27  1  0  0  0  0
 25 28  1  0  0  0  0
M  END
$$$$

  -OEChem-02102214123D

 28 27  0     1  0  0  0  0  0999 V2000
   -3.1231   -3.8056    1.2159 H   0  0  0  0  0  0  0  0  0  0  0  0
   -3.1270   -2.8035    0.7780 C   0  0  0  0  0  0  0  0  0  0  0  0
   -3.7569   -2.1539    1.3906 H   0  0  0  0  0  0  0  0  0  0  0  0
   -3.5452   -2.8604   -0.2299 H   0  0  0  0  0  0  0  0  0  0  0  0
   -1.7152   -2.2521    0.7212 C   0  0  0  0  0  0  0  0  0  0  0  0
   -0.7768   -2.9324    1.1037 O   0  0  0  0  0  0  0  0  0  0  0  0
   -1.4973   -0.9821    0.2316 N   0  0  0  0  0  0  0  0  0  0  0  0
   -2.3184   -0.4115    0.0327 H   0  0  0  0  0  0  0  0  0  0  0  0
   -0.2070   -0.2793    0.2855 C   0  0  1  0  0  0  0  0  0  0  0  0
    0.4471   -0.7392    1.0343 H   0  0  0  0  0  0  0  0  0  0  0  0
    0.4768   -0.4012   -1.0981 C   0  0  0  0  0  0  0  0  0  0  0  0
    1.0265   -1.3480   -1.1379 H   0  0  0  0  0  0  0  0  0  0  0  0
   -0.3101   -0.4558   -1.8582 H   0  0  0  0  0  0  0  0  0  0  0  0
    1.4076    0.7634   -1.5103 C   0  0  0  0  0  0  0  0  0  0  0  0
    1.6139    0.6639   -2.5800 H   0  0  0  0  0  0  0  0  0  0  0  0
    0.9231    1.7340   -1.3762 H   0  0  0  0  0  0  0  0  0  0  0  0
    2.7523    0.7553   -0.7822 C   0  0  0  0  0  0  0  0  0  0  0  0
    2.7744    0.5868    0.4274 O   0  0  0  0  0  0  0  0  0  0  0  0
    3.8641    0.9453   -1.5286 O   0  0  0  0  0  0  0  0  0  0  0  0
    4.6123    0.9054   -0.9137 H   0  0  0  0  0  0  0  0  0  0  0  0
   -0.4574    1.1723    0.7518 C   0  0  0  0  0  0  0  0  0  0  0  0
   -1.4335    1.7875    0.3346 O   0  0  0  0  0  0  0  0  0  0  0  0
    0.3524    1.7513    1.7094 N   0  0  0  0  0  0  0  0  0  0  0  0
    1.2331    1.2733    1.9002 H   0  0  0  0  0  0  0  0  0  0  0  0
    0.1908    3.1260    2.1644 C   0  0  0  0  0  0  0  0  0  0  0  0
   -0.8164    3.2814    2.5656 H   0  0  0  0  0  0  0  0  0  0  0  0
    0.9133    3.3489    2.9555 H   0  0  0  0  0  0  0  0  0  0  0  0
    0.3528    3.8252    1.3375 H   0  0  0  0  0  0  0  0  0  0  0  0
  1  2  1  0  0  0  0
  2  3  1  0  0  0  0
  2  4  1  0  0  0  0
  2  5  1  0  0  0  0
  5  6  2  0  0  0  0
  5  7  1  0  0  0  0
  7  8  1  0  0  0  0
  7  9  1  0  0  0  0
  9 10  1  0  0  0  0
  9 11  1  0  0  0  0
  9 21  1  0  0  0  0
 11 12  1  0  0  0  0
 11 13  1  0  0  0  0
 11 14  1  0  0  0  0
 14 15  1  0  0  0  0
 14 16  1  0  0  0  0
 14 17  1  0  0  0  0
 17 18  2  0  0  0  0
 17 19  1  0  0  0  0
 19 20  1  0  0  0  0
 21 22  2  0  0  0  0
 21 23  1  0  0  0  0
 23 24  1  0  0  0  0
 23 25  1  0  0  0  0
 25 26  1  0  0  0  0
 25 27  1  0  0  0  0
 25 28  1  0  0  0  0
M  END
$$$$

  -OEChem-02102214123D

 28 27  0     1  0  0  0  0  0999 V2000
   -3.0601   -3.8333    1.1832 H   0  0  0  0  0  0  0  0  0  0  0  0
   -3.0852   -2.8282    0.7530 C   0  0  0  0  0  0  0  0  0  0  0  0
   -3.7205   -2.1942    1.3764 H   0  0  0  0  0  0  0  0  0  0  0  0
   -3.5117   -2.8849   -0.2513 H   0  0  0  0  0  0  0  0  0  0  0  0
   -1.6835   -2.2519    0.6875 C   0  0  0  0  0  0  0  0  0  0  0  0
   -0.7287   -2.9215    1.0476 O   0  0  0  0  0  0  0  0  0  0  0  0
   -1.4930   -0.9704    0.2164 N   0  0  0  0  0  0  0  0  0  0  0  0
   -2.3261   -0.4121    0.0335 H   0  0  0  0  0  0  0  0  0  0  0  0
   -0.2145   -0.2464    0.2632 C   0  0  1  0  0  0  0  0  0  0  0  0
    0.4458   -0.7052    1.0076 H   0  0  0  0  0  0  0  0  0  0  0  0
    0.4852   -0.3654   -1.1118 C   0  0  0  0  0  0  0  0  0  0  0  0
    1.0420   -1.3082   -1.1555 H   0  0  0  0  0  0  0  0  0  0  0  0
   -0.2996   -0.4261   -1.8735 H   0  0  0  0  0  0  0  0  0  0  0  0
    1.3940    0.8193   -1.5151 C   0  0  0  0  0  0  0  0  0  0  0  0
    1.4248    0.8641   -2.6079 H   0  0  0  0  0  0  0  0  0  0  0  0
    1.0218    1.7901   -1.1821 H   0  0  0  0  0  0  0  0  0  0  0  0
    2.8218    0.6028   -1.0307 C   0  0  0  0  0  0  0  0  0  0  0  0
    3.0167    0.6135    0.1751 O   0  0  0  0  0  0  0  0  0  0  0  0
    3.7943    0.4008   -1.9490 O   0  0  0  0  0  0  0  0  0  0  0  0
    4.6150    0.2742   -1.4490 H   0  0  0  0  0  0  0  0  0  0  0  0
   -0.4613    1.1952    0.7549 C   0  0  0  0  0  0  0  0  0  0  0  0
   -1.4459    1.8141    0.3653 O   0  0  0  0  0  0  0  0  0  0  0  0
    0.3687    1.7578    1.7058 N   0  0  0  0  0  0  0  0  0  0  0  0
    1.2402    1.2668    1.8993 H   0  0  0  0  0  0  0  0  0  0  0  0
    0.2126    3.1230    2.1909 C   0  0  0  0  0  0  0  0  0  0  0  0
   -0.7828    3.2644    2.6251 H   0  0  0  0  0  0  0  0  0  0  0  0
    0.9575    3.3363    2.9635 H   0  0  0  0  0  0  0  0  0  0  0  0
    0.3455    3.8381    1.3725 H   0  0  0  0  0  0  0  0  0  0  0  0
  1  2  1  0  0  0  0
  2  3  1  0  0  0  0
  2  4  1  0  0  0  0
  2  5  1  0  0  0  0
  5  6  2  0  0  0  0
  5  7  1  0  0  0  0
  7  8  1  0  0  0  0
  7  9  1  0  0  0  0
  9 10  1  0  0  0  0
  9 11  1  0  0  0  0
  9 21  1  0  0  0  0
 11 12  1  0  0  0  0
 11 13  1  0  0  0  0
 11 14  1  0  0  0  0
 14 15  1  0  0  0  0
 14 16  1  0  0  0  0
 14 17  1  0  0  0  0
 17 18  2  0  0  0  0
 17 19  1  0  0  0  0
 19 20  1  0  0  0  0
 21 22  2  0  0  0  0
 21 23  1  0  0  0  0
 23 24  1  0  0  0  0
 23 25  1  0  0  0  0
 25 26  1  0  0  0  0
 25 27  1  0  0  0  0
 25 28  1  0  0  0  0
M  END
$$$$

  -OEChem-02102214123D

 28 27  0     1  0  0  0  0  0999 V2000
   -3.0652   -3.8110    1.1296 H   0  0  0  0  0  0  0  0  0  0  0  0
   -3.0790   -2.7994    0.7144 C   0  0  0  0  0  0  0  0  0  0  0  0
   -3.7197   -2.1714    1.3381 H   0  0  0  0  0  0  0  0  0  0  0  0
   -3.4915   -2.8388   -0.2966 H   0  0  0  0  0  0  0  0  0  0  0  0
   -1.6738   -2.2298    0.6777 C   0  0  0  0  0  0  0  0  0  0  0  0
   -0.7303   -2.9002    1.0653 O   0  0  0  0  0  0  0  0  0  0  0  0
   -1.4669   -0.9499    0.2093 N   0  0  0  0  0  0  0  0  0  0  0  0
   -2.2922   -0.3892   -0.0002 H   0  0  0  0  0  0  0  0  0  0  0  0
   -0.1835   -0.2357    0.2757 C   0  0  1  0  0  0  0  0  0  0  0  0
    0.4725   -0.6989    1.0210 H   0  0  0  0  0  0  0  0  0  0  0  0
    0.5102   -0.3517   -1.1038 C   0  0  0  0  0  0  0  0  0  0  0  0
    1.0473   -1.3058   -1.1531 H   0  0  0  0  0  0  0  0  0  0  0  0
   -0.2789   -0.3999   -1.8624 H   0  0  0  0  0  0  0  0  0  0  0  0
    1.4376    0.8172   -1.5209 C   0  0  0  0  0  0  0  0  0  0  0  0
    1.2503    1.0461   -2.5742 H   0  0  0  0  0  0  0  0  0  0  0  0
    1.2599    1.7419   -0.9705 H   0  0  0  0  0  0  0  0  0  0  0  0
    2.9022    0.4232   -1.3892 C   0  0  0  0  0  0  0  0  0  0  0  0
    3.3686    0.3506   -0.2641 O   0  0  0  0  0  0  0  0  0  0  0  0
    3.6047    0.1567   -2.5142 O   0  0  0  0  0  0  0  0  0  0  0  0
    4.4969   -0.0837   -2.2215 H   0  0  0  0  0  0  0  0  0  0  0  0
   -0.4464    1.2042    0.7652 C   0  0  0  0  0  0  0  0  0  0  0  0
   -1.4153    1.8274    0.3445 O   0  0  0  0  0  0  0  0  0  0  0  0
    0.3602    1.7716    1.7338 N   0  0  0  0  0  0  0  0  0  0  0  0
    1.1774    1.2434    2.0312 H   0  0  0  0  0  0  0  0  0  0  0  0
    0.1590    3.1172    2.2566 C   0  0  0  0  0  0  0  0  0  0  0  0
   -0.8326    3.2067    2.7128 H   0  0  0  0  0  0  0  0  0  0  0  0
    0.9106    3.3432    3.0192 H   0  0  0  0  0  0  0  0  0  0  0  0
    0.2460    3.8571    1.4540 H   0  0  0  0  0  0  0  0  0  0  0  0
  1  2  1  0  0  0  0
  2  3  1  0  0  0  0
  2  4  1  0  0  0  0
  2  5  1  0  0  0  0
  5  6  2  0  0  0  0
  5  7  1  0  0  0  0
  7  8  1  0  0  0  0
  7  9  1  0  0  0  0
  9 10  1  0  0  0  0
  9 11  1  0  0  0  0
  9 21  1  0  0  0  0
 11 12  1  0  0  0  0
 11 13  1  0  0  0  0
 11 14  1  0  0  0  0
 14 15  1  0  0  0  0
 14 16  1  0  0  0  0
 14 17  1  0  0  0  0
 17 18  2  0  0  0  0
 17 19  1  0  0  0  0
 19 20  1  0  0  0  0
 21 22  2  0  0  0  0
 21 23  1  0  0  0  0
 23 24  1  0  0  0  0
 23 25  1  0  0  0  0
 25 26  1  0  0  0  0
 25 27  1  0  0  0  0
 25 28  1  0  0  0  0
M  END
$$$$

  -OEChem-02102214123D

 28 27  0     1  0  0  0  0  0999 V2000
   -3.0925   -3.7842    1.0687 H   0  0  0  0  0  0  0  0  0  0  0  0
   -3.0898   -2.7653    0.6715 C   0  0  0  0  0  0  0  0  0  0  0  0
   -3.7323   -2.1416    1.2978 H   0  0  0  0  0  0  0  0  0  0  0  0
   -3.4895   -2.7826   -0.3452 H   0  0  0  0  0  0  0  0  0  0  0  0
   -1.6777   -2.2113    0.6640 C   0  0  0  0  0  0  0  0  0  0  0  0
   -0.7508   -2.8902    1.0756 O   0  0  0  0  0  0  0  0  0  0  0  0
   -1.4449   -0.9348    0.1986 N   0  0  0  0  0  0  0  0  0  0  0  0
   -2.2578   -0.3633   -0.0299 H   0  0  0  0  0  0  0  0  0  0  0  0
   -0.1524   -0.2392    0.2845 C   0  0  1  0  0  0  0  0  0  0  0  0
    0.4979   -0.7114    1.0289 H   0  0  0  0  0  0  0  0  0  0  0  0
    0.5335   -0.3443   -1.0999 C   0  0  0  0  0  0  0  0  0  0  0  0
    1.0643   -1.3023   -1.1430 H   0  0  0  0  0  0  0  0  0  0  0  0
   -0.2486   -0.3888   -1.8659 H   0  0  0  0  0  0  0  0  0  0  0  0
    1.4796    0.8155   -1.5033 C   0  0  0  0  0  0  0  0  0  0  0  0
    1.1091    1.2784   -2.4227 H   0  0  0  0  0  0  0  0  0  0  0  0
    1.5347    1.6039   -0.7515 H   0  0  0  0  0  0  0  0  0  0  0  0
    2.8943    0.3074   -1.7488 C   0  0  0  0  0  0  0  0  0  0  0  0
    3.6213    0.1526   -0.7822 O   0  0  0  0  0  0  0  0  0  0  0  0
    3.2650    0.0315   -3.0201 O   0  0  0  0  0  0  0  0  0  0  0  0
    4.1778   -0.2906   -2.9678 H   0  0  0  0  0  0  0  0  0  0  0  0
   -0.4216    1.2019    0.7709 C   0  0  0  0  0  0  0  0  0  0  0  0
   -1.3753    1.8308    0.3249 O   0  0  0  0  0  0  0  0  0  0  0  0
    0.3649    1.7700    1.7559 N   0  0  0  0  0  0  0  0  0  0  0  0
    1.1377    1.2178    2.1189 H   0  0  0  0  0  0  0  0  0  0  0  0
    0.1347    3.1049    2.2941 C   0  0  0  0  0  0  0  0  0  0  0  0
   -0.8432    3.1562    2.7843 H   0  0  0  0  0  0  0  0  0  0  0  0
    0.9045    3.3539    3.0307 H   0  0  0  0  0  0  0  0  0  0  0  0
    0.1677    3.8523    1.4944 H   0  0  0  0  0  0  0  0  0  0  0  0
  1  2  1  0  0  0  0
  2  3  1  0  0  0  0
  2  4  1  0  0  0  0
  2  5  1  0  0  0  0
  5  6  2  0  0  0  0
  5  7  1  0  0  0  0
  7  8  1  0  0  0  0
  7  9  1  0  0  0  0
  9 10  1  0  0  0  0
  9 11  1  0  0  0  0
  9 21  1  0  0  0  0
 11 12  1  0  0  0  0
 11 13  1  0  0  0  0
 11 14  1  0  0  0  0
 14 15  1  0  0  0  0
 14 16  1  0  0  0  0
 14 17  1  0  0  0  0
 17 18  2  0  0  0  0
 17 19  1  0  0  0  0
 19 20  1  0  0  0  0
 21 22  2  0  0  0  0
 21 23  1  0  0  0  0
 23 24  1  0  0  0  0
 23 25  1  0  0  0  0
 25 26  1  0  0  0  0
 25 27  1  0  0  0  0
 25 28  1  0  0  0  0
M  END
$$$$

  -OEChem-02102214123D

 28 27  0     1  0  0  0  0  0999 V2000
   -2.9956   -3.8159    1.2956 H   0  0  0  0  0  0  0  0  0  0  0  0
   -3.0278   -2.8143    0.8577 C   0  0  0  0  0  0  0  0  0  0  0  0
   -3.6683   -2.1800    1.4751 H   0  0  0  0  0  0  0  0  0  0  0  0
   -3.4532   -2.8825   -0.1464 H   0  0  0  0  0  0  0  0  0  0  0  0
   -1.6303   -2.2289    0.7892 C   0  0  0  0  0  0  0  0  0  0  0  0
   -0.6771   -2.8659    1.2083 O   0  0  0  0  0  0  0  0  0  0  0  0
   -1.4388   -0.9704    0.2606 N   0  0  0  0  0  0  0  0  0  0  0  0
   -2.2685   -0.4289    0.0201 H   0  0  0  0  0  0  0  0  0  0  0  0
   -0.1531   -0.2580    0.2478 C   0  0  1  0  0  0  0  0  0  0  0  0
    0.5509   -0.6955    0.9636 H   0  0  0  0  0  0  0  0  0  0  0  0
    0.4335   -0.3904   -1.1782 C   0  0  0  0  0  0  0  0  0  0  0  0
    0.9924   -1.3325   -1.2134 H   0  0  0  0  0  0  0  0  0  0  0  0
   -0.3849   -0.4834   -1.9008 H   0  0  0  0  0  0  0  0  0  0  0  0
    1.3312    0.7764   -1.6554 C   0  0  0  0  0  0  0  0  0  0  0  0
    0.7746    1.4200   -2.3434 H   0  0  0  0  0  0  0  0  0  0  0  0
    1.6584    1.3966   -0.8188 H   0  0  0  0  0  0  0  0  0  0  0  0
    2.5952    0.2614   -2.3336 C   0  0  0  0  0  0  0  0  0  0  0  0
    2.5114   -0.1639   -3.4725 O   0  0  0  0  0  0  0  0  0  0  0  0
    3.7465    0.2789   -1.6222 O   0  0  0  0  0  0  0  0  0  0  0  0
    4.4231   -0.0926   -2.2090 H   0  0  0  0  0  0  0  0  0  0  0  0
   -0.4145    1.1998    0.6893 C   0  0  0  0  0  0  0  0  0  0  0  0
   -1.3864    1.8068    0.2531 O   0  0  0  0  0  0  0  0  0  0  0  0
    0.4147    1.8190    1.6066 N   0  0  0  0  0  0  0  0  0  0  0  0
    1.1815    1.2743    1.9915 H   0  0  0  0  0  0  0  0  0  0  0  0
    0.1964    3.1756    2.0941 C   0  0  0  0  0  0  0  0  0  0  0  0
   -0.7660    3.2468    2.6116 H   0  0  0  0  0  0  0  0  0  0  0  0
    0.9880    3.4580    2.7947 H   0  0  0  0  0  0  0  0  0  0  0  0
    0.2022    3.8876    1.2621 H   0  0  0  0  0  0  0  0  0  0  0  0
  1  2  1  0  0  0  0
  2  3  1  0  0  0  0
  2  4  1  0  0  0  0
  2  5  1  0  0  0  0
  5  6  2  0  0  0  0
  5  7  1  0  0  0  0
  7  8  1  0  0  0  0
  7  9  1  0  0  0  0
  9 10  1  0  0  0  0
  9 11  1  0  0  0  0
  9 21  1  0  0  0  0
 11 12  1  0  0  0  0
 11 13  1  0  0  0  0
 11 14  1  0  0  0  0
 14 15  1  0  0  0  0
 14 16  1  0  0  0  0
 14 17  1  0  0  0  0
 17 18  2  0  0  0  0
 17 19  1  0  0  0  0
 19 20  1  0  0  0  0
 21 22  2  0  0  0  0
 21 23  1  0  0  0  0
 23 24  1  0  0  0  0
 23 25  1  0  0  0  0
 25 26  1  0  0  0  0
 25 27  1  0  0  0  0
 25 28  1  0  0  0  0
M  END
$$$$

  -OEChem-02102214123D

 28 27  0     1  0  0  0  0  0999 V2000
   -3.1000   -3.7842    1.2957 H   0  0  0  0  0  0  0  0  0  0  0  0
   -3.1038   -2.7912    0.8376 C   0  0  0  0  0  0  0  0  0  0  0  0
   -3.7447   -2.1330    1.4290 H   0  0  0  0  0  0  0  0  0  0  0  0
   -3.5095   -2.8713   -0.1738 H   0  0  0  0  0  0  0  0  0  0  0  0
   -1.6941   -2.2335    0.7869 C   0  0  0  0  0  0  0  0  0  0  0  0
   -0.7610   -2.8833    1.2312 O   0  0  0  0  0  0  0  0  0  0  0  0
   -1.4706   -0.9810    0.2562 N   0  0  0  0  0  0  0  0  0  0  0  0
   -2.2848   -0.4284   -0.0100 H   0  0  0  0  0  0  0  0  0  0  0  0
   -0.1711   -0.2947    0.2559 C   0  0  1  0  0  0  0  0  0  0  0  0
    0.5158   -0.7467    0.9792 H   0  0  0  0  0  0  0  0  0  0  0  0
    0.4291   -0.4313   -1.1631 C   0  0  0  0  0  0  0  0  0  0  0  0
    0.9848   -1.3755   -1.1903 H   0  0  0  0  0  0  0  0  0  0  0  0
   -0.3757   -0.5119   -1.9025 H   0  0  0  0  0  0  0  0  0  0  0  0
    1.3493    0.7330   -1.5991 C   0  0  0  0  0  0  0  0  0  0  0  0
    0.7562    1.5362   -2.0463 H   0  0  0  0  0  0  0  0  0  0  0  0
    1.8643    1.1437   -0.7269 H   0  0  0  0  0  0  0  0  0  0  0  0
    2.4382    0.2946   -2.5764 C   0  0  0  0  0  0  0  0  0  0  0  0
    2.1598   -0.4989   -3.4596 O   0  0  0  0  0  0  0  0  0  0  0  0
    3.6738    0.8193   -2.4073 O   0  0  0  0  0  0  0  0  0  0  0  0
    4.2202    0.4383   -3.1117 H   0  0  0  0  0  0  0  0  0  0  0  0
   -0.4002    1.1710    0.6886 C   0  0  0  0  0  0  0  0  0  0  0  0
   -1.3515    1.8006    0.2390 O   0  0  0  0  0  0  0  0  0  0  0  0
    0.4347    1.7735    1.6117 N   0  0  0  0  0  0  0  0  0  0  0  0
    1.1745    1.2079    2.0184 H   0  0  0  0  0  0  0  0  0  0  0  0
    0.2392    3.1351    2.0946 C   0  0  0  0  0  0  0  0  0  0  0  0
   -0.7184    3.2214    2.6191 H   0  0  0  0  0  0  0  0  0  0  0  0
    1.0401    3.4106    2.7876 H   0  0  0  0  0  0  0  0  0  0  0  0
    0.2481    3.8427    1.2587 H   0  0  0  0  0  0  0  0  0  0  0  0
  1  2  1  0  0  0  0
  2  3  1  0  0  0  0
  2  4  1  0  0  0  0
  2  5  1  0  0  0  0
  5  6  2  0  0  0  0
  5  7  1  0  0  0  0
  7  8  1  0  0  0  0
  7  9  1  0  0  0  0
  9 10  1  0  0  0  0
  9 11  1  0  0  0  0
  9 21  1  0  0  0  0
 11 12  1  0  0  0  0
 11 13  1  0  0  0  0
 11 14  1  0  0  0  0
 14 15  1  0  0  0  0
 14 16  1  0  0  0  0
 14 17  1  0  0  0  0
 17 18  2  0  0  0  0
 17 19  1  0  0  0  0
 19 20  1  0  0  0  0
 21 22  2  0  0  0  0
 21 23  1  0  0  0  0
 23 24  1  0  0  0  0
 23 25  1  0  0  0  0
 25 26  1  0  0  0  0
 25 27  1  0  0  0  0
 25 28  1  0  0  0  0
M  END
$$$$

  -OEChem-02102214123D

 28 27  0     1  0  0  0  0  0999 V2000
   -3.1371   -3.7834    1.2765 H   0  0  0  0  0  0  0  0  0  0  0  0
   -3.1335   -2.7905    0.8181 C   0  0  0  0  0  0  0  0  0  0  0  0
   -3.7834   -2.1319    1.3991 H   0  0  0  0  0  0  0  0  0  0  0  0
   -3.5234   -2.8714   -0.1994 H   0  0  0  0  0  0  0  0  0  0  0  0
   -1.7229   -2.2333    0.7891 C   0  0  0  0  0  0  0  0  0  0  0  0
   -0.7968   -2.8858    1.2438 O   0  0  0  0  0  0  0  0  0  0  0  0
   -1.4897   -0.9823    0.2589 N   0  0  0  0  0  0  0  0  0  0  0  0
   -2.2992   -0.4276   -0.0168 H   0  0  0  0  0  0  0  0  0  0  0  0
   -0.1862   -0.3039    0.2618 C   0  0  1  0  0  0  0  0  0  0  0  0
    0.4915   -0.7608    0.9906 H   0  0  0  0  0  0  0  0  0  0  0  0
    0.4280   -0.4529   -1.1492 C   0  0  0  0  0  0  0  0  0  0  0  0
    0.9806   -1.3988   -1.1762 H   0  0  0  0  0  0  0  0  0  0  0  0
   -0.3739   -0.5252   -1.8928 H   0  0  0  0  0  0  0  0  0  0  0  0
    1.3548    0.7094   -1.5712 C   0  0  0  0  0  0  0  0  0  0  0  0
    0.7610    1.6004   -1.7959 H   0  0  0  0  0  0  0  0  0  0  0  0
    2.0293    0.9518   -0.7454 H   0  0  0  0  0  0  0  0  0  0  0  0
    2.2246    0.3881   -2.7866 C   0  0  0  0  0  0  0  0  0  0  0  0
    1.8917   -0.4993   -3.5548 O   0  0  0  0  0  0  0  0  0  0  0  0
    3.3450    1.1290   -2.9467 O   0  0  0  0  0  0  0  0  0  0  0  0
    3.7632    0.8015   -3.7576 H   0  0  0  0  0  0  0  0  0  0  0  0
   -0.3942    1.1653    0.6921 C   0  0  0  0  0  0  0  0  0  0  0  0
   -1.3380    1.8067    0.2437 O   0  0  0  0  0  0  0  0  0  0  0  0
    0.4492    1.7574    1.6143 N   0  0  0  0  0  0  0  0  0  0  0  0
    1.1802    1.1817    2.0223 H   0  0  0  0  0  0  0  0  0  0  0  0
    0.2754    3.1234    2.0935 C   0  0  0  0  0  0  0  0  0  0  0  0
   -0.6850    3.2291    2.6087 H   0  0  0  0  0  0  0  0  0  0  0  0
    1.0749    3.3838    2.7939 H   0  0  0  0  0  0  0  0  0  0  0  0
    0.3062    3.8302    1.2576 H   0  0  0  0  0  0  0  0  0  0  0  0
  1  2  1  0  0  0  0
  2  3  1  0  0  0  0
  2  4  1  0  0  0  0
  2  5  1  0  0  0  0
  5  6  2  0  0  0  0
  5  7  1  0  0  0  0
  7  8  1  0  0  0  0
  7  9  1  0  0  0  0
  9 10  1  0  0  0  0
  9 11  1  0  0  0  0
  9 21  1  0  0  0  0
 11 12  1  0  0  0  0
 11 13  1  0  0  0  0
 11 14  1  0  0  0  0
 14 15  1  0  0  0  0
 14 16  1  0  0  0  0
 14 17  1  0  0  0  0
 17 18  2  0  0  0  0
 17 19  1  0  0  0  0
 19 20  1  0  0  0  0
 21 22  2  0  0  0  0
 21 23  1  0  0  0  0
 23 24  1  0  0  0  0
 23 25  1  0  0  0  0
 25 26  1  0  0  0  0
 25 27  1  0  0  0  0
 25 28  1  0  0  0  0
M  END
$$$$

  -OEChem-02102214123D

 28 27  0     1  0  0  0  0  0999 V2000
   -3.1791   -3.7600    1.2722 H   0  0  0  0  0  0  0  0  0  0  0  0
   -3.1574   -2.7757    0.7960 C   0  0  0  0  0  0  0  0  0  0  0  0
   -3.8132   -2.1009    1.3515 H   0  0  0  0  0  0  0  0  0  0  0  0
   -3.5269   -2.8714   -0.2278 H   0  0  0  0  0  0  0  0  0  0  0  0
   -1.7418   -2.2310    0.7857 C   0  0  0  0  0  0  0  0  0  0  0  0
   -0.8280   -2.8890    1.2571 O   0  0  0  0  0  0  0  0  0  0  0  0
   -1.4922   -0.9843    0.2532 N   0  0  0  0  0  0  0  0  0  0  0  0
   -2.2938   -0.4283   -0.0419 H   0  0  0  0  0  0  0  0  0  0  0  0
   -0.1855   -0.3133    0.2724 C   0  0  1  0  0  0  0  0  0  0  0  0
    0.4800   -0.7776    1.0079 H   0  0  0  0  0  0  0  0  0  0  0  0
    0.4369   -0.4690   -1.1299 C   0  0  0  0  0  0  0  0  0  0  0  0
    0.7510   -1.5109   -1.2601 H   0  0  0  0  0  0  0  0  0  0  0  0
   -0.3342   -0.2611   -1.8808 H   0  0  0  0  0  0  0  0  0  0  0  0
    1.6328    0.4731   -1.3956 C   0  0  0  0  0  0  0  0  0  0  0  0
    1.3167    1.5158   -1.3031 H   0  0  0  0  0  0  0  0  0  0  0  0
    2.4131    0.2886   -0.6524 H   0  0  0  0  0  0  0  0  0  0  0  0
    2.2477    0.3141   -2.7872 C   0  0  0  0  0  0  0  0  0  0  0  0
    1.7865   -0.4964   -3.5739 O   0  0  0  0  0  0  0  0  0  0  0  0
    3.3072    1.1051   -3.0714 O   0  0  0  0  0  0  0  0  0  0  0  0
    3.5658    0.8822   -3.9787 H   0  0  0  0  0  0  0  0  0  0  0  0
   -0.3790    1.1600    0.6909 C   0  0  0  0  0  0  0  0  0  0  0  0
   -1.3030    1.8133    0.2198 O   0  0  0  0  0  0  0  0  0  0  0  0
    0.4606    1.7457    1.6206 N   0  0  0  0  0  0  0  0  0  0  0  0
    1.1804    1.1630    2.0385 H   0  0  0  0  0  0  0  0  0  0  0  0
    0.2981    3.1157    2.0926 C   0  0  0  0  0  0  0  0  0  0  0  0
   -0.6845    3.2471    2.5582 H   0  0  0  0  0  0  0  0  0  0  0  0
    1.0664    3.3542    2.8345 H   0  0  0  0  0  0  0  0  0  0  0  0
    0.3909    3.8213    1.2601 H   0  0  0  0  0  0  0  0  0  0  0  0
  1  2  1  0  0  0  0
  2  3  1  0  0  0  0
  2  4  1  0  0  0  0
  2  5  1  0  0  0  0
  5  6  2  0  0  0  0
  5  7  1  0  0  0  0
  7  8  1  0  0  0  0
  7  9  1  0  0  0  0
  9 10  1  0  0  0  0
  9 11  1  0  0  0  0
  9 21  1  0  0  0  0
 11 12  1  0  0  0  0
 11 13  1  0  0  0  0
 11 14  1  0  0  0  0
 14 15  1  0  0  0  0
 14 16  1  0  0  0  0
 14 17  1  0  0  0  0
 17 18  2  0  0  0  0
 17 19  1  0  0  0  0
 19 20  1  0  0  0  0
 21 22  2  0  0  0  0
 21 23  1  0  0  0  0
 23 24  1  0  0  0  0
 23 25  1  0  0  0  0
 25 26  1  0  0  0  0
 25 27  1  0  0  0  0
 25 28  1  0  0  0  0
M  END
$$$$

  -OEChem-02102214123D

 28 27  0     1  0  0  0  0  0999 V2000
   -3.1970   -3.7464    1.2475 H   0  0  0  0  0  0  0  0  0  0  0  0
   -3.1666   -2.7611    0.7739 C   0  0  0  0  0  0  0  0  0  0  0  0
   -3.8272   -2.0858    1.3231 H   0  0  0  0  0  0  0  0  0  0  0  0
   -3.5239   -2.8536   -0.2546 H   0  0  0  0  0  0  0  0  0  0  0  0
   -1.7495   -2.2204    0.7819 C   0  0  0  0  0  0  0  0  0  0  0  0
   -0.8428   -2.8823    1.2618 O   0  0  0  0  0  0  0  0  0  0  0  0
   -1.4893   -0.9732    0.2550 N   0  0  0  0  0  0  0  0  0  0  0  0
   -2.2850   -0.4123   -0.0469 H   0  0  0  0  0  0  0  0  0  0  0  0
   -0.1781   -0.3109    0.2845 C   0  0  1  0  0  0  0  0  0  0  0  0
    0.4800   -0.7800    1.0232 H   0  0  0  0  0  0  0  0  0  0  0  0
    0.4506   -0.4738   -1.1162 C   0  0  0  0  0  0  0  0  0  0  0  0
    0.7444   -1.5192   -1.2614 H   0  0  0  0  0  0  0  0  0  0  0  0
   -0.3271   -0.2475   -1.8552 H   0  0  0  0  0  0  0  0  0  0  0  0
    1.6595    0.4498   -1.4010 C   0  0  0  0  0  0  0  0  0  0  0  0
    1.4410    1.4725   -1.0856 H   0  0  0  0  0  0  0  0  0  0  0  0
    2.5272    0.1029   -0.8338 H   0  0  0  0  0  0  0  0  0  0  0  0
    2.0339    0.5339   -2.8819 C   0  0  0  0  0  0  0  0  0  0  0  0
    1.5926   -0.2847   -3.6716 O   0  0  0  0  0  0  0  0  0  0  0  0
    2.8741    1.5321   -3.2384 O   0  0  0  0  0  0  0  0  0  0  0  0
    3.0045    1.4386   -4.1945 H   0  0  0  0  0  0  0  0  0  0  0  0
   -0.3738    1.1606    0.7077 C   0  0  0  0  0  0  0  0  0  0  0  0
   -1.2912    1.8174    0.2287 O   0  0  0  0  0  0  0  0  0  0  0  0
    0.4586    1.7423    1.6462 N   0  0  0  0  0  0  0  0  0  0  0  0
    1.1733    1.1573    2.0699 H   0  0  0  0  0  0  0  0  0  0  0  0
    0.2995    3.1145    2.1128 C   0  0  0  0  0  0  0  0  0  0  0  0
   -0.6909    3.2557    2.5584 H   0  0  0  0  0  0  0  0  0  0  0  0
    1.0549    3.3477    2.8694 H   0  0  0  0  0  0  0  0  0  0  0  0
    0.4149    3.8173    1.2808 H   0  0  0  0  0  0  0  0  0  0  0  0
  1  2  1  0  0  0  0
  2  3  1  0  0  0  0
  2  4  1  0  0  0  0
  2  5  1  0  0  0  0
  5  6  2  0  0  0  0
  5  7  1  0  0  0  0
  7  8  1  0  0  0  0
  7  9  1  0  0  0  0
  9 10  1  0  0  0  0
  9 11  1  0  0  0  0
  9 21  1  0  0  0  0
 11 12  1  0  0  0  0
 11 13  1  0  0  0  0
 11 14  1  0  0  0  0
 14 15  1  0  0  0  0
 14 16  1  0  0  0  0
 14 17  1  0  0  0  0
 17 18  2  0  0  0  0
 17 19  1  0  0  0  0
 19 20  1  0  0  0  0
 21 22  2  0  0  0  0
 21 23  1  0  0  0  0
 23 24  1  0  0  0  0
 23 25  1  0  0  0  0
 25 26  1  0  0  0  0
 25 27  1  0  0  0  0
 25 28  1  0  0  0  0
M  END
$$$$

  -OEChem-02102214123D

 28 27  0     1  0  0  0  0  0999 V2000
   -3.2190   -3.7216    1.2372 H   0  0  0  0  0  0  0  0  0  0  0  0
   -3.1803   -2.7337    0.7697 C   0  0  0  0  0  0  0  0  0  0  0  0
   -3.8290   -2.0542    1.3279 H   0  0  0  0  0  0  0  0  0  0  0  0
   -3.5461   -2.8150   -0.2567 H   0  0  0  0  0  0  0  0  0  0  0  0
   -1.7569   -2.2097    0.7710 C   0  0  0  0  0  0  0  0  0  0  0  0
   -0.8558   -2.8834    1.2448 O   0  0  0  0  0  0  0  0  0  0  0  0
   -1.4841   -0.9642    0.2468 N   0  0  0  0  0  0  0  0  0  0  0  0
   -2.2749   -0.3932   -0.0497 H   0  0  0  0  0  0  0  0  0  0  0  0
   -0.1677   -0.3120    0.2863 C   0  0  1  0  0  0  0  0  0  0  0  0
    0.4828   -0.7843    1.0299 H   0  0  0  0  0  0  0  0  0  0  0  0
    0.4667   -0.4814   -1.1119 C   0  0  0  0  0  0  0  0  0  0  0  0
    0.7434   -1.5304   -1.2639 H   0  0  0  0  0  0  0  0  0  0  0  0
   -0.3143   -0.2440   -1.8438 H   0  0  0  0  0  0  0  0  0  0  0  0
    1.6890    0.4240   -1.4108 C   0  0  0  0  0  0  0  0  0  0  0  0
    1.6134    1.3726   -0.8765 H   0  0  0  0  0  0  0  0  0  0  0  0
    2.6024   -0.0702   -1.0694 H   0  0  0  0  0  0  0  0  0  0  0  0
    1.8344    0.7790   -2.8915 C   0  0  0  0  0  0  0  0  0  0  0  0
    1.4581   -0.0134   -3.7394 O   0  0  0  0  0  0  0  0  0  0  0  0
    2.4075    1.9685   -3.1865 O   0  0  0  0  0  0  0  0  0  0  0  0
    2.4165    2.0242   -4.1543 H   0  0  0  0  0  0  0  0  0  0  0  0
   -0.3663    1.1597    0.7100 C   0  0  0  0  0  0  0  0  0  0  0  0
   -1.2815    1.8172    0.2273 O   0  0  0  0  0  0  0  0  0  0  0  0
    0.4585    1.7383    1.6572 N   0  0  0  0  0  0  0  0  0  0  0  0
    1.1738    1.1536    2.0802 H   0  0  0  0  0  0  0  0  0  0  0  0
    0.2979    3.1096    2.1255 C   0  0  0  0  0  0  0  0  0  0  0  0
   -0.6874    3.2455    2.5839 H   0  0  0  0  0  0  0  0  0  0  0  0
    1.0619    3.3467    2.8721 H   0  0  0  0  0  0  0  0  0  0  0  0
    0.3990    3.8132    1.2924 H   0  0  0  0  0  0  0  0  0  0  0  0
  1  2  1  0  0  0  0
  2  3  1  0  0  0  0
  2  4  1  0  0  0  0
  2  5  1  0  0  0  0
  5  6  2  0  0  0  0
  5  7  1  0  0  0  0
  7  8  1  0  0  0  0
  7  9  1  0  0  0  0
  9 10  1  0  0  0  0
  9 11  1  0  0  0  0
  9 21  1  0  0  0  0
 11 12  1  0  0  0  0
 11 13  1  0  0  0  0
 11 14  1  0  0  0  0
 14 15  1  0  0  0  0
 14 16  1  0  0  0  0
 14 17  1  0  0  0  0
 17 18  2  0  0  0  0
 17 19  1  0  0  0  0
 19 20  1  0  0  0  0
 21 22  2  0  0  0  0
 21 23  1  0  0  0  0
 23 24  1  0  0  0  0
 23 25  1  0  0  0  0
 25 26  1  0  0  0  0
 25 27  1  0  0  0  0
 25 28  1  0  0  0  0
M  END
$$$$

  -OEChem-02102214123D

 28 27  0     1  0  0  0  0  0999 V2000
   -3.2427   -3.7013    1.2392 H   0  0  0  0  0  0  0  0  0  0  0  0
   -3.1946   -2.7114    0.7771 C   0  0  0  0  0  0  0  0  0  0  0  0
   -3.8326   -2.0273    1.3419 H   0  0  0  0  0  0  0  0  0  0  0  0
   -3.5660   -2.7834   -0.2481 H   0  0  0  0  0  0  0  0  0  0  0  0
   -1.7652   -2.2038    0.7751 C   0  0  0  0  0  0  0  0  0  0  0  0
   -0.8709   -2.8858    1.2501 O   0  0  0  0  0  0  0  0  0  0  0  0
   -1.4788   -0.9642    0.2447 N   0  0  0  0  0  0  0  0  0  0  0  0
   -2.2637   -0.3841   -0.0502 H   0  0  0  0  0  0  0  0  0  0  0  0
   -0.1560   -0.3250    0.2833 C   0  0  1  0  0  0  0  0  0  0  0  0
    0.4941   -0.7999    1.0256 H   0  0  0  0  0  0  0  0  0  0  0  0
    0.4683   -0.4943   -1.1193 C   0  0  0  0  0  0  0  0  0  0  0  0
    0.7391   -1.5449   -1.2705 H   0  0  0  0  0  0  0  0  0  0  0  0
   -0.3156   -0.2596   -1.8489 H   0  0  0  0  0  0  0  0  0  0  0  0
    1.6992    0.4004   -1.4193 C   0  0  0  0  0  0  0  0  0  0  0  0
    1.8044    1.1982   -0.6829 H   0  0  0  0  0  0  0  0  0  0  0  0
    2.6068   -0.2062   -1.3592 H   0  0  0  0  0  0  0  0  0  0  0  0
    1.6430    1.0570   -2.7978 C   0  0  0  0  0  0  0  0  0  0  0  0
    1.3324    0.3803   -3.7639 O   0  0  0  0  0  0  0  0  0  0  0  0
    1.9618    2.3693   -2.8767 O   0  0  0  0  0  0  0  0  0  0  0  0
    1.8581    2.6104   -3.8098 H   0  0  0  0  0  0  0  0  0  0  0  0
   -0.3498    1.1505    0.6993 C   0  0  0  0  0  0  0  0  0  0  0  0
   -1.2625    1.8074    0.2110 O   0  0  0  0  0  0  0  0  0  0  0  0
    0.4722    1.7333    1.6465 N   0  0  0  0  0  0  0  0  0  0  0  0
    1.1857    1.1509    2.0753 H   0  0  0  0  0  0  0  0  0  0  0  0
    0.3167    3.1104    2.0995 C   0  0  0  0  0  0  0  0  0  0  0  0
   -0.6624    3.2506    2.5695 H   0  0  0  0  0  0  0  0  0  0  0  0
    1.0908    3.3584    2.8320 H   0  0  0  0  0  0  0  0  0  0  0  0
    0.4055    3.8035    1.2562 H   0  0  0  0  0  0  0  0  0  0  0  0
  1  2  1  0  0  0  0
  2  3  1  0  0  0  0
  2  4  1  0  0  0  0
  2  5  1  0  0  0  0
  5  6  2  0  0  0  0
  5  7  1  0  0  0  0
  7  8  1  0  0  0  0
  7  9  1  0  0  0  0
  9 10  1  0  0  0  0
  9 11  1  0  0  0  0
  9 21  1  0  0  0  0
 11 12  1  0  0  0  0
 11 13  1  0  0  0  0
 11 14  1  0  0  0  0
 14 15  1  0  0  0  0
 14 16  1  0  0  0  0
 14 17  1  0  0  0  0
 17 18  2  0  0  0  0
 17 19  1  0  0  0  0
 19 20  1  0  0  0  0
 21 22  2  0  0  0  0
 21 23  1  0  0  0  0
 23 24  1  0  0  0  0
 23 25  1  0  0  0  0
 25 26  1  0  0  0  0
 25 27  1  0  0  0  0
 25 28  1  0  0  0  0
M  END
$$$$

  -OEChem-02102214123D

 28 27  0     1  0  0  0  0  0999 V2000
   -3.2536   -3.6967    1.2533 H   0  0  0  0  0  0  0  0  0  0  0  0
   -3.2029   -2.7046    0.7961 C   0  0  0  0  0  0  0  0  0  0  0  0
   -3.8310   -2.0192    1.3702 H   0  0  0  0  0  0  0  0  0  0  0  0
   -3.5838   -2.7681   -0.2261 H   0  0  0  0  0  0  0  0  0  0  0  0
   -1.7704   -2.2064    0.7840 C   0  0  0  0  0  0  0  0  0  0  0  0
   -0.8778   -2.8908    1.2584 O   0  0  0  0  0  0  0  0  0  0  0  0
   -1.4796   -0.9724    0.2432 N   0  0  0  0  0  0  0  0  0  0  0  0
   -2.2629   -0.3900   -0.0513 H   0  0  0  0  0  0  0  0  0  0  0  0
   -0.1541   -0.3391    0.2727 C   0  0  1  0  0  0  0  0  0  0  0  0
    0.4998   -0.8135    1.0119 H   0  0  0  0  0  0  0  0  0  0  0  0
    0.4581   -0.5031   -1.1342 C   0  0  0  0  0  0  0  0  0  0  0  0
    0.7429   -1.5522   -1.2687 H   0  0  0  0  0  0  0  0  0  0  0  0
   -0.3220   -0.2901   -1.8745 H   0  0  0  0  0  0  0  0  0  0  0  0
    1.6876    0.3954   -1.4204 C   0  0  0  0  0  0  0  0  0  0  0  0
    1.9768    0.9789   -0.5443 H   0  0  0  0  0  0  0  0  0  0  0  0
    2.5413   -0.2437   -1.6630 H   0  0  0  0  0  0  0  0  0  0  0  0
    1.4683    1.3419   -2.5976 C   0  0  0  0  0  0  0  0  0  0  0  0
    1.1933    0.8705   -3.6882 O   0  0  0  0  0  0  0  0  0  0  0  0
    1.5956    2.6682   -2.3654 O   0  0  0  0  0  0  0  0  0  0  0  0
    1.3882    3.1052   -3.2053 H   0  0  0  0  0  0  0  0  0  0  0  0
   -0.3386    1.1410    0.6778 C   0  0  0  0  0  0  0  0  0  0  0  0
   -1.2529    1.7964    0.1902 O   0  0  0  0  0  0  0  0  0  0  0  0
    0.4893    1.7276    1.6174 N   0  0  0  0  0  0  0  0  0  0  0  0
    1.2089    1.1489    2.0408 H   0  0  0  0  0  0  0  0  0  0  0  0
    0.3595    3.1170    2.0392 C   0  0  0  0  0  0  0  0  0  0  0  0
   -0.6121    3.2836    2.5163 H   0  0  0  0  0  0  0  0  0  0  0  0
    1.1456    3.3701    2.7571 H   0  0  0  0  0  0  0  0  0  0  0  0
    0.4495    3.7882    1.1784 H   0  0  0  0  0  0  0  0  0  0  0  0
  1  2  1  0  0  0  0
  2  3  1  0  0  0  0
  2  4  1  0  0  0  0
  2  5  1  0  0  0  0
  5  6  2  0  0  0  0
  5  7  1  0  0  0  0
  7  8  1  0  0  0  0
  7  9  1  0  0  0  0
  9 10  1  0  0  0  0
  9 11  1  0  0  0  0
  9 21  1  0  0  0  0
 11 12  1  0  0  0  0
 11 13  1  0  0  0  0
 11 14  1  0  0  0  0
 14 15  1  0  0  0  0
 14 16  1  0  0  0  0
 14 17  1  0  0  0  0
 17 18  2  0  0  0  0
 17 19  1  0  0  0  0
 19 20  1  0  0  0  0
 21 22  2  0  0  0  0
 21 23  1  0  0  0  0
 23 24  1  0  0  0  0
 23 25  1  0  0  0  0
 25 26  1  0  0  0  0
 25 27  1  0  0  0  0
 25 28  1  0  0  0  0
M  END
$$$$

  -OEChem-02102214123D

 28 27  0     1  0  0  0  0  0999 V2000
   -3.2375   -3.7134    1.2826 H   0  0  0  0  0  0  0  0  0  0  0  0
   -3.1972   -2.7226    0.8214 C   0  0  0  0  0  0  0  0  0  0  0  0
   -3.8235   -2.0391    1.3998 H   0  0  0  0  0  0  0  0  0  0  0  0
   -3.5887   -2.7917   -0.1964 H   0  0  0  0  0  0  0  0  0  0  0  0
   -1.7674   -2.2168    0.7918 C   0  0  0  0  0  0  0  0  0  0  0  0
   -0.8656   -2.8974    1.2544 O   0  0  0  0  0  0  0  0  0  0  0  0
   -1.4882   -0.9825    0.2453 N   0  0  0  0  0  0  0  0  0  0  0  0
   -2.2771   -0.4042   -0.0422 H   0  0  0  0  0  0  0  0  0  0  0  0
   -0.1657   -0.3429    0.2599 C   0  0  1  0  0  0  0  0  0  0  0  0
    0.4959   -0.8145    0.9941 H   0  0  0  0  0  0  0  0  0  0  0  0
    0.4382   -0.5015   -1.1501 C   0  0  0  0  0  0  0  0  0  0  0  0
    0.7450   -1.5464   -1.2684 H   0  0  0  0  0  0  0  0  0  0  0  0
   -0.3372   -0.3119   -1.9013 H   0  0  0  0  0  0  0  0  0  0  0  0
    1.6563    0.4121   -1.4222 C   0  0  0  0  0  0  0  0  0  0  0  0
    2.1046    0.7672   -0.4911 H   0  0  0  0  0  0  0  0  0  0  0  0
    2.4234   -0.1744   -1.9361 H   0  0  0  0  0  0  0  0  0  0  0  0
    1.3204    1.5973   -2.3237 C   0  0  0  0  0  0  0  0  0  0  0  0
    0.9414    1.3827   -3.4627 O   0  0  0  0  0  0  0  0  0  0  0  0
    1.4665    2.8369   -1.8026 O   0  0  0  0  0  0  0  0  0  0  0  0
    1.1604    3.4489   -2.4892 H   0  0  0  0  0  0  0  0  0  0  0  0
   -0.3436    1.1384    0.6629 C   0  0  0  0  0  0  0  0  0  0  0  0
   -1.2644    1.7919    0.1847 O   0  0  0  0  0  0  0  0  0  0  0  0
    0.4956    1.7274    1.5904 N   0  0  0  0  0  0  0  0  0  0  0  0
    1.2376    1.1582    1.9867 H   0  0  0  0  0  0  0  0  0  0  0  0
    0.3951    3.1288    1.9786 C   0  0  0  0  0  0  0  0  0  0  0  0
   -0.5748    3.3284    2.4462 H   0  0  0  0  0  0  0  0  0  0  0  0
    1.1829    3.3810    2.6949 H   0  0  0  0  0  0  0  0  0  0  0  0
    0.5048    3.7773    1.1027 H   0  0  0  0  0  0  0  0  0  0  0  0
  1  2  1  0  0  0  0
  2  3  1  0  0  0  0
  2  4  1  0  0  0  0
  2  5  1  0  0  0  0
  5  6  2  0  0  0  0
  5  7  1  0  0  0  0
  7  8  1  0  0  0  0
  7  9  1  0  0  0  0
  9 10  1  0  0  0  0
  9 11  1  0  0  0  0
  9 21  1  0  0  0  0
 11 12  1  0  0  0  0
 11 13  1  0  0  0  0
 11 14  1  0  0  0  0
 14 15  1  0  0  0  0
 14 16  1  0  0  0  0
 14 17  1  0  0  0  0
 17 18  2  0  0  0  0
 17 19  1  0  0  0  0
 19 20  1  0  0  0  0
 21 22  2  0  0  0  0
 21 23  1  0  0  0  0
 23 24  1  0  0  0  0
 23 25  1  0  0  0  0
 25 26  1  0  0  0  0
 25 27  1  0  0  0  0
 25 28  1  0  0  0  0
M  END
$$$$

  -OEChem-02102214123D

 28 27  0     1  0  0  0  0  0999 V2000
   -3.1985   -3.7247    1.3073 H   0  0  0  0  0  0  0  0  0  0  0  0
   -3.1757   -2.7383    0.8358 C   0  0  0  0  0  0  0  0  0  0  0  0
   -3.8022   -2.0563    1.4159 H   0  0  0  0  0  0  0  0  0  0  0  0
   -3.5794   -2.8221   -0.1761 H   0  0  0  0  0  0  0  0  0  0  0  0
   -1.7523   -2.2169    0.7831 C   0  0  0  0  0  0  0  0  0  0  0  0
   -0.8351   -2.8925    1.2223 O   0  0  0  0  0  0  0  0  0  0  0  0
   -1.4963   -0.9738    0.2453 N   0  0  0  0  0  0  0  0  0  0  0  0
   -2.2969   -0.4013   -0.0209 H   0  0  0  0  0  0  0  0  0  0  0  0
   -0.1827   -0.3160    0.2522 C   0  0  1  0  0  0  0  0  0  0  0  0
    0.4823   -0.7824    0.9868 H   0  0  0  0  0  0  0  0  0  0  0  0
    0.4282   -0.4917   -1.1542 C   0  0  0  0  0  0  0  0  0  0  0  0
    0.7513   -1.5341   -1.2471 H   0  0  0  0  0  0  0  0  0  0  0  0
   -0.3454   -0.3295   -1.9136 H   0  0  0  0  0  0  0  0  0  0  0  0
    1.6332    0.4291   -1.4502 C   0  0  0  0  0  0  0  0  0  0  0  0
    2.2186    0.5956   -0.5419 H   0  0  0  0  0  0  0  0  0  0  0  0
    2.2895   -0.0716   -2.1676 H   0  0  0  0  0  0  0  0  0  0  0  0
    1.2357    1.7702   -2.0652 C   0  0  0  0  0  0  0  0  0  0  0  0
    0.6446    1.7737   -3.1315 O   0  0  0  0  0  0  0  0  0  0  0  0
    1.5746    2.8938   -1.3928 O   0  0  0  0  0  0  0  0  0  0  0  0
    1.1946    3.6245   -1.9044 H   0  0  0  0  0  0  0  0  0  0  0  0
   -0.3625    1.1601    0.6693 C   0  0  0  0  0  0  0  0  0  0  0  0
   -1.2972    1.8128    0.2183 O   0  0  0  0  0  0  0  0  0  0  0  0
    0.4881    1.7411    1.5914 N   0  0  0  0  0  0  0  0  0  0  0  0
    1.2479    1.1749    1.9568 H   0  0  0  0  0  0  0  0  0  0  0  0
    0.3751    3.1307    2.0167 C   0  0  0  0  0  0  0  0  0  0  0  0
   -0.5941    3.3075    2.4949 H   0  0  0  0  0  0  0  0  0  0  0  0
    1.1642    3.3723    2.7352 H   0  0  0  0  0  0  0  0  0  0  0  0
    0.4726    3.8031    1.1579 H   0  0  0  0  0  0  0  0  0  0  0  0
  1  2  1  0  0  0  0
  2  3  1  0  0  0  0
  2  4  1  0  0  0  0
  2  5  1  0  0  0  0
  5  6  2  0  0  0  0
  5  7  1  0  0  0  0
  7  8  1  0  0  0  0
  7  9  1  0  0  0  0
  9 10  1  0  0  0  0
  9 11  1  0  0  0  0
  9 21  1  0  0  0  0
 11 12  1  0  0  0  0
 11 13  1  0  0  0  0
 11 14  1  0  0  0  0
 14 15  1  0  0  0  0
 14 16  1  0  0  0  0
 14 17  1  0  0  0  0
 17 18  2  0  0  0  0
 17 19  1  0  0  0  0
 19 20  1  0  0  0  0
 21 22  2  0  0  0  0
 21 23  1  0  0  0  0
 23 24  1  0  0  0  0
 23 25  1  0  0  0  0
 25 26  1  0  0  0  0
 25 27  1  0  0  0  0
 25 28  1  0  0  0  0
M  END
$$$$

  -OEChem-02102214123D

 28 27  0     1  0  0  0  0  0999 V2000
   -3.1542   -3.7388    1.3125 H   0  0  0  0  0  0  0  0  0  0  0  0
   -3.1470   -2.7555    0.8341 C   0  0  0  0  0  0  0  0  0  0  0  0
   -3.7862   -2.0803    1.4081 H   0  0  0  0  0  0  0  0  0  0  0  0
   -3.5477   -2.8532   -0.1778 H   0  0  0  0  0  0  0  0  0  0  0  0
   -1.7324   -2.2107    0.7800 C   0  0  0  0  0  0  0  0  0  0  0  0
   -0.8002   -2.8817    1.1938 O   0  0  0  0  0  0  0  0  0  0  0  0
   -1.5002   -0.9552    0.2602 N   0  0  0  0  0  0  0  0  0  0  0  0
   -2.3121   -0.3890    0.0153 H   0  0  0  0  0  0  0  0  0  0  0  0
   -0.1965   -0.2778    0.2624 C   0  0  1  0  0  0  0  0  0  0  0  0
    0.4724   -0.7391    0.9967 H   0  0  0  0  0  0  0  0  0  0  0  0
    0.4186   -0.4765   -1.1426 C   0  0  0  0  0  0  0  0  0  0  0  0
    0.7406   -1.5205   -1.2186 H   0  0  0  0  0  0  0  0  0  0  0  0
   -0.3626   -0.3268   -1.8970 H   0  0  0  0  0  0  0  0  0  0  0  0
    1.6146    0.4331   -1.5019 C   0  0  0  0  0  0  0  0  0  0  0  0
    2.3355    0.4278   -0.6798 H   0  0  0  0  0  0  0  0  0  0  0  0
    2.1200    0.0203   -2.3795 H   0  0  0  0  0  0  0  0  0  0  0  0
    1.2386    1.8771   -1.8292 C   0  0  0  0  0  0  0  0  0  0  0  0
    0.4698    2.0815   -2.7522 O   0  0  0  0  0  0  0  0  0  0  0  0
    1.7978    2.8612   -1.0887 O   0  0  0  0  0  0  0  0  0  0  0  0
    1.4112    3.6843   -1.4262 H   0  0  0  0  0  0  0  0  0  0  0  0
   -0.3908    1.1884    0.7055 C   0  0  0  0  0  0  0  0  0  0  0  0
   -1.3552    1.8290    0.3035 O   0  0  0  0  0  0  0  0  0  0  0  0
    0.4656    1.7623    1.6266 N   0  0  0  0  0  0  0  0  0  0  0  0
    1.2548    1.2083    1.9458 H   0  0  0  0  0  0  0  0  0  0  0  0
    0.3192    3.1277    2.1158 C   0  0  0  0  0  0  0  0  0  0  0  0
   -0.6542    3.2603    2.5999 H   0  0  0  0  0  0  0  0  0  0  0  0
    1.1015    3.3525    2.8471 H   0  0  0  0  0  0  0  0  0  0  0  0
    0.4019    3.8420    1.2902 H   0  0  0  0  0  0  0  0  0  0  0  0
  1  2  1  0  0  0  0
  2  3  1  0  0  0  0
  2  4  1  0  0  0  0
  2  5  1  0  0  0  0
  5  6  2  0  0  0  0
  5  7  1  0  0  0  0
  7  8  1  0  0  0  0
  7  9  1  0  0  0  0
  9 10  1  0  0  0  0
  9 11  1  0  0  0  0
  9 21  1  0  0  0  0
 11 12  1  0  0  0  0
 11 13  1  0  0  0  0
 11 14  1  0  0  0  0
 14 15  1  0  0  0  0
 14 16  1  0  0  0  0
 14 17  1  0  0  0  0
 17 18  2  0  0  0  0
 17 19  1  0  0  0  0
 19 20  1  0  0  0  0
 21 22  2  0  0  0  0
 21 23  1  0  0  0  0
 23 24  1  0  0  0  0
 23 25  1  0  0  0  0
 25 26  1  0  0  0  0
 25 27  1  0  0  0  0
 25 28  1  0  0  0  0
M  END
$$$$

  -OEChem-02102214123D

 28 27  0     1  0  0  0  0  0999 V2000
   -3.1185   -3.7425    1.3197 H   0  0  0  0  0  0  0  0  0  0  0  0
   -3.1240   -2.7523    0.8555 C   0  0  0  0  0  0  0  0  0  0  0  0
   -3.7440   -2.0844    1.4585 H   0  0  0  0  0  0  0  0  0  0  0  0
   -3.5553   -2.8340   -0.1451 H   0  0  0  0  0  0  0  0  0  0  0  0
   -1.7108   -2.2088    0.7662 C   0  0  0  0  0  0  0  0  0  0  0  0
   -0.7678   -2.8851    1.1459 O   0  0  0  0  0  0  0  0  0  0  0  0
   -1.4938   -0.9442    0.2629 N   0  0  0  0  0  0  0  0  0  0  0  0
   -2.3133   -0.3715    0.0609 H   0  0  0  0  0  0  0  0  0  0  0  0
   -0.1955   -0.2558    0.2677 C   0  0  1  0  0  0  0  0  0  0  0  0
    0.4780   -0.7142    0.9995 H   0  0  0  0  0  0  0  0  0  0  0  0
    0.4194   -0.4568   -1.1410 C   0  0  0  0  0  0  0  0  0  0  0  0
    0.7233   -1.5057   -1.2267 H   0  0  0  0  0  0  0  0  0  0  0  0
   -0.3735   -0.2908   -1.8794 H   0  0  0  0  0  0  0  0  0  0  0  0
    1.6139    0.4317   -1.5616 C   0  0  0  0  0  0  0  0  0  0  0  0
    2.4474    0.2368   -0.8810 H   0  0  0  0  0  0  0  0  0  0  0  0
    1.9376    0.1317   -2.5623 H   0  0  0  0  0  0  0  0  0  0  0  0
    1.3648    1.9366   -1.5886 C   0  0  0  0  0  0  0  0  0  0  0  0
    0.5364    2.3690   -2.3693 O   0  0  0  0  0  0  0  0  0  0  0  0
    2.0997    2.7199   -0.7661 O   0  0  0  0  0  0  0  0  0  0  0  0
    1.7897    3.6239   -0.9322 H   0  0  0  0  0  0  0  0  0  0  0  0
   -0.4263    1.1978    0.7359 C   0  0  0  0  0  0  0  0  0  0  0  0
   -1.4320    1.8044    0.3852 O   0  0  0  0  0  0  0  0  0  0  0  0
    0.4163    1.7777    1.6662 N   0  0  0  0  0  0  0  0  0  0  0  0
    1.2418    1.2555    1.9455 H   0  0  0  0  0  0  0  0  0  0  0  0
    0.2029    3.1091    2.2201 C   0  0  0  0  0  0  0  0  0  0  0  0
   -0.7610    3.1591    2.7376 H   0  0  0  0  0  0  0  0  0  0  0  0
    0.9926    3.3509    2.9379 H   0  0  0  0  0  0  0  0  0  0  0  0
    0.2151    3.8614    1.4248 H   0  0  0  0  0  0  0  0  0  0  0  0
  1  2  1  0  0  0  0
  2  3  1  0  0  0  0
  2  4  1  0  0  0  0
  2  5  1  0  0  0  0
  5  6  2  0  0  0  0
  5  7  1  0  0  0  0
  7  8  1  0  0  0  0
  7  9  1  0  0  0  0
  9 10  1  0  0  0  0
  9 11  1  0  0  0  0
  9 21  1  0  0  0  0
 11 12  1  0  0  0  0
 11 13  1  0  0  0  0
 11 14  1  0  0  0  0
 14 15  1  0  0  0  0
 14 16  1  0  0  0  0
 14 17  1  0  0  0  0
 17 18  2  0  0  0  0
 17 19  1  0  0  0  0
 19 20  1  0  0  0  0
 21 22  2  0  0  0  0
 21 23  1  0  0  0  0
 23 24  1  0  0  0  0
 23 25  1  0  0  0  0
 25 26  1  0  0  0  0
 25 27  1  0  0  0  0
 25 28  1  0  0  0  0
M  END
$$$$

  -OEChem-02102214123D

 28 27  0     1  0  0  0  0  0999 V2000
   -3.0874   -3.7643    1.3092 H   0  0  0  0  0  0  0  0  0  0  0  0
   -3.1015   -2.7690    0.8565 C   0  0  0  0  0  0  0  0  0  0  0  0
   -3.7201   -2.1112    1.4717 H   0  0  0  0  0  0  0  0  0  0  0  0
   -3.5398   -2.8417   -0.1417 H   0  0  0  0  0  0  0  0  0  0  0  0
   -1.6917   -2.2174    0.7630 C   0  0  0  0  0  0  0  0  0  0  0  0
   -0.7418   -2.8964    1.1199 O   0  0  0  0  0  0  0  0  0  0  0  0
   -1.4838   -0.9452    0.2750 N   0  0  0  0  0  0  0  0  0  0  0  0
   -2.3075   -0.3680    0.1031 H   0  0  0  0  0  0  0  0  0  0  0  0
   -0.1887   -0.2491    0.2875 C   0  0  1  0  0  0  0  0  0  0  0  0
    0.4951   -0.7076    1.0097 H   0  0  0  0  0  0  0  0  0  0  0  0
    0.4099   -0.4277   -1.1333 C   0  0  0  0  0  0  0  0  0  0  0  0
    0.6893   -1.4800   -1.2520 H   0  0  0  0  0  0  0  0  0  0  0  0
   -0.4014   -0.2302   -1.8434 H   0  0  0  0  0  0  0  0  0  0  0  0
    1.6005    0.4458   -1.6031 C   0  0  0  0  0  0  0  0  0  0  0  0
    2.5045    0.0592   -1.1239 H   0  0  0  0  0  0  0  0  0  0  0  0
    1.7279    0.3088   -2.6808 H   0  0  0  0  0  0  0  0  0  0  0  0
    1.5524    1.9434   -1.3263 C   0  0  0  0  0  0  0  0  0  0  0  0
    0.7762    2.6242   -1.9711 O   0  0  0  0  0  0  0  0  0  0  0  0
    2.4030    2.4488   -0.4029 O   0  0  0  0  0  0  0  0  0  0  0  0
    2.2283    3.4030   -0.3921 H   0  0  0  0  0  0  0  0  0  0  0  0
   -0.4596    1.1920    0.7773 C   0  0  0  0  0  0  0  0  0  0  0  0
   -1.4868    1.7704    0.4398 O   0  0  0  0  0  0  0  0  0  0  0  0
    0.3594    1.7841    1.7212 N   0  0  0  0  0  0  0  0  0  0  0  0
    1.2148    1.2970    1.9742 H   0  0  0  0  0  0  0  0  0  0  0  0
    0.1072    3.1066    2.2808 C   0  0  0  0  0  0  0  0  0  0  0  0
   -0.8578    3.1255    2.7985 H   0  0  0  0  0  0  0  0  0  0  0  0
    0.8895    3.3690    2.9995 H   0  0  0  0  0  0  0  0  0  0  0  0
    0.0960    3.8624    1.4884 H   0  0  0  0  0  0  0  0  0  0  0  0
  1  2  1  0  0  0  0
  2  3  1  0  0  0  0
  2  4  1  0  0  0  0
  2  5  1  0  0  0  0
  5  6  2  0  0  0  0
  5  7  1  0  0  0  0
  7  8  1  0  0  0  0
  7  9  1  0  0  0  0
  9 10  1  0  0  0  0
  9 11  1  0  0  0  0
  9 21  1  0  0  0  0
 11 12  1  0  0  0  0
 11 13  1  0  0  0  0
 11 14  1  0  0  0  0
 14 15  1  0  0  0  0
 14 16  1  0  0  0  0
 14 17  1  0  0  0  0
 17 18  2  0  0  0  0
 17 19  1  0  0  0  0
 19 20  1  0  0  0  0
 21 22  2  0  0  0  0
 21 23  1  0  0  0  0
 23 24  1  0  0  0  0
 23 25  1  0  0  0  0
 25 26  1  0  0  0  0
 25 27  1  0  0  0  0
 25 28  1  0  0  0  0
M  END
$$$$

  -OEChem-02102214123D

 28 27  0     1  0  0  0  0  0999 V2000
   -3.0585   -3.7889    1.2876 H   0  0  0  0  0  0  0  0  0  0  0  0
   -3.0757   -2.7942    0.8337 C   0  0  0  0  0  0  0  0  0  0  0  0
   -3.7020   -2.1396    1.4446 H   0  0  0  0  0  0  0  0  0  0  0  0
   -3.5075   -2.8703   -0.1671 H   0  0  0  0  0  0  0  0  0  0  0  0
   -1.6690   -2.2332    0.7490 C   0  0  0  0  0  0  0  0  0  0  0  0
   -0.7159   -2.9092    1.1026 O   0  0  0  0  0  0  0  0  0  0  0  0
   -1.4679   -0.9546    0.2753 N   0  0  0  0  0  0  0  0  0  0  0  0
   -2.2948   -0.3802    0.1087 H   0  0  0  0  0  0  0  0  0  0  0  0
   -0.1770   -0.2503    0.3056 C   0  0  1  0  0  0  0  0  0  0  0  0
    0.5155   -0.7106    1.0183 H   0  0  0  0  0  0  0  0  0  0  0  0
    0.4062   -0.3892   -1.1266 C   0  0  0  0  0  0  0  0  0  0  0  0
    0.6716   -1.4402   -1.2831 H   0  0  0  0  0  0  0  0  0  0  0  0
   -0.4187   -0.1649   -1.8128 H   0  0  0  0  0  0  0  0  0  0  0  0
    1.5908    0.4870   -1.6145 C   0  0  0  0  0  0  0  0  0  0  0  0
    2.5120   -0.0551   -1.3823 H   0  0  0  0  0  0  0  0  0  0  0  0
    1.5383    0.5643   -2.7046 H   0  0  0  0  0  0  0  0  0  0  0  0
    1.7682    1.8905   -1.0502 C   0  0  0  0  0  0  0  0  0  0  0  0
    1.1521    2.8055   -1.5647 O   0  0  0  0  0  0  0  0  0  0  0  0
    2.6414    2.0575   -0.0288 O   0  0  0  0  0  0  0  0  0  0  0  0
    2.6455    3.0117    0.1471 H   0  0  0  0  0  0  0  0  0  0  0  0
   -0.4869    1.1790    0.8106 C   0  0  0  0  0  0  0  0  0  0  0  0
   -1.5149    1.7441    0.4523 O   0  0  0  0  0  0  0  0  0  0  0  0
    0.3045    1.7785    1.7732 N   0  0  0  0  0  0  0  0  0  0  0  0
    1.1696    1.3080    2.0266 H   0  0  0  0  0  0  0  0  0  0  0  0
    0.0344    3.1045    2.3155 C   0  0  0  0  0  0  0  0  0  0  0  0
   -0.9532    3.1314    2.7882 H   0  0  0  0  0  0  0  0  0  0  0  0
    0.7837    3.3650    3.0692 H   0  0  0  0  0  0  0  0  0  0  0  0
    0.0646    3.8569    1.5201 H   0  0  0  0  0  0  0  0  0  0  0  0
  1  2  1  0  0  0  0
  2  3  1  0  0  0  0
  2  4  1  0  0  0  0
  2  5  1  0  0  0  0
  5  6  2  0  0  0  0
  5  7  1  0  0  0  0
  7  8  1  0  0  0  0
  7  9  1  0  0  0  0
  9 10  1  0  0  0  0
  9 11  1  0  0  0  0
  9 21  1  0  0  0  0
 11 12  1  0  0  0  0
 11 13  1  0  0  0  0
 11 14  1  0  0  0  0
 14 15  1  0  0  0  0
 14 16  1  0  0  0  0
 14 17  1  0  0  0  0
 17 18  2  0  0  0  0
 17 19  1  0  0  0  0
 19 20  1  0  0  0  0
 21 22  2  0  0  0  0
 21 23  1  0  0  0  0
 23 24  1  0  0  0  0
 23 25  1  0  0  0  0
 25 26  1  0  0  0  0
 25 27  1  0  0  0  0
 25 28  1  0  0  0  0
M  END
$$$$

  -OEChem-02102214123D

 28 27  0     1  0  0  0  0  0999 V2000
   -3.0339   -3.7997    1.3487 H   0  0  0  0  0  0  0  0  0  0  0  0
   -3.0605   -2.8014    0.9031 C   0  0  0  0  0  0  0  0  0  0  0  0
   -3.6704   -2.1504    1.5341 H   0  0  0  0  0  0  0  0  0  0  0  0
   -3.5170   -2.8687   -0.0874 H   0  0  0  0  0  0  0  0  0  0  0  0
   -1.6550   -2.2425    0.7874 C   0  0  0  0  0  0  0  0  0  0  0  0
   -0.6941   -2.9258    1.1038 O   0  0  0  0  0  0  0  0  0  0  0  0
   -1.4650   -0.9570    0.3283 N   0  0  0  0  0  0  0  0  0  0  0  0
   -2.2951   -0.3792    0.1930 H   0  0  0  0  0  0  0  0  0  0  0  0
   -0.1712   -0.2573    0.3221 C   0  0  1  0  0  0  0  0  0  0  0  0
    0.5577   -0.7335    0.9865 H   0  0  0  0  0  0  0  0  0  0  0  0
    0.3284   -0.3421   -1.1453 C   0  0  0  0  0  0  0  0  0  0  0  0
    0.5814   -1.3879   -1.3509 H   0  0  0  0  0  0  0  0  0  0  0  0
   -0.5336   -0.0976   -1.7768 H   0  0  0  0  0  0  0  0  0  0  0  0
    1.4897    0.5453   -1.6734 C   0  0  0  0  0  0  0  0  0  0  0  0
    2.3703   -0.0952   -1.7754 H   0  0  0  0  0  0  0  0  0  0  0  0
    1.2322    0.8850   -2.6814 H   0  0  0  0  0  0  0  0  0  0  0  0
    1.9402    1.7570   -0.8676 C   0  0  0  0  0  0  0  0  0  0  0  0
    1.5671    2.8627   -1.2152 O   0  0  0  0  0  0  0  0  0  0  0  0
    2.7877    1.5463    0.1678 O   0  0  0  0  0  0  0  0  0  0  0  0
    3.0209    2.4322    0.4871 H   0  0  0  0  0  0  0  0  0  0  0  0
   -0.4708    1.1610    0.8638 C   0  0  0  0  0  0  0  0  0  0  0  0
   -1.4915    1.7440    0.5126 O   0  0  0  0  0  0  0  0  0  0  0  0
    0.3465    1.7509    1.8100 N   0  0  0  0  0  0  0  0  0  0  0  0
    1.2080    1.2650    2.0465 H   0  0  0  0  0  0  0  0  0  0  0  0
    0.1291    3.0996    2.3191 C   0  0  0  0  0  0  0  0  0  0  0  0
   -0.8597    3.1802    2.7832 H   0  0  0  0  0  0  0  0  0  0  0  0
    0.8832    3.3467    3.0724 H   0  0  0  0  0  0  0  0  0  0  0  0
    0.1968    3.8302    1.5058 H   0  0  0  0  0  0  0  0  0  0  0  0
  1  2  1  0  0  0  0
  2  3  1  0  0  0  0
  2  4  1  0  0  0  0
  2  5  1  0  0  0  0
  5  6  2  0  0  0  0
  5  7  1  0  0  0  0
  7  8  1  0  0  0  0
  7  9  1  0  0  0  0
  9 10  1  0  0  0  0
  9 11  1  0  0  0  0
  9 21  1  0  0  0  0
 11 12  1  0  0  0  0
 11 13  1  0  0  0  0
 11 14  1  0  0  0  0
 14 15  1  0  0  0  0
 14 16  1  0  0  0  0
 14 17  1  0  0  0  0
 17 18  2  0  0  0  0
 17 19  1  0  0  0  0
 19 20  1  0  0  0  0
 21 22  2  0  0  0  0
 21 23  1  0  0  0  0
 23 24  1  0  0  0  0
 23 25  1  0  0  0  0
 25 26  1  0  0  0  0
 25 27  1  0  0  0  0
 25 28  1  0  0  0  0
M  END
$$$$

  -OEChem-02102214123D

 28 27  0     1  0  0  0  0  0999 V2000
   -3.2781   -3.6793    1.2482 H   0  0  0  0  0  0  0  0  0  0  0  0
   -3.2206   -2.6726    0.8251 C   0  0  0  0  0  0  0  0  0  0  0  0
   -3.8207   -1.9972    1.4396 H   0  0  0  0  0  0  0  0  0  0  0  0
   -3.6289   -2.6927   -0.1881 H   0  0  0  0  0  0  0  0  0  0  0  0
   -1.7796   -2.2002    0.7932 C   0  0  0  0  0  0  0  0  0  0  0  0
   -0.8882   -2.9223    1.2097 O   0  0  0  0  0  0  0  0  0  0  0  0
   -1.4803   -0.9504    0.2953 N   0  0  0  0  0  0  0  0  0  0  0  0
   -2.2632   -0.3354    0.0725 H   0  0  0  0  0  0  0  0  0  0  0  0
   -0.1543   -0.3192    0.3775 C   0  0  1  0  0  0  0  0  0  0  0  0
    0.4885   -0.8003    1.1229 H   0  0  0  0  0  0  0  0  0  0  0  0
    0.4636   -0.4825   -1.0361 C   0  0  0  0  0  0  0  0  0  0  0  0
    0.6990   -1.5452   -1.1610 H   0  0  0  0  0  0  0  0  0  0  0  0
   -0.3224   -0.2476   -1.7631 H   0  0  0  0  0  0  0  0  0  0  0  0
    1.7134    0.3337   -1.4710 C   0  0  0  0  0  0  0  0  0  0  0  0
    2.4962   -0.3694   -1.7692 H   0  0  0  0  0  0  0  0  0  0  0  0
    1.4471    0.9050   -2.3653 H   0  0  0  0  0  0  0  0  0  0  0  0
    2.3393    1.3081   -0.4809 C   0  0  0  0  0  0  0  0  0  0  0  0
    2.8129    0.8613    0.5524 O   0  0  0  0  0  0  0  0  0  0  0  0
    2.3488    2.6218   -0.8031 O   0  0  0  0  0  0  0  0  0  0  0  0
    2.7866    3.0803   -0.0710 H   0  0  0  0  0  0  0  0  0  0  0  0
   -0.4217    1.1398    0.8248 C   0  0  0  0  0  0  0  0  0  0  0  0
   -1.3669    1.7600    0.3470 O   0  0  0  0  0  0  0  0  0  0  0  0
    0.3355    1.7384    1.8141 N   0  0  0  0  0  0  0  0  0  0  0  0
    1.1767    1.2444    2.1100 H   0  0  0  0  0  0  0  0  0  0  0  0
    0.1239    3.1077    2.2658 C   0  0  0  0  0  0  0  0  0  0  0  0
   -0.8773    3.2178    2.6959 H   0  0  0  0  0  0  0  0  0  0  0  0
    0.8593    3.3708    3.0321 H   0  0  0  0  0  0  0  0  0  0  0  0
    0.2270    3.8075    1.4298 H   0  0  0  0  0  0  0  0  0  0  0  0
  1  2  1  0  0  0  0
  2  3  1  0  0  0  0
  2  4  1  0  0  0  0
  2  5  1  0  0  0  0
  5  6  2  0  0  0  0
  5  7  1  0  0  0  0
  7  8  1  0  0  0  0
  7  9  1  0  0  0  0
  9 10  1  0  0  0  0
  9 11  1  0  0  0  0
  9 21  1  0  0  0  0
 11 12  1  0  0  0  0
 11 13  1  0  0  0  0
 11 14  1  0  0  0  0
 14 15  1  0  0  0  0
 14 16  1  0  0  0  0
 14 17  1  0  0  0  0
 17 18  2  0  0  0  0
 17 19  1  0  0  0  0
 19 20  1  0  0  0  0
 21 22  2  0  0  0  0
 21 23  1  0  0  0  0
 23 24  1  0  0  0  0
 23 25  1  0  0  0  0
 25 26  1  0  0  0  0
 25 27  1  0  0  0  0
 25 28  1  0  0  0  0
M  END
$$$$

  -OEChem-02102214123D

 28 27  0     1  0  0  0  0  0999 V2000
   -3.3552   -3.6568    1.1961 H   0  0  0  0  0  0  0  0  0  0  0  0
   -3.2703   -2.6720    0.7284 C   0  0  0  0  0  0  0  0  0  0  0  0
   -3.9108   -1.9698    1.2674 H   0  0  0  0  0  0  0  0  0  0  0  0
   -3.6096   -2.7434   -0.3076 H   0  0  0  0  0  0  0  0  0  0  0  0
   -1.8306   -2.1964    0.7696 C   0  0  0  0  0  0  0  0  0  0  0  0
   -0.9666   -2.9036    1.2620 O   0  0  0  0  0  0  0  0  0  0  0  0
   -1.5028   -0.9620    0.2510 N   0  0  0  0  0  0  0  0  0  0  0  0
   -2.2706   -0.3592   -0.0440 H   0  0  0  0  0  0  0  0  0  0  0  0
   -0.1807   -0.3300    0.3761 C   0  0  1  0  0  0  0  0  0  0  0  0
    0.4205   -0.8014    1.1614 H   0  0  0  0  0  0  0  0  0  0  0  0
    0.5087   -0.5122   -0.9989 C   0  0  0  0  0  0  0  0  0  0  0  0
    0.7762   -1.5719   -1.0733 H   0  0  0  0  0  0  0  0  0  0  0  0
   -0.2314   -0.3167   -1.7829 H   0  0  0  0  0  0  0  0  0  0  0  0
    1.7747    0.3155   -1.3561 C   0  0  0  0  0  0  0  0  0  0  0  0
    2.4841   -0.3323   -1.8783 H   0  0  0  0  0  0  0  0  0  0  0  0
    1.4669    1.0878   -2.0677 H   0  0  0  0  0  0  0  0  0  0  0  0
    2.5295    1.0322   -0.2379 C   0  0  0  0  0  0  0  0  0  0  0  0
    2.7689    0.4319    0.7981 O   0  0  0  0  0  0  0  0  0  0  0  0
    2.9155    2.3087   -0.4655 O   0  0  0  0  0  0  0  0  0  0  0  0
    3.3969    2.5934    0.3255 H   0  0  0  0  0  0  0  0  0  0  0  0
   -0.4293    1.1459    0.7679 C   0  0  0  0  0  0  0  0  0  0  0  0
   -1.3238    1.7798    0.2171 O   0  0  0  0  0  0  0  0  0  0  0  0
    0.3052    1.7524    1.7692 N   0  0  0  0  0  0  0  0  0  0  0  0
    1.0885    1.2224    2.1495 H   0  0  0  0  0  0  0  0  0  0  0  0
    0.1351    3.1466    2.1583 C   0  0  0  0  0  0  0  0  0  0  0  0
   -0.8911    3.3281    2.4950 H   0  0  0  0  0  0  0  0  0  0  0  0
    0.8154    3.3959    2.9783 H   0  0  0  0  0  0  0  0  0  0  0  0
    0.3512    3.8090    1.3134 H   0  0  0  0  0  0  0  0  0  0  0  0
  1  2  1  0  0  0  0
  2  3  1  0  0  0  0
  2  4  1  0  0  0  0
  2  5  1  0  0  0  0
  5  6  2  0  0  0  0
  5  7  1  0  0  0  0
  7  8  1  0  0  0  0
  7  9  1  0  0  0  0
  9 10  1  0  0  0  0
  9 11  1  0  0  0  0
  9 21  1  0  0  0  0
 11 12  1  0  0  0  0
 11 13  1  0  0  0  0
 11 14  1  0  0  0  0
 14 15  1  0  0  0  0
 14 16  1  0  0  0  0
 14 17  1  0  0  0  0
 17 18  2  0  0  0  0
 17 19  1  0  0  0  0
 19 20  1  0  0  0  0
 21 22  2  0  0  0  0
 21 23  1  0  0  0  0
 23 24  1  0  0  0  0
 23 25  1  0  0  0  0
 25 26  1  0  0  0  0
 25 27  1  0  0  0  0
 25 28  1  0  0  0  0
M  END
$$$$

  -OEChem-02102214123D

 28 27  0     1  0  0  0  0  0999 V2000
   -3.3094   -3.7246    1.2014 H   0  0  0  0  0  0  0  0  0  0  0  0
   -3.2464   -2.7374    0.7352 C   0  0  0  0  0  0  0  0  0  0  0  0
   -3.8997   -2.0496    1.2775 H   0  0  0  0  0  0  0  0  0  0  0  0
   -3.5881   -2.8143   -0.2998 H   0  0  0  0  0  0  0  0  0  0  0  0
   -1.8165   -2.2322    0.7714 C   0  0  0  0  0  0  0  0  0  0  0  0
   -0.9358   -2.9258    1.2532 O   0  0  0  0  0  0  0  0  0  0  0  0
   -1.5173   -0.9905    0.2524 N   0  0  0  0  0  0  0  0  0  0  0  0
   -2.2993   -0.4064   -0.0415 H   0  0  0  0  0  0  0  0  0  0  0  0
   -0.2057   -0.3334    0.3543 C   0  0  1  0  0  0  0  0  0  0  0  0
    0.4040   -0.8078    1.1306 H   0  0  0  0  0  0  0  0  0  0  0  0
    0.4816   -0.4933   -1.0209 C   0  0  0  0  0  0  0  0  0  0  0  0
    0.7857   -1.5428   -1.0988 H   0  0  0  0  0  0  0  0  0  0  0  0
   -0.2597   -0.3148   -1.8075 H   0  0  0  0  0  0  0  0  0  0  0  0
    1.7207    0.3846   -1.3447 C   0  0  0  0  0  0  0  0  0  0  0  0
    2.3322   -0.1300   -2.0906 H   0  0  0  0  0  0  0  0  0  0  0  0
    1.3502    1.3023   -1.8118 H   0  0  0  0  0  0  0  0  0  0  0  0
    2.6389    0.8258   -0.2022 C   0  0  0  0  0  0  0  0  0  0  0  0
    2.7440    0.1381    0.8002 O   0  0  0  0  0  0  0  0  0  0  0  0
    3.3136    1.9846   -0.3802 O   0  0  0  0  0  0  0  0  0  0  0  0
    3.8654    2.1024    0.4076 H   0  0  0  0  0  0  0  0  0  0  0  0
   -0.4244    1.1418    0.7542 C   0  0  0  0  0  0  0  0  0  0  0  0
   -1.3155    1.7929    0.2198 O   0  0  0  0  0  0  0  0  0  0  0  0
    0.3500    1.7292    1.7361 N   0  0  0  0  0  0  0  0  0  0  0  0
    1.1151    1.1716    2.1136 H   0  0  0  0  0  0  0  0  0  0  0  0
    0.2250    3.1263    2.1307 C   0  0  0  0  0  0  0  0  0  0  0  0
   -0.7918    3.3368    2.4789 H   0  0  0  0  0  0  0  0  0  0  0  0
    0.9212    3.3537    2.9436 H   0  0  0  0  0  0  0  0  0  0  0  0
    0.4511    3.7845    1.2853 H   0  0  0  0  0  0  0  0  0  0  0  0
  1  2  1  0  0  0  0
  2  3  1  0  0  0  0
  2  4  1  0  0  0  0
  2  5  1  0  0  0  0
  5  6  2  0  0  0  0
  5  7  1  0  0  0  0
  7  8  1  0  0  0  0
  7  9  1  0  0  0  0
  9 10  1  0  0  0  0
  9 11  1  0  0  0  0
  9 21  1  0  0  0  0
 11 12  1  0  0  0  0
 11 13  1  0  0  0  0
 11 14  1  0  0  0  0
 14 15  1  0  0  0  0
 14 16  1  0  0  0  0
 14 17  1  0  0  0  0
 17 18  2  0  0  0  0
 17 19  1  0  0  0  0
 19 20  1  0  0  0  0
 21 22  2  0  0  0  0
 21 23  1  0  0  0  0
 23 24  1  0  0  0  0
 23 25  1  0  0  0  0
 25 26  1  0  0  0  0
 25 27  1  0  0  0  0
 25 28  1  0  0  0  0
M  END
$$$$

  -OEChem-02102214123D

 28 27  0     1  0  0  0  0  0999 V2000
   -3.2804   -3.7510    1.2216 H   0  0  0  0  0  0  0  0  0  0  0  0
   -3.2342   -2.7642    0.7525 C   0  0  0  0  0  0  0  0  0  0  0  0
   -3.8830   -2.0805    1.3053 H   0  0  0  0  0  0  0  0  0  0  0  0
   -3.5935   -2.8457   -0.2762 H   0  0  0  0  0  0  0  0  0  0  0  0
   -1.8081   -2.2476    0.7631 C   0  0  0  0  0  0  0  0  0  0  0  0
   -0.9139   -2.9354    1.2280 O   0  0  0  0  0  0  0  0  0  0  0  0
   -1.5297   -1.0022    0.2409 N   0  0  0  0  0  0  0  0  0  0  0  0
   -2.3230   -0.4273   -0.0396 H   0  0  0  0  0  0  0  0  0  0  0  0
   -0.2264   -0.3275    0.3306 C   0  0  1  0  0  0  0  0  0  0  0  0
    0.3786   -0.7991    1.1112 H   0  0  0  0  0  0  0  0  0  0  0  0
    0.4770   -0.4865   -1.0349 C   0  0  0  0  0  0  0  0  0  0  0  0
    0.7994   -1.5306   -1.1137 H   0  0  0  0  0  0  0  0  0  0  0  0
   -0.2577   -0.3134   -1.8287 H   0  0  0  0  0  0  0  0  0  0  0  0
    1.6993    0.4233   -1.3280 C   0  0  0  0  0  0  0  0  0  0  0  0
    2.1978    0.0448   -2.2247 H   0  0  0  0  0  0  0  0  0  0  0  0
    1.3223    1.4219   -1.5682 H   0  0  0  0  0  0  0  0  0  0  0  0
    2.7692    0.6061   -0.2462 C   0  0  0  0  0  0  0  0  0  0  0  0
    2.7070   -0.0020    0.8092 O   0  0  0  0  0  0  0  0  0  0  0  0
    3.7643    1.4727   -0.5411 O   0  0  0  0  0  0  0  0  0  0  0  0
    4.3644    1.4642    0.2199 H   0  0  0  0  0  0  0  0  0  0  0  0
   -0.4273    1.1487    0.7302 C   0  0  0  0  0  0  0  0  0  0  0  0
   -1.3296    1.8035    0.2198 O   0  0  0  0  0  0  0  0  0  0  0  0
    0.3699    1.7259    1.6995 N   0  0  0  0  0  0  0  0  0  0  0  0
    1.1406    1.1621    2.0564 H   0  0  0  0  0  0  0  0  0  0  0  0
    0.2543    3.1179    2.1142 C   0  0  0  0  0  0  0  0  0  0  0  0
   -0.7558    3.3256    2.4828 H   0  0  0  0  0  0  0  0  0  0  0  0
    0.9649    3.3334    2.9180 H   0  0  0  0  0  0  0  0  0  0  0  0
    0.4674    3.7864    1.2735 H   0  0  0  0  0  0  0  0  0  0  0  0
  1  2  1  0  0  0  0
  2  3  1  0  0  0  0
  2  4  1  0  0  0  0
  2  5  1  0  0  0  0
  5  6  2  0  0  0  0
  5  7  1  0  0  0  0
  7  8  1  0  0  0  0
  7  9  1  0  0  0  0
  9 10  1  0  0  0  0
  9 11  1  0  0  0  0
  9 21  1  0  0  0  0
 11 12  1  0  0  0  0
 11 13  1  0  0  0  0
 11 14  1  0  0  0  0
 14 15  1  0  0  0  0
 14 16  1  0  0  0  0
 14 17  1  0  0  0  0
 17 18  2  0  0  0  0
 17 19  1  0  0  0  0
 19 20  1  0  0  0  0
 21 22  2  0  0  0  0
 21 23  1  0  0  0  0
 23 24  1  0  0  0  0
 23 25  1  0  0  0  0
 25 26  1  0  0  0  0
 25 27  1  0  0  0  0
 25 28  1  0  0  0  0
M  END
$$$$

  -OEChem-02102214123D

 28 27  0     1  0  0  0  0  0999 V2000
   -3.0528   -3.8260    1.1734 H   0  0  0  0  0  0  0  0  0  0  0  0
   -3.0610   -2.8127    0.7622 C   0  0  0  0  0  0  0  0  0  0  0  0
   -3.6942   -2.1824    1.3911 H   0  0  0  0  0  0  0  0  0  0  0  0
   -3.4783   -2.8453   -0.2471 H   0  0  0  0  0  0  0  0  0  0  0  0
   -1.6516   -2.2536    0.7214 C   0  0  0  0  0  0  0  0  0  0  0  0
   -0.7142   -2.9264    1.1200 O   0  0  0  0  0  0  0  0  0  0  0  0
   -1.4319   -0.9851    0.2290 N   0  0  0  0  0  0  0  0  0  0  0  0
   -2.2522   -0.4151    0.0230 H   0  0  0  0  0  0  0  0  0  0  0  0
   -0.1459   -0.2777    0.3078 C   0  0  1  0  0  0  0  0  0  0  0  0
    0.5197   -0.7369    1.0465 H   0  0  0  0  0  0  0  0  0  0  0  0
    0.4962   -0.3391   -1.0953 C   0  0  0  0  0  0  0  0  0  0  0  0
    0.8319   -1.3665   -1.2742 H   0  0  0  0  0  0  0  0  0  0  0  0
   -0.2758   -0.1150   -1.8399 H   0  0  0  0  0  0  0  0  0  0  0  0
    1.6747    0.6261   -1.3457 C   0  0  0  0  0  0  0  0  0  0  0  0
    2.0269    0.4949   -2.3729 H   0  0  0  0  0  0  0  0  0  0  0  0
    1.3409    1.6636   -1.2513 H   0  0  0  0  0  0  0  0  0  0  0  0
    2.8504    0.3927   -0.3964 C   0  0  0  0  0  0  0  0  0  0  0  0
    2.7985    0.8286    0.7421 O   0  0  0  0  0  0  0  0  0  0  0  0
    3.8980   -0.3153   -0.8765 O   0  0  0  0  0  0  0  0  0  0  0  0
    4.5372   -0.3828   -0.1509 H   0  0  0  0  0  0  0  0  0  0  0  0
   -0.4517    1.1703    0.7642 C   0  0  0  0  0  0  0  0  0  0  0  0
   -1.4354    1.7491    0.3121 O   0  0  0  0  0  0  0  0  0  0  0  0
    0.2999    1.7915    1.7424 N   0  0  0  0  0  0  0  0  0  0  0  0
    1.2097    1.3717    1.9370 H   0  0  0  0  0  0  0  0  0  0  0  0
    0.0751    3.1701    2.1580 C   0  0  0  0  0  0  0  0  0  0  0  0
   -0.9468    3.2973    2.5302 H   0  0  0  0  0  0  0  0  0  0  0  0
    0.7687    3.4396    2.9602 H   0  0  0  0  0  0  0  0  0  0  0  0
    0.2322    3.8541    1.3176 H   0  0  0  0  0  0  0  0  0  0  0  0
  1  2  1  0  0  0  0
  2  3  1  0  0  0  0
  2  4  1  0  0  0  0
  2  5  1  0  0  0  0
  5  6  2  0  0  0  0
  5  7  1  0  0  0  0
  7  8  1  0  0  0  0
  7  9  1  0  0  0  0
  9 10  1  0  0  0  0
  9 11  1  0  0  0  0
  9 21  1  0  0  0  0
 11 12  1  0  0  0  0
 11 13  1  0  0  0  0
 11 14  1  0  0  0  0
 14 15  1  0  0  0  0
 14 16  1  0  0  0  0
 14 17  1  0  0  0  0
 17 18  2  0  0  0  0
 17 19  1  0  0  0  0
 19 20  1  0  0  0  0
 21 22  2  0  0  0  0
 21 23  1  0  0  0  0
 23 24  1  0  0  0  0
 23 25  1  0  0  0  0
 25 26  1  0  0  0  0
 25 27  1  0  0  0  0
 25 28  1  0  0  0  0
M  END
$$$$

  -OEChem-02102214123D

 28 27  0     1  0  0  0  0  0999 V2000
   -3.0408   -3.8437    1.1876 H   0  0  0  0  0  0  0  0  0  0  0  0
   -3.0638   -2.8411    0.7514 C   0  0  0  0  0  0  0  0  0  0  0  0
   -3.7071   -2.2053    1.3646 H   0  0  0  0  0  0  0  0  0  0  0  0
   -3.4802   -2.9049   -0.2568 H   0  0  0  0  0  0  0  0  0  0  0  0
   -1.6625   -2.2625    0.6970 C   0  0  0  0  0  0  0  0  0  0  0  0
   -0.7114   -2.9261    1.0777 O   0  0  0  0  0  0  0  0  0  0  0  0
   -1.4670   -0.9879    0.2090 N   0  0  0  0  0  0  0  0  0  0  0  0
   -2.2984   -0.4342    0.0055 H   0  0  0  0  0  0  0  0  0  0  0  0
   -0.1917   -0.2603    0.2684 C   0  0  1  0  0  0  0  0  0  0  0  0
    0.4652   -0.7169    1.0169 H   0  0  0  0  0  0  0  0  0  0  0  0
    0.4957   -0.3617   -1.1092 C   0  0  0  0  0  0  0  0  0  0  0  0
    0.8516   -1.3869   -1.2615 H   0  0  0  0  0  0  0  0  0  0  0  0
   -0.2578   -0.1606   -1.8783 H   0  0  0  0  0  0  0  0  0  0  0  0
    1.6539    0.6355   -1.3241 C   0  0  0  0  0  0  0  0  0  0  0  0
    1.9077    0.6478   -2.3879 H   0  0  0  0  0  0  0  0  0  0  0  0
    1.3725    1.6578   -1.0586 H   0  0  0  0  0  0  0  0  0  0  0  0
    2.9000    0.2170   -0.5524 C   0  0  0  0  0  0  0  0  0  0  0  0
    2.9397    0.4618    0.6437 O   0  0  0  0  0  0  0  0  0  0  0  0
    3.8871   -0.4194   -1.2232 O   0  0  0  0  0  0  0  0  0  0  0  0
    4.5734   -0.6206   -0.5688 H   0  0  0  0  0  0  0  0  0  0  0  0
   -0.4468    1.1894    0.7323 C   0  0  0  0  0  0  0  0  0  0  0  0
   -1.4217    1.8020    0.3102 O   0  0  0  0  0  0  0  0  0  0  0  0
    0.3645    1.7692    1.6888 N   0  0  0  0  0  0  0  0  0  0  0  0
    1.2384    1.2856    1.8971 H   0  0  0  0  0  0  0  0  0  0  0  0
    0.2038    3.1456    2.1388 C   0  0  0  0  0  0  0  0  0  0  0  0
   -0.7970    3.2981    2.5566 H   0  0  0  0  0  0  0  0  0  0  0  0
    0.9394    3.3772    2.9152 H   0  0  0  0  0  0  0  0  0  0  0  0
    0.3473    3.8407    1.3050 H   0  0  0  0  0  0  0  0  0  0  0  0
  1  2  1  0  0  0  0
  2  3  1  0  0  0  0
  2  4  1  0  0  0  0
  2  5  1  0  0  0  0
  5  6  2  0  0  0  0
  5  7  1  0  0  0  0
  7  8  1  0  0  0  0
  7  9  1  0  0  0  0
  9 10  1  0  0  0  0
  9 11  1  0  0  0  0
  9 21  1  0  0  0  0
 11 12  1  0  0  0  0
 11 13  1  0  0  0  0
 11 14  1  0  0  0  0
 14 15  1  0  0  0  0
 14 16  1  0  0  0  0
 14 17  1  0  0  0  0
 17 18  2  0  0  0  0
 17 19  1  0  0  0  0
 19 20  1  0  0  0  0
 21 22  2  0  0  0  0
 21 23  1  0  0  0  0
 23 24  1  0  0  0  0
 23 25  1  0  0  0  0
 25 26  1  0  0  0  0
 25 27  1  0  0  0  0
 25 28  1  0  0  0  0
M  END
$$$$

  -OEChem-02102214123D

 28 27  0     1  0  0  0  0  0999 V2000
   -3.0491   -3.8269    1.1514 H   0  0  0  0  0  0  0  0  0  0  0  0
   -3.0641   -2.8226    0.7188 C   0  0  0  0  0  0  0  0  0  0  0  0
   -3.7119   -2.1869    1.3272 H   0  0  0  0  0  0  0  0  0  0  0  0
   -3.4694   -2.8811   -0.2942 H   0  0  0  0  0  0  0  0  0  0  0  0
   -1.6610   -2.2475    0.6830 C   0  0  0  0  0  0  0  0  0  0  0  0
   -0.7172   -2.9101    1.0827 O   0  0  0  0  0  0  0  0  0  0  0  0
   -1.4573   -0.9736    0.1967 N   0  0  0  0  0  0  0  0  0  0  0  0
   -2.2850   -0.4215   -0.0249 H   0  0  0  0  0  0  0  0  0  0  0  0
   -0.1812   -0.2482    0.2683 C   0  0  1  0  0  0  0  0  0  0  0  0
    0.4701   -0.7037    1.0223 H   0  0  0  0  0  0  0  0  0  0  0  0
    0.5174   -0.3691   -1.1017 C   0  0  0  0  0  0  0  0  0  0  0  0
    0.8562   -1.4006   -1.2507 H   0  0  0  0  0  0  0  0  0  0  0  0
   -0.2331   -0.1626   -1.8726 H   0  0  0  0  0  0  0  0  0  0  0  0
    1.6832    0.6188   -1.3256 C   0  0  0  0  0  0  0  0  0  0  0  0
    1.7763    0.8017   -2.4001 H   0  0  0  0  0  0  0  0  0  0  0  0
    1.5196    1.5927   -0.8601 H   0  0  0  0  0  0  0  0  0  0  0  0
    2.9991    0.0208   -0.8498 C   0  0  0  0  0  0  0  0  0  0  0  0
    3.2435    0.0835    0.3442 O   0  0  0  0  0  0  0  0  0  0  0  0
    3.8154   -0.5623   -1.7571 O   0  0  0  0  0  0  0  0  0  0  0  0
    4.5773   -0.8943   -1.2581 H   0  0  0  0  0  0  0  0  0  0  0  0
   -0.4366    1.2015    0.7286 C   0  0  0  0  0  0  0  0  0  0  0  0
   -1.3962    1.8241    0.2874 O   0  0  0  0  0  0  0  0  0  0  0  0
    0.3683    1.7773    1.6937 N   0  0  0  0  0  0  0  0  0  0  0  0
    1.1850    1.2495    1.9959 H   0  0  0  0  0  0  0  0  0  0  0  0
    0.1846    3.1373    2.1839 C   0  0  0  0  0  0  0  0  0  0  0  0
   -0.8070    3.2514    2.6344 H   0  0  0  0  0  0  0  0  0  0  0  0
    0.9372    3.3699    2.9435 H   0  0  0  0  0  0  0  0  0  0  0  0
    0.2848    3.8573    1.3649 H   0  0  0  0  0  0  0  0  0  0  0  0
  1  2  1  0  0  0  0
  2  3  1  0  0  0  0
  2  4  1  0  0  0  0
  2  5  1  0  0  0  0
  5  6  2  0  0  0  0
  5  7  1  0  0  0  0
  7  8  1  0  0  0  0
  7  9  1  0  0  0  0
  9 10  1  0  0  0  0
  9 11  1  0  0  0  0
  9 21  1  0  0  0  0
 11 12  1  0  0  0  0
 11 13  1  0  0  0  0
 11 14  1  0  0  0  0
 14 15  1  0  0  0  0
 14 16  1  0  0  0  0
 14 17  1  0  0  0  0
 17 18  2  0  0  0  0
 17 19  1  0  0  0  0
 19 20  1  0  0  0  0
 21 22  2  0  0  0  0
 21 23  1  0  0  0  0
 23 24  1  0  0  0  0
 23 25  1  0  0  0  0
 25 26  1  0  0  0  0
 25 27  1  0  0  0  0
 25 28  1  0  0  0  0
M  END
$$$$

  -OEChem-02102214123D

 28 27  0     1  0  0  0  0  0999 V2000
   -3.0817   -3.8027    1.0962 H   0  0  0  0  0  0  0  0  0  0  0  0
   -3.0761   -2.7939    0.6739 C   0  0  0  0  0  0  0  0  0  0  0  0
   -3.7382   -2.1596    1.2683 H   0  0  0  0  0  0  0  0  0  0  0  0
   -3.4498   -2.8395   -0.3520 H   0  0  0  0  0  0  0  0  0  0  0  0
   -1.6684   -2.2289    0.6874 C   0  0  0  0  0  0  0  0  0  0  0  0
   -0.7460   -2.8929    1.1318 O   0  0  0  0  0  0  0  0  0  0  0  0
   -1.4361   -0.9605    0.1998 N   0  0  0  0  0  0  0  0  0  0  0  0
   -2.2493   -0.4037   -0.0604 H   0  0  0  0  0  0  0  0  0  0  0  0
   -0.1514   -0.2521    0.2917 C   0  0  1  0  0  0  0  0  0  0  0  0
    0.4932   -0.7135    1.0479 H   0  0  0  0  0  0  0  0  0  0  0  0
    0.5430   -0.3688   -1.0819 C   0  0  0  0  0  0  0  0  0  0  0  0
    0.8601   -1.4064   -1.2377 H   0  0  0  0  0  0  0  0  0  0  0  0
   -0.2063   -0.1472   -1.8499 H   0  0  0  0  0  0  0  0  0  0  0  0
    1.7284    0.5982   -1.3117 C   0  0  0  0  0  0  0  0  0  0  0  0
    1.6524    1.0106   -2.3222 H   0  0  0  0  0  0  0  0  0  0  0  0
    1.7282    1.4477   -0.6269 H   0  0  0  0  0  0  0  0  0  0  0  0
    3.0609   -0.1310   -1.2092 C   0  0  0  0  0  0  0  0  0  0  0  0
    3.5662   -0.2351   -0.1043 O   0  0  0  0  0  0  0  0  0  0  0  0
    3.6075   -0.6384   -2.3379 O   0  0  0  0  0  0  0  0  0  0  0  0
    4.4308   -1.0709   -2.0643 H   0  0  0  0  0  0  0  0  0  0  0  0
   -0.4165    1.2001    0.7420 C   0  0  0  0  0  0  0  0  0  0  0  0
   -1.3556    1.8272    0.2645 O   0  0  0  0  0  0  0  0  0  0  0  0
    0.3633    1.7835    1.7233 N   0  0  0  0  0  0  0  0  0  0  0  0
    1.1294    1.2336    2.1046 H   0  0  0  0  0  0  0  0  0  0  0  0
    0.1463    3.1361    2.2208 C   0  0  0  0  0  0  0  0  0  0  0  0
   -0.8447    3.2212    2.6790 H   0  0  0  0  0  0  0  0  0  0  0  0
    0.8986    3.3875    2.9747 H   0  0  0  0  0  0  0  0  0  0  0  0
    0.2200    3.8616    1.4040 H   0  0  0  0  0  0  0  0  0  0  0  0
  1  2  1  0  0  0  0
  2  3  1  0  0  0  0
  2  4  1  0  0  0  0
  2  5  1  0  0  0  0
  5  6  2  0  0  0  0
  5  7  1  0  0  0  0
  7  8  1  0  0  0  0
  7  9  1  0  0  0  0
  9 10  1  0  0  0  0
  9 11  1  0  0  0  0
  9 21  1  0  0  0  0
 11 12  1  0  0  0  0
 11 13  1  0  0  0  0
 11 14  1  0  0  0  0
 14 15  1  0  0  0  0
 14 16  1  0  0  0  0
 14 17  1  0  0  0  0
 17 18  2  0  0  0  0
 17 19  1  0  0  0  0
 19 20  1  0  0  0  0
 21 22  2  0  0  0  0
 21 23  1  0  0  0  0
 23 24  1  0  0  0  0
 23 25  1  0  0  0  0
 25 26  1  0  0  0  0
 25 27  1  0  0  0  0
 25 28  1  0  0  0  0
M  END
$$$$

  -OEChem-02102214123D

 28 27  0     1  0  0  0  0  0999 V2000
   -3.1076   -3.7917    1.0201 H   0  0  0  0  0  0  0  0  0  0  0  0
   -3.0888   -2.7755    0.6162 C   0  0  0  0  0  0  0  0  0  0  0  0
   -3.7641   -2.1499    1.2049 H   0  0  0  0  0  0  0  0  0  0  0  0
   -3.4360   -2.8017   -0.4195 H   0  0  0  0  0  0  0  0  0  0  0  0
   -1.6804   -2.2157    0.6749 C   0  0  0  0  0  0  0  0  0  0  0  0
   -0.7748   -2.8832    1.1479 O   0  0  0  0  0  0  0  0  0  0  0  0
   -1.4254   -0.9498    0.1922 N   0  0  0  0  0  0  0  0  0  0  0  0
   -2.2247   -0.3877   -0.0981 H   0  0  0  0  0  0  0  0  0  0  0  0
   -0.1333   -0.2584    0.3039 C   0  0  1  0  0  0  0  0  0  0  0  0
    0.5026   -0.7309    1.0604 H   0  0  0  0  0  0  0  0  0  0  0  0
    0.5592   -0.3640   -1.0709 C   0  0  0  0  0  0  0  0  0  0  0  0
    0.8704   -1.4043   -1.2199 H   0  0  0  0  0  0  0  0  0  0  0  0
   -0.1795   -0.1397   -1.8483 H   0  0  0  0  0  0  0  0  0  0  0  0
    1.7580    0.5917   -1.2809 C   0  0  0  0  0  0  0  0  0  0  0  0
    1.5534    1.2469   -2.1327 H   0  0  0  0  0  0  0  0  0  0  0  0
    1.9294    1.2333   -0.4145 H   0  0  0  0  0  0  0  0  0  0  0  0
    3.0412   -0.1810   -1.5609 C   0  0  0  0  0  0  0  0  0  0  0  0
    3.8413   -0.3165   -0.6511 O   0  0  0  0  0  0  0  0  0  0  0  0
    3.2225   -0.6869   -2.8026 O   0  0  0  0  0  0  0  0  0  0  0  0
    4.0765   -1.1448   -2.7806 H   0  0  0  0  0  0  0  0  0  0  0  0
   -0.3921    1.1968    0.7527 C   0  0  0  0  0  0  0  0  0  0  0  0
   -1.3122    1.8349    0.2531 O   0  0  0  0  0  0  0  0  0  0  0  0
    0.3745    1.7765    1.7471 N   0  0  0  0  0  0  0  0  0  0  0  0
    1.1055    1.2100    2.1695 H   0  0  0  0  0  0  0  0  0  0  0  0
    0.1546    3.1305    2.2411 C   0  0  0  0  0  0  0  0  0  0  0  0
   -0.8260    3.2077    2.7224 H   0  0  0  0  0  0  0  0  0  0  0  0
    0.9228    3.3955    2.9741 H   0  0  0  0  0  0  0  0  0  0  0  0
    0.2012    3.8516    1.4181 H   0  0  0  0  0  0  0  0  0  0  0  0
  1  2  1  0  0  0  0
  2  3  1  0  0  0  0
  2  4  1  0  0  0  0
  2  5  1  0  0  0  0
  5  6  2  0  0  0  0
  5  7  1  0  0  0  0
  7  8  1  0  0  0  0
  7  9  1  0  0  0  0
  9 10  1  0  0  0  0
  9 11  1  0  0  0  0
  9 21  1  0  0  0  0
 11 12  1  0  0  0  0
 11 13  1  0  0  0  0
 11 14  1  0  0  0  0
 14 15  1  0  0  0  0
 14 16  1  0  0  0  0
 14 17  1  0  0  0  0
 17 18  2  0  0  0  0
 17 19  1  0  0  0  0
 19 20  1  0  0  0  0
 21 22  2  0  0  0  0
 21 23  1  0  0  0  0
 23 24  1  0  0  0  0
 23 25  1  0  0  0  0
 25 26  1  0  0  0  0
 25 27  1  0  0  0  0
 25 28  1  0  0  0  0
M  END
$$$$

  -OEChem-02102214123D

 28 27  0     1  0  0  0  0  0999 V2000
   -3.0437   -3.8015    1.3062 H   0  0  0  0  0  0  0  0  0  0  0  0
   -3.0583   -2.8070    0.8514 C   0  0  0  0  0  0  0  0  0  0  0  0
   -3.6994   -2.1551    1.4498 H   0  0  0  0  0  0  0  0  0  0  0  0
   -3.4711   -2.8871   -0.1571 H   0  0  0  0  0  0  0  0  0  0  0  0
   -1.6533   -2.2384    0.7911 C   0  0  0  0  0  0  0  0  0  0  0  0
   -0.7123   -2.8801    1.2304 O   0  0  0  0  0  0  0  0  0  0  0  0
   -1.4431   -0.9874    0.2512 N   0  0  0  0  0  0  0  0  0  0  0  0
   -2.2646   -0.4432   -0.0101 H   0  0  0  0  0  0  0  0  0  0  0  0
   -0.1526   -0.2850    0.2492 C   0  0  1  0  0  0  0  0  0  0  0  0
    0.5415   -0.7311    0.9696 H   0  0  0  0  0  0  0  0  0  0  0  0
    0.4380   -0.4112   -1.1695 C   0  0  0  0  0  0  0  0  0  0  0  0
    0.7680   -1.4483   -1.3006 H   0  0  0  0  0  0  0  0  0  0  0  0
   -0.3474   -0.2285   -1.9112 H   0  0  0  0  0  0  0  0  0  0  0  0
    1.6059    0.5584   -1.4610 C   0  0  0  0  0  0  0  0  0  0  0  0
    1.2547    1.3936   -2.0742 H   0  0  0  0  0  0  0  0  0  0  0  0
    2.0014    0.9764   -0.5324 H   0  0  0  0  0  0  0  0  0  0  0  0
    2.7645   -0.1403   -2.1647 C   0  0  0  0  0  0  0  0  0  0  0  0
    2.5785   -0.6001   -3.2781 O   0  0  0  0  0  0  0  0  0  0  0  0
    3.9428   -0.2283   -1.5051 O   0  0  0  0  0  0  0  0  0  0  0  0
    4.5411   -0.7082   -2.0983 H   0  0  0  0  0  0  0  0  0  0  0  0
   -0.3892    1.1830    0.6683 C   0  0  0  0  0  0  0  0  0  0  0  0
   -1.3472    1.8001    0.2163 O   0  0  0  0  0  0  0  0  0  0  0  0
    0.4411    1.7993    1.5866 N   0  0  0  0  0  0  0  0  0  0  0  0
    1.1836    1.2412    1.9990 H   0  0  0  0  0  0  0  0  0  0  0  0
    0.2312    3.1600    2.0662 C   0  0  0  0  0  0  0  0  0  0  0  0
   -0.7113    3.2293    2.6196 H   0  0  0  0  0  0  0  0  0  0  0  0
    1.0472    3.4573    2.7319 H   0  0  0  0  0  0  0  0  0  0  0  0
    0.1993    3.8627    1.2266 H   0  0  0  0  0  0  0  0  0  0  0  0
  1  2  1  0  0  0  0
  2  3  1  0  0  0  0
  2  4  1  0  0  0  0
  2  5  1  0  0  0  0
  5  6  2  0  0  0  0
  5  7  1  0  0  0  0
  7  8  1  0  0  0  0
  7  9  1  0  0  0  0
  9 10  1  0  0  0  0
  9 11  1  0  0  0  0
  9 21  1  0  0  0  0
 11 12  1  0  0  0  0
 11 13  1  0  0  0  0
 11 14  1  0  0  0  0
 14 15  1  0  0  0  0
 14 16  1  0  0  0  0
 14 17  1  0  0  0  0
 17 18  2  0  0  0  0
 17 19  1  0  0  0  0
 19 20  1  0  0  0  0
 21 22  2  0  0  0  0
 21 23  1  0  0  0  0
 23 24  1  0  0  0  0
 23 25  1  0  0  0  0
 25 26  1  0  0  0  0
 25 27  1  0  0  0  0
 25 28  1  0  0  0  0
M  END
$$$$

  -OEChem-02102214123D

 28 27  0     1  0  0  0  0  0999 V2000
   -3.1146   -3.7981    1.2788 H   0  0  0  0  0  0  0  0  0  0  0  0
   -3.1116   -2.8074    0.8157 C   0  0  0  0  0  0  0  0  0  0  0  0
   -3.7727   -2.1500    1.3854 H   0  0  0  0  0  0  0  0  0  0  0  0
   -3.4884   -2.8952   -0.2062 H   0  0  0  0  0  0  0  0  0  0  0  0
   -1.7048   -2.2407    0.8010 C   0  0  0  0  0  0  0  0  0  0  0  0
   -0.7798   -2.8822    1.2735 O   0  0  0  0  0  0  0  0  0  0  0  0
   -1.4748   -0.9933    0.2610 N   0  0  0  0  0  0  0  0  0  0  0  0
   -2.2849   -0.4507   -0.0357 H   0  0  0  0  0  0  0  0  0  0  0  0
   -0.1762   -0.3065    0.2668 C   0  0  1  0  0  0  0  0  0  0  0  0
    0.5073   -0.7629    0.9905 H   0  0  0  0  0  0  0  0  0  0  0  0
    0.4204   -0.4387   -1.1476 C   0  0  0  0  0  0  0  0  0  0  0  0
    0.7507   -1.4767   -1.2682 H   0  0  0  0  0  0  0  0  0  0  0  0
   -0.3543   -0.2533   -1.9000 H   0  0  0  0  0  0  0  0  0  0  0  0
    1.5990    0.5236   -1.4155 C   0  0  0  0  0  0  0  0  0  0  0  0
    1.2241    1.4858   -1.7764 H   0  0  0  0  0  0  0  0  0  0  0  0
    2.1404    0.7046   -0.4830 H   0  0  0  0  0  0  0  0  0  0  0  0
    2.6131   -0.0311   -2.4147 C   0  0  0  0  0  0  0  0  0  0  0  0
    2.2200   -0.6974   -3.3575 O   0  0  0  0  0  0  0  0  0  0  0  0
    3.9168    0.2581   -2.1987 O   0  0  0  0  0  0  0  0  0  0  0  0
    4.4034   -0.1634   -2.9238 H   0  0  0  0  0  0  0  0  0  0  0  0
   -0.3838    1.1671    0.6804 C   0  0  0  0  0  0  0  0  0  0  0  0
   -1.3175    1.8075    0.2106 O   0  0  0  0  0  0  0  0  0  0  0  0
    0.4552    1.7686    1.6006 N   0  0  0  0  0  0  0  0  0  0  0  0
    1.1801    1.1953    2.0228 H   0  0  0  0  0  0  0  0  0  0  0  0
    0.2840    3.1419    2.0596 C   0  0  0  0  0  0  0  0  0  0  0  0
   -0.6803    3.2594    2.5651 H   0  0  0  0  0  0  0  0  0  0  0  0
    1.0788    3.4081    2.7632 H   0  0  0  0  0  0  0  0  0  0  0  0
    0.3254    3.8370    1.2143 H   0  0  0  0  0  0  0  0  0  0  0  0
  1  2  1  0  0  0  0
  2  3  1  0  0  0  0
  2  4  1  0  0  0  0
  2  5  1  0  0  0  0
  5  6  2  0  0  0  0
  5  7  1  0  0  0  0
  7  8  1  0  0  0  0
  7  9  1  0  0  0  0
  9 10  1  0  0  0  0
  9 11  1  0  0  0  0
  9 21  1  0  0  0  0
 11 12  1  0  0  0  0
 11 13  1  0  0  0  0
 11 14  1  0  0  0  0
 14 15  1  0  0  0  0
 14 16  1  0  0  0  0
 14 17  1  0  0  0  0
 17 18  2  0  0  0  0
 17 19  1  0  0  0  0
 19 20  1  0  0  0  0
 21 22  2  0  0  0  0
 21 23  1  0  0  0  0
 23 24  1  0  0  0  0
 23 25  1  0  0  0  0
 25 26  1  0  0  0  0
 25 27  1  0  0  0  0
 25 28  1  0  0  0  0
M  END
$$$$

  -OEChem-02102214123D

 28 27  0     1  0  0  0  0  0999 V2000
   -3.1393   -3.7880    1.2761 H   0  0  0  0  0  0  0  0  0  0  0  0
   -3.1337   -2.7981    0.8111 C   0  0  0  0  0  0  0  0  0  0  0  0
   -3.7899   -2.1370    1.3821 H   0  0  0  0  0  0  0  0  0  0  0  0
   -3.5145   -2.8865   -0.2092 H   0  0  0  0  0  0  0  0  0  0  0  0
   -1.7241   -2.2380    0.7909 C   0  0  0  0  0  0  0  0  0  0  0  0
   -0.8003   -2.8867    1.2558 O   0  0  0  0  0  0  0  0  0  0  0  0
   -1.4892   -0.9900    0.2541 N   0  0  0  0  0  0  0  0  0  0  0  0
   -2.2976   -0.4413   -0.0355 H   0  0  0  0  0  0  0  0  0  0  0  0
   -0.1877   -0.3085    0.2634 C   0  0  1  0  0  0  0  0  0  0  0  0
    0.4880   -0.7681    0.9921 H   0  0  0  0  0  0  0  0  0  0  0  0
    0.4225   -0.4520   -1.1441 C   0  0  0  0  0  0  0  0  0  0  0  0
    0.7531   -1.4898   -1.2654 H   0  0  0  0  0  0  0  0  0  0  0  0
   -0.3478   -0.2611   -1.9001 H   0  0  0  0  0  0  0  0  0  0  0  0
    1.6054    0.5060   -1.4023 C   0  0  0  0  0  0  0  0  0  0  0  0
    1.2390    1.5285   -1.5320 H   0  0  0  0  0  0  0  0  0  0  0  0
    2.2737    0.4937   -0.5368 H   0  0  0  0  0  0  0  0  0  0  0  0
    2.4363    0.1330   -2.6302 C   0  0  0  0  0  0  0  0  0  0  0  0
    1.9490   -0.5622   -3.5061 O   0  0  0  0  0  0  0  0  0  0  0  0
    3.7005    0.6113   -2.6776 O   0  0  0  0  0  0  0  0  0  0  0  0
    4.0728    0.2867   -3.5118 H   0  0  0  0  0  0  0  0  0  0  0  0
   -0.3842    1.1653    0.6798 C   0  0  0  0  0  0  0  0  0  0  0  0
   -1.3165    1.8124    0.2165 O   0  0  0  0  0  0  0  0  0  0  0  0
    0.4599    1.7567    1.6016 N   0  0  0  0  0  0  0  0  0  0  0  0
    1.1826    1.1769    2.0187 H   0  0  0  0  0  0  0  0  0  0  0  0
    0.2940    3.1266    2.0724 C   0  0  0  0  0  0  0  0  0  0  0  0
   -0.6712    3.2439    2.5763 H   0  0  0  0  0  0  0  0  0  0  0  0
    1.0879    3.3827    2.7807 H   0  0  0  0  0  0  0  0  0  0  0  0
    0.3409    3.8289    1.2334 H   0  0  0  0  0  0  0  0  0  0  0  0
  1  2  1  0  0  0  0
  2  3  1  0  0  0  0
  2  4  1  0  0  0  0
  2  5  1  0  0  0  0
  5  6  2  0  0  0  0
  5  7  1  0  0  0  0
  7  8  1  0  0  0  0
  7  9  1  0  0  0  0
  9 10  1  0  0  0  0
  9 11  1  0  0  0  0
  9 21  1  0  0  0  0
 11 12  1  0  0  0  0
 11 13  1  0  0  0  0
 11 14  1  0  0  0  0
 14 15  1  0  0  0  0
 14 16  1  0  0  0  0
 14 17  1  0  0  0  0
 17 18  2  0  0  0  0
 17 19  1  0  0  0  0
 19 20  1  0  0  0  0
 21 22  2  0  0  0  0
 21 23  1  0  0  0  0
 23 24  1  0  0  0  0
 23 25  1  0  0  0  0
 25 26  1  0  0  0  0
 25 27  1  0  0  0  0
 25 28  1  0  0  0  0
M  END
$$$$
