
  -OEChem-02102214123D

 28 27  0     1  0  0  0  0  0999 V2000
   -2.6335   -4.1458    0.2867 H   0  0  0  0  0  0  0  0  0  0  0  0
   -2.6170   -3.1525   -0.1710 C   0  0  0  0  0  0  0  0  0  0  0  0
   -3.4123   -2.5485    0.2721 H   0  0  0  0  0  0  0  0  0  0  0  0
   -2.8011   -3.2580   -1.2429 H   0  0  0  0  0  0  0  0  0  0  0  0
   -1.2708   -2.4930    0.0632 C   0  0  0  0  0  0  0  0  0  0  0  0
   -0.4287   -3.0584    0.7360 O   0  0  0  0  0  0  0  0  0  0  0  0
   -1.0111   -1.2513   -0.4840 N   0  0  0  0  0  0  0  0  0  0  0  0
   -1.7193   -0.8750   -1.1077 H   0  0  0  0  0  0  0  0  0  0  0  0
    0.3009   -0.5768   -0.4313 C   0  0  1  0  0  0  0  0  0  0  0  0
    1.0474   -1.2194   -0.9115 H   0  0  0  0  0  0  0  0  0  0  0  0
    0.1635    0.7213   -1.2505 C   0  0  0  0  0  0  0  0  0  0  0  0
   -0.1330    0.4640   -2.2732 H   0  0  0  0  0  0  0  0  0  0  0  0
   -0.6344    1.3337   -0.8160 H   0  0  0  0  0  0  0  0  0  0  0  0
    1.4601    1.5599   -1.3032 C   0  0  0  0  0  0  0  0  0  0  0  0
    1.7663    1.8445   -0.2927 H   0  0  0  0  0  0  0  0  0  0  0  0
    2.2647    0.9579   -1.7351 H   0  0  0  0  0  0  0  0  0  0  0  0
    1.3271    2.8485   -2.1167 C   0  0  0  0  0  0  0  0  0  0  0  0
    0.2569    3.1354   -2.6304 O   0  0  0  0  0  0  0  0  0  0  0  0
    2.4335    3.6187   -2.2246 O   0  0  0  0  0  0  0  0  0  0  0  0
    2.1771    4.3841   -2.7606 H   0  0  0  0  0  0  0  0  0  0  0  0
    0.8073   -0.3071    1.0066 C   0  0  0  0  0  0  0  0  0  0  0  0
    2.0050   -0.3606    1.2540 O   0  0  0  0  0  0  0  0  0  0  0  0
   -0.0537    0.2062    1.9597 N   0  0  0  0  0  0  0  0  0  0  0  0
   -1.0438    0.1322    1.7515 H   0  0  0  0  0  0  0  0  0  0  0  0
    0.3576    0.4595    3.3350 C   0  0  0  0  0  0  0  0  0  0  0  0
    1.1838    1.1780    3.3631 H   0  0  0  0  0  0  0  0  0  0  0  0
   -0.4764    0.8727    3.9102 H   0  0  0  0  0  0  0  0  0  0  0  0
    0.6838   -0.4702    3.8132 H   0  0  0  0  0  0  0  0  0  0  0  0
  1  2  1  0  0  0  0
  2  3  1  0  0  0  0
  2  4  1  0  0  0  0
  2  5  1  0  0  0  0
  5  6  2  0  0  0  0
  5  7  1  0  0  0  0
  7  8  1  0  0  0  0
  7  9  1  0  0  0  0
  9 10  1  0  0  0  0
  9 11  1  0  0  0  0
  9 21  1  0  0  0  0
 11 12  1  0  0  0  0
 11 13  1  0  0  0  0
 11 14  1  0  0  0  0
 14 15  1  0  0  0  0
 14 16  1  0  0  0  0
 14 17  1  0  0  0  0
 17 18  2  0  0  0  0
 17 19  1  0  0  0  0
 19 20  1  0  0  0  0
 21 22  2  0  0  0  0
 21 23  1  0  0  0  0
 23 24  1  0  0  0  0
 23 25  1  0  0  0  0
 25 26  1  0  0  0  0
 25 27  1  0  0  0  0
 25 28  1  0  0  0  0
M  END
$$$$

  -OEChem-02102214123D

 28 27  0     1  0  0  0  0  0999 V2000
   -2.6574   -4.1185    0.2963 H   0  0  0  0  0  0  0  0  0  0  0  0
   -2.6281   -3.1248   -0.1597 C   0  0  0  0  0  0  0  0  0  0  0  0
   -3.4124   -2.5094    0.2873 H   0  0  0  0  0  0  0  0  0  0  0  0
   -2.8174   -3.2256   -1.2311 H   0  0  0  0  0  0  0  0  0  0  0  0
   -1.2721   -2.4849    0.0706 C   0  0  0  0  0  0  0  0  0  0  0  0
   -0.4348   -3.0621    0.7390 O   0  0  0  0  0  0  0  0  0  0  0  0
   -0.9984   -1.2474   -0.4788 N   0  0  0  0  0  0  0  0  0  0  0  0
   -1.7052   -0.8610   -1.0975 H   0  0  0  0  0  0  0  0  0  0  0  0
    0.3195   -0.5843   -0.4256 C   0  0  1  0  0  0  0  0  0  0  0  0
    1.0639   -1.2327   -0.9017 H   0  0  0  0  0  0  0  0  0  0  0  0
    0.1851    0.7090   -1.2551 C   0  0  0  0  0  0  0  0  0  0  0  0
   -0.1292    0.4598   -2.2743 H   0  0  0  0  0  0  0  0  0  0  0  0
   -0.6074    1.3148   -0.8015 H   0  0  0  0  0  0  0  0  0  0  0  0
    1.4754    1.5592   -1.3282 C   0  0  0  0  0  0  0  0  0  0  0  0
    1.9276    1.6519   -0.3378 H   0  0  0  0  0  0  0  0  0  0  0  0
    2.2036    1.0629   -1.9754 H   0  0  0  0  0  0  0  0  0  0  0  0
    1.2476    2.9853   -1.8335 C   0  0  0  0  0  0  0  0  0  0  0  0
    0.1578    3.3043   -2.2827 O   0  0  0  0  0  0  0  0  0  0  0  0
    2.2996    3.8323   -1.7657 O   0  0  0  0  0  0  0  0  0  0  0  0
    1.9884    4.6768   -2.1246 H   0  0  0  0  0  0  0  0  0  0  0  0
    0.8171   -0.3192    1.0167 C   0  0  0  0  0  0  0  0  0  0  0  0
    2.0092   -0.4054    1.2806 O   0  0  0  0  0  0  0  0  0  0  0  0
   -0.0456    0.2017    1.9640 N   0  0  0  0  0  0  0  0  0  0  0  0
   -1.0340    0.1527    1.7418 H   0  0  0  0  0  0  0  0  0  0  0  0
    0.3527    0.4341    3.3468 C   0  0  0  0  0  0  0  0  0  0  0  0
    1.1861    1.1433    3.3923 H   0  0  0  0  0  0  0  0  0  0  0  0
   -0.4835    0.8489    3.9177 H   0  0  0  0  0  0  0  0  0  0  0  0
    0.6638   -0.5049    3.8172 H   0  0  0  0  0  0  0  0  0  0  0  0
  1  2  1  0  0  0  0
  2  3  1  0  0  0  0
  2  4  1  0  0  0  0
  2  5  1  0  0  0  0
  5  6  2  0  0  0  0
  5  7  1  0  0  0  0
  7  8  1  0  0  0  0
  7  9  1  0  0  0  0
  9 10  1  0  0  0  0
  9 11  1  0  0  0  0
  9 21  1  0  0  0  0
 11 12  1  0  0  0  0
 11 13  1  0  0  0  0
 11 14  1  0  0  0  0
 14 15  1  0  0  0  0
 14 16  1  0  0  0  0
 14 17  1  0  0  0  0
 17 18  2  0  0  0  0
 17 19  1  0  0  0  0
 19 20  1  0  0  0  0
 21 22  2  0  0  0  0
 21 23  1  0  0  0  0
 23 24  1  0  0  0  0
 23 25  1  0  0  0  0
 25 26  1  0  0  0  0
 25 27  1  0  0  0  0
 25 28  1  0  0  0  0
M  END
$$$$

  -OEChem-02102214123D

 28 27  0     1  0  0  0  0  0999 V2000
   -2.6815   -4.0912    0.3558 H   0  0  0  0  0  0  0  0  0  0  0  0
   -2.6357   -3.1176   -0.1407 C   0  0  0  0  0  0  0  0  0  0  0  0
   -3.4183   -2.4761    0.2711 H   0  0  0  0  0  0  0  0  0  0  0  0
   -2.8136   -3.2603   -1.2092 H   0  0  0  0  0  0  0  0  0  0  0  0
   -1.2747   -2.4844    0.0786 C   0  0  0  0  0  0  0  0  0  0  0  0
   -0.4355   -3.0679    0.7392 O   0  0  0  0  0  0  0  0  0  0  0  0
   -0.9953   -1.2512   -0.4784 N   0  0  0  0  0  0  0  0  0  0  0  0
   -1.7058   -0.8588   -1.0892 H   0  0  0  0  0  0  0  0  0  0  0  0
    0.3282   -0.5975   -0.4350 C   0  0  1  0  0  0  0  0  0  0  0  0
    1.0678   -1.2481   -0.9156 H   0  0  0  0  0  0  0  0  0  0  0  0
    0.1905    0.7000   -1.2599 C   0  0  0  0  0  0  0  0  0  0  0  0
   -0.1462    0.4625   -2.2745 H   0  0  0  0  0  0  0  0  0  0  0  0
   -0.5956    1.2977   -0.7848 H   0  0  0  0  0  0  0  0  0  0  0  0
    1.4795    1.5559   -1.3535 C   0  0  0  0  0  0  0  0  0  0  0  0
    2.0893    1.4354   -0.4561 H   0  0  0  0  0  0  0  0  0  0  0  0
    2.0837    1.2138   -2.1979 H   0  0  0  0  0  0  0  0  0  0  0  0
    1.2219    3.0571   -1.4984 C   0  0  0  0  0  0  0  0  0  0  0  0
    0.1427    3.4468   -1.9162 O   0  0  0  0  0  0  0  0  0  0  0  0
    2.2348    3.8894   -1.1652 O   0  0  0  0  0  0  0  0  0  0  0  0
    1.9068    4.7879   -1.3193 H   0  0  0  0  0  0  0  0  0  0  0  0
    0.8265   -0.3333    1.0080 C   0  0  0  0  0  0  0  0  0  0  0  0
    2.0147   -0.4436    1.2804 O   0  0  0  0  0  0  0  0  0  0  0  0
   -0.0346    0.1963    1.9519 N   0  0  0  0  0  0  0  0  0  0  0  0
   -1.0225    0.1656    1.7245 H   0  0  0  0  0  0  0  0  0  0  0  0
    0.3629    0.4429    3.3322 C   0  0  0  0  0  0  0  0  0  0  0  0
    1.2077    1.1390    3.3695 H   0  0  0  0  0  0  0  0  0  0  0  0
   -0.4680    0.8809    3.8931 H   0  0  0  0  0  0  0  0  0  0  0  0
    0.6568   -0.4934    3.8184 H   0  0  0  0  0  0  0  0  0  0  0  0
  1  2  1  0  0  0  0
  2  3  1  0  0  0  0
  2  4  1  0  0  0  0
  2  5  1  0  0  0  0
  5  6  2  0  0  0  0
  5  7  1  0  0  0  0
  7  8  1  0  0  0  0
  7  9  1  0  0  0  0
  9 10  1  0  0  0  0
  9 11  1  0  0  0  0
  9 21  1  0  0  0  0
 11 12  1  0  0  0  0
 11 13  1  0  0  0  0
 11 14  1  0  0  0  0
 14 15  1  0  0  0  0
 14 16  1  0  0  0  0
 14 17  1  0  0  0  0
 17 18  2  0  0  0  0
 17 19  1  0  0  0  0
 19 20  1  0  0  0  0
 21 22  2  0  0  0  0
 21 23  1  0  0  0  0
 23 24  1  0  0  0  0
 23 25  1  0  0  0  0
 25 26  1  0  0  0  0
 25 27  1  0  0  0  0
 25 28  1  0  0  0  0
M  END
$$$$

  -OEChem-02102214123D

 28 27  0     1  0  0  0  0  0999 V2000
   -2.6896   -4.0767    0.4019 H   0  0  0  0  0  0  0  0  0  0  0  0
   -2.6330   -3.1212   -0.1277 C   0  0  0  0  0  0  0  0  0  0  0  0
   -3.4154   -2.4612    0.2540 H   0  0  0  0  0  0  0  0  0  0  0  0
   -2.8016   -3.2996   -1.1925 H   0  0  0  0  0  0  0  0  0  0  0  0
   -1.2701   -2.4891    0.0822 C   0  0  0  0  0  0  0  0  0  0  0  0
   -0.4264   -3.0722    0.7373 O   0  0  0  0  0  0  0  0  0  0  0  0
   -0.9938   -1.2578   -0.4804 N   0  0  0  0  0  0  0  0  0  0  0  0
   -1.7100   -0.8646   -1.0837 H   0  0  0  0  0  0  0  0  0  0  0  0
    0.3284   -0.6013   -0.4444 C   0  0  1  0  0  0  0  0  0  0  0  0
    1.0680   -1.2489   -0.9286 H   0  0  0  0  0  0  0  0  0  0  0  0
    0.1802    0.6982   -1.2637 C   0  0  0  0  0  0  0  0  0  0  0  0
   -0.1553    0.4573   -2.2778 H   0  0  0  0  0  0  0  0  0  0  0  0
   -0.6142    1.2864   -0.7912 H   0  0  0  0  0  0  0  0  0  0  0  0
    1.4681    1.5583   -1.3641 C   0  0  0  0  0  0  0  0  0  0  0  0
    2.2142    1.2294   -0.6377 H   0  0  0  0  0  0  0  0  0  0  0  0
    1.9154    1.4208   -2.3521 H   0  0  0  0  0  0  0  0  0  0  0  0
    1.2448    3.0548   -1.1373 C   0  0  0  0  0  0  0  0  0  0  0  0
    0.1807    3.5580   -1.4617 O   0  0  0  0  0  0  0  0  0  0  0  0
    2.2673    3.7587   -0.6009 O   0  0  0  0  0  0  0  0  0  0  0  0
    1.9586    4.6745   -0.5348 H   0  0  0  0  0  0  0  0  0  0  0  0
    0.8318   -0.3298    0.9962 C   0  0  0  0  0  0  0  0  0  0  0  0
    2.0196   -0.4443    1.2679 O   0  0  0  0  0  0  0  0  0  0  0  0
   -0.0260    0.2023    1.9419 N   0  0  0  0  0  0  0  0  0  0  0  0
   -1.0146    0.1780    1.7164 H   0  0  0  0  0  0  0  0  0  0  0  0
    0.3771    0.4593    3.3189 C   0  0  0  0  0  0  0  0  0  0  0  0
    1.2206    1.1573    3.3477 H   0  0  0  0  0  0  0  0  0  0  0  0
   -0.4521    0.8995    3.8807 H   0  0  0  0  0  0  0  0  0  0  0  0
    0.6749   -0.4732    3.8100 H   0  0  0  0  0  0  0  0  0  0  0  0
  1  2  1  0  0  0  0
  2  3  1  0  0  0  0
  2  4  1  0  0  0  0
  2  5  1  0  0  0  0
  5  6  2  0  0  0  0
  5  7  1  0  0  0  0
  7  8  1  0  0  0  0
  7  9  1  0  0  0  0
  9 10  1  0  0  0  0
  9 11  1  0  0  0  0
  9 21  1  0  0  0  0
 11 12  1  0  0  0  0
 11 13  1  0  0  0  0
 11 14  1  0  0  0  0
 14 15  1  0  0  0  0
 14 16  1  0  0  0  0
 14 17  1  0  0  0  0
 17 18  2  0  0  0  0
 17 19  1  0  0  0  0
 19 20  1  0  0  0  0
 21 22  2  0  0  0  0
 21 23  1  0  0  0  0
 23 24  1  0  0  0  0
 23 25  1  0  0  0  0
 25 26  1  0  0  0  0
 25 27  1  0  0  0  0
 25 28  1  0  0  0  0
M  END
$$$$

  -OEChem-02102214123D

 28 27  0     1  0  0  0  0  0999 V2000
   -2.7283   -4.0945    0.3099 H   0  0  0  0  0  0  0  0  0  0  0  0
   -2.6599   -3.1268   -0.1954 C   0  0  0  0  0  0  0  0  0  0  0  0
   -3.4192   -2.4601    0.2202 H   0  0  0  0  0  0  0  0  0  0  0  0
   -2.8538   -3.2727   -1.2607 H   0  0  0  0  0  0  0  0  0  0  0  0
   -1.2787   -2.5315    0.0032 C   0  0  0  0  0  0  0  0  0  0  0  0
   -0.4288   -3.1612    0.6053 O   0  0  0  0  0  0  0  0  0  0  0  0
   -0.9896   -1.2849   -0.5171 N   0  0  0  0  0  0  0  0  0  0  0  0
   -1.7166   -0.8388   -1.0675 H   0  0  0  0  0  0  0  0  0  0  0  0
    0.3300   -0.6308   -0.4242 C   0  0  1  0  0  0  0  0  0  0  0  0
    1.0813   -1.2667   -0.9065 H   0  0  0  0  0  0  0  0  0  0  0  0
    0.2128    0.6948   -1.2030 C   0  0  0  0  0  0  0  0  0  0  0  0
   -0.0511    0.4614   -2.2401 H   0  0  0  0  0  0  0  0  0  0  0  0
   -0.6170    1.2781   -0.7915 H   0  0  0  0  0  0  0  0  0  0  0  0
    1.5197    1.5312   -1.2184 C   0  0  0  0  0  0  0  0  0  0  0  0
    2.3374    1.0030   -0.7215 H   0  0  0  0  0  0  0  0  0  0  0  0
    1.8264    1.6623   -2.2601 H   0  0  0  0  0  0  0  0  0  0  0  0
    1.4002    2.9254   -0.5969 C   0  0  0  0  0  0  0  0  0  0  0  0
    0.5856    3.1306    0.2892 O   0  0  0  0  0  0  0  0  0  0  0  0
    2.2249    3.8814   -1.0830 O   0  0  0  0  0  0  0  0  0  0  0  0
    2.0387    4.6804   -0.5671 H   0  0  0  0  0  0  0  0  0  0  0  0
    0.8013   -0.3953    1.0337 C   0  0  0  0  0  0  0  0  0  0  0  0
    1.9842   -0.5174    1.3252 O   0  0  0  0  0  0  0  0  0  0  0  0
   -0.0735    0.1135    1.9760 N   0  0  0  0  0  0  0  0  0  0  0  0
   -1.0313    0.2688    1.6828 H   0  0  0  0  0  0  0  0  0  0  0  0
    0.3343    0.5049    3.3185 C   0  0  0  0  0  0  0  0  0  0  0  0
    1.0778    1.3077    3.2726 H   0  0  0  0  0  0  0  0  0  0  0  0
   -0.5285    0.8641    3.8872 H   0  0  0  0  0  0  0  0  0  0  0  0
    0.7682   -0.3486    3.8501 H   0  0  0  0  0  0  0  0  0  0  0  0
  1  2  1  0  0  0  0
  2  3  1  0  0  0  0
  2  4  1  0  0  0  0
  2  5  1  0  0  0  0
  5  6  2  0  0  0  0
  5  7  1  0  0  0  0
  7  8  1  0  0  0  0
  7  9  1  0  0  0  0
  9 10  1  0  0  0  0
  9 11  1  0  0  0  0
  9 21  1  0  0  0  0
 11 12  1  0  0  0  0
 11 13  1  0  0  0  0
 11 14  1  0  0  0  0
 14 15  1  0  0  0  0
 14 16  1  0  0  0  0
 14 17  1  0  0  0  0
 17 18  2  0  0  0  0
 17 19  1  0  0  0  0
 19 20  1  0  0  0  0
 21 22  2  0  0  0  0
 21 23  1  0  0  0  0
 23 24  1  0  0  0  0
 23 25  1  0  0  0  0
 25 26  1  0  0  0  0
 25 27  1  0  0  0  0
 25 28  1  0  0  0  0
M  END
$$$$

  -OEChem-02102214123D

 28 27  0     1  0  0  0  0  0999 V2000
   -2.6860   -4.1498    0.2873 H   0  0  0  0  0  0  0  0  0  0  0  0
   -2.6510   -3.1587   -0.1743 C   0  0  0  0  0  0  0  0  0  0  0  0
   -3.4026   -2.5237    0.3005 H   0  0  0  0  0  0  0  0  0  0  0  0
   -2.8844   -3.2581   -1.2370 H   0  0  0  0  0  0  0  0  0  0  0  0
   -1.2719   -2.5507   -0.0007 C   0  0  0  0  0  0  0  0  0  0  0  0
   -0.4017   -3.1761    0.5766 O   0  0  0  0  0  0  0  0  0  0  0  0
   -1.0069   -1.2974   -0.5175 N   0  0  0  0  0  0  0  0  0  0  0  0
   -1.7542   -0.8471   -1.0364 H   0  0  0  0  0  0  0  0  0  0  0  0
    0.3033   -0.6245   -0.4348 C   0  0  1  0  0  0  0  0  0  0  0  0
    1.0555   -1.2559   -0.9214 H   0  0  0  0  0  0  0  0  0  0  0  0
    0.1766    0.6952   -1.2207 C   0  0  0  0  0  0  0  0  0  0  0  0
   -0.0663    0.4409   -2.2576 H   0  0  0  0  0  0  0  0  0  0  0  0
   -0.6638    1.2823   -0.8369 H   0  0  0  0  0  0  0  0  0  0  0  0
    1.4825    1.5307   -1.2327 C   0  0  0  0  0  0  0  0  0  0  0  0
    2.3435    0.9024   -0.9863 H   0  0  0  0  0  0  0  0  0  0  0  0
    1.6417    1.8957   -2.2511 H   0  0  0  0  0  0  0  0  0  0  0  0
    1.4945    2.7623   -0.3207 C   0  0  0  0  0  0  0  0  0  0  0  0
    0.5534    2.9922    0.4232 O   0  0  0  0  0  0  0  0  0  0  0  0
    2.5796    3.5643   -0.4129 O   0  0  0  0  0  0  0  0  0  0  0  0
    2.4461    4.2684    0.2390 H   0  0  0  0  0  0  0  0  0  0  0  0
    0.7943   -0.3849    1.0150 C   0  0  0  0  0  0  0  0  0  0  0  0
    1.9885   -0.4592    1.2756 O   0  0  0  0  0  0  0  0  0  0  0  0
   -0.0715    0.1087    1.9737 N   0  0  0  0  0  0  0  0  0  0  0  0
   -1.0314    0.2689    1.6901 H   0  0  0  0  0  0  0  0  0  0  0  0
    0.3630    0.5467    3.2935 C   0  0  0  0  0  0  0  0  0  0  0  0
    1.0669    1.3811    3.2063 H   0  0  0  0  0  0  0  0  0  0  0  0
   -0.4959    0.8783    3.8846 H   0  0  0  0  0  0  0  0  0  0  0  0
    0.8532   -0.2746    3.8270 H   0  0  0  0  0  0  0  0  0  0  0  0
  1  2  1  0  0  0  0
  2  3  1  0  0  0  0
  2  4  1  0  0  0  0
  2  5  1  0  0  0  0
  5  6  2  0  0  0  0
  5  7  1  0  0  0  0
  7  8  1  0  0  0  0
  7  9  1  0  0  0  0
  9 10  1  0  0  0  0
  9 11  1  0  0  0  0
  9 21  1  0  0  0  0
 11 12  1  0  0  0  0
 11 13  1  0  0  0  0
 11 14  1  0  0  0  0
 14 15  1  0  0  0  0
 14 16  1  0  0  0  0
 14 17  1  0  0  0  0
 17 18  2  0  0  0  0
 17 19  1  0  0  0  0
 19 20  1  0  0  0  0
 21 22  2  0  0  0  0
 21 23  1  0  0  0  0
 23 24  1  0  0  0  0
 23 25  1  0  0  0  0
 25 26  1  0  0  0  0
 25 27  1  0  0  0  0
 25 28  1  0  0  0  0
M  END
$$$$

  -OEChem-02102214123D

 28 27  0     1  0  0  0  0  0999 V2000
   -2.6568   -4.1577    0.3021 H   0  0  0  0  0  0  0  0  0  0  0  0
   -2.6355   -3.1641   -0.1550 C   0  0  0  0  0  0  0  0  0  0  0  0
   -3.3859   -2.5374    0.3326 H   0  0  0  0  0  0  0  0  0  0  0  0
   -2.8817   -3.2602   -1.2152 H   0  0  0  0  0  0  0  0  0  0  0  0
   -1.2590   -2.5470    0.0054 C   0  0  0  0  0  0  0  0  0  0  0  0
   -0.3803   -3.1654    0.5774 O   0  0  0  0  0  0  0  0  0  0  0  0
   -1.0079   -1.2899   -0.5093 N   0  0  0  0  0  0  0  0  0  0  0  0
   -1.7621   -0.8454   -1.0235 H   0  0  0  0  0  0  0  0  0  0  0  0
    0.2984   -0.6081   -0.4366 C   0  0  1  0  0  0  0  0  0  0  0  0
    1.0491   -1.2414   -0.9230 H   0  0  0  0  0  0  0  0  0  0  0  0
    0.1683    0.7021   -1.2411 C   0  0  0  0  0  0  0  0  0  0  0  0
   -0.0760    0.4332   -2.2740 H   0  0  0  0  0  0  0  0  0  0  0  0
   -0.6690    1.2966   -0.8610 H   0  0  0  0  0  0  0  0  0  0  0  0
    1.4648    1.5485   -1.2687 C   0  0  0  0  0  0  0  0  0  0  0  0
    2.3369    0.8872   -1.2616 H   0  0  0  0  0  0  0  0  0  0  0  0
    1.4928    2.1091   -2.2066 H   0  0  0  0  0  0  0  0  0  0  0  0
    1.6165    2.5717   -0.1385 C   0  0  0  0  0  0  0  0  0  0  0  0
    0.6384    2.9191    0.5058 O   0  0  0  0  0  0  0  0  0  0  0  0
    2.8547    3.0786    0.0573 O   0  0  0  0  0  0  0  0  0  0  0  0
    2.7833    3.6721    0.8193 H   0  0  0  0  0  0  0  0  0  0  0  0
    0.7991   -0.3719    1.0092 C   0  0  0  0  0  0  0  0  0  0  0  0
    1.9977   -0.4215    1.2537 O   0  0  0  0  0  0  0  0  0  0  0  0
   -0.0626    0.1107    1.9769 N   0  0  0  0  0  0  0  0  0  0  0  0
   -1.0321    0.2397    1.7105 H   0  0  0  0  0  0  0  0  0  0  0  0
    0.3757    0.5377    3.2986 C   0  0  0  0  0  0  0  0  0  0  0  0
    1.0771    1.3747    3.2167 H   0  0  0  0  0  0  0  0  0  0  0  0
   -0.4821    0.8618    3.8952 H   0  0  0  0  0  0  0  0  0  0  0  0
    0.8698   -0.2877    3.8221 H   0  0  0  0  0  0  0  0  0  0  0  0
  1  2  1  0  0  0  0
  2  3  1  0  0  0  0
  2  4  1  0  0  0  0
  2  5  1  0  0  0  0
  5  6  2  0  0  0  0
  5  7  1  0  0  0  0
  7  8  1  0  0  0  0
  7  9  1  0  0  0  0
  9 10  1  0  0  0  0
  9 11  1  0  0  0  0
  9 21  1  0  0  0  0
 11 12  1  0  0  0  0
 11 13  1  0  0  0  0
 11 14  1  0  0  0  0
 14 15  1  0  0  0  0
 14 16  1  0  0  0  0
 14 17  1  0  0  0  0
 17 18  2  0  0  0  0
 17 19  1  0  0  0  0
 19 20  1  0  0  0  0
 21 22  2  0  0  0  0
 21 23  1  0  0  0  0
 23 24  1  0  0  0  0
 23 25  1  0  0  0  0
 25 26  1  0  0  0  0
 25 27  1  0  0  0  0
 25 28  1  0  0  0  0
M  END
$$$$

  -OEChem-02102214123D

 28 27  0     1  0  0  0  0  0999 V2000
   -2.6461   -4.1462    0.2995 H   0  0  0  0  0  0  0  0  0  0  0  0
   -2.6244   -3.1475   -0.1464 C   0  0  0  0  0  0  0  0  0  0  0  0
   -3.3694   -2.5239    0.3534 H   0  0  0  0  0  0  0  0  0  0  0  0
   -2.8782   -3.2310   -1.2058 H   0  0  0  0  0  0  0  0  0  0  0  0
   -1.2446   -2.5367    0.0107 C   0  0  0  0  0  0  0  0  0  0  0  0
   -0.3649   -3.1634    0.5719 O   0  0  0  0  0  0  0  0  0  0  0  0
   -0.9914   -1.2765   -0.4956 N   0  0  0  0  0  0  0  0  0  0  0  0
   -1.7473   -0.8244   -1.0005 H   0  0  0  0  0  0  0  0  0  0  0  0
    0.3164   -0.5967   -0.4195 C   0  0  1  0  0  0  0  0  0  0  0  0
    1.0675   -1.2358   -0.8979 H   0  0  0  0  0  0  0  0  0  0  0  0
    0.1886    0.6986   -1.2546 C   0  0  0  0  0  0  0  0  0  0  0  0
   -0.0660    0.4107   -2.2799 H   0  0  0  0  0  0  0  0  0  0  0  0
   -0.6432    1.2989   -0.8704 H   0  0  0  0  0  0  0  0  0  0  0  0
    1.4594    1.5794   -1.3168 C   0  0  0  0  0  0  0  0  0  0  0  0
    2.3207    0.9436   -1.5432 H   0  0  0  0  0  0  0  0  0  0  0  0
    1.3550    2.2924   -2.1387 H   0  0  0  0  0  0  0  0  0  0  0  0
    1.7756    2.3861   -0.0560 C   0  0  0  0  0  0  0  0  0  0  0  0
    0.8526    2.8218    0.6151 O   0  0  0  0  0  0  0  0  0  0  0  0
    3.0784    2.6187    0.2219 O   0  0  0  0  0  0  0  0  0  0  0  0
    3.0922    3.0764    1.0753 H   0  0  0  0  0  0  0  0  0  0  0  0
    0.8062   -0.3773    1.0325 C   0  0  0  0  0  0  0  0  0  0  0  0
    2.0002   -0.4536    1.2911 O   0  0  0  0  0  0  0  0  0  0  0  0
   -0.0610    0.0957    1.9999 N   0  0  0  0  0  0  0  0  0  0  0  0
   -1.0298    0.2233    1.7309 H   0  0  0  0  0  0  0  0  0  0  0  0
    0.3626    0.4721    3.3417 C   0  0  0  0  0  0  0  0  0  0  0  0
    1.0912    1.2885    3.2975 H   0  0  0  0  0  0  0  0  0  0  0  0
   -0.4968    0.8067    3.9303 H   0  0  0  0  0  0  0  0  0  0  0  0
    0.8202   -0.3822    3.8519 H   0  0  0  0  0  0  0  0  0  0  0  0
  1  2  1  0  0  0  0
  2  3  1  0  0  0  0
  2  4  1  0  0  0  0
  2  5  1  0  0  0  0
  5  6  2  0  0  0  0
  5  7  1  0  0  0  0
  7  8  1  0  0  0  0
  7  9  1  0  0  0  0
  9 10  1  0  0  0  0
  9 11  1  0  0  0  0
  9 21  1  0  0  0  0
 11 12  1  0  0  0  0
 11 13  1  0  0  0  0
 11 14  1  0  0  0  0
 14 15  1  0  0  0  0
 14 16  1  0  0  0  0
 14 17  1  0  0  0  0
 17 18  2  0  0  0  0
 17 19  1  0  0  0  0
 19 20  1  0  0  0  0
 21 22  2  0  0  0  0
 21 23  1  0  0  0  0
 23 24  1  0  0  0  0
 23 25  1  0  0  0  0
 25 26  1  0  0  0  0
 25 27  1  0  0  0  0
 25 28  1  0  0  0  0
M  END
$$$$

  -OEChem-02102214123D

 28 27  0     1  0  0  0  0  0999 V2000
   -2.6427   -4.1281    0.2960 H   0  0  0  0  0  0  0  0  0  0  0  0
   -2.6124   -3.1266   -0.1428 C   0  0  0  0  0  0  0  0  0  0  0  0
   -3.3500   -2.4990    0.3630 H   0  0  0  0  0  0  0  0  0  0  0  0
   -2.8690   -3.2001   -1.2023 H   0  0  0  0  0  0  0  0  0  0  0  0
   -1.2265   -2.5308    0.0165 C   0  0  0  0  0  0  0  0  0  0  0  0
   -0.3539   -3.1691    0.5754 O   0  0  0  0  0  0  0  0  0  0  0  0
   -0.9613   -1.2712   -0.4859 N   0  0  0  0  0  0  0  0  0  0  0  0
   -1.7132   -0.8118   -0.9900 H   0  0  0  0  0  0  0  0  0  0  0  0
    0.3502   -0.5981   -0.4016 C   0  0  1  0  0  0  0  0  0  0  0  0
    1.1068   -1.2358   -0.8735 H   0  0  0  0  0  0  0  0  0  0  0  0
    0.2119    0.6929   -1.2492 C   0  0  0  0  0  0  0  0  0  0  0  0
   -0.0703    0.4021   -2.2666 H   0  0  0  0  0  0  0  0  0  0  0  0
   -0.6122    1.2862   -0.8379 H   0  0  0  0  0  0  0  0  0  0  0  0
    1.4466    1.6211   -1.3554 C   0  0  0  0  0  0  0  0  0  0  0  0
    2.2574    1.0577   -1.8267 H   0  0  0  0  0  0  0  0  0  0  0  0
    1.2060    2.4591   -2.0151 H   0  0  0  0  0  0  0  0  0  0  0  0
    1.9841    2.2006   -0.0498 C   0  0  0  0  0  0  0  0  0  0  0  0
    1.1922    2.7199    0.7210 O   0  0  0  0  0  0  0  0  0  0  0  0
    3.3179    2.1434    0.1647 O   0  0  0  0  0  0  0  0  0  0  0  0
    3.4556    2.4502    1.0732 H   0  0  0  0  0  0  0  0  0  0  0  0
    0.8109   -0.3946    1.0634 C   0  0  0  0  0  0  0  0  0  0  0  0
    1.9911   -0.5266    1.3608 O   0  0  0  0  0  0  0  0  0  0  0  0
   -0.0742    0.0752    2.0167 N   0  0  0  0  0  0  0  0  0  0  0  0
   -1.0359    0.2138    1.7291 H   0  0  0  0  0  0  0  0  0  0  0  0
    0.3153    0.3954    3.3833 C   0  0  0  0  0  0  0  0  0  0  0  0
    1.0668    1.1919    3.3890 H   0  0  0  0  0  0  0  0  0  0  0  0
   -0.5532    0.7354    3.9552 H   0  0  0  0  0  0  0  0  0  0  0  0
    0.7320   -0.4880    3.8786 H   0  0  0  0  0  0  0  0  0  0  0  0
  1  2  1  0  0  0  0
  2  3  1  0  0  0  0
  2  4  1  0  0  0  0
  2  5  1  0  0  0  0
  5  6  2  0  0  0  0
  5  7  1  0  0  0  0
  7  8  1  0  0  0  0
  7  9  1  0  0  0  0
  9 10  1  0  0  0  0
  9 11  1  0  0  0  0
  9 21  1  0  0  0  0
 11 12  1  0  0  0  0
 11 13  1  0  0  0  0
 11 14  1  0  0  0  0
 14 15  1  0  0  0  0
 14 16  1  0  0  0  0
 14 17  1  0  0  0  0
 17 18  2  0  0  0  0
 17 19  1  0  0  0  0
 19 20  1  0  0  0  0
 21 22  2  0  0  0  0
 21 23  1  0  0  0  0
 23 24  1  0  0  0  0
 23 25  1  0  0  0  0
 25 26  1  0  0  0  0
 25 27  1  0  0  0  0
 25 28  1  0  0  0  0
M  END
$$$$

  -OEChem-02102214123D

 28 27  0     1  0  0  0  0  0999 V2000
   -2.6455   -4.1130    0.2878 H   0  0  0  0  0  0  0  0  0  0  0  0
   -2.6009   -3.1118   -0.1506 C   0  0  0  0  0  0  0  0  0  0  0  0
   -3.3380   -2.4775    0.3473 H   0  0  0  0  0  0  0  0  0  0  0  0
   -2.8469   -3.1831   -1.2128 H   0  0  0  0  0  0  0  0  0  0  0  0
   -1.2113   -2.5283    0.0229 C   0  0  0  0  0  0  0  0  0  0  0  0
   -0.3513   -3.1737    0.5926 O   0  0  0  0  0  0  0  0  0  0  0  0
   -0.9310   -1.2720   -0.4803 N   0  0  0  0  0  0  0  0  0  0  0  0
   -1.6726   -0.8140   -1.0005 H   0  0  0  0  0  0  0  0  0  0  0  0
    0.3844   -0.6055   -0.3865 C   0  0  1  0  0  0  0  0  0  0  0  0
    1.1468   -1.2385   -0.8546 H   0  0  0  0  0  0  0  0  0  0  0  0
    0.2316    0.6887   -1.2328 C   0  0  0  0  0  0  0  0  0  0  0  0
   -0.0779    0.4029   -2.2436 H   0  0  0  0  0  0  0  0  0  0  0  0
   -0.5870    1.2681   -0.7917 H   0  0  0  0  0  0  0  0  0  0  0  0
    1.4322    1.6594   -1.3733 C   0  0  0  0  0  0  0  0  0  0  0  0
    2.1431    1.2120   -2.0741 H   0  0  0  0  0  0  0  0  0  0  0  0
    1.0844    2.5946   -1.8206 H   0  0  0  0  0  0  0  0  0  0  0  0
    2.2090    2.0020   -0.1088 C   0  0  0  0  0  0  0  0  0  0  0  0
    1.6230    2.6089    0.7733 O   0  0  0  0  0  0  0  0  0  0  0  0
    3.5061    1.6271   -0.0379 O   0  0  0  0  0  0  0  0  0  0  0  0
    3.7751    1.7760    0.8817 H   0  0  0  0  0  0  0  0  0  0  0  0
    0.8183   -0.4068    1.0889 C   0  0  0  0  0  0  0  0  0  0  0  0
    1.9811   -0.5930    1.4247 O   0  0  0  0  0  0  0  0  0  0  0  0
   -0.0835    0.0677    2.0241 N   0  0  0  0  0  0  0  0  0  0  0  0
   -1.0397    0.2068    1.7186 H   0  0  0  0  0  0  0  0  0  0  0  0
    0.2710    0.3429    3.4100 C   0  0  0  0  0  0  0  0  0  0  0  0
    1.0453    1.1159    3.4594 H   0  0  0  0  0  0  0  0  0  0  0  0
   -0.6051    0.6954    3.9624 H   0  0  0  0  0  0  0  0  0  0  0  0
    0.6455   -0.5640    3.8963 H   0  0  0  0  0  0  0  0  0  0  0  0
  1  2  1  0  0  0  0
  2  3  1  0  0  0  0
  2  4  1  0  0  0  0
  2  5  1  0  0  0  0
  5  6  2  0  0  0  0
  5  7  1  0  0  0  0
  7  8  1  0  0  0  0
  7  9  1  0  0  0  0
  9 10  1  0  0  0  0
  9 11  1  0  0  0  0
  9 21  1  0  0  0  0
 11 12  1  0  0  0  0
 11 13  1  0  0  0  0
 11 14  1  0  0  0  0
 14 15  1  0  0  0  0
 14 16  1  0  0  0  0
 14 17  1  0  0  0  0
 17 18  2  0  0  0  0
 17 19  1  0  0  0  0
 19 20  1  0  0  0  0
 21 22  2  0  0  0  0
 21 23  1  0  0  0  0
 23 24  1  0  0  0  0
 23 25  1  0  0  0  0
 25 26  1  0  0  0  0
 25 27  1  0  0  0  0
 25 28  1  0  0  0  0
M  END
$$$$

  -OEChem-02102214123D

 28 27  0     1  0  0  0  0  0999 V2000
   -2.6110   -4.1154    0.2938 H   0  0  0  0  0  0  0  0  0  0  0  0
   -2.5682   -3.1152   -0.1474 C   0  0  0  0  0  0  0  0  0  0  0  0
   -3.3181   -2.4854    0.3370 H   0  0  0  0  0  0  0  0  0  0  0  0
   -2.7972   -3.1920   -1.2130 H   0  0  0  0  0  0  0  0  0  0  0  0
   -1.1862   -2.5196    0.0462 C   0  0  0  0  0  0  0  0  0  0  0  0
   -0.3356   -3.1509    0.6447 O   0  0  0  0  0  0  0  0  0  0  0  0
   -0.9022   -1.2698   -0.4714 N   0  0  0  0  0  0  0  0  0  0  0  0
   -1.6314   -0.8323   -1.0256 H   0  0  0  0  0  0  0  0  0  0  0  0
    0.4136   -0.6020   -0.3803 C   0  0  1  0  0  0  0  0  0  0  0  0
    1.1830   -1.2281   -0.8466 H   0  0  0  0  0  0  0  0  0  0  0  0
    0.2380    0.6943   -1.2216 C   0  0  0  0  0  0  0  0  0  0  0  0
   -0.0926    0.4111   -2.2266 H   0  0  0  0  0  0  0  0  0  0  0  0
   -0.5788    1.2596   -0.7596 H   0  0  0  0  0  0  0  0  0  0  0  0
    1.4143    1.6932   -1.3871 C   0  0  0  0  0  0  0  0  0  0  0  0
    1.9800    1.3979   -2.2755 H   0  0  0  0  0  0  0  0  0  0  0  0
    1.0112    2.6909   -1.5838 H   0  0  0  0  0  0  0  0  0  0  0  0
    2.4192    1.7953   -0.2498 C   0  0  0  0  0  0  0  0  0  0  0  0
    2.1332    2.5007    0.7037 O   0  0  0  0  0  0  0  0  0  0  0  0
    3.5652    1.0857   -0.3543 O   0  0  0  0  0  0  0  0  0  0  0  0
    3.9644    1.1015    0.5305 H   0  0  0  0  0  0  0  0  0  0  0  0
    0.8308   -0.3899    1.1001 C   0  0  0  0  0  0  0  0  0  0  0  0
    1.9757   -0.6231    1.4679 O   0  0  0  0  0  0  0  0  0  0  0  0
   -0.0831    0.0941    2.0187 N   0  0  0  0  0  0  0  0  0  0  0  0
   -1.0410    0.2006    1.7058 H   0  0  0  0  0  0  0  0  0  0  0  0
    0.2350    0.3037    3.4248 C   0  0  0  0  0  0  0  0  0  0  0  0
    1.0453    1.0334    3.5279 H   0  0  0  0  0  0  0  0  0  0  0  0
   -0.6411    0.6826    3.9595 H   0  0  0  0  0  0  0  0  0  0  0  0
    0.5462   -0.6376    3.8903 H   0  0  0  0  0  0  0  0  0  0  0  0
  1  2  1  0  0  0  0
  2  3  1  0  0  0  0
  2  4  1  0  0  0  0
  2  5  1  0  0  0  0
  5  6  2  0  0  0  0
  5  7  1  0  0  0  0
  7  8  1  0  0  0  0
  7  9  1  0  0  0  0
  9 10  1  0  0  0  0
  9 11  1  0  0  0  0
  9 21  1  0  0  0  0
 11 12  1  0  0  0  0
 11 13  1  0  0  0  0
 11 14  1  0  0  0  0
 14 15  1  0  0  0  0
 14 16  1  0  0  0  0
 14 17  1  0  0  0  0
 17 18  2  0  0  0  0
 17 19  1  0  0  0  0
 19 20  1  0  0  0  0
 21 22  2  0  0  0  0
 21 23  1  0  0  0  0
 23 24  1  0  0  0  0
 23 25  1  0  0  0  0
 25 26  1  0  0  0  0
 25 27  1  0  0  0  0
 25 28  1  0  0  0  0
M  END
$$$$

  -OEChem-02102214123D

 28 27  0     1  0  0  0  0  0999 V2000
   -2.6153   -4.0920    0.4872 H   0  0  0  0  0  0  0  0  0  0  0  0
   -2.5711   -3.1171   -0.0069 C   0  0  0  0  0  0  0  0  0  0  0  0
   -3.3247   -2.4634    0.4387 H   0  0  0  0  0  0  0  0  0  0  0  0
   -2.7941   -3.2515   -1.0680 H   0  0  0  0  0  0  0  0  0  0  0  0
   -1.1913   -2.5095    0.1617 C   0  0  0  0  0  0  0  0  0  0  0  0
   -0.3409   -3.1093    0.7918 O   0  0  0  0  0  0  0  0  0  0  0  0
   -0.9119   -1.2834   -0.4120 N   0  0  0  0  0  0  0  0  0  0  0  0
   -1.6357   -0.8872   -1.0034 H   0  0  0  0  0  0  0  0  0  0  0  0
    0.4083   -0.6190   -0.3742 C   0  0  1  0  0  0  0  0  0  0  0  0
    1.1657   -1.2615   -0.8382 H   0  0  0  0  0  0  0  0  0  0  0  0
    0.2105    0.6549   -1.2433 C   0  0  0  0  0  0  0  0  0  0  0  0
   -0.1448    0.3416   -2.2307 H   0  0  0  0  0  0  0  0  0  0  0  0
   -0.5971    1.2319   -0.7795 H   0  0  0  0  0  0  0  0  0  0  0  0
    1.3810    1.6500   -1.4718 C   0  0  0  0  0  0  0  0  0  0  0  0
    1.7506    1.5075   -2.4912 H   0  0  0  0  0  0  0  0  0  0  0  0
    0.9951    2.6723   -1.4148 H   0  0  0  0  0  0  0  0  0  0  0  0
    2.5926    1.5383   -0.5585 C   0  0  0  0  0  0  0  0  0  0  0  0
    2.6935    2.3317    0.3622 O   0  0  0  0  0  0  0  0  0  0  0  0
    3.4875    0.5588   -0.8198 O   0  0  0  0  0  0  0  0  0  0  0  0
    4.0566    0.5124   -0.0341 H   0  0  0  0  0  0  0  0  0  0  0  0
    0.8586   -0.3473    1.0877 C   0  0  0  0  0  0  0  0  0  0  0  0
    2.0032   -0.5931    1.4483 O   0  0  0  0  0  0  0  0  0  0  0  0
   -0.0337    0.1795    2.0043 N   0  0  0  0  0  0  0  0  0  0  0  0
   -1.0030    0.2411    1.7146 H   0  0  0  0  0  0  0  0  0  0  0  0
    0.3001    0.3766    3.4092 C   0  0  0  0  0  0  0  0  0  0  0  0
    1.1689    1.0363    3.5069 H   0  0  0  0  0  0  0  0  0  0  0  0
   -0.5407    0.8346    3.9384 H   0  0  0  0  0  0  0  0  0  0  0  0
    0.5308   -0.5823    3.8853 H   0  0  0  0  0  0  0  0  0  0  0  0
  1  2  1  0  0  0  0
  2  3  1  0  0  0  0
  2  4  1  0  0  0  0
  2  5  1  0  0  0  0
  5  6  2  0  0  0  0
  5  7  1  0  0  0  0
  7  8  1  0  0  0  0
  7  9  1  0  0  0  0
  9 10  1  0  0  0  0
  9 11  1  0  0  0  0
  9 21  1  0  0  0  0
 11 12  1  0  0  0  0
 11 13  1  0  0  0  0
 11 14  1  0  0  0  0
 14 15  1  0  0  0  0
 14 16  1  0  0  0  0
 14 17  1  0  0  0  0
 17 18  2  0  0  0  0
 17 19  1  0  0  0  0
 19 20  1  0  0  0  0
 21 22  2  0  0  0  0
 21 23  1  0  0  0  0
 23 24  1  0  0  0  0
 23 25  1  0  0  0  0
 25 26  1  0  0  0  0
 25 27  1  0  0  0  0
 25 28  1  0  0  0  0
M  END
$$$$

  -OEChem-02102214123D

 28 27  0     1  0  0  0  0  0999 V2000
   -2.8204   -3.9643    0.5506 H   0  0  0  0  0  0  0  0  0  0  0  0
   -2.7155   -3.0204    0.0078 C   0  0  0  0  0  0  0  0  0  0  0  0
   -3.4640   -2.3166    0.3794 H   0  0  0  0  0  0  0  0  0  0  0  0
   -2.8926   -3.2056   -1.0543 H   0  0  0  0  0  0  0  0  0  0  0  0
   -1.3227   -2.4543    0.2112 C   0  0  0  0  0  0  0  0  0  0  0  0
   -0.5310   -3.0440    0.9218 O   0  0  0  0  0  0  0  0  0  0  0  0
   -0.9711   -1.2736   -0.4162 N   0  0  0  0  0  0  0  0  0  0  0  0
   -1.6451   -0.9075   -1.0811 H   0  0  0  0  0  0  0  0  0  0  0  0
    0.3912   -0.6980   -0.4205 C   0  0  1  0  0  0  0  0  0  0  0  0
    1.0988   -1.3992   -0.8784 H   0  0  0  0  0  0  0  0  0  0  0  0
    0.2632    0.5772   -1.2978 C   0  0  0  0  0  0  0  0  0  0  0  0
   -0.1102    0.2632   -2.2784 H   0  0  0  0  0  0  0  0  0  0  0  0
   -0.5066    1.2157   -0.8507 H   0  0  0  0  0  0  0  0  0  0  0  0
    1.5060    1.4729   -1.5551 C   0  0  0  0  0  0  0  0  0  0  0  0
    1.6697    1.5475   -2.6341 H   0  0  0  0  0  0  0  0  0  0  0  0
    1.2850    2.4827   -1.1975 H   0  0  0  0  0  0  0  0  0  0  0  0
    2.8217    1.0420   -0.9210 C   0  0  0  0  0  0  0  0  0  0  0  0
    3.4163    0.1039   -1.4245 O   0  0  0  0  0  0  0  0  0  0  0  0
    3.2585    1.7233    0.1623 O   0  0  0  0  0  0  0  0  0  0  0  0
    3.9867    1.1909    0.5213 H   0  0  0  0  0  0  0  0  0  0  0  0
    0.8775   -0.3990    1.0252 C   0  0  0  0  0  0  0  0  0  0  0  0
    2.0160   -0.6730    1.3827 O   0  0  0  0  0  0  0  0  0  0  0  0
    0.0277    0.2222    1.9235 N   0  0  0  0  0  0  0  0  0  0  0  0
   -0.9474    0.2731    1.6504 H   0  0  0  0  0  0  0  0  0  0  0  0
    0.3722    0.4145    3.3268 C   0  0  0  0  0  0  0  0  0  0  0  0
    1.2919    1.0019    3.4192 H   0  0  0  0  0  0  0  0  0  0  0  0
   -0.4298    0.9494    3.8443 H   0  0  0  0  0  0  0  0  0  0  0  0
    0.5209   -0.5523    3.8192 H   0  0  0  0  0  0  0  0  0  0  0  0
  1  2  1  0  0  0  0
  2  3  1  0  0  0  0
  2  4  1  0  0  0  0
  2  5  1  0  0  0  0
  5  6  2  0  0  0  0
  5  7  1  0  0  0  0
  7  8  1  0  0  0  0
  7  9  1  0  0  0  0
  9 10  1  0  0  0  0
  9 11  1  0  0  0  0
  9 21  1  0  0  0  0
 11 12  1  0  0  0  0
 11 13  1  0  0  0  0
 11 14  1  0  0  0  0
 14 15  1  0  0  0  0
 14 16  1  0  0  0  0
 14 17  1  0  0  0  0
 17 18  2  0  0  0  0
 17 19  1  0  0  0  0
 19 20  1  0  0  0  0
 21 22  2  0  0  0  0
 21 23  1  0  0  0  0
 23 24  1  0  0  0  0
 23 25  1  0  0  0  0
 25 26  1  0  0  0  0
 25 27  1  0  0  0  0
 25 28  1  0  0  0  0
M  END
$$$$

  -OEChem-02102214123D

 28 27  0     1  0  0  0  0  0999 V2000
   -2.7852   -4.0301    0.4542 H   0  0  0  0  0  0  0  0  0  0  0  0
   -2.7026   -3.0722   -0.0674 C   0  0  0  0  0  0  0  0  0  0  0  0
   -3.4782   -2.4001    0.3075 H   0  0  0  0  0  0  0  0  0  0  0  0
   -2.8587   -3.2407   -1.1356 H   0  0  0  0  0  0  0  0  0  0  0  0
   -1.3312   -2.4676    0.1685 C   0  0  0  0  0  0  0  0  0  0  0  0
   -0.5386   -3.0374    0.8946 O   0  0  0  0  0  0  0  0  0  0  0  0
   -0.9999   -1.2719   -0.4407 N   0  0  0  0  0  0  0  0  0  0  0  0
   -1.6682   -0.9216   -1.1200 H   0  0  0  0  0  0  0  0  0  0  0  0
    0.3538   -0.6780   -0.4329 C   0  0  1  0  0  0  0  0  0  0  0  0
    1.0597   -1.3724   -0.9026 H   0  0  0  0  0  0  0  0  0  0  0  0
    0.2304    0.6161   -1.2777 C   0  0  0  0  0  0  0  0  0  0  0  0
   -0.1095    0.3127   -2.2737 H   0  0  0  0  0  0  0  0  0  0  0  0
   -0.5548    1.2464   -0.8466 H   0  0  0  0  0  0  0  0  0  0  0  0
    1.4870    1.5031   -1.4866 C   0  0  0  0  0  0  0  0  0  0  0  0
    1.5148    1.8545   -2.5218 H   0  0  0  0  0  0  0  0  0  0  0  0
    1.3832    2.3879   -0.8516 H   0  0  0  0  0  0  0  0  0  0  0  0
    2.8409    0.8808   -1.1572 C   0  0  0  0  0  0  0  0  0  0  0  0
    3.1801   -0.1161   -1.7733 O   0  0  0  0  0  0  0  0  0  0  0  0
    3.6060    1.4876   -0.2216 O   0  0  0  0  0  0  0  0  0  0  0  0
    4.3357    0.8734   -0.0458 H   0  0  0  0  0  0  0  0  0  0  0  0
    0.8593   -0.3855    1.0051 C   0  0  0  0  0  0  0  0  0  0  0  0
    2.0220   -0.5999    1.3215 O   0  0  0  0  0  0  0  0  0  0  0  0
    0.0162    0.2165    1.9220 N   0  0  0  0  0  0  0  0  0  0  0  0
   -0.9686    0.2223    1.6800 H   0  0  0  0  0  0  0  0  0  0  0  0
    0.3965    0.4336    3.3123 C   0  0  0  0  0  0  0  0  0  0  0  0
    1.2935    1.0592    3.3713 H   0  0  0  0  0  0  0  0  0  0  0  0
   -0.4106    0.9383    3.8515 H   0  0  0  0  0  0  0  0  0  0  0  0
    0.6013   -0.5225    3.8057 H   0  0  0  0  0  0  0  0  0  0  0  0
  1  2  1  0  0  0  0
  2  3  1  0  0  0  0
  2  4  1  0  0  0  0
  2  5  1  0  0  0  0
  5  6  2  0  0  0  0
  5  7  1  0  0  0  0
  7  8  1  0  0  0  0
  7  9  1  0  0  0  0
  9 10  1  0  0  0  0
  9 11  1  0  0  0  0
  9 21  1  0  0  0  0
 11 12  1  0  0  0  0
 11 13  1  0  0  0  0
 11 14  1  0  0  0  0
 14 15  1  0  0  0  0
 14 16  1  0  0  0  0
 14 17  1  0  0  0  0
 17 18  2  0  0  0  0
 17 19  1  0  0  0  0
 19 20  1  0  0  0  0
 21 22  2  0  0  0  0
 21 23  1  0  0  0  0
 23 24  1  0  0  0  0
 23 25  1  0  0  0  0
 25 26  1  0  0  0  0
 25 27  1  0  0  0  0
 25 28  1  0  0  0  0
M  END
$$$$

  -OEChem-02102214123D

 28 27  0     1  0  0  0  0  0999 V2000
   -2.7353   -4.0905    0.4108 H   0  0  0  0  0  0  0  0  0  0  0  0
   -2.6771   -3.1265   -0.1028 C   0  0  0  0  0  0  0  0  0  0  0  0
   -3.4762   -2.4810    0.2693 H   0  0  0  0  0  0  0  0  0  0  0  0
   -2.8180   -3.2918   -1.1737 H   0  0  0  0  0  0  0  0  0  0  0  0
   -1.3277   -2.4810    0.1505 C   0  0  0  0  0  0  0  0  0  0  0  0
   -0.5265   -3.0260    0.8867 O   0  0  0  0  0  0  0  0  0  0  0  0
   -1.0268   -1.2731   -0.4498 N   0  0  0  0  0  0  0  0  0  0  0  0
   -1.6968   -0.9418   -1.1371 H   0  0  0  0  0  0  0  0  0  0  0  0
    0.3147   -0.6543   -0.4411 C   0  0  1  0  0  0  0  0  0  0  0  0
    1.0207   -1.3437   -0.9163 H   0  0  0  0  0  0  0  0  0  0  0  0
    0.1909    0.6456   -1.2720 C   0  0  0  0  0  0  0  0  0  0  0  0
   -0.1326    0.3541   -2.2770 H   0  0  0  0  0  0  0  0  0  0  0  0
   -0.5971    1.2743   -0.8441 H   0  0  0  0  0  0  0  0  0  0  0  0
    1.4633    1.5151   -1.4400 C   0  0  0  0  0  0  0  0  0  0  0  0
    1.3883    2.0981   -2.3617 H   0  0  0  0  0  0  0  0  0  0  0  0
    1.4940    2.2267   -0.6095 H   0  0  0  0  0  0  0  0  0  0  0  0
    2.8028    0.7792   -1.4381 C   0  0  0  0  0  0  0  0  0  0  0  0
    2.9275   -0.2022   -2.1530 O   0  0  0  0  0  0  0  0  0  0  0  0
    3.8016    1.2922   -0.6843 O   0  0  0  0  0  0  0  0  0  0  0  0
    4.5214    0.6447   -0.7240 H   0  0  0  0  0  0  0  0  0  0  0  0
    0.8435   -0.3562    0.9844 C   0  0  0  0  0  0  0  0  0  0  0  0
    2.0312   -0.4881    1.2474 O   0  0  0  0  0  0  0  0  0  0  0  0
    0.0092    0.2275    1.9207 N   0  0  0  0  0  0  0  0  0  0  0  0
   -0.9833    0.1815    1.7168 H   0  0  0  0  0  0  0  0  0  0  0  0
    0.4306    0.4844    3.2921 C   0  0  0  0  0  0  0  0  0  0  0  0
    1.2990    1.1518    3.3078 H   0  0  0  0  0  0  0  0  0  0  0  0
   -0.3788    0.9592    3.8547 H   0  0  0  0  0  0  0  0  0  0  0  0
    0.6981   -0.4531    3.7909 H   0  0  0  0  0  0  0  0  0  0  0  0
  1  2  1  0  0  0  0
  2  3  1  0  0  0  0
  2  4  1  0  0  0  0
  2  5  1  0  0  0  0
  5  6  2  0  0  0  0
  5  7  1  0  0  0  0
  7  8  1  0  0  0  0
  7  9  1  0  0  0  0
  9 10  1  0  0  0  0
  9 11  1  0  0  0  0
  9 21  1  0  0  0  0
 11 12  1  0  0  0  0
 11 13  1  0  0  0  0
 11 14  1  0  0  0  0
 14 15  1  0  0  0  0
 14 16  1  0  0  0  0
 14 17  1  0  0  0  0
 17 18  2  0  0  0  0
 17 19  1  0  0  0  0
 19 20  1  0  0  0  0
 21 22  2  0  0  0  0
 21 23  1  0  0  0  0
 23 24  1  0  0  0  0
 23 25  1  0  0  0  0
 25 26  1  0  0  0  0
 25 27  1  0  0  0  0
 25 28  1  0  0  0  0
M  END
$$$$

  -OEChem-02102214123D

 28 27  0     1  0  0  0  0  0999 V2000
   -2.6771   -4.1353    0.3645 H   0  0  0  0  0  0  0  0  0  0  0  0
   -2.6431   -3.1649   -0.1391 C   0  0  0  0  0  0  0  0  0  0  0  0
   -3.4606   -2.5449    0.2364 H   0  0  0  0  0  0  0  0  0  0  0  0
   -2.7753   -3.3222   -1.2123 H   0  0  0  0  0  0  0  0  0  0  0  0
   -1.3122   -2.4870    0.1260 C   0  0  0  0  0  0  0  0  0  0  0  0
   -0.4986   -3.0178    0.8593 O   0  0  0  0  0  0  0  0  0  0  0  0
   -1.0422   -1.2641   -0.4577 N   0  0  0  0  0  0  0  0  0  0  0  0
   -1.7160   -0.9456   -1.1473 H   0  0  0  0  0  0  0  0  0  0  0  0
    0.2862   -0.6200   -0.4472 C   0  0  1  0  0  0  0  0  0  0  0  0
    0.9979   -1.2974   -0.9306 H   0  0  0  0  0  0  0  0  0  0  0  0
    0.1545    0.6832   -1.2688 C   0  0  0  0  0  0  0  0  0  0  0  0
   -0.1668    0.4111   -2.2800 H   0  0  0  0  0  0  0  0  0  0  0  0
   -0.6295    1.3094   -0.8304 H   0  0  0  0  0  0  0  0  0  0  0  0
    1.4412    1.5340   -1.3970 C   0  0  0  0  0  0  0  0  0  0  0  0
    1.2946    2.3017   -2.1611 H   0  0  0  0  0  0  0  0  0  0  0  0
    1.6125    2.0495   -0.4471 H   0  0  0  0  0  0  0  0  0  0  0  0
    2.7163    0.7582   -1.7305 C   0  0  0  0  0  0  0  0  0  0  0  0
    2.6484   -0.1725   -2.5179 O   0  0  0  0  0  0  0  0  0  0  0  0
    3.8727    1.1877   -1.1764 O   0  0  0  0  0  0  0  0  0  0  0  0
    4.5490    0.5476   -1.4428 H   0  0  0  0  0  0  0  0  0  0  0  0
    0.8329   -0.3278    0.9713 C   0  0  0  0  0  0  0  0  0  0  0  0
    2.0353   -0.3905    1.1902 O   0  0  0  0  0  0  0  0  0  0  0  0
    0.0044    0.2287    1.9289 N   0  0  0  0  0  0  0  0  0  0  0  0
   -0.9912    0.1412    1.7546 H   0  0  0  0  0  0  0  0  0  0  0  0
    0.4542    0.5085    3.2869 C   0  0  0  0  0  0  0  0  0  0  0  0
    1.2958    1.2094    3.2759 H   0  0  0  0  0  0  0  0  0  0  0  0
   -0.3570    0.9550    3.8700 H   0  0  0  0  0  0  0  0  0  0  0  0
    0.7721   -0.4153    3.7822 H   0  0  0  0  0  0  0  0  0  0  0  0
  1  2  1  0  0  0  0
  2  3  1  0  0  0  0
  2  4  1  0  0  0  0
  2  5  1  0  0  0  0
  5  6  2  0  0  0  0
  5  7  1  0  0  0  0
  7  8  1  0  0  0  0
  7  9  1  0  0  0  0
  9 10  1  0  0  0  0
  9 11  1  0  0  0  0
  9 21  1  0  0  0  0
 11 12  1  0  0  0  0
 11 13  1  0  0  0  0
 11 14  1  0  0  0  0
 14 15  1  0  0  0  0
 14 16  1  0  0  0  0
 14 17  1  0  0  0  0
 17 18  2  0  0  0  0
 17 19  1  0  0  0  0
 19 20  1  0  0  0  0
 21 22  2  0  0  0  0
 21 23  1  0  0  0  0
 23 24  1  0  0  0  0
 23 25  1  0  0  0  0
 25 26  1  0  0  0  0
 25 27  1  0  0  0  0
 25 28  1  0  0  0  0
M  END
$$$$

  -OEChem-02102214123D

 28 27  0     1  0  0  0  0  0999 V2000
   -2.6361   -4.1561    0.3257 H   0  0  0  0  0  0  0  0  0  0  0  0
   -2.6177   -3.1772   -0.1622 C   0  0  0  0  0  0  0  0  0  0  0  0
   -3.4425   -2.5751    0.2265 H   0  0  0  0  0  0  0  0  0  0  0  0
   -2.7520   -3.3191   -1.2374 H   0  0  0  0  0  0  0  0  0  0  0  0
   -1.2957   -2.4845    0.1094 C   0  0  0  0  0  0  0  0  0  0  0  0
   -0.4768   -3.0106    0.8403 O   0  0  0  0  0  0  0  0  0  0  0  0
   -1.0407   -1.2527   -0.4621 N   0  0  0  0  0  0  0  0  0  0  0  0
   -1.7157   -0.9382   -1.1524 H   0  0  0  0  0  0  0  0  0  0  0  0
    0.2806   -0.5942   -0.4464 C   0  0  1  0  0  0  0  0  0  0  0  0
    1.0028   -1.2575   -0.9353 H   0  0  0  0  0  0  0  0  0  0  0  0
    0.1396    0.7078   -1.2666 C   0  0  0  0  0  0  0  0  0  0  0  0
   -0.1961    0.4550   -2.2783 H   0  0  0  0  0  0  0  0  0  0  0  0
   -0.6357    1.3311   -0.8092 H   0  0  0  0  0  0  0  0  0  0  0  0
    1.4337    1.5487   -1.3705 C   0  0  0  0  0  0  0  0  0  0  0  0
    1.2260    2.4503   -1.9522 H   0  0  0  0  0  0  0  0  0  0  0  0
    1.7447    1.8750   -0.3739 H   0  0  0  0  0  0  0  0  0  0  0  0
    2.6112    0.8278   -2.0295 C   0  0  0  0  0  0  0  0  0  0  0  0
    2.3908   -0.0707   -2.8265 O   0  0  0  0  0  0  0  0  0  0  0  0
    3.8535    1.2637   -1.7215 O   0  0  0  0  0  0  0  0  0  0  0  0
    4.4656    0.6738   -2.1860 H   0  0  0  0  0  0  0  0  0  0  0  0
    0.8263   -0.3107    0.9738 C   0  0  0  0  0  0  0  0  0  0  0  0
    2.0309   -0.3564    1.1868 O   0  0  0  0  0  0  0  0  0  0  0  0
   -0.0072    0.2267    1.9379 N   0  0  0  0  0  0  0  0  0  0  0  0
   -1.0017    0.1253    1.7649 H   0  0  0  0  0  0  0  0  0  0  0  0
    0.4412    0.4988    3.2977 C   0  0  0  0  0  0  0  0  0  0  0  0
    1.2740    1.2101    3.2925 H   0  0  0  0  0  0  0  0  0  0  0  0
   -0.3742    0.9292    3.8866 H   0  0  0  0  0  0  0  0  0  0  0  0
    0.7711   -0.4259    3.7830 H   0  0  0  0  0  0  0  0  0  0  0  0
  1  2  1  0  0  0  0
  2  3  1  0  0  0  0
  2  4  1  0  0  0  0
  2  5  1  0  0  0  0
  5  6  2  0  0  0  0
  5  7  1  0  0  0  0
  7  8  1  0  0  0  0
  7  9  1  0  0  0  0
  9 10  1  0  0  0  0
  9 11  1  0  0  0  0
  9 21  1  0  0  0  0
 11 12  1  0  0  0  0
 11 13  1  0  0  0  0
 11 14  1  0  0  0  0
 14 15  1  0  0  0  0
 14 16  1  0  0  0  0
 14 17  1  0  0  0  0
 17 18  2  0  0  0  0
 17 19  1  0  0  0  0
 19 20  1  0  0  0  0
 21 22  2  0  0  0  0
 21 23  1  0  0  0  0
 23 24  1  0  0  0  0
 23 25  1  0  0  0  0
 25 26  1  0  0  0  0
 25 27  1  0  0  0  0
 25 28  1  0  0  0  0
M  END
$$$$

  -OEChem-02102214123D

 28 27  0     1  0  0  0  0  0999 V2000
   -2.6556   -4.1359    0.3198 H   0  0  0  0  0  0  0  0  0  0  0  0
   -2.6214   -3.1626   -0.1782 C   0  0  0  0  0  0  0  0  0  0  0  0
   -3.4467   -2.5499    0.1920 H   0  0  0  0  0  0  0  0  0  0  0  0
   -2.7410   -3.3145   -1.2537 H   0  0  0  0  0  0  0  0  0  0  0  0
   -1.2979   -2.4777    0.1056 C   0  0  0  0  0  0  0  0  0  0  0  0
   -0.4869   -3.0109    0.8398 O   0  0  0  0  0  0  0  0  0  0  0  0
   -1.0337   -1.2449   -0.4598 N   0  0  0  0  0  0  0  0  0  0  0  0
   -1.7030   -0.9259   -1.1537 H   0  0  0  0  0  0  0  0  0  0  0  0
    0.2896   -0.5904   -0.4346 C   0  0  1  0  0  0  0  0  0  0  0  0
    1.0173   -1.2491   -0.9225 H   0  0  0  0  0  0  0  0  0  0  0  0
    0.1521    0.7079   -1.2611 C   0  0  0  0  0  0  0  0  0  0  0  0
   -0.2033    0.4671   -2.2689 H   0  0  0  0  0  0  0  0  0  0  0  0
   -0.6132    1.3325   -0.7887 H   0  0  0  0  0  0  0  0  0  0  0  0
    1.4494    1.5460   -1.3581 C   0  0  0  0  0  0  0  0  0  0  0  0
    1.1893    2.5394   -1.7327 H   0  0  0  0  0  0  0  0  0  0  0  0
    1.8998    1.6890   -0.3728 H   0  0  0  0  0  0  0  0  0  0  0  0
    2.5060    0.9737   -2.3060 C   0  0  0  0  0  0  0  0  0  0  0  0
    2.2329    0.0220   -3.0208 O   0  0  0  0  0  0  0  0  0  0  0  0
    3.7094    1.5904   -2.3170 O   0  0  0  0  0  0  0  0  0  0  0  0
    4.2594    1.0880   -2.9366 H   0  0  0  0  0  0  0  0  0  0  0  0
    0.8207   -0.3167    0.9935 C   0  0  0  0  0  0  0  0  0  0  0  0
    2.0211   -0.3817    1.2250 O   0  0  0  0  0  0  0  0  0  0  0  0
   -0.0213    0.2177    1.9518 N   0  0  0  0  0  0  0  0  0  0  0  0
   -1.0141    0.1243    1.7655 H   0  0  0  0  0  0  0  0  0  0  0  0
    0.4117    0.4693    3.3204 C   0  0  0  0  0  0  0  0  0  0  0  0
    1.2501    1.1736    3.3340 H   0  0  0  0  0  0  0  0  0  0  0  0
   -0.4076    0.8990    3.9045 H   0  0  0  0  0  0  0  0  0  0  0  0
    0.7284   -0.4639    3.7980 H   0  0  0  0  0  0  0  0  0  0  0  0
  1  2  1  0  0  0  0
  2  3  1  0  0  0  0
  2  4  1  0  0  0  0
  2  5  1  0  0  0  0
  5  6  2  0  0  0  0
  5  7  1  0  0  0  0
  7  8  1  0  0  0  0
  7  9  1  0  0  0  0
  9 10  1  0  0  0  0
  9 11  1  0  0  0  0
  9 21  1  0  0  0  0
 11 12  1  0  0  0  0
 11 13  1  0  0  0  0
 11 14  1  0  0  0  0
 14 15  1  0  0  0  0
 14 16  1  0  0  0  0
 14 17  1  0  0  0  0
 17 18  2  0  0  0  0
 17 19  1  0  0  0  0
 19 20  1  0  0  0  0
 21 22  2  0  0  0  0
 21 23  1  0  0  0  0
 23 24  1  0  0  0  0
 23 25  1  0  0  0  0
 25 26  1  0  0  0  0
 25 27  1  0  0  0  0
 25 28  1  0  0  0  0
M  END
$$$$

  -OEChem-02102214123D

 28 27  0     1  0  0  0  0  0999 V2000
   -2.6570   -4.1281    0.2849 H   0  0  0  0  0  0  0  0  0  0  0  0
   -2.6299   -3.1373   -0.1774 C   0  0  0  0  0  0  0  0  0  0  0  0
   -3.4464   -2.5366    0.2299 H   0  0  0  0  0  0  0  0  0  0  0  0
   -2.7701   -3.2504   -1.2550 H   0  0  0  0  0  0  0  0  0  0  0  0
   -1.2993   -2.4663    0.1065 C   0  0  0  0  0  0  0  0  0  0  0  0
   -0.4939   -3.0095    0.8395 O   0  0  0  0  0  0  0  0  0  0  0  0
   -1.0208   -1.2369   -0.4595 N   0  0  0  0  0  0  0  0  0  0  0  0
   -1.6863   -0.9097   -1.1532 H   0  0  0  0  0  0  0  0  0  0  0  0
    0.3075   -0.5920   -0.4255 C   0  0  1  0  0  0  0  0  0  0  0  0
    1.0385   -1.2520   -0.9069 H   0  0  0  0  0  0  0  0  0  0  0  0
    0.1816    0.7032   -1.2581 C   0  0  0  0  0  0  0  0  0  0  0  0
   -0.1879    0.4681   -2.2621 H   0  0  0  0  0  0  0  0  0  0  0  0
   -0.5769    1.3320   -0.7798 H   0  0  0  0  0  0  0  0  0  0  0  0
    1.4838    1.5378   -1.3529 C   0  0  0  0  0  0  0  0  0  0  0  0
    1.2029    2.5864   -1.4837 H   0  0  0  0  0  0  0  0  0  0  0  0
    2.0722    1.4838   -0.4350 H   0  0  0  0  0  0  0  0  0  0  0  0
    2.3836    1.1732   -2.5361 C   0  0  0  0  0  0  0  0  0  0  0  0
    2.1562    0.1675   -3.1898 O   0  0  0  0  0  0  0  0  0  0  0  0
    3.4052    2.0179   -2.8043 O   0  0  0  0  0  0  0  0  0  0  0  0
    3.8830    1.6273   -3.5516 H   0  0  0  0  0  0  0  0  0  0  0  0
    0.8185   -0.3237    1.0124 C   0  0  0  0  0  0  0  0  0  0  0  0
    2.0108   -0.4200    1.2734 O   0  0  0  0  0  0  0  0  0  0  0  0
   -0.0349    0.2160    1.9578 N   0  0  0  0  0  0  0  0  0  0  0  0
   -1.0246    0.1403    1.7485 H   0  0  0  0  0  0  0  0  0  0  0  0
    0.3711    0.4396    3.3398 C   0  0  0  0  0  0  0  0  0  0  0  0
    1.2191    1.1314    3.3836 H   0  0  0  0  0  0  0  0  0  0  0  0
   -0.4550    0.8718    3.9122 H   0  0  0  0  0  0  0  0  0  0  0  0
    0.6638   -0.5056    3.8095 H   0  0  0  0  0  0  0  0  0  0  0  0
  1  2  1  0  0  0  0
  2  3  1  0  0  0  0
  2  4  1  0  0  0  0
  2  5  1  0  0  0  0
  5  6  2  0  0  0  0
  5  7  1  0  0  0  0
  7  8  1  0  0  0  0
  7  9  1  0  0  0  0
  9 10  1  0  0  0  0
  9 11  1  0  0  0  0
  9 21  1  0  0  0  0
 11 12  1  0  0  0  0
 11 13  1  0  0  0  0
 11 14  1  0  0  0  0
 14 15  1  0  0  0  0
 14 16  1  0  0  0  0
 14 17  1  0  0  0  0
 17 18  2  0  0  0  0
 17 19  1  0  0  0  0
 19 20  1  0  0  0  0
 21 22  2  0  0  0  0
 21 23  1  0  0  0  0
 23 24  1  0  0  0  0
 23 25  1  0  0  0  0
 25 26  1  0  0  0  0
 25 27  1  0  0  0  0
 25 28  1  0  0  0  0
M  END
$$$$

  -OEChem-02102214123D

 28 27  0     1  0  0  0  0  0999 V2000
   -2.7151   -4.0767    0.3274 H   0  0  0  0  0  0  0  0  0  0  0  0
   -2.6485   -3.1115   -0.1832 C   0  0  0  0  0  0  0  0  0  0  0  0
   -3.4575   -2.4691    0.1727 H   0  0  0  0  0  0  0  0  0  0  0  0
   -2.7655   -3.2748   -1.2573 H   0  0  0  0  0  0  0  0  0  0  0  0
   -1.3067   -2.4631    0.1009 C   0  0  0  0  0  0  0  0  0  0  0  0
   -0.5115   -3.0183    0.8360 O   0  0  0  0  0  0  0  0  0  0  0  0
   -1.0076   -1.2388   -0.4657 N   0  0  0  0  0  0  0  0  0  0  0  0
   -1.6677   -0.8999   -1.1589 H   0  0  0  0  0  0  0  0  0  0  0  0
    0.3274   -0.6081   -0.4229 C   0  0  1  0  0  0  0  0  0  0  0  0
    1.0571   -1.2708   -0.9026 H   0  0  0  0  0  0  0  0  0  0  0  0
    0.2115    0.6936   -1.2456 C   0  0  0  0  0  0  0  0  0  0  0  0
   -0.1625    0.4627   -2.2488 H   0  0  0  0  0  0  0  0  0  0  0  0
   -0.5446    1.3241   -0.7657 H   0  0  0  0  0  0  0  0  0  0  0  0
    1.5191    1.5230   -1.3365 C   0  0  0  0  0  0  0  0  0  0  0  0
    1.2676    2.5748   -1.1737 H   0  0  0  0  0  0  0  0  0  0  0  0
    2.2355    1.2461   -0.5611 H   0  0  0  0  0  0  0  0  0  0  0  0
    2.2271    1.4281   -2.6887 C   0  0  0  0  0  0  0  0  0  0  0  0
    2.0908    0.4276   -3.3744 O   0  0  0  0  0  0  0  0  0  0  0  0
    2.9817    2.4875   -3.0603 O   0  0  0  0  0  0  0  0  0  0  0  0
    3.3709    2.2491   -3.9153 H   0  0  0  0  0  0  0  0  0  0  0  0
    0.8257   -0.3430    1.0208 C   0  0  0  0  0  0  0  0  0  0  0  0
    2.0120   -0.4597    1.2997 O   0  0  0  0  0  0  0  0  0  0  0  0
   -0.0326    0.2075    1.9554 N   0  0  0  0  0  0  0  0  0  0  0  0
   -1.0205    0.1518    1.7319 H   0  0  0  0  0  0  0  0  0  0  0  0
    0.3586    0.4332    3.3412 C   0  0  0  0  0  0  0  0  0  0  0  0
    1.2176    1.1107    3.3920 H   0  0  0  0  0  0  0  0  0  0  0  0
   -0.4677    0.8836    3.8993 H   0  0  0  0  0  0  0  0  0  0  0  0
    0.6286   -0.5136    3.8211 H   0  0  0  0  0  0  0  0  0  0  0  0
  1  2  1  0  0  0  0
  2  3  1  0  0  0  0
  2  4  1  0  0  0  0
  2  5  1  0  0  0  0
  5  6  2  0  0  0  0
  5  7  1  0  0  0  0
  7  8  1  0  0  0  0
  7  9  1  0  0  0  0
  9 10  1  0  0  0  0
  9 11  1  0  0  0  0
  9 21  1  0  0  0  0
 11 12  1  0  0  0  0
 11 13  1  0  0  0  0
 11 14  1  0  0  0  0
 14 15  1  0  0  0  0
 14 16  1  0  0  0  0
 14 17  1  0  0  0  0
 17 18  2  0  0  0  0
 17 19  1  0  0  0  0
 19 20  1  0  0  0  0
 21 22  2  0  0  0  0
 21 23  1  0  0  0  0
 23 24  1  0  0  0  0
 23 25  1  0  0  0  0
 25 26  1  0  0  0  0
 25 27  1  0  0  0  0
 25 28  1  0  0  0  0
M  END
$$$$

  -OEChem-02102214123D

 28 27  0     1  0  0  0  0  0999 V2000
   -2.7644   -4.0293    0.3623 H   0  0  0  0  0  0  0  0  0  0  0  0
   -2.6658   -3.0924   -0.1936 C   0  0  0  0  0  0  0  0  0  0  0  0
   -3.4729   -2.4197    0.1060 H   0  0  0  0  0  0  0  0  0  0  0  0
   -2.7549   -3.3068   -1.2614 H   0  0  0  0  0  0  0  0  0  0  0  0
   -1.3209   -2.4532    0.0962 C   0  0  0  0  0  0  0  0  0  0  0  0
   -0.5295   -3.0156    0.8298 O   0  0  0  0  0  0  0  0  0  0  0  0
   -1.0109   -1.2317   -0.4702 N   0  0  0  0  0  0  0  0  0  0  0  0
   -1.6698   -0.8843   -1.1603 H   0  0  0  0  0  0  0  0  0  0  0  0
    0.3288   -0.6114   -0.4256 C   0  0  1  0  0  0  0  0  0  0  0  0
    1.0537   -1.2794   -0.9053 H   0  0  0  0  0  0  0  0  0  0  0  0
    0.2270    0.6944   -1.2413 C   0  0  0  0  0  0  0  0  0  0  0  0
   -0.1280    0.4516   -2.2486 H   0  0  0  0  0  0  0  0  0  0  0  0
   -0.5337    1.3354   -0.7831 H   0  0  0  0  0  0  0  0  0  0  0  0
    1.5487    1.5010   -1.3193 C   0  0  0  0  0  0  0  0  0  0  0  0
    1.3943    2.4823   -0.8614 H   0  0  0  0  0  0  0  0  0  0  0  0
    2.3490    1.0087   -0.7622 H   0  0  0  0  0  0  0  0  0  0  0  0
    2.0589    1.7013   -2.7457 C   0  0  0  0  0  0  0  0  0  0  0  0
    2.0329    0.7628   -3.5252 O   0  0  0  0  0  0  0  0  0  0  0  0
    2.5117    2.9324   -3.0770 O   0  0  0  0  0  0  0  0  0  0  0  0
    2.8087    2.8663   -3.9972 H   0  0  0  0  0  0  0  0  0  0  0  0
    0.8308   -0.3473    1.0175 C   0  0  0  0  0  0  0  0  0  0  0  0
    2.0174   -0.4676    1.2938 O   0  0  0  0  0  0  0  0  0  0  0  0
   -0.0222    0.2117    1.9522 N   0  0  0  0  0  0  0  0  0  0  0  0
   -1.0109    0.1567    1.7327 H   0  0  0  0  0  0  0  0  0  0  0  0
    0.3733    0.4398    3.3365 C   0  0  0  0  0  0  0  0  0  0  0  0
    1.2334    1.1160    3.3837 H   0  0  0  0  0  0  0  0  0  0  0  0
   -0.4507    0.8926    3.8960 H   0  0  0  0  0  0  0  0  0  0  0  0
    0.6427   -0.5065    3.8177 H   0  0  0  0  0  0  0  0  0  0  0  0
  1  2  1  0  0  0  0
  2  3  1  0  0  0  0
  2  4  1  0  0  0  0
  2  5  1  0  0  0  0
  5  6  2  0  0  0  0
  5  7  1  0  0  0  0
  7  8  1  0  0  0  0
  7  9  1  0  0  0  0
  9 10  1  0  0  0  0
  9 11  1  0  0  0  0
  9 21  1  0  0  0  0
 11 12  1  0  0  0  0
 11 13  1  0  0  0  0
 11 14  1  0  0  0  0
 14 15  1  0  0  0  0
 14 16  1  0  0  0  0
 14 17  1  0  0  0  0
 17 18  2  0  0  0  0
 17 19  1  0  0  0  0
 19 20  1  0  0  0  0
 21 22  2  0  0  0  0
 21 23  1  0  0  0  0
 23 24  1  0  0  0  0
 23 25  1  0  0  0  0
 25 26  1  0  0  0  0
 25 27  1  0  0  0  0
 25 28  1  0  0  0  0
M  END
$$$$

  -OEChem-02102214123D

 28 27  0     1  0  0  0  0  0999 V2000
   -2.5978   -4.1320    0.3503 H   0  0  0  0  0  0  0  0  0  0  0  0
   -2.5539   -3.1876   -0.1997 C   0  0  0  0  0  0  0  0  0  0  0  0
   -3.3790   -2.5513    0.1288 H   0  0  0  0  0  0  0  0  0  0  0  0
   -2.6648   -3.3972   -1.2663 H   0  0  0  0  0  0  0  0  0  0  0  0
   -1.2282   -2.4964    0.0568 C   0  0  0  0  0  0  0  0  0  0  0  0
   -0.3839   -3.0410    0.7437 O   0  0  0  0  0  0  0  0  0  0  0  0
   -0.9904   -1.2500   -0.4896 N   0  0  0  0  0  0  0  0  0  0  0  0
   -1.6952   -0.8989   -1.1314 H   0  0  0  0  0  0  0  0  0  0  0  0
    0.3107   -0.5545   -0.4385 C   0  0  1  0  0  0  0  0  0  0  0  0
    1.0683   -1.1752   -0.9303 H   0  0  0  0  0  0  0  0  0  0  0  0
    0.1402    0.7585   -1.2268 C   0  0  0  0  0  0  0  0  0  0  0  0
   -0.1630    0.4915   -2.2453 H   0  0  0  0  0  0  0  0  0  0  0  0
   -0.6680    1.3564   -0.7920 H   0  0  0  0  0  0  0  0  0  0  0  0
    1.4236    1.6226   -1.2793 C   0  0  0  0  0  0  0  0  0  0  0  0
    1.3511    2.4464   -0.5642 H   0  0  0  0  0  0  0  0  0  0  0  0
    2.2891    1.0183   -0.9912 H   0  0  0  0  0  0  0  0  0  0  0  0
    1.7216    2.1820   -2.6697 C   0  0  0  0  0  0  0  0  0  0  0  0
    0.7977    2.6145   -3.3401 O   0  0  0  0  0  0  0  0  0  0  0  0
    3.0075    2.1747   -3.0891 O   0  0  0  0  0  0  0  0  0  0  0  0
    3.0041    2.5694   -3.9739 H   0  0  0  0  0  0  0  0  0  0  0  0
    0.8093   -0.2818    1.0029 C   0  0  0  0  0  0  0  0  0  0  0  0
    2.0055   -0.3208    1.2591 O   0  0  0  0  0  0  0  0  0  0  0  0
   -0.0648    0.2140    1.9534 N   0  0  0  0  0  0  0  0  0  0  0  0
   -1.0521    0.1168    1.7424 H   0  0  0  0  0  0  0  0  0  0  0  0
    0.3357    0.4749    3.3304 C   0  0  0  0  0  0  0  0  0  0  0  0
    1.1410    1.2166    3.3614 H   0  0  0  0  0  0  0  0  0  0  0  0
   -0.5111    0.8627    3.9043 H   0  0  0  0  0  0  0  0  0  0  0  0
    0.6870   -0.4461    3.8078 H   0  0  0  0  0  0  0  0  0  0  0  0
  1  2  1  0  0  0  0
  2  3  1  0  0  0  0
  2  4  1  0  0  0  0
  2  5  1  0  0  0  0
  5  6  2  0  0  0  0
  5  7  1  0  0  0  0
  7  8  1  0  0  0  0
  7  9  1  0  0  0  0
  9 10  1  0  0  0  0
  9 11  1  0  0  0  0
  9 21  1  0  0  0  0
 11 12  1  0  0  0  0
 11 13  1  0  0  0  0
 11 14  1  0  0  0  0
 14 15  1  0  0  0  0
 14 16  1  0  0  0  0
 14 17  1  0  0  0  0
 17 18  2  0  0  0  0
 17 19  1  0  0  0  0
 19 20  1  0  0  0  0
 21 22  2  0  0  0  0
 21 23  1  0  0  0  0
 23 24  1  0  0  0  0
 23 25  1  0  0  0  0
 25 26  1  0  0  0  0
 25 27  1  0  0  0  0
 25 28  1  0  0  0  0
M  END
$$$$

  -OEChem-02102214123D

 28 27  0     1  0  0  0  0  0999 V2000
   -2.6013   -4.1559    0.3158 H   0  0  0  0  0  0  0  0  0  0  0  0
   -2.5793   -3.1857   -0.1888 C   0  0  0  0  0  0  0  0  0  0  0  0
   -3.3929   -2.5692    0.2008 H   0  0  0  0  0  0  0  0  0  0  0  0
   -2.7296   -3.3443   -1.2594 H   0  0  0  0  0  0  0  0  0  0  0  0
   -1.2465   -2.5026    0.0530 C   0  0  0  0  0  0  0  0  0  0  0  0
   -0.3969   -3.0525    0.7292 O   0  0  0  0  0  0  0  0  0  0  0  0
   -1.0082   -1.2560   -0.4921 N   0  0  0  0  0  0  0  0  0  0  0  0
   -1.7179   -0.8961   -1.1234 H   0  0  0  0  0  0  0  0  0  0  0  0
    0.2929   -0.5620   -0.4398 C   0  0  1  0  0  0  0  0  0  0  0  0
    1.0475   -1.1888   -0.9287 H   0  0  0  0  0  0  0  0  0  0  0  0
    0.1343    0.7469   -1.2354 C   0  0  0  0  0  0  0  0  0  0  0  0
   -0.1504    0.4765   -2.2582 H   0  0  0  0  0  0  0  0  0  0  0  0
   -0.6749    1.3537   -0.8150 H   0  0  0  0  0  0  0  0  0  0  0  0
    1.4277    1.5922   -1.2740 C   0  0  0  0  0  0  0  0  0  0  0  0
    1.4768    2.2430   -0.3963 H   0  0  0  0  0  0  0  0  0  0  0  0
    2.2954    0.9260   -1.2358 H   0  0  0  0  0  0  0  0  0  0  0  0
    1.5724    2.4391   -2.5382 C   0  0  0  0  0  0  0  0  0  0  0  0
    0.5698    2.8048   -3.1314 O   0  0  0  0  0  0  0  0  0  0  0  0
    2.8274    2.7510   -2.9342 O   0  0  0  0  0  0  0  0  0  0  0  0
    2.7310    3.2902   -3.7333 H   0  0  0  0  0  0  0  0  0  0  0  0
    0.8008   -0.2863    0.9968 C   0  0  0  0  0  0  0  0  0  0  0  0
    2.0006   -0.3128    1.2382 O   0  0  0  0  0  0  0  0  0  0  0  0
   -0.0653    0.2125    1.9530 N   0  0  0  0  0  0  0  0  0  0  0  0
   -1.0548    0.1134    1.7524 H   0  0  0  0  0  0  0  0  0  0  0  0
    0.3495    0.4840    3.3238 C   0  0  0  0  0  0  0  0  0  0  0  0
    1.1539    1.2271    3.3415 H   0  0  0  0  0  0  0  0  0  0  0  0
   -0.4921    0.8743    3.9039 H   0  0  0  0  0  0  0  0  0  0  0  0
    0.7078   -0.4332    3.8030 H   0  0  0  0  0  0  0  0  0  0  0  0
  1  2  1  0  0  0  0
  2  3  1  0  0  0  0
  2  4  1  0  0  0  0
  2  5  1  0  0  0  0
  5  6  2  0  0  0  0
  5  7  1  0  0  0  0
  7  8  1  0  0  0  0
  7  9  1  0  0  0  0
  9 10  1  0  0  0  0
  9 11  1  0  0  0  0
  9 21  1  0  0  0  0
 11 12  1  0  0  0  0
 11 13  1  0  0  0  0
 11 14  1  0  0  0  0
 14 15  1  0  0  0  0
 14 16  1  0  0  0  0
 14 17  1  0  0  0  0
 17 18  2  0  0  0  0
 17 19  1  0  0  0  0
 19 20  1  0  0  0  0
 21 22  2  0  0  0  0
 21 23  1  0  0  0  0
 23 24  1  0  0  0  0
 23 25  1  0  0  0  0
 25 26  1  0  0  0  0
 25 27  1  0  0  0  0
 25 28  1  0  0  0  0
M  END
$$$$

  -OEChem-02102214123D

 28 27  0     1  0  0  0  0  0999 V2000
   -2.6254   -4.1491    0.3057 H   0  0  0  0  0  0  0  0  0  0  0  0
   -2.5998   -3.1732   -0.1875 C   0  0  0  0  0  0  0  0  0  0  0  0
   -3.4061   -2.5552    0.2147 H   0  0  0  0  0  0  0  0  0  0  0  0
   -2.7586   -3.3177   -1.2588 H   0  0  0  0  0  0  0  0  0  0  0  0
   -1.2604   -2.5026    0.0525 C   0  0  0  0  0  0  0  0  0  0  0  0
   -0.4135   -3.0613    0.7249 O   0  0  0  0  0  0  0  0  0  0  0  0
   -1.0128   -1.2566   -0.4901 N   0  0  0  0  0  0  0  0  0  0  0  0
   -1.7245   -0.8844   -1.1122 H   0  0  0  0  0  0  0  0  0  0  0  0
    0.2923   -0.5698   -0.4345 C   0  0  1  0  0  0  0  0  0  0  0  0
    1.0439   -1.2028   -0.9199 H   0  0  0  0  0  0  0  0  0  0  0  0
    0.1441    0.7344   -1.2398 C   0  0  0  0  0  0  0  0  0  0  0  0
   -0.1377    0.4690   -2.2649 H   0  0  0  0  0  0  0  0  0  0  0  0
   -0.6625    1.3443   -0.8187 H   0  0  0  0  0  0  0  0  0  0  0  0
    1.4400    1.5733   -1.2774 C   0  0  0  0  0  0  0  0  0  0  0  0
    1.6118    2.0422   -0.3043 H   0  0  0  0  0  0  0  0  0  0  0  0
    2.2896    0.9144   -1.4803 H   0  0  0  0  0  0  0  0  0  0  0  0
    1.4339    2.6666   -2.3461 C   0  0  0  0  0  0  0  0  0  0  0  0
    0.3802    2.9950   -2.8686 O   0  0  0  0  0  0  0  0  0  0  0  0
    2.6246    3.2268   -2.6573 O   0  0  0  0  0  0  0  0  0  0  0  0
    2.4389    3.8937   -3.3351 H   0  0  0  0  0  0  0  0  0  0  0  0
    0.8019   -0.2971    1.0013 C   0  0  0  0  0  0  0  0  0  0  0  0
    2.0022   -0.3254    1.2395 O   0  0  0  0  0  0  0  0  0  0  0  0
   -0.0603    0.2063    1.9584 N   0  0  0  0  0  0  0  0  0  0  0  0
   -1.0506    0.1156    1.7581 H   0  0  0  0  0  0  0  0  0  0  0  0
    0.3581    0.4795    3.3276 C   0  0  0  0  0  0  0  0  0  0  0  0
    1.1673    1.2174    3.3417 H   0  0  0  0  0  0  0  0  0  0  0  0
   -0.4798    0.8774    3.9078 H   0  0  0  0  0  0  0  0  0  0  0  0
    0.7109   -0.4386    3.8094 H   0  0  0  0  0  0  0  0  0  0  0  0
  1  2  1  0  0  0  0
  2  3  1  0  0  0  0
  2  4  1  0  0  0  0
  2  5  1  0  0  0  0
  5  6  2  0  0  0  0
  5  7  1  0  0  0  0
  7  8  1  0  0  0  0
  7  9  1  0  0  0  0
  9 10  1  0  0  0  0
  9 11  1  0  0  0  0
  9 21  1  0  0  0  0
 11 12  1  0  0  0  0
 11 13  1  0  0  0  0
 11 14  1  0  0  0  0
 14 15  1  0  0  0  0
 14 16  1  0  0  0  0
 14 17  1  0  0  0  0
 17 18  2  0  0  0  0
 17 19  1  0  0  0  0
 19 20  1  0  0  0  0
 21 22  2  0  0  0  0
 21 23  1  0  0  0  0
 23 24  1  0  0  0  0
 23 25  1  0  0  0  0
 25 26  1  0  0  0  0
 25 27  1  0  0  0  0
 25 28  1  0  0  0  0
M  END
$$$$

  -OEChem-02102214123D

 28 27  0     1  0  0  0  0  0999 V2000
   -2.6241   -4.1649    0.2905 H   0  0  0  0  0  0  0  0  0  0  0  0
   -2.6159   -3.1737   -0.1719 C   0  0  0  0  0  0  0  0  0  0  0  0
   -3.4141   -2.5727    0.2702 H   0  0  0  0  0  0  0  0  0  0  0  0
   -2.8018   -3.2851   -1.2428 H   0  0  0  0  0  0  0  0  0  0  0  0
   -1.2742   -2.5036    0.0554 C   0  0  0  0  0  0  0  0  0  0  0  0
   -0.4225   -3.0606    0.7231 O   0  0  0  0  0  0  0  0  0  0  0  0
   -1.0309   -1.2580   -0.4893 N   0  0  0  0  0  0  0  0  0  0  0  0
   -1.7474   -0.8850   -1.1051 H   0  0  0  0  0  0  0  0  0  0  0  0
    0.2742   -0.5713   -0.4413 C   0  0  1  0  0  0  0  0  0  0  0  0
    1.0142   -1.2145   -0.9311 H   0  0  0  0  0  0  0  0  0  0  0  0
    0.1347    0.7314   -1.2497 C   0  0  0  0  0  0  0  0  0  0  0  0
   -0.3905    0.5177   -2.1870 H   0  0  0  0  0  0  0  0  0  0  0  0
   -0.4710    1.4483   -0.6839 H   0  0  0  0  0  0  0  0  0  0  0  0
    1.5004    1.3632   -1.5937 C   0  0  0  0  0  0  0  0  0  0  0  0
    2.0480    1.5882   -0.6740 H   0  0  0  0  0  0  0  0  0  0  0  0
    2.0985    0.6501   -2.1679 H   0  0  0  0  0  0  0  0  0  0  0  0
    1.3937    2.6599   -2.3978 C   0  0  0  0  0  0  0  0  0  0  0  0
    0.2953    3.0939   -2.7086 O   0  0  0  0  0  0  0  0  0  0  0  0
    2.5547    3.2658   -2.7349 O   0  0  0  0  0  0  0  0  0  0  0  0
    2.3082    4.0621   -3.2289 H   0  0  0  0  0  0  0  0  0  0  0  0
    0.8006   -0.2939    0.9870 C   0  0  0  0  0  0  0  0  0  0  0  0
    2.0033   -0.3242    1.2124 O   0  0  0  0  0  0  0  0  0  0  0  0
   -0.0512    0.2127    1.9517 N   0  0  0  0  0  0  0  0  0  0  0  0
   -1.0435    0.1208    1.7623 H   0  0  0  0  0  0  0  0  0  0  0  0
    0.3808    0.4875    3.3163 C   0  0  0  0  0  0  0  0  0  0  0  0
    1.1951    1.2199    3.3207 H   0  0  0  0  0  0  0  0  0  0  0  0
   -0.4492    0.8932    3.9022 H   0  0  0  0  0  0  0  0  0  0  0  0
    0.7313   -0.4314    3.7980 H   0  0  0  0  0  0  0  0  0  0  0  0
  1  2  1  0  0  0  0
  2  3  1  0  0  0  0
  2  4  1  0  0  0  0
  2  5  1  0  0  0  0
  5  6  2  0  0  0  0
  5  7  1  0  0  0  0
  7  8  1  0  0  0  0
  7  9  1  0  0  0  0
  9 10  1  0  0  0  0
  9 11  1  0  0  0  0
  9 21  1  0  0  0  0
 11 12  1  0  0  0  0
 11 13  1  0  0  0  0
 11 14  1  0  0  0  0
 14 15  1  0  0  0  0
 14 16  1  0  0  0  0
 14 17  1  0  0  0  0
 17 18  2  0  0  0  0
 17 19  1  0  0  0  0
 19 20  1  0  0  0  0
 21 22  2  0  0  0  0
 21 23  1  0  0  0  0
 23 24  1  0  0  0  0
 23 25  1  0  0  0  0
 25 26  1  0  0  0  0
 25 27  1  0  0  0  0
 25 28  1  0  0  0  0
M  END
$$$$

  -OEChem-02102214123D

 28 27  0     1  0  0  0  0  0999 V2000
   -2.6356   -4.1489    0.3091 H   0  0  0  0  0  0  0  0  0  0  0  0
   -2.6229   -3.1586   -0.1553 C   0  0  0  0  0  0  0  0  0  0  0  0
   -3.4139   -2.5513    0.2909 H   0  0  0  0  0  0  0  0  0  0  0  0
   -2.8163   -3.2704   -1.2249 H   0  0  0  0  0  0  0  0  0  0  0  0
   -1.2748   -2.4981    0.0628 C   0  0  0  0  0  0  0  0  0  0  0  0
   -0.4232   -3.0620    0.7247 O   0  0  0  0  0  0  0  0  0  0  0  0
   -1.0236   -1.2561   -0.4873 N   0  0  0  0  0  0  0  0  0  0  0  0
   -1.7419   -0.8764   -1.0968 H   0  0  0  0  0  0  0  0  0  0  0  0
    0.2858   -0.5766   -0.4429 C   0  0  1  0  0  0  0  0  0  0  0  0
    1.0245   -1.2234   -0.9301 H   0  0  0  0  0  0  0  0  0  0  0  0
    0.1476    0.7220   -1.2599 C   0  0  0  0  0  0  0  0  0  0  0  0
   -0.3920    0.5212   -2.1917 H   0  0  0  0  0  0  0  0  0  0  0  0
   -0.4491    1.4335   -0.6778 H   0  0  0  0  0  0  0  0  0  0  0  0
    1.5101    1.3571   -1.6172 C   0  0  0  0  0  0  0  0  0  0  0  0
    2.1618    1.3626   -0.7396 H   0  0  0  0  0  0  0  0  0  0  0  0
    2.0034    0.7581   -2.3874 H   0  0  0  0  0  0  0  0  0  0  0  0
    1.4084    2.8041   -2.1023 C   0  0  0  0  0  0  0  0  0  0  0  0
    0.3140    3.2839   -2.3542 O   0  0  0  0  0  0  0  0  0  0  0  0
    2.5687    3.4838   -2.2455 O   0  0  0  0  0  0  0  0  0  0  0  0
    2.3248    4.3691   -2.5546 H   0  0  0  0  0  0  0  0  0  0  0  0
    0.8071   -0.2994    0.9885 C   0  0  0  0  0  0  0  0  0  0  0  0
    2.0064   -0.3534    1.2269 O   0  0  0  0  0  0  0  0  0  0  0  0
   -0.0460    0.2141    1.9485 N   0  0  0  0  0  0  0  0  0  0  0  0
   -1.0379    0.1408    1.7490 H   0  0  0  0  0  0  0  0  0  0  0  0
    0.3769    0.4754    3.3188 C   0  0  0  0  0  0  0  0  0  0  0  0
    1.1994    1.1984    3.3354 H   0  0  0  0  0  0  0  0  0  0  0  0
   -0.4539    0.8870    3.8999 H   0  0  0  0  0  0  0  0  0  0  0  0
    0.7124   -0.4505    3.7981 H   0  0  0  0  0  0  0  0  0  0  0  0
  1  2  1  0  0  0  0
  2  3  1  0  0  0  0
  2  4  1  0  0  0  0
  2  5  1  0  0  0  0
  5  6  2  0  0  0  0
  5  7  1  0  0  0  0
  7  8  1  0  0  0  0
  7  9  1  0  0  0  0
  9 10  1  0  0  0  0
  9 11  1  0  0  0  0
  9 21  1  0  0  0  0
 11 12  1  0  0  0  0
 11 13  1  0  0  0  0
 11 14  1  0  0  0  0
 14 15  1  0  0  0  0
 14 16  1  0  0  0  0
 14 17  1  0  0  0  0
 17 18  2  0  0  0  0
 17 19  1  0  0  0  0
 19 20  1  0  0  0  0
 21 22  2  0  0  0  0
 21 23  1  0  0  0  0
 23 24  1  0  0  0  0
 23 25  1  0  0  0  0
 25 26  1  0  0  0  0
 25 27  1  0  0  0  0
 25 28  1  0  0  0  0
M  END
$$$$

  -OEChem-02102214123D

 28 27  0     1  0  0  0  0  0999 V2000
   -2.6580   -4.1296    0.3408 H   0  0  0  0  0  0  0  0  0  0  0  0
   -2.6302   -3.1504   -0.1461 C   0  0  0  0  0  0  0  0  0  0  0  0
   -3.4174   -2.5235    0.2793 H   0  0  0  0  0  0  0  0  0  0  0  0
   -2.8168   -3.2849   -1.2142 H   0  0  0  0  0  0  0  0  0  0  0  0
   -1.2759   -2.5005    0.0658 C   0  0  0  0  0  0  0  0  0  0  0  0
   -0.4234   -3.0727    0.7193 O   0  0  0  0  0  0  0  0  0  0  0  0
   -1.0190   -1.2614   -0.4877 N   0  0  0  0  0  0  0  0  0  0  0  0
   -1.7422   -0.8726   -1.0854 H   0  0  0  0  0  0  0  0  0  0  0  0
    0.2929   -0.5869   -0.4468 C   0  0  1  0  0  0  0  0  0  0  0  0
    1.0291   -1.2354   -0.9351 H   0  0  0  0  0  0  0  0  0  0  0  0
    0.1517    0.7111   -1.2651 C   0  0  0  0  0  0  0  0  0  0  0  0
   -0.3983    0.5173   -2.1920 H   0  0  0  0  0  0  0  0  0  0  0  0
   -0.4436    1.4139   -0.6711 H   0  0  0  0  0  0  0  0  0  0  0  0
    1.5100    1.3539   -1.6352 C   0  0  0  0  0  0  0  0  0  0  0  0
    2.2527    1.1328   -0.8645 H   0  0  0  0  0  0  0  0  0  0  0  0
    1.8783    0.9228   -2.5699 H   0  0  0  0  0  0  0  0  0  0  0  0
    1.4610    2.8770   -1.7716 C   0  0  0  0  0  0  0  0  0  0  0  0
    0.3921    3.4302   -1.9776 O   0  0  0  0  0  0  0  0  0  0  0  0
    2.6358    3.5405   -1.6812 O   0  0  0  0  0  0  0  0  0  0  0  0
    2.4234    4.4794   -1.7912 H   0  0  0  0  0  0  0  0  0  0  0  0
    0.8155   -0.3079    0.9841 C   0  0  0  0  0  0  0  0  0  0  0  0
    2.0132   -0.3752    1.2261 O   0  0  0  0  0  0  0  0  0  0  0  0
   -0.0349    0.2118    1.9432 N   0  0  0  0  0  0  0  0  0  0  0  0
   -1.0273    0.1563    1.7405 H   0  0  0  0  0  0  0  0  0  0  0  0
    0.3905    0.4845    3.3105 C   0  0  0  0  0  0  0  0  0  0  0  0
    1.2126    1.2082    3.3196 H   0  0  0  0  0  0  0  0  0  0  0  0
   -0.4396    0.9003    3.8896 H   0  0  0  0  0  0  0  0  0  0  0  0
    0.7273   -0.4373    3.7967 H   0  0  0  0  0  0  0  0  0  0  0  0
  1  2  1  0  0  0  0
  2  3  1  0  0  0  0
  2  4  1  0  0  0  0
  2  5  1  0  0  0  0
  5  6  2  0  0  0  0
  5  7  1  0  0  0  0
  7  8  1  0  0  0  0
  7  9  1  0  0  0  0
  9 10  1  0  0  0  0
  9 11  1  0  0  0  0
  9 21  1  0  0  0  0
 11 12  1  0  0  0  0
 11 13  1  0  0  0  0
 11 14  1  0  0  0  0
 14 15  1  0  0  0  0
 14 16  1  0  0  0  0
 14 17  1  0  0  0  0
 17 18  2  0  0  0  0
 17 19  1  0  0  0  0
 19 20  1  0  0  0  0
 21 22  2  0  0  0  0
 21 23  1  0  0  0  0
 23 24  1  0  0  0  0
 23 25  1  0  0  0  0
 25 26  1  0  0  0  0
 25 27  1  0  0  0  0
 25 28  1  0  0  0  0
M  END
$$$$

  -OEChem-02102214123D

 28 27  0     1  0  0  0  0  0999 V2000
   -2.6444   -4.1349    0.3743 H   0  0  0  0  0  0  0  0  0  0  0  0
   -2.6222   -3.1660   -0.1330 C   0  0  0  0  0  0  0  0  0  0  0  0
   -3.4127   -2.5349    0.2801 H   0  0  0  0  0  0  0  0  0  0  0  0
   -2.8086   -3.3238   -1.1979 H   0  0  0  0  0  0  0  0  0  0  0  0
   -1.2715   -2.5046    0.0659 C   0  0  0  0  0  0  0  0  0  0  0  0
   -0.4113   -3.0680    0.7169 O   0  0  0  0  0  0  0  0  0  0  0  0
   -1.0269   -1.2645   -0.4914 N   0  0  0  0  0  0  0  0  0  0  0  0
   -1.7539   -0.8845   -1.0904 H   0  0  0  0  0  0  0  0  0  0  0  0
    0.2823   -0.5838   -0.4589 C   0  0  1  0  0  0  0  0  0  0  0  0
    1.0177   -1.2293   -0.9529 H   0  0  0  0  0  0  0  0  0  0  0  0
    0.1365    0.7196   -1.2673 C   0  0  0  0  0  0  0  0  0  0  0  0
   -0.4118    0.5262   -2.1951 H   0  0  0  0  0  0  0  0  0  0  0  0
   -0.4674    1.4144   -0.6736 H   0  0  0  0  0  0  0  0  0  0  0  0
    1.4981    1.3603   -1.6385 C   0  0  0  0  0  0  0  0  0  0  0  0
    2.3006    0.9112   -1.0469 H   0  0  0  0  0  0  0  0  0  0  0  0
    1.7247    1.1509   -2.6873 H   0  0  0  0  0  0  0  0  0  0  0  0
    1.5682    2.8726   -1.4163 C   0  0  0  0  0  0  0  0  0  0  0  0
    0.5485    3.5401   -1.4899 O   0  0  0  0  0  0  0  0  0  0  0  0
    2.7885    3.4035   -1.1756 O   0  0  0  0  0  0  0  0  0  0  0  0
    2.6493    4.3545   -1.0557 H   0  0  0  0  0  0  0  0  0  0  0  0
    0.8128   -0.3009    0.9684 C   0  0  0  0  0  0  0  0  0  0  0  0
    2.0128   -0.3574    1.2015 O   0  0  0  0  0  0  0  0  0  0  0  0
   -0.0336    0.2158    1.9325 N   0  0  0  0  0  0  0  0  0  0  0  0
   -1.0272    0.1569    1.7370 H   0  0  0  0  0  0  0  0  0  0  0  0
    0.4014    0.5003    3.2942 C   0  0  0  0  0  0  0  0  0  0  0  0
    1.2107    1.2381    3.2919 H   0  0  0  0  0  0  0  0  0  0  0  0
   -0.4293    0.9031    3.8813 H   0  0  0  0  0  0  0  0  0  0  0  0
    0.7600   -0.4136    3.7795 H   0  0  0  0  0  0  0  0  0  0  0  0
  1  2  1  0  0  0  0
  2  3  1  0  0  0  0
  2  4  1  0  0  0  0
  2  5  1  0  0  0  0
  5  6  2  0  0  0  0
  5  7  1  0  0  0  0
  7  8  1  0  0  0  0
  7  9  1  0  0  0  0
  9 10  1  0  0  0  0
  9 11  1  0  0  0  0
  9 21  1  0  0  0  0
 11 12  1  0  0  0  0
 11 13  1  0  0  0  0
 11 14  1  0  0  0  0
 14 15  1  0  0  0  0
 14 16  1  0  0  0  0
 14 17  1  0  0  0  0
 17 18  2  0  0  0  0
 17 19  1  0  0  0  0
 19 20  1  0  0  0  0
 21 22  2  0  0  0  0
 21 23  1  0  0  0  0
 23 24  1  0  0  0  0
 23 25  1  0  0  0  0
 25 26  1  0  0  0  0
 25 27  1  0  0  0  0
 25 28  1  0  0  0  0
M  END
$$$$

  -OEChem-02102214123D

 28 27  0     1  0  0  0  0  0999 V2000
   -2.6296   -4.1752    0.3031 H   0  0  0  0  0  0  0  0  0  0  0  0
   -2.6209   -3.1837   -0.1590 C   0  0  0  0  0  0  0  0  0  0  0  0
   -3.3985   -2.5728    0.3054 H   0  0  0  0  0  0  0  0  0  0  0  0
   -2.8377   -3.2915   -1.2246 H   0  0  0  0  0  0  0  0  0  0  0  0
   -1.2647   -2.5315    0.0319 C   0  0  0  0  0  0  0  0  0  0  0  0
   -0.3958   -3.1094    0.6585 O   0  0  0  0  0  0  0  0  0  0  0  0
   -1.0247   -1.2823   -0.5058 N   0  0  0  0  0  0  0  0  0  0  0  0
   -1.7655   -0.8768   -1.0694 H   0  0  0  0  0  0  0  0  0  0  0  0
    0.2757   -0.5883   -0.4461 C   0  0  1  0  0  0  0  0  0  0  0  0
    1.0208   -1.2247   -0.9373 H   0  0  0  0  0  0  0  0  0  0  0  0
    0.1363    0.7242   -1.2385 C   0  0  0  0  0  0  0  0  0  0  0  0
   -0.3656    0.5117   -2.1882 H   0  0  0  0  0  0  0  0  0  0  0  0
   -0.5155    1.4064   -0.6843 H   0  0  0  0  0  0  0  0  0  0  0  0
    1.5105    1.3672   -1.5688 C   0  0  0  0  0  0  0  0  0  0  0  0
    2.3241    0.7304   -1.2095 H   0  0  0  0  0  0  0  0  0  0  0  0
    1.6141    1.4248   -2.6555 H   0  0  0  0  0  0  0  0  0  0  0  0
    1.7485    2.7753   -1.0129 C   0  0  0  0  0  0  0  0  0  0  0  0
    0.8624    3.3699   -0.4200 O   0  0  0  0  0  0  0  0  0  0  0  0
    2.9698    3.3079   -1.2451 O   0  0  0  0  0  0  0  0  0  0  0  0
    2.9663    4.1762   -0.8152 H   0  0  0  0  0  0  0  0  0  0  0  0
    0.7942   -0.3113    0.9862 C   0  0  0  0  0  0  0  0  0  0  0  0
    1.9955   -0.3444    1.2190 O   0  0  0  0  0  0  0  0  0  0  0  0
   -0.0623    0.1881    1.9503 N   0  0  0  0  0  0  0  0  0  0  0  0
   -1.0535    0.1613    1.7385 H   0  0  0  0  0  0  0  0  0  0  0  0
    0.3662    0.5194    3.3031 C   0  0  0  0  0  0  0  0  0  0  0  0
    1.1545    1.2794    3.2801 H   0  0  0  0  0  0  0  0  0  0  0  0
   -0.4749    0.9138    3.8810 H   0  0  0  0  0  0  0  0  0  0  0  0
    0.7499   -0.3718    3.8110 H   0  0  0  0  0  0  0  0  0  0  0  0
  1  2  1  0  0  0  0
  2  3  1  0  0  0  0
  2  4  1  0  0  0  0
  2  5  1  0  0  0  0
  5  6  2  0  0  0  0
  5  7  1  0  0  0  0
  7  8  1  0  0  0  0
  7  9  1  0  0  0  0
  9 10  1  0  0  0  0
  9 11  1  0  0  0  0
  9 21  1  0  0  0  0
 11 12  1  0  0  0  0
 11 13  1  0  0  0  0
 11 14  1  0  0  0  0
 14 15  1  0  0  0  0
 14 16  1  0  0  0  0
 14 17  1  0  0  0  0
 17 18  2  0  0  0  0
 17 19  1  0  0  0  0
 19 20  1  0  0  0  0
 21 22  2  0  0  0  0
 21 23  1  0  0  0  0
 23 24  1  0  0  0  0
 23 25  1  0  0  0  0
 25 26  1  0  0  0  0
 25 27  1  0  0  0  0
 25 28  1  0  0  0  0
M  END
$$$$

  -OEChem-02102214123D

 28 27  0     1  0  0  0  0  0999 V2000
   -2.6372   -4.1846    0.2850 H   0  0  0  0  0  0  0  0  0  0  0  0
   -2.6308   -3.1891   -0.1680 C   0  0  0  0  0  0  0  0  0  0  0  0
   -3.4025   -2.5809    0.3095 H   0  0  0  0  0  0  0  0  0  0  0  0
   -2.8587   -3.2869   -1.2321 H   0  0  0  0  0  0  0  0  0  0  0  0
   -1.2712   -2.5417    0.0155 C   0  0  0  0  0  0  0  0  0  0  0  0
   -0.3968   -3.1285    0.6259 O   0  0  0  0  0  0  0  0  0  0  0  0
   -1.0329   -1.2883   -0.5131 N   0  0  0  0  0  0  0  0  0  0  0  0
   -1.7795   -0.8720   -1.0608 H   0  0  0  0  0  0  0  0  0  0  0  0
    0.2671   -0.5945   -0.4470 C   0  0  1  0  0  0  0  0  0  0  0  0
    1.0088   -1.2343   -0.9387 H   0  0  0  0  0  0  0  0  0  0  0  0
    0.1386    0.7197   -1.2378 C   0  0  0  0  0  0  0  0  0  0  0  0
   -0.3396    0.4919   -2.1961 H   0  0  0  0  0  0  0  0  0  0  0  0
   -0.5253    1.4146   -0.7138 H   0  0  0  0  0  0  0  0  0  0  0  0
    1.5181    1.3530   -1.5530 C   0  0  0  0  0  0  0  0  0  0  0  0
    2.3126    0.6077   -1.4500 H   0  0  0  0  0  0  0  0  0  0  0  0
    1.5191    1.6777   -2.5968 H   0  0  0  0  0  0  0  0  0  0  0  0
    1.8948    2.5756   -0.7093 C   0  0  0  0  0  0  0  0  0  0  0  0
    1.0854    3.0745    0.0569 O   0  0  0  0  0  0  0  0  0  0  0  0
    3.1418    3.0657   -0.8919 O   0  0  0  0  0  0  0  0  0  0  0  0
    3.2304    3.8004   -0.2668 H   0  0  0  0  0  0  0  0  0  0  0  0
    0.7951   -0.3226    0.9815 C   0  0  0  0  0  0  0  0  0  0  0  0
    2.0000   -0.3475    1.1981 O   0  0  0  0  0  0  0  0  0  0  0  0
   -0.0527    0.1732    1.9547 N   0  0  0  0  0  0  0  0  0  0  0  0
   -1.0442    0.1804    1.7435 H   0  0  0  0  0  0  0  0  0  0  0  0
    0.3972    0.5598    3.2853 C   0  0  0  0  0  0  0  0  0  0  0  0
    1.1666    1.3365    3.2188 H   0  0  0  0  0  0  0  0  0  0  0  0
   -0.4402    0.9538    3.8688 H   0  0  0  0  0  0  0  0  0  0  0  0
    0.8132   -0.3048    3.8132 H   0  0  0  0  0  0  0  0  0  0  0  0
  1  2  1  0  0  0  0
  2  3  1  0  0  0  0
  2  4  1  0  0  0  0
  2  5  1  0  0  0  0
  5  6  2  0  0  0  0
  5  7  1  0  0  0  0
  7  8  1  0  0  0  0
  7  9  1  0  0  0  0
  9 10  1  0  0  0  0
  9 11  1  0  0  0  0
  9 21  1  0  0  0  0
 11 12  1  0  0  0  0
 11 13  1  0  0  0  0
 11 14  1  0  0  0  0
 14 15  1  0  0  0  0
 14 16  1  0  0  0  0
 14 17  1  0  0  0  0
 17 18  2  0  0  0  0
 17 19  1  0  0  0  0
 19 20  1  0  0  0  0
 21 22  2  0  0  0  0
 21 23  1  0  0  0  0
 23 24  1  0  0  0  0
 23 25  1  0  0  0  0
 25 26  1  0  0  0  0
 25 27  1  0  0  0  0
 25 28  1  0  0  0  0
M  END
$$$$

  -OEChem-02102214123D

 28 27  0     1  0  0  0  0  0999 V2000
   -2.6271   -4.1773    0.3023 H   0  0  0  0  0  0  0  0  0  0  0  0
   -2.6207   -3.1866   -0.1612 C   0  0  0  0  0  0  0  0  0  0  0  0
   -3.3925   -2.5736    0.3102 H   0  0  0  0  0  0  0  0  0  0  0  0
   -2.8478   -3.2959   -1.2244 H   0  0  0  0  0  0  0  0  0  0  0  0
   -1.2607   -2.5377    0.0154 C   0  0  0  0  0  0  0  0  0  0  0  0
   -0.3798   -3.1297    0.6112 O   0  0  0  0  0  0  0  0  0  0  0  0
   -1.0270   -1.2808   -0.5081 N   0  0  0  0  0  0  0  0  0  0  0  0
   -1.7780   -0.8621   -1.0479 H   0  0  0  0  0  0  0  0  0  0  0  0
    0.2739   -0.5872   -0.4485 C   0  0  1  0  0  0  0  0  0  0  0  0
    1.0141   -1.2262   -0.9433 H   0  0  0  0  0  0  0  0  0  0  0  0
    0.1377    0.7238   -1.2479 C   0  0  0  0  0  0  0  0  0  0  0  0
   -0.3481    0.4881   -2.2004 H   0  0  0  0  0  0  0  0  0  0  0  0
   -0.5172    1.4266   -0.7219 H   0  0  0  0  0  0  0  0  0  0  0  0
    1.5041    1.3698   -1.5808 C   0  0  0  0  0  0  0  0  0  0  0  0
    2.2567    0.5908   -1.7361 H   0  0  0  0  0  0  0  0  0  0  0  0
    1.4112    1.9224   -2.5195 H   0  0  0  0  0  0  0  0  0  0  0  0
    2.0294    2.3576   -0.5343 C   0  0  0  0  0  0  0  0  0  0  0  0
    1.2468    2.9262    0.2115 O   0  0  0  0  0  0  0  0  0  0  0  0
    3.3635    2.5791   -0.5236 O   0  0  0  0  0  0  0  0  0  0  0  0
    3.5268    3.1721    0.2247 H   0  0  0  0  0  0  0  0  0  0  0  0
    0.8047   -0.3281    0.9814 C   0  0  0  0  0  0  0  0  0  0  0  0
    2.0090   -0.3664    1.1983 O   0  0  0  0  0  0  0  0  0  0  0  0
   -0.0403    0.1593    1.9613 N   0  0  0  0  0  0  0  0  0  0  0  0
   -1.0298    0.1964    1.7439 H   0  0  0  0  0  0  0  0  0  0  0  0
    0.4167    0.5586    3.2857 C   0  0  0  0  0  0  0  0  0  0  0  0
    1.1554    1.3634    3.2076 H   0  0  0  0  0  0  0  0  0  0  0  0
   -0.4245    0.9196    3.8850 H   0  0  0  0  0  0  0  0  0  0  0  0
    0.8734   -0.2911    3.8042 H   0  0  0  0  0  0  0  0  0  0  0  0
  1  2  1  0  0  0  0
  2  3  1  0  0  0  0
  2  4  1  0  0  0  0
  2  5  1  0  0  0  0
  5  6  2  0  0  0  0
  5  7  1  0  0  0  0
  7  8  1  0  0  0  0
  7  9  1  0  0  0  0
  9 10  1  0  0  0  0
  9 11  1  0  0  0  0
  9 21  1  0  0  0  0
 11 12  1  0  0  0  0
 11 13  1  0  0  0  0
 11 14  1  0  0  0  0
 14 15  1  0  0  0  0
 14 16  1  0  0  0  0
 14 17  1  0  0  0  0
 17 18  2  0  0  0  0
 17 19  1  0  0  0  0
 19 20  1  0  0  0  0
 21 22  2  0  0  0  0
 21 23  1  0  0  0  0
 23 24  1  0  0  0  0
 23 25  1  0  0  0  0
 25 26  1  0  0  0  0
 25 27  1  0  0  0  0
 25 28  1  0  0  0  0
M  END
$$$$

  -OEChem-02102214123D

 28 27  0     1  0  0  0  0  0999 V2000
   -2.6185   -4.1576    0.3053 H   0  0  0  0  0  0  0  0  0  0  0  0
   -2.6057   -3.1640   -0.1524 C   0  0  0  0  0  0  0  0  0  0  0  0
   -3.3696   -2.5469    0.3267 H   0  0  0  0  0  0  0  0  0  0  0  0
   -2.8395   -3.2647   -1.2151 H   0  0  0  0  0  0  0  0  0  0  0  0
   -1.2393   -2.5277    0.0212 C   0  0  0  0  0  0  0  0  0  0  0  0
   -0.3607   -3.1299    0.6099 O   0  0  0  0  0  0  0  0  0  0  0  0
   -0.9980   -1.2712   -0.4999 N   0  0  0  0  0  0  0  0  0  0  0  0
   -1.7493   -0.8452   -1.0337 H   0  0  0  0  0  0  0  0  0  0  0  0
    0.3059   -0.5820   -0.4387 C   0  0  1  0  0  0  0  0  0  0  0  0
    1.0504   -1.2196   -0.9290 H   0  0  0  0  0  0  0  0  0  0  0  0
    0.1562    0.7198   -1.2582 C   0  0  0  0  0  0  0  0  0  0  0  0
   -0.3462    0.4749   -2.1998 H   0  0  0  0  0  0  0  0  0  0  0  0
   -0.4881    1.4242   -0.7204 H   0  0  0  0  0  0  0  0  0  0  0  0
    1.4943    1.4026   -1.6224 C   0  0  0  0  0  0  0  0  0  0  0  0
    2.1859    0.6532   -2.0187 H   0  0  0  0  0  0  0  0  0  0  0  0
    1.3161    2.1346   -2.4145 H   0  0  0  0  0  0  0  0  0  0  0  0
    2.1792    2.1374   -0.4700 C   0  0  0  0  0  0  0  0  0  0  0  0
    1.4924    2.7702    0.3171 O   0  0  0  0  0  0  0  0  0  0  0  0
    3.5283    2.0740   -0.4061 O   0  0  0  0  0  0  0  0  0  0  0  0
    3.7734    2.5062    0.4255 H   0  0  0  0  0  0  0  0  0  0  0  0
    0.8189   -0.3356    1.0011 C   0  0  0  0  0  0  0  0  0  0  0  0
    2.0147   -0.4231    1.2482 O   0  0  0  0  0  0  0  0  0  0  0  0
   -0.0365    0.1481    1.9737 N   0  0  0  0  0  0  0  0  0  0  0  0
   -1.0213    0.2009    1.7399 H   0  0  0  0  0  0  0  0  0  0  0  0
    0.3998    0.5048    3.3170 C   0  0  0  0  0  0  0  0  0  0  0  0
    1.1604    1.2918    3.2750 H   0  0  0  0  0  0  0  0  0  0  0  0
   -0.4459    0.8736    3.9050 H   0  0  0  0  0  0  0  0  0  0  0  0
    0.8224   -0.3678    3.8261 H   0  0  0  0  0  0  0  0  0  0  0  0
  1  2  1  0  0  0  0
  2  3  1  0  0  0  0
  2  4  1  0  0  0  0
  2  5  1  0  0  0  0
  5  6  2  0  0  0  0
  5  7  1  0  0  0  0
  7  8  1  0  0  0  0
  7  9  1  0  0  0  0
  9 10  1  0  0  0  0
  9 11  1  0  0  0  0
  9 21  1  0  0  0  0
 11 12  1  0  0  0  0
 11 13  1  0  0  0  0
 11 14  1  0  0  0  0
 14 15  1  0  0  0  0
 14 16  1  0  0  0  0
 14 17  1  0  0  0  0
 17 18  2  0  0  0  0
 17 19  1  0  0  0  0
 19 20  1  0  0  0  0
 21 22  2  0  0  0  0
 21 23  1  0  0  0  0
 23 24  1  0  0  0  0
 23 25  1  0  0  0  0
 25 26  1  0  0  0  0
 25 27  1  0  0  0  0
 25 28  1  0  0  0  0
M  END
$$$$

  -OEChem-02102214123D

 28 27  0     1  0  0  0  0  0999 V2000
   -2.6052   -4.1335    0.3161 H   0  0  0  0  0  0  0  0  0  0  0  0
   -2.5845   -3.1391   -0.1395 C   0  0  0  0  0  0  0  0  0  0  0  0
   -3.3409   -2.5163    0.3439 H   0  0  0  0  0  0  0  0  0  0  0  0
   -2.8236   -3.2353   -1.2014 H   0  0  0  0  0  0  0  0  0  0  0  0
   -1.2115   -2.5162    0.0301 C   0  0  0  0  0  0  0  0  0  0  0  0
   -0.3390   -3.1263    0.6194 O   0  0  0  0  0  0  0  0  0  0  0  0
   -0.9597   -1.2627   -0.4939 N   0  0  0  0  0  0  0  0  0  0  0  0
   -1.7065   -0.8357   -1.0328 H   0  0  0  0  0  0  0  0  0  0  0  0
    0.3466   -0.5769   -0.4286 C   0  0  1  0  0  0  0  0  0  0  0  0
    1.0986   -1.2106   -0.9124 H   0  0  0  0  0  0  0  0  0  0  0  0
    0.1798    0.7191   -1.2616 C   0  0  0  0  0  0  0  0  0  0  0  0
   -0.3450    0.4716   -2.1903 H   0  0  0  0  0  0  0  0  0  0  0  0
   -0.4543    1.4168   -0.7033 H   0  0  0  0  0  0  0  0  0  0  0  0
    1.4835    1.4473   -1.6609 C   0  0  0  0  0  0  0  0  0  0  0  0
    2.0830    0.7759   -2.2826 H   0  0  0  0  0  0  0  0  0  0  0  0
    1.2356    2.3213   -2.2690 H   0  0  0  0  0  0  0  0  0  0  0  0
    2.3509    1.9162   -0.4980 C   0  0  0  0  0  0  0  0  0  0  0  0
    1.8395    2.6332    0.3474 O   0  0  0  0  0  0  0  0  0  0  0  0
    3.6428    1.5191   -0.4711 O   0  0  0  0  0  0  0  0  0  0  0  0
    3.9796    1.7803    0.3996 H   0  0  0  0  0  0  0  0  0  0  0  0
    0.8311   -0.3372    1.0240 C   0  0  0  0  0  0  0  0  0  0  0  0
    2.0108   -0.4868    1.3160 O   0  0  0  0  0  0  0  0  0  0  0  0
   -0.0429    0.1465    1.9802 N   0  0  0  0  0  0  0  0  0  0  0  0
   -1.0206    0.2130    1.7218 H   0  0  0  0  0  0  0  0  0  0  0  0
    0.3534    0.4271    3.3536 C   0  0  0  0  0  0  0  0  0  0  0  0
    1.1474    1.1813    3.3749 H   0  0  0  0  0  0  0  0  0  0  0  0
   -0.4989    0.8074    3.9245 H   0  0  0  0  0  0  0  0  0  0  0  0
    0.7185   -0.4838    3.8398 H   0  0  0  0  0  0  0  0  0  0  0  0
  1  2  1  0  0  0  0
  2  3  1  0  0  0  0
  2  4  1  0  0  0  0
  2  5  1  0  0  0  0
  5  6  2  0  0  0  0
  5  7  1  0  0  0  0
  7  8  1  0  0  0  0
  7  9  1  0  0  0  0
  9 10  1  0  0  0  0
  9 11  1  0  0  0  0
  9 21  1  0  0  0  0
 11 12  1  0  0  0  0
 11 13  1  0  0  0  0
 11 14  1  0  0  0  0
 14 15  1  0  0  0  0
 14 16  1  0  0  0  0
 14 17  1  0  0  0  0
 17 18  2  0  0  0  0
 17 19  1  0  0  0  0
 19 20  1  0  0  0  0
 21 22  2  0  0  0  0
 21 23  1  0  0  0  0
 23 24  1  0  0  0  0
 23 25  1  0  0  0  0
 25 26  1  0  0  0  0
 25 27  1  0  0  0  0
 25 28  1  0  0  0  0
M  END
$$$$

  -OEChem-02102214123D

 28 27  0     1  0  0  0  0  0999 V2000
   -2.5894   -4.1192    0.3159 H   0  0  0  0  0  0  0  0  0  0  0  0
   -2.5613   -3.1259   -0.1414 C   0  0  0  0  0  0  0  0  0  0  0  0
   -3.3240   -2.5012    0.3296 H   0  0  0  0  0  0  0  0  0  0  0  0
   -2.7844   -3.2240   -1.2064 H   0  0  0  0  0  0  0  0  0  0  0  0
   -1.1904   -2.5042    0.0475 C   0  0  0  0  0  0  0  0  0  0  0  0
   -0.3311   -3.1101    0.6597 O   0  0  0  0  0  0  0  0  0  0  0  0
   -0.9280   -1.2564   -0.4851 N   0  0  0  0  0  0  0  0  0  0  0  0
   -1.6615   -0.8414   -1.0510 H   0  0  0  0  0  0  0  0  0  0  0  0
    0.3810   -0.5749   -0.4168 C   0  0  1  0  0  0  0  0  0  0  0  0
    1.1397   -1.2056   -0.8945 H   0  0  0  0  0  0  0  0  0  0  0  0
    0.2003    0.7192   -1.2545 C   0  0  0  0  0  0  0  0  0  0  0  0
   -0.3471    0.4758   -2.1712 H   0  0  0  0  0  0  0  0  0  0  0  0
   -0.4238    1.4084   -0.6751 H   0  0  0  0  0  0  0  0  0  0  0  0
    1.4763    1.4820   -1.6817 C   0  0  0  0  0  0  0  0  0  0  0  0
    1.9481    0.9307   -2.5002 H   0  0  0  0  0  0  0  0  0  0  0  0
    1.1965    2.4646   -2.0719 H   0  0  0  0  0  0  0  0  0  0  0  0
    2.5279    1.6746   -0.5987 C   0  0  0  0  0  0  0  0  0  0  0  0
    2.2890    2.4753    0.2903 O   0  0  0  0  0  0  0  0  0  0  0  0
    3.6567    0.9344   -0.6714 O   0  0  0  0  0  0  0  0  0  0  0  0
    4.0949    1.0421    0.1878 H   0  0  0  0  0  0  0  0  0  0  0  0
    0.8415   -0.3319    1.0456 C   0  0  0  0  0  0  0  0  0  0  0  0
    2.0039   -0.5298    1.3767 O   0  0  0  0  0  0  0  0  0  0  0  0
   -0.0494    0.1590    1.9827 N   0  0  0  0  0  0  0  0  0  0  0  0
   -1.0235    0.2079    1.7073 H   0  0  0  0  0  0  0  0  0  0  0  0
    0.3063    0.3750    3.3792 C   0  0  0  0  0  0  0  0  0  0  0  0
    1.1333    1.0889    3.4568 H   0  0  0  0  0  0  0  0  0  0  0  0
   -0.5487    0.7770    3.9309 H   0  0  0  0  0  0  0  0  0  0  0  0
    0.6096   -0.5679    3.8465 H   0  0  0  0  0  0  0  0  0  0  0  0
  1  2  1  0  0  0  0
  2  3  1  0  0  0  0
  2  4  1  0  0  0  0
  2  5  1  0  0  0  0
  5  6  2  0  0  0  0
  5  7  1  0  0  0  0
  7  8  1  0  0  0  0
  7  9  1  0  0  0  0
  9 10  1  0  0  0  0
  9 11  1  0  0  0  0
  9 21  1  0  0  0  0
 11 12  1  0  0  0  0
 11 13  1  0  0  0  0
 11 14  1  0  0  0  0
 14 15  1  0  0  0  0
 14 16  1  0  0  0  0
 14 17  1  0  0  0  0
 17 18  2  0  0  0  0
 17 19  1  0  0  0  0
 19 20  1  0  0  0  0
 21 22  2  0  0  0  0
 21 23  1  0  0  0  0
 23 24  1  0  0  0  0
 23 25  1  0  0  0  0
 25 26  1  0  0  0  0
 25 27  1  0  0  0  0
 25 28  1  0  0  0  0
M  END
$$$$

  -OEChem-02102214123D

 28 27  0     1  0  0  0  0  0999 V2000
   -2.5799   -4.1178    0.3823 H   0  0  0  0  0  0  0  0  0  0  0  0
   -2.5488   -3.1345   -0.0961 C   0  0  0  0  0  0  0  0  0  0  0  0
   -3.3267   -2.5056    0.3431 H   0  0  0  0  0  0  0  0  0  0  0  0
   -2.7465   -3.2582   -1.1636 H   0  0  0  0  0  0  0  0  0  0  0  0
   -1.1873   -2.4976    0.1100 C   0  0  0  0  0  0  0  0  0  0  0  0
   -0.3440   -3.0767    0.7684 O   0  0  0  0  0  0  0  0  0  0  0  0
   -0.9156   -1.2680   -0.4598 N   0  0  0  0  0  0  0  0  0  0  0  0
   -1.6327   -0.8837   -1.0670 H   0  0  0  0  0  0  0  0  0  0  0  0
    0.3967   -0.5901   -0.4031 C   0  0  1  0  0  0  0  0  0  0  0  0
    1.1558   -1.2349   -0.8611 H   0  0  0  0  0  0  0  0  0  0  0  0
    0.2211    0.6881   -1.2672 C   0  0  0  0  0  0  0  0  0  0  0  0
   -0.3375    0.4319   -2.1737 H   0  0  0  0  0  0  0  0  0  0  0  0
   -0.3973    1.3866   -0.6931 H   0  0  0  0  0  0  0  0  0  0  0  0
    1.4885    1.4555   -1.7210 C   0  0  0  0  0  0  0  0  0  0  0  0
    1.8101    1.0442   -2.6821 H   0  0  0  0  0  0  0  0  0  0  0  0
    1.2327    2.5056   -1.8906 H   0  0  0  0  0  0  0  0  0  0  0  0
    2.6924    1.3867   -0.7929 C   0  0  0  0  0  0  0  0  0  0  0  0
    2.8120    2.2574    0.0525 O   0  0  0  0  0  0  0  0  0  0  0  0
    3.5519    0.3545   -0.9481 O   0  0  0  0  0  0  0  0  0  0  0  0
    4.1113    0.3632   -0.1542 H   0  0  0  0  0  0  0  0  0  0  0  0
    0.8438   -0.3054    1.0573 C   0  0  0  0  0  0  0  0  0  0  0  0
    1.9955   -0.5174    1.4157 O   0  0  0  0  0  0  0  0  0  0  0  0
   -0.0561    0.2175    1.9687 N   0  0  0  0  0  0  0  0  0  0  0  0
   -1.0280    0.2457    1.6822 H   0  0  0  0  0  0  0  0  0  0  0  0
    0.2726    0.4240    3.3735 C   0  0  0  0  0  0  0  0  0  0  0  0
    1.1285    1.1006    3.4708 H   0  0  0  0  0  0  0  0  0  0  0  0
   -0.5774    0.8667    3.9011 H   0  0  0  0  0  0  0  0  0  0  0  0
    0.5211   -0.5293    3.8522 H   0  0  0  0  0  0  0  0  0  0  0  0
  1  2  1  0  0  0  0
  2  3  1  0  0  0  0
  2  4  1  0  0  0  0
  2  5  1  0  0  0  0
  5  6  2  0  0  0  0
  5  7  1  0  0  0  0
  7  8  1  0  0  0  0
  7  9  1  0  0  0  0
  9 10  1  0  0  0  0
  9 11  1  0  0  0  0
  9 21  1  0  0  0  0
 11 12  1  0  0  0  0
 11 13  1  0  0  0  0
 11 14  1  0  0  0  0
 14 15  1  0  0  0  0
 14 16  1  0  0  0  0
 14 17  1  0  0  0  0
 17 18  2  0  0  0  0
 17 19  1  0  0  0  0
 19 20  1  0  0  0  0
 21 22  2  0  0  0  0
 21 23  1  0  0  0  0
 23 24  1  0  0  0  0
 23 25  1  0  0  0  0
 25 26  1  0  0  0  0
 25 27  1  0  0  0  0
 25 28  1  0  0  0  0
M  END
$$$$

  -OEChem-02102214123D

 28 27  0     1  0  0  0  0  0999 V2000
   -2.8003   -3.9994    0.4512 H   0  0  0  0  0  0  0  0  0  0  0  0
   -2.7128   -3.0363   -0.0600 C   0  0  0  0  0  0  0  0  0  0  0  0
   -3.4688   -2.3561    0.3395 H   0  0  0  0  0  0  0  0  0  0  0  0
   -2.8943   -3.1887   -1.1266 H   0  0  0  0  0  0  0  0  0  0  0  0
   -1.3272   -2.4566    0.1534 C   0  0  0  0  0  0  0  0  0  0  0  0
   -0.5265   -3.0498    0.8510 O   0  0  0  0  0  0  0  0  0  0  0  0
   -0.9916   -1.2572   -0.4462 N   0  0  0  0  0  0  0  0  0  0  0  0
   -1.6736   -0.8796   -1.0964 H   0  0  0  0  0  0  0  0  0  0  0  0
    0.3657   -0.6711   -0.4434 C   0  0  1  0  0  0  0  0  0  0  0  0
    1.0609   -1.3703   -0.9226 H   0  0  0  0  0  0  0  0  0  0  0  0
    0.2479    0.6225   -1.2937 C   0  0  0  0  0  0  0  0  0  0  0  0
   -0.3588    0.4048   -2.1792 H   0  0  0  0  0  0  0  0  0  0  0  0
   -0.3052    1.3589   -0.7006 H   0  0  0  0  0  0  0  0  0  0  0  0
    1.5467    1.3046   -1.7993 C   0  0  0  0  0  0  0  0  0  0  0  0
    1.6448    1.1084   -2.8713 H   0  0  0  0  0  0  0  0  0  0  0  0
    1.4481    2.3874   -1.6817 H   0  0  0  0  0  0  0  0  0  0  0  0
    2.8523    0.8721   -1.1456 C   0  0  0  0  0  0  0  0  0  0  0  0
    3.4204   -0.1106   -1.5910 O   0  0  0  0  0  0  0  0  0  0  0  0
    3.3087    1.6061   -0.1058 O   0  0  0  0  0  0  0  0  0  0  0  0
    4.0199    1.0753    0.2883 H   0  0  0  0  0  0  0  0  0  0  0  0
    0.8806   -0.3965    0.9967 C   0  0  0  0  0  0  0  0  0  0  0  0
    2.0366   -0.6418    1.3166 O   0  0  0  0  0  0  0  0  0  0  0  0
    0.0444    0.2006    1.9233 N   0  0  0  0  0  0  0  0  0  0  0  0
   -0.9391    0.2320    1.6784 H   0  0  0  0  0  0  0  0  0  0  0  0
    0.4251    0.3916    3.3174 C   0  0  0  0  0  0  0  0  0  0  0  0
    1.3293    1.0058    3.3872 H   0  0  0  0  0  0  0  0  0  0  0  0
   -0.3767    0.8976    3.8635 H   0  0  0  0  0  0  0  0  0  0  0  0
    0.6176   -0.5745    3.7964 H   0  0  0  0  0  0  0  0  0  0  0  0
  1  2  1  0  0  0  0
  2  3  1  0  0  0  0
  2  4  1  0  0  0  0
  2  5  1  0  0  0  0
  5  6  2  0  0  0  0
  5  7  1  0  0  0  0
  7  8  1  0  0  0  0
  7  9  1  0  0  0  0
  9 10  1  0  0  0  0
  9 11  1  0  0  0  0
  9 21  1  0  0  0  0
 11 12  1  0  0  0  0
 11 13  1  0  0  0  0
 11 14  1  0  0  0  0
 14 15  1  0  0  0  0
 14 16  1  0  0  0  0
 14 17  1  0  0  0  0
 17 18  2  0  0  0  0
 17 19  1  0  0  0  0
 19 20  1  0  0  0  0
 21 22  2  0  0  0  0
 21 23  1  0  0  0  0
 23 24  1  0  0  0  0
 23 25  1  0  0  0  0
 25 26  1  0  0  0  0
 25 27  1  0  0  0  0
 25 28  1  0  0  0  0
M  END
$$$$

  -OEChem-02102214123D

 28 27  0     1  0  0  0  0  0999 V2000
   -2.7872   -4.0453    0.4547 H   0  0  0  0  0  0  0  0  0  0  0  0
   -2.7121   -3.0868   -0.0670 C   0  0  0  0  0  0  0  0  0  0  0  0
   -3.4945   -2.4214    0.3056 H   0  0  0  0  0  0  0  0  0  0  0  0
   -2.8642   -3.2574   -1.1354 H   0  0  0  0  0  0  0  0  0  0  0  0
   -1.3469   -2.4693    0.1712 C   0  0  0  0  0  0  0  0  0  0  0  0
   -0.5541   -3.0250    0.9082 O   0  0  0  0  0  0  0  0  0  0  0  0
   -1.0231   -1.2734   -0.4414 N   0  0  0  0  0  0  0  0  0  0  0  0
   -1.6917   -0.9312   -1.1243 H   0  0  0  0  0  0  0  0  0  0  0  0
    0.3291   -0.6769   -0.4381 C   0  0  1  0  0  0  0  0  0  0  0  0
    1.0181   -1.3885   -0.9057 H   0  0  0  0  0  0  0  0  0  0  0  0
    0.2254    0.6112   -1.2953 C   0  0  0  0  0  0  0  0  0  0  0  0
   -0.3537    0.3688   -2.1928 H   0  0  0  0  0  0  0  0  0  0  0  0
   -0.3526    1.3533   -0.7342 H   0  0  0  0  0  0  0  0  0  0  0  0
    1.5339    1.2877   -1.7881 C   0  0  0  0  0  0  0  0  0  0  0  0
    1.5112    1.3509   -2.8798 H   0  0  0  0  0  0  0  0  0  0  0  0
    1.5530    2.3147   -1.4112 H   0  0  0  0  0  0  0  0  0  0  0  0
    2.8538    0.6327   -1.3943 C   0  0  0  0  0  0  0  0  0  0  0  0
    3.1605   -0.4176   -1.9337 O   0  0  0  0  0  0  0  0  0  0  0  0
    3.6263    1.2703   -0.4863 O   0  0  0  0  0  0  0  0  0  0  0  0
    4.3208    0.6379   -0.2451 H   0  0  0  0  0  0  0  0  0  0  0  0
    0.8580   -0.3737    0.9881 C   0  0  0  0  0  0  0  0  0  0  0  0
    2.0320   -0.5633    1.2773 O   0  0  0  0  0  0  0  0  0  0  0  0
    0.0287    0.2330    1.9144 N   0  0  0  0  0  0  0  0  0  0  0  0
   -0.9616    0.2191    1.6959 H   0  0  0  0  0  0  0  0  0  0  0  0
    0.4371    0.4708    3.2931 C   0  0  0  0  0  0  0  0  0  0  0  0
    1.3287    1.1059    3.3246 H   0  0  0  0  0  0  0  0  0  0  0  0
   -0.3630    0.9741    3.8442 H   0  0  0  0  0  0  0  0  0  0  0  0
    0.6625   -0.4771    3.7934 H   0  0  0  0  0  0  0  0  0  0  0  0
  1  2  1  0  0  0  0
  2  3  1  0  0  0  0
  2  4  1  0  0  0  0
  2  5  1  0  0  0  0
  5  6  2  0  0  0  0
  5  7  1  0  0  0  0
  7  8  1  0  0  0  0
  7  9  1  0  0  0  0
  9 10  1  0  0  0  0
  9 11  1  0  0  0  0
  9 21  1  0  0  0  0
 11 12  1  0  0  0  0
 11 13  1  0  0  0  0
 11 14  1  0  0  0  0
 14 15  1  0  0  0  0
 14 16  1  0  0  0  0
 14 17  1  0  0  0  0
 17 18  2  0  0  0  0
 17 19  1  0  0  0  0
 19 20  1  0  0  0  0
 21 22  2  0  0  0  0
 21 23  1  0  0  0  0
 23 24  1  0  0  0  0
 23 25  1  0  0  0  0
 25 26  1  0  0  0  0
 25 27  1  0  0  0  0
 25 28  1  0  0  0  0
M  END
$$$$

  -OEChem-02102214123D

 28 27  0     1  0  0  0  0  0999 V2000
   -2.7649   -4.0893    0.4322 H   0  0  0  0  0  0  0  0  0  0  0  0
   -2.7015   -3.1345   -0.0977 C   0  0  0  0  0  0  0  0  0  0  0  0
   -3.5049   -2.4833    0.2542 H   0  0  0  0  0  0  0  0  0  0  0  0
   -2.8309   -3.3186   -1.1669 H   0  0  0  0  0  0  0  0  0  0  0  0
   -1.3549   -2.4845    0.1586 C   0  0  0  0  0  0  0  0  0  0  0  0
   -0.5582   -3.0194    0.9070 O   0  0  0  0  0  0  0  0  0  0  0  0
   -1.0529   -1.2798   -0.4468 N   0  0  0  0  0  0  0  0  0  0  0  0
   -1.7191   -0.9546   -1.1404 H   0  0  0  0  0  0  0  0  0  0  0  0
    0.2902   -0.6653   -0.4395 C   0  0  1  0  0  0  0  0  0  0  0  0
    0.9766   -1.3782   -0.9063 H   0  0  0  0  0  0  0  0  0  0  0  0
    0.1904    0.6261   -1.2883 C   0  0  0  0  0  0  0  0  0  0  0  0
   -0.3610    0.3702   -2.1991 H   0  0  0  0  0  0  0  0  0  0  0  0
   -0.4086    1.3667   -0.7475 H   0  0  0  0  0  0  0  0  0  0  0  0
    1.5086    1.2992   -1.7566 C   0  0  0  0  0  0  0  0  0  0  0  0
    1.3941    1.6398   -2.7893 H   0  0  0  0  0  0  0  0  0  0  0  0
    1.6623    2.1910   -1.1419 H   0  0  0  0  0  0  0  0  0  0  0  0
    2.7927    0.4769   -1.6648 C   0  0  0  0  0  0  0  0  0  0  0  0
    2.8685   -0.5532   -2.3147 O   0  0  0  0  0  0  0  0  0  0  0  0
    3.8009    0.9658   -0.9073 O   0  0  0  0  0  0  0  0  0  0  0  0
    4.4717    0.2674   -0.8736 H   0  0  0  0  0  0  0  0  0  0  0  0
    0.8404   -0.3549    0.9741 C   0  0  0  0  0  0  0  0  0  0  0  0
    2.0340   -0.4778    1.2138 O   0  0  0  0  0  0  0  0  0  0  0  0
    0.0233    0.2411    1.9179 N   0  0  0  0  0  0  0  0  0  0  0  0
   -0.9731    0.1870    1.7353 H   0  0  0  0  0  0  0  0  0  0  0  0
    0.4702    0.5142    3.2783 C   0  0  0  0  0  0  0  0  0  0  0  0
    1.3383    1.1819    3.2702 H   0  0  0  0  0  0  0  0  0  0  0  0
   -0.3285    0.9964    3.8498 H   0  0  0  0  0  0  0  0  0  0  0  0
    0.7472   -0.4171    3.7838 H   0  0  0  0  0  0  0  0  0  0  0  0
  1  2  1  0  0  0  0
  2  3  1  0  0  0  0
  2  4  1  0  0  0  0
  2  5  1  0  0  0  0
  5  6  2  0  0  0  0
  5  7  1  0  0  0  0
  7  8  1  0  0  0  0
  7  9  1  0  0  0  0
  9 10  1  0  0  0  0
  9 11  1  0  0  0  0
  9 21  1  0  0  0  0
 11 12  1  0  0  0  0
 11 13  1  0  0  0  0
 11 14  1  0  0  0  0
 14 15  1  0  0  0  0
 14 16  1  0  0  0  0
 14 17  1  0  0  0  0
 17 18  2  0  0  0  0
 17 19  1  0  0  0  0
 19 20  1  0  0  0  0
 21 22  2  0  0  0  0
 21 23  1  0  0  0  0
 23 24  1  0  0  0  0
 23 25  1  0  0  0  0
 25 26  1  0  0  0  0
 25 27  1  0  0  0  0
 25 28  1  0  0  0  0
M  END
$$$$

  -OEChem-02102214123D

 28 27  0     1  0  0  0  0  0999 V2000
   -2.7089   -4.1416    0.3807 H   0  0  0  0  0  0  0  0  0  0  0  0
   -2.6723   -3.1751   -0.1302 C   0  0  0  0  0  0  0  0  0  0  0  0
   -3.4933   -2.5531    0.2342 H   0  0  0  0  0  0  0  0  0  0  0  0
   -2.7967   -3.3413   -1.2029 H   0  0  0  0  0  0  0  0  0  0  0  0
   -1.3441   -2.4930    0.1391 C   0  0  0  0  0  0  0  0  0  0  0  0
   -0.5373   -3.0128    0.8877 O   0  0  0  0  0  0  0  0  0  0  0  0
   -1.0706   -1.2746   -0.4520 N   0  0  0  0  0  0  0  0  0  0  0  0
   -1.7388   -0.9643   -1.1508 H   0  0  0  0  0  0  0  0  0  0  0  0
    0.2617   -0.6384   -0.4465 C   0  0  1  0  0  0  0  0  0  0  0  0
    0.9516   -1.3407   -0.9233 H   0  0  0  0  0  0  0  0  0  0  0  0
    0.1527    0.6653   -1.2724 C   0  0  0  0  0  0  0  0  0  0  0  0
   -0.3920    0.4227   -2.1910 H   0  0  0  0  0  0  0  0  0  0  0  0
   -0.4466    1.3993   -0.7234 H   0  0  0  0  0  0  0  0  0  0  0  0
    1.4814    1.3295   -1.7148 C   0  0  0  0  0  0  0  0  0  0  0  0
    1.3114    1.9211   -2.6182 H   0  0  0  0  0  0  0  0  0  0  0  0
    1.7829    2.0247   -0.9254 H   0  0  0  0  0  0  0  0  0  0  0  0
    2.6708    0.4013   -1.9581 C   0  0  0  0  0  0  0  0  0  0  0  0
    2.5169   -0.5551   -2.7009 O   0  0  0  0  0  0  0  0  0  0  0  0
    3.8524    0.7244   -1.3856 O   0  0  0  0  0  0  0  0  0  0  0  0
    4.4583   -0.0031   -1.5900 H   0  0  0  0  0  0  0  0  0  0  0  0
    0.8315   -0.3338    0.9586 C   0  0  0  0  0  0  0  0  0  0  0  0
    2.0378   -0.3936    1.1538 O   0  0  0  0  0  0  0  0  0  0  0  0
    0.0217    0.2385    1.9227 N   0  0  0  0  0  0  0  0  0  0  0  0
   -0.9767    0.1411    1.7709 H   0  0  0  0  0  0  0  0  0  0  0  0
    0.4972    0.5296    3.2695 C   0  0  0  0  0  0  0  0  0  0  0  0
    1.3400    1.2284    3.2370 H   0  0  0  0  0  0  0  0  0  0  0  0
   -0.3018    0.9828    3.8639 H   0  0  0  0  0  0  0  0  0  0  0  0
    0.8224   -0.3905    3.7666 H   0  0  0  0  0  0  0  0  0  0  0  0
  1  2  1  0  0  0  0
  2  3  1  0  0  0  0
  2  4  1  0  0  0  0
  2  5  1  0  0  0  0
  5  6  2  0  0  0  0
  5  7  1  0  0  0  0
  7  8  1  0  0  0  0
  7  9  1  0  0  0  0
  9 10  1  0  0  0  0
  9 11  1  0  0  0  0
  9 21  1  0  0  0  0
 11 12  1  0  0  0  0
 11 13  1  0  0  0  0
 11 14  1  0  0  0  0
 14 15  1  0  0  0  0
 14 16  1  0  0  0  0
 14 17  1  0  0  0  0
 17 18  2  0  0  0  0
 17 19  1  0  0  0  0
 19 20  1  0  0  0  0
 21 22  2  0  0  0  0
 21 23  1  0  0  0  0
 23 24  1  0  0  0  0
 23 25  1  0  0  0  0
 25 26  1  0  0  0  0
 25 27  1  0  0  0  0
 25 28  1  0  0  0  0
M  END
$$$$

  -OEChem-02102214123D

 28 27  0     1  0  0  0  0  0999 V2000
   -2.6564   -4.1700    0.3405 H   0  0  0  0  0  0  0  0  0  0  0  0
   -2.6376   -3.1968   -0.1585 C   0  0  0  0  0  0  0  0  0  0  0  0
   -3.4671   -2.5927    0.2164 H   0  0  0  0  0  0  0  0  0  0  0  0
   -2.7633   -3.3517   -1.2329 H   0  0  0  0  0  0  0  0  0  0  0  0
   -1.3201   -2.4963    0.1144 C   0  0  0  0  0  0  0  0  0  0  0  0
   -0.4999   -3.0132    0.8508 O   0  0  0  0  0  0  0  0  0  0  0  0
   -1.0706   -1.2652   -0.4603 N   0  0  0  0  0  0  0  0  0  0  0  0
   -1.7462   -0.9569   -1.1529 H   0  0  0  0  0  0  0  0  0  0  0  0
    0.2508   -0.6079   -0.4522 C   0  0  1  0  0  0  0  0  0  0  0  0
    0.9516   -1.2927   -0.9397 H   0  0  0  0  0  0  0  0  0  0  0  0
    0.1244    0.7014   -1.2644 C   0  0  0  0  0  0  0  0  0  0  0  0
   -0.4240    0.4774   -2.1857 H   0  0  0  0  0  0  0  0  0  0  0  0
   -0.4678    1.4283   -0.6987 H   0  0  0  0  0  0  0  0  0  0  0  0
    1.4633    1.3552   -1.6812 C   0  0  0  0  0  0  0  0  0  0  0  0
    1.2715    2.1394   -2.4181 H   0  0  0  0  0  0  0  0  0  0  0  0
    1.8991    1.8359   -0.7998 H   0  0  0  0  0  0  0  0  0  0  0  0
    2.5176    0.4059   -2.2503 C   0  0  0  0  0  0  0  0  0  0  0  0
    2.1595   -0.4712   -3.0206 O   0  0  0  0  0  0  0  0  0  0  0  0
    3.8079    0.6197   -1.9070 O   0  0  0  0  0  0  0  0  0  0  0  0
    4.3180   -0.0934   -2.3185 H   0  0  0  0  0  0  0  0  0  0  0  0
    0.8270   -0.3127    0.9516 C   0  0  0  0  0  0  0  0  0  0  0  0
    2.0375   -0.3386    1.1288 O   0  0  0  0  0  0  0  0  0  0  0  0
    0.0159    0.2336    1.9296 N   0  0  0  0  0  0  0  0  0  0  0  0
   -0.9820    0.1194    1.7864 H   0  0  0  0  0  0  0  0  0  0  0  0
    0.4990    0.5268    3.2732 C   0  0  0  0  0  0  0  0  0  0  0  0
    1.3264    1.2434    3.2361 H   0  0  0  0  0  0  0  0  0  0  0  0
   -0.3034    0.9599    3.8780 H   0  0  0  0  0  0  0  0  0  0  0  0
    0.8485   -0.3890    3.7618 H   0  0  0  0  0  0  0  0  0  0  0  0
  1  2  1  0  0  0  0
  2  3  1  0  0  0  0
  2  4  1  0  0  0  0
  2  5  1  0  0  0  0
  5  6  2  0  0  0  0
  5  7  1  0  0  0  0
  7  8  1  0  0  0  0
  7  9  1  0  0  0  0
  9 10  1  0  0  0  0
  9 11  1  0  0  0  0
  9 21  1  0  0  0  0
 11 12  1  0  0  0  0
 11 13  1  0  0  0  0
 11 14  1  0  0  0  0
 14 15  1  0  0  0  0
 14 16  1  0  0  0  0
 14 17  1  0  0  0  0
 17 18  2  0  0  0  0
 17 19  1  0  0  0  0
 19 20  1  0  0  0  0
 21 22  2  0  0  0  0
 21 23  1  0  0  0  0
 23 24  1  0  0  0  0
 23 25  1  0  0  0  0
 25 26  1  0  0  0  0
 25 27  1  0  0  0  0
 25 28  1  0  0  0  0
M  END
$$$$

  -OEChem-02102214123D

 28 27  0     1  0  0  0  0  0999 V2000
   -2.6266   -4.1762    0.3084 H   0  0  0  0  0  0  0  0  0  0  0  0
   -2.6153   -3.1998   -0.1846 C   0  0  0  0  0  0  0  0  0  0  0  0
   -3.4535   -2.6070    0.1894 H   0  0  0  0  0  0  0  0  0  0  0  0
   -2.7332   -3.3493   -1.2606 H   0  0  0  0  0  0  0  0  0  0  0  0
   -1.3064   -2.4877    0.1004 C   0  0  0  0  0  0  0  0  0  0  0  0
   -0.4859   -3.0018    0.8383 O   0  0  0  0  0  0  0  0  0  0  0  0
   -1.0663   -1.2496   -0.4635 N   0  0  0  0  0  0  0  0  0  0  0  0
   -1.7382   -0.9483   -1.1628 H   0  0  0  0  0  0  0  0  0  0  0  0
    0.2505   -0.5831   -0.4506 C   0  0  1  0  0  0  0  0  0  0  0  0
    0.9625   -1.2513   -0.9464 H   0  0  0  0  0  0  0  0  0  0  0  0
    0.1140    0.7271   -1.2577 C   0  0  0  0  0  0  0  0  0  0  0  0
   -0.4488    0.5253   -2.1757 H   0  0  0  0  0  0  0  0  0  0  0  0
   -0.4629    1.4512   -0.6731 H   0  0  0  0  0  0  0  0  0  0  0  0
    1.4649    1.3653   -1.6548 C   0  0  0  0  0  0  0  0  0  0  0  0
    1.2746    2.2937   -2.1993 H   0  0  0  0  0  0  0  0  0  0  0  0
    2.0214    1.6284   -0.7503 H   0  0  0  0  0  0  0  0  0  0  0  0
    2.3620    0.4854   -2.5272 C   0  0  0  0  0  0  0  0  0  0  0  0
    1.8519   -0.3599   -3.2461 O   0  0  0  0  0  0  0  0  0  0  0  0
    3.6927    0.7210   -2.4820 O   0  0  0  0  0  0  0  0  0  0  0  0
    4.1015    0.0630   -3.0637 H   0  0  0  0  0  0  0  0  0  0  0  0
    0.8201   -0.2994    0.9591 C   0  0  0  0  0  0  0  0  0  0  0  0
    2.0299   -0.3248    1.1436 O   0  0  0  0  0  0  0  0  0  0  0  0
    0.0014    0.2301    1.9399 N   0  0  0  0  0  0  0  0  0  0  0  0
   -0.9950    0.1096    1.7910 H   0  0  0  0  0  0  0  0  0  0  0  0
    0.4768    0.5063    3.2898 C   0  0  0  0  0  0  0  0  0  0  0  0
    1.3006    1.2276    3.2664 H   0  0  0  0  0  0  0  0  0  0  0  0
   -0.3303    0.9261    3.8976 H   0  0  0  0  0  0  0  0  0  0  0  0
    0.8291   -0.4149    3.7661 H   0  0  0  0  0  0  0  0  0  0  0  0
  1  2  1  0  0  0  0
  2  3  1  0  0  0  0
  2  4  1  0  0  0  0
  2  5  1  0  0  0  0
  5  6  2  0  0  0  0
  5  7  1  0  0  0  0
  7  8  1  0  0  0  0
  7  9  1  0  0  0  0
  9 10  1  0  0  0  0
  9 11  1  0  0  0  0
  9 21  1  0  0  0  0
 11 12  1  0  0  0  0
 11 13  1  0  0  0  0
 11 14  1  0  0  0  0
 14 15  1  0  0  0  0
 14 16  1  0  0  0  0
 14 17  1  0  0  0  0
 17 18  2  0  0  0  0
 17 19  1  0  0  0  0
 19 20  1  0  0  0  0
 21 22  2  0  0  0  0
 21 23  1  0  0  0  0
 23 24  1  0  0  0  0
 23 25  1  0  0  0  0
 25 26  1  0  0  0  0
 25 27  1  0  0  0  0
 25 28  1  0  0  0  0
M  END
$$$$

  -OEChem-02102214123D

 28 27  0     1  0  0  0  0  0999 V2000
   -2.6227   -4.1718    0.2790 H   0  0  0  0  0  0  0  0  0  0  0  0
   -2.6162   -3.1847   -0.1919 C   0  0  0  0  0  0  0  0  0  0  0  0
   -3.4497   -2.6004    0.2049 H   0  0  0  0  0  0  0  0  0  0  0  0
   -2.7461   -3.3102   -1.2695 H   0  0  0  0  0  0  0  0  0  0  0  0
   -1.3044   -2.4791    0.0954 C   0  0  0  0  0  0  0  0  0  0  0  0
   -0.4854   -3.0009    0.8293 O   0  0  0  0  0  0  0  0  0  0  0  0
   -1.0589   -1.2405   -0.4654 N   0  0  0  0  0  0  0  0  0  0  0  0
   -1.7271   -0.9357   -1.1667 H   0  0  0  0  0  0  0  0  0  0  0  0
    0.2590   -0.5762   -0.4450 C   0  0  1  0  0  0  0  0  0  0  0  0
    0.9778   -1.2364   -0.9434 H   0  0  0  0  0  0  0  0  0  0  0  0
    0.1234    0.7309   -1.2553 C   0  0  0  0  0  0  0  0  0  0  0  0
   -0.4561    0.5491   -2.1670 H   0  0  0  0  0  0  0  0  0  0  0  0
   -0.4377    1.4564   -0.6570 H   0  0  0  0  0  0  0  0  0  0  0  0
    1.4854    1.3540   -1.6392 C   0  0  0  0  0  0  0  0  0  0  0  0
    1.3167    2.3829   -1.9674 H   0  0  0  0  0  0  0  0  0  0  0  0
    2.1432    1.4008   -0.7674 H   0  0  0  0  0  0  0  0  0  0  0  0
    2.2223    0.6335   -2.7711 C   0  0  0  0  0  0  0  0  0  0  0  0
    1.6630   -0.2560   -3.3934 O   0  0  0  0  0  0  0  0  0  0  0  0
    3.4803    1.0503   -3.0397 O   0  0  0  0  0  0  0  0  0  0  0  0
    3.8031    0.4816   -3.7547 H   0  0  0  0  0  0  0  0  0  0  0  0
    0.8133   -0.2997    0.9736 C   0  0  0  0  0  0  0  0  0  0  0  0
    2.0189   -0.3472    1.1807 O   0  0  0  0  0  0  0  0  0  0  0  0
   -0.0155    0.2272    1.9476 N   0  0  0  0  0  0  0  0  0  0  0  0
   -1.0107    0.1206    1.7813 H   0  0  0  0  0  0  0  0  0  0  0  0
    0.4410    0.4842    3.3078 C   0  0  0  0  0  0  0  0  0  0  0  0
    1.2763    1.1926    3.3051 H   0  0  0  0  0  0  0  0  0  0  0  0
   -0.3696    0.9117    3.9054 H   0  0  0  0  0  0  0  0  0  0  0  0
    0.7701   -0.4465    3.7822 H   0  0  0  0  0  0  0  0  0  0  0  0
  1  2  1  0  0  0  0
  2  3  1  0  0  0  0
  2  4  1  0  0  0  0
  2  5  1  0  0  0  0
  5  6  2  0  0  0  0
  5  7  1  0  0  0  0
  7  8  1  0  0  0  0
  7  9  1  0  0  0  0
  9 10  1  0  0  0  0
  9 11  1  0  0  0  0
  9 21  1  0  0  0  0
 11 12  1  0  0  0  0
 11 13  1  0  0  0  0
 11 14  1  0  0  0  0
 14 15  1  0  0  0  0
 14 16  1  0  0  0  0
 14 17  1  0  0  0  0
 17 18  2  0  0  0  0
 17 19  1  0  0  0  0
 19 20  1  0  0  0  0
 21 22  2  0  0  0  0
 21 23  1  0  0  0  0
 23 24  1  0  0  0  0
 23 25  1  0  0  0  0
 25 26  1  0  0  0  0
 25 27  1  0  0  0  0
 25 28  1  0  0  0  0
M  END
$$$$

  -OEChem-02102214123D

 28 27  0     1  0  0  0  0  0999 V2000
   -2.6427   -4.1554    0.2604 H   0  0  0  0  0  0  0  0  0  0  0  0
   -2.6304   -3.1618   -0.1970 C   0  0  0  0  0  0  0  0  0  0  0  0
   -3.4595   -2.5768    0.2082 H   0  0  0  0  0  0  0  0  0  0  0  0
   -2.7618   -3.2715   -1.2763 H   0  0  0  0  0  0  0  0  0  0  0  0
   -1.3136   -2.4689    0.0980 C   0  0  0  0  0  0  0  0  0  0  0  0
   -0.5049   -2.9977    0.8382 O   0  0  0  0  0  0  0  0  0  0  0  0
   -1.0523   -1.2342   -0.4640 N   0  0  0  0  0  0  0  0  0  0  0  0
   -1.7156   -0.9215   -1.1665 H   0  0  0  0  0  0  0  0  0  0  0  0
    0.2708   -0.5802   -0.4360 C   0  0  1  0  0  0  0  0  0  0  0  0
    0.9905   -1.2432   -0.9301 H   0  0  0  0  0  0  0  0  0  0  0  0
    0.1488    0.7225   -1.2532 C   0  0  0  0  0  0  0  0  0  0  0  0
   -0.4393    0.5500   -2.1609 H   0  0  0  0  0  0  0  0  0  0  0  0
   -0.4027    1.4532   -0.6520 H   0  0  0  0  0  0  0  0  0  0  0  0
    1.5206    1.3319   -1.6292 C   0  0  0  0  0  0  0  0  0  0  0  0
    1.3979    2.4149   -1.7162 H   0  0  0  0  0  0  0  0  0  0  0  0
    2.2614    1.1575   -0.8452 H   0  0  0  0  0  0  0  0  0  0  0  0
    2.0903    0.8391   -2.9612 C   0  0  0  0  0  0  0  0  0  0  0  0
    1.5992   -0.1336   -3.5123 O   0  0  0  0  0  0  0  0  0  0  0  0
    3.1340    1.5329   -3.4696 O   0  0  0  0  0  0  0  0  0  0  0  0
    3.3838    1.0763   -4.2870 H   0  0  0  0  0  0  0  0  0  0  0  0
    0.8111   -0.3066    0.9893 C   0  0  0  0  0  0  0  0  0  0  0  0
    2.0124   -0.3701    1.2160 O   0  0  0  0  0  0  0  0  0  0  0  0
   -0.0260    0.2278    1.9520 N   0  0  0  0  0  0  0  0  0  0  0  0
   -1.0196    0.1295    1.7716 H   0  0  0  0  0  0  0  0  0  0  0  0
    0.4123    0.4701    3.3207 C   0  0  0  0  0  0  0  0  0  0  0  0
    1.2519    1.1732    3.3355 H   0  0  0  0  0  0  0  0  0  0  0  0
   -0.4045    0.8975    3.9099 H   0  0  0  0  0  0  0  0  0  0  0  0
    0.7291   -0.4666    3.7917 H   0  0  0  0  0  0  0  0  0  0  0  0
  1  2  1  0  0  0  0
  2  3  1  0  0  0  0
  2  4  1  0  0  0  0
  2  5  1  0  0  0  0
  5  6  2  0  0  0  0
  5  7  1  0  0  0  0
  7  8  1  0  0  0  0
  7  9  1  0  0  0  0
  9 10  1  0  0  0  0
  9 11  1  0  0  0  0
  9 21  1  0  0  0  0
 11 12  1  0  0  0  0
 11 13  1  0  0  0  0
 11 14  1  0  0  0  0
 14 15  1  0  0  0  0
 14 16  1  0  0  0  0
 14 17  1  0  0  0  0
 17 18  2  0  0  0  0
 17 19  1  0  0  0  0
 19 20  1  0  0  0  0
 21 22  2  0  0  0  0
 21 23  1  0  0  0  0
 23 24  1  0  0  0  0
 23 25  1  0  0  0  0
 25 26  1  0  0  0  0
 25 27  1  0  0  0  0
 25 28  1  0  0  0  0
M  END
$$$$

  -OEChem-02102214123D

 28 27  0     1  0  0  0  0  0999 V2000
   -2.6996   -4.1123    0.3078 H   0  0  0  0  0  0  0  0  0  0  0  0
   -2.6516   -3.1451   -0.2009 C   0  0  0  0  0  0  0  0  0  0  0  0
   -3.4772   -2.5217    0.1506 H   0  0  0  0  0  0  0  0  0  0  0  0
   -2.7581   -3.3085   -1.2761 H   0  0  0  0  0  0  0  0  0  0  0  0
   -1.3266   -2.4673    0.0926 C   0  0  0  0  0  0  0  0  0  0  0  0
   -0.5223   -3.0058    0.8306 O   0  0  0  0  0  0  0  0  0  0  0  0
   -1.0507   -1.2359   -0.4700 N   0  0  0  0  0  0  0  0  0  0  0  0
   -1.7109   -0.9139   -1.1712 H   0  0  0  0  0  0  0  0  0  0  0  0
    0.2777   -0.5930   -0.4353 C   0  0  1  0  0  0  0  0  0  0  0  0
    0.9947   -1.2603   -0.9279 H   0  0  0  0  0  0  0  0  0  0  0  0
    0.1722    0.7131   -1.2479 C   0  0  0  0  0  0  0  0  0  0  0  0
   -0.4154    0.5449   -2.1569 H   0  0  0  0  0  0  0  0  0  0  0  0
   -0.3771    1.4486   -0.6502 H   0  0  0  0  0  0  0  0  0  0  0  0
    1.5550    1.3071   -1.6137 C   0  0  0  0  0  0  0  0  0  0  0  0
    1.5261    2.3843   -1.4264 H   0  0  0  0  0  0  0  0  0  0  0  0
    2.3471    0.8951   -0.9833 H   0  0  0  0  0  0  0  0  0  0  0  0
    1.9531    1.1048   -3.0761 C   0  0  0  0  0  0  0  0  0  0  0  0
    1.5627    0.1149   -3.6741 O   0  0  0  0  0  0  0  0  0  0  0  0
    2.7323    2.0558   -3.6400 O   0  0  0  0  0  0  0  0  0  0  0  0
    2.9038    1.7566   -4.5457 H   0  0  0  0  0  0  0  0  0  0  0  0
    0.8131   -0.3205    0.9927 C   0  0  0  0  0  0  0  0  0  0  0  0
    2.0124   -0.3935    1.2270 O   0  0  0  0  0  0  0  0  0  0  0  0
   -0.0244    0.2233    1.9499 N   0  0  0  0  0  0  0  0  0  0  0  0
   -1.0180    0.1392    1.7626 H   0  0  0  0  0  0  0  0  0  0  0  0
    0.4093    0.4766    3.3183 C   0  0  0  0  0  0  0  0  0  0  0  0
    1.2504    1.1779    3.3312 H   0  0  0  0  0  0  0  0  0  0  0  0
   -0.4088    0.9109    3.9007 H   0  0  0  0  0  0  0  0  0  0  0  0
    0.7220   -0.4567    3.7985 H   0  0  0  0  0  0  0  0  0  0  0  0
  1  2  1  0  0  0  0
  2  3  1  0  0  0  0
  2  4  1  0  0  0  0
  2  5  1  0  0  0  0
  5  6  2  0  0  0  0
  5  7  1  0  0  0  0
  7  8  1  0  0  0  0
  7  9  1  0  0  0  0
  9 10  1  0  0  0  0
  9 11  1  0  0  0  0
  9 21  1  0  0  0  0
 11 12  1  0  0  0  0
 11 13  1  0  0  0  0
 11 14  1  0  0  0  0
 14 15  1  0  0  0  0
 14 16  1  0  0  0  0
 14 17  1  0  0  0  0
 17 18  2  0  0  0  0
 17 19  1  0  0  0  0
 19 20  1  0  0  0  0
 21 22  2  0  0  0  0
 21 23  1  0  0  0  0
 23 24  1  0  0  0  0
 23 25  1  0  0  0  0
 25 26  1  0  0  0  0
 25 27  1  0  0  0  0
 25 28  1  0  0  0  0
M  END
$$$$

  -OEChem-02102214123D

 28 27  0     1  0  0  0  0  0999 V2000
   -2.7296   -4.0918    0.3464 H   0  0  0  0  0  0  0  0  0  0  0  0
   -2.6718   -3.1361   -0.1826 C   0  0  0  0  0  0  0  0  0  0  0  0
   -3.4858   -2.4942    0.1624 H   0  0  0  0  0  0  0  0  0  0  0  0
   -2.7890   -3.3198   -1.2534 H   0  0  0  0  0  0  0  0  0  0  0  0
   -1.3350   -2.4712    0.0868 C   0  0  0  0  0  0  0  0  0  0  0  0
   -0.5216   -3.0177    0.8090 O   0  0  0  0  0  0  0  0  0  0  0  0
   -1.0578   -1.2407   -0.4770 N   0  0  0  0  0  0  0  0  0  0  0  0
   -1.7291   -0.9048   -1.1611 H   0  0  0  0  0  0  0  0  0  0  0  0
    0.2712   -0.5990   -0.4435 C   0  0  1  0  0  0  0  0  0  0  0  0
    0.9846   -1.2714   -0.9343 H   0  0  0  0  0  0  0  0  0  0  0  0
    0.1776    0.7074   -1.2551 C   0  0  0  0  0  0  0  0  0  0  0  0
   -0.3954    0.5215   -2.1696 H   0  0  0  0  0  0  0  0  0  0  0  0
   -0.3813    1.4515   -0.6778 H   0  0  0  0  0  0  0  0  0  0  0  0
    1.5694    1.2870   -1.6119 C   0  0  0  0  0  0  0  0  0  0  0  0
    1.6636    2.2785   -1.1597 H   0  0  0  0  0  0  0  0  0  0  0  0
    2.3700    0.6700   -1.1945 H   0  0  0  0  0  0  0  0  0  0  0  0
    1.8235    1.4136   -3.1136 C   0  0  0  0  0  0  0  0  0  0  0  0
    1.4728    0.5099   -3.8551 O   0  0  0  0  0  0  0  0  0  0  0  0
    2.4303    2.5416   -3.5493 O   0  0  0  0  0  0  0  0  0  0  0  0
    2.5254    2.4389   -4.5083 H   0  0  0  0  0  0  0  0  0  0  0  0
    0.8120   -0.3234    0.9812 C   0  0  0  0  0  0  0  0  0  0  0  0
    2.0138   -0.3847    1.2056 O   0  0  0  0  0  0  0  0  0  0  0  0
   -0.0214    0.2234    1.9403 N   0  0  0  0  0  0  0  0  0  0  0  0
   -1.0160    0.1390    1.7590 H   0  0  0  0  0  0  0  0  0  0  0  0
    0.4201    0.4865    3.3044 C   0  0  0  0  0  0  0  0  0  0  0  0
    1.2508    1.2002    3.3081 H   0  0  0  0  0  0  0  0  0  0  0  0
   -0.3994    0.9099    3.8927 H   0  0  0  0  0  0  0  0  0  0  0  0
    0.7507   -0.4408    3.7845 H   0  0  0  0  0  0  0  0  0  0  0  0
  1  2  1  0  0  0  0
  2  3  1  0  0  0  0
  2  4  1  0  0  0  0
  2  5  1  0  0  0  0
  5  6  2  0  0  0  0
  5  7  1  0  0  0  0
  7  8  1  0  0  0  0
  7  9  1  0  0  0  0
  9 10  1  0  0  0  0
  9 11  1  0  0  0  0
  9 21  1  0  0  0  0
 11 12  1  0  0  0  0
 11 13  1  0  0  0  0
 11 14  1  0  0  0  0
 14 15  1  0  0  0  0
 14 16  1  0  0  0  0
 14 17  1  0  0  0  0
 17 18  2  0  0  0  0
 17 19  1  0  0  0  0
 19 20  1  0  0  0  0
 21 22  2  0  0  0  0
 21 23  1  0  0  0  0
 23 24  1  0  0  0  0
 23 25  1  0  0  0  0
 25 26  1  0  0  0  0
 25 27  1  0  0  0  0
 25 28  1  0  0  0  0
M  END
$$$$

  -OEChem-02102214123D

 28 27  0     1  0  0  0  0  0999 V2000
   -2.5879   -4.1703    0.3105 H   0  0  0  0  0  0  0  0  0  0  0  0
   -2.5629   -3.2152   -0.2221 C   0  0  0  0  0  0  0  0  0  0  0  0
   -3.3947   -2.5979    0.1255 H   0  0  0  0  0  0  0  0  0  0  0  0
   -2.6804   -3.4067   -1.2915 H   0  0  0  0  0  0  0  0  0  0  0  0
   -1.2459   -2.5080    0.0363 C   0  0  0  0  0  0  0  0  0  0  0  0
   -0.3910   -3.0463    0.7153 O   0  0  0  0  0  0  0  0  0  0  0  0
   -1.0276   -1.2522   -0.4957 N   0  0  0  0  0  0  0  0  0  0  0  0
   -1.7430   -0.8983   -1.1240 H   0  0  0  0  0  0  0  0  0  0  0  0
    0.2659   -0.5436   -0.4430 C   0  0  1  0  0  0  0  0  0  0  0  0
    1.0112   -1.1712   -0.9447 H   0  0  0  0  0  0  0  0  0  0  0  0
    0.1112    0.7744   -1.2240 C   0  0  0  0  0  0  0  0  0  0  0  0
   -0.4150    0.5469   -2.1574 H   0  0  0  0  0  0  0  0  0  0  0  0
   -0.5104    1.4816   -0.6645 H   0  0  0  0  0  0  0  0  0  0  0  0
    1.4716    1.4315   -1.5595 C   0  0  0  0  0  0  0  0  0  0  0  0
    1.6594    2.2630   -0.8746 H   0  0  0  0  0  0  0  0  0  0  0  0
    2.2806    0.7088   -1.4141 H   0  0  0  0  0  0  0  0  0  0  0  0
    1.5672    1.9353   -2.9991 C   0  0  0  0  0  0  0  0  0  0  0  0
    0.6004    2.4914   -3.4950 O   0  0  0  0  0  0  0  0  0  0  0  0
    2.7313    1.7361   -3.6582 O   0  0  0  0  0  0  0  0  0  0  0  0
    2.6111    2.1244   -4.5377 H   0  0  0  0  0  0  0  0  0  0  0  0
    0.7979   -0.2694    0.9836 C   0  0  0  0  0  0  0  0  0  0  0  0
    2.0036   -0.2614    1.1941 O   0  0  0  0  0  0  0  0  0  0  0  0
   -0.0559    0.2138    1.9585 N   0  0  0  0  0  0  0  0  0  0  0  0
   -1.0474    0.0927    1.7814 H   0  0  0  0  0  0  0  0  0  0  0  0
    0.3845    0.4978    3.3186 C   0  0  0  0  0  0  0  0  0  0  0  0
    1.1599    1.2712    3.3161 H   0  0  0  0  0  0  0  0  0  0  0  0
   -0.4553    0.8545    3.9225 H   0  0  0  0  0  0  0  0  0  0  0  0
    0.7902   -0.4058    3.7860 H   0  0  0  0  0  0  0  0  0  0  0  0
  1  2  1  0  0  0  0
  2  3  1  0  0  0  0
  2  4  1  0  0  0  0
  2  5  1  0  0  0  0
  5  6  2  0  0  0  0
  5  7  1  0  0  0  0
  7  8  1  0  0  0  0
  7  9  1  0  0  0  0
  9 10  1  0  0  0  0
  9 11  1  0  0  0  0
  9 21  1  0  0  0  0
 11 12  1  0  0  0  0
 11 13  1  0  0  0  0
 11 14  1  0  0  0  0
 14 15  1  0  0  0  0
 14 16  1  0  0  0  0
 14 17  1  0  0  0  0
 17 18  2  0  0  0  0
 17 19  1  0  0  0  0
 19 20  1  0  0  0  0
 21 22  2  0  0  0  0
 21 23  1  0  0  0  0
 23 24  1  0  0  0  0
 23 25  1  0  0  0  0
 25 26  1  0  0  0  0
 25 27  1  0  0  0  0
 25 28  1  0  0  0  0
M  END
$$$$

  -OEChem-02102214123D

 28 27  0     1  0  0  0  0  0999 V2000
   -2.5981   -4.1891    0.2716 H   0  0  0  0  0  0  0  0  0  0  0  0
   -2.5887   -3.2101   -0.2163 C   0  0  0  0  0  0  0  0  0  0  0  0
   -3.4122   -2.6115    0.1802 H   0  0  0  0  0  0  0  0  0  0  0  0
   -2.7332   -3.3518   -1.2901 H   0  0  0  0  0  0  0  0  0  0  0  0
   -1.2666   -2.5122    0.0413 C   0  0  0  0  0  0  0  0  0  0  0  0
   -0.4133   -3.0567    0.7175 O   0  0  0  0  0  0  0  0  0  0  0  0
   -1.0398   -1.2587   -0.4921 N   0  0  0  0  0  0  0  0  0  0  0  0
   -1.7538   -0.8975   -1.1179 H   0  0  0  0  0  0  0  0  0  0  0  0
    0.2574   -0.5578   -0.4380 C   0  0  1  0  0  0  0  0  0  0  0  0
    0.9992   -1.1927   -0.9356 H   0  0  0  0  0  0  0  0  0  0  0  0
    0.1111    0.7565   -1.2254 C   0  0  0  0  0  0  0  0  0  0  0  0
   -0.4026    0.5233   -2.1644 H   0  0  0  0  0  0  0  0  0  0  0  0
   -0.5124    1.4706   -0.6765 H   0  0  0  0  0  0  0  0  0  0  0  0
    1.4765    1.4004   -1.5569 C   0  0  0  0  0  0  0  0  0  0  0  0
    1.7958    2.0398   -0.7290 H   0  0  0  0  0  0  0  0  0  0  0  0
    2.2315    0.6164   -1.6698 H   0  0  0  0  0  0  0  0  0  0  0  0
    1.4780    2.2146   -2.8510 C   0  0  0  0  0  0  0  0  0  0  0  0
    0.4345    2.7057   -3.2518 O   0  0  0  0  0  0  0  0  0  0  0  0
    2.6602    2.3534   -3.4930 O   0  0  0  0  0  0  0  0  0  0  0  0
    2.4792    2.8983   -4.2735 H   0  0  0  0  0  0  0  0  0  0  0  0
    0.7938   -0.2814    0.9860 C   0  0  0  0  0  0  0  0  0  0  0  0
    2.0005   -0.2742    1.1911 O   0  0  0  0  0  0  0  0  0  0  0  0
   -0.0547    0.2106    1.9609 N   0  0  0  0  0  0  0  0  0  0  0  0
   -1.0478    0.0979    1.7873 H   0  0  0  0  0  0  0  0  0  0  0  0
    0.3932    0.5136    3.3144 C   0  0  0  0  0  0  0  0  0  0  0  0
    1.1736    1.2817    3.2963 H   0  0  0  0  0  0  0  0  0  0  0  0
   -0.4412    0.8860    3.9160 H   0  0  0  0  0  0  0  0  0  0  0  0
    0.7950   -0.3850    3.7944 H   0  0  0  0  0  0  0  0  0  0  0  0
  1  2  1  0  0  0  0
  2  3  1  0  0  0  0
  2  4  1  0  0  0  0
  2  5  1  0  0  0  0
  5  6  2  0  0  0  0
  5  7  1  0  0  0  0
  7  8  1  0  0  0  0
  7  9  1  0  0  0  0
  9 10  1  0  0  0  0
  9 11  1  0  0  0  0
  9 21  1  0  0  0  0
 11 12  1  0  0  0  0
 11 13  1  0  0  0  0
 11 14  1  0  0  0  0
 14 15  1  0  0  0  0
 14 16  1  0  0  0  0
 14 17  1  0  0  0  0
 17 18  2  0  0  0  0
 17 19  1  0  0  0  0
 19 20  1  0  0  0  0
 21 22  2  0  0  0  0
 21 23  1  0  0  0  0
 23 24  1  0  0  0  0
 23 25  1  0  0  0  0
 25 26  1  0  0  0  0
 25 27  1  0  0  0  0
 25 28  1  0  0  0  0
M  END
$$$$

  -OEChem-02102214123D

 28 27  0     1  0  0  0  0  0999 V2000
   -2.6158   -4.1733    0.2910 H   0  0  0  0  0  0  0  0  0  0  0  0
   -2.6032   -3.1937   -0.1955 C   0  0  0  0  0  0  0  0  0  0  0  0
   -3.4150   -2.5878    0.2140 H   0  0  0  0  0  0  0  0  0  0  0  0
   -2.7643   -3.3324   -1.2673 H   0  0  0  0  0  0  0  0  0  0  0  0
   -1.2709   -2.5093    0.0445 C   0  0  0  0  0  0  0  0  0  0  0  0
   -0.4166   -3.0606    0.7137 O   0  0  0  0  0  0  0  0  0  0  0  0
   -1.0378   -1.2585   -0.4923 N   0  0  0  0  0  0  0  0  0  0  0  0
   -1.7543   -0.8911   -1.1115 H   0  0  0  0  0  0  0  0  0  0  0  0
    0.2622   -0.5630   -0.4395 C   0  0  1  0  0  0  0  0  0  0  0  0
    1.0038   -1.2011   -0.9336 H   0  0  0  0  0  0  0  0  0  0  0  0
    0.1187    0.7457   -1.2362 C   0  0  0  0  0  0  0  0  0  0  0  0
   -0.3949    0.5197   -2.1772 H   0  0  0  0  0  0  0  0  0  0  0  0
   -0.4987    1.4626   -0.6837 H   0  0  0  0  0  0  0  0  0  0  0  0
    1.4859    1.3802   -1.5683 C   0  0  0  0  0  0  0  0  0  0  0  0
    1.9224    1.8153   -0.6645 H   0  0  0  0  0  0  0  0  0  0  0  0
    2.1703    0.6039   -1.9225 H   0  0  0  0  0  0  0  0  0  0  0  0
    1.4184    2.4628   -2.6461 C   0  0  0  0  0  0  0  0  0  0  0  0
    0.3360    2.9204   -2.9780 O   0  0  0  0  0  0  0  0  0  0  0  0
    2.5921    2.8632   -3.1854 O   0  0  0  0  0  0  0  0  0  0  0  0
    2.3698    3.5482   -3.8337 H   0  0  0  0  0  0  0  0  0  0  0  0
    0.7952   -0.2867    0.9860 C   0  0  0  0  0  0  0  0  0  0  0  0
    2.0007   -0.2939    1.1983 O   0  0  0  0  0  0  0  0  0  0  0  0
   -0.0541    0.2106    1.9577 N   0  0  0  0  0  0  0  0  0  0  0  0
   -1.0471    0.1055    1.7784 H   0  0  0  0  0  0  0  0  0  0  0  0
    0.3880    0.5006    3.3160 C   0  0  0  0  0  0  0  0  0  0  0  0
    1.1824    1.2545    3.3082 H   0  0  0  0  0  0  0  0  0  0  0  0
   -0.4453    0.8854    3.9115 H   0  0  0  0  0  0  0  0  0  0  0  0
    0.7693   -0.4071    3.7960 H   0  0  0  0  0  0  0  0  0  0  0  0
  1  2  1  0  0  0  0
  2  3  1  0  0  0  0
  2  4  1  0  0  0  0
  2  5  1  0  0  0  0
  5  6  2  0  0  0  0
  5  7  1  0  0  0  0
  7  8  1  0  0  0  0
  7  9  1  0  0  0  0
  9 10  1  0  0  0  0
  9 11  1  0  0  0  0
  9 21  1  0  0  0  0
 11 12  1  0  0  0  0
 11 13  1  0  0  0  0
 11 14  1  0  0  0  0
 14 15  1  0  0  0  0
 14 16  1  0  0  0  0
 14 17  1  0  0  0  0
 17 18  2  0  0  0  0
 17 19  1  0  0  0  0
 19 20  1  0  0  0  0
 21 22  2  0  0  0  0
 21 23  1  0  0  0  0
 23 24  1  0  0  0  0
 23 25  1  0  0  0  0
 25 26  1  0  0  0  0
 25 27  1  0  0  0  0
 25 28  1  0  0  0  0
M  END
$$$$

  -OEChem-02102214123D

 28 27  0     1  0  0  0  0  0999 V2000
   -2.6086   -4.1898    0.2887 H   0  0  0  0  0  0  0  0  0  0  0  0
   -2.6165   -3.1965   -0.1693 C   0  0  0  0  0  0  0  0  0  0  0  0
   -3.4151   -2.6062    0.2864 H   0  0  0  0  0  0  0  0  0  0  0  0
   -2.8150   -3.3046   -1.2384 H   0  0  0  0  0  0  0  0  0  0  0  0
   -1.2790   -2.5135    0.0447 C   0  0  0  0  0  0  0  0  0  0  0  0
   -0.4113   -3.0669    0.6947 O   0  0  0  0  0  0  0  0  0  0  0  0
   -1.0566   -1.2603   -0.4909 N   0  0  0  0  0  0  0  0  0  0  0  0
   -1.7887   -0.8838   -1.0858 H   0  0  0  0  0  0  0  0  0  0  0  0
    0.2411   -0.5592   -0.4483 C   0  0  1  0  0  0  0  0  0  0  0  0
    0.9744   -1.2051   -0.9447 H   0  0  0  0  0  0  0  0  0  0  0  0
    0.1088    0.7505   -1.2486 C   0  0  0  0  0  0  0  0  0  0  0  0
   -0.6219    0.6156   -2.0534 H   0  0  0  0  0  0  0  0  0  0  0  0
   -0.2626    1.5499   -0.5972 H   0  0  0  0  0  0  0  0  0  0  0  0
    1.4496    1.1669   -1.8872 C   0  0  0  0  0  0  0  0  0  0  0  0
    2.2008    1.3014   -1.1030 H   0  0  0  0  0  0  0  0  0  0  0  0
    1.8021    0.3730   -2.5515 H   0  0  0  0  0  0  0  0  0  0  0  0
    1.3717    2.4635   -2.6945 C   0  0  0  0  0  0  0  0  0  0  0  0
    0.2994    3.0318   -2.8300 O   0  0  0  0  0  0  0  0  0  0  0  0
    2.5254    2.9138   -3.2373 O   0  0  0  0  0  0  0  0  0  0  0  0
    2.3007    3.7339   -3.7018 H   0  0  0  0  0  0  0  0  0  0  0  0
    0.7904   -0.2819    0.9703 C   0  0  0  0  0  0  0  0  0  0  0  0
    1.9986   -0.2775    1.1652 O   0  0  0  0  0  0  0  0  0  0  0  0
   -0.0504    0.2106    1.9517 N   0  0  0  0  0  0  0  0  0  0  0  0
   -1.0447    0.1012    1.7825 H   0  0  0  0  0  0  0  0  0  0  0  0
    0.4033    0.4983    3.3065 C   0  0  0  0  0  0  0  0  0  0  0  0
    1.2037    1.2456    3.2930 H   0  0  0  0  0  0  0  0  0  0  0  0
   -0.4230    0.8909    3.9068 H   0  0  0  0  0  0  0  0  0  0  0  0
    0.7801   -0.4121    3.7846 H   0  0  0  0  0  0  0  0  0  0  0  0
  1  2  1  0  0  0  0
  2  3  1  0  0  0  0
  2  4  1  0  0  0  0
  2  5  1  0  0  0  0
  5  6  2  0  0  0  0
  5  7  1  0  0  0  0
  7  8  1  0  0  0  0
  7  9  1  0  0  0  0
  9 10  1  0  0  0  0
  9 11  1  0  0  0  0
  9 21  1  0  0  0  0
 11 12  1  0  0  0  0
 11 13  1  0  0  0  0
 11 14  1  0  0  0  0
 14 15  1  0  0  0  0
 14 16  1  0  0  0  0
 14 17  1  0  0  0  0
 17 18  2  0  0  0  0
 17 19  1  0  0  0  0
 19 20  1  0  0  0  0
 21 22  2  0  0  0  0
 21 23  1  0  0  0  0
 23 24  1  0  0  0  0
 23 25  1  0  0  0  0
 25 26  1  0  0  0  0
 25 27  1  0  0  0  0
 25 28  1  0  0  0  0
M  END
$$$$

  -OEChem-02102214123D

 28 27  0     1  0  0  0  0  0999 V2000
   -2.6169   -4.1836    0.2937 H   0  0  0  0  0  0  0  0  0  0  0  0
   -2.6217   -3.1907   -0.1651 C   0  0  0  0  0  0  0  0  0  0  0  0
   -3.4210   -2.5986    0.2868 H   0  0  0  0  0  0  0  0  0  0  0  0
   -2.8165   -3.2995   -1.2347 H   0  0  0  0  0  0  0  0  0  0  0  0
   -1.2838   -2.5097    0.0523 C   0  0  0  0  0  0  0  0  0  0  0  0
   -0.4191   -3.0634    0.7061 O   0  0  0  0  0  0  0  0  0  0  0  0
   -1.0569   -1.2590   -0.4875 N   0  0  0  0  0  0  0  0  0  0  0  0
   -1.7865   -0.8840   -1.0865 H   0  0  0  0  0  0  0  0  0  0  0  0
    0.2438   -0.5631   -0.4499 C   0  0  1  0  0  0  0  0  0  0  0  0
    0.9745   -1.2117   -0.9468 H   0  0  0  0  0  0  0  0  0  0  0  0
    0.1111    0.7424   -1.2573 C   0  0  0  0  0  0  0  0  0  0  0  0
   -0.6287    0.6233   -2.0561 H   0  0  0  0  0  0  0  0  0  0  0  0
   -0.2479    1.5366   -0.5924 H   0  0  0  0  0  0  0  0  0  0  0  0
    1.4501    1.1557   -1.9038 C   0  0  0  0  0  0  0  0  0  0  0  0
    2.2550    1.0565   -1.1692 H   0  0  0  0  0  0  0  0  0  0  0  0
    1.6804    0.4872   -2.7377 H   0  0  0  0  0  0  0  0  0  0  0  0
    1.4723    2.6002   -2.4053 C   0  0  0  0  0  0  0  0  0  0  0  0
    0.4282    3.2272   -2.4934 O   0  0  0  0  0  0  0  0  0  0  0  0
    2.6763    3.1085   -2.7526 O   0  0  0  0  0  0  0  0  0  0  0  0
    2.5100    4.0189   -3.0393 H   0  0  0  0  0  0  0  0  0  0  0  0
    0.7950   -0.2851    0.9686 C   0  0  0  0  0  0  0  0  0  0  0  0
    2.0029   -0.2893    1.1652 O   0  0  0  0  0  0  0  0  0  0  0  0
   -0.0430    0.2128    1.9498 N   0  0  0  0  0  0  0  0  0  0  0  0
   -1.0381    0.1124    1.7801 H   0  0  0  0  0  0  0  0  0  0  0  0
    0.4131    0.5037    3.3032 C   0  0  0  0  0  0  0  0  0  0  0  0
    1.2131    1.2514    3.2863 H   0  0  0  0  0  0  0  0  0  0  0  0
   -0.4119    0.8972    3.9046 H   0  0  0  0  0  0  0  0  0  0  0  0
    0.7908   -0.4057    3.7824 H   0  0  0  0  0  0  0  0  0  0  0  0
  1  2  1  0  0  0  0
  2  3  1  0  0  0  0
  2  4  1  0  0  0  0
  2  5  1  0  0  0  0
  5  6  2  0  0  0  0
  5  7  1  0  0  0  0
  7  8  1  0  0  0  0
  7  9  1  0  0  0  0
  9 10  1  0  0  0  0
  9 11  1  0  0  0  0
  9 21  1  0  0  0  0
 11 12  1  0  0  0  0
 11 13  1  0  0  0  0
 11 14  1  0  0  0  0
 14 15  1  0  0  0  0
 14 16  1  0  0  0  0
 14 17  1  0  0  0  0
 17 18  2  0  0  0  0
 17 19  1  0  0  0  0
 19 20  1  0  0  0  0
 21 22  2  0  0  0  0
 21 23  1  0  0  0  0
 23 24  1  0  0  0  0
 23 25  1  0  0  0  0
 25 26  1  0  0  0  0
 25 27  1  0  0  0  0
 25 28  1  0  0  0  0
M  END
$$$$

  -OEChem-02102214123D

 28 27  0     1  0  0  0  0  0999 V2000
   -2.6285   -4.1778    0.3095 H   0  0  0  0  0  0  0  0  0  0  0  0
   -2.6274   -3.1911   -0.1628 C   0  0  0  0  0  0  0  0  0  0  0  0
   -3.4268   -2.5900    0.2771 H   0  0  0  0  0  0  0  0  0  0  0  0
   -2.8174   -3.3143   -1.2318 H   0  0  0  0  0  0  0  0  0  0  0  0
   -1.2879   -2.5117    0.0523 C   0  0  0  0  0  0  0  0  0  0  0  0
   -0.4219   -3.0675    0.7024 O   0  0  0  0  0  0  0  0  0  0  0  0
   -1.0600   -1.2615   -0.4884 N   0  0  0  0  0  0  0  0  0  0  0  0
   -1.7901   -0.8858   -1.0859 H   0  0  0  0  0  0  0  0  0  0  0  0
    0.2413   -0.5667   -0.4531 C   0  0  1  0  0  0  0  0  0  0  0  0
    0.9693   -1.2180   -0.9506 H   0  0  0  0  0  0  0  0  0  0  0  0
    0.1088    0.7366   -1.2652 C   0  0  0  0  0  0  0  0  0  0  0  0
   -0.6343    0.6238   -2.0613 H   0  0  0  0  0  0  0  0  0  0  0  0
   -0.2509    1.5248   -0.5936 H   0  0  0  0  0  0  0  0  0  0  0  0
    1.4473    1.1527   -1.9168 C   0  0  0  0  0  0  0  0  0  0  0  0
    2.2789    0.8205   -1.2878 H   0  0  0  0  0  0  0  0  0  0  0  0
    1.5567    0.6626   -2.8878 H   0  0  0  0  0  0  0  0  0  0  0  0
    1.6075    2.6632   -2.0943 C   0  0  0  0  0  0  0  0  0  0  0  0
    0.6141    3.3715   -2.1438 O   0  0  0  0  0  0  0  0  0  0  0  0
    2.8671    3.1390   -2.2203 O   0  0  0  0  0  0  0  0  0  0  0  0
    2.7816    4.0987   -2.3220 H   0  0  0  0  0  0  0  0  0  0  0  0
    0.7982   -0.2863    0.9631 C   0  0  0  0  0  0  0  0  0  0  0  0
    2.0070   -0.2912    1.1537 O   0  0  0  0  0  0  0  0  0  0  0  0
   -0.0332    0.2142    1.9486 N   0  0  0  0  0  0  0  0  0  0  0  0
   -1.0297    0.1163    1.7862 H   0  0  0  0  0  0  0  0  0  0  0  0
    0.4344    0.5173    3.2956 C   0  0  0  0  0  0  0  0  0  0  0  0
    1.2280    1.2714    3.2649 H   0  0  0  0  0  0  0  0  0  0  0  0
   -0.3873    0.9075    3.9036 H   0  0  0  0  0  0  0  0  0  0  0  0
    0.8255   -0.3855    3.7767 H   0  0  0  0  0  0  0  0  0  0  0  0
  1  2  1  0  0  0  0
  2  3  1  0  0  0  0
  2  4  1  0  0  0  0
  2  5  1  0  0  0  0
  5  6  2  0  0  0  0
  5  7  1  0  0  0  0
  7  8  1  0  0  0  0
  7  9  1  0  0  0  0
  9 10  1  0  0  0  0
  9 11  1  0  0  0  0
  9 21  1  0  0  0  0
 11 12  1  0  0  0  0
 11 13  1  0  0  0  0
 11 14  1  0  0  0  0
 14 15  1  0  0  0  0
 14 16  1  0  0  0  0
 14 17  1  0  0  0  0
 17 18  2  0  0  0  0
 17 19  1  0  0  0  0
 19 20  1  0  0  0  0
 21 22  2  0  0  0  0
 21 23  1  0  0  0  0
 23 24  1  0  0  0  0
 23 25  1  0  0  0  0
 25 26  1  0  0  0  0
 25 27  1  0  0  0  0
 25 28  1  0  0  0  0
M  END
$$$$

  -OEChem-02102214123D

 28 27  0     1  0  0  0  0  0999 V2000
   -2.6279   -4.1722    0.3437 H   0  0  0  0  0  0  0  0  0  0  0  0
   -2.6250   -3.1961   -0.1501 C   0  0  0  0  0  0  0  0  0  0  0  0
   -3.4204   -2.5826    0.2795 H   0  0  0  0  0  0  0  0  0  0  0  0
   -2.8196   -3.3414   -1.2155 H   0  0  0  0  0  0  0  0  0  0  0  0
   -1.2823   -2.5177    0.0455 C   0  0  0  0  0  0  0  0  0  0  0  0
   -0.4066   -3.0755    0.6809 O   0  0  0  0  0  0  0  0  0  0  0  0
   -1.0622   -1.2655   -0.4940 N   0  0  0  0  0  0  0  0  0  0  0  0
   -1.8031   -0.8832   -1.0738 H   0  0  0  0  0  0  0  0  0  0  0  0
    0.2370   -0.5664   -0.4623 C   0  0  1  0  0  0  0  0  0  0  0  0
    0.9615   -1.2192   -0.9628 H   0  0  0  0  0  0  0  0  0  0  0  0
    0.1052    0.7399   -1.2701 C   0  0  0  0  0  0  0  0  0  0  0  0
   -0.6350    0.6218   -2.0679 H   0  0  0  0  0  0  0  0  0  0  0  0
   -0.2679    1.5225   -0.5999 H   0  0  0  0  0  0  0  0  0  0  0  0
    1.4438    1.1622   -1.9248 C   0  0  0  0  0  0  0  0  0  0  0  0
    2.2704    0.6089   -1.4682 H   0  0  0  0  0  0  0  0  0  0  0  0
    1.4326    0.9069   -2.9876 H   0  0  0  0  0  0  0  0  0  0  0  0
    1.7728    2.6483   -1.7750 C   0  0  0  0  0  0  0  0  0  0  0  0
    0.8634    3.4622   -1.7350 O   0  0  0  0  0  0  0  0  0  0  0  0
    3.0806    2.9907   -1.7334 O   0  0  0  0  0  0  0  0  0  0  0  0
    3.1029    3.9538   -1.6324 H   0  0  0  0  0  0  0  0  0  0  0  0
    0.8015   -0.2854    0.9502 C   0  0  0  0  0  0  0  0  0  0  0  0
    2.0117   -0.2804    1.1310 O   0  0  0  0  0  0  0  0  0  0  0  0
   -0.0261    0.2114    1.9407 N   0  0  0  0  0  0  0  0  0  0  0  0
   -1.0235    0.1162    1.7827 H   0  0  0  0  0  0  0  0  0  0  0  0
    0.4479    0.5264    3.2826 C   0  0  0  0  0  0  0  0  0  0  0  0
    1.2278    1.2943    3.2429 H   0  0  0  0  0  0  0  0  0  0  0  0
   -0.3757    0.9039    3.8960 H   0  0  0  0  0  0  0  0  0  0  0  0
    0.8583   -0.3681    3.7632 H   0  0  0  0  0  0  0  0  0  0  0  0
  1  2  1  0  0  0  0
  2  3  1  0  0  0  0
  2  4  1  0  0  0  0
  2  5  1  0  0  0  0
  5  6  2  0  0  0  0
  5  7  1  0  0  0  0
  7  8  1  0  0  0  0
  7  9  1  0  0  0  0
  9 10  1  0  0  0  0
  9 11  1  0  0  0  0
  9 21  1  0  0  0  0
 11 12  1  0  0  0  0
 11 13  1  0  0  0  0
 11 14  1  0  0  0  0
 14 15  1  0  0  0  0
 14 16  1  0  0  0  0
 14 17  1  0  0  0  0
 17 18  2  0  0  0  0
 17 19  1  0  0  0  0
 19 20  1  0  0  0  0
 21 22  2  0  0  0  0
 21 23  1  0  0  0  0
 23 24  1  0  0  0  0
 23 25  1  0  0  0  0
 25 26  1  0  0  0  0
 25 27  1  0  0  0  0
 25 28  1  0  0  0  0
M  END
$$$$

  -OEChem-02102214123D

 28 27  0     1  0  0  0  0  0999 V2000
   -2.6236   -4.1833    0.3294 H   0  0  0  0  0  0  0  0  0  0  0  0
   -2.6204   -3.2081   -0.1659 C   0  0  0  0  0  0  0  0  0  0  0  0
   -3.4246   -2.5987    0.2530 H   0  0  0  0  0  0  0  0  0  0  0  0
   -2.8011   -3.3562   -1.2333 H   0  0  0  0  0  0  0  0  0  0  0  0
   -1.2840   -2.5216    0.0433 C   0  0  0  0  0  0  0  0  0  0  0  0
   -0.4098   -3.0747    0.6849 O   0  0  0  0  0  0  0  0  0  0  0  0
   -1.0677   -1.2677   -0.4934 N   0  0  0  0  0  0  0  0  0  0  0  0
   -1.8055   -0.8916   -1.0811 H   0  0  0  0  0  0  0  0  0  0  0  0
    0.2301   -0.5663   -0.4595 C   0  0  1  0  0  0  0  0  0  0  0  0
    0.9512   -1.2217   -0.9606 H   0  0  0  0  0  0  0  0  0  0  0  0
    0.1011    0.7443   -1.2606 C   0  0  0  0  0  0  0  0  0  0  0  0
   -0.6241    0.6050   -2.0687 H   0  0  0  0  0  0  0  0  0  0  0  0
   -0.3017    1.5253   -0.6069 H   0  0  0  0  0  0  0  0  0  0  0  0
    1.4407    1.1741   -1.9136 C   0  0  0  0  0  0  0  0  0  0  0  0
    2.2224    0.4406   -1.6936 H   0  0  0  0  0  0  0  0  0  0  0  0
    1.3217    1.2003   -3.0000 H   0  0  0  0  0  0  0  0  0  0  0  0
    1.9562    2.5428   -1.4628 C   0  0  0  0  0  0  0  0  0  0  0  0
    1.1596    3.4288   -1.1959 O   0  0  0  0  0  0  0  0  0  0  0  0
    3.2975    2.7126   -1.4250 O   0  0  0  0  0  0  0  0  0  0  0  0
    3.4442    3.6136   -1.1012 H   0  0  0  0  0  0  0  0  0  0  0  0
    0.8016   -0.2836    0.9489 C   0  0  0  0  0  0  0  0  0  0  0  0
    2.0136   -0.2646    1.1162 O   0  0  0  0  0  0  0  0  0  0  0  0
   -0.0199    0.2121    1.9450 N   0  0  0  0  0  0  0  0  0  0  0  0
   -1.0185    0.1127    1.7971 H   0  0  0  0  0  0  0  0  0  0  0  0
    0.4664    0.5478    3.2774 C   0  0  0  0  0  0  0  0  0  0  0  0
    1.2162    1.3440    3.2219 H   0  0  0  0  0  0  0  0  0  0  0  0
   -0.3591    0.8953    3.9057 H   0  0  0  0  0  0  0  0  0  0  0  0
    0.9187   -0.3297    3.7516 H   0  0  0  0  0  0  0  0  0  0  0  0
  1  2  1  0  0  0  0
  2  3  1  0  0  0  0
  2  4  1  0  0  0  0
  2  5  1  0  0  0  0
  5  6  2  0  0  0  0
  5  7  1  0  0  0  0
  7  8  1  0  0  0  0
  7  9  1  0  0  0  0
  9 10  1  0  0  0  0
  9 11  1  0  0  0  0
  9 21  1  0  0  0  0
 11 12  1  0  0  0  0
 11 13  1  0  0  0  0
 11 14  1  0  0  0  0
 14 15  1  0  0  0  0
 14 16  1  0  0  0  0
 14 17  1  0  0  0  0
 17 18  2  0  0  0  0
 17 19  1  0  0  0  0
 19 20  1  0  0  0  0
 21 22  2  0  0  0  0
 21 23  1  0  0  0  0
 23 24  1  0  0  0  0
 23 25  1  0  0  0  0
 25 26  1  0  0  0  0
 25 27  1  0  0  0  0
 25 28  1  0  0  0  0
M  END
$$$$

  -OEChem-02102214123D

 28 27  0     1  0  0  0  0  0999 V2000
   -2.6081   -4.1939    0.3172 H   0  0  0  0  0  0  0  0  0  0  0  0
   -2.6135   -3.2116   -0.1639 C   0  0  0  0  0  0  0  0  0  0  0  0
   -3.4092   -2.6081    0.2790 H   0  0  0  0  0  0  0  0  0  0  0  0
   -2.8145   -3.3445   -1.2297 H   0  0  0  0  0  0  0  0  0  0  0  0
   -1.2730   -2.5286    0.0306 C   0  0  0  0  0  0  0  0  0  0  0  0
   -0.3922   -3.0869    0.6583 O   0  0  0  0  0  0  0  0  0  0  0  0
   -1.0602   -1.2716   -0.5009 N   0  0  0  0  0  0  0  0  0  0  0  0
   -1.8050   -0.8861   -1.0733 H   0  0  0  0  0  0  0  0  0  0  0  0
    0.2349   -0.5654   -0.4603 C   0  0  1  0  0  0  0  0  0  0  0  0
    0.9603   -1.2177   -0.9593 H   0  0  0  0  0  0  0  0  0  0  0  0
    0.1074    0.7511   -1.2524 C   0  0  0  0  0  0  0  0  0  0  0  0
   -0.5995    0.5932   -2.0732 H   0  0  0  0  0  0  0  0  0  0  0  0
   -0.3217    1.5345   -0.6190 H   0  0  0  0  0  0  0  0  0  0  0  0
    1.4494    1.1846   -1.8960 C   0  0  0  0  0  0  0  0  0  0  0  0
    2.1441    0.3412   -1.9453 H   0  0  0  0  0  0  0  0  0  0  0  0
    1.2602    1.5031   -2.9246 H   0  0  0  0  0  0  0  0  0  0  0  0
    2.1519    2.3485   -1.1915 C   0  0  0  0  0  0  0  0  0  0  0  0
    1.4935    3.1908   -0.6018 O   0  0  0  0  0  0  0  0  0  0  0  0
    3.4990    2.4005   -1.3018 O   0  0  0  0  0  0  0  0  0  0  0  0
    3.7791    3.1600   -0.7698 H   0  0  0  0  0  0  0  0  0  0  0  0
    0.8005   -0.2861    0.9507 C   0  0  0  0  0  0  0  0  0  0  0  0
    2.0120   -0.2682    1.1237 O   0  0  0  0  0  0  0  0  0  0  0  0
   -0.0271    0.2027    1.9448 N   0  0  0  0  0  0  0  0  0  0  0  0
   -1.0253    0.1215    1.7855 H   0  0  0  0  0  0  0  0  0  0  0  0
    0.4523    0.5544    3.2752 C   0  0  0  0  0  0  0  0  0  0  0  0
    1.1963    1.3557    3.2144 H   0  0  0  0  0  0  0  0  0  0  0  0
   -0.3778    0.9015    3.8976 H   0  0  0  0  0  0  0  0  0  0  0  0
    0.9096   -0.3151    3.7590 H   0  0  0  0  0  0  0  0  0  0  0  0
  1  2  1  0  0  0  0
  2  3  1  0  0  0  0
  2  4  1  0  0  0  0
  2  5  1  0  0  0  0
  5  6  2  0  0  0  0
  5  7  1  0  0  0  0
  7  8  1  0  0  0  0
  7  9  1  0  0  0  0
  9 10  1  0  0  0  0
  9 11  1  0  0  0  0
  9 21  1  0  0  0  0
 11 12  1  0  0  0  0
 11 13  1  0  0  0  0
 11 14  1  0  0  0  0
 14 15  1  0  0  0  0
 14 16  1  0  0  0  0
 14 17  1  0  0  0  0
 17 18  2  0  0  0  0
 17 19  1  0  0  0  0
 19 20  1  0  0  0  0
 21 22  2  0  0  0  0
 21 23  1  0  0  0  0
 23 24  1  0  0  0  0
 23 25  1  0  0  0  0
 25 26  1  0  0  0  0
 25 27  1  0  0  0  0
 25 28  1  0  0  0  0
M  END
$$$$

  -OEChem-02102214123D

 28 27  0     1  0  0  0  0  0999 V2000
   -2.5925   -4.1913    0.3072 H   0  0  0  0  0  0  0  0  0  0  0  0
   -2.6002   -3.2039   -0.1633 C   0  0  0  0  0  0  0  0  0  0  0  0
   -3.3907   -2.6034    0.2931 H   0  0  0  0  0  0  0  0  0  0  0  0
   -2.8112   -3.3251   -1.2284 H   0  0  0  0  0  0  0  0  0  0  0  0
   -1.2566   -2.5255    0.0255 C   0  0  0  0  0  0  0  0  0  0  0  0
   -0.3723   -3.0909    0.6418 O   0  0  0  0  0  0  0  0  0  0  0  0
   -1.0441   -1.2677   -0.5041 N   0  0  0  0  0  0  0  0  0  0  0  0
   -1.7947   -0.8758   -1.0644 H   0  0  0  0  0  0  0  0  0  0  0  0
    0.2508   -0.5609   -0.4641 C   0  0  1  0  0  0  0  0  0  0  0  0
    0.9803   -1.2073   -0.9648 H   0  0  0  0  0  0  0  0  0  0  0  0
    0.1114    0.7541   -1.2593 C   0  0  0  0  0  0  0  0  0  0  0  0
   -0.5958    0.5868   -2.0781 H   0  0  0  0  0  0  0  0  0  0  0  0
   -0.3154    1.5437   -0.6310 H   0  0  0  0  0  0  0  0  0  0  0  0
    1.4437    1.1954   -1.9090 C   0  0  0  0  0  0  0  0  0  0  0  0
    2.0323    0.3229   -2.2065 H   0  0  0  0  0  0  0  0  0  0  0  0
    1.2232    1.7600   -2.8187 H   0  0  0  0  0  0  0  0  0  0  0  0
    2.3008    2.0991   -1.0204 C   0  0  0  0  0  0  0  0  0  0  0  0
    1.7578    2.9245   -0.3030 O   0  0  0  0  0  0  0  0  0  0  0  0
    3.6420    1.9503   -1.1061 O   0  0  0  0  0  0  0  0  0  0  0  0
    4.0158    2.5343   -0.4295 H   0  0  0  0  0  0  0  0  0  0  0  0
    0.8129   -0.2861    0.9502 C   0  0  0  0  0  0  0  0  0  0  0  0
    2.0227   -0.2993    1.1358 O   0  0  0  0  0  0  0  0  0  0  0  0
   -0.0158    0.1995    1.9450 N   0  0  0  0  0  0  0  0  0  0  0  0
   -1.0140    0.1478    1.7743 H   0  0  0  0  0  0  0  0  0  0  0  0
    0.4611    0.5512    3.2762 C   0  0  0  0  0  0  0  0  0  0  0  0
    1.2241    1.3345    3.2147 H   0  0  0  0  0  0  0  0  0  0  0  0
   -0.3656    0.9232    3.8889 H   0  0  0  0  0  0  0  0  0  0  0  0
    0.8941   -0.3247    3.7707 H   0  0  0  0  0  0  0  0  0  0  0  0
  1  2  1  0  0  0  0
  2  3  1  0  0  0  0
  2  4  1  0  0  0  0
  2  5  1  0  0  0  0
  5  6  2  0  0  0  0
  5  7  1  0  0  0  0
  7  8  1  0  0  0  0
  7  9  1  0  0  0  0
  9 10  1  0  0  0  0
  9 11  1  0  0  0  0
  9 21  1  0  0  0  0
 11 12  1  0  0  0  0
 11 13  1  0  0  0  0
 11 14  1  0  0  0  0
 14 15  1  0  0  0  0
 14 16  1  0  0  0  0
 14 17  1  0  0  0  0
 17 18  2  0  0  0  0
 17 19  1  0  0  0  0
 19 20  1  0  0  0  0
 21 22  2  0  0  0  0
 21 23  1  0  0  0  0
 23 24  1  0  0  0  0
 23 25  1  0  0  0  0
 25 26  1  0  0  0  0
 25 27  1  0  0  0  0
 25 28  1  0  0  0  0
M  END
$$$$

  -OEChem-02102214123D

 28 27  0     1  0  0  0  0  0999 V2000
   -2.5659   -4.1751    0.3119 H   0  0  0  0  0  0  0  0  0  0  0  0
   -2.5750   -3.1842   -0.1513 C   0  0  0  0  0  0  0  0  0  0  0  0
   -3.3573   -2.5841    0.3193 H   0  0  0  0  0  0  0  0  0  0  0  0
   -2.7993   -3.2966   -1.2147 H   0  0  0  0  0  0  0  0  0  0  0  0
   -1.2260   -2.5134    0.0273 C   0  0  0  0  0  0  0  0  0  0  0  0
   -0.3410   -3.0856    0.6357 O   0  0  0  0  0  0  0  0  0  0  0  0
   -1.0098   -1.2563   -0.5036 N   0  0  0  0  0  0  0  0  0  0  0  0
   -1.7609   -0.8619   -1.0613 H   0  0  0  0  0  0  0  0  0  0  0  0
    0.2868   -0.5509   -0.4661 C   0  0  1  0  0  0  0  0  0  0  0  0
    1.0238   -1.1880   -0.9686 H   0  0  0  0  0  0  0  0  0  0  0  0
    0.1249    0.7601   -1.2697 C   0  0  0  0  0  0  0  0  0  0  0  0
   -0.6005    0.5940   -2.0724 H   0  0  0  0  0  0  0  0  0  0  0  0
   -0.2817    1.5499   -0.6279 H   0  0  0  0  0  0  0  0  0  0  0  0
    1.4323    1.2295   -1.9424 C   0  0  0  0  0  0  0  0  0  0  0  0
    1.9048    0.3906   -2.4617 H   0  0  0  0  0  0  0  0  0  0  0  0
    1.1967    1.9877   -2.6940 H   0  0  0  0  0  0  0  0  0  0  0  0
    2.4354    1.8435   -0.9685 C   0  0  0  0  0  0  0  0  0  0  0  0
    2.0484    2.7098   -0.2003 O   0  0  0  0  0  0  0  0  0  0  0  0
    3.7104    1.3967   -1.0191 O   0  0  0  0  0  0  0  0  0  0  0  0
    4.1586    1.7959   -0.2582 H   0  0  0  0  0  0  0  0  0  0  0  0
    0.8310   -0.2860    0.9591 C   0  0  0  0  0  0  0  0  0  0  0  0
    2.0328   -0.3539    1.1814 O   0  0  0  0  0  0  0  0  0  0  0  0
   -0.0106    0.1953    1.9451 N   0  0  0  0  0  0  0  0  0  0  0  0
   -1.0052    0.1671    1.7504 H   0  0  0  0  0  0  0  0  0  0  0  0
    0.4405    0.5022    3.2962 C   0  0  0  0  0  0  0  0  0  0  0  0
    1.2338    1.2568    3.2725 H   0  0  0  0  0  0  0  0  0  0  0  0
   -0.3887    0.8940    3.8927 H   0  0  0  0  0  0  0  0  0  0  0  0
    0.8257   -0.3990    3.7847 H   0  0  0  0  0  0  0  0  0  0  0  0
  1  2  1  0  0  0  0
  2  3  1  0  0  0  0
  2  4  1  0  0  0  0
  2  5  1  0  0  0  0
  5  6  2  0  0  0  0
  5  7  1  0  0  0  0
  7  8  1  0  0  0  0
  7  9  1  0  0  0  0
  9 10  1  0  0  0  0
  9 11  1  0  0  0  0
  9 21  1  0  0  0  0
 11 12  1  0  0  0  0
 11 13  1  0  0  0  0
 11 14  1  0  0  0  0
 14 15  1  0  0  0  0
 14 16  1  0  0  0  0
 14 17  1  0  0  0  0
 17 18  2  0  0  0  0
 17 19  1  0  0  0  0
 19 20  1  0  0  0  0
 21 22  2  0  0  0  0
 21 23  1  0  0  0  0
 23 24  1  0  0  0  0
 23 25  1  0  0  0  0
 25 26  1  0  0  0  0
 25 27  1  0  0  0  0
 25 28  1  0  0  0  0
M  END
$$$$

  -OEChem-02102214123D

 28 27  0     1  0  0  0  0  0999 V2000
   -2.5503   -4.1545    0.3116 H   0  0  0  0  0  0  0  0  0  0  0  0
   -2.5497   -3.1632   -0.1509 C   0  0  0  0  0  0  0  0  0  0  0  0
   -3.3295   -2.5570    0.3159 H   0  0  0  0  0  0  0  0  0  0  0  0
   -2.7695   -3.2732   -1.2155 H   0  0  0  0  0  0  0  0  0  0  0  0
   -1.1970   -2.5022    0.0347 C   0  0  0  0  0  0  0  0  0  0  0  0
   -0.3192   -3.0795    0.6486 O   0  0  0  0  0  0  0  0  0  0  0  0
   -0.9722   -1.2480   -0.4990 N   0  0  0  0  0  0  0  0  0  0  0  0
   -1.7191   -0.8555   -1.0634 H   0  0  0  0  0  0  0  0  0  0  0  0
    0.3258   -0.5444   -0.4595 C   0  0  1  0  0  0  0  0  0  0  0  0
    1.0705   -1.1753   -0.9590 H   0  0  0  0  0  0  0  0  0  0  0  0
    0.1452    0.7622   -1.2725 C   0  0  0  0  0  0  0  0  0  0  0  0
   -0.5989    0.5993   -2.0587 H   0  0  0  0  0  0  0  0  0  0  0  0
   -0.2444    1.5475   -0.6150 H   0  0  0  0  0  0  0  0  0  0  0  0
    1.4261    1.2682   -1.9684 C   0  0  0  0  0  0  0  0  0  0  0  0
    1.7700    0.5143   -2.6825 H   0  0  0  0  0  0  0  0  0  0  0  0
    1.1984    2.1759   -2.5341 H   0  0  0  0  0  0  0  0  0  0  0  0
    2.5668    1.5793   -1.0073 C   0  0  0  0  0  0  0  0  0  0  0  0
    2.4103    2.4871   -0.2071 O   0  0  0  0  0  0  0  0  0  0  0  0
    3.6828    0.8204   -1.0834 O   0  0  0  0  0  0  0  0  0  0  0  0
    4.2043    1.0441   -0.2966 H   0  0  0  0  0  0  0  0  0  0  0  0
    0.8457   -0.2852    0.9780 C   0  0  0  0  0  0  0  0  0  0  0  0
    2.0351   -0.4066    1.2413 O   0  0  0  0  0  0  0  0  0  0  0  0
   -0.0135    0.1950    1.9497 N   0  0  0  0  0  0  0  0  0  0  0  0
   -1.0032    0.1784    1.7301 H   0  0  0  0  0  0  0  0  0  0  0  0
    0.4032    0.4395    3.3246 C   0  0  0  0  0  0  0  0  0  0  0  0
    1.2224    1.1660    3.3525 H   0  0  0  0  0  0  0  0  0  0  0  0
   -0.4310    0.8397    3.9085 H   0  0  0  0  0  0  0  0  0  0  0  0
    0.7415   -0.4910    3.7926 H   0  0  0  0  0  0  0  0  0  0  0  0
  1  2  1  0  0  0  0
  2  3  1  0  0  0  0
  2  4  1  0  0  0  0
  2  5  1  0  0  0  0
  5  6  2  0  0  0  0
  5  7  1  0  0  0  0
  7  8  1  0  0  0  0
  7  9  1  0  0  0  0
  9 10  1  0  0  0  0
  9 11  1  0  0  0  0
  9 21  1  0  0  0  0
 11 12  1  0  0  0  0
 11 13  1  0  0  0  0
 11 14  1  0  0  0  0
 14 15  1  0  0  0  0
 14 16  1  0  0  0  0
 14 17  1  0  0  0  0
 17 18  2  0  0  0  0
 17 19  1  0  0  0  0
 19 20  1  0  0  0  0
 21 22  2  0  0  0  0
 21 23  1  0  0  0  0
 23 24  1  0  0  0  0
 23 25  1  0  0  0  0
 25 26  1  0  0  0  0
 25 27  1  0  0  0  0
 25 28  1  0  0  0  0
M  END
$$$$

  -OEChem-02102214123D

 28 27  0     1  0  0  0  0  0999 V2000
   -2.5405   -4.1470    0.2970 H   0  0  0  0  0  0  0  0  0  0  0  0
   -2.5336   -3.1554   -0.1645 C   0  0  0  0  0  0  0  0  0  0  0  0
   -3.3195   -2.5498    0.2930 H   0  0  0  0  0  0  0  0  0  0  0  0
   -2.7396   -3.2642   -1.2320 H   0  0  0  0  0  0  0  0  0  0  0  0
   -1.1833   -2.4946    0.0390 C   0  0  0  0  0  0  0  0  0  0  0  0
   -0.3182   -3.0685    0.6738 O   0  0  0  0  0  0  0  0  0  0  0  0
   -0.9499   -1.2426   -0.4967 N   0  0  0  0  0  0  0  0  0  0  0  0
   -1.6829   -0.8609   -1.0862 H   0  0  0  0  0  0  0  0  0  0  0  0
    0.3507   -0.5433   -0.4506 C   0  0  1  0  0  0  0  0  0  0  0  0
    1.0971   -1.1748   -0.9467 H   0  0  0  0  0  0  0  0  0  0  0  0
    0.1678    0.7644   -1.2658 C   0  0  0  0  0  0  0  0  0  0  0  0
   -0.5907    0.6125   -2.0404 H   0  0  0  0  0  0  0  0  0  0  0  0
   -0.2098    1.5420   -0.5926 H   0  0  0  0  0  0  0  0  0  0  0  0
    1.4319    1.3003   -1.9749 C   0  0  0  0  0  0  0  0  0  0  0  0
    1.6321    0.6799   -2.8531 H   0  0  0  0  0  0  0  0  0  0  0  0
    1.2473    2.3179   -2.3306 H   0  0  0  0  0  0  0  0  0  0  0  0
    2.6890    1.2991   -1.1165 C   0  0  0  0  0  0  0  0  0  0  0  0
    2.8602    2.2363   -0.3555 O   0  0  0  0  0  0  0  0  0  0  0  0
    3.5300    0.2463   -1.2263 O   0  0  0  0  0  0  0  0  0  0  0  0
    4.1374    0.3215   -0.4725 H   0  0  0  0  0  0  0  0  0  0  0  0
    0.8533   -0.2864    0.9954 C   0  0  0  0  0  0  0  0  0  0  0  0
    2.0336   -0.4334    1.2855 O   0  0  0  0  0  0  0  0  0  0  0  0
   -0.0183    0.1966    1.9548 N   0  0  0  0  0  0  0  0  0  0  0  0
   -1.0045    0.1705    1.7210 H   0  0  0  0  0  0  0  0  0  0  0  0
    0.3709    0.3954    3.3453 C   0  0  0  0  0  0  0  0  0  0  0  0
    1.2091    1.0974    3.4121 H   0  0  0  0  0  0  0  0  0  0  0  0
   -0.4664    0.8042    3.9188 H   0  0  0  0  0  0  0  0  0  0  0  0
    0.6714   -0.5558    3.7974 H   0  0  0  0  0  0  0  0  0  0  0  0
  1  2  1  0  0  0  0
  2  3  1  0  0  0  0
  2  4  1  0  0  0  0
  2  5  1  0  0  0  0
  5  6  2  0  0  0  0
  5  7  1  0  0  0  0
  7  8  1  0  0  0  0
  7  9  1  0  0  0  0
  9 10  1  0  0  0  0
  9 11  1  0  0  0  0
  9 21  1  0  0  0  0
 11 12  1  0  0  0  0
 11 13  1  0  0  0  0
 11 14  1  0  0  0  0
 14 15  1  0  0  0  0
 14 16  1  0  0  0  0
 14 17  1  0  0  0  0
 17 18  2  0  0  0  0
 17 19  1  0  0  0  0
 19 20  1  0  0  0  0
 21 22  2  0  0  0  0
 21 23  1  0  0  0  0
 23 24  1  0  0  0  0
 23 25  1  0  0  0  0
 25 26  1  0  0  0  0
 25 27  1  0  0  0  0
 25 28  1  0  0  0  0
M  END
$$$$

  -OEChem-02102214123D

 28 27  0     1  0  0  0  0  0999 V2000
   -2.5665   -4.1557    0.2453 H   0  0  0  0  0  0  0  0  0  0  0  0
   -2.5514   -3.1625   -0.2131 C   0  0  0  0  0  0  0  0  0  0  0  0
   -3.3536   -2.5623    0.2226 H   0  0  0  0  0  0  0  0  0  0  0  0
   -2.7254   -3.2697   -1.2865 H   0  0  0  0  0  0  0  0  0  0  0  0
   -1.2110   -2.4957    0.0320 C   0  0  0  0  0  0  0  0  0  0  0  0
   -0.3645   -3.0656    0.6948 O   0  0  0  0  0  0  0  0  0  0  0  0
   -0.9648   -1.2426   -0.4957 N   0  0  0  0  0  0  0  0  0  0  0  0
   -1.6787   -0.8653   -1.1109 H   0  0  0  0  0  0  0  0  0  0  0  0
    0.3407   -0.5541   -0.4308 C   0  0  1  0  0  0  0  0  0  0  0  0
    1.0757   -1.2020   -0.9208 H   0  0  0  0  0  0  0  0  0  0  0  0
    0.1895    0.7585   -1.2440 C   0  0  0  0  0  0  0  0  0  0  0  0
   -0.5682    0.6228   -2.0226 H   0  0  0  0  0  0  0  0  0  0  0  0
   -0.1865    1.5317   -0.5650 H   0  0  0  0  0  0  0  0  0  0  0  0
    1.4570    1.3096   -1.9436 C   0  0  0  0  0  0  0  0  0  0  0  0
    1.5120    0.8738   -2.9451 H   0  0  0  0  0  0  0  0  0  0  0  0
    1.3568    2.3919   -2.0687 H   0  0  0  0  0  0  0  0  0  0  0  0
    2.7894    1.0094   -1.2642 C   0  0  0  0  0  0  0  0  0  0  0  0
    3.2843    1.8853   -0.5759 O   0  0  0  0  0  0  0  0  0  0  0  0
    3.3605   -0.1982   -1.4765 O   0  0  0  0  0  0  0  0  0  0  0  0
    4.0984   -0.2462   -0.8473 H   0  0  0  0  0  0  0  0  0  0  0  0
    0.8410   -0.3021    1.0151 C   0  0  0  0  0  0  0  0  0  0  0  0
    2.0232   -0.4405    1.2999 O   0  0  0  0  0  0  0  0  0  0  0  0
   -0.0295    0.1871    1.9724 N   0  0  0  0  0  0  0  0  0  0  0  0
   -1.0164    0.1439    1.7435 H   0  0  0  0  0  0  0  0  0  0  0  0
    0.3612    0.3810    3.3633 C   0  0  0  0  0  0  0  0  0  0  0  0
    1.2099    1.0702    3.4308 H   0  0  0  0  0  0  0  0  0  0  0  0
   -0.4700    0.8036    3.9356 H   0  0  0  0  0  0  0  0  0  0  0  0
    0.6470   -0.5743    3.8164 H   0  0  0  0  0  0  0  0  0  0  0  0
  1  2  1  0  0  0  0
  2  3  1  0  0  0  0
  2  4  1  0  0  0  0
  2  5  1  0  0  0  0
  5  6  2  0  0  0  0
  5  7  1  0  0  0  0
  7  8  1  0  0  0  0
  7  9  1  0  0  0  0
  9 10  1  0  0  0  0
  9 11  1  0  0  0  0
  9 21  1  0  0  0  0
 11 12  1  0  0  0  0
 11 13  1  0  0  0  0
 11 14  1  0  0  0  0
 14 15  1  0  0  0  0
 14 16  1  0  0  0  0
 14 17  1  0  0  0  0
 17 18  2  0  0  0  0
 17 19  1  0  0  0  0
 19 20  1  0  0  0  0
 21 22  2  0  0  0  0
 21 23  1  0  0  0  0
 23 24  1  0  0  0  0
 23 25  1  0  0  0  0
 25 26  1  0  0  0  0
 25 27  1  0  0  0  0
 25 28  1  0  0  0  0
M  END
$$$$

  -OEChem-02102214123D

 28 27  0     1  0  0  0  0  0999 V2000
   -2.7740   -4.0597    0.4727 H   0  0  0  0  0  0  0  0  0  0  0  0
   -2.7059   -3.1107   -0.0671 C   0  0  0  0  0  0  0  0  0  0  0  0
   -3.4969   -2.4467    0.2890 H   0  0  0  0  0  0  0  0  0  0  0  0
   -2.8510   -3.3026   -1.1330 H   0  0  0  0  0  0  0  0  0  0  0  0
   -1.3488   -2.4743    0.1668 C   0  0  0  0  0  0  0  0  0  0  0  0
   -0.5501   -3.0110    0.9114 O   0  0  0  0  0  0  0  0  0  0  0  0
   -1.0420   -1.2762   -0.4495 N   0  0  0  0  0  0  0  0  0  0  0  0
   -1.7136   -0.9476   -1.1362 H   0  0  0  0  0  0  0  0  0  0  0  0
    0.3034   -0.6653   -0.4494 C   0  0  1  0  0  0  0  0  0  0  0  0
    0.9837   -1.3914   -0.9064 H   0  0  0  0  0  0  0  0  0  0  0  0
    0.2174    0.6105   -1.3297 C   0  0  0  0  0  0  0  0  0  0  0  0
   -0.5623    0.4724   -2.0858 H   0  0  0  0  0  0  0  0  0  0  0  0
   -0.1071    1.4399   -0.6919 H   0  0  0  0  0  0  0  0  0  0  0  0
    1.4956    1.0560   -2.0884 C   0  0  0  0  0  0  0  0  0  0  0  0
    1.3699    0.8181   -3.1488 H   0  0  0  0  0  0  0  0  0  0  0  0
    1.5906    2.1431   -2.0150 H   0  0  0  0  0  0  0  0  0  0  0  0
    2.8136    0.4303   -1.6429 C   0  0  0  0  0  0  0  0  0  0  0  0
    3.1246   -0.6587   -2.0964 O   0  0  0  0  0  0  0  0  0  0  0  0
    3.5757    1.1351   -0.7770 O   0  0  0  0  0  0  0  0  0  0  0  0
    4.2656    0.5233   -0.4761 H   0  0  0  0  0  0  0  0  0  0  0  0
    0.8514   -0.3454    0.9647 C   0  0  0  0  0  0  0  0  0  0  0  0
    2.0390   -0.4917    1.2216 O   0  0  0  0  0  0  0  0  0  0  0  0
    0.0311    0.2601    1.8995 N   0  0  0  0  0  0  0  0  0  0  0  0
   -0.9637    0.2176    1.7061 H   0  0  0  0  0  0  0  0  0  0  0  0
    0.4660    0.5301    3.2641 C   0  0  0  0  0  0  0  0  0  0  0  0
    1.3476    1.1800    3.2642 H   0  0  0  0  0  0  0  0  0  0  0  0
   -0.3298    1.0307    3.8237 H   0  0  0  0  0  0  0  0  0  0  0  0
    0.7177   -0.4044    3.7766 H   0  0  0  0  0  0  0  0  0  0  0  0
  1  2  1  0  0  0  0
  2  3  1  0  0  0  0
  2  4  1  0  0  0  0
  2  5  1  0  0  0  0
  5  6  2  0  0  0  0
  5  7  1  0  0  0  0
  7  8  1  0  0  0  0
  7  9  1  0  0  0  0
  9 10  1  0  0  0  0
  9 11  1  0  0  0  0
  9 21  1  0  0  0  0
 11 12  1  0  0  0  0
 11 13  1  0  0  0  0
 11 14  1  0  0  0  0
 14 15  1  0  0  0  0
 14 16  1  0  0  0  0
 14 17  1  0  0  0  0
 17 18  2  0  0  0  0
 17 19  1  0  0  0  0
 19 20  1  0  0  0  0
 21 22  2  0  0  0  0
 21 23  1  0  0  0  0
 23 24  1  0  0  0  0
 23 25  1  0  0  0  0
 25 26  1  0  0  0  0
 25 27  1  0  0  0  0
 25 28  1  0  0  0  0
M  END
$$$$

  -OEChem-02102214123D

 28 27  0     1  0  0  0  0  0999 V2000
   -2.7542   -4.1035    0.4567 H   0  0  0  0  0  0  0  0  0  0  0  0
   -2.7001   -3.1552   -0.0857 C   0  0  0  0  0  0  0  0  0  0  0  0
   -3.5123   -2.5088    0.2553 H   0  0  0  0  0  0  0  0  0  0  0  0
   -2.8234   -3.3545   -1.1528 H   0  0  0  0  0  0  0  0  0  0  0  0
   -1.3618   -2.4865    0.1662 C   0  0  0  0  0  0  0  0  0  0  0  0
   -0.5572   -3.0081    0.9158 O   0  0  0  0  0  0  0  0  0  0  0  0
   -1.0752   -1.2796   -0.4426 N   0  0  0  0  0  0  0  0  0  0  0  0
   -1.7453   -0.9652   -1.1373 H   0  0  0  0  0  0  0  0  0  0  0  0
    0.2643   -0.6570   -0.4440 C   0  0  1  0  0  0  0  0  0  0  0  0
    0.9373   -1.3873   -0.9015 H   0  0  0  0  0  0  0  0  0  0  0  0
    0.1829    0.6250   -1.3141 C   0  0  0  0  0  0  0  0  0  0  0  0
   -0.5820    0.4678   -2.0816 H   0  0  0  0  0  0  0  0  0  0  0  0
   -0.1680    1.4522   -0.6874 H   0  0  0  0  0  0  0  0  0  0  0  0
    1.4616    1.0833   -2.0681 C   0  0  0  0  0  0  0  0  0  0  0  0
    1.2411    1.1393   -3.1380 H   0  0  0  0  0  0  0  0  0  0  0  0
    1.7051    2.0985   -1.7411 H   0  0  0  0  0  0  0  0  0  0  0  0
    2.7221    0.2375   -1.9027 C   0  0  0  0  0  0  0  0  0  0  0  0
    2.7827   -0.8337   -2.4842 O   0  0  0  0  0  0  0  0  0  0  0  0
    3.7238    0.7443   -1.1496 O   0  0  0  0  0  0  0  0  0  0  0  0
    4.3744    0.0326   -1.0538 H   0  0  0  0  0  0  0  0  0  0  0  0
    0.8349   -0.3376    0.9585 C   0  0  0  0  0  0  0  0  0  0  0  0
    2.0350   -0.4419    1.1724 O   0  0  0  0  0  0  0  0  0  0  0  0
    0.0292    0.2575    1.9124 N   0  0  0  0  0  0  0  0  0  0  0  0
   -0.9697    0.1892    1.7489 H   0  0  0  0  0  0  0  0  0  0  0  0
    0.4968    0.5390    3.2639 C   0  0  0  0  0  0  0  0  0  0  0  0
    1.3656    1.2053    3.2387 H   0  0  0  0  0  0  0  0  0  0  0  0
   -0.2924    1.0258    3.8445 H   0  0  0  0  0  0  0  0  0  0  0  0
    0.7805   -0.3896    3.7705 H   0  0  0  0  0  0  0  0  0  0  0  0
  1  2  1  0  0  0  0
  2  3  1  0  0  0  0
  2  4  1  0  0  0  0
  2  5  1  0  0  0  0
  5  6  2  0  0  0  0
  5  7  1  0  0  0  0
  7  8  1  0  0  0  0
  7  9  1  0  0  0  0
  9 10  1  0  0  0  0
  9 11  1  0  0  0  0
  9 21  1  0  0  0  0
 11 12  1  0  0  0  0
 11 13  1  0  0  0  0
 11 14  1  0  0  0  0
 14 15  1  0  0  0  0
 14 16  1  0  0  0  0
 14 17  1  0  0  0  0
 17 18  2  0  0  0  0
 17 19  1  0  0  0  0
 19 20  1  0  0  0  0
 21 22  2  0  0  0  0
 21 23  1  0  0  0  0
 23 24  1  0  0  0  0
 23 25  1  0  0  0  0
 25 26  1  0  0  0  0
 25 27  1  0  0  0  0
 25 28  1  0  0  0  0
M  END
$$$$

  -OEChem-02102214123D

 28 27  0     1  0  0  0  0  0999 V2000
   -2.7370   -4.1375    0.4205 H   0  0  0  0  0  0  0  0  0  0  0  0
   -2.6914   -3.1857   -0.1166 C   0  0  0  0  0  0  0  0  0  0  0  0
   -3.5146   -2.5518    0.2217 H   0  0  0  0  0  0  0  0  0  0  0  0
   -2.8049   -3.3812   -1.1857 H   0  0  0  0  0  0  0  0  0  0  0  0
   -1.3640   -2.5004    0.1478 C   0  0  0  0  0  0  0  0  0  0  0  0
   -0.5535   -3.0171    0.8947 O   0  0  0  0  0  0  0  0  0  0  0  0
   -1.0944   -1.2819   -0.4447 N   0  0  0  0  0  0  0  0  0  0  0  0
   -1.7650   -0.9735   -1.1419 H   0  0  0  0  0  0  0  0  0  0  0  0
    0.2385   -0.6463   -0.4445 C   0  0  1  0  0  0  0  0  0  0  0  0
    0.9128   -1.3688   -0.9111 H   0  0  0  0  0  0  0  0  0  0  0  0
    0.1507    0.6520   -1.2878 C   0  0  0  0  0  0  0  0  0  0  0  0
   -0.6007    0.4862   -2.0668 H   0  0  0  0  0  0  0  0  0  0  0  0
   -0.2201    1.4706   -0.6613 H   0  0  0  0  0  0  0  0  0  0  0  0
    1.4296    1.1221   -2.0319 C   0  0  0  0  0  0  0  0  0  0  0  0
    1.1575    1.4816   -3.0280 H   0  0  0  0  0  0  0  0  0  0  0  0
    1.8350    1.9780   -1.4838 H   0  0  0  0  0  0  0  0  0  0  0  0
    2.5710    0.1182   -2.1822 C   0  0  0  0  0  0  0  0  0  0  0  0
    2.3787   -0.8750   -2.8651 O   0  0  0  0  0  0  0  0  0  0  0  0
    3.7507    0.4053   -1.5874 O   0  0  0  0  0  0  0  0  0  0  0  0
    4.3174   -0.3689   -1.7207 H   0  0  0  0  0  0  0  0  0  0  0  0
    0.8273   -0.3365    0.9507 C   0  0  0  0  0  0  0  0  0  0  0  0
    2.0369   -0.3922    1.1254 O   0  0  0  0  0  0  0  0  0  0  0  0
    0.0324    0.2402    1.9245 N   0  0  0  0  0  0  0  0  0  0  0  0
   -0.9685    0.1438    1.7886 H   0  0  0  0  0  0  0  0  0  0  0  0
    0.5293    0.5415    3.2614 C   0  0  0  0  0  0  0  0  0  0  0  0
    1.3805    1.2285    3.2089 H   0  0  0  0  0  0  0  0  0  0  0  0
   -0.2556    1.0129    3.8602 H   0  0  0  0  0  0  0  0  0  0  0  0
    0.8490   -0.3766    3.7656 H   0  0  0  0  0  0  0  0  0  0  0  0
  1  2  1  0  0  0  0
  2  3  1  0  0  0  0
  2  4  1  0  0  0  0
  2  5  1  0  0  0  0
  5  6  2  0  0  0  0
  5  7  1  0  0  0  0
  7  8  1  0  0  0  0
  7  9  1  0  0  0  0
  9 10  1  0  0  0  0
  9 11  1  0  0  0  0
  9 21  1  0  0  0  0
 11 12  1  0  0  0  0
 11 13  1  0  0  0  0
 11 14  1  0  0  0  0
 14 15  1  0  0  0  0
 14 16  1  0  0  0  0
 14 17  1  0  0  0  0
 17 18  2  0  0  0  0
 17 19  1  0  0  0  0
 19 20  1  0  0  0  0
 21 22  2  0  0  0  0
 21 23  1  0  0  0  0
 23 24  1  0  0  0  0
 23 25  1  0  0  0  0
 25 26  1  0  0  0  0
 25 27  1  0  0  0  0
 25 28  1  0  0  0  0
M  END
$$$$

  -OEChem-02102214123D

 28 27  0     1  0  0  0  0  0999 V2000
   -2.6800   -4.1816    0.3518 H   0  0  0  0  0  0  0  0  0  0  0  0
   -2.6633   -3.2106   -0.1515 C   0  0  0  0  0  0  0  0  0  0  0  0
   -3.5028   -2.6121    0.2100 H   0  0  0  0  0  0  0  0  0  0  0  0
   -2.7738   -3.3721   -1.2264 H   0  0  0  0  0  0  0  0  0  0  0  0
   -1.3550   -2.4980    0.1344 C   0  0  0  0  0  0  0  0  0  0  0  0
   -0.5415   -3.0040    0.8857 O   0  0  0  0  0  0  0  0  0  0  0  0
   -1.1039   -1.2701   -0.4467 N   0  0  0  0  0  0  0  0  0  0  0  0
   -1.7708   -0.9754   -1.1534 H   0  0  0  0  0  0  0  0  0  0  0  0
    0.2230   -0.6226   -0.4467 C   0  0  1  0  0  0  0  0  0  0  0  0
    0.9040   -1.3334   -0.9213 H   0  0  0  0  0  0  0  0  0  0  0  0
    0.1274    0.6885   -1.2681 C   0  0  0  0  0  0  0  0  0  0  0  0
   -0.6214    0.5315   -2.0515 H   0  0  0  0  0  0  0  0  0  0  0  0
   -0.2415    1.5008   -0.6327 H   0  0  0  0  0  0  0  0  0  0  0  0
    1.4134    1.1523   -1.9991 C   0  0  0  0  0  0  0  0  0  0  0  0
    1.1427    1.7674   -2.8615 H   0  0  0  0  0  0  0  0  0  0  0  0
    1.9717    1.7914   -1.3082 H   0  0  0  0  0  0  0  0  0  0  0  0
    2.3772    0.0609   -2.4615 C   0  0  0  0  0  0  0  0  0  0  0  0
    1.9380   -0.8319   -3.1690 O   0  0  0  0  0  0  0  0  0  0  0  0
    3.6753    0.1587   -2.0961 O   0  0  0  0  0  0  0  0  0  0  0  0
    4.1138   -0.6349   -2.4369 H   0  0  0  0  0  0  0  0  0  0  0  0
    0.8203   -0.3218    0.9465 C   0  0  0  0  0  0  0  0  0  0  0  0
    2.0341   -0.3410    1.0997 O   0  0  0  0  0  0  0  0  0  0  0  0
    0.0277    0.2373    1.9324 N   0  0  0  0  0  0  0  0  0  0  0  0
   -0.9728    0.1200    1.8095 H   0  0  0  0  0  0  0  0  0  0  0  0
    0.5362    0.5412    3.2643 C   0  0  0  0  0  0  0  0  0  0  0  0
    1.3641    1.2557    3.2056 H   0  0  0  0  0  0  0  0  0  0  0  0
   -0.2535    0.9812    3.8806 H   0  0  0  0  0  0  0  0  0  0  0  0
    0.8932   -0.3710    3.7540 H   0  0  0  0  0  0  0  0  0  0  0  0
  1  2  1  0  0  0  0
  2  3  1  0  0  0  0
  2  4  1  0  0  0  0
  2  5  1  0  0  0  0
  5  6  2  0  0  0  0
  5  7  1  0  0  0  0
  7  8  1  0  0  0  0
  7  9  1  0  0  0  0
  9 10  1  0  0  0  0
  9 11  1  0  0  0  0
  9 21  1  0  0  0  0
 11 12  1  0  0  0  0
 11 13  1  0  0  0  0
 11 14  1  0  0  0  0
 14 15  1  0  0  0  0
 14 16  1  0  0  0  0
 14 17  1  0  0  0  0
 17 18  2  0  0  0  0
 17 19  1  0  0  0  0
 19 20  1  0  0  0  0
 21 22  2  0  0  0  0
 21 23  1  0  0  0  0
 23 24  1  0  0  0  0
 23 25  1  0  0  0  0
 25 26  1  0  0  0  0
 25 27  1  0  0  0  0
 25 28  1  0  0  0  0
M  END
$$$$

  -OEChem-02102214123D

 28 27  0     1  0  0  0  0  0999 V2000
   -2.6445   -4.1955    0.3113 H   0  0  0  0  0  0  0  0  0  0  0  0
   -2.6342   -3.2214   -0.1863 C   0  0  0  0  0  0  0  0  0  0  0  0
   -3.4816   -2.6332    0.1738 H   0  0  0  0  0  0  0  0  0  0  0  0
   -2.7375   -3.3775   -1.2630 H   0  0  0  0  0  0  0  0  0  0  0  0
   -1.3347   -2.4970    0.1113 C   0  0  0  0  0  0  0  0  0  0  0  0
   -0.5172   -3.0018    0.8592 O   0  0  0  0  0  0  0  0  0  0  0  0
   -1.0982   -1.2591   -0.4540 N   0  0  0  0  0  0  0  0  0  0  0  0
   -1.7637   -0.9697   -1.1643 H   0  0  0  0  0  0  0  0  0  0  0  0
    0.2213   -0.5975   -0.4488 C   0  0  1  0  0  0  0  0  0  0  0  0
    0.9152   -1.2879   -0.9364 H   0  0  0  0  0  0  0  0  0  0  0  0
    0.1089    0.7227   -1.2508 C   0  0  0  0  0  0  0  0  0  0  0  0
   -0.6456    0.5869   -2.0327 H   0  0  0  0  0  0  0  0  0  0  0  0
   -0.2462    1.5269   -0.5975 H   0  0  0  0  0  0  0  0  0  0  0  0
    1.4057    1.1743   -1.9631 C   0  0  0  0  0  0  0  0  0  0  0  0
    1.1764    1.9847   -2.6601 H   0  0  0  0  0  0  0  0  0  0  0  0
    2.0853    1.5774   -1.2055 H   0  0  0  0  0  0  0  0  0  0  0  0
    2.1641    0.0845   -2.7207 C   0  0  0  0  0  0  0  0  0  0  0  0
    1.5234   -0.7258   -3.3719 O   0  0  0  0  0  0  0  0  0  0  0  0
    3.5148    0.0945   -2.6590 O   0  0  0  0  0  0  0  0  0  0  0  0
    3.8147   -0.6727   -3.1688 H   0  0  0  0  0  0  0  0  0  0  0  0
    0.8176   -0.3095    0.9476 C   0  0  0  0  0  0  0  0  0  0  0  0
    2.0324   -0.3072    1.0962 O   0  0  0  0  0  0  0  0  0  0  0  0
    0.0192    0.2271    1.9412 N   0  0  0  0  0  0  0  0  0  0  0  0
   -0.9793    0.0923    1.8201 H   0  0  0  0  0  0  0  0  0  0  0  0
    0.5253    0.5270    3.2749 C   0  0  0  0  0  0  0  0  0  0  0  0
    1.3387    1.2585    3.2219 H   0  0  0  0  0  0  0  0  0  0  0  0
   -0.2717    0.9447    3.8974 H   0  0  0  0  0  0  0  0  0  0  0  0
    0.9013   -0.3832    3.7542 H   0  0  0  0  0  0  0  0  0  0  0  0
  1  2  1  0  0  0  0
  2  3  1  0  0  0  0
  2  4  1  0  0  0  0
  2  5  1  0  0  0  0
  5  6  2  0  0  0  0
  5  7  1  0  0  0  0
  7  8  1  0  0  0  0
  7  9  1  0  0  0  0
  9 10  1  0  0  0  0
  9 11  1  0  0  0  0
  9 21  1  0  0  0  0
 11 12  1  0  0  0  0
 11 13  1  0  0  0  0
 11 14  1  0  0  0  0
 14 15  1  0  0  0  0
 14 16  1  0  0  0  0
 14 17  1  0  0  0  0
 17 18  2  0  0  0  0
 17 19  1  0  0  0  0
 19 20  1  0  0  0  0
 21 22  2  0  0  0  0
 21 23  1  0  0  0  0
 23 24  1  0  0  0  0
 23 25  1  0  0  0  0
 25 26  1  0  0  0  0
 25 27  1  0  0  0  0
 25 28  1  0  0  0  0
M  END
$$$$

  -OEChem-02102214123D

 28 27  0     1  0  0  0  0  0999 V2000
   -2.6150   -4.1989    0.2705 H   0  0  0  0  0  0  0  0  0  0  0  0
   -2.6117   -3.2211   -0.2199 C   0  0  0  0  0  0  0  0  0  0  0  0
   -3.4685   -2.6451    0.1375 H   0  0  0  0  0  0  0  0  0  0  0  0
   -2.7041   -3.3700   -1.2986 H   0  0  0  0  0  0  0  0  0  0  0  0
   -1.3224   -2.4854    0.0934 C   0  0  0  0  0  0  0  0  0  0  0  0
   -0.5028   -2.9901    0.8390 O   0  0  0  0  0  0  0  0  0  0  0  0
   -1.0952   -1.2400   -0.4595 N   0  0  0  0  0  0  0  0  0  0  0  0
   -1.7566   -0.9549   -1.1757 H   0  0  0  0  0  0  0  0  0  0  0  0
    0.2198   -0.5703   -0.4484 C   0  0  1  0  0  0  0  0  0  0  0  0
    0.9232   -1.2430   -0.9497 H   0  0  0  0  0  0  0  0  0  0  0  0
    0.0980    0.7519   -1.2414 C   0  0  0  0  0  0  0  0  0  0  0  0
   -0.6667    0.6430   -2.0177 H   0  0  0  0  0  0  0  0  0  0  0  0
   -0.2354    1.5524   -0.5723 H   0  0  0  0  0  0  0  0  0  0  0  0
    1.4130    1.1762   -1.9323 C   0  0  0  0  0  0  0  0  0  0  0  0
    1.2591    2.1291   -2.4451 H   0  0  0  0  0  0  0  0  0  0  0  0
    2.1798    1.3360   -1.1679 H   0  0  0  0  0  0  0  0  0  0  0  0
    1.9593    0.1733   -2.9505 C   0  0  0  0  0  0  0  0  0  0  0  0
    1.1866   -0.5876   -3.5123 O   0  0  0  0  0  0  0  0  0  0  0  0
    3.2884    0.2020   -3.1970 O   0  0  0  0  0  0  0  0  0  0  0  0
    3.4586   -0.5018   -3.8408 H   0  0  0  0  0  0  0  0  0  0  0  0
    0.8113   -0.2951    0.9533 C   0  0  0  0  0  0  0  0  0  0  0  0
    2.0255   -0.2926    1.1082 O   0  0  0  0  0  0  0  0  0  0  0  0
    0.0066    0.2248    1.9506 N   0  0  0  0  0  0  0  0  0  0  0  0
   -0.9909    0.0881    1.8232 H   0  0  0  0  0  0  0  0  0  0  0  0
    0.5059    0.5097    3.2900 C   0  0  0  0  0  0  0  0  0  0  0  0
    1.3147    1.2470    3.2495 H   0  0  0  0  0  0  0  0  0  0  0  0
   -0.2958    0.9137    3.9154 H   0  0  0  0  0  0  0  0  0  0  0  0
    0.8863   -0.4044    3.7582 H   0  0  0  0  0  0  0  0  0  0  0  0
  1  2  1  0  0  0  0
  2  3  1  0  0  0  0
  2  4  1  0  0  0  0
  2  5  1  0  0  0  0
  5  6  2  0  0  0  0
  5  7  1  0  0  0  0
  7  8  1  0  0  0  0
  7  9  1  0  0  0  0
  9 10  1  0  0  0  0
  9 11  1  0  0  0  0
  9 21  1  0  0  0  0
 11 12  1  0  0  0  0
 11 13  1  0  0  0  0
 11 14  1  0  0  0  0
 14 15  1  0  0  0  0
 14 16  1  0  0  0  0
 14 17  1  0  0  0  0
 17 18  2  0  0  0  0
 17 19  1  0  0  0  0
 19 20  1  0  0  0  0
 21 22  2  0  0  0  0
 21 23  1  0  0  0  0
 23 24  1  0  0  0  0
 23 25  1  0  0  0  0
 25 26  1  0  0  0  0
 25 27  1  0  0  0  0
 25 28  1  0  0  0  0
M  END
$$$$

  -OEChem-02102214123D

 28 27  0     1  0  0  0  0  0999 V2000
   -2.6196   -4.1898    0.2495 H   0  0  0  0  0  0  0  0  0  0  0  0
   -2.6173   -3.2053   -0.2273 C   0  0  0  0  0  0  0  0  0  0  0  0
   -3.4703   -2.6326    0.1442 H   0  0  0  0  0  0  0  0  0  0  0  0
   -2.7176   -3.3391   -1.3072 H   0  0  0  0  0  0  0  0  0  0  0  0
   -1.3247   -2.4765    0.0876 C   0  0  0  0  0  0  0  0  0  0  0  0
   -0.5085   -2.9869    0.8332 O   0  0  0  0  0  0  0  0  0  0  0  0
   -1.0919   -1.2307   -0.4618 N   0  0  0  0  0  0  0  0  0  0  0  0
   -1.7505   -0.9411   -1.1788 H   0  0  0  0  0  0  0  0  0  0  0  0
    0.2240   -0.5633   -0.4438 C   0  0  1  0  0  0  0  0  0  0  0  0
    0.9313   -1.2291   -0.9511 H   0  0  0  0  0  0  0  0  0  0  0  0
    0.1051    0.7555   -1.2388 C   0  0  0  0  0  0  0  0  0  0  0  0
   -0.6700    0.6708   -2.0078 H   0  0  0  0  0  0  0  0  0  0  0  0
   -0.2074    1.5564   -0.5601 H   0  0  0  0  0  0  0  0  0  0  0  0
    1.4367    1.1534   -1.9132 C   0  0  0  0  0  0  0  0  0  0  0  0
    1.3732    2.1998   -2.2232 H   0  0  0  0  0  0  0  0  0  0  0  0
    2.2559    1.0784   -1.1918 H   0  0  0  0  0  0  0  0  0  0  0  0
    1.7987    0.3313   -3.1532 C   0  0  0  0  0  0  0  0  0  0  0  0
    0.9988   -0.4730   -3.6065 O   0  0  0  0  0  0  0  0  0  0  0  0
    3.0126    0.5623   -3.7025 O   0  0  0  0  0  0  0  0  0  0  0  0
    3.0859   -0.0432   -4.4554 H   0  0  0  0  0  0  0  0  0  0  0  0
    0.8047   -0.2942    0.9646 C   0  0  0  0  0  0  0  0  0  0  0  0
    2.0169   -0.3023    1.1343 O   0  0  0  0  0  0  0  0  0  0  0  0
   -0.0087    0.2237    1.9562 N   0  0  0  0  0  0  0  0  0  0  0  0
   -1.0053    0.0931    1.8158 H   0  0  0  0  0  0  0  0  0  0  0  0
    0.4754    0.4960    3.3039 C   0  0  0  0  0  0  0  0  0  0  0  0
    1.2932    1.2238    3.2789 H   0  0  0  0  0  0  0  0  0  0  0  0
   -0.3301    0.9063    3.9203 H   0  0  0  0  0  0  0  0  0  0  0  0
    0.8386   -0.4247    3.7726 H   0  0  0  0  0  0  0  0  0  0  0  0
  1  2  1  0  0  0  0
  2  3  1  0  0  0  0
  2  4  1  0  0  0  0
  2  5  1  0  0  0  0
  5  6  2  0  0  0  0
  5  7  1  0  0  0  0
  7  8  1  0  0  0  0
  7  9  1  0  0  0  0
  9 10  1  0  0  0  0
  9 11  1  0  0  0  0
  9 21  1  0  0  0  0
 11 12  1  0  0  0  0
 11 13  1  0  0  0  0
 11 14  1  0  0  0  0
 14 15  1  0  0  0  0
 14 16  1  0  0  0  0
 14 17  1  0  0  0  0
 17 18  2  0  0  0  0
 17 19  1  0  0  0  0
 19 20  1  0  0  0  0
 21 22  2  0  0  0  0
 21 23  1  0  0  0  0
 23 24  1  0  0  0  0
 23 25  1  0  0  0  0
 25 26  1  0  0  0  0
 25 27  1  0  0  0  0
 25 28  1  0  0  0  0
M  END
$$$$

  -OEChem-02102214123D

 28 27  0     1  0  0  0  0  0999 V2000
   -2.6499   -4.1719    0.2454 H   0  0  0  0  0  0  0  0  0  0  0  0
   -2.6356   -3.1891   -0.2346 C   0  0  0  0  0  0  0  0  0  0  0  0
   -3.4857   -2.6071    0.1290 H   0  0  0  0  0  0  0  0  0  0  0  0
   -2.7296   -3.3257   -1.3146 H   0  0  0  0  0  0  0  0  0  0  0  0
   -1.3389   -2.4704    0.0871 C   0  0  0  0  0  0  0  0  0  0  0  0
   -0.5314   -2.9853    0.8390 O   0  0  0  0  0  0  0  0  0  0  0  0
   -1.0942   -1.2270   -0.4624 N   0  0  0  0  0  0  0  0  0  0  0  0
   -1.7436   -0.9373   -1.1876 H   0  0  0  0  0  0  0  0  0  0  0  0
    0.2258   -0.5679   -0.4359 C   0  0  1  0  0  0  0  0  0  0  0  0
    0.9321   -1.2380   -0.9400 H   0  0  0  0  0  0  0  0  0  0  0  0
    0.1222    0.7461   -1.2389 C   0  0  0  0  0  0  0  0  0  0  0  0
   -0.6560    0.6754   -2.0062 H   0  0  0  0  0  0  0  0  0  0  0  0
   -0.1790    1.5517   -0.5605 H   0  0  0  0  0  0  0  0  0  0  0  0
    1.4685    1.1214   -1.8986 C   0  0  0  0  0  0  0  0  0  0  0  0
    1.5145    2.2104   -1.9862 H   0  0  0  0  0  0  0  0  0  0  0  0
    2.3080    0.8147   -1.2677 H   0  0  0  0  0  0  0  0  0  0  0  0
    1.6656    0.5490   -3.3042 C   0  0  0  0  0  0  0  0  0  0  0  0
    0.9383   -0.3470   -3.7039 O   0  0  0  0  0  0  0  0  0  0  0  0
    2.6600    1.0857   -4.0470 O   0  0  0  0  0  0  0  0  0  0  0  0
    2.6581    0.6013   -4.8864 H   0  0  0  0  0  0  0  0  0  0  0  0
    0.7991   -0.2997    0.9759 C   0  0  0  0  0  0  0  0  0  0  0  0
    2.0098   -0.3190    1.1558 O   0  0  0  0  0  0  0  0  0  0  0  0
   -0.0167    0.2252    1.9616 N   0  0  0  0  0  0  0  0  0  0  0  0
   -1.0136    0.1046    1.8146 H   0  0  0  0  0  0  0  0  0  0  0  0
    0.4621    0.4986    3.3111 C   0  0  0  0  0  0  0  0  0  0  0  0
    1.2825    1.2238    3.2878 H   0  0  0  0  0  0  0  0  0  0  0  0
   -0.3450    0.9127    3.9228 H   0  0  0  0  0  0  0  0  0  0  0  0
    0.8203   -0.4222    3.7837 H   0  0  0  0  0  0  0  0  0  0  0  0
  1  2  1  0  0  0  0
  2  3  1  0  0  0  0
  2  4  1  0  0  0  0
  2  5  1  0  0  0  0
  5  6  2  0  0  0  0
  5  7  1  0  0  0  0
  7  8  1  0  0  0  0
  7  9  1  0  0  0  0
  9 10  1  0  0  0  0
  9 11  1  0  0  0  0
  9 21  1  0  0  0  0
 11 12  1  0  0  0  0
 11 13  1  0  0  0  0
 11 14  1  0  0  0  0
 14 15  1  0  0  0  0
 14 16  1  0  0  0  0
 14 17  1  0  0  0  0
 17 18  2  0  0  0  0
 17 19  1  0  0  0  0
 19 20  1  0  0  0  0
 21 22  2  0  0  0  0
 21 23  1  0  0  0  0
 23 24  1  0  0  0  0
 23 25  1  0  0  0  0
 25 26  1  0  0  0  0
 25 27  1  0  0  0  0
 25 28  1  0  0  0  0
M  END
$$$$

  -OEChem-02102214123D

 28 27  0     1  0  0  0  0  0999 V2000
   -2.6902   -4.1484    0.2736 H   0  0  0  0  0  0  0  0  0  0  0  0
   -2.6590   -3.1758   -0.2257 C   0  0  0  0  0  0  0  0  0  0  0  0
   -3.5012   -2.5739    0.1236 H   0  0  0  0  0  0  0  0  0  0  0  0
   -2.7523   -3.3322   -1.3031 H   0  0  0  0  0  0  0  0  0  0  0  0
   -1.3515   -2.4719    0.0850 C   0  0  0  0  0  0  0  0  0  0  0  0
   -0.5442   -2.9951    0.8311 O   0  0  0  0  0  0  0  0  0  0  0  0
   -1.0958   -1.2315   -0.4663 N   0  0  0  0  0  0  0  0  0  0  0  0
   -1.7518   -0.9256   -1.1789 H   0  0  0  0  0  0  0  0  0  0  0  0
    0.2273   -0.5788   -0.4347 C   0  0  1  0  0  0  0  0  0  0  0  0
    0.9302   -1.2565   -0.9334 H   0  0  0  0  0  0  0  0  0  0  0  0
    0.1399    0.7312   -1.2443 C   0  0  0  0  0  0  0  0  0  0  0  0
   -0.6351    0.6568   -2.0142 H   0  0  0  0  0  0  0  0  0  0  0  0
   -0.1643    1.5429   -0.5743 H   0  0  0  0  0  0  0  0  0  0  0  0
    1.4954    1.0950   -1.8954 C   0  0  0  0  0  0  0  0  0  0  0  0
    1.6721    2.1634   -1.7420 H   0  0  0  0  0  0  0  0  0  0  0  0
    2.3213    0.5651   -1.4118 H   0  0  0  0  0  0  0  0  0  0  0  0
    1.5540    0.8319   -3.4004 C   0  0  0  0  0  0  0  0  0  0  0  0
    0.9091   -0.0908   -3.8734 O   0  0  0  0  0  0  0  0  0  0  0  0
    2.3344    1.6514   -4.1413 O   0  0  0  0  0  0  0  0  0  0  0  0
    2.2705    1.3286   -5.0528 H   0  0  0  0  0  0  0  0  0  0  0  0
    0.7970   -0.3077    0.9777 C   0  0  0  0  0  0  0  0  0  0  0  0
    2.0077   -0.3229    1.1577 O   0  0  0  0  0  0  0  0  0  0  0  0
   -0.0190    0.2251    1.9592 N   0  0  0  0  0  0  0  0  0  0  0  0
   -1.0161    0.1064    1.8126 H   0  0  0  0  0  0  0  0  0  0  0  0
    0.4596    0.5072    3.3068 C   0  0  0  0  0  0  0  0  0  0  0  0
    1.2774    1.2350    3.2791 H   0  0  0  0  0  0  0  0  0  0  0  0
   -0.3486    0.9215    3.9168 H   0  0  0  0  0  0  0  0  0  0  0  0
    0.8212   -0.4099    3.7841 H   0  0  0  0  0  0  0  0  0  0  0  0
  1  2  1  0  0  0  0
  2  3  1  0  0  0  0
  2  4  1  0  0  0  0
  2  5  1  0  0  0  0
  5  6  2  0  0  0  0
  5  7  1  0  0  0  0
  7  8  1  0  0  0  0
  7  9  1  0  0  0  0
  9 10  1  0  0  0  0
  9 11  1  0  0  0  0
  9 21  1  0  0  0  0
 11 12  1  0  0  0  0
 11 13  1  0  0  0  0
 11 14  1  0  0  0  0
 14 15  1  0  0  0  0
 14 16  1  0  0  0  0
 14 17  1  0  0  0  0
 17 18  2  0  0  0  0
 17 19  1  0  0  0  0
 19 20  1  0  0  0  0
 21 22  2  0  0  0  0
 21 23  1  0  0  0  0
 23 24  1  0  0  0  0
 23 25  1  0  0  0  0
 25 26  1  0  0  0  0
 25 27  1  0  0  0  0
 25 28  1  0  0  0  0
M  END
$$$$

  -OEChem-02102214123D

 28 27  0     1  0  0  0  0  0999 V2000
   -2.7261   -4.1276    0.3122 H   0  0  0  0  0  0  0  0  0  0  0  0
   -2.6818   -3.1650   -0.2055 C   0  0  0  0  0  0  0  0  0  0  0  0
   -3.5120   -2.5428    0.1374 H   0  0  0  0  0  0  0  0  0  0  0  0
   -2.7839   -3.3395   -1.2793 H   0  0  0  0  0  0  0  0  0  0  0  0
   -1.3615   -2.4766    0.0852 C   0  0  0  0  0  0  0  0  0  0  0  0
   -0.5496   -3.0075    0.8210 O   0  0  0  0  0  0  0  0  0  0  0  0
   -1.0988   -1.2395   -0.4700 N   0  0  0  0  0  0  0  0  0  0  0  0
   -1.7632   -0.9196   -1.1685 H   0  0  0  0  0  0  0  0  0  0  0  0
    0.2263   -0.5907   -0.4373 C   0  0  1  0  0  0  0  0  0  0  0  0
    0.9241   -1.2787   -0.9283 H   0  0  0  0  0  0  0  0  0  0  0  0
    0.1520    0.7160   -1.2536 C   0  0  0  0  0  0  0  0  0  0  0  0
   -0.6118    0.6172   -2.0317 H   0  0  0  0  0  0  0  0  0  0  0  0
   -0.1700    1.5372   -0.6040 H   0  0  0  0  0  0  0  0  0  0  0  0
    1.5118    1.0759   -1.9017 C   0  0  0  0  0  0  0  0  0  0  0  0
    1.8345    2.0469   -1.5146 H   0  0  0  0  0  0  0  0  0  0  0  0
    2.2856    0.3548   -1.6225 H   0  0  0  0  0  0  0  0  0  0  0  0
    1.4667    1.1579   -3.4268 C   0  0  0  0  0  0  0  0  0  0  0  0
    0.8757    0.2901   -4.0493 O   0  0  0  0  0  0  0  0  0  0  0  0
    2.0895    2.2047   -4.0157 O   0  0  0  0  0  0  0  0  0  0  0  0
    1.9739    2.0819   -4.9701 H   0  0  0  0  0  0  0  0  0  0  0  0
    0.7983   -0.3129    0.9720 C   0  0  0  0  0  0  0  0  0  0  0  0
    2.0095   -0.3288    1.1484 O   0  0  0  0  0  0  0  0  0  0  0  0
   -0.0147    0.2282    1.9512 N   0  0  0  0  0  0  0  0  0  0  0  0
   -1.0125    0.1134    1.8060 H   0  0  0  0  0  0  0  0  0  0  0  0
    0.4666    0.5179    3.2961 C   0  0  0  0  0  0  0  0  0  0  0  0
    1.2801    1.2503    3.2631 H   0  0  0  0  0  0  0  0  0  0  0  0
   -0.3419    0.9296    3.9074 H   0  0  0  0  0  0  0  0  0  0  0  0
    0.8346   -0.3955    3.7754 H   0  0  0  0  0  0  0  0  0  0  0  0
  1  2  1  0  0  0  0
  2  3  1  0  0  0  0
  2  4  1  0  0  0  0
  2  5  1  0  0  0  0
  5  6  2  0  0  0  0
  5  7  1  0  0  0  0
  7  8  1  0  0  0  0
  7  9  1  0  0  0  0
  9 10  1  0  0  0  0
  9 11  1  0  0  0  0
  9 21  1  0  0  0  0
 11 12  1  0  0  0  0
 11 13  1  0  0  0  0
 11 14  1  0  0  0  0
 14 15  1  0  0  0  0
 14 16  1  0  0  0  0
 14 17  1  0  0  0  0
 17 18  2  0  0  0  0
 17 19  1  0  0  0  0
 19 20  1  0  0  0  0
 21 22  2  0  0  0  0
 21 23  1  0  0  0  0
 23 24  1  0  0  0  0
 23 25  1  0  0  0  0
 25 26  1  0  0  0  0
 25 27  1  0  0  0  0
 25 28  1  0  0  0  0
M  END
$$$$

  -OEChem-02102214123D

 28 27  0     1  0  0  0  0  0999 V2000
   -2.5917   -4.1908    0.2924 H   0  0  0  0  0  0  0  0  0  0  0  0
   -2.5794   -3.2291   -0.2288 C   0  0  0  0  0  0  0  0  0  0  0  0
   -3.4117   -2.6222    0.1355 H   0  0  0  0  0  0  0  0  0  0  0  0
   -2.7077   -3.4082   -1.2990 H   0  0  0  0  0  0  0  0  0  0  0  0
   -1.2644   -2.5160    0.0239 C   0  0  0  0  0  0  0  0  0  0  0  0
   -0.3989   -3.0557    0.6884 O   0  0  0  0  0  0  0  0  0  0  0  0
   -1.0586   -1.2525   -0.4946 N   0  0  0  0  0  0  0  0  0  0  0  0
   -1.7816   -0.8936   -1.1114 H   0  0  0  0  0  0  0  0  0  0  0  0
    0.2317   -0.5376   -0.4410 C   0  0  1  0  0  0  0  0  0  0  0  0
    0.9635   -1.1799   -0.9438 H   0  0  0  0  0  0  0  0  0  0  0  0
    0.0974    0.7857   -1.2216 C   0  0  0  0  0  0  0  0  0  0  0  0
   -0.6354    0.6312   -2.0206 H   0  0  0  0  0  0  0  0  0  0  0  0
   -0.2960    1.5780   -0.5758 H   0  0  0  0  0  0  0  0  0  0  0  0
    1.4346    1.2399   -1.8574 C   0  0  0  0  0  0  0  0  0  0  0  0
    1.8682    2.0440   -1.2564 H   0  0  0  0  0  0  0  0  0  0  0  0
    2.1551    0.4168   -1.8500 H   0  0  0  0  0  0  0  0  0  0  0  0
    1.3038    1.7167   -3.3041 C   0  0  0  0  0  0  0  0  0  0  0  0
    0.3152    2.3524   -3.6338 O   0  0  0  0  0  0  0  0  0  0  0  0
    2.3074    1.4054   -4.1562 O   0  0  0  0  0  0  0  0  0  0  0  0
    2.0652    1.7948   -5.0098 H   0  0  0  0  0  0  0  0  0  0  0  0
    0.7877   -0.2688    0.9758 C   0  0  0  0  0  0  0  0  0  0  0  0
    1.9980   -0.2341    1.1543 O   0  0  0  0  0  0  0  0  0  0  0  0
   -0.0508    0.2039    1.9690 N   0  0  0  0  0  0  0  0  0  0  0  0
   -1.0447    0.0734    1.8122 H   0  0  0  0  0  0  0  0  0  0  0  0
    0.4149    0.4961    3.3189 C   0  0  0  0  0  0  0  0  0  0  0  0
    1.1803    1.2790    3.2992 H   0  0  0  0  0  0  0  0  0  0  0  0
   -0.4164    0.8435    3.9396 H   0  0  0  0  0  0  0  0  0  0  0  0
    0.8418   -0.4015    3.7790 H   0  0  0  0  0  0  0  0  0  0  0  0
  1  2  1  0  0  0  0
  2  3  1  0  0  0  0
  2  4  1  0  0  0  0
  2  5  1  0  0  0  0
  5  6  2  0  0  0  0
  5  7  1  0  0  0  0
  7  8  1  0  0  0  0
  7  9  1  0  0  0  0
  9 10  1  0  0  0  0
  9 11  1  0  0  0  0
  9 21  1  0  0  0  0
 11 12  1  0  0  0  0
 11 13  1  0  0  0  0
 11 14  1  0  0  0  0
 14 15  1  0  0  0  0
 14 16  1  0  0  0  0
 14 17  1  0  0  0  0
 17 18  2  0  0  0  0
 17 19  1  0  0  0  0
 19 20  1  0  0  0  0
 21 22  2  0  0  0  0
 21 23  1  0  0  0  0
 23 24  1  0  0  0  0
 23 25  1  0  0  0  0
 25 26  1  0  0  0  0
 25 27  1  0  0  0  0
 25 28  1  0  0  0  0
M  END
$$$$

  -OEChem-02102214123D

 28 27  0     1  0  0  0  0  0999 V2000
   -2.5985   -4.1993    0.2713 H   0  0  0  0  0  0  0  0  0  0  0  0
   -2.5963   -3.2219   -0.2195 C   0  0  0  0  0  0  0  0  0  0  0  0
   -3.4197   -2.6257    0.1808 H   0  0  0  0  0  0  0  0  0  0  0  0
   -2.7474   -3.3676   -1.2918 H   0  0  0  0  0  0  0  0  0  0  0  0
   -1.2755   -2.5179    0.0278 C   0  0  0  0  0  0  0  0  0  0  0  0
   -0.4103   -3.0626    0.6886 O   0  0  0  0  0  0  0  0  0  0  0  0
   -1.0634   -1.2566   -0.4926 N   0  0  0  0  0  0  0  0  0  0  0  0
   -1.7885   -0.8898   -1.1021 H   0  0  0  0  0  0  0  0  0  0  0  0
    0.2290   -0.5461   -0.4378 C   0  0  1  0  0  0  0  0  0  0  0  0
    0.9611   -1.1917   -0.9356 H   0  0  0  0  0  0  0  0  0  0  0  0
    0.1009    0.7743   -1.2230 C   0  0  0  0  0  0  0  0  0  0  0  0
   -0.6191    0.6138   -2.0326 H   0  0  0  0  0  0  0  0  0  0  0  0
   -0.2975    1.5721   -0.5867 H   0  0  0  0  0  0  0  0  0  0  0  0
    1.4424    1.2150   -1.8531 C   0  0  0  0  0  0  0  0  0  0  0  0
    2.0117    1.8050   -1.1289 H   0  0  0  0  0  0  0  0  0  0  0  0
    2.0438    0.3344   -2.0957 H   0  0  0  0  0  0  0  0  0  0  0  0
    1.2882    2.0155   -3.1468 C   0  0  0  0  0  0  0  0  0  0  0  0
    0.2590    2.6405   -3.3483 O   0  0  0  0  0  0  0  0  0  0  0  0
    2.3240    1.9871   -4.0164 O   0  0  0  0  0  0  0  0  0  0  0  0
    2.0639    2.5489   -4.7617 H   0  0  0  0  0  0  0  0  0  0  0  0
    0.7833   -0.2757    0.9796 C   0  0  0  0  0  0  0  0  0  0  0  0
    1.9935   -0.2427    1.1597 O   0  0  0  0  0  0  0  0  0  0  0  0
   -0.0548    0.2022    1.9706 N   0  0  0  0  0  0  0  0  0  0  0  0
   -1.0489    0.0709    1.8153 H   0  0  0  0  0  0  0  0  0  0  0  0
    0.4123    0.5057    3.3178 C   0  0  0  0  0  0  0  0  0  0  0  0
    1.1799    1.2863    3.2903 H   0  0  0  0  0  0  0  0  0  0  0  0
   -0.4173    0.8612    3.9362 H   0  0  0  0  0  0  0  0  0  0  0  0
    0.8366   -0.3890    3.7856 H   0  0  0  0  0  0  0  0  0  0  0  0
  1  2  1  0  0  0  0
  2  3  1  0  0  0  0
  2  4  1  0  0  0  0
  2  5  1  0  0  0  0
  5  6  2  0  0  0  0
  5  7  1  0  0  0  0
  7  8  1  0  0  0  0
  7  9  1  0  0  0  0
  9 10  1  0  0  0  0
  9 11  1  0  0  0  0
  9 21  1  0  0  0  0
 11 12  1  0  0  0  0
 11 13  1  0  0  0  0
 11 14  1  0  0  0  0
 14 15  1  0  0  0  0
 14 16  1  0  0  0  0
 14 17  1  0  0  0  0
 17 18  2  0  0  0  0
 17 19  1  0  0  0  0
 19 20  1  0  0  0  0
 21 22  2  0  0  0  0
 21 23  1  0  0  0  0
 23 24  1  0  0  0  0
 23 25  1  0  0  0  0
 25 26  1  0  0  0  0
 25 27  1  0  0  0  0
 25 28  1  0  0  0  0
M  END
$$$$

  -OEChem-02102214123D

 28 27  0     1  0  0  0  0  0999 V2000
   -2.6009   -4.2093    0.2583 H   0  0  0  0  0  0  0  0  0  0  0  0
   -2.6132   -3.2140   -0.1953 C   0  0  0  0  0  0  0  0  0  0  0  0
   -3.4257   -2.6348    0.2501 H   0  0  0  0  0  0  0  0  0  0  0  0
   -2.7939   -3.3200   -1.2678 H   0  0  0  0  0  0  0  0  0  0  0  0
   -1.2864   -2.5174    0.0419 C   0  0  0  0  0  0  0  0  0  0  0  0
   -0.4232   -3.0632    0.7044 O   0  0  0  0  0  0  0  0  0  0  0  0
   -1.0674   -1.2612   -0.4883 N   0  0  0  0  0  0  0  0  0  0  0  0
   -1.7917   -0.8941   -1.0987 H   0  0  0  0  0  0  0  0  0  0  0  0
    0.2292   -0.5578   -0.4418 C   0  0  1  0  0  0  0  0  0  0  0  0
    0.9605   -1.2048   -0.9392 H   0  0  0  0  0  0  0  0  0  0  0  0
    0.1005    0.7578   -1.2338 C   0  0  0  0  0  0  0  0  0  0  0  0
   -0.6232    0.6058   -2.0420 H   0  0  0  0  0  0  0  0  0  0  0  0
   -0.2846    1.5594   -0.5935 H   0  0  0  0  0  0  0  0  0  0  0  0
    1.4422    1.1819   -1.8690 C   0  0  0  0  0  0  0  0  0  0  0  0
    2.1181    1.5447   -1.0887 H   0  0  0  0  0  0  0  0  0  0  0  0
    1.9163    0.3148   -2.3369 H   0  0  0  0  0  0  0  0  0  0  0  0
    1.3090    2.2605   -2.9455 C   0  0  0  0  0  0  0  0  0  0  0  0
    0.2317    2.8041   -3.1324 O   0  0  0  0  0  0  0  0  0  0  0  0
    2.4242    2.5595   -3.6495 O   0  0  0  0  0  0  0  0  0  0  0  0
    2.1700    3.2597   -4.2692 H   0  0  0  0  0  0  0  0  0  0  0  0
    0.7850   -0.2819    0.9738 C   0  0  0  0  0  0  0  0  0  0  0  0
    1.9952   -0.2603    1.1560 O   0  0  0  0  0  0  0  0  0  0  0  0
   -0.0507    0.2071    1.9611 N   0  0  0  0  0  0  0  0  0  0  0  0
   -1.0457    0.0851    1.8043 H   0  0  0  0  0  0  0  0  0  0  0  0
    0.4166    0.5130    3.3074 C   0  0  0  0  0  0  0  0  0  0  0  0
    1.2059    1.2718    3.2761 H   0  0  0  0  0  0  0  0  0  0  0  0
   -0.4070    0.8986    3.9157 H   0  0  0  0  0  0  0  0  0  0  0  0
    0.8134   -0.3876    3.7882 H   0  0  0  0  0  0  0  0  0  0  0  0
  1  2  1  0  0  0  0
  2  3  1  0  0  0  0
  2  4  1  0  0  0  0
  2  5  1  0  0  0  0
  5  6  2  0  0  0  0
  5  7  1  0  0  0  0
  7  8  1  0  0  0  0
  7  9  1  0  0  0  0
  9 10  1  0  0  0  0
  9 11  1  0  0  0  0
  9 21  1  0  0  0  0
 11 12  1  0  0  0  0
 11 13  1  0  0  0  0
 11 14  1  0  0  0  0
 14 15  1  0  0  0  0
 14 16  1  0  0  0  0
 14 17  1  0  0  0  0
 17 18  2  0  0  0  0
 17 19  1  0  0  0  0
 19 20  1  0  0  0  0
 21 22  2  0  0  0  0
 21 23  1  0  0  0  0
 23 24  1  0  0  0  0
 23 25  1  0  0  0  0
 25 26  1  0  0  0  0
 25 27  1  0  0  0  0
 25 28  1  0  0  0  0
M  END
$$$$

  -OEChem-02102214123D

 28 27  0     1  0  0  0  0  0999 V2000
   -2.5982   -4.2110    0.2717 H   0  0  0  0  0  0  0  0  0  0  0  0
   -2.6194   -3.2139   -0.1778 C   0  0  0  0  0  0  0  0  0  0  0  0
   -3.4246   -2.6374    0.2835 H   0  0  0  0  0  0  0  0  0  0  0  0
   -2.8183   -3.3160   -1.2474 H   0  0  0  0  0  0  0  0  0  0  0  0
   -1.2902   -2.5159    0.0400 C   0  0  0  0  0  0  0  0  0  0  0  0
   -0.4152   -3.0639    0.6849 O   0  0  0  0  0  0  0  0  0  0  0  0
   -1.0826   -1.2556   -0.4859 N   0  0  0  0  0  0  0  0  0  0  0  0
   -1.8165   -0.8866   -1.0833 H   0  0  0  0  0  0  0  0  0  0  0  0
    0.2115   -0.5465   -0.4473 C   0  0  1  0  0  0  0  0  0  0  0  0
    0.9415   -1.1950   -0.9453 H   0  0  0  0  0  0  0  0  0  0  0  0
    0.0893    0.7708   -1.2420 C   0  0  0  0  0  0  0  0  0  0  0  0
   -0.8120    0.7507   -1.8638 H   0  0  0  0  0  0  0  0  0  0  0  0
   -0.0096    1.6193   -0.5548 H   0  0  0  0  0  0  0  0  0  0  0  0
    1.3075    0.9810   -2.1633 C   0  0  0  0  0  0  0  0  0  0  0  0
    2.2176    1.0035   -1.5554 H   0  0  0  0  0  0  0  0  0  0  0  0
    1.3926    0.1419   -2.8592 H   0  0  0  0  0  0  0  0  0  0  0  0
    1.2497    2.2718   -2.9815 C   0  0  0  0  0  0  0  0  0  0  0  0
    0.2447    2.9645   -2.9537 O   0  0  0  0  0  0  0  0  0  0  0  0
    2.3398    2.5730   -3.7228 O   0  0  0  0  0  0  0  0  0  0  0  0
    2.1386    3.4111   -4.1658 H   0  0  0  0  0  0  0  0  0  0  0  0
    0.7791   -0.2756    0.9647 C   0  0  0  0  0  0  0  0  0  0  0  0
    1.9909   -0.2465    1.1332 O   0  0  0  0  0  0  0  0  0  0  0  0
   -0.0490    0.2043    1.9630 N   0  0  0  0  0  0  0  0  0  0  0  0
   -1.0451    0.0857    1.8120 H   0  0  0  0  0  0  0  0  0  0  0  0
    0.4279    0.4985    3.3086 C   0  0  0  0  0  0  0  0  0  0  0  0
    1.2193    1.2549    3.2789 H   0  0  0  0  0  0  0  0  0  0  0  0
   -0.3904    0.8819    3.9254 H   0  0  0  0  0  0  0  0  0  0  0  0
    0.8241   -0.4074    3.7795 H   0  0  0  0  0  0  0  0  0  0  0  0
  1  2  1  0  0  0  0
  2  3  1  0  0  0  0
  2  4  1  0  0  0  0
  2  5  1  0  0  0  0
  5  6  2  0  0  0  0
  5  7  1  0  0  0  0
  7  8  1  0  0  0  0
  7  9  1  0  0  0  0
  9 10  1  0  0  0  0
  9 11  1  0  0  0  0
  9 21  1  0  0  0  0
 11 12  1  0  0  0  0
 11 13  1  0  0  0  0
 11 14  1  0  0  0  0
 14 15  1  0  0  0  0
 14 16  1  0  0  0  0
 14 17  1  0  0  0  0
 17 18  2  0  0  0  0
 17 19  1  0  0  0  0
 19 20  1  0  0  0  0
 21 22  2  0  0  0  0
 21 23  1  0  0  0  0
 23 24  1  0  0  0  0
 23 25  1  0  0  0  0
 25 26  1  0  0  0  0
 25 27  1  0  0  0  0
 25 28  1  0  0  0  0
M  END
$$$$

  -OEChem-02102214123D

 28 27  0     1  0  0  0  0  0999 V2000
   -2.6059   -4.2057    0.2740 H   0  0  0  0  0  0  0  0  0  0  0  0
   -2.6240   -3.2092   -0.1766 C   0  0  0  0  0  0  0  0  0  0  0  0
   -3.4311   -2.6316    0.2801 H   0  0  0  0  0  0  0  0  0  0  0  0
   -2.8173   -3.3119   -1.2471 H   0  0  0  0  0  0  0  0  0  0  0  0
   -1.2957   -2.5118    0.0468 C   0  0  0  0  0  0  0  0  0  0  0  0
   -0.4254   -3.0569    0.7003 O   0  0  0  0  0  0  0  0  0  0  0  0
   -1.0844   -1.2542   -0.4833 N   0  0  0  0  0  0  0  0  0  0  0  0
   -1.8140   -0.8894   -1.0882 H   0  0  0  0  0  0  0  0  0  0  0  0
    0.2122   -0.5505   -0.4498 C   0  0  1  0  0  0  0  0  0  0  0  0
    0.9373   -1.2038   -0.9492 H   0  0  0  0  0  0  0  0  0  0  0  0
    0.0889    0.7621   -1.2520 C   0  0  0  0  0  0  0  0  0  0  0  0
   -0.8169    0.7580   -1.8672 H   0  0  0  0  0  0  0  0  0  0  0  0
    0.0026    1.6046   -0.5557 H   0  0  0  0  0  0  0  0  0  0  0  0
    1.3034    0.9691   -2.1797 C   0  0  0  0  0  0  0  0  0  0  0  0
    2.2204    0.7556   -1.6209 H   0  0  0  0  0  0  0  0  0  0  0  0
    1.2551    0.2701   -3.0189 H   0  0  0  0  0  0  0  0  0  0  0  0
    1.4259    2.3927   -2.7244 C   0  0  0  0  0  0  0  0  0  0  0  0
    0.4651    3.1444   -2.6724 O   0  0  0  0  0  0  0  0  0  0  0  0
    2.6140    2.7401   -3.2690 O   0  0  0  0  0  0  0  0  0  0  0  0
    2.5189    3.6614   -3.5537 H   0  0  0  0  0  0  0  0  0  0  0  0
    0.7842   -0.2777    0.9604 C   0  0  0  0  0  0  0  0  0  0  0  0
    1.9965   -0.2499    1.1248 O   0  0  0  0  0  0  0  0  0  0  0  0
   -0.0396    0.2084    1.9593 N   0  0  0  0  0  0  0  0  0  0  0  0
   -1.0364    0.0882    1.8133 H   0  0  0  0  0  0  0  0  0  0  0  0
    0.4427    0.5079    3.3020 C   0  0  0  0  0  0  0  0  0  0  0  0
    1.2301    1.2682    3.2667 H   0  0  0  0  0  0  0  0  0  0  0  0
   -0.3745    0.8886    3.9219 H   0  0  0  0  0  0  0  0  0  0  0  0
    0.8464   -0.3945    3.7735 H   0  0  0  0  0  0  0  0  0  0  0  0
  1  2  1  0  0  0  0
  2  3  1  0  0  0  0
  2  4  1  0  0  0  0
  2  5  1  0  0  0  0
  5  6  2  0  0  0  0
  5  7  1  0  0  0  0
  7  8  1  0  0  0  0
  7  9  1  0  0  0  0
  9 10  1  0  0  0  0
  9 11  1  0  0  0  0
  9 21  1  0  0  0  0
 11 12  1  0  0  0  0
 11 13  1  0  0  0  0
 11 14  1  0  0  0  0
 14 15  1  0  0  0  0
 14 16  1  0  0  0  0
 14 17  1  0  0  0  0
 17 18  2  0  0  0  0
 17 19  1  0  0  0  0
 19 20  1  0  0  0  0
 21 22  2  0  0  0  0
 21 23  1  0  0  0  0
 23 24  1  0  0  0  0
 23 25  1  0  0  0  0
 25 26  1  0  0  0  0
 25 27  1  0  0  0  0
 25 28  1  0  0  0  0
M  END
$$$$

  -OEChem-02102214123D

 28 27  0     1  0  0  0  0  0999 V2000
   -2.6075   -4.2055    0.2761 H   0  0  0  0  0  0  0  0  0  0  0  0
   -2.6259   -3.2091   -0.1750 C   0  0  0  0  0  0  0  0  0  0  0  0
   -3.4344   -2.6320    0.2799 H   0  0  0  0  0  0  0  0  0  0  0  0
   -2.8175   -3.3132   -1.2457 H   0  0  0  0  0  0  0  0  0  0  0  0
   -1.2979   -2.5109    0.0497 C   0  0  0  0  0  0  0  0  0  0  0  0
   -0.4256   -3.0588    0.6982 O   0  0  0  0  0  0  0  0  0  0  0  0
   -1.0860   -1.2536   -0.4813 N   0  0  0  0  0  0  0  0  0  0  0  0
   -1.8202   -0.8837   -1.0775 H   0  0  0  0  0  0  0  0  0  0  0  0
    0.2119   -0.5518   -0.4523 C   0  0  1  0  0  0  0  0  0  0  0  0
    0.9321   -1.2102   -0.9516 H   0  0  0  0  0  0  0  0  0  0  0  0
    0.0884    0.7581   -1.2609 C   0  0  0  0  0  0  0  0  0  0  0  0
   -0.8208    0.7615   -1.8707 H   0  0  0  0  0  0  0  0  0  0  0  0
    0.0043    1.5953   -0.5576 H   0  0  0  0  0  0  0  0  0  0  0  0
    1.2998    0.9697   -2.1966 C   0  0  0  0  0  0  0  0  0  0  0  0
    2.1904    0.5272   -1.7385 H   0  0  0  0  0  0  0  0  0  0  0  0
    1.1308    0.4620   -3.1497 H   0  0  0  0  0  0  0  0  0  0  0  0
    1.6303    2.4398   -2.4560 C   0  0  0  0  0  0  0  0  0  0  0  0
    0.7459    3.2773   -2.3721 O   0  0  0  0  0  0  0  0  0  0  0  0
    2.9035    2.7338   -2.8048 O   0  0  0  0  0  0  0  0  0  0  0  0
    2.9329    3.6947   -2.9257 H   0  0  0  0  0  0  0  0  0  0  0  0
    0.7903   -0.2785    0.9552 C   0  0  0  0  0  0  0  0  0  0  0  0
    2.0033   -0.2561    1.1156 O   0  0  0  0  0  0  0  0  0  0  0  0
   -0.0288    0.2099    1.9568 N   0  0  0  0  0  0  0  0  0  0  0  0
   -1.0266    0.0952    1.8138 H   0  0  0  0  0  0  0  0  0  0  0  0
    0.4585    0.5149    3.2964 C   0  0  0  0  0  0  0  0  0  0  0  0
    1.2459    1.2750    3.2549 H   0  0  0  0  0  0  0  0  0  0  0  0
   -0.3565    0.8985    3.9175 H   0  0  0  0  0  0  0  0  0  0  0  0
    0.8632   -0.3857    3.7704 H   0  0  0  0  0  0  0  0  0  0  0  0
  1  2  1  0  0  0  0
  2  3  1  0  0  0  0
  2  4  1  0  0  0  0
  2  5  1  0  0  0  0
  5  6  2  0  0  0  0
  5  7  1  0  0  0  0
  7  8  1  0  0  0  0
  7  9  1  0  0  0  0
  9 10  1  0  0  0  0
  9 11  1  0  0  0  0
  9 21  1  0  0  0  0
 11 12  1  0  0  0  0
 11 13  1  0  0  0  0
 11 14  1  0  0  0  0
 14 15  1  0  0  0  0
 14 16  1  0  0  0  0
 14 17  1  0  0  0  0
 17 18  2  0  0  0  0
 17 19  1  0  0  0  0
 19 20  1  0  0  0  0
 21 22  2  0  0  0  0
 21 23  1  0  0  0  0
 23 24  1  0  0  0  0
 23 25  1  0  0  0  0
 25 26  1  0  0  0  0
 25 27  1  0  0  0  0
 25 28  1  0  0  0  0
M  END
$$$$

  -OEChem-02102214123D

 28 27  0     1  0  0  0  0  0999 V2000
   -2.6284   -4.1879    0.3158 H   0  0  0  0  0  0  0  0  0  0  0  0
   -2.6331   -3.2046   -0.1635 C   0  0  0  0  0  0  0  0  0  0  0  0
   -3.4350   -2.6049    0.2736 H   0  0  0  0  0  0  0  0  0  0  0  0
   -2.8241   -3.3357   -1.2314 H   0  0  0  0  0  0  0  0  0  0  0  0
   -1.2968   -2.5172    0.0444 C   0  0  0  0  0  0  0  0  0  0  0  0
   -0.4231   -3.0686    0.6881 O   0  0  0  0  0  0  0  0  0  0  0  0
   -1.0822   -1.2612   -0.4883 N   0  0  0  0  0  0  0  0  0  0  0  0
   -1.8174   -0.8888   -1.0816 H   0  0  0  0  0  0  0  0  0  0  0  0
    0.2171   -0.5619   -0.4610 C   0  0  1  0  0  0  0  0  0  0  0  0
    0.9320   -1.2266   -0.9589 H   0  0  0  0  0  0  0  0  0  0  0  0
    0.0949    0.7501   -1.2687 C   0  0  0  0  0  0  0  0  0  0  0  0
   -0.8142    0.7451   -1.8783 H   0  0  0  0  0  0  0  0  0  0  0  0
   -0.0053    1.5832   -0.5633 H   0  0  0  0  0  0  0  0  0  0  0  0
    1.2991    0.9802   -2.2145 C   0  0  0  0  0  0  0  0  0  0  0  0
    2.1281    0.3267   -1.9261 H   0  0  0  0  0  0  0  0  0  0  0  0
    1.0230    0.7250   -3.2409 H   0  0  0  0  0  0  0  0  0  0  0  0
    1.8419    2.4096   -2.1812 C   0  0  0  0  0  0  0  0  0  0  0  0
    1.0607    3.3395   -2.0572 O   0  0  0  0  0  0  0  0  0  0  0  0
    3.1764    2.5724   -2.3299 O   0  0  0  0  0  0  0  0  0  0  0  0
    3.3380    3.5260   -2.2730 H   0  0  0  0  0  0  0  0  0  0  0  0
    0.8002   -0.2862    0.9433 C   0  0  0  0  0  0  0  0  0  0  0  0
    2.0138   -0.2577    1.0969 O   0  0  0  0  0  0  0  0  0  0  0  0
   -0.0150    0.2061    1.9460 N   0  0  0  0  0  0  0  0  0  0  0  0
   -1.0133    0.0885    1.8095 H   0  0  0  0  0  0  0  0  0  0  0  0
    0.4803    0.5247    3.2792 C   0  0  0  0  0  0  0  0  0  0  0  0
    1.2580    1.2940    3.2255 H   0  0  0  0  0  0  0  0  0  0  0  0
   -0.3336    0.9020    3.9056 H   0  0  0  0  0  0  0  0  0  0  0  0
    0.9008   -0.3681    3.7543 H   0  0  0  0  0  0  0  0  0  0  0  0
  1  2  1  0  0  0  0
  2  3  1  0  0  0  0
  2  4  1  0  0  0  0
  2  5  1  0  0  0  0
  5  6  2  0  0  0  0
  5  7  1  0  0  0  0
  7  8  1  0  0  0  0
  7  9  1  0  0  0  0
  9 10  1  0  0  0  0
  9 11  1  0  0  0  0
  9 21  1  0  0  0  0
 11 12  1  0  0  0  0
 11 13  1  0  0  0  0
 11 14  1  0  0  0  0
 14 15  1  0  0  0  0
 14 16  1  0  0  0  0
 14 17  1  0  0  0  0
 17 18  2  0  0  0  0
 17 19  1  0  0  0  0
 19 20  1  0  0  0  0
 21 22  2  0  0  0  0
 21 23  1  0  0  0  0
 23 24  1  0  0  0  0
 23 25  1  0  0  0  0
 25 26  1  0  0  0  0
 25 27  1  0  0  0  0
 25 28  1  0  0  0  0
M  END
$$$$

  -OEChem-02102214123D

 28 27  0     1  0  0  0  0  0999 V2000
   -2.6128   -4.1981    0.3133 H   0  0  0  0  0  0  0  0  0  0  0  0
   -2.6232   -3.2163   -0.1689 C   0  0  0  0  0  0  0  0  0  0  0  0
   -3.4333   -2.6223    0.2609 H   0  0  0  0  0  0  0  0  0  0  0  0
   -2.8062   -3.3529   -1.2374 H   0  0  0  0  0  0  0  0  0  0  0  0
   -1.2939   -2.5170    0.0447 C   0  0  0  0  0  0  0  0  0  0  0  0
   -0.4174   -3.0635    0.6889 O   0  0  0  0  0  0  0  0  0  0  0  0
   -1.0856   -1.2602   -0.4890 N   0  0  0  0  0  0  0  0  0  0  0  0
   -1.8204   -0.8950   -1.0871 H   0  0  0  0  0  0  0  0  0  0  0  0
    0.2139   -0.5602   -0.4675 C   0  0  1  0  0  0  0  0  0  0  0  0
    0.9247   -1.2270   -0.9670 H   0  0  0  0  0  0  0  0  0  0  0  0
    0.0930    0.7587   -1.2658 C   0  0  0  0  0  0  0  0  0  0  0  0
   -0.8123    0.7353   -1.8804 H   0  0  0  0  0  0  0  0  0  0  0  0
   -0.0308    1.5940   -0.5673 H   0  0  0  0  0  0  0  0  0  0  0  0
    1.2907    0.9999   -2.2202 C   0  0  0  0  0  0  0  0  0  0  0  0
    2.0021    0.1709   -2.1693 H   0  0  0  0  0  0  0  0  0  0  0  0
    0.9306    1.0508   -3.2510 H   0  0  0  0  0  0  0  0  0  0  0  0
    2.0599    2.2872   -1.9221 C   0  0  0  0  0  0  0  0  0  0  0  0
    1.4367    3.3097   -1.6849 O   0  0  0  0  0  0  0  0  0  0  0  0
    3.4103    2.2306   -1.9721 O   0  0  0  0  0  0  0  0  0  0  0  0
    3.7249    3.1147   -1.7314 H   0  0  0  0  0  0  0  0  0  0  0  0
    0.8054   -0.2842    0.9335 C   0  0  0  0  0  0  0  0  0  0  0  0
    2.0200   -0.2552    1.0789 O   0  0  0  0  0  0  0  0  0  0  0  0
   -0.0025    0.2079    1.9422 N   0  0  0  0  0  0  0  0  0  0  0  0
   -1.0022    0.0951    1.8120 H   0  0  0  0  0  0  0  0  0  0  0  0
    0.5032    0.5364    3.2693 C   0  0  0  0  0  0  0  0  0  0  0  0
    1.2739    1.3120    3.2053 H   0  0  0  0  0  0  0  0  0  0  0  0
   -0.3075    0.9091    3.9023 H   0  0  0  0  0  0  0  0  0  0  0  0
    0.9353   -0.3510    3.7438 H   0  0  0  0  0  0  0  0  0  0  0  0
  1  2  1  0  0  0  0
  2  3  1  0  0  0  0
  2  4  1  0  0  0  0
  2  5  1  0  0  0  0
  5  6  2  0  0  0  0
  5  7  1  0  0  0  0
  7  8  1  0  0  0  0
  7  9  1  0  0  0  0
  9 10  1  0  0  0  0
  9 11  1  0  0  0  0
  9 21  1  0  0  0  0
 11 12  1  0  0  0  0
 11 13  1  0  0  0  0
 11 14  1  0  0  0  0
 14 15  1  0  0  0  0
 14 16  1  0  0  0  0
 14 17  1  0  0  0  0
 17 18  2  0  0  0  0
 17 19  1  0  0  0  0
 19 20  1  0  0  0  0
 21 22  2  0  0  0  0
 21 23  1  0  0  0  0
 23 24  1  0  0  0  0
 23 25  1  0  0  0  0
 25 26  1  0  0  0  0
 25 27  1  0  0  0  0
 25 28  1  0  0  0  0
M  END
$$$$

  -OEChem-02102214123D

 28 27  0     1  0  0  0  0  0999 V2000
   -2.5926   -4.2039    0.3027 H   0  0  0  0  0  0  0  0  0  0  0  0
   -2.6077   -3.2198   -0.1745 C   0  0  0  0  0  0  0  0  0  0  0  0
   -3.4162   -2.6296    0.2633 H   0  0  0  0  0  0  0  0  0  0  0  0
   -2.7972   -3.3512   -1.2425 H   0  0  0  0  0  0  0  0  0  0  0  0
   -1.2789   -2.5186    0.0353 C   0  0  0  0  0  0  0  0  0  0  0  0
   -0.3985   -3.0649    0.6741 O   0  0  0  0  0  0  0  0  0  0  0  0
   -1.0767   -1.2593   -0.4947 N   0  0  0  0  0  0  0  0  0  0  0  0
   -1.8156   -0.8940   -1.0876 H   0  0  0  0  0  0  0  0  0  0  0  0
    0.2195   -0.5530   -0.4731 C   0  0  1  0  0  0  0  0  0  0  0  0
    0.9357   -1.2126   -0.9747 H   0  0  0  0  0  0  0  0  0  0  0  0
    0.0921    0.7704   -1.2624 C   0  0  0  0  0  0  0  0  0  0  0  0
   -0.8057    0.7239   -1.8867 H   0  0  0  0  0  0  0  0  0  0  0  0
   -0.0557    1.6107   -0.5748 H   0  0  0  0  0  0  0  0  0  0  0  0
    1.2868    1.0183   -2.2161 C   0  0  0  0  0  0  0  0  0  0  0  0
    1.8381    0.0946   -2.4116 H   0  0  0  0  0  0  0  0  0  0  0  0
    0.9060    1.3701   -3.1786 H   0  0  0  0  0  0  0  0  0  0  0  0
    2.2599    2.0796   -1.7030 C   0  0  0  0  0  0  0  0  0  0  0  0
    1.8180    3.1376   -1.2842 O   0  0  0  0  0  0  0  0  0  0  0  0
    3.5801    1.7955   -1.7711 O   0  0  0  0  0  0  0  0  0  0  0  0
    4.0355    2.5443   -1.3582 H   0  0  0  0  0  0  0  0  0  0  0  0
    0.8112   -0.2788    0.9283 C   0  0  0  0  0  0  0  0  0  0  0  0
    2.0258   -0.2462    1.0729 O   0  0  0  0  0  0  0  0  0  0  0  0
    0.0028    0.2062    1.9403 N   0  0  0  0  0  0  0  0  0  0  0  0
   -0.9967    0.0907    1.8121 H   0  0  0  0  0  0  0  0  0  0  0  0
    0.5109    0.5383    3.2654 C   0  0  0  0  0  0  0  0  0  0  0  0
    1.2779    1.3172    3.1977 H   0  0  0  0  0  0  0  0  0  0  0  0
   -0.2993    0.9085    3.9007 H   0  0  0  0  0  0  0  0  0  0  0  0
    0.9490   -0.3464    3.7396 H   0  0  0  0  0  0  0  0  0  0  0  0
  1  2  1  0  0  0  0
  2  3  1  0  0  0  0
  2  4  1  0  0  0  0
  2  5  1  0  0  0  0
  5  6  2  0  0  0  0
  5  7  1  0  0  0  0
  7  8  1  0  0  0  0
  7  9  1  0  0  0  0
  9 10  1  0  0  0  0
  9 11  1  0  0  0  0
  9 21  1  0  0  0  0
 11 12  1  0  0  0  0
 11 13  1  0  0  0  0
 11 14  1  0  0  0  0
 14 15  1  0  0  0  0
 14 16  1  0  0  0  0
 14 17  1  0  0  0  0
 17 18  2  0  0  0  0
 17 19  1  0  0  0  0
 19 20  1  0  0  0  0
 21 22  2  0  0  0  0
 21 23  1  0  0  0  0
 23 24  1  0  0  0  0
 23 25  1  0  0  0  0
 25 26  1  0  0  0  0
 25 27  1  0  0  0  0
 25 28  1  0  0  0  0
M  END
$$$$

  -OEChem-02102214123D

 28 27  0     1  0  0  0  0  0999 V2000
   -2.5600   -4.2031    0.3007 H   0  0  0  0  0  0  0  0  0  0  0  0
   -2.5834   -3.2162   -0.1705 C   0  0  0  0  0  0  0  0  0  0  0  0
   -3.3852   -2.6290    0.2835 H   0  0  0  0  0  0  0  0  0  0  0  0
   -2.7892   -3.3414   -1.2362 H   0  0  0  0  0  0  0  0  0  0  0  0
   -1.2521   -2.5152    0.0230 C   0  0  0  0  0  0  0  0  0  0  0  0
   -0.3624   -3.0636    0.6469 O   0  0  0  0  0  0  0  0  0  0  0  0
   -1.0591   -1.2530   -0.5039 N   0  0  0  0  0  0  0  0  0  0  0  0
   -1.8068   -0.8848   -1.0836 H   0  0  0  0  0  0  0  0  0  0  0  0
    0.2331   -0.5389   -0.4853 C   0  0  1  0  0  0  0  0  0  0  0  0
    0.9561   -1.1862   -0.9940 H   0  0  0  0  0  0  0  0  0  0  0  0
    0.0916    0.7874   -1.2668 C   0  0  0  0  0  0  0  0  0  0  0  0
   -0.8078    0.7369   -1.8880 H   0  0  0  0  0  0  0  0  0  0  0  0
   -0.0513    1.6301   -0.5808 H   0  0  0  0  0  0  0  0  0  0  0  0
    1.2804    1.0372   -2.2205 C   0  0  0  0  0  0  0  0  0  0  0  0
    1.6617    0.0973   -2.6292 H   0  0  0  0  0  0  0  0  0  0  0  0
    0.9373    1.6389   -3.0665 H   0  0  0  0  0  0  0  0  0  0  0  0
    2.4181    1.8078   -1.5534 C   0  0  0  0  0  0  0  0  0  0  0  0
    2.1671    2.8650   -0.9976 O   0  0  0  0  0  0  0  0  0  0  0  0
    3.6589    1.2767   -1.6312 O   0  0  0  0  0  0  0  0  0  0  0  0
    4.2236    1.8416   -1.0825 H   0  0  0  0  0  0  0  0  0  0  0  0
    0.8217   -0.2693    0.9189 C   0  0  0  0  0  0  0  0  0  0  0  0
    2.0356   -0.2454    1.0720 O   0  0  0  0  0  0  0  0  0  0  0  0
    0.0080    0.2053    1.9315 N   0  0  0  0  0  0  0  0  0  0  0  0
   -0.9911    0.0950    1.7954 H   0  0  0  0  0  0  0  0  0  0  0  0
    0.5085    0.5261    3.2622 C   0  0  0  0  0  0  0  0  0  0  0  0
    1.2863    1.2951    3.2041 H   0  0  0  0  0  0  0  0  0  0  0  0
   -0.3025    0.9049    3.8913 H   0  0  0  0  0  0  0  0  0  0  0  0
    0.9303   -0.3662    3.7368 H   0  0  0  0  0  0  0  0  0  0  0  0
  1  2  1  0  0  0  0
  2  3  1  0  0  0  0
  2  4  1  0  0  0  0
  2  5  1  0  0  0  0
  5  6  2  0  0  0  0
  5  7  1  0  0  0  0
  7  8  1  0  0  0  0
  7  9  1  0  0  0  0
  9 10  1  0  0  0  0
  9 11  1  0  0  0  0
  9 21  1  0  0  0  0
 11 12  1  0  0  0  0
 11 13  1  0  0  0  0
 11 14  1  0  0  0  0
 14 15  1  0  0  0  0
 14 16  1  0  0  0  0
 14 17  1  0  0  0  0
 17 18  2  0  0  0  0
 17 19  1  0  0  0  0
 19 20  1  0  0  0  0
 21 22  2  0  0  0  0
 21 23  1  0  0  0  0
 23 24  1  0  0  0  0
 23 25  1  0  0  0  0
 25 26  1  0  0  0  0
 25 27  1  0  0  0  0
 25 28  1  0  0  0  0
M  END
$$$$

  -OEChem-02102214123D

 28 27  0     1  0  0  0  0  0999 V2000
   -2.5286   -4.1930    0.2905 H   0  0  0  0  0  0  0  0  0  0  0  0
   -2.5538   -3.2032   -0.1746 C   0  0  0  0  0  0  0  0  0  0  0  0
   -3.3517   -2.6181    0.2886 H   0  0  0  0  0  0  0  0  0  0  0  0
   -2.7673   -3.3215   -1.2397 H   0  0  0  0  0  0  0  0  0  0  0  0
   -1.2206   -2.5046    0.0143 C   0  0  0  0  0  0  0  0  0  0  0  0
   -0.3292   -3.0567    0.6322 O   0  0  0  0  0  0  0  0  0  0  0  0
   -1.0295   -1.2410   -0.5101 N   0  0  0  0  0  0  0  0  0  0  0  0
   -1.7790   -0.8729   -1.0877 H   0  0  0  0  0  0  0  0  0  0  0  0
    0.2612   -0.5239   -0.4925 C   0  0  1  0  0  0  0  0  0  0  0  0
    0.9907   -1.1590   -1.0086 H   0  0  0  0  0  0  0  0  0  0  0  0
    0.0980    0.8020   -1.2741 C   0  0  0  0  0  0  0  0  0  0  0  0
   -0.8115    0.7568   -1.8810 H   0  0  0  0  0  0  0  0  0  0  0  0
   -0.0239    1.6435   -0.5822 H   0  0  0  0  0  0  0  0  0  0  0  0
    1.2728    1.0655   -2.2359 C   0  0  0  0  0  0  0  0  0  0  0  0
    1.4928    0.1698   -2.8241 H   0  0  0  0  0  0  0  0  0  0  0  0
    0.9959    1.8569   -2.9378 H   0  0  0  0  0  0  0  0  0  0  0  0
    2.5303    1.5145   -1.4988 C   0  0  0  0  0  0  0  0  0  0  0  0
    2.4974    2.5667   -0.8820 O   0  0  0  0  0  0  0  0  0  0  0  0
    3.6144    0.7095   -1.5616 O   0  0  0  0  0  0  0  0  0  0  0  0
    4.2498    1.0743   -0.9267 H   0  0  0  0  0  0  0  0  0  0  0  0
    0.8391   -0.2628    0.9199 C   0  0  0  0  0  0  0  0  0  0  0  0
    2.0498   -0.2754    1.0985 O   0  0  0  0  0  0  0  0  0  0  0  0
    0.0155    0.2036    1.9284 N   0  0  0  0  0  0  0  0  0  0  0  0
   -0.9824    0.1087    1.7742 H   0  0  0  0  0  0  0  0  0  0  0  0
    0.4978    0.4882    3.2740 C   0  0  0  0  0  0  0  0  0  0  0  0
    1.2930    1.2407    3.2449 H   0  0  0  0  0  0  0  0  0  0  0  0
   -0.3163    0.8735    3.8950 H   0  0  0  0  0  0  0  0  0  0  0  0
    0.8909   -0.4218    3.7398 H   0  0  0  0  0  0  0  0  0  0  0  0
  1  2  1  0  0  0  0
  2  3  1  0  0  0  0
  2  4  1  0  0  0  0
  2  5  1  0  0  0  0
  5  6  2  0  0  0  0
  5  7  1  0  0  0  0
  7  8  1  0  0  0  0
  7  9  1  0  0  0  0
  9 10  1  0  0  0  0
  9 11  1  0  0  0  0
  9 21  1  0  0  0  0
 11 12  1  0  0  0  0
 11 13  1  0  0  0  0
 11 14  1  0  0  0  0
 14 15  1  0  0  0  0
 14 16  1  0  0  0  0
 14 17  1  0  0  0  0
 17 18  2  0  0  0  0
 17 19  1  0  0  0  0
 19 20  1  0  0  0  0
 21 22  2  0  0  0  0
 21 23  1  0  0  0  0
 23 24  1  0  0  0  0
 23 25  1  0  0  0  0
 25 26  1  0  0  0  0
 25 27  1  0  0  0  0
 25 28  1  0  0  0  0
M  END
$$$$

  -OEChem-02102214123D

 28 27  0     1  0  0  0  0  0999 V2000
   -2.5166   -4.1860    0.2581 H   0  0  0  0  0  0  0  0  0  0  0  0
   -2.5344   -3.1937   -0.2017 C   0  0  0  0  0  0  0  0  0  0  0  0
   -3.3393   -2.6107    0.2520 H   0  0  0  0  0  0  0  0  0  0  0  0
   -2.7312   -3.3063   -1.2705 H   0  0  0  0  0  0  0  0  0  0  0  0
   -1.2038   -2.4967    0.0109 C   0  0  0  0  0  0  0  0  0  0  0  0
   -0.3234   -3.0510    0.6423 O   0  0  0  0  0  0  0  0  0  0  0  0
   -1.0037   -1.2331   -0.5105 N   0  0  0  0  0  0  0  0  0  0  0  0
   -1.7427   -0.8696   -1.1042 H   0  0  0  0  0  0  0  0  0  0  0  0
    0.2896   -0.5203   -0.4854 C   0  0  1  0  0  0  0  0  0  0  0  0
    1.0211   -1.1522   -1.0030 H   0  0  0  0  0  0  0  0  0  0  0  0
    0.1155    0.8063   -1.2683 C   0  0  0  0  0  0  0  0  0  0  0  0
   -0.8054    0.7738   -1.8589 H   0  0  0  0  0  0  0  0  0  0  0  0
    0.0144    1.6402   -0.5638 H   0  0  0  0  0  0  0  0  0  0  0  0
    1.2745    1.1002   -2.2402 C   0  0  0  0  0  0  0  0  0  0  0  0
    1.3376    0.3050   -2.9885 H   0  0  0  0  0  0  0  0  0  0  0  0
    1.0797    2.0366   -2.7706 H   0  0  0  0  0  0  0  0  0  0  0  0
    2.6183    1.2144   -1.5307 C   0  0  0  0  0  0  0  0  0  0  0  0
    2.8596    2.2429   -0.9215 O   0  0  0  0  0  0  0  0  0  0  0  0
    3.4572    0.1563   -1.5940 O   0  0  0  0  0  0  0  0  0  0  0  0
    4.1575    0.3405   -0.9481 H   0  0  0  0  0  0  0  0  0  0  0  0
    0.8526   -0.2679    0.9362 C   0  0  0  0  0  0  0  0  0  0  0  0
    2.0584   -0.3159    1.1419 O   0  0  0  0  0  0  0  0  0  0  0  0
    0.0182    0.1973    1.9363 N   0  0  0  0  0  0  0  0  0  0  0  0
   -0.9777    0.1157    1.7633 H   0  0  0  0  0  0  0  0  0  0  0  0
    0.4791    0.4440    3.2969 C   0  0  0  0  0  0  0  0  0  0  0  0
    1.2870    1.1836    3.2997 H   0  0  0  0  0  0  0  0  0  0  0  0
   -0.3407    0.8285    3.9111 H   0  0  0  0  0  0  0  0  0  0  0  0
    0.8483   -0.4827    3.7488 H   0  0  0  0  0  0  0  0  0  0  0  0
  1  2  1  0  0  0  0
  2  3  1  0  0  0  0
  2  4  1  0  0  0  0
  2  5  1  0  0  0  0
  5  6  2  0  0  0  0
  5  7  1  0  0  0  0
  7  8  1  0  0  0  0
  7  9  1  0  0  0  0
  9 10  1  0  0  0  0
  9 11  1  0  0  0  0
  9 21  1  0  0  0  0
 11 12  1  0  0  0  0
 11 13  1  0  0  0  0
 11 14  1  0  0  0  0
 14 15  1  0  0  0  0
 14 16  1  0  0  0  0
 14 17  1  0  0  0  0
 17 18  2  0  0  0  0
 17 19  1  0  0  0  0
 19 20  1  0  0  0  0
 21 22  2  0  0  0  0
 21 23  1  0  0  0  0
 23 24  1  0  0  0  0
 23 25  1  0  0  0  0
 25 26  1  0  0  0  0
 25 27  1  0  0  0  0
 25 28  1  0  0  0  0
M  END
$$$$

  -OEChem-02102214123D

 28 27  0     1  0  0  0  0  0999 V2000
   -2.5334   -4.1915    0.2098 H   0  0  0  0  0  0  0  0  0  0  0  0
   -2.5422   -3.1961   -0.2440 C   0  0  0  0  0  0  0  0  0  0  0  0
   -3.3592   -2.6176    0.1935 H   0  0  0  0  0  0  0  0  0  0  0  0
   -2.7123   -3.3025   -1.3180 H   0  0  0  0  0  0  0  0  0  0  0  0
   -1.2188   -2.4977    0.0056 C   0  0  0  0  0  0  0  0  0  0  0  0
   -0.3565   -3.0514    0.6622 O   0  0  0  0  0  0  0  0  0  0  0  0
   -1.0055   -1.2329   -0.5083 N   0  0  0  0  0  0  0  0  0  0  0  0
   -1.7270   -0.8714   -1.1241 H   0  0  0  0  0  0  0  0  0  0  0  0
    0.2918   -0.5280   -0.4609 C   0  0  1  0  0  0  0  0  0  0  0  0
    1.0159   -1.1751   -0.9670 H   0  0  0  0  0  0  0  0  0  0  0  0
    0.1427    0.7968   -1.2550 C   0  0  0  0  0  0  0  0  0  0  0  0
   -0.7773    0.7794   -1.8476 H   0  0  0  0  0  0  0  0  0  0  0  0
    0.0451    1.6240   -0.5426 H   0  0  0  0  0  0  0  0  0  0  0  0
    1.3056    1.1197   -2.2193 C   0  0  0  0  0  0  0  0  0  0  0  0
    1.2238    0.4769   -3.1001 H   0  0  0  0  0  0  0  0  0  0  0  0
    1.2174    2.1550   -2.5613 H   0  0  0  0  0  0  0  0  0  0  0  0
    2.6953    0.9105   -1.6239 C   0  0  0  0  0  0  0  0  0  0  0  0
    3.2158    1.8543   -1.0546 O   0  0  0  0  0  0  0  0  0  0  0  0
    3.2791   -0.3013   -1.7649 O   0  0  0  0  0  0  0  0  0  0  0  0
    4.0714   -0.2721   -1.2050 H   0  0  0  0  0  0  0  0  0  0  0  0
    0.8409   -0.2814    0.9660 C   0  0  0  0  0  0  0  0  0  0  0  0
    2.0441   -0.3396    1.1816 O   0  0  0  0  0  0  0  0  0  0  0  0
   -0.0003    0.1869    1.9591 N   0  0  0  0  0  0  0  0  0  0  0  0
   -0.9947    0.0996    1.7796 H   0  0  0  0  0  0  0  0  0  0  0  0
    0.4489    0.4149    3.3270 C   0  0  0  0  0  0  0  0  0  0  0  0
    1.2701    1.1393    3.3456 H   0  0  0  0  0  0  0  0  0  0  0  0
   -0.3708    0.8102    3.9343 H   0  0  0  0  0  0  0  0  0  0  0  0
    0.7959   -0.5218    3.7760 H   0  0  0  0  0  0  0  0  0  0  0  0
  1  2  1  0  0  0  0
  2  3  1  0  0  0  0
  2  4  1  0  0  0  0
  2  5  1  0  0  0  0
  5  6  2  0  0  0  0
  5  7  1  0  0  0  0
  7  8  1  0  0  0  0
  7  9  1  0  0  0  0
  9 10  1  0  0  0  0
  9 11  1  0  0  0  0
  9 21  1  0  0  0  0
 11 12  1  0  0  0  0
 11 13  1  0  0  0  0
 11 14  1  0  0  0  0
 14 15  1  0  0  0  0
 14 16  1  0  0  0  0
 14 17  1  0  0  0  0
 17 18  2  0  0  0  0
 17 19  1  0  0  0  0
 19 20  1  0  0  0  0
 21 22  2  0  0  0  0
 21 23  1  0  0  0  0
 23 24  1  0  0  0  0
 23 25  1  0  0  0  0
 25 26  1  0  0  0  0
 25 27  1  0  0  0  0
 25 28  1  0  0  0  0
M  END
$$$$

  -OEChem-02102214123D

 28 27  0     1  0  0  0  0  0999 V2000
   -2.5890   -4.1802    0.1784 H   0  0  0  0  0  0  0  0  0  0  0  0
   -2.5728   -3.1908   -0.2876 C   0  0  0  0  0  0  0  0  0  0  0  0
   -3.4014   -2.6012    0.1116 H   0  0  0  0  0  0  0  0  0  0  0  0
   -2.7032   -3.3093   -1.3659 H   0  0  0  0  0  0  0  0  0  0  0  0
   -1.2544   -2.4991    0.0039 C   0  0  0  0  0  0  0  0  0  0  0  0
   -0.4199   -3.0534    0.6952 O   0  0  0  0  0  0  0  0  0  0  0  0
   -1.0161   -1.2372   -0.5062 N   0  0  0  0  0  0  0  0  0  0  0  0
   -1.7091   -0.8798   -1.1561 H   0  0  0  0  0  0  0  0  0  0  0  0
    0.2889   -0.5493   -0.4298 C   0  0  1  0  0  0  0  0  0  0  0  0
    1.0045   -1.2182   -0.9149 H   0  0  0  0  0  0  0  0  0  0  0  0
    0.1786    0.7754   -1.2314 C   0  0  0  0  0  0  0  0  0  0  0  0
   -0.7359    0.7750   -1.8328 H   0  0  0  0  0  0  0  0  0  0  0  0
    0.0785    1.5971   -0.5133 H   0  0  0  0  0  0  0  0  0  0  0  0
    1.3520    1.1202   -2.1820 C   0  0  0  0  0  0  0  0  0  0  0  0
    1.1374    0.6849   -3.1619 H   0  0  0  0  0  0  0  0  0  0  0  0
    1.3982    2.2054   -2.3153 H   0  0  0  0  0  0  0  0  0  0  0  0
    2.7337    0.6123   -1.7714 C   0  0  0  0  0  0  0  0  0  0  0  0
    3.4790    1.3974   -1.2123 O   0  0  0  0  0  0  0  0  0  0  0  0
    3.0838   -0.6537   -2.0962 O   0  0  0  0  0  0  0  0  0  0  0  0
    3.9530   -0.7913   -1.6869 H   0  0  0  0  0  0  0  0  0  0  0  0
    0.8203   -0.3036    1.0018 C   0  0  0  0  0  0  0  0  0  0  0  0
    2.0208   -0.3688    1.2262 O   0  0  0  0  0  0  0  0  0  0  0  0
   -0.0269    0.1797    1.9823 N   0  0  0  0  0  0  0  0  0  0  0  0
   -1.0200    0.0941    1.7942 H   0  0  0  0  0  0  0  0  0  0  0  0
    0.4102    0.4039    3.3548 C   0  0  0  0  0  0  0  0  0  0  0  0
    1.2418    1.1160    3.3816 H   0  0  0  0  0  0  0  0  0  0  0  0
   -0.4106    0.8119    3.9523 H   0  0  0  0  0  0  0  0  0  0  0  0
    0.7385   -0.5368    3.8093 H   0  0  0  0  0  0  0  0  0  0  0  0
  1  2  1  0  0  0  0
  2  3  1  0  0  0  0
  2  4  1  0  0  0  0
  2  5  1  0  0  0  0
  5  6  2  0  0  0  0
  5  7  1  0  0  0  0
  7  8  1  0  0  0  0
  7  9  1  0  0  0  0
  9 10  1  0  0  0  0
  9 11  1  0  0  0  0
  9 21  1  0  0  0  0
 11 12  1  0  0  0  0
 11 13  1  0  0  0  0
 11 14  1  0  0  0  0
 14 15  1  0  0  0  0
 14 16  1  0  0  0  0
 14 17  1  0  0  0  0
 17 18  2  0  0  0  0
 17 19  1  0  0  0  0
 19 20  1  0  0  0  0
 21 22  2  0  0  0  0
 21 23  1  0  0  0  0
 23 24  1  0  0  0  0
 23 25  1  0  0  0  0
 25 26  1  0  0  0  0
 25 27  1  0  0  0  0
 25 28  1  0  0  0  0
M  END
$$$$

  -OEChem-02102214123D

 28 27  0     1  0  0  0  0  0999 V2000
   -2.6481   -4.1587    0.1584 H   0  0  0  0  0  0  0  0  0  0  0  0
   -2.6014   -3.1775   -0.3228 C   0  0  0  0  0  0  0  0  0  0  0  0
   -3.4403   -2.5727    0.0295 H   0  0  0  0  0  0  0  0  0  0  0  0
   -2.6853   -3.3129   -1.4038 H   0  0  0  0  0  0  0  0  0  0  0  0
   -1.2897   -2.4940    0.0135 C   0  0  0  0  0  0  0  0  0  0  0  0
   -0.4859   -3.0493    0.7394 O   0  0  0  0  0  0  0  0  0  0  0  0
   -1.0223   -1.2395   -0.4996 N   0  0  0  0  0  0  0  0  0  0  0  0
   -1.6850   -0.8899   -1.1845 H   0  0  0  0  0  0  0  0  0  0  0  0
    0.2932   -0.5747   -0.4046 C   0  0  1  0  0  0  0  0  0  0  0  0
    1.0034   -1.2625   -0.8677 H   0  0  0  0  0  0  0  0  0  0  0  0
    0.2202    0.7548   -1.2046 C   0  0  0  0  0  0  0  0  0  0  0  0
   -0.6877    0.7647   -1.8158 H   0  0  0  0  0  0  0  0  0  0  0  0
    0.1140    1.5752   -0.4858 H   0  0  0  0  0  0  0  0  0  0  0  0
    1.4021    1.1057   -2.1479 C   0  0  0  0  0  0  0  0  0  0  0  0
    1.0752    0.9369   -3.1776 H   0  0  0  0  0  0  0  0  0  0  0  0
    1.6193    2.1742   -2.0546 H   0  0  0  0  0  0  0  0  0  0  0  0
    2.7078    0.3291   -1.9781 C   0  0  0  0  0  0  0  0  0  0  0  0
    3.6436    0.8970   -1.4444 O   0  0  0  0  0  0  0  0  0  0  0  0
    2.7888   -0.9164   -2.5023 O   0  0  0  0  0  0  0  0  0  0  0  0
    3.6764   -1.2331   -2.2710 H   0  0  0  0  0  0  0  0  0  0  0  0
    0.8051   -0.3306    1.0338 C   0  0  0  0  0  0  0  0  0  0  0  0
    2.0031   -0.3907    1.2705 O   0  0  0  0  0  0  0  0  0  0  0  0
   -0.0506    0.1728    1.9967 N   0  0  0  0  0  0  0  0  0  0  0  0
   -1.0416    0.0818    1.8001 H   0  0  0  0  0  0  0  0  0  0  0  0
    0.3718    0.4158    3.3705 C   0  0  0  0  0  0  0  0  0  0  0  0
    1.2020    1.1297    3.3959 H   0  0  0  0  0  0  0  0  0  0  0  0
   -0.4558    0.8309    3.9535 H   0  0  0  0  0  0  0  0  0  0  0  0
    0.6966   -0.5180    3.8419 H   0  0  0  0  0  0  0  0  0  0  0  0
  1  2  1  0  0  0  0
  2  3  1  0  0  0  0
  2  4  1  0  0  0  0
  2  5  1  0  0  0  0
  5  6  2  0  0  0  0
  5  7  1  0  0  0  0
  7  8  1  0  0  0  0
  7  9  1  0  0  0  0
  9 10  1  0  0  0  0
  9 11  1  0  0  0  0
  9 21  1  0  0  0  0
 11 12  1  0  0  0  0
 11 13  1  0  0  0  0
 11 14  1  0  0  0  0
 14 15  1  0  0  0  0
 14 16  1  0  0  0  0
 14 17  1  0  0  0  0
 17 18  2  0  0  0  0
 17 19  1  0  0  0  0
 19 20  1  0  0  0  0
 21 22  2  0  0  0  0
 21 23  1  0  0  0  0
 23 24  1  0  0  0  0
 23 25  1  0  0  0  0
 25 26  1  0  0  0  0
 25 27  1  0  0  0  0
 25 28  1  0  0  0  0
M  END
$$$$

  -OEChem-02102214123D

 28 27  0     1  0  0  0  0  0999 V2000
   -2.6878   -4.1382    0.1693 H   0  0  0  0  0  0  0  0  0  0  0  0
   -2.6282   -3.1598   -0.3165 C   0  0  0  0  0  0  0  0  0  0  0  0
   -3.4587   -2.5423    0.0341 H   0  0  0  0  0  0  0  0  0  0  0  0
   -2.7154   -3.2997   -1.3966 H   0  0  0  0  0  0  0  0  0  0  0  0
   -1.3071   -2.4922    0.0162 C   0  0  0  0  0  0  0  0  0  0  0  0
   -0.5146   -3.0518    0.7511 O   0  0  0  0  0  0  0  0  0  0  0  0
   -1.0196   -1.2451   -0.5045 N   0  0  0  0  0  0  0  0  0  0  0  0
   -1.6715   -0.8925   -1.1981 H   0  0  0  0  0  0  0  0  0  0  0  0
    0.3027   -0.5943   -0.4015 C   0  0  1  0  0  0  0  0  0  0  0  0
    1.0132   -1.2933   -0.8457 H   0  0  0  0  0  0  0  0  0  0  0  0
    0.2600    0.7419   -1.1947 C   0  0  0  0  0  0  0  0  0  0  0  0
   -0.6351    0.7431   -1.8247 H   0  0  0  0  0  0  0  0  0  0  0  0
    0.1328    1.5671   -0.4851 H   0  0  0  0  0  0  0  0  0  0  0  0
    1.4513    1.0882   -2.1307 C   0  0  0  0  0  0  0  0  0  0  0  0
    1.0666    1.2306   -3.1443 H   0  0  0  0  0  0  0  0  0  0  0  0
    1.8648    2.0497   -1.8099 H   0  0  0  0  0  0  0  0  0  0  0  0
    2.6095    0.0956   -2.2261 C   0  0  0  0  0  0  0  0  0  0  0  0
    3.6938    0.4235   -1.7794 O   0  0  0  0  0  0  0  0  0  0  0  0
    2.3925   -1.0691   -2.8818 O   0  0  0  0  0  0  0  0  0  0  0  0
    3.2351   -1.5483   -2.8376 H   0  0  0  0  0  0  0  0  0  0  0  0
    0.7990   -0.3455    1.0414 C   0  0  0  0  0  0  0  0  0  0  0  0
    1.9955   -0.3904    1.2875 O   0  0  0  0  0  0  0  0  0  0  0  0
   -0.0643    0.1742    1.9890 N   0  0  0  0  0  0  0  0  0  0  0  0
   -1.0533    0.0791    1.7842 H   0  0  0  0  0  0  0  0  0  0  0  0
    0.3431    0.4230    3.3663 C   0  0  0  0  0  0  0  0  0  0  0  0
    1.1771    1.1321    3.3983 H   0  0  0  0  0  0  0  0  0  0  0  0
   -0.4887    0.8461    3.9372 H   0  0  0  0  0  0  0  0  0  0  0  0
    0.6565   -0.5101    3.8463 H   0  0  0  0  0  0  0  0  0  0  0  0
  1  2  1  0  0  0  0
  2  3  1  0  0  0  0
  2  4  1  0  0  0  0
  2  5  1  0  0  0  0
  5  6  2  0  0  0  0
  5  7  1  0  0  0  0
  7  8  1  0  0  0  0
  7  9  1  0  0  0  0
  9 10  1  0  0  0  0
  9 11  1  0  0  0  0
  9 21  1  0  0  0  0
 11 12  1  0  0  0  0
 11 13  1  0  0  0  0
 11 14  1  0  0  0  0
 14 15  1  0  0  0  0
 14 16  1  0  0  0  0
 14 17  1  0  0  0  0
 17 18  2  0  0  0  0
 17 19  1  0  0  0  0
 19 20  1  0  0  0  0
 21 22  2  0  0  0  0
 21 23  1  0  0  0  0
 23 24  1  0  0  0  0
 23 25  1  0  0  0  0
 25 26  1  0  0  0  0
 25 27  1  0  0  0  0
 25 28  1  0  0  0  0
M  END
$$$$

  -OEChem-02102214123D

 28 27  0     1  0  0  0  0  0999 V2000
   -2.7094   -4.1669    0.4150 H   0  0  0  0  0  0  0  0  0  0  0  0
   -2.6782   -3.2131   -0.1197 C   0  0  0  0  0  0  0  0  0  0  0  0
   -3.5159   -2.5956    0.2131 H   0  0  0  0  0  0  0  0  0  0  0  0
   -2.7789   -3.4083   -1.1902 H   0  0  0  0  0  0  0  0  0  0  0  0
   -1.3663   -2.5035    0.1571 C   0  0  0  0  0  0  0  0  0  0  0  0
   -0.5550   -3.0044    0.9140 O   0  0  0  0  0  0  0  0  0  0  0  0
   -1.1121   -1.2813   -0.4346 N   0  0  0  0  0  0  0  0  0  0  0  0
   -1.7729   -0.9990   -1.1520 H   0  0  0  0  0  0  0  0  0  0  0  0
    0.2183   -0.6401   -0.4437 C   0  0  1  0  0  0  0  0  0  0  0  0
    0.8947   -1.3652   -0.9008 H   0  0  0  0  0  0  0  0  0  0  0  0
    0.1373    0.6696   -1.2785 C   0  0  0  0  0  0  0  0  0  0  0  0
   -0.7865    0.6360   -1.8648 H   0  0  0  0  0  0  0  0  0  0  0  0
    0.0414    1.5293   -0.6058 H   0  0  0  0  0  0  0  0  0  0  0  0
    1.2731    0.9573   -2.2972 C   0  0  0  0  0  0  0  0  0  0  0  0
    0.8418    1.3668   -3.2148 H   0  0  0  0  0  0  0  0  0  0  0  0
    1.9103    1.7371   -1.8693 H   0  0  0  0  0  0  0  0  0  0  0  0
    2.1930   -0.2010   -2.6741 C   0  0  0  0  0  0  0  0  0  0  0  0
    1.7133   -1.1316   -3.3013 O   0  0  0  0  0  0  0  0  0  0  0  0
    3.4929   -0.1306   -2.3095 O   0  0  0  0  0  0  0  0  0  0  0  0
    3.8991   -0.9665   -2.5831 H   0  0  0  0  0  0  0  0  0  0  0  0
    0.8175   -0.3334    0.9476 C   0  0  0  0  0  0  0  0  0  0  0  0
    2.0313   -0.3541    1.0999 O   0  0  0  0  0  0  0  0  0  0  0  0
    0.0264    0.2357    1.9289 N   0  0  0  0  0  0  0  0  0  0  0  0
   -0.9740    0.1171    1.8071 H   0  0  0  0  0  0  0  0  0  0  0  0
    0.5346    0.5471    3.2590 C   0  0  0  0  0  0  0  0  0  0  0  0
    1.3702    1.2523    3.1957 H   0  0  0  0  0  0  0  0  0  0  0  0
   -0.2525    1.0015    3.8683 H   0  0  0  0  0  0  0  0  0  0  0  0
    0.8803   -0.3642    3.7586 H   0  0  0  0  0  0  0  0  0  0  0  0
  1  2  1  0  0  0  0
  2  3  1  0  0  0  0
  2  4  1  0  0  0  0
  2  5  1  0  0  0  0
  5  6  2  0  0  0  0
  5  7  1  0  0  0  0
  7  8  1  0  0  0  0
  7  9  1  0  0  0  0
  9 10  1  0  0  0  0
  9 11  1  0  0  0  0
  9 21  1  0  0  0  0
 11 12  1  0  0  0  0
 11 13  1  0  0  0  0
 11 14  1  0  0  0  0
 14 15  1  0  0  0  0
 14 16  1  0  0  0  0
 14 17  1  0  0  0  0
 17 18  2  0  0  0  0
 17 19  1  0  0  0  0
 19 20  1  0  0  0  0
 21 22  2  0  0  0  0
 21 23  1  0  0  0  0
 23 24  1  0  0  0  0
 23 25  1  0  0  0  0
 25 26  1  0  0  0  0
 25 27  1  0  0  0  0
 25 28  1  0  0  0  0
M  END
$$$$

  -OEChem-02102214123D

 28 27  0     1  0  0  0  0  0999 V2000
   -2.6688   -4.1943    0.3485 H   0  0  0  0  0  0  0  0  0  0  0  0
   -2.6547   -3.2242   -0.1565 C   0  0  0  0  0  0  0  0  0  0  0  0
   -3.5013   -2.6309    0.1971 H   0  0  0  0  0  0  0  0  0  0  0  0
   -2.7552   -3.3877   -1.2323 H   0  0  0  0  0  0  0  0  0  0  0  0
   -1.3542   -2.5014    0.1388 C   0  0  0  0  0  0  0  0  0  0  0  0
   -0.5427   -3.0005    0.8971 O   0  0  0  0  0  0  0  0  0  0  0  0
   -1.1110   -1.2705   -0.4391 N   0  0  0  0  0  0  0  0  0  0  0  0
   -1.7655   -0.9970   -1.1659 H   0  0  0  0  0  0  0  0  0  0  0  0
    0.2144   -0.6197   -0.4439 C   0  0  1  0  0  0  0  0  0  0  0  0
    0.9025   -1.3282   -0.9107 H   0  0  0  0  0  0  0  0  0  0  0  0
    0.1246    0.7029   -1.2557 C   0  0  0  0  0  0  0  0  0  0  0  0
   -0.7969    0.6734   -1.8460 H   0  0  0  0  0  0  0  0  0  0  0  0
    0.0299    1.5559   -0.5746 H   0  0  0  0  0  0  0  0  0  0  0  0
    1.2662    0.9861   -2.2647 C   0  0  0  0  0  0  0  0  0  0  0  0
    0.8993    1.6419   -3.0589 H   0  0  0  0  0  0  0  0  0  0  0  0
    2.0496    1.5329   -1.7303 H   0  0  0  0  0  0  0  0  0  0  0  0
    1.9351   -0.2289   -2.9041 C   0  0  0  0  0  0  0  0  0  0  0  0
    1.2224   -1.0506   -3.4584 O   0  0  0  0  0  0  0  0  0  0  0  0
    3.2824   -0.3250   -2.8415 O   0  0  0  0  0  0  0  0  0  0  0  0
    3.5153   -1.1638   -3.2668 H   0  0  0  0  0  0  0  0  0  0  0  0
    0.8126   -0.3264    0.9508 C   0  0  0  0  0  0  0  0  0  0  0  0
    2.0275   -0.3264    1.0966 O   0  0  0  0  0  0  0  0  0  0  0  0
    0.0181    0.2242    1.9399 N   0  0  0  0  0  0  0  0  0  0  0  0
   -0.9811    0.0931    1.8205 H   0  0  0  0  0  0  0  0  0  0  0  0
    0.5265    0.5302    3.2712 C   0  0  0  0  0  0  0  0  0  0  0  0
    1.3503    1.2494    3.2115 H   0  0  0  0  0  0  0  0  0  0  0  0
   -0.2656    0.9650    3.8883 H   0  0  0  0  0  0  0  0  0  0  0  0
    0.8891   -0.3803    3.7601 H   0  0  0  0  0  0  0  0  0  0  0  0
  1  2  1  0  0  0  0
  2  3  1  0  0  0  0
  2  4  1  0  0  0  0
  2  5  1  0  0  0  0
  5  6  2  0  0  0  0
  5  7  1  0  0  0  0
  7  8  1  0  0  0  0
  7  9  1  0  0  0  0
  9 10  1  0  0  0  0
  9 11  1  0  0  0  0
  9 21  1  0  0  0  0
 11 12  1  0  0  0  0
 11 13  1  0  0  0  0
 11 14  1  0  0  0  0
 14 15  1  0  0  0  0
 14 16  1  0  0  0  0
 14 17  1  0  0  0  0
 17 18  2  0  0  0  0
 17 19  1  0  0  0  0
 19 20  1  0  0  0  0
 21 22  2  0  0  0  0
 21 23  1  0  0  0  0
 23 24  1  0  0  0  0
 23 25  1  0  0  0  0
 25 26  1  0  0  0  0
 25 27  1  0  0  0  0
 25 28  1  0  0  0  0
M  END
$$$$

  -OEChem-02102214123D

 28 27  0     1  0  0  0  0  0999 V2000
   -2.6372   -4.2044    0.2907 H   0  0  0  0  0  0  0  0  0  0  0  0
   -2.6283   -3.2312   -0.2084 C   0  0  0  0  0  0  0  0  0  0  0  0
   -3.4893   -2.6523    0.1341 H   0  0  0  0  0  0  0  0  0  0  0  0
   -2.7085   -3.3897   -1.2866 H   0  0  0  0  0  0  0  0  0  0  0  0
   -1.3432   -2.4918    0.1127 C   0  0  0  0  0  0  0  0  0  0  0  0
   -0.5316   -2.9897    0.8717 O   0  0  0  0  0  0  0  0  0  0  0  0
   -1.1119   -1.2506   -0.4474 N   0  0  0  0  0  0  0  0  0  0  0  0
   -1.7592   -0.9838   -1.1835 H   0  0  0  0  0  0  0  0  0  0  0  0
    0.2085   -0.5904   -0.4438 C   0  0  1  0  0  0  0  0  0  0  0  0
    0.9061   -1.2796   -0.9280 H   0  0  0  0  0  0  0  0  0  0  0  0
    0.1073    0.7398   -1.2370 C   0  0  0  0  0  0  0  0  0  0  0  0
   -0.8156    0.7295   -1.8260 H   0  0  0  0  0  0  0  0  0  0  0  0
    0.0295    1.5860   -0.5454 H   0  0  0  0  0  0  0  0  0  0  0  0
    1.2655    0.9991   -2.2279 C   0  0  0  0  0  0  0  0  0  0  0  0
    1.0094    1.8384   -2.8796 H   0  0  0  0  0  0  0  0  0  0  0  0
    2.1461    1.2913   -1.6473 H   0  0  0  0  0  0  0  0  0  0  0  0
    1.6685   -0.1898   -3.1005 C   0  0  0  0  0  0  0  0  0  0  0  0
    0.7898   -0.9119   -3.5458 O   0  0  0  0  0  0  0  0  0  0  0  0
    2.9846   -0.3688   -3.3543 O   0  0  0  0  0  0  0  0  0  0  0  0
    3.0499   -1.1671   -3.8993 H   0  0  0  0  0  0  0  0  0  0  0  0
    0.8086   -0.3127    0.9535 C   0  0  0  0  0  0  0  0  0  0  0  0
    2.0244   -0.3033    1.0940 O   0  0  0  0  0  0  0  0  0  0  0  0
    0.0141    0.2179    1.9535 N   0  0  0  0  0  0  0  0  0  0  0  0
   -0.9849    0.0822    1.8368 H   0  0  0  0  0  0  0  0  0  0  0  0
    0.5272    0.5140    3.2854 C   0  0  0  0  0  0  0  0  0  0  0  0
    1.3381    1.2481    3.2303 H   0  0  0  0  0  0  0  0  0  0  0  0
   -0.2672    0.9268    3.9143 H   0  0  0  0  0  0  0  0  0  0  0  0
    0.9089   -0.3967    3.7593 H   0  0  0  0  0  0  0  0  0  0  0  0
  1  2  1  0  0  0  0
  2  3  1  0  0  0  0
  2  4  1  0  0  0  0
  2  5  1  0  0  0  0
  5  6  2  0  0  0  0
  5  7  1  0  0  0  0
  7  8  1  0  0  0  0
  7  9  1  0  0  0  0
  9 10  1  0  0  0  0
  9 11  1  0  0  0  0
  9 21  1  0  0  0  0
 11 12  1  0  0  0  0
 11 13  1  0  0  0  0
 11 14  1  0  0  0  0
 14 15  1  0  0  0  0
 14 16  1  0  0  0  0
 14 17  1  0  0  0  0
 17 18  2  0  0  0  0
 17 19  1  0  0  0  0
 19 20  1  0  0  0  0
 21 22  2  0  0  0  0
 21 23  1  0  0  0  0
 23 24  1  0  0  0  0
 23 25  1  0  0  0  0
 25 26  1  0  0  0  0
 25 27  1  0  0  0  0
 25 28  1  0  0  0  0
M  END
$$$$

  -OEChem-02102214123D

 28 27  0     1  0  0  0  0  0999 V2000
   -2.6127   -4.2053    0.2367 H   0  0  0  0  0  0  0  0  0  0  0  0
   -2.6104   -3.2252   -0.2490 C   0  0  0  0  0  0  0  0  0  0  0  0
   -3.4792   -2.6594    0.0956 H   0  0  0  0  0  0  0  0  0  0  0  0
   -2.6821   -3.3696   -1.3298 H   0  0  0  0  0  0  0  0  0  0  0  0
   -1.3347   -2.4779    0.0905 C   0  0  0  0  0  0  0  0  0  0  0  0
   -0.5237   -2.9774    0.8492 O   0  0  0  0  0  0  0  0  0  0  0  0
   -1.1099   -1.2291   -0.4550 N   0  0  0  0  0  0  0  0  0  0  0  0
   -1.7519   -0.9633   -1.1964 H   0  0  0  0  0  0  0  0  0  0  0  0
    0.2064   -0.5624   -0.4422 C   0  0  1  0  0  0  0  0  0  0  0  0
    0.9098   -1.2359   -0.9429 H   0  0  0  0  0  0  0  0  0  0  0  0
    0.0975    0.7684   -1.2268 C   0  0  0  0  0  0  0  0  0  0  0  0
   -0.8292    0.7851   -1.8099 H   0  0  0  0  0  0  0  0  0  0  0  0
    0.0448    1.6098   -0.5271 H   0  0  0  0  0  0  0  0  0  0  0  0
    1.2776    0.9910   -2.1959 C   0  0  0  0  0  0  0  0  0  0  0  0
    1.1588    1.9566   -2.6939 H   0  0  0  0  0  0  0  0  0  0  0  0
    2.2054    1.0315   -1.6165 H   0  0  0  0  0  0  0  0  0  0  0  0
    1.4334   -0.0846   -3.2737 C   0  0  0  0  0  0  0  0  0  0  0  0
    0.4593   -0.7423   -3.6076 O   0  0  0  0  0  0  0  0  0  0  0  0
    2.6600   -0.2374   -3.8219 O   0  0  0  0  0  0  0  0  0  0  0  0
    2.5802   -0.9549   -4.4682 H   0  0  0  0  0  0  0  0  0  0  0  0
    0.8043   -0.2972    0.9585 C   0  0  0  0  0  0  0  0  0  0  0  0
    2.0201   -0.2822    1.1007 O   0  0  0  0  0  0  0  0  0  0  0  0
    0.0045    0.2179    1.9622 N   0  0  0  0  0  0  0  0  0  0  0  0
   -0.9931    0.0749    1.8415 H   0  0  0  0  0  0  0  0  0  0  0  0
    0.5118    0.4996    3.2992 C   0  0  0  0  0  0  0  0  0  0  0  0
    1.3182    1.2394    3.2558 H   0  0  0  0  0  0  0  0  0  0  0  0
   -0.2869    0.8990    3.9313 H   0  0  0  0  0  0  0  0  0  0  0  0
    0.8976   -0.4152    3.7616 H   0  0  0  0  0  0  0  0  0  0  0  0
  1  2  1  0  0  0  0
  2  3  1  0  0  0  0
  2  4  1  0  0  0  0
  2  5  1  0  0  0  0
  5  6  2  0  0  0  0
  5  7  1  0  0  0  0
  7  8  1  0  0  0  0
  7  9  1  0  0  0  0
  9 10  1  0  0  0  0
  9 11  1  0  0  0  0
  9 21  1  0  0  0  0
 11 12  1  0  0  0  0
 11 13  1  0  0  0  0
 11 14  1  0  0  0  0
 14 15  1  0  0  0  0
 14 16  1  0  0  0  0
 14 17  1  0  0  0  0
 17 18  2  0  0  0  0
 17 19  1  0  0  0  0
 19 20  1  0  0  0  0
 21 22  2  0  0  0  0
 21 23  1  0  0  0  0
 23 24  1  0  0  0  0
 23 25  1  0  0  0  0
 25 26  1  0  0  0  0
 25 27  1  0  0  0  0
 25 28  1  0  0  0  0
M  END
$$$$

  -OEChem-02102214123D

 28 27  0     1  0  0  0  0  0999 V2000
   -2.6315   -4.1882    0.2295 H   0  0  0  0  0  0  0  0  0  0  0  0
   -2.6184   -3.2117   -0.2631 C   0  0  0  0  0  0  0  0  0  0  0  0
   -3.4878   -2.6388    0.0679 H   0  0  0  0  0  0  0  0  0  0  0  0
   -2.6786   -3.3631   -1.3436 H   0  0  0  0  0  0  0  0  0  0  0  0
   -1.3428   -2.4687    0.0853 C   0  0  0  0  0  0  0  0  0  0  0  0
   -0.5386   -2.9713    0.8493 O   0  0  0  0  0  0  0  0  0  0  0  0
   -1.1112   -1.2198   -0.4569 N   0  0  0  0  0  0  0  0  0  0  0  0
   -1.7450   -0.9529   -1.2051 H   0  0  0  0  0  0  0  0  0  0  0  0
    0.2070   -0.5576   -0.4348 C   0  0  1  0  0  0  0  0  0  0  0  0
    0.9102   -1.2285   -0.9411 H   0  0  0  0  0  0  0  0  0  0  0  0
    0.1036    0.7697   -1.2212 C   0  0  0  0  0  0  0  0  0  0  0  0
   -0.8263    0.8124   -1.7982 H   0  0  0  0  0  0  0  0  0  0  0  0
    0.0732    1.6085   -0.5171 H   0  0  0  0  0  0  0  0  0  0  0  0
    1.3021    0.9605   -2.1733 C   0  0  0  0  0  0  0  0  0  0  0  0
    1.3321    2.0047   -2.4958 H   0  0  0  0  0  0  0  0  0  0  0  0
    2.2343    0.7582   -1.6365 H   0  0  0  0  0  0  0  0  0  0  0  0
    1.2563    0.0906   -3.4328 C   0  0  0  0  0  0  0  0  0  0  0  0
    0.2793   -0.6085   -3.6565 O   0  0  0  0  0  0  0  0  0  0  0  0
    2.3268    0.1574   -4.2561 O   0  0  0  0  0  0  0  0  0  0  0  0
    2.1433   -0.4517   -4.9872 H   0  0  0  0  0  0  0  0  0  0  0  0
    0.7981   -0.2963    0.9695 C   0  0  0  0  0  0  0  0  0  0  0  0
    2.0128   -0.2896    1.1207 O   0  0  0  0  0  0  0  0  0  0  0  0
   -0.0066    0.2202    1.9684 N   0  0  0  0  0  0  0  0  0  0  0  0
   -1.0040    0.0826    1.8398 H   0  0  0  0  0  0  0  0  0  0  0  0
    0.4923    0.4989    3.3090 C   0  0  0  0  0  0  0  0  0  0  0  0
    1.2964    1.2414    3.2730 H   0  0  0  0  0  0  0  0  0  0  0  0
   -0.3115    0.8932    3.9378 H   0  0  0  0  0  0  0  0  0  0  0  0
    0.8785   -0.4163    3.7701 H   0  0  0  0  0  0  0  0  0  0  0  0
  1  2  1  0  0  0  0
  2  3  1  0  0  0  0
  2  4  1  0  0  0  0
  2  5  1  0  0  0  0
  5  6  2  0  0  0  0
  5  7  1  0  0  0  0
  7  8  1  0  0  0  0
  7  9  1  0  0  0  0
  9 10  1  0  0  0  0
  9 11  1  0  0  0  0
  9 21  1  0  0  0  0
 11 12  1  0  0  0  0
 11 13  1  0  0  0  0
 11 14  1  0  0  0  0
 14 15  1  0  0  0  0
 14 16  1  0  0  0  0
 14 17  1  0  0  0  0
 17 18  2  0  0  0  0
 17 19  1  0  0  0  0
 19 20  1  0  0  0  0
 21 22  2  0  0  0  0
 21 23  1  0  0  0  0
 23 24  1  0  0  0  0
 23 25  1  0  0  0  0
 25 26  1  0  0  0  0
 25 27  1  0  0  0  0
 25 28  1  0  0  0  0
M  END
$$$$

  -OEChem-02102214123D

 28 27  0     1  0  0  0  0  0999 V2000
   -2.6400   -4.1913    0.2016 H   0  0  0  0  0  0  0  0  0  0  0  0
   -2.6381   -3.2003   -0.2615 C   0  0  0  0  0  0  0  0  0  0  0  0
   -3.5024   -2.6397    0.1025 H   0  0  0  0  0  0  0  0  0  0  0  0
   -2.7177   -3.3202   -1.3448 H   0  0  0  0  0  0  0  0  0  0  0  0
   -1.3579   -2.4648    0.0871 C   0  0  0  0  0  0  0  0  0  0  0  0
   -0.5587   -2.9707    0.8541 O   0  0  0  0  0  0  0  0  0  0  0  0
   -1.1164   -1.2183   -0.4564 N   0  0  0  0  0  0  0  0  0  0  0  0
   -1.7481   -0.9454   -1.2042 H   0  0  0  0  0  0  0  0  0  0  0  0
    0.2047   -0.5623   -0.4269 C   0  0  1  0  0  0  0  0  0  0  0  0
    0.9040   -1.2418   -0.9277 H   0  0  0  0  0  0  0  0  0  0  0  0
    0.1159    0.7567   -1.2275 C   0  0  0  0  0  0  0  0  0  0  0  0
   -0.8134    0.8110   -1.8043 H   0  0  0  0  0  0  0  0  0  0  0  0
    0.0929    1.5991   -0.5270 H   0  0  0  0  0  0  0  0  0  0  0  0
    1.3298    0.9262   -2.1669 C   0  0  0  0  0  0  0  0  0  0  0  0
    1.5133    1.9961   -2.2989 H   0  0  0  0  0  0  0  0  0  0  0  0
    2.2305    0.5008   -1.7133 H   0  0  0  0  0  0  0  0  0  0  0  0
    1.1315    0.3284   -3.5618 C   0  0  0  0  0  0  0  0  0  0  0  0
    0.2149   -0.4543   -3.7631 O   0  0  0  0  0  0  0  0  0  0  0  0
    2.0074    0.7096   -4.5192 O   0  0  0  0  0  0  0  0  0  0  0  0
    1.7525    0.2312   -5.3225 H   0  0  0  0  0  0  0  0  0  0  0  0
    0.7910   -0.2985    0.9790 C   0  0  0  0  0  0  0  0  0  0  0  0
    2.0052   -0.2978    1.1345 O   0  0  0  0  0  0  0  0  0  0  0  0
   -0.0140    0.2256    1.9738 N   0  0  0  0  0  0  0  0  0  0  0  0
   -1.0122    0.0993    1.8404 H   0  0  0  0  0  0  0  0  0  0  0  0
    0.4814    0.5068    3.3154 C   0  0  0  0  0  0  0  0  0  0  0  0
    1.2977    1.2360    3.2785 H   0  0  0  0  0  0  0  0  0  0  0  0
   -0.3196    0.9192    3.9363 H   0  0  0  0  0  0  0  0  0  0  0  0
    0.8502   -0.4107    3.7863 H   0  0  0  0  0  0  0  0  0  0  0  0
  1  2  1  0  0  0  0
  2  3  1  0  0  0  0
  2  4  1  0  0  0  0
  2  5  1  0  0  0  0
  5  6  2  0  0  0  0
  5  7  1  0  0  0  0
  7  8  1  0  0  0  0
  7  9  1  0  0  0  0
  9 10  1  0  0  0  0
  9 11  1  0  0  0  0
  9 21  1  0  0  0  0
 11 12  1  0  0  0  0
 11 13  1  0  0  0  0
 11 14  1  0  0  0  0
 14 15  1  0  0  0  0
 14 16  1  0  0  0  0
 14 17  1  0  0  0  0
 17 18  2  0  0  0  0
 17 19  1  0  0  0  0
 19 20  1  0  0  0  0
 21 22  2  0  0  0  0
 21 23  1  0  0  0  0
 23 24  1  0  0  0  0
 23 25  1  0  0  0  0
 25 26  1  0  0  0  0
 25 27  1  0  0  0  0
 25 28  1  0  0  0  0
M  END
$$$$

  -OEChem-02102214123D

 28 27  0     1  0  0  0  0  0999 V2000
   -2.6923   -4.1640    0.2442 H   0  0  0  0  0  0  0  0  0  0  0  0
   -2.6641   -3.1865   -0.2458 C   0  0  0  0  0  0  0  0  0  0  0  0
   -3.5189   -2.5973    0.0946 H   0  0  0  0  0  0  0  0  0  0  0  0
   -2.7380   -3.3337   -1.3261 H   0  0  0  0  0  0  0  0  0  0  0  0
   -1.3706   -2.4700    0.0931 C   0  0  0  0  0  0  0  0  0  0  0  0
   -0.5744   -2.9836    0.8581 O   0  0  0  0  0  0  0  0  0  0  0  0
   -1.1142   -1.2292   -0.4562 N   0  0  0  0  0  0  0  0  0  0  0  0
   -1.7503   -0.9433   -1.1953 H   0  0  0  0  0  0  0  0  0  0  0  0
    0.2109   -0.5811   -0.4229 C   0  0  1  0  0  0  0  0  0  0  0  0
    0.9058   -1.2722   -0.9134 H   0  0  0  0  0  0  0  0  0  0  0  0
    0.1356    0.7312   -1.2354 C   0  0  0  0  0  0  0  0  0  0  0  0
   -0.7937    0.7829   -1.8120 H   0  0  0  0  0  0  0  0  0  0  0  0
    0.1090    1.5786   -0.5412 H   0  0  0  0  0  0  0  0  0  0  0  0
    1.3541    0.8982   -2.1732 C   0  0  0  0  0  0  0  0  0  0  0  0
    1.7001    1.9332   -2.0983 H   0  0  0  0  0  0  0  0  0  0  0  0
    2.1893    0.2653   -1.8588 H   0  0  0  0  0  0  0  0  0  0  0  0
    1.0418    0.6299   -3.6458 C   0  0  0  0  0  0  0  0  0  0  0  0
    0.1840   -0.1899   -3.9360 O   0  0  0  0  0  0  0  0  0  0  0  0
    1.7481    1.3264   -4.5655 O   0  0  0  0  0  0  0  0  0  0  0  0
    1.4372    1.0200   -5.4308 H   0  0  0  0  0  0  0  0  0  0  0  0
    0.7916   -0.3106    0.9838 C   0  0  0  0  0  0  0  0  0  0  0  0
    2.0053   -0.3093    1.1434 O   0  0  0  0  0  0  0  0  0  0  0  0
   -0.0159    0.2255    1.9701 N   0  0  0  0  0  0  0  0  0  0  0  0
   -1.0137    0.0946    1.8375 H   0  0  0  0  0  0  0  0  0  0  0  0
    0.4769    0.5227    3.3091 C   0  0  0  0  0  0  0  0  0  0  0  0
    1.2890    1.2560    3.2651 H   0  0  0  0  0  0  0  0  0  0  0  0
   -0.3267    0.9368    3.9254 H   0  0  0  0  0  0  0  0  0  0  0  0
    0.8503   -0.3881    3.7891 H   0  0  0  0  0  0  0  0  0  0  0  0
  1  2  1  0  0  0  0
  2  3  1  0  0  0  0
  2  4  1  0  0  0  0
  2  5  1  0  0  0  0
  5  6  2  0  0  0  0
  5  7  1  0  0  0  0
  7  8  1  0  0  0  0
  7  9  1  0  0  0  0
  9 10  1  0  0  0  0
  9 11  1  0  0  0  0
  9 21  1  0  0  0  0
 11 12  1  0  0  0  0
 11 13  1  0  0  0  0
 11 14  1  0  0  0  0
 14 15  1  0  0  0  0
 14 16  1  0  0  0  0
 14 17  1  0  0  0  0
 17 18  2  0  0  0  0
 17 19  1  0  0  0  0
 19 20  1  0  0  0  0
 21 22  2  0  0  0  0
 21 23  1  0  0  0  0
 23 24  1  0  0  0  0
 23 25  1  0  0  0  0
 25 26  1  0  0  0  0
 25 27  1  0  0  0  0
 25 28  1  0  0  0  0
M  END
$$$$

  -OEChem-02102214123D

 28 27  0     1  0  0  0  0  0999 V2000
   -2.7269   -4.1481    0.2852 H   0  0  0  0  0  0  0  0  0  0  0  0
   -2.6875   -3.1782   -0.2187 C   0  0  0  0  0  0  0  0  0  0  0  0
   -3.5292   -2.5704    0.1217 H   0  0  0  0  0  0  0  0  0  0  0  0
   -2.7741   -3.3389   -1.2962 H   0  0  0  0  0  0  0  0  0  0  0  0
   -1.3793   -2.4784    0.0981 C   0  0  0  0  0  0  0  0  0  0  0  0
   -0.5771   -3.0014    0.8502 O   0  0  0  0  0  0  0  0  0  0  0  0
   -1.1140   -1.2427   -0.4585 N   0  0  0  0  0  0  0  0  0  0  0  0
   -1.7617   -0.9404   -1.1809 H   0  0  0  0  0  0  0  0  0  0  0  0
    0.2136   -0.5985   -0.4257 C   0  0  1  0  0  0  0  0  0  0  0  0
    0.9051   -1.3012   -0.9034 H   0  0  0  0  0  0  0  0  0  0  0  0
    0.1511    0.7090   -1.2492 C   0  0  0  0  0  0  0  0  0  0  0  0
   -0.7732    0.7349   -1.8355 H   0  0  0  0  0  0  0  0  0  0  0  0
    0.1022    1.5681   -0.5708 H   0  0  0  0  0  0  0  0  0  0  0  0
    1.3710    0.8789   -2.1886 C   0  0  0  0  0  0  0  0  0  0  0  0
    1.8944    1.7985   -1.9109 H   0  0  0  0  0  0  0  0  0  0  0  0
    2.0893    0.0637   -2.0668 H   0  0  0  0  0  0  0  0  0  0  0  0
    0.9956    0.9704   -3.6668 C   0  0  0  0  0  0  0  0  0  0  0  0
    0.1727    0.1892   -4.1176 O   0  0  0  0  0  0  0  0  0  0  0  0
    1.6016    1.9263   -4.4080 O   0  0  0  0  0  0  0  0  0  0  0  0
    1.2573    1.8268   -5.3084 H   0  0  0  0  0  0  0  0  0  0  0  0
    0.7920   -0.3187    0.9802 C   0  0  0  0  0  0  0  0  0  0  0  0
    2.0052   -0.3226    1.1429 O   0  0  0  0  0  0  0  0  0  0  0  0
   -0.0142    0.2279    1.9619 N   0  0  0  0  0  0  0  0  0  0  0  0
   -1.0128    0.1059    1.8283 H   0  0  0  0  0  0  0  0  0  0  0  0
    0.4796    0.5390    3.2976 C   0  0  0  0  0  0  0  0  0  0  0  0
    1.2868    1.2773    3.2457 H   0  0  0  0  0  0  0  0  0  0  0  0
   -0.3252    0.9527    3.9125 H   0  0  0  0  0  0  0  0  0  0  0  0
    0.8604   -0.3652    3.7841 H   0  0  0  0  0  0  0  0  0  0  0  0
  1  2  1  0  0  0  0
  2  3  1  0  0  0  0
  2  4  1  0  0  0  0
  2  5  1  0  0  0  0
  5  6  2  0  0  0  0
  5  7  1  0  0  0  0
  7  8  1  0  0  0  0
  7  9  1  0  0  0  0
  9 10  1  0  0  0  0
  9 11  1  0  0  0  0
  9 21  1  0  0  0  0
 11 12  1  0  0  0  0
 11 13  1  0  0  0  0
 11 14  1  0  0  0  0
 14 15  1  0  0  0  0
 14 16  1  0  0  0  0
 14 17  1  0  0  0  0
 17 18  2  0  0  0  0
 17 19  1  0  0  0  0
 19 20  1  0  0  0  0
 21 22  2  0  0  0  0
 21 23  1  0  0  0  0
 23 24  1  0  0  0  0
 23 25  1  0  0  0  0
 25 26  1  0  0  0  0
 25 27  1  0  0  0  0
 25 28  1  0  0  0  0
M  END
$$$$

  -OEChem-02102214123D

 28 27  0     1  0  0  0  0  0999 V2000
   -2.6310   -4.2161    0.2825 H   0  0  0  0  0  0  0  0  0  0  0  0
   -2.6436   -3.2235   -0.1767 C   0  0  0  0  0  0  0  0  0  0  0  0
   -3.4664   -2.6474    0.2531 H   0  0  0  0  0  0  0  0  0  0  0  0
   -2.8082   -3.3368   -1.2510 H   0  0  0  0  0  0  0  0  0  0  0  0
   -1.3258   -2.5154    0.0757 C   0  0  0  0  0  0  0  0  0  0  0  0
   -0.4685   -3.0505    0.7546 O   0  0  0  0  0  0  0  0  0  0  0  0
   -1.1081   -1.2616   -0.4610 N   0  0  0  0  0  0  0  0  0  0  0  0
   -1.8174   -0.9200   -1.1033 H   0  0  0  0  0  0  0  0  0  0  0  0
    0.1959   -0.5693   -0.4380 C   0  0  1  0  0  0  0  0  0  0  0  0
    0.9064   -1.2399   -0.9325 H   0  0  0  0  0  0  0  0  0  0  0  0
    0.0809    0.7524   -1.2348 C   0  0  0  0  0  0  0  0  0  0  0  0
   -0.8499    0.7214   -1.8075 H   0  0  0  0  0  0  0  0  0  0  0  0
   -0.0086    1.6051   -0.5526 H   0  0  0  0  0  0  0  0  0  0  0  0
    1.2826    0.9866   -2.1914 C   0  0  0  0  0  0  0  0  0  0  0  0
    1.9524    1.7198   -1.7327 H   0  0  0  0  0  0  0  0  0  0  0  0
    1.8599    0.0663   -2.3096 H   0  0  0  0  0  0  0  0  0  0  0  0
    0.9419    1.4625   -3.6080 C   0  0  0  0  0  0  0  0  0  0  0  0
   -0.2184    1.5379   -3.9790 O   0  0  0  0  0  0  0  0  0  0  0  0
    1.9926    1.7789   -4.3983 O   0  0  0  0  0  0  0  0  0  0  0  0
    1.6163    2.0555   -5.2474 H   0  0  0  0  0  0  0  0  0  0  0  0
    0.7809   -0.2953    0.9656 C   0  0  0  0  0  0  0  0  0  0  0  0
    1.9950   -0.2685    1.1174 O   0  0  0  0  0  0  0  0  0  0  0  0
   -0.0316    0.2029    1.9677 N   0  0  0  0  0  0  0  0  0  0  0  0
   -1.0291    0.0713    1.8357 H   0  0  0  0  0  0  0  0  0  0  0  0
    0.4656    0.5048    3.3043 C   0  0  0  0  0  0  0  0  0  0  0  0
    1.2645    1.2525    3.2570 H   0  0  0  0  0  0  0  0  0  0  0  0
   -0.3407    0.9030    3.9275 H   0  0  0  0  0  0  0  0  0  0  0  0
    0.8590   -0.4004    3.7790 H   0  0  0  0  0  0  0  0  0  0  0  0
  1  2  1  0  0  0  0
  2  3  1  0  0  0  0
  2  4  1  0  0  0  0
  2  5  1  0  0  0  0
  5  6  2  0  0  0  0
  5  7  1  0  0  0  0
  7  8  1  0  0  0  0
  7  9  1  0  0  0  0
  9 10  1  0  0  0  0
  9 11  1  0  0  0  0
  9 21  1  0  0  0  0
 11 12  1  0  0  0  0
 11 13  1  0  0  0  0
 11 14  1  0  0  0  0
 14 15  1  0  0  0  0
 14 16  1  0  0  0  0
 14 17  1  0  0  0  0
 17 18  2  0  0  0  0
 17 19  1  0  0  0  0
 19 20  1  0  0  0  0
 21 22  2  0  0  0  0
 21 23  1  0  0  0  0
 23 24  1  0  0  0  0
 23 25  1  0  0  0  0
 25 26  1  0  0  0  0
 25 27  1  0  0  0  0
 25 28  1  0  0  0  0
M  END
$$$$

  -OEChem-02102214123D

 28 27  0     1  0  0  0  0  0999 V2000
   -2.6109   -4.2048    0.2705 H   0  0  0  0  0  0  0  0  0  0  0  0
   -2.6108   -3.2242   -0.2146 C   0  0  0  0  0  0  0  0  0  0  0  0
   -3.4342   -2.6315    0.1910 H   0  0  0  0  0  0  0  0  0  0  0  0
   -2.7639   -3.3636   -1.2875 H   0  0  0  0  0  0  0  0  0  0  0  0
   -1.2900   -2.5201    0.0338 C   0  0  0  0  0  0  0  0  0  0  0  0
   -0.4257   -3.0664    0.6945 O   0  0  0  0  0  0  0  0  0  0  0  0
   -1.0764   -1.2584   -0.4863 N   0  0  0  0  0  0  0  0  0  0  0  0
   -1.7989   -0.8942   -1.1005 H   0  0  0  0  0  0  0  0  0  0  0  0
    0.2196   -0.5526   -0.4363 C   0  0  1  0  0  0  0  0  0  0  0  0
    0.9475   -1.2063   -0.9287 H   0  0  0  0  0  0  0  0  0  0  0  0
    0.1071    0.7775   -1.2162 C   0  0  0  0  0  0  0  0  0  0  0  0
   -0.7953    0.7329   -1.8350 H   0  0  0  0  0  0  0  0  0  0  0  0
   -0.0177    1.6253   -0.5331 H   0  0  0  0  0  0  0  0  0  0  0  0
    1.3199    1.0261   -2.1439 C   0  0  0  0  0  0  0  0  0  0  0  0
    2.1137    1.5252   -1.5806 H   0  0  0  0  0  0  0  0  0  0  0  0
    1.7212    0.0711   -2.4935 H   0  0  0  0  0  0  0  0  0  0  0  0
    0.9977    1.8443   -3.3958 C   0  0  0  0  0  0  0  0  0  0  0  0
    0.0043    2.5536   -3.4165 O   0  0  0  0  0  0  0  0  0  0  0  0
    1.8565    1.7376   -4.4353 O   0  0  0  0  0  0  0  0  0  0  0  0
    1.5160    2.3273   -5.1250 H   0  0  0  0  0  0  0  0  0  0  0  0
    0.7797   -0.2875    0.9792 C   0  0  0  0  0  0  0  0  0  0  0  0
    1.9907   -0.2539    1.1521 O   0  0  0  0  0  0  0  0  0  0  0  0
   -0.0532    0.1917    1.9737 N   0  0  0  0  0  0  0  0  0  0  0  0
   -1.0487    0.0702    1.8202 H   0  0  0  0  0  0  0  0  0  0  0  0
    0.4195    0.4996    3.3175 C   0  0  0  0  0  0  0  0  0  0  0  0
    1.1805    1.2865    3.2853 H   0  0  0  0  0  0  0  0  0  0  0  0
   -0.4097    0.8484    3.9402 H   0  0  0  0  0  0  0  0  0  0  0  0
    0.8537   -0.3915    3.7832 H   0  0  0  0  0  0  0  0  0  0  0  0
  1  2  1  0  0  0  0
  2  3  1  0  0  0  0
  2  4  1  0  0  0  0
  2  5  1  0  0  0  0
  5  6  2  0  0  0  0
  5  7  1  0  0  0  0
  7  8  1  0  0  0  0
  7  9  1  0  0  0  0
  9 10  1  0  0  0  0
  9 11  1  0  0  0  0
  9 21  1  0  0  0  0
 11 12  1  0  0  0  0
 11 13  1  0  0  0  0
 11 14  1  0  0  0  0
 14 15  1  0  0  0  0
 14 16  1  0  0  0  0
 14 17  1  0  0  0  0
 17 18  2  0  0  0  0
 17 19  1  0  0  0  0
 19 20  1  0  0  0  0
 21 22  2  0  0  0  0
 21 23  1  0  0  0  0
 23 24  1  0  0  0  0
 23 25  1  0  0  0  0
 25 26  1  0  0  0  0
 25 27  1  0  0  0  0
 25 28  1  0  0  0  0
M  END
$$$$

  -OEChem-02102214123D

 28 27  0     1  0  0  0  0  0999 V2000
   -2.6056   -4.2081    0.2655 H   0  0  0  0  0  0  0  0  0  0  0  0
   -2.6193   -3.2121   -0.1864 C   0  0  0  0  0  0  0  0  0  0  0  0
   -3.4261   -2.6315    0.2669 H   0  0  0  0  0  0  0  0  0  0  0  0
   -2.8099   -3.3156   -1.2573 H   0  0  0  0  0  0  0  0  0  0  0  0
   -1.2891   -2.5189    0.0401 C   0  0  0  0  0  0  0  0  0  0  0  0
   -0.4204   -3.0677    0.6928 O   0  0  0  0  0  0  0  0  0  0  0  0
   -1.0753   -1.2599   -0.4850 N   0  0  0  0  0  0  0  0  0  0  0  0
   -1.8044   -0.8914   -1.0885 H   0  0  0  0  0  0  0  0  0  0  0  0
    0.2197   -0.5530   -0.4420 C   0  0  1  0  0  0  0  0  0  0  0  0
    0.9506   -1.2030   -0.9359 H   0  0  0  0  0  0  0  0  0  0  0  0
    0.0986    0.7691   -1.2309 C   0  0  0  0  0  0  0  0  0  0  0  0
   -0.8025    0.7277   -1.8521 H   0  0  0  0  0  0  0  0  0  0  0  0
   -0.0176    1.6199   -0.5498 H   0  0  0  0  0  0  0  0  0  0  0  0
    1.3117    0.9984   -2.1575 C   0  0  0  0  0  0  0  0  0  0  0  0
    2.1846    1.2616   -1.5527 H   0  0  0  0  0  0  0  0  0  0  0  0
    1.5456    0.0730   -2.6911 H   0  0  0  0  0  0  0  0  0  0  0  0
    1.0968    2.0823   -3.2158 C   0  0  0  0  0  0  0  0  0  0  0  0
    0.0602    2.7272   -3.2278 O   0  0  0  0  0  0  0  0  0  0  0  0
    2.0970    2.2676   -4.1069 O   0  0  0  0  0  0  0  0  0  0  0  0
    1.8083    2.9878   -4.6875 H   0  0  0  0  0  0  0  0  0  0  0  0
    0.7814   -0.2826    0.9721 C   0  0  0  0  0  0  0  0  0  0  0  0
    1.9926   -0.2492    1.1446 O   0  0  0  0  0  0  0  0  0  0  0  0
   -0.0514    0.1990    1.9655 N   0  0  0  0  0  0  0  0  0  0  0  0
   -1.0463    0.0719    1.8129 H   0  0  0  0  0  0  0  0  0  0  0  0
    0.4197    0.4964    3.3124 C   0  0  0  0  0  0  0  0  0  0  0  0
    1.2068    1.2575    3.2846 H   0  0  0  0  0  0  0  0  0  0  0  0
   -0.4029    0.8753    3.9262 H   0  0  0  0  0  0  0  0  0  0  0  0
    0.8201   -0.4068    3.7850 H   0  0  0  0  0  0  0  0  0  0  0  0
  1  2  1  0  0  0  0
  2  3  1  0  0  0  0
  2  4  1  0  0  0  0
  2  5  1  0  0  0  0
  5  6  2  0  0  0  0
  5  7  1  0  0  0  0
  7  8  1  0  0  0  0
  7  9  1  0  0  0  0
  9 10  1  0  0  0  0
  9 11  1  0  0  0  0
  9 21  1  0  0  0  0
 11 12  1  0  0  0  0
 11 13  1  0  0  0  0
 11 14  1  0  0  0  0
 14 15  1  0  0  0  0
 14 16  1  0  0  0  0
 14 17  1  0  0  0  0
 17 18  2  0  0  0  0
 17 19  1  0  0  0  0
 19 20  1  0  0  0  0
 21 22  2  0  0  0  0
 21 23  1  0  0  0  0
 23 24  1  0  0  0  0
 23 25  1  0  0  0  0
 25 26  1  0  0  0  0
 25 27  1  0  0  0  0
 25 28  1  0  0  0  0
M  END
$$$$

  -OEChem-02102214123D

 28 27  0     1  0  0  0  0  0999 V2000
   -2.6117   -4.1970    0.2690 H   0  0  0  0  0  0  0  0  0  0  0  0
   -2.6247   -3.1995   -0.1799 C   0  0  0  0  0  0  0  0  0  0  0  0
   -3.4302   -2.6192    0.2764 H   0  0  0  0  0  0  0  0  0  0  0  0
   -2.8169   -3.2998   -1.2507 H   0  0  0  0  0  0  0  0  0  0  0  0
   -1.2934   -2.5085    0.0467 C   0  0  0  0  0  0  0  0  0  0  0  0
   -0.4251   -3.0610    0.6967 O   0  0  0  0  0  0  0  0  0  0  0  0
   -1.0763   -1.2508   -0.4809 N   0  0  0  0  0  0  0  0  0  0  0  0
   -1.8027   -0.8845   -1.0890 H   0  0  0  0  0  0  0  0  0  0  0  0
    0.2226   -0.5500   -0.4449 C   0  0  1  0  0  0  0  0  0  0  0  0
    0.9568   -1.1973   -0.9387 H   0  0  0  0  0  0  0  0  0  0  0  0
    0.0984    0.7739   -1.2320 C   0  0  0  0  0  0  0  0  0  0  0  0
   -0.9212    0.8966   -1.6126 H   0  0  0  0  0  0  0  0  0  0  0  0
    0.2972    1.6255   -0.5702 H   0  0  0  0  0  0  0  0  0  0  0  0
    1.0874    0.8140   -2.4133 C   0  0  0  0  0  0  0  0  0  0  0  0
    2.1073    0.7128   -2.0291 H   0  0  0  0  0  0  0  0  0  0  0  0
    0.8971   -0.0297   -3.0823 H   0  0  0  0  0  0  0  0  0  0  0  0
    1.0158    2.1009   -3.2363 C   0  0  0  0  0  0  0  0  0  0  0  0
    0.1059    2.8927   -3.0483 O   0  0  0  0  0  0  0  0  0  0  0  0
    1.9807    2.2839   -4.1658 O   0  0  0  0  0  0  0  0  0  0  0  0
    1.7887    3.1358   -4.5861 H   0  0  0  0  0  0  0  0  0  0  0  0
    0.7838   -0.2855    0.9711 C   0  0  0  0  0  0  0  0  0  0  0  0
    1.9949   -0.2649    1.1456 O   0  0  0  0  0  0  0  0  0  0  0  0
   -0.0468    0.1983    1.9654 N   0  0  0  0  0  0  0  0  0  0  0  0
   -1.0428    0.0857    1.8086 H   0  0  0  0  0  0  0  0  0  0  0  0
    0.4244    0.4830    3.3151 C   0  0  0  0  0  0  0  0  0  0  0  0
    1.2169    1.2384    3.2939 H   0  0  0  0  0  0  0  0  0  0  0  0
   -0.3962    0.8635    3.9307 H   0  0  0  0  0  0  0  0  0  0  0  0
    0.8176   -0.4262    3.7819 H   0  0  0  0  0  0  0  0  0  0  0  0
  1  2  1  0  0  0  0
  2  3  1  0  0  0  0
  2  4  1  0  0  0  0
  2  5  1  0  0  0  0
  5  6  2  0  0  0  0
  5  7  1  0  0  0  0
  7  8  1  0  0  0  0
  7  9  1  0  0  0  0
  9 10  1  0  0  0  0
  9 11  1  0  0  0  0
  9 21  1  0  0  0  0
 11 12  1  0  0  0  0
 11 13  1  0  0  0  0
 11 14  1  0  0  0  0
 14 15  1  0  0  0  0
 14 16  1  0  0  0  0
 14 17  1  0  0  0  0
 17 18  2  0  0  0  0
 17 19  1  0  0  0  0
 19 20  1  0  0  0  0
 21 22  2  0  0  0  0
 21 23  1  0  0  0  0
 23 24  1  0  0  0  0
 23 25  1  0  0  0  0
 25 26  1  0  0  0  0
 25 27  1  0  0  0  0
 25 28  1  0  0  0  0
M  END
$$$$

  -OEChem-02102214123D

 28 27  0     1  0  0  0  0  0999 V2000
   -2.6274   -4.1867    0.2976 H   0  0  0  0  0  0  0  0  0  0  0  0
   -2.6327   -3.1980   -0.1703 C   0  0  0  0  0  0  0  0  0  0  0  0
   -3.4375   -2.6049    0.2707 H   0  0  0  0  0  0  0  0  0  0  0  0
   -2.8196   -3.3179   -1.2401 H   0  0  0  0  0  0  0  0  0  0  0  0
   -1.2988   -2.5099    0.0497 C   0  0  0  0  0  0  0  0  0  0  0  0
   -0.4295   -3.0627    0.6981 O   0  0  0  0  0  0  0  0  0  0  0  0
   -1.0804   -1.2542   -0.4817 N   0  0  0  0  0  0  0  0  0  0  0  0
   -1.8091   -0.8855   -1.0853 H   0  0  0  0  0  0  0  0  0  0  0  0
    0.2207   -0.5577   -0.4525 C   0  0  1  0  0  0  0  0  0  0  0  0
    0.9488   -1.2104   -0.9478 H   0  0  0  0  0  0  0  0  0  0  0  0
    0.0967    0.7635   -1.2452 C   0  0  0  0  0  0  0  0  0  0  0  0
   -0.9232    0.9062   -1.6173 H   0  0  0  0  0  0  0  0  0  0  0  0
    0.3115    1.6060   -0.5766 H   0  0  0  0  0  0  0  0  0  0  0  0
    1.0791    0.8047   -2.4329 C   0  0  0  0  0  0  0  0  0  0  0  0
    2.0641    0.4690   -2.0932 H   0  0  0  0  0  0  0  0  0  0  0  0
    0.7456    0.1221   -3.2189 H   0  0  0  0  0  0  0  0  0  0  0  0
    1.2593    2.2020   -3.0266 C   0  0  0  0  0  0  0  0  0  0  0  0
    0.3985    3.0483   -2.8450 O   0  0  0  0  0  0  0  0  0  0  0  0
    2.3758    2.4203   -3.7577 O   0  0  0  0  0  0  0  0  0  0  0  0
    2.3285    3.3438   -4.0480 H   0  0  0  0  0  0  0  0  0  0  0  0
    0.7888   -0.2918    0.9607 C   0  0  0  0  0  0  0  0  0  0  0  0
    2.0007   -0.2706    1.1290 O   0  0  0  0  0  0  0  0  0  0  0  0
   -0.0367    0.1969    1.9568 N   0  0  0  0  0  0  0  0  0  0  0  0
   -1.0334    0.0821    1.8063 H   0  0  0  0  0  0  0  0  0  0  0  0
    0.4415    0.4956    3.3008 C   0  0  0  0  0  0  0  0  0  0  0  0
    1.2286    1.2565    3.2680 H   0  0  0  0  0  0  0  0  0  0  0  0
   -0.3779    0.8753    3.9185 H   0  0  0  0  0  0  0  0  0  0  0  0
    0.8439   -0.4073    3.7723 H   0  0  0  0  0  0  0  0  0  0  0  0
  1  2  1  0  0  0  0
  2  3  1  0  0  0  0
  2  4  1  0  0  0  0
  2  5  1  0  0  0  0
  5  6  2  0  0  0  0
  5  7  1  0  0  0  0
  7  8  1  0  0  0  0
  7  9  1  0  0  0  0
  9 10  1  0  0  0  0
  9 11  1  0  0  0  0
  9 21  1  0  0  0  0
 11 12  1  0  0  0  0
 11 13  1  0  0  0  0
 11 14  1  0  0  0  0
 14 15  1  0  0  0  0
 14 16  1  0  0  0  0
 14 17  1  0  0  0  0
 17 18  2  0  0  0  0
 17 19  1  0  0  0  0
 19 20  1  0  0  0  0
 21 22  2  0  0  0  0
 21 23  1  0  0  0  0
 23 24  1  0  0  0  0
 23 25  1  0  0  0  0
 25 26  1  0  0  0  0
 25 27  1  0  0  0  0
 25 28  1  0  0  0  0
M  END
$$$$

  -OEChem-02102214123D

 28 27  0     1  0  0  0  0  0999 V2000
   -2.6328   -4.1861    0.3020 H   0  0  0  0  0  0  0  0  0  0  0  0
   -2.6372   -3.1984   -0.1680 C   0  0  0  0  0  0  0  0  0  0  0  0
   -3.4434   -2.6048    0.2696 H   0  0  0  0  0  0  0  0  0  0  0  0
   -2.8215   -3.3203   -1.2381 H   0  0  0  0  0  0  0  0  0  0  0  0
   -1.3041   -2.5091    0.0540 C   0  0  0  0  0  0  0  0  0  0  0  0
   -0.4367   -3.0600    0.7066 O   0  0  0  0  0  0  0  0  0  0  0  0
   -1.0842   -1.2549   -0.4812 N   0  0  0  0  0  0  0  0  0  0  0  0
   -1.8072   -0.8947   -1.0967 H   0  0  0  0  0  0  0  0  0  0  0  0
    0.2194   -0.5624   -0.4575 C   0  0  1  0  0  0  0  0  0  0  0  0
    0.9410   -1.2233   -0.9503 H   0  0  0  0  0  0  0  0  0  0  0  0
    0.0943    0.7569   -1.2563 C   0  0  0  0  0  0  0  0  0  0  0  0
   -0.9273    0.9100   -1.6191 H   0  0  0  0  0  0  0  0  0  0  0  0
    0.3143    1.5927   -0.5810 H   0  0  0  0  0  0  0  0  0  0  0  0
    1.0688    0.8079   -2.4541 C   0  0  0  0  0  0  0  0  0  0  0  0
    1.9774    0.2494   -2.2084 H   0  0  0  0  0  0  0  0  0  0  0  0
    0.6154    0.3358   -3.3294 H   0  0  0  0  0  0  0  0  0  0  0  0
    1.5165    2.2252   -2.8118 C   0  0  0  0  0  0  0  0  0  0  0  0
    0.7430    3.1541   -2.6416 O   0  0  0  0  0  0  0  0  0  0  0  0
    2.7560    2.3725   -3.3329 O   0  0  0  0  0  0  0  0  0  0  0  0
    2.8685    3.3221   -3.4900 H   0  0  0  0  0  0  0  0  0  0  0  0
    0.7951   -0.2939    0.9523 C   0  0  0  0  0  0  0  0  0  0  0  0
    2.0079   -0.2756    1.1138 O   0  0  0  0  0  0  0  0  0  0  0  0
   -0.0230    0.2003    1.9518 N   0  0  0  0  0  0  0  0  0  0  0  0
   -1.0211    0.0884    1.8081 H   0  0  0  0  0  0  0  0  0  0  0  0
    0.4653    0.5032    3.2913 C   0  0  0  0  0  0  0  0  0  0  0  0
    1.2559    1.2599    3.2497 H   0  0  0  0  0  0  0  0  0  0  0  0
   -0.3478    0.8901    3.9128 H   0  0  0  0  0  0  0  0  0  0  0  0
    0.8665   -0.3992    3.7644 H   0  0  0  0  0  0  0  0  0  0  0  0
  1  2  1  0  0  0  0
  2  3  1  0  0  0  0
  2  4  1  0  0  0  0
  2  5  1  0  0  0  0
  5  6  2  0  0  0  0
  5  7  1  0  0  0  0
  7  8  1  0  0  0  0
  7  9  1  0  0  0  0
  9 10  1  0  0  0  0
  9 11  1  0  0  0  0
  9 21  1  0  0  0  0
 11 12  1  0  0  0  0
 11 13  1  0  0  0  0
 11 14  1  0  0  0  0
 14 15  1  0  0  0  0
 14 16  1  0  0  0  0
 14 17  1  0  0  0  0
 17 18  2  0  0  0  0
 17 19  1  0  0  0  0
 19 20  1  0  0  0  0
 21 22  2  0  0  0  0
 21 23  1  0  0  0  0
 23 24  1  0  0  0  0
 23 25  1  0  0  0  0
 25 26  1  0  0  0  0
 25 27  1  0  0  0  0
 25 28  1  0  0  0  0
M  END
$$$$

  -OEChem-02102214123D

 28 27  0     1  0  0  0  0  0999 V2000
   -2.6369   -4.1804    0.3186 H   0  0  0  0  0  0  0  0  0  0  0  0
   -2.6381   -3.1979   -0.1621 C   0  0  0  0  0  0  0  0  0  0  0  0
   -3.4430   -2.5972    0.2680 H   0  0  0  0  0  0  0  0  0  0  0  0
   -2.8215   -3.3308   -1.2311 H   0  0  0  0  0  0  0  0  0  0  0  0
   -1.3034   -2.5103    0.0546 C   0  0  0  0  0  0  0  0  0  0  0  0
   -0.4356   -3.0605    0.7071 O   0  0  0  0  0  0  0  0  0  0  0  0
   -1.0832   -1.2576   -0.4837 N   0  0  0  0  0  0  0  0  0  0  0  0
   -1.8084   -0.8963   -1.0956 H   0  0  0  0  0  0  0  0  0  0  0  0
    0.2224   -0.5689   -0.4671 C   0  0  1  0  0  0  0  0  0  0  0  0
    0.9383   -1.2358   -0.9592 H   0  0  0  0  0  0  0  0  0  0  0  0
    0.0970    0.7534   -1.2647 C   0  0  0  0  0  0  0  0  0  0  0  0
   -0.9271    0.9017   -1.6216 H   0  0  0  0  0  0  0  0  0  0  0  0
    0.3071    1.5871   -0.5840 H   0  0  0  0  0  0  0  0  0  0  0  0
    1.0590    0.8242   -2.4761 C   0  0  0  0  0  0  0  0  0  0  0  0
    1.8385    0.0625   -2.3869 H   0  0  0  0  0  0  0  0  0  0  0  0
    0.5109    0.6231   -3.4002 H   0  0  0  0  0  0  0  0  0  0  0  0
    1.7751    2.1688   -2.5983 C   0  0  0  0  0  0  0  0  0  0  0  0
    1.1342    3.1941   -2.4322 O   0  0  0  0  0  0  0  0  0  0  0  0
    3.0901    2.1528   -2.9148 O   0  0  0  0  0  0  0  0  0  0  0  0
    3.3727    3.0795   -2.9332 H   0  0  0  0  0  0  0  0  0  0  0  0
    0.8050   -0.3003    0.9398 C   0  0  0  0  0  0  0  0  0  0  0  0
    2.0185   -0.2828    1.0954 O   0  0  0  0  0  0  0  0  0  0  0  0
   -0.0075    0.1975    1.9420 N   0  0  0  0  0  0  0  0  0  0  0  0
   -1.0064    0.0869    1.8036 H   0  0  0  0  0  0  0  0  0  0  0  0
    0.4877    0.5059    3.2778 C   0  0  0  0  0  0  0  0  0  0  0  0
    1.2791    1.2615    3.2288 H   0  0  0  0  0  0  0  0  0  0  0  0
   -0.3221    0.8968    3.9012 H   0  0  0  0  0  0  0  0  0  0  0  0
    0.8900   -0.3949    3.7535 H   0  0  0  0  0  0  0  0  0  0  0  0
  1  2  1  0  0  0  0
  2  3  1  0  0  0  0
  2  4  1  0  0  0  0
  2  5  1  0  0  0  0
  5  6  2  0  0  0  0
  5  7  1  0  0  0  0
  7  8  1  0  0  0  0
  7  9  1  0  0  0  0
  9 10  1  0  0  0  0
  9 11  1  0  0  0  0
  9 21  1  0  0  0  0
 11 12  1  0  0  0  0
 11 13  1  0  0  0  0
 11 14  1  0  0  0  0
 14 15  1  0  0  0  0
 14 16  1  0  0  0  0
 14 17  1  0  0  0  0
 17 18  2  0  0  0  0
 17 19  1  0  0  0  0
 19 20  1  0  0  0  0
 21 22  2  0  0  0  0
 21 23  1  0  0  0  0
 23 24  1  0  0  0  0
 23 25  1  0  0  0  0
 25 26  1  0  0  0  0
 25 27  1  0  0  0  0
 25 28  1  0  0  0  0
M  END
$$$$

  -OEChem-02102214123D

 28 27  0     1  0  0  0  0  0999 V2000
   -2.6265   -4.1817    0.3219 H   0  0  0  0  0  0  0  0  0  0  0  0
   -2.6280   -3.2039   -0.1683 C   0  0  0  0  0  0  0  0  0  0  0  0
   -3.4381   -2.6021    0.2503 H   0  0  0  0  0  0  0  0  0  0  0  0
   -2.8029   -3.3484   -1.2371 H   0  0  0  0  0  0  0  0  0  0  0  0
   -1.2973   -2.5095    0.0508 C   0  0  0  0  0  0  0  0  0  0  0  0
   -0.4264   -3.0580    0.7006 O   0  0  0  0  0  0  0  0  0  0  0  0
   -1.0822   -1.2554   -0.4868 N   0  0  0  0  0  0  0  0  0  0  0  0
   -1.8094   -0.8979   -1.0988 H   0  0  0  0  0  0  0  0  0  0  0  0
    0.2241   -0.5666   -0.4791 C   0  0  1  0  0  0  0  0  0  0  0  0
    0.9390   -1.2302   -0.9765 H   0  0  0  0  0  0  0  0  0  0  0  0
    0.0958    0.7643   -1.2626 C   0  0  0  0  0  0  0  0  0  0  0  0
   -0.9309    0.8935   -1.6188 H   0  0  0  0  0  0  0  0  0  0  0  0
    0.2860    1.6024   -0.5814 H   0  0  0  0  0  0  0  0  0  0  0  0
    1.0436    0.8512   -2.4852 C   0  0  0  0  0  0  0  0  0  0  0  0
    1.6261   -0.0662   -2.6024 H   0  0  0  0  0  0  0  0  0  0  0  0
    0.4508    0.9704   -3.3960 H   0  0  0  0  0  0  0  0  0  0  0  0
    2.0192    2.0232   -2.3972 C   0  0  0  0  0  0  0  0  0  0  0  0
    1.5734    3.1429   -2.2058 O   0  0  0  0  0  0  0  0  0  0  0  0
    3.3359    1.7585   -2.5558 O   0  0  0  0  0  0  0  0  0  0  0  0
    3.7959    2.6028   -2.4351 H   0  0  0  0  0  0  0  0  0  0  0  0
    0.8155   -0.3025    0.9253 C   0  0  0  0  0  0  0  0  0  0  0  0
    2.0298   -0.2831    1.0741 O   0  0  0  0  0  0  0  0  0  0  0  0
    0.0086    0.1923    1.9337 N   0  0  0  0  0  0  0  0  0  0  0  0
   -0.9908    0.0764    1.8036 H   0  0  0  0  0  0  0  0  0  0  0  0
    0.5126    0.5068    3.2648 C   0  0  0  0  0  0  0  0  0  0  0  0
    1.2952    1.2710    3.2082 H   0  0  0  0  0  0  0  0  0  0  0  0
   -0.2957    0.8890    3.8955 H   0  0  0  0  0  0  0  0  0  0  0  0
    0.9290   -0.3890    3.7376 H   0  0  0  0  0  0  0  0  0  0  0  0
  1  2  1  0  0  0  0
  2  3  1  0  0  0  0
  2  4  1  0  0  0  0
  2  5  1  0  0  0  0
  5  6  2  0  0  0  0
  5  7  1  0  0  0  0
  7  8  1  0  0  0  0
  7  9  1  0  0  0  0
  9 10  1  0  0  0  0
  9 11  1  0  0  0  0
  9 21  1  0  0  0  0
 11 12  1  0  0  0  0
 11 13  1  0  0  0  0
 11 14  1  0  0  0  0
 14 15  1  0  0  0  0
 14 16  1  0  0  0  0
 14 17  1  0  0  0  0
 17 18  2  0  0  0  0
 17 19  1  0  0  0  0
 19 20  1  0  0  0  0
 21 22  2  0  0  0  0
 21 23  1  0  0  0  0
 23 24  1  0  0  0  0
 23 25  1  0  0  0  0
 25 26  1  0  0  0  0
 25 27  1  0  0  0  0
 25 28  1  0  0  0  0
M  END
$$$$

  -OEChem-02102214123D

 28 27  0     1  0  0  0  0  0999 V2000
   -2.6000   -4.1903    0.2987 H   0  0  0  0  0  0  0  0  0  0  0  0
   -2.6069   -3.2106   -0.1878 C   0  0  0  0  0  0  0  0  0  0  0  0
   -3.4216   -2.6154    0.2315 H   0  0  0  0  0  0  0  0  0  0  0  0
   -2.7793   -3.3516   -1.2575 H   0  0  0  0  0  0  0  0  0  0  0  0
   -1.2812   -2.5084    0.0362 C   0  0  0  0  0  0  0  0  0  0  0  0
   -0.4066   -3.0540    0.6833 O   0  0  0  0  0  0  0  0  0  0  0  0
   -1.0765   -1.2496   -0.4937 N   0  0  0  0  0  0  0  0  0  0  0  0
   -1.8067   -0.8957   -1.1040 H   0  0  0  0  0  0  0  0  0  0  0  0
    0.2253   -0.5524   -0.4883 C   0  0  1  0  0  0  0  0  0  0  0  0
    0.9447   -1.2040   -0.9962 H   0  0  0  0  0  0  0  0  0  0  0  0
    0.0875    0.7855   -1.2560 C   0  0  0  0  0  0  0  0  0  0  0  0
   -0.9392    0.8913   -1.6198 H   0  0  0  0  0  0  0  0  0  0  0  0
    0.2571    1.6316   -0.5791 H   0  0  0  0  0  0  0  0  0  0  0  0
    1.0312    0.8755   -2.4775 C   0  0  0  0  0  0  0  0  0  0  0  0
    1.3878   -0.1112   -2.7852 H   0  0  0  0  0  0  0  0  0  0  0  0
    0.4784    1.2906   -3.3248 H   0  0  0  0  0  0  0  0  0  0  0  0
    2.2253    1.7914   -2.2223 C   0  0  0  0  0  0  0  0  0  0  0  0
    2.0168    2.9632   -1.9536 O   0  0  0  0  0  0  0  0  0  0  0  0
    3.4612    1.2519   -2.3186 O   0  0  0  0  0  0  0  0  0  0  0  0
    4.0802    1.9542   -2.0684 H   0  0  0  0  0  0  0  0  0  0  0  0
    0.8246   -0.2930    0.9133 C   0  0  0  0  0  0  0  0  0  0  0  0
    2.0398   -0.2638    1.0534 O   0  0  0  0  0  0  0  0  0  0  0  0
    0.0212    0.1905    1.9298 N   0  0  0  0  0  0  0  0  0  0  0  0
   -0.9782    0.0702    1.8052 H   0  0  0  0  0  0  0  0  0  0  0  0
    0.5327    0.5008    3.2588 C   0  0  0  0  0  0  0  0  0  0  0  0
    1.3127    1.2674    3.1997 H   0  0  0  0  0  0  0  0  0  0  0  0
   -0.2723    0.8784    3.8963 H   0  0  0  0  0  0  0  0  0  0  0  0
    0.9549   -0.3959    3.7247 H   0  0  0  0  0  0  0  0  0  0  0  0
  1  2  1  0  0  0  0
  2  3  1  0  0  0  0
  2  4  1  0  0  0  0
  2  5  1  0  0  0  0
  5  6  2  0  0  0  0
  5  7  1  0  0  0  0
  7  8  1  0  0  0  0
  7  9  1  0  0  0  0
  9 10  1  0  0  0  0
  9 11  1  0  0  0  0
  9 21  1  0  0  0  0
 11 12  1  0  0  0  0
 11 13  1  0  0  0  0
 11 14  1  0  0  0  0
 14 15  1  0  0  0  0
 14 16  1  0  0  0  0
 14 17  1  0  0  0  0
 17 18  2  0  0  0  0
 17 19  1  0  0  0  0
 19 20  1  0  0  0  0
 21 22  2  0  0  0  0
 21 23  1  0  0  0  0
 23 24  1  0  0  0  0
 23 25  1  0  0  0  0
 25 26  1  0  0  0  0
 25 27  1  0  0  0  0
 25 28  1  0  0  0  0
M  END
$$$$

  -OEChem-02102214123D

 28 27  0     1  0  0  0  0  0999 V2000
   -2.5597   -4.2012    0.2678 H   0  0  0  0  0  0  0  0  0  0  0  0
   -2.5798   -3.2166   -0.2081 C   0  0  0  0  0  0  0  0  0  0  0  0
   -3.3963   -2.6339    0.2248 H   0  0  0  0  0  0  0  0  0  0  0  0
   -2.7603   -3.3480   -1.2777 H   0  0  0  0  0  0  0  0  0  0  0  0
   -1.2585   -2.5044    0.0118 C   0  0  0  0  0  0  0  0  0  0  0  0
   -0.3756   -3.0474    0.6498 O   0  0  0  0  0  0  0  0  0  0  0  0
   -1.0687   -1.2383   -0.5068 N   0  0  0  0  0  0  0  0  0  0  0  0
   -1.8050   -0.8862   -1.1107 H   0  0  0  0  0  0  0  0  0  0  0  0
    0.2271   -0.5297   -0.5020 C   0  0  1  0  0  0  0  0  0  0  0  0
    0.9499   -1.1679   -1.0228 H   0  0  0  0  0  0  0  0  0  0  0  0
    0.0784    0.8129   -1.2579 C   0  0  0  0  0  0  0  0  0  0  0  0
   -0.9486    0.9133   -1.6226 H   0  0  0  0  0  0  0  0  0  0  0  0
    0.2500    1.6611   -0.5841 H   0  0  0  0  0  0  0  0  0  0  0  0
    1.0227    0.8989   -2.4736 C   0  0  0  0  0  0  0  0  0  0  0  0
    1.1649   -0.0812   -2.9378 H   0  0  0  0  0  0  0  0  0  0  0  0
    0.5749    1.5509   -3.2290 H   0  0  0  0  0  0  0  0  0  0  0  0
    2.3726    1.4992   -2.0939 C   0  0  0  0  0  0  0  0  0  0  0  0
    2.4186    2.6743   -1.7693 O   0  0  0  0  0  0  0  0  0  0  0  0
    3.4509    0.6850   -2.1300 O   0  0  0  0  0  0  0  0  0  0  0  0
    4.1870    1.2008   -1.7676 H   0  0  0  0  0  0  0  0  0  0  0  0
    0.8335   -0.2787    0.8985 C   0  0  0  0  0  0  0  0  0  0  0  0
    2.0495   -0.2391    1.0311 O   0  0  0  0  0  0  0  0  0  0  0  0
    0.0329    0.1877    1.9253 N   0  0  0  0  0  0  0  0  0  0  0  0
   -0.9658    0.0538    1.8083 H   0  0  0  0  0  0  0  0  0  0  0  0
    0.5511    0.4874    3.2545 C   0  0  0  0  0  0  0  0  0  0  0  0
    1.3378    1.2472    3.1977 H   0  0  0  0  0  0  0  0  0  0  0  0
   -0.2487    0.8693    3.8960 H   0  0  0  0  0  0  0  0  0  0  0  0
    0.9664   -0.4154    3.7147 H   0  0  0  0  0  0  0  0  0  0  0  0
  1  2  1  0  0  0  0
  2  3  1  0  0  0  0
  2  4  1  0  0  0  0
  2  5  1  0  0  0  0
  5  6  2  0  0  0  0
  5  7  1  0  0  0  0
  7  8  1  0  0  0  0
  7  9  1  0  0  0  0
  9 10  1  0  0  0  0
  9 11  1  0  0  0  0
  9 21  1  0  0  0  0
 11 12  1  0  0  0  0
 11 13  1  0  0  0  0
 11 14  1  0  0  0  0
 14 15  1  0  0  0  0
 14 16  1  0  0  0  0
 14 17  1  0  0  0  0
 17 18  2  0  0  0  0
 17 19  1  0  0  0  0
 19 20  1  0  0  0  0
 21 22  2  0  0  0  0
 21 23  1  0  0  0  0
 23 24  1  0  0  0  0
 23 25  1  0  0  0  0
 25 26  1  0  0  0  0
 25 27  1  0  0  0  0
 25 28  1  0  0  0  0
M  END
$$$$

  -OEChem-02102214123D

 28 27  0     1  0  0  0  0  0999 V2000
   -2.5341   -4.1998    0.2381 H   0  0  0  0  0  0  0  0  0  0  0  0
   -2.5576   -3.2115   -0.2303 C   0  0  0  0  0  0  0  0  0  0  0  0
   -3.3729   -2.6331    0.2109 H   0  0  0  0  0  0  0  0  0  0  0  0
   -2.7429   -3.3351   -1.3000 H   0  0  0  0  0  0  0  0  0  0  0  0
   -1.2361   -2.4992   -0.0113 C   0  0  0  0  0  0  0  0  0  0  0  0
   -0.3501   -3.0457    0.6193 O   0  0  0  0  0  0  0  0  0  0  0  0
   -1.0506   -1.2285   -0.5202 N   0  0  0  0  0  0  0  0  0  0  0  0
   -1.7896   -0.8726   -1.1185 H   0  0  0  0  0  0  0  0  0  0  0  0
    0.2422   -0.5148   -0.5089 C   0  0  1  0  0  0  0  0  0  0  0  0
    0.9668   -1.1458   -1.0372 H   0  0  0  0  0  0  0  0  0  0  0  0
    0.0835    0.8296   -1.2607 C   0  0  0  0  0  0  0  0  0  0  0  0
   -0.9450    0.9365   -1.6192 H   0  0  0  0  0  0  0  0  0  0  0  0
    0.2696    1.6733   -0.5850 H   0  0  0  0  0  0  0  0  0  0  0  0
    1.0272    0.9243   -2.4726 C   0  0  0  0  0  0  0  0  0  0  0  0
    0.9809    0.0093   -3.0702 H   0  0  0  0  0  0  0  0  0  0  0  0
    0.7142    1.7524   -3.1149 H   0  0  0  0  0  0  0  0  0  0  0  0
    2.4642    1.1810   -2.0315 C   0  0  0  0  0  0  0  0  0  0  0  0
    2.7686    2.3054   -1.6708 O   0  0  0  0  0  0  0  0  0  0  0  0
    3.3188    0.1336   -2.0425 O   0  0  0  0  0  0  0  0  0  0  0  0
    4.1285    0.4470   -1.6104 H   0  0  0  0  0  0  0  0  0  0  0  0
    0.8447   -0.2729    0.8954 C   0  0  0  0  0  0  0  0  0  0  0  0
    2.0601   -0.2420    1.0363 O   0  0  0  0  0  0  0  0  0  0  0  0
    0.0390    0.1821    1.9233 N   0  0  0  0  0  0  0  0  0  0  0  0
   -0.9592    0.0522    1.7982 H   0  0  0  0  0  0  0  0  0  0  0  0
    0.5497    0.4570    3.2606 C   0  0  0  0  0  0  0  0  0  0  0  0
    1.3462    1.2078    3.2212 H   0  0  0  0  0  0  0  0  0  0  0  0
   -0.2508    0.8398    3.9007 H   0  0  0  0  0  0  0  0  0  0  0  0
    0.9501   -0.4572    3.7114 H   0  0  0  0  0  0  0  0  0  0  0  0
  1  2  1  0  0  0  0
  2  3  1  0  0  0  0
  2  4  1  0  0  0  0
  2  5  1  0  0  0  0
  5  6  2  0  0  0  0
  5  7  1  0  0  0  0
  7  8  1  0  0  0  0
  7  9  1  0  0  0  0
  9 10  1  0  0  0  0
  9 11  1  0  0  0  0
  9 21  1  0  0  0  0
 11 12  1  0  0  0  0
 11 13  1  0  0  0  0
 11 14  1  0  0  0  0
 14 15  1  0  0  0  0
 14 16  1  0  0  0  0
 14 17  1  0  0  0  0
 17 18  2  0  0  0  0
 17 19  1  0  0  0  0
 19 20  1  0  0  0  0
 21 22  2  0  0  0  0
 21 23  1  0  0  0  0
 23 24  1  0  0  0  0
 23 25  1  0  0  0  0
 25 26  1  0  0  0  0
 25 27  1  0  0  0  0
 25 28  1  0  0  0  0
M  END
$$$$

  -OEChem-02102214123D

 28 27  0     1  0  0  0  0  0999 V2000
   -2.5407   -4.2011    0.1866 H   0  0  0  0  0  0  0  0  0  0  0  0
   -2.5552   -3.2093   -0.2746 C   0  0  0  0  0  0  0  0  0  0  0  0
   -3.3817   -2.6358    0.1518 H   0  0  0  0  0  0  0  0  0  0  0  0
   -2.7151   -3.3249   -1.3493 H   0  0  0  0  0  0  0  0  0  0  0  0
   -1.2410   -2.4960   -0.0186 C   0  0  0  0  0  0  0  0  0  0  0  0
   -0.3731   -3.0418    0.6375 O   0  0  0  0  0  0  0  0  0  0  0  0
   -1.0440   -1.2241   -0.5205 N   0  0  0  0  0  0  0  0  0  0  0  0
   -1.7629   -0.8749   -1.1464 H   0  0  0  0  0  0  0  0  0  0  0  0
    0.2521   -0.5173   -0.4875 C   0  0  1  0  0  0  0  0  0  0  0  0
    0.9718   -1.1588   -1.0076 H   0  0  0  0  0  0  0  0  0  0  0  0
    0.1041    0.8242   -1.2501 C   0  0  0  0  0  0  0  0  0  0  0  0
   -0.9228    0.9449   -1.6086 H   0  0  0  0  0  0  0  0  0  0  0  0
    0.2995    1.6601   -0.5677 H   0  0  0  0  0  0  0  0  0  0  0  0
    1.0558    0.9450   -2.4554 C   0  0  0  0  0  0  0  0  0  0  0  0
    0.8423    0.1502   -3.1756 H   0  0  0  0  0  0  0  0  0  0  0  0
    0.8889    1.9013   -2.9595 H   0  0  0  0  0  0  0  0  0  0  0  0
    2.5240    0.8568   -2.0463 C   0  0  0  0  0  0  0  0  0  0  0  0
    3.0661    1.8714   -1.6433 O   0  0  0  0  0  0  0  0  0  0  0  0
    3.1446   -0.3405   -2.1477 O   0  0  0  0  0  0  0  0  0  0  0  0
    4.0152   -0.2192   -1.7368 H   0  0  0  0  0  0  0  0  0  0  0  0
    0.8404   -0.2810    0.9234 C   0  0  0  0  0  0  0  0  0  0  0  0
    2.0541   -0.2790    1.0804 O   0  0  0  0  0  0  0  0  0  0  0  0
    0.0278    0.1763    1.9448 N   0  0  0  0  0  0  0  0  0  0  0  0
   -0.9702    0.0558    1.8079 H   0  0  0  0  0  0  0  0  0  0  0  0
    0.5263    0.4330    3.2904 C   0  0  0  0  0  0  0  0  0  0  0  0
    1.3270    1.1799    3.2674 H   0  0  0  0  0  0  0  0  0  0  0  0
   -0.2785    0.8126    3.9270 H   0  0  0  0  0  0  0  0  0  0  0  0
    0.9174   -0.4884    3.7347 H   0  0  0  0  0  0  0  0  0  0  0  0
  1  2  1  0  0  0  0
  2  3  1  0  0  0  0
  2  4  1  0  0  0  0
  2  5  1  0  0  0  0
  5  6  2  0  0  0  0
  5  7  1  0  0  0  0
  7  8  1  0  0  0  0
  7  9  1  0  0  0  0
  9 10  1  0  0  0  0
  9 11  1  0  0  0  0
  9 21  1  0  0  0  0
 11 12  1  0  0  0  0
 11 13  1  0  0  0  0
 11 14  1  0  0  0  0
 14 15  1  0  0  0  0
 14 16  1  0  0  0  0
 14 17  1  0  0  0  0
 17 18  2  0  0  0  0
 17 19  1  0  0  0  0
 19 20  1  0  0  0  0
 21 22  2  0  0  0  0
 21 23  1  0  0  0  0
 23 24  1  0  0  0  0
 23 25  1  0  0  0  0
 25 26  1  0  0  0  0
 25 27  1  0  0  0  0
 25 28  1  0  0  0  0
M  END
$$$$

  -OEChem-02102214123D

 28 27  0     1  0  0  0  0  0999 V2000
   -2.5742   -4.1898    0.1652 H   0  0  0  0  0  0  0  0  0  0  0  0
   -2.5679   -3.1989   -0.2979 C   0  0  0  0  0  0  0  0  0  0  0  0
   -3.4017   -2.6178    0.1031 H   0  0  0  0  0  0  0  0  0  0  0  0
   -2.6976   -3.3154   -1.3765 H   0  0  0  0  0  0  0  0  0  0  0  0
   -1.2562   -2.4954   -0.0055 C   0  0  0  0  0  0  0  0  0  0  0  0
   -0.4149   -3.0430    0.6828 O   0  0  0  0  0  0  0  0  0  0  0  0
   -1.0327   -1.2298   -0.5120 N   0  0  0  0  0  0  0  0  0  0  0  0
   -1.7270   -0.8842   -1.1671 H   0  0  0  0  0  0  0  0  0  0  0  0
    0.2701   -0.5373   -0.4528 C   0  0  1  0  0  0  0  0  0  0  0  0
    0.9888   -1.1968   -0.9464 H   0  0  0  0  0  0  0  0  0  0  0  0
    0.1454    0.7991   -1.2327 C   0  0  0  0  0  0  0  0  0  0  0  0
   -0.8790    0.9378   -1.5921 H   0  0  0  0  0  0  0  0  0  0  0  0
    0.3471    1.6263   -0.5418 H   0  0  0  0  0  0  0  0  0  0  0  0
    1.1055    0.9531   -2.4328 C   0  0  0  0  0  0  0  0  0  0  0  0
    0.7412    0.3336   -3.2569 H   0  0  0  0  0  0  0  0  0  0  0  0
    1.0942    1.9919   -2.7755 H   0  0  0  0  0  0  0  0  0  0  0  0
    2.5492    0.5417   -2.1493 C   0  0  0  0  0  0  0  0  0  0  0  0
    3.2984    1.3850   -1.6896 O   0  0  0  0  0  0  0  0  0  0  0  0
    2.9322   -0.7209   -2.4490 O   0  0  0  0  0  0  0  0  0  0  0  0
    3.8483   -0.7938   -2.1371 H   0  0  0  0  0  0  0  0  0  0  0  0
    0.8249   -0.2976    0.9704 C   0  0  0  0  0  0  0  0  0  0  0  0
    2.0331   -0.3230    1.1598 O   0  0  0  0  0  0  0  0  0  0  0  0
   -0.0069    0.1761    1.9686 N   0  0  0  0  0  0  0  0  0  0  0  0
   -1.0022    0.0677    1.8057 H   0  0  0  0  0  0  0  0  0  0  0  0
    0.4588    0.4134    3.3293 C   0  0  0  0  0  0  0  0  0  0  0  0
    1.2769    1.1414    3.3335 H   0  0  0  0  0  0  0  0  0  0  0  0
   -0.3548    0.8080    3.9451 H   0  0  0  0  0  0  0  0  0  0  0  0
    0.8154   -0.5195    3.7786 H   0  0  0  0  0  0  0  0  0  0  0  0
  1  2  1  0  0  0  0
  2  3  1  0  0  0  0
  2  4  1  0  0  0  0
  2  5  1  0  0  0  0
  5  6  2  0  0  0  0
  5  7  1  0  0  0  0
  7  8  1  0  0  0  0
  7  9  1  0  0  0  0
  9 10  1  0  0  0  0
  9 11  1  0  0  0  0
  9 21  1  0  0  0  0
 11 12  1  0  0  0  0
 11 13  1  0  0  0  0
 11 14  1  0  0  0  0
 14 15  1  0  0  0  0
 14 16  1  0  0  0  0
 14 17  1  0  0  0  0
 17 18  2  0  0  0  0
 17 19  1  0  0  0  0
 19 20  1  0  0  0  0
 21 22  2  0  0  0  0
 21 23  1  0  0  0  0
 23 24  1  0  0  0  0
 23 25  1  0  0  0  0
 25 26  1  0  0  0  0
 25 27  1  0  0  0  0
 25 28  1  0  0  0  0
M  END
$$$$

  -OEChem-02102214123D

 28 27  0     1  0  0  0  0  0999 V2000
   -2.6144   -4.1735    0.1708 H   0  0  0  0  0  0  0  0  0  0  0  0
   -2.5855   -3.1886   -0.3042 C   0  0  0  0  0  0  0  0  0  0  0  0
   -3.4250   -2.5952    0.0657 H   0  0  0  0  0  0  0  0  0  0  0  0
   -2.6856   -3.3178   -1.3845 H   0  0  0  0  0  0  0  0  0  0  0  0
   -1.2752   -2.4945    0.0163 C   0  0  0  0  0  0  0  0  0  0  0  0
   -0.4608   -3.0425    0.7361 O   0  0  0  0  0  0  0  0  0  0  0  0
   -1.0206   -1.2397   -0.5031 N   0  0  0  0  0  0  0  0  0  0  0  0
   -1.6872   -0.9013   -1.1899 H   0  0  0  0  0  0  0  0  0  0  0  0
    0.2924   -0.5677   -0.4244 C   0  0  1  0  0  0  0  0  0  0  0  0
    1.0134   -1.2448   -0.8870 H   0  0  0  0  0  0  0  0  0  0  0  0
    0.1990    0.7696   -1.2120 C   0  0  0  0  0  0  0  0  0  0  0  0
   -0.8233    0.9320   -1.5679 H   0  0  0  0  0  0  0  0  0  0  0  0
    0.4110    1.5863   -0.5121 H   0  0  0  0  0  0  0  0  0  0  0  0
    1.1628    0.9500   -2.4107 C   0  0  0  0  0  0  0  0  0  0  0  0
    0.6674    0.5653   -3.3065 H   0  0  0  0  0  0  0  0  0  0  0  0
    1.3363    2.0180   -2.5730 H   0  0  0  0  0  0  0  0  0  0  0  0
    2.5126    0.2407   -2.3161 C   0  0  0  0  0  0  0  0  0  0  0  0
    3.4539    0.8626   -1.8583 O   0  0  0  0  0  0  0  0  0  0  0  0
    2.6082   -1.0238   -2.7897 O   0  0  0  0  0  0  0  0  0  0  0  0
    3.5230   -1.2963   -2.6142 H   0  0  0  0  0  0  0  0  0  0  0  0
    0.8097   -0.3218    1.0123 C   0  0  0  0  0  0  0  0  0  0  0  0
    2.0107   -0.3605    1.2386 O   0  0  0  0  0  0  0  0  0  0  0  0
   -0.0439    0.1763    1.9800 N   0  0  0  0  0  0  0  0  0  0  0  0
   -1.0352    0.0761    1.7895 H   0  0  0  0  0  0  0  0  0  0  0  0
    0.3839    0.4167    3.3525 C   0  0  0  0  0  0  0  0  0  0  0  0
    1.2098    1.1356    3.3773 H   0  0  0  0  0  0  0  0  0  0  0  0
   -0.4434    0.8238    3.9414 H   0  0  0  0  0  0  0  0  0  0  0  0
    0.7165   -0.5172    3.8178 H   0  0  0  0  0  0  0  0  0  0  0  0
  1  2  1  0  0  0  0
  2  3  1  0  0  0  0
  2  4  1  0  0  0  0
  2  5  1  0  0  0  0
  5  6  2  0  0  0  0
  5  7  1  0  0  0  0
  7  8  1  0  0  0  0
  7  9  1  0  0  0  0
  9 10  1  0  0  0  0
  9 11  1  0  0  0  0
  9 21  1  0  0  0  0
 11 12  1  0  0  0  0
 11 13  1  0  0  0  0
 11 14  1  0  0  0  0
 14 15  1  0  0  0  0
 14 16  1  0  0  0  0
 14 17  1  0  0  0  0
 17 18  2  0  0  0  0
 17 19  1  0  0  0  0
 19 20  1  0  0  0  0
 21 22  2  0  0  0  0
 21 23  1  0  0  0  0
 23 24  1  0  0  0  0
 23 25  1  0  0  0  0
 25 26  1  0  0  0  0
 25 27  1  0  0  0  0
 25 28  1  0  0  0  0
M  END
$$$$

  -OEChem-02102214123D

 28 27  0     1  0  0  0  0  0999 V2000
   -2.6571   -4.1549    0.1749 H   0  0  0  0  0  0  0  0  0  0  0  0
   -2.6094   -3.1716   -0.3021 C   0  0  0  0  0  0  0  0  0  0  0  0
   -3.4457   -2.5665    0.0560 H   0  0  0  0  0  0  0  0  0  0  0  0
   -2.6976   -3.3020   -1.3834 H   0  0  0  0  0  0  0  0  0  0  0  0
   -1.2950   -2.4927    0.0342 C   0  0  0  0  0  0  0  0  0  0  0  0
   -0.5043   -3.0410    0.7797 O   0  0  0  0  0  0  0  0  0  0  0  0
   -1.0126   -1.2491   -0.4976 N   0  0  0  0  0  0  0  0  0  0  0  0
   -1.6562   -0.9178   -1.2095 H   0  0  0  0  0  0  0  0  0  0  0  0
    0.3096   -0.5963   -0.4075 C   0  0  1  0  0  0  0  0  0  0  0  0
    1.0318   -1.2890   -0.8427 H   0  0  0  0  0  0  0  0  0  0  0  0
    0.2468    0.7418   -1.2006 C   0  0  0  0  0  0  0  0  0  0  0  0
   -0.7719    0.9137   -1.5619 H   0  0  0  0  0  0  0  0  0  0  0  0
    0.4568    1.5569   -0.4981 H   0  0  0  0  0  0  0  0  0  0  0  0
    1.2163    0.9315   -2.3979 C   0  0  0  0  0  0  0  0  0  0  0  0
    0.6392    0.8264   -3.3206 H   0  0  0  0  0  0  0  0  0  0  0  0
    1.6019    1.9555   -2.3793 H   0  0  0  0  0  0  0  0  0  0  0  0
    2.3987   -0.0280   -2.5149 C   0  0  0  0  0  0  0  0  0  0  0  0
    3.4927    0.3541   -2.1419 O   0  0  0  0  0  0  0  0  0  0  0  0
    2.1798   -1.2403   -3.0768 O   0  0  0  0  0  0  0  0  0  0  0  0
    3.0371   -1.6945   -3.0528 H   0  0  0  0  0  0  0  0  0  0  0  0
    0.8012   -0.3429    1.0372 C   0  0  0  0  0  0  0  0  0  0  0  0
    1.9976   -0.3815    1.2866 O   0  0  0  0  0  0  0  0  0  0  0  0
   -0.0659    0.1786    1.9802 N   0  0  0  0  0  0  0  0  0  0  0  0
   -1.0541    0.0809    1.7723 H   0  0  0  0  0  0  0  0  0  0  0  0
    0.3372    0.4298    3.3583 C   0  0  0  0  0  0  0  0  0  0  0  0
    1.1644    1.1468    3.3919 H   0  0  0  0  0  0  0  0  0  0  0  0
   -0.4998    0.8440    3.9283 H   0  0  0  0  0  0  0  0  0  0  0  0
    0.6590   -0.5010    3.8373 H   0  0  0  0  0  0  0  0  0  0  0  0
  1  2  1  0  0  0  0
  2  3  1  0  0  0  0
  2  4  1  0  0  0  0
  2  5  1  0  0  0  0
  5  6  2  0  0  0  0
  5  7  1  0  0  0  0
  7  8  1  0  0  0  0
  7  9  1  0  0  0  0
  9 10  1  0  0  0  0
  9 11  1  0  0  0  0
  9 21  1  0  0  0  0
 11 12  1  0  0  0  0
 11 13  1  0  0  0  0
 11 14  1  0  0  0  0
 14 15  1  0  0  0  0
 14 16  1  0  0  0  0
 14 17  1  0  0  0  0
 17 18  2  0  0  0  0
 17 19  1  0  0  0  0
 19 20  1  0  0  0  0
 21 22  2  0  0  0  0
 21 23  1  0  0  0  0
 23 24  1  0  0  0  0
 23 25  1  0  0  0  0
 25 26  1  0  0  0  0
 25 27  1  0  0  0  0
 25 28  1  0  0  0  0
M  END
$$$$

  -OEChem-02102214123D

 28 27  0     1  0  0  0  0  0999 V2000
   -2.4590   -4.0520   -0.3374 H   0  0  0  0  0  0  0  0  0  0  0  0
   -2.7332   -2.9931   -0.3447 C   0  0  0  0  0  0  0  0  0  0  0  0
   -3.4070   -2.7994    0.4933 H   0  0  0  0  0  0  0  0  0  0  0  0
   -3.2508   -2.7715   -1.2810 H   0  0  0  0  0  0  0  0  0  0  0  0
   -1.4900   -2.1326   -0.2240 C   0  0  0  0  0  0  0  0  0  0  0  0
   -0.3999   -2.6586   -0.1223 O   0  0  0  0  0  0  0  0  0  0  0  0
   -1.6143   -0.7587   -0.1558 N   0  0  0  0  0  0  0  0  0  0  0  0
   -2.5579   -0.4009   -0.2714 H   0  0  0  0  0  0  0  0  0  0  0  0
   -0.5002    0.2021   -0.3225 C   0  0  1  0  0  0  0  0  0  0  0  0
   -0.9158    1.1716   -0.0302 H   0  0  0  0  0  0  0  0  0  0  0  0
   -0.2560    0.3287   -1.8719 C   0  0  0  0  0  0  0  0  0  0  0  0
   -1.0528   -0.2161   -2.3889 H   0  0  0  0  0  0  0  0  0  0  0  0
   -0.4360    1.3862   -2.0926 H   0  0  0  0  0  0  0  0  0  0  0  0
    1.0586   -0.0128   -2.6440 C   0  0  0  0  0  0  0  0  0  0  0  0
    0.8103   -0.7613   -3.4018 H   0  0  0  0  0  0  0  0  0  0  0  0
    1.3642    0.8866   -3.1861 H   0  0  0  0  0  0  0  0  0  0  0  0
    2.3021   -0.5337   -1.9341 C   0  0  0  0  0  0  0  0  0  0  0  0
    2.2918   -1.6699   -1.4937 O   0  0  0  0  0  0  0  0  0  0  0  0
    3.3923    0.2688   -1.9130 O   0  0  0  0  0  0  0  0  0  0  0  0
    4.0232   -0.1811   -1.3319 H   0  0  0  0  0  0  0  0  0  0  0  0
    0.6604    0.0613    0.6981 C   0  0  0  0  0  0  0  0  0  0  0  0
    1.7158    0.6548    0.5232 O   0  0  0  0  0  0  0  0  0  0  0  0
    0.3064   -0.1113    2.0251 N   0  0  0  0  0  0  0  0  0  0  0  0
   -0.5437   -0.6471    2.1683 H   0  0  0  0  0  0  0  0  0  0  0  0
    1.2720   -0.0578    3.1177 C   0  0  0  0  0  0  0  0  0  0  0  0
    1.7005    0.9464    3.2033 H   0  0  0  0  0  0  0  0  0  0  0  0
    0.7840   -0.3048    4.0653 H   0  0  0  0  0  0  0  0  0  0  0  0
    2.0828   -0.7741    2.9477 H   0  0  0  0  0  0  0  0  0  0  0  0
  1  2  1  0  0  0  0
  2  3  1  0  0  0  0
  2  4  1  0  0  0  0
  2  5  1  0  0  0  0
  5  6  2  0  0  0  0
  5  7  1  0  0  0  0
  7  8  1  0  0  0  0
  7  9  1  0  0  0  0
  9 10  1  0  0  0  0
  9 11  1  0  0  0  0
  9 21  1  0  0  0  0
 11 12  1  0  0  0  0
 11 13  1  0  0  0  0
 11 14  1  0  0  0  0
 14 15  1  0  0  0  0
 14 16  1  0  0  0  0
 14 17  1  0  0  0  0
 17 18  2  0  0  0  0
 17 19  1  0  0  0  0
 19 20  1  0  0  0  0
 21 22  2  0  0  0  0
 21 23  1  0  0  0  0
 23 24  1  0  0  0  0
 23 25  1  0  0  0  0
 25 26  1  0  0  0  0
 25 27  1  0  0  0  0
 25 28  1  0  0  0  0
M  END
$$$$

  -OEChem-02102214123D

 28 27  0     1  0  0  0  0  0999 V2000
   -2.6893   -4.1806    0.3916 H   0  0  0  0  0  0  0  0  0  0  0  0
   -2.6595   -3.2226   -0.1356 C   0  0  0  0  0  0  0  0  0  0  0  0
   -3.5123   -2.6187    0.1828 H   0  0  0  0  0  0  0  0  0  0  0  0
   -2.7344   -3.4113   -1.2093 H   0  0  0  0  0  0  0  0  0  0  0  0
   -1.3641   -2.4969    0.1744 C   0  0  0  0  0  0  0  0  0  0  0  0
   -0.5701   -2.9836    0.9588 O   0  0  0  0  0  0  0  0  0  0  0  0
   -1.1049   -1.2805   -0.4267 N   0  0  0  0  0  0  0  0  0  0  0  0
   -1.7389   -1.0332   -1.1809 H   0  0  0  0  0  0  0  0  0  0  0  0
    0.2284   -0.6457   -0.4386 C   0  0  1  0  0  0  0  0  0  0  0  0
    0.9260   -1.3604   -0.8803 H   0  0  0  0  0  0  0  0  0  0  0  0
    0.1479    0.6766   -1.2582 C   0  0  0  0  0  0  0  0  0  0  0  0
   -0.8853    0.8124   -1.5937 H   0  0  0  0  0  0  0  0  0  0  0  0
    0.3648    1.5277   -0.6025 H   0  0  0  0  0  0  0  0  0  0  0  0
    1.0506    0.8062   -2.5145 C   0  0  0  0  0  0  0  0  0  0  0  0
    0.4848    1.2843   -3.3189 H   0  0  0  0  0  0  0  0  0  0  0  0
    1.8770    1.4782   -2.2627 H   0  0  0  0  0  0  0  0  0  0  0  0
    1.6749   -0.4750   -3.0611 C   0  0  0  0  0  0  0  0  0  0  0  0
    0.9248   -1.3323   -3.4999 O   0  0  0  0  0  0  0  0  0  0  0  0
    3.0214   -0.5964   -3.0345 O   0  0  0  0  0  0  0  0  0  0  0  0
    3.2227   -1.4769   -3.3855 H   0  0  0  0  0  0  0  0  0  0  0  0
    0.8067   -0.3403    0.9634 C   0  0  0  0  0  0  0  0  0  0  0  0
    2.0188   -0.3522    1.1312 O   0  0  0  0  0  0  0  0  0  0  0  0
    0.0013    0.2330    1.9308 N   0  0  0  0  0  0  0  0  0  0  0  0
   -0.9970    0.1095    1.7960 H   0  0  0  0  0  0  0  0  0  0  0  0
    0.4893    0.5484    3.2675 C   0  0  0  0  0  0  0  0  0  0  0  0
    1.3183    1.2621    3.2152 H   0  0  0  0  0  0  0  0  0  0  0  0
   -0.3102    0.9940    3.8668 H   0  0  0  0  0  0  0  0  0  0  0  0
    0.8377   -0.3597    3.7708 H   0  0  0  0  0  0  0  0  0  0  0  0
  1  2  1  0  0  0  0
  2  3  1  0  0  0  0
  2  4  1  0  0  0  0
  2  5  1  0  0  0  0
  5  6  2  0  0  0  0
  5  7  1  0  0  0  0
  7  8  1  0  0  0  0
  7  9  1  0  0  0  0
  9 10  1  0  0  0  0
  9 11  1  0  0  0  0
  9 21  1  0  0  0  0
 11 12  1  0  0  0  0
 11 13  1  0  0  0  0
 11 14  1  0  0  0  0
 14 15  1  0  0  0  0
 14 16  1  0  0  0  0
 14 17  1  0  0  0  0
 17 18  2  0  0  0  0
 17 19  1  0  0  0  0
 19 20  1  0  0  0  0
 21 22  2  0  0  0  0
 21 23  1  0  0  0  0
 23 24  1  0  0  0  0
 23 25  1  0  0  0  0
 25 26  1  0  0  0  0
 25 27  1  0  0  0  0
 25 28  1  0  0  0  0
M  END
$$$$

  -OEChem-02102214123D

 28 27  0     1  0  0  0  0  0999 V2000
   -2.6434   -4.2036    0.3211 H   0  0  0  0  0  0  0  0  0  0  0  0
   -2.6337   -3.2298   -0.1767 C   0  0  0  0  0  0  0  0  0  0  0  0
   -3.4965   -2.6518    0.1629 H   0  0  0  0  0  0  0  0  0  0  0  0
   -2.7090   -3.3874   -1.2556 H   0  0  0  0  0  0  0  0  0  0  0  0
   -1.3507   -2.4896    0.1505 C   0  0  0  0  0  0  0  0  0  0  0  0
   -0.5511   -2.9784    0.9281 O   0  0  0  0  0  0  0  0  0  0  0  0
   -1.1071   -1.2604   -0.4306 N   0  0  0  0  0  0  0  0  0  0  0  0
   -1.7375   -1.0181   -1.1899 H   0  0  0  0  0  0  0  0  0  0  0  0
    0.2209   -0.6149   -0.4407 C   0  0  1  0  0  0  0  0  0  0  0  0
    0.9253   -1.3104   -0.9045 H   0  0  0  0  0  0  0  0  0  0  0  0
    0.1262    0.7178   -1.2380 C   0  0  0  0  0  0  0  0  0  0  0  0
   -0.9065    0.8481   -1.5771 H   0  0  0  0  0  0  0  0  0  0  0  0
    0.3410    1.5662   -0.5782 H   0  0  0  0  0  0  0  0  0  0  0  0
    1.0334    0.8355   -2.4879 C   0  0  0  0  0  0  0  0  0  0  0  0
    0.5921    1.5401   -3.1979 H   0  0  0  0  0  0  0  0  0  0  0  0
    1.9900    1.2572   -2.1646 H   0  0  0  0  0  0  0  0  0  0  0  0
    1.3471   -0.4687   -3.2193 C   0  0  0  0  0  0  0  0  0  0  0  0
    0.4139   -1.1937   -3.5279 O   0  0  0  0  0  0  0  0  0  0  0  0
    2.6404   -0.7527   -3.4933 O   0  0  0  0  0  0  0  0  0  0  0  0
    2.6427   -1.6177   -3.9301 H   0  0  0  0  0  0  0  0  0  0  0  0
    0.8110   -0.3286    0.9600 C   0  0  0  0  0  0  0  0  0  0  0  0
    2.0252   -0.3336    1.1135 O   0  0  0  0  0  0  0  0  0  0  0  0
    0.0123    0.2219    1.9457 N   0  0  0  0  0  0  0  0  0  0  0  0
   -0.9864    0.0933    1.8186 H   0  0  0  0  0  0  0  0  0  0  0  0
    0.5123    0.5109    3.2839 C   0  0  0  0  0  0  0  0  0  0  0  0
    1.3406    1.2260    3.2390 H   0  0  0  0  0  0  0  0  0  0  0  0
   -0.2815    0.9438    3.8999 H   0  0  0  0  0  0  0  0  0  0  0  0
    0.8656   -0.4072    3.7654 H   0  0  0  0  0  0  0  0  0  0  0  0
  1  2  1  0  0  0  0
  2  3  1  0  0  0  0
  2  4  1  0  0  0  0
  2  5  1  0  0  0  0
  5  6  2  0  0  0  0
  5  7  1  0  0  0  0
  7  8  1  0  0  0  0
  7  9  1  0  0  0  0
  9 10  1  0  0  0  0
  9 11  1  0  0  0  0
  9 21  1  0  0  0  0
 11 12  1  0  0  0  0
 11 13  1  0  0  0  0
 11 14  1  0  0  0  0
 14 15  1  0  0  0  0
 14 16  1  0  0  0  0
 14 17  1  0  0  0  0
 17 18  2  0  0  0  0
 17 19  1  0  0  0  0
 19 20  1  0  0  0  0
 21 22  2  0  0  0  0
 21 23  1  0  0  0  0
 23 24  1  0  0  0  0
 23 25  1  0  0  0  0
 25 26  1  0  0  0  0
 25 27  1  0  0  0  0
 25 28  1  0  0  0  0
M  END
$$$$

  -OEChem-02102214123D

 28 27  0     1  0  0  0  0  0999 V2000
   -2.6133   -4.2082    0.2500 H   0  0  0  0  0  0  0  0  0  0  0  0
   -2.6104   -3.2259   -0.2311 C   0  0  0  0  0  0  0  0  0  0  0  0
   -3.4793   -2.6615    0.1155 H   0  0  0  0  0  0  0  0  0  0  0  0
   -2.6813   -3.3651   -1.3127 H   0  0  0  0  0  0  0  0  0  0  0  0
   -1.3349   -2.4804    0.1127 C   0  0  0  0  0  0  0  0  0  0  0  0
   -0.5316   -2.9770    0.8816 O   0  0  0  0  0  0  0  0  0  0  0  0
   -1.0999   -1.2397   -0.4464 N   0  0  0  0  0  0  0  0  0  0  0  0
   -1.7232   -0.9967   -1.2120 H   0  0  0  0  0  0  0  0  0  0  0  0
    0.2225   -0.5844   -0.4439 C   0  0  1  0  0  0  0  0  0  0  0  0
    0.9341   -1.2593   -0.9294 H   0  0  0  0  0  0  0  0  0  0  0  0
    0.1149    0.7550   -1.2219 C   0  0  0  0  0  0  0  0  0  0  0  0
   -0.9163    0.8968   -1.5619 H   0  0  0  0  0  0  0  0  0  0  0  0
    0.3416    1.5968   -0.5576 H   0  0  0  0  0  0  0  0  0  0  0  0
    1.0395    0.8460   -2.4557 C   0  0  0  0  0  0  0  0  0  0  0  0
    0.7606    1.7114   -3.0624 H   0  0  0  0  0  0  0  0  0  0  0  0
    2.0629    1.0077   -2.1033 H   0  0  0  0  0  0  0  0  0  0  0  0
    1.0473   -0.3978   -3.3457 C   0  0  0  0  0  0  0  0  0  0  0  0
   -0.0088   -0.9782   -3.5483 O   0  0  0  0  0  0  0  0  0  0  0  0
    2.2297   -0.7897   -3.8717 O   0  0  0  0  0  0  0  0  0  0  0  0
    2.0470   -1.5903   -4.3862 H   0  0  0  0  0  0  0  0  0  0  0  0
    0.8116   -0.3166    0.9606 C   0  0  0  0  0  0  0  0  0  0  0  0
    2.0262   -0.3119    1.1125 O   0  0  0  0  0  0  0  0  0  0  0  0
    0.0081    0.2115    1.9545 N   0  0  0  0  0  0  0  0  0  0  0  0
   -0.9898    0.0792    1.8240 H   0  0  0  0  0  0  0  0  0  0  0  0
    0.5052    0.4931    3.2952 C   0  0  0  0  0  0  0  0  0  0  0  0
    1.3301    1.2122    3.2561 H   0  0  0  0  0  0  0  0  0  0  0  0
   -0.2913    0.9180    3.9131 H   0  0  0  0  0  0  0  0  0  0  0  0
    0.8621   -0.4267    3.7705 H   0  0  0  0  0  0  0  0  0  0  0  0
  1  2  1  0  0  0  0
  2  3  1  0  0  0  0
  2  4  1  0  0  0  0
  2  5  1  0  0  0  0
  5  6  2  0  0  0  0
  5  7  1  0  0  0  0
  7  8  1  0  0  0  0
  7  9  1  0  0  0  0
  9 10  1  0  0  0  0
  9 11  1  0  0  0  0
  9 21  1  0  0  0  0
 11 12  1  0  0  0  0
 11 13  1  0  0  0  0
 11 14  1  0  0  0  0
 14 15  1  0  0  0  0
 14 16  1  0  0  0  0
 14 17  1  0  0  0  0
 17 18  2  0  0  0  0
 17 19  1  0  0  0  0
 19 20  1  0  0  0  0
 21 22  2  0  0  0  0
 21 23  1  0  0  0  0
 23 24  1  0  0  0  0
 23 25  1  0  0  0  0
 25 26  1  0  0  0  0
 25 27  1  0  0  0  0
 25 28  1  0  0  0  0
M  END
$$$$

  -OEChem-02102214123D

 28 27  0     1  0  0  0  0  0999 V2000
   -2.6023   -4.2032    0.1935 H   0  0  0  0  0  0  0  0  0  0  0  0
   -2.6008   -3.2144   -0.2739 C   0  0  0  0  0  0  0  0  0  0  0  0
   -3.4754   -2.6591    0.0729 H   0  0  0  0  0  0  0  0  0  0  0  0
   -2.6612   -3.3387   -1.3580 H   0  0  0  0  0  0  0  0  0  0  0  0
   -1.3331   -2.4663    0.0916 C   0  0  0  0  0  0  0  0  0  0  0  0
   -0.5354   -2.9669    0.8638 O   0  0  0  0  0  0  0  0  0  0  0  0
   -1.0986   -1.2199   -0.4542 N   0  0  0  0  0  0  0  0  0  0  0  0
   -1.7122   -0.9762   -1.2283 H   0  0  0  0  0  0  0  0  0  0  0  0
    0.2220   -0.5625   -0.4381 C   0  0  1  0  0  0  0  0  0  0  0  0
    0.9344   -1.2278   -0.9380 H   0  0  0  0  0  0  0  0  0  0  0  0
    0.1100    0.7755   -1.2118 C   0  0  0  0  0  0  0  0  0  0  0  0
   -0.9185    0.9381   -1.5515 H   0  0  0  0  0  0  0  0  0  0  0  0
    0.3549    1.6120   -0.5473 H   0  0  0  0  0  0  0  0  0  0  0  0
    1.0566    0.8292   -2.4276 C   0  0  0  0  0  0  0  0  0  0  0  0
    0.9611    1.8003   -2.9205 H   0  0  0  0  0  0  0  0  0  0  0  0
    2.0893    0.7381   -2.0763 H   0  0  0  0  0  0  0  0  0  0  0  0
    0.8009   -0.2654   -3.4674 C   0  0  0  0  0  0  0  0  0  0  0  0
   -0.3080   -0.7751   -3.5415 O   0  0  0  0  0  0  0  0  0  0  0  0
    1.8339   -0.6072   -4.2702 O   0  0  0  0  0  0  0  0  0  0  0  0
    1.5048   -1.3080   -4.8531 H   0  0  0  0  0  0  0  0  0  0  0  0
    0.8072   -0.3056    0.9700 C   0  0  0  0  0  0  0  0  0  0  0  0
    2.0216   -0.3002    1.1248 O   0  0  0  0  0  0  0  0  0  0  0  0
    0.0001    0.2125    1.9662 N   0  0  0  0  0  0  0  0  0  0  0  0
   -0.9974    0.0815    1.8310 H   0  0  0  0  0  0  0  0  0  0  0  0
    0.4920    0.4854    3.3107 C   0  0  0  0  0  0  0  0  0  0  0  0
    1.3124    1.2103    3.2799 H   0  0  0  0  0  0  0  0  0  0  0  0
   -0.3091    0.8998    3.9299 H   0  0  0  0  0  0  0  0  0  0  0  0
    0.8540   -0.4358    3.7795 H   0  0  0  0  0  0  0  0  0  0  0  0
  1  2  1  0  0  0  0
  2  3  1  0  0  0  0
  2  4  1  0  0  0  0
  2  5  1  0  0  0  0
  5  6  2  0  0  0  0
  5  7  1  0  0  0  0
  7  8  1  0  0  0  0
  7  9  1  0  0  0  0
  9 10  1  0  0  0  0
  9 11  1  0  0  0  0
  9 21  1  0  0  0  0
 11 12  1  0  0  0  0
 11 13  1  0  0  0  0
 11 14  1  0  0  0  0
 14 15  1  0  0  0  0
 14 16  1  0  0  0  0
 14 17  1  0  0  0  0
 17 18  2  0  0  0  0
 17 19  1  0  0  0  0
 19 20  1  0  0  0  0
 21 22  2  0  0  0  0
 21 23  1  0  0  0  0
 23 24  1  0  0  0  0
 23 25  1  0  0  0  0
 25 26  1  0  0  0  0
 25 27  1  0  0  0  0
 25 28  1  0  0  0  0
M  END
$$$$

  -OEChem-02102214123D

 28 27  0     1  0  0  0  0  0999 V2000
   -2.6201   -4.1938    0.1703 H   0  0  0  0  0  0  0  0  0  0  0  0
   -2.6139   -3.2009   -0.2883 C   0  0  0  0  0  0  0  0  0  0  0  0
   -3.4902   -2.6474    0.0569 H   0  0  0  0  0  0  0  0  0  0  0  0
   -2.6675   -3.3158   -1.3738 H   0  0  0  0  0  0  0  0  0  0  0  0
   -1.3476   -2.4579    0.0926 C   0  0  0  0  0  0  0  0  0  0  0  0
   -0.5642   -2.9585    0.8794 O   0  0  0  0  0  0  0  0  0  0  0  0
   -1.0997   -1.2141   -0.4529 N   0  0  0  0  0  0  0  0  0  0  0  0
   -1.7016   -0.9704   -1.2365 H   0  0  0  0  0  0  0  0  0  0  0  0
    0.2243   -0.5643   -0.4255 C   0  0  1  0  0  0  0  0  0  0  0  0
    0.9342   -1.2341   -0.9235 H   0  0  0  0  0  0  0  0  0  0  0  0
    0.1191    0.7675   -1.2076 C   0  0  0  0  0  0  0  0  0  0  0  0
   -0.9069    0.9551   -1.5420 H   0  0  0  0  0  0  0  0  0  0  0  0
    0.3838    1.5991   -0.5447 H   0  0  0  0  0  0  0  0  0  0  0  0
    1.0828    0.7925   -2.4107 C   0  0  0  0  0  0  0  0  0  0  0  0
    1.1742    1.8220   -2.7678 H   0  0  0  0  0  0  0  0  0  0  0  0
    2.0794    0.4677   -2.0955 H   0  0  0  0  0  0  0  0  0  0  0  0
    0.6243   -0.0675   -3.5927 C   0  0  0  0  0  0  0  0  0  0  0  0
   -0.4627   -0.6268   -3.5564 O   0  0  0  0  0  0  0  0  0  0  0  0
    1.4719   -0.1579   -4.6421 O   0  0  0  0  0  0  0  0  0  0  0  0
    1.0416   -0.7380   -5.2881 H   0  0  0  0  0  0  0  0  0  0  0  0
    0.8011   -0.3065    0.9859 C   0  0  0  0  0  0  0  0  0  0  0  0
    2.0143   -0.3083    1.1489 O   0  0  0  0  0  0  0  0  0  0  0  0
   -0.0097    0.2192    1.9750 N   0  0  0  0  0  0  0  0  0  0  0  0
   -1.0070    0.0916    1.8341 H   0  0  0  0  0  0  0  0  0  0  0  0
    0.4764    0.4953    3.3211 C   0  0  0  0  0  0  0  0  0  0  0  0
    1.2992    1.2176    3.2916 H   0  0  0  0  0  0  0  0  0  0  0  0
   -0.3262    0.9142    3.9355 H   0  0  0  0  0  0  0  0  0  0  0  0
    0.8336   -0.4255    3.7944 H   0  0  0  0  0  0  0  0  0  0  0  0
  1  2  1  0  0  0  0
  2  3  1  0  0  0  0
  2  4  1  0  0  0  0
  2  5  1  0  0  0  0
  5  6  2  0  0  0  0
  5  7  1  0  0  0  0
  7  8  1  0  0  0  0
  7  9  1  0  0  0  0
  9 10  1  0  0  0  0
  9 11  1  0  0  0  0
  9 21  1  0  0  0  0
 11 12  1  0  0  0  0
 11 13  1  0  0  0  0
 11 14  1  0  0  0  0
 14 15  1  0  0  0  0
 14 16  1  0  0  0  0
 14 17  1  0  0  0  0
 17 18  2  0  0  0  0
 17 19  1  0  0  0  0
 19 20  1  0  0  0  0
 21 22  2  0  0  0  0
 21 23  1  0  0  0  0
 23 24  1  0  0  0  0
 23 25  1  0  0  0  0
 25 26  1  0  0  0  0
 25 27  1  0  0  0  0
 25 28  1  0  0  0  0
M  END
$$$$

  -OEChem-02102214123D

 28 27  0     1  0  0  0  0  0999 V2000
   -2.6746   -4.1629    0.2206 H   0  0  0  0  0  0  0  0  0  0  0  0
   -2.6370   -3.1894   -0.2763 C   0  0  0  0  0  0  0  0  0  0  0  0
   -3.5072   -2.6039    0.0297 H   0  0  0  0  0  0  0  0  0  0  0  0
   -2.6725   -3.3459   -1.3572 H   0  0  0  0  0  0  0  0  0  0  0  0
   -1.3615   -2.4597    0.1001 C   0  0  0  0  0  0  0  0  0  0  0  0
   -0.5856   -2.9633    0.8923 O   0  0  0  0  0  0  0  0  0  0  0  0
   -1.0980   -1.2219   -0.4522 N   0  0  0  0  0  0  0  0  0  0  0  0
   -1.6980   -0.9700   -1.2345 H   0  0  0  0  0  0  0  0  0  0  0  0
    0.2307   -0.5823   -0.4167 C   0  0  1  0  0  0  0  0  0  0  0  0
    0.9362   -1.2655   -0.9023 H   0  0  0  0  0  0  0  0  0  0  0  0
    0.1408    0.7406   -1.2142 C   0  0  0  0  0  0  0  0  0  0  0  0
   -0.8826    0.9438   -1.5479 H   0  0  0  0  0  0  0  0  0  0  0  0
    0.4149    1.5710   -0.5534 H   0  0  0  0  0  0  0  0  0  0  0  0
    1.1165    0.7510   -2.4099 C   0  0  0  0  0  0  0  0  0  0  0  0
    1.3995    1.7881   -2.6115 H   0  0  0  0  0  0  0  0  0  0  0  0
    2.0371    0.2104   -2.1700 H   0  0  0  0  0  0  0  0  0  0  0  0
    0.5107    0.1911   -3.6993 C   0  0  0  0  0  0  0  0  0  0  0  0
   -0.5046   -0.4885   -3.6476 O   0  0  0  0  0  0  0  0  0  0  0  0
    1.1516    0.4853   -4.8533 O   0  0  0  0  0  0  0  0  0  0  0  0
    0.6515    0.0490   -5.5596 H   0  0  0  0  0  0  0  0  0  0  0  0
    0.7976   -0.3174    0.9973 C   0  0  0  0  0  0  0  0  0  0  0  0
    2.0096   -0.3236    1.1695 O   0  0  0  0  0  0  0  0  0  0  0  0
   -0.0177    0.2227    1.9750 N   0  0  0  0  0  0  0  0  0  0  0  0
   -1.0145    0.0970    1.8296 H   0  0  0  0  0  0  0  0  0  0  0  0
    0.4602    0.5145    3.3207 C   0  0  0  0  0  0  0  0  0  0  0  0
    1.2812    1.2387    3.2885 H   0  0  0  0  0  0  0  0  0  0  0  0
   -0.3473    0.9381    3.9254 H   0  0  0  0  0  0  0  0  0  0  0  0
    0.8166   -0.4001    3.8064 H   0  0  0  0  0  0  0  0  0  0  0  0
  1  2  1  0  0  0  0
  2  3  1  0  0  0  0
  2  4  1  0  0  0  0
  2  5  1  0  0  0  0
  5  6  2  0  0  0  0
  5  7  1  0  0  0  0
  7  8  1  0  0  0  0
  7  9  1  0  0  0  0
  9 10  1  0  0  0  0
  9 11  1  0  0  0  0
  9 21  1  0  0  0  0
 11 12  1  0  0  0  0
 11 13  1  0  0  0  0
 11 14  1  0  0  0  0
 14 15  1  0  0  0  0
 14 16  1  0  0  0  0
 14 17  1  0  0  0  0
 17 18  2  0  0  0  0
 17 19  1  0  0  0  0
 19 20  1  0  0  0  0
 21 22  2  0  0  0  0
 21 23  1  0  0  0  0
 23 24  1  0  0  0  0
 23 25  1  0  0  0  0
 25 26  1  0  0  0  0
 25 27  1  0  0  0  0
 25 28  1  0  0  0  0
M  END
$$$$

  -OEChem-02102214123D

 28 27  0     1  0  0  0  0  0999 V2000
   -2.7009   -4.1545    0.2538 H   0  0  0  0  0  0  0  0  0  0  0  0
   -2.6606   -3.1806   -0.2422 C   0  0  0  0  0  0  0  0  0  0  0  0
   -3.5162   -2.5841    0.0832 H   0  0  0  0  0  0  0  0  0  0  0  0
   -2.7209   -3.3344   -1.3223 H   0  0  0  0  0  0  0  0  0  0  0  0
   -1.3676   -2.4690    0.1089 C   0  0  0  0  0  0  0  0  0  0  0  0
   -0.5879   -2.9796    0.8928 O   0  0  0  0  0  0  0  0  0  0  0  0
   -1.0914   -1.2391   -0.4550 N   0  0  0  0  0  0  0  0  0  0  0  0
   -1.7048   -0.9697   -1.2204 H   0  0  0  0  0  0  0  0  0  0  0  0
    0.2400   -0.6042   -0.4176 C   0  0  1  0  0  0  0  0  0  0  0  0
    0.9451   -1.2986   -0.8867 H   0  0  0  0  0  0  0  0  0  0  0  0
    0.1600    0.7110   -1.2301 C   0  0  0  0  0  0  0  0  0  0  0  0
   -0.8643    0.9140   -1.5604 H   0  0  0  0  0  0  0  0  0  0  0  0
    0.4310    1.5461   -0.5737 H   0  0  0  0  0  0  0  0  0  0  0  0
    1.1391    0.7242   -2.4270 C   0  0  0  0  0  0  0  0  0  0  0  0
    1.6209    1.7057   -2.4609 H   0  0  0  0  0  0  0  0  0  0  0  0
    1.9378   -0.0128   -2.3070 H   0  0  0  0  0  0  0  0  0  0  0  0
    0.4476    0.5105   -3.7737 C   0  0  0  0  0  0  0  0  0  0  0  0
   -0.5450   -0.2005   -3.8279 O   0  0  0  0  0  0  0  0  0  0  0  0
    0.9838    1.1265   -4.8521 O   0  0  0  0  0  0  0  0  0  0  0  0
    0.4347    0.8725   -5.6093 H   0  0  0  0  0  0  0  0  0  0  0  0
    0.7966   -0.3254    0.9979 C   0  0  0  0  0  0  0  0  0  0  0  0
    2.0068   -0.3383    1.1815 O   0  0  0  0  0  0  0  0  0  0  0  0
   -0.0231    0.2292    1.9638 N   0  0  0  0  0  0  0  0  0  0  0  0
   -1.0198    0.1141    1.8103 H   0  0  0  0  0  0  0  0  0  0  0  0
    0.4463    0.5310    3.3102 C   0  0  0  0  0  0  0  0  0  0  0  0
    1.2702    1.2519    3.2770 H   0  0  0  0  0  0  0  0  0  0  0  0
   -0.3637    0.9624    3.9061 H   0  0  0  0  0  0  0  0  0  0  0  0
    0.7964   -0.3807    3.8059 H   0  0  0  0  0  0  0  0  0  0  0  0
  1  2  1  0  0  0  0
  2  3  1  0  0  0  0
  2  4  1  0  0  0  0
  2  5  1  0  0  0  0
  5  6  2  0  0  0  0
  5  7  1  0  0  0  0
  7  8  1  0  0  0  0
  7  9  1  0  0  0  0
  9 10  1  0  0  0  0
  9 11  1  0  0  0  0
  9 21  1  0  0  0  0
 11 12  1  0  0  0  0
 11 13  1  0  0  0  0
 11 14  1  0  0  0  0
 14 15  1  0  0  0  0
 14 16  1  0  0  0  0
 14 17  1  0  0  0  0
 17 18  2  0  0  0  0
 17 19  1  0  0  0  0
 19 20  1  0  0  0  0
 21 22  2  0  0  0  0
 21 23  1  0  0  0  0
 23 24  1  0  0  0  0
 23 25  1  0  0  0  0
 25 26  1  0  0  0  0
 25 27  1  0  0  0  0
 25 28  1  0  0  0  0
M  END
$$$$

  -OEChem-02102214123D

 28 27  0     1  0  0  0  0  0999 V2000
   -2.7285   -4.1453    0.2963 H   0  0  0  0  0  0  0  0  0  0  0  0
   -2.6832   -3.1750   -0.2065 C   0  0  0  0  0  0  0  0  0  0  0  0
   -3.5247   -2.5646    0.1292 H   0  0  0  0  0  0  0  0  0  0  0  0
   -2.7638   -3.3351   -1.2845 H   0  0  0  0  0  0  0  0  0  0  0  0
   -1.3750   -2.4792    0.1187 C   0  0  0  0  0  0  0  0  0  0  0  0
   -0.5888   -2.9960    0.8918 O   0  0  0  0  0  0  0  0  0  0  0  0
   -1.0910   -1.2562   -0.4565 N   0  0  0  0  0  0  0  0  0  0  0  0
   -1.7197   -0.9713   -1.2033 H   0  0  0  0  0  0  0  0  0  0  0  0
    0.2433   -0.6256   -0.4253 C   0  0  1  0  0  0  0  0  0  0  0  0
    0.9467   -1.3289   -0.8827 H   0  0  0  0  0  0  0  0  0  0  0  0
    0.1751    0.6865   -1.2462 C   0  0  0  0  0  0  0  0  0  0  0  0
   -0.8505    0.8727   -1.5817 H   0  0  0  0  0  0  0  0  0  0  0  0
    0.4313    1.5326   -0.5982 H   0  0  0  0  0  0  0  0  0  0  0  0
    1.1527    0.7002   -2.4471 C   0  0  0  0  0  0  0  0  0  0  0  0
    1.8448    1.5385   -2.3229 H   0  0  0  0  0  0  0  0  0  0  0  0
    1.7620   -0.2062   -2.4882 H   0  0  0  0  0  0  0  0  0  0  0  0
    0.4423    0.8601   -3.7899 C   0  0  0  0  0  0  0  0  0  0  0  0
   -0.5539    0.1892   -4.0121 O   0  0  0  0  0  0  0  0  0  0  0  0
    0.9579    1.7471   -4.6713 O   0  0  0  0  0  0  0  0  0  0  0  0
    0.3923    1.7062   -5.4572 H   0  0  0  0  0  0  0  0  0  0  0  0
    0.7977   -0.3359    0.9887 C   0  0  0  0  0  0  0  0  0  0  0  0
    2.0073   -0.3506    1.1746 O   0  0  0  0  0  0  0  0  0  0  0  0
   -0.0220    0.2304    1.9478 N   0  0  0  0  0  0  0  0  0  0  0  0
   -1.0192    0.1236    1.7921 H   0  0  0  0  0  0  0  0  0  0  0  0
    0.4468    0.5520    3.2898 C   0  0  0  0  0  0  0  0  0  0  0  0
    1.2626    1.2815    3.2461 H   0  0  0  0  0  0  0  0  0  0  0  0
   -0.3666    0.9808    3.8827 H   0  0  0  0  0  0  0  0  0  0  0  0
    0.8078   -0.3503    3.7948 H   0  0  0  0  0  0  0  0  0  0  0  0
  1  2  1  0  0  0  0
  2  3  1  0  0  0  0
  2  4  1  0  0  0  0
  2  5  1  0  0  0  0
  5  6  2  0  0  0  0
  5  7  1  0  0  0  0
  7  8  1  0  0  0  0
  7  9  1  0  0  0  0
  9 10  1  0  0  0  0
  9 11  1  0  0  0  0
  9 21  1  0  0  0  0
 11 12  1  0  0  0  0
 11 13  1  0  0  0  0
 11 14  1  0  0  0  0
 14 15  1  0  0  0  0
 14 16  1  0  0  0  0
 14 17  1  0  0  0  0
 17 18  2  0  0  0  0
 17 19  1  0  0  0  0
 19 20  1  0  0  0  0
 21 22  2  0  0  0  0
 21 23  1  0  0  0  0
 23 24  1  0  0  0  0
 23 25  1  0  0  0  0
 25 26  1  0  0  0  0
 25 27  1  0  0  0  0
 25 28  1  0  0  0  0
M  END
$$$$

  -OEChem-02102214123D

 28 27  0     1  0  0  0  0  0999 V2000
   -2.7590   -4.0998    0.4139 H   0  0  0  0  0  0  0  0  0  0  0  0
   -2.6919   -3.1662   -0.1519 C   0  0  0  0  0  0  0  0  0  0  0  0
   -3.5136   -2.5129    0.1506 H   0  0  0  0  0  0  0  0  0  0  0  0
   -2.7877   -3.3929   -1.2166 H   0  0  0  0  0  0  0  0  0  0  0  0
   -1.3615   -2.4885    0.1171 C   0  0  0  0  0  0  0  0  0  0  0  0
   -0.5494   -3.0175    0.8539 O   0  0  0  0  0  0  0  0  0  0  0  0
   -1.0860   -1.2662   -0.4645 N   0  0  0  0  0  0  0  0  0  0  0  0
   -1.7457   -0.9563   -1.1731 H   0  0  0  0  0  0  0  0  0  0  0  0
    0.2451   -0.6269   -0.4459 C   0  0  1  0  0  0  0  0  0  0  0  0
    0.9532   -1.3264   -0.9023 H   0  0  0  0  0  0  0  0  0  0  0  0
    0.1760    0.6845   -1.2674 C   0  0  0  0  0  0  0  0  0  0  0  0
   -0.8506    0.8404   -1.6143 H   0  0  0  0  0  0  0  0  0  0  0  0
    0.4117    1.5440   -0.6291 H   0  0  0  0  0  0  0  0  0  0  0  0
    1.1500    0.6931   -2.4700 C   0  0  0  0  0  0  0  0  0  0  0  0
    2.0203    1.3097   -2.2252 H   0  0  0  0  0  0  0  0  0  0  0  0
    1.5205   -0.3117   -2.6875 H   0  0  0  0  0  0  0  0  0  0  0  0
    0.4997    1.2129   -3.7495 C   0  0  0  0  0  0  0  0  0  0  0  0
   -0.5230    0.6759   -4.1448 O   0  0  0  0  0  0  0  0  0  0  0  0
    1.0893    2.2546   -4.3794 O   0  0  0  0  0  0  0  0  0  0  0  0
    0.5477    2.4377   -5.1619 H   0  0  0  0  0  0  0  0  0  0  0  0
    0.8006   -0.3312    0.9663 C   0  0  0  0  0  0  0  0  0  0  0  0
    2.0098   -0.3454    1.1544 O   0  0  0  0  0  0  0  0  0  0  0  0
   -0.0218    0.2318    1.9251 N   0  0  0  0  0  0  0  0  0  0  0  0
   -1.0185    0.1264    1.7660 H   0  0  0  0  0  0  0  0  0  0  0  0
    0.4416    0.5428    3.2715 C   0  0  0  0  0  0  0  0  0  0  0  0
    1.2694    1.2589    3.2371 H   0  0  0  0  0  0  0  0  0  0  0  0
   -0.3695    0.9836    3.8590 H   0  0  0  0  0  0  0  0  0  0  0  0
    0.7841   -0.3664    3.7769 H   0  0  0  0  0  0  0  0  0  0  0  0
  1  2  1  0  0  0  0
  2  3  1  0  0  0  0
  2  4  1  0  0  0  0
  2  5  1  0  0  0  0
  5  6  2  0  0  0  0
  5  7  1  0  0  0  0
  7  8  1  0  0  0  0
  7  9  1  0  0  0  0
  9 10  1  0  0  0  0
  9 11  1  0  0  0  0
  9 21  1  0  0  0  0
 11 12  1  0  0  0  0
 11 13  1  0  0  0  0
 11 14  1  0  0  0  0
 14 15  1  0  0  0  0
 14 16  1  0  0  0  0
 14 17  1  0  0  0  0
 17 18  2  0  0  0  0
 17 19  1  0  0  0  0
 19 20  1  0  0  0  0
 21 22  2  0  0  0  0
 21 23  1  0  0  0  0
 23 24  1  0  0  0  0
 23 25  1  0  0  0  0
 25 26  1  0  0  0  0
 25 27  1  0  0  0  0
 25 28  1  0  0  0  0
M  END
$$$$

  -OEChem-02102214123D

 28 27  0     1  0  0  0  0  0999 V2000
   -2.6429   -4.1796    0.2919 H   0  0  0  0  0  0  0  0  0  0  0  0
   -2.6218   -3.2109   -0.2156 C   0  0  0  0  0  0  0  0  0  0  0  0
   -3.4451   -2.5991    0.1607 H   0  0  0  0  0  0  0  0  0  0  0  0
   -2.7568   -3.3738   -1.2876 H   0  0  0  0  0  0  0  0  0  0  0  0
   -1.2974   -2.5168    0.0403 C   0  0  0  0  0  0  0  0  0  0  0  0
   -0.4395   -3.0691    0.7043 O   0  0  0  0  0  0  0  0  0  0  0  0
   -1.0733   -1.2577   -0.4807 N   0  0  0  0  0  0  0  0  0  0  0  0
   -1.7891   -0.8939   -1.1028 H   0  0  0  0  0  0  0  0  0  0  0  0
    0.2282   -0.5613   -0.4349 C   0  0  1  0  0  0  0  0  0  0  0  0
    0.9639   -1.2109   -0.9218 H   0  0  0  0  0  0  0  0  0  0  0  0
    0.1164    0.7765   -1.2055 C   0  0  0  0  0  0  0  0  0  0  0  0
   -0.9084    0.8799   -1.5768 H   0  0  0  0  0  0  0  0  0  0  0  0
    0.2949    1.6286   -0.5394 H   0  0  0  0  0  0  0  0  0  0  0  0
    1.1032    0.8526   -2.3945 C   0  0  0  0  0  0  0  0  0  0  0  0
    2.0678    1.2308   -2.0434 H   0  0  0  0  0  0  0  0  0  0  0  0
    1.2719   -0.1500   -2.7971 H   0  0  0  0  0  0  0  0  0  0  0  0
    0.6226    1.7085   -3.5686 C   0  0  0  0  0  0  0  0  0  0  0  0
   -0.3088    2.4830   -3.4185 O   0  0  0  0  0  0  0  0  0  0  0  0
    1.2784    1.5543   -4.7414 O   0  0  0  0  0  0  0  0  0  0  0  0
    0.8663    2.1745   -5.3620 H   0  0  0  0  0  0  0  0  0  0  0  0
    0.7829   -0.3052    0.9852 C   0  0  0  0  0  0  0  0  0  0  0  0
    1.9934   -0.2726    1.1622 O   0  0  0  0  0  0  0  0  0  0  0  0
   -0.0518    0.1767    1.9771 N   0  0  0  0  0  0  0  0  0  0  0  0
   -1.0470    0.0558    1.8215 H   0  0  0  0  0  0  0  0  0  0  0  0
    0.4182    0.4907    3.3206 C   0  0  0  0  0  0  0  0  0  0  0  0
    1.1748    1.2819    3.2865 H   0  0  0  0  0  0  0  0  0  0  0  0
   -0.4135    0.8364    3.9418 H   0  0  0  0  0  0  0  0  0  0  0  0
    0.8575   -0.3960    3.7897 H   0  0  0  0  0  0  0  0  0  0  0  0
  1  2  1  0  0  0  0
  2  3  1  0  0  0  0
  2  4  1  0  0  0  0
  2  5  1  0  0  0  0
  5  6  2  0  0  0  0
  5  7  1  0  0  0  0
  7  8  1  0  0  0  0
  7  9  1  0  0  0  0
  9 10  1  0  0  0  0
  9 11  1  0  0  0  0
  9 21  1  0  0  0  0
 11 12  1  0  0  0  0
 11 13  1  0  0  0  0
 11 14  1  0  0  0  0
 14 15  1  0  0  0  0
 14 16  1  0  0  0  0
 14 17  1  0  0  0  0
 17 18  2  0  0  0  0
 17 19  1  0  0  0  0
 19 20  1  0  0  0  0
 21 22  2  0  0  0  0
 21 23  1  0  0  0  0
 23 24  1  0  0  0  0
 23 25  1  0  0  0  0
 25 26  1  0  0  0  0
 25 27  1  0  0  0  0
 25 28  1  0  0  0  0
M  END
$$$$

  -OEChem-02102214123D

 28 27  0     1  0  0  0  0  0999 V2000
   -2.6123   -4.1997    0.2798 H   0  0  0  0  0  0  0  0  0  0  0  0
   -2.6228   -3.2077   -0.1807 C   0  0  0  0  0  0  0  0  0  0  0  0
   -3.4317   -2.6227    0.2636 H   0  0  0  0  0  0  0  0  0  0  0  0
   -2.8083   -3.3209   -1.2515 H   0  0  0  0  0  0  0  0  0  0  0  0
   -1.2929   -2.5136    0.0458 C   0  0  0  0  0  0  0  0  0  0  0  0
   -0.4242   -3.0638    0.6973 O   0  0  0  0  0  0  0  0  0  0  0  0
   -1.0779   -1.2549   -0.4809 N   0  0  0  0  0  0  0  0  0  0  0  0
   -1.8055   -0.8883   -1.0875 H   0  0  0  0  0  0  0  0  0  0  0  0
    0.2208   -0.5530   -0.4442 C   0  0  1  0  0  0  0  0  0  0  0  0
    0.9561   -1.1997   -0.9362 H   0  0  0  0  0  0  0  0  0  0  0  0
    0.1042    0.7781   -1.2223 C   0  0  0  0  0  0  0  0  0  0  0  0
   -0.9178    0.8874   -1.6001 H   0  0  0  0  0  0  0  0  0  0  0  0
    0.2918    1.6326   -0.5616 H   0  0  0  0  0  0  0  0  0  0  0  0
    1.0931    0.8302   -2.4063 C   0  0  0  0  0  0  0  0  0  0  0  0
    2.1094    0.9622   -2.0225 H   0  0  0  0  0  0  0  0  0  0  0  0
    1.0633   -0.1196   -2.9478 H   0  0  0  0  0  0  0  0  0  0  0  0
    0.8006    1.9342   -3.4245 C   0  0  0  0  0  0  0  0  0  0  0  0
   -0.1517    2.6802   -3.2612 O   0  0  0  0  0  0  0  0  0  0  0  0
    1.6377    2.0194   -4.4831 O   0  0  0  0  0  0  0  0  0  0  0  0
    1.3238    2.7683   -5.0123 H   0  0  0  0  0  0  0  0  0  0  0  0
    0.7798   -0.2909    0.9731 C   0  0  0  0  0  0  0  0  0  0  0  0
    1.9907   -0.2632    1.1480 O   0  0  0  0  0  0  0  0  0  0  0  0
   -0.0531    0.1903    1.9668 N   0  0  0  0  0  0  0  0  0  0  0  0
   -1.0482    0.0687    1.8112 H   0  0  0  0  0  0  0  0  0  0  0  0
    0.4166    0.4812    3.3157 C   0  0  0  0  0  0  0  0  0  0  0  0
    1.2049    1.2412    3.2931 H   0  0  0  0  0  0  0  0  0  0  0  0
   -0.4064    0.8582    3.9301 H   0  0  0  0  0  0  0  0  0  0  0  0
    0.8147   -0.4247    3.7849 H   0  0  0  0  0  0  0  0  0  0  0  0
  1  2  1  0  0  0  0
  2  3  1  0  0  0  0
  2  4  1  0  0  0  0
  2  5  1  0  0  0  0
  5  6  2  0  0  0  0
  5  7  1  0  0  0  0
  7  8  1  0  0  0  0
  7  9  1  0  0  0  0
  9 10  1  0  0  0  0
  9 11  1  0  0  0  0
  9 21  1  0  0  0  0
 11 12  1  0  0  0  0
 11 13  1  0  0  0  0
 11 14  1  0  0  0  0
 14 15  1  0  0  0  0
 14 16  1  0  0  0  0
 14 17  1  0  0  0  0
 17 18  2  0  0  0  0
 17 19  1  0  0  0  0
 19 20  1  0  0  0  0
 21 22  2  0  0  0  0
 21 23  1  0  0  0  0
 23 24  1  0  0  0  0
 23 25  1  0  0  0  0
 25 26  1  0  0  0  0
 25 27  1  0  0  0  0
 25 28  1  0  0  0  0
M  END
$$$$

  -OEChem-02102214123D

 28 27  0     1  0  0  0  0  0999 V2000
   -2.6301   -4.1793    0.2701 H   0  0  0  0  0  0  0  0  0  0  0  0
   -2.6297   -3.1847   -0.1852 C   0  0  0  0  0  0  0  0  0  0  0  0
   -3.4384   -2.5963    0.2547 H   0  0  0  0  0  0  0  0  0  0  0  0
   -2.8060   -3.2906   -1.2583 H   0  0  0  0  0  0  0  0  0  0  0  0
   -1.2977   -2.5004    0.0567 C   0  0  0  0  0  0  0  0  0  0  0  0
   -0.4414   -3.0547    0.7209 O   0  0  0  0  0  0  0  0  0  0  0  0
   -1.0659   -1.2485   -0.4782 N   0  0  0  0  0  0  0  0  0  0  0  0
   -1.7818   -0.8845   -1.0999 H   0  0  0  0  0  0  0  0  0  0  0  0
    0.2407   -0.5620   -0.4453 C   0  0  1  0  0  0  0  0  0  0  0  0
    0.9800   -1.2047   -0.9370 H   0  0  0  0  0  0  0  0  0  0  0  0
    0.1141    0.7688   -1.2178 C   0  0  0  0  0  0  0  0  0  0  0  0
   -0.9389    1.0487   -1.3296 H   0  0  0  0  0  0  0  0  0  0  0  0
    0.5998    1.5736   -0.6528 H   0  0  0  0  0  0  0  0  0  0  0  0
    0.7927    0.6752   -2.5984 C   0  0  0  0  0  0  0  0  0  0  0  0
    1.8511    0.4329   -2.4618 H   0  0  0  0  0  0  0  0  0  0  0  0
    0.3375   -0.1323   -3.1780 H   0  0  0  0  0  0  0  0  0  0  0  0
    0.7045    1.9620   -3.4200 C   0  0  0  0  0  0  0  0  0  0  0  0
   -0.0736    2.8419   -3.0884 O   0  0  0  0  0  0  0  0  0  0  0  0
    1.5010    2.0446   -4.5098 O   0  0  0  0  0  0  0  0  0  0  0  0
    1.3245    2.9122   -4.9045 H   0  0  0  0  0  0  0  0  0  0  0  0
    0.7909   -0.3019    0.9763 C   0  0  0  0  0  0  0  0  0  0  0  0
    2.0005   -0.2923    1.1620 O   0  0  0  0  0  0  0  0  0  0  0  0
   -0.0439    0.1925    1.9618 N   0  0  0  0  0  0  0  0  0  0  0  0
   -1.0392    0.0830    1.7985 H   0  0  0  0  0  0  0  0  0  0  0  0
    0.4191    0.4789    3.3139 C   0  0  0  0  0  0  0  0  0  0  0  0
    1.2164    1.2296    3.2957 H   0  0  0  0  0  0  0  0  0  0  0  0
   -0.4037    0.8664    3.9221 H   0  0  0  0  0  0  0  0  0  0  0  0
    0.8037   -0.4312    3.7866 H   0  0  0  0  0  0  0  0  0  0  0  0
  1  2  1  0  0  0  0
  2  3  1  0  0  0  0
  2  4  1  0  0  0  0
  2  5  1  0  0  0  0
  5  6  2  0  0  0  0
  5  7  1  0  0  0  0
  7  8  1  0  0  0  0
  7  9  1  0  0  0  0
  9 10  1  0  0  0  0
  9 11  1  0  0  0  0
  9 21  1  0  0  0  0
 11 12  1  0  0  0  0
 11 13  1  0  0  0  0
 11 14  1  0  0  0  0
 14 15  1  0  0  0  0
 14 16  1  0  0  0  0
 14 17  1  0  0  0  0
 17 18  2  0  0  0  0
 17 19  1  0  0  0  0
 19 20  1  0  0  0  0
 21 22  2  0  0  0  0
 21 23  1  0  0  0  0
 23 24  1  0  0  0  0
 23 25  1  0  0  0  0
 25 26  1  0  0  0  0
 25 27  1  0  0  0  0
 25 28  1  0  0  0  0
M  END
$$$$

  -OEChem-02102214123D

 28 27  0     1  0  0  0  0  0999 V2000
   -2.6568   -4.1569    0.3332 H   0  0  0  0  0  0  0  0  0  0  0  0
   -2.6415   -3.1799   -0.1586 C   0  0  0  0  0  0  0  0  0  0  0  0
   -3.4393   -2.5627    0.2611 H   0  0  0  0  0  0  0  0  0  0  0  0
   -2.8220   -3.3224   -1.2268 H   0  0  0  0  0  0  0  0  0  0  0  0
   -1.2983   -2.5086    0.0565 C   0  0  0  0  0  0  0  0  0  0  0  0
   -0.4373   -3.0685    0.7098 O   0  0  0  0  0  0  0  0  0  0  0  0
   -1.0630   -1.2604   -0.4857 N   0  0  0  0  0  0  0  0  0  0  0  0
   -1.7838   -0.8905   -1.0982 H   0  0  0  0  0  0  0  0  0  0  0  0
    0.2454   -0.5779   -0.4589 C   0  0  1  0  0  0  0  0  0  0  0  0
    0.9819   -1.2251   -0.9485 H   0  0  0  0  0  0  0  0  0  0  0  0
    0.1144    0.7507   -1.2365 C   0  0  0  0  0  0  0  0  0  0  0  0
   -0.9345    1.0486   -1.3380 H   0  0  0  0  0  0  0  0  0  0  0  0
    0.6149    1.5440   -0.6676 H   0  0  0  0  0  0  0  0  0  0  0  0
    0.7818    0.6694   -2.6244 C   0  0  0  0  0  0  0  0  0  0  0  0
    1.7666    0.2025   -2.5244 H   0  0  0  0  0  0  0  0  0  0  0  0
    0.1826    0.0457   -3.2929 H   0  0  0  0  0  0  0  0  0  0  0  0
    0.9943    2.0380   -3.2718 C   0  0  0  0  0  0  0  0  0  0  0  0
    0.2586    2.9635   -2.9692 O   0  0  0  0  0  0  0  0  0  0  0  0
    1.9909    2.1444   -4.1796 O   0  0  0  0  0  0  0  0  0  0  0  0
    1.9842    3.0672   -4.4757 H   0  0  0  0  0  0  0  0  0  0  0  0
    0.7977   -0.3121    0.9609 C   0  0  0  0  0  0  0  0  0  0  0  0
    2.0071   -0.3071    1.1469 O   0  0  0  0  0  0  0  0  0  0  0  0
   -0.0347    0.1901    1.9444 N   0  0  0  0  0  0  0  0  0  0  0  0
   -1.0309    0.0917    1.7800 H   0  0  0  0  0  0  0  0  0  0  0  0
    0.4299    0.4886    3.2931 C   0  0  0  0  0  0  0  0  0  0  0  0
    1.2236    1.2428    3.2669 H   0  0  0  0  0  0  0  0  0  0  0  0
   -0.3932    0.8767    3.9005 H   0  0  0  0  0  0  0  0  0  0  0  0
    0.8197   -0.4161    3.7716 H   0  0  0  0  0  0  0  0  0  0  0  0
  1  2  1  0  0  0  0
  2  3  1  0  0  0  0
  2  4  1  0  0  0  0
  2  5  1  0  0  0  0
  5  6  2  0  0  0  0
  5  7  1  0  0  0  0
  7  8  1  0  0  0  0
  7  9  1  0  0  0  0
  9 10  1  0  0  0  0
  9 11  1  0  0  0  0
  9 21  1  0  0  0  0
 11 12  1  0  0  0  0
 11 13  1  0  0  0  0
 11 14  1  0  0  0  0
 14 15  1  0  0  0  0
 14 16  1  0  0  0  0
 14 17  1  0  0  0  0
 17 18  2  0  0  0  0
 17 19  1  0  0  0  0
 19 20  1  0  0  0  0
 21 22  2  0  0  0  0
 21 23  1  0  0  0  0
 23 24  1  0  0  0  0
 23 25  1  0  0  0  0
 25 26  1  0  0  0  0
 25 27  1  0  0  0  0
 25 28  1  0  0  0  0
M  END
$$$$

  -OEChem-02102214123D

 28 27  0     1  0  0  0  0  0999 V2000
   -2.6612   -4.1590    0.3305 H   0  0  0  0  0  0  0  0  0  0  0  0
   -2.6466   -3.1807   -0.1586 C   0  0  0  0  0  0  0  0  0  0  0  0
   -3.4475   -2.5669    0.2601 H   0  0  0  0  0  0  0  0  0  0  0  0
   -2.8233   -3.3208   -1.2277 H   0  0  0  0  0  0  0  0  0  0  0  0
   -1.3055   -2.5071    0.0623 C   0  0  0  0  0  0  0  0  0  0  0  0
   -0.4469   -3.0660    0.7197 O   0  0  0  0  0  0  0  0  0  0  0  0
   -1.0680   -1.2608   -0.4838 N   0  0  0  0  0  0  0  0  0  0  0  0
   -1.7838   -0.8985   -1.1066 H   0  0  0  0  0  0  0  0  0  0  0  0
    0.2444   -0.5855   -0.4663 C   0  0  1  0  0  0  0  0  0  0  0  0
    0.9736   -1.2404   -0.9551 H   0  0  0  0  0  0  0  0  0  0  0  0
    0.1104    0.7443   -1.2450 C   0  0  0  0  0  0  0  0  0  0  0  0
   -0.9357    1.0566   -1.3305 H   0  0  0  0  0  0  0  0  0  0  0  0
    0.6227    1.5266   -0.6711 H   0  0  0  0  0  0  0  0  0  0  0  0
    0.7614    0.6782   -2.6446 C   0  0  0  0  0  0  0  0  0  0  0  0
    1.6170   -0.0030   -2.6227 H   0  0  0  0  0  0  0  0  0  0  0  0
    0.0468    0.2882   -3.3739 H   0  0  0  0  0  0  0  0  0  0  0  0
    1.2908    2.0301   -3.1215 C   0  0  0  0  0  0  0  0  0  0  0  0
    0.6504    3.0374   -2.8678 O   0  0  0  0  0  0  0  0  0  0  0  0
    2.4433    2.0362   -3.8294 O   0  0  0  0  0  0  0  0  0  0  0  0
    2.6245    2.9656   -4.0365 H   0  0  0  0  0  0  0  0  0  0  0  0
    0.8067   -0.3206    0.9503 C   0  0  0  0  0  0  0  0  0  0  0  0
    2.0173   -0.3198    1.1290 O   0  0  0  0  0  0  0  0  0  0  0  0
   -0.0179    0.1877    1.9374 N   0  0  0  0  0  0  0  0  0  0  0  0
   -1.0156    0.0947    1.7788 H   0  0  0  0  0  0  0  0  0  0  0  0
    0.4561    0.4961    3.2808 C   0  0  0  0  0  0  0  0  0  0  0  0
    1.2535    1.2458    3.2428 H   0  0  0  0  0  0  0  0  0  0  0  0
   -0.3616    0.8944    3.8888 H   0  0  0  0  0  0  0  0  0  0  0  0
    0.8437   -0.4061    3.7659 H   0  0  0  0  0  0  0  0  0  0  0  0
  1  2  1  0  0  0  0
  2  3  1  0  0  0  0
  2  4  1  0  0  0  0
  2  5  1  0  0  0  0
  5  6  2  0  0  0  0
  5  7  1  0  0  0  0
  7  8  1  0  0  0  0
  7  9  1  0  0  0  0
  9 10  1  0  0  0  0
  9 11  1  0  0  0  0
  9 21  1  0  0  0  0
 11 12  1  0  0  0  0
 11 13  1  0  0  0  0
 11 14  1  0  0  0  0
 14 15  1  0  0  0  0
 14 16  1  0  0  0  0
 14 17  1  0  0  0  0
 17 18  2  0  0  0  0
 17 19  1  0  0  0  0
 19 20  1  0  0  0  0
 21 22  2  0  0  0  0
 21 23  1  0  0  0  0
 23 24  1  0  0  0  0
 23 25  1  0  0  0  0
 25 26  1  0  0  0  0
 25 27  1  0  0  0  0
 25 28  1  0  0  0  0
M  END
$$$$

  -OEChem-02102214123D

 28 27  0     1  0  0  0  0  0999 V2000
   -2.6624   -4.1571    0.3312 H   0  0  0  0  0  0  0  0  0  0  0  0
   -2.6469   -3.1799   -0.1602 C   0  0  0  0  0  0  0  0  0  0  0  0
   -3.4481   -2.5646    0.2558 H   0  0  0  0  0  0  0  0  0  0  0  0
   -2.8221   -3.3223   -1.2293 H   0  0  0  0  0  0  0  0  0  0  0  0
   -1.3061   -2.5059    0.0612 C   0  0  0  0  0  0  0  0  0  0  0  0
   -0.4478   -3.0632    0.7201 O   0  0  0  0  0  0  0  0  0  0  0  0
   -1.0692   -1.2600   -0.4860 N   0  0  0  0  0  0  0  0  0  0  0  0
   -1.7832   -0.9030   -1.1138 H   0  0  0  0  0  0  0  0  0  0  0  0
    0.2450   -0.5872   -0.4770 C   0  0  1  0  0  0  0  0  0  0  0  0
    0.9716   -1.2433   -0.9681 H   0  0  0  0  0  0  0  0  0  0  0  0
    0.1071    0.7469   -1.2504 C   0  0  0  0  0  0  0  0  0  0  0  0
   -0.9402    1.0569   -1.3250 H   0  0  0  0  0  0  0  0  0  0  0  0
    0.6152    1.5274   -0.6706 H   0  0  0  0  0  0  0  0  0  0  0  0
    0.7426    0.6996   -2.6607 C   0  0  0  0  0  0  0  0  0  0  0  0
    1.4047   -0.1654   -2.7552 H   0  0  0  0  0  0  0  0  0  0  0  0
   -0.0393    0.5926   -3.4169 H   0  0  0  0  0  0  0  0  0  0  0  0
    1.5782    1.9389   -2.9756 C   0  0  0  0  0  0  0  0  0  0  0  0
    1.0870    3.0385   -2.7804 O   0  0  0  0  0  0  0  0  0  0  0  0
    2.8209    1.7525   -3.4755 O   0  0  0  0  0  0  0  0  0  0  0  0
    3.1966    2.6378   -3.5954 H   0  0  0  0  0  0  0  0  0  0  0  0
    0.8158   -0.3247    0.9369 C   0  0  0  0  0  0  0  0  0  0  0  0
    2.0274   -0.3250    1.1078 O   0  0  0  0  0  0  0  0  0  0  0  0
   -0.0016    0.1844    1.9296 N   0  0  0  0  0  0  0  0  0  0  0  0
   -1.0001    0.0864    1.7797 H   0  0  0  0  0  0  0  0  0  0  0  0
    0.4822    0.4908    3.2699 C   0  0  0  0  0  0  0  0  0  0  0  0
    1.2822    1.2377    3.2276 H   0  0  0  0  0  0  0  0  0  0  0  0
   -0.3299    0.8923    3.8832 H   0  0  0  0  0  0  0  0  0  0  0  0
    0.8695   -0.4128    3.7525 H   0  0  0  0  0  0  0  0  0  0  0  0
  1  2  1  0  0  0  0
  2  3  1  0  0  0  0
  2  4  1  0  0  0  0
  2  5  1  0  0  0  0
  5  6  2  0  0  0  0
  5  7  1  0  0  0  0
  7  8  1  0  0  0  0
  7  9  1  0  0  0  0
  9 10  1  0  0  0  0
  9 11  1  0  0  0  0
  9 21  1  0  0  0  0
 11 12  1  0  0  0  0
 11 13  1  0  0  0  0
 11 14  1  0  0  0  0
 14 15  1  0  0  0  0
 14 16  1  0  0  0  0
 14 17  1  0  0  0  0
 17 18  2  0  0  0  0
 17 19  1  0  0  0  0
 19 20  1  0  0  0  0
 21 22  2  0  0  0  0
 21 23  1  0  0  0  0
 23 24  1  0  0  0  0
 23 25  1  0  0  0  0
 25 26  1  0  0  0  0
 25 27  1  0  0  0  0
 25 28  1  0  0  0  0
M  END
$$$$

  -OEChem-02102214123D

 28 27  0     1  0  0  0  0  0999 V2000
   -2.6487   -4.1562    0.3327 H   0  0  0  0  0  0  0  0  0  0  0  0
   -2.6349   -3.1856   -0.1717 C   0  0  0  0  0  0  0  0  0  0  0  0
   -3.4426   -2.5694    0.2304 H   0  0  0  0  0  0  0  0  0  0  0  0
   -2.8016   -3.3432   -1.2401 H   0  0  0  0  0  0  0  0  0  0  0  0
   -1.2986   -2.5022    0.0493 C   0  0  0  0  0  0  0  0  0  0  0  0
   -0.4342   -3.0573    0.7022 O   0  0  0  0  0  0  0  0  0  0  0  0
   -1.0722   -1.2514   -0.4917 N   0  0  0  0  0  0  0  0  0  0  0  0
   -1.7914   -0.8962   -1.1143 H   0  0  0  0  0  0  0  0  0  0  0  0
    0.2405   -0.5751   -0.4926 C   0  0  1  0  0  0  0  0  0  0  0  0
    0.9661   -1.2236   -0.9954 H   0  0  0  0  0  0  0  0  0  0  0  0
    0.1000    0.7684   -1.2492 C   0  0  0  0  0  0  0  0  0  0  0  0
   -0.9533    1.0574   -1.3228 H   0  0  0  0  0  0  0  0  0  0  0  0
    0.5900    1.5581   -0.6662 H   0  0  0  0  0  0  0  0  0  0  0  0
    0.7228    0.7315   -2.6656 C   0  0  0  0  0  0  0  0  0  0  0  0
    1.1258   -0.2578   -2.8984 H   0  0  0  0  0  0  0  0  0  0  0  0
   -0.0532    0.9408   -3.4070 H   0  0  0  0  0  0  0  0  0  0  0  0
    1.8367    1.7598   -2.8400 C   0  0  0  0  0  0  0  0  0  0  0  0
    1.5591    2.9420   -2.7245 O   0  0  0  0  0  0  0  0  0  0  0  0
    3.0792    1.3039   -3.1175 O   0  0  0  0  0  0  0  0  0  0  0  0
    3.6498    2.0863   -3.1572 H   0  0  0  0  0  0  0  0  0  0  0  0
    0.8245   -0.3228    0.9180 C   0  0  0  0  0  0  0  0  0  0  0  0
    2.0378   -0.3142    1.0766 O   0  0  0  0  0  0  0  0  0  0  0  0
    0.0143    0.1758    1.9219 N   0  0  0  0  0  0  0  0  0  0  0  0
   -0.9846    0.0641    1.7846 H   0  0  0  0  0  0  0  0  0  0  0  0
    0.5103    0.4767    3.2592 C   0  0  0  0  0  0  0  0  0  0  0  0
    1.3043    1.2297    3.2138 H   0  0  0  0  0  0  0  0  0  0  0  0
   -0.2981    0.8680    3.8840 H   0  0  0  0  0  0  0  0  0  0  0  0
    0.9096   -0.4272    3.7313 H   0  0  0  0  0  0  0  0  0  0  0  0
  1  2  1  0  0  0  0
  2  3  1  0  0  0  0
  2  4  1  0  0  0  0
  2  5  1  0  0  0  0
  5  6  2  0  0  0  0
  5  7  1  0  0  0  0
  7  8  1  0  0  0  0
  7  9  1  0  0  0  0
  9 10  1  0  0  0  0
  9 11  1  0  0  0  0
  9 21  1  0  0  0  0
 11 12  1  0  0  0  0
 11 13  1  0  0  0  0
 11 14  1  0  0  0  0
 14 15  1  0  0  0  0
 14 16  1  0  0  0  0
 14 17  1  0  0  0  0
 17 18  2  0  0  0  0
 17 19  1  0  0  0  0
 19 20  1  0  0  0  0
 21 22  2  0  0  0  0
 21 23  1  0  0  0  0
 23 24  1  0  0  0  0
 23 25  1  0  0  0  0
 25 26  1  0  0  0  0
 25 27  1  0  0  0  0
 25 28  1  0  0  0  0
M  END
$$$$

  -OEChem-02102214123D

 28 27  0     1  0  0  0  0  0999 V2000
   -2.6308   -4.1503    0.3190 H   0  0  0  0  0  0  0  0  0  0  0  0
   -2.6159   -3.1853   -0.1955 C   0  0  0  0  0  0  0  0  0  0  0  0
   -3.4247   -2.5651    0.1978 H   0  0  0  0  0  0  0  0  0  0  0  0
   -2.7797   -3.3538   -1.2625 H   0  0  0  0  0  0  0  0  0  0  0  0
   -1.2811   -2.4988    0.0228 C   0  0  0  0  0  0  0  0  0  0  0  0
   -0.4107   -3.0547    0.6667 O   0  0  0  0  0  0  0  0  0  0  0  0
   -1.0662   -1.2407   -0.5051 N   0  0  0  0  0  0  0  0  0  0  0  0
   -1.7900   -0.8854   -1.1222 H   0  0  0  0  0  0  0  0  0  0  0  0
    0.2416   -0.5553   -0.5057 C   0  0  1  0  0  0  0  0  0  0  0  0
    0.9697   -1.1900   -1.0234 H   0  0  0  0  0  0  0  0  0  0  0  0
    0.0923    0.7948   -1.2454 C   0  0  0  0  0  0  0  0  0  0  0  0
   -0.9671    1.0583   -1.3262 H   0  0  0  0  0  0  0  0  0  0  0  0
    0.5616    1.5970   -0.6623 H   0  0  0  0  0  0  0  0  0  0  0  0
    0.7136    0.7583   -2.6585 C   0  0  0  0  0  0  0  0  0  0  0  0
    0.8529   -0.2682   -3.0090 H   0  0  0  0  0  0  0  0  0  0  0  0
    0.0309    1.2449   -3.3607 H   0  0  0  0  0  0  0  0  0  0  0  0
    2.0422    1.5050   -2.7157 C   0  0  0  0  0  0  0  0  0  0  0  0
    2.0293    2.7216   -2.6315 O   0  0  0  0  0  0  0  0  0  0  0  0
    3.1705    0.7722   -2.8480 O   0  0  0  0  0  0  0  0  0  0  0  0
    3.9060    1.4020   -2.8064 H   0  0  0  0  0  0  0  0  0  0  0  0
    0.8332   -0.3142    0.9033 C   0  0  0  0  0  0  0  0  0  0  0  0
    2.0474   -0.2971    1.0538 O   0  0  0  0  0  0  0  0  0  0  0  0
    0.0261    0.1678    1.9179 N   0  0  0  0  0  0  0  0  0  0  0  0
   -0.9727    0.0489    1.7865 H   0  0  0  0  0  0  0  0  0  0  0  0
    0.5290    0.4527    3.2560 C   0  0  0  0  0  0  0  0  0  0  0  0
    1.3126    1.2166    3.2162 H   0  0  0  0  0  0  0  0  0  0  0  0
   -0.2793    0.8227    3.8938 H   0  0  0  0  0  0  0  0  0  0  0  0
    0.9434   -0.4538    3.7099 H   0  0  0  0  0  0  0  0  0  0  0  0
  1  2  1  0  0  0  0
  2  3  1  0  0  0  0
  2  4  1  0  0  0  0
  2  5  1  0  0  0  0
  5  6  2  0  0  0  0
  5  7  1  0  0  0  0
  7  8  1  0  0  0  0
  7  9  1  0  0  0  0
  9 10  1  0  0  0  0
  9 11  1  0  0  0  0
  9 21  1  0  0  0  0
 11 12  1  0  0  0  0
 11 13  1  0  0  0  0
 11 14  1  0  0  0  0
 14 15  1  0  0  0  0
 14 16  1  0  0  0  0
 14 17  1  0  0  0  0
 17 18  2  0  0  0  0
 17 19  1  0  0  0  0
 19 20  1  0  0  0  0
 21 22  2  0  0  0  0
 21 23  1  0  0  0  0
 23 24  1  0  0  0  0
 23 25  1  0  0  0  0
 25 26  1  0  0  0  0
 25 27  1  0  0  0  0
 25 28  1  0  0  0  0
M  END
$$$$

  -OEChem-02102214123D

 28 27  0     1  0  0  0  0  0999 V2000
   -2.6009   -4.1642    0.2677 H   0  0  0  0  0  0  0  0  0  0  0  0
   -2.5949   -3.1929   -0.2354 C   0  0  0  0  0  0  0  0  0  0  0  0
   -3.4139   -2.5876    0.1603 H   0  0  0  0  0  0  0  0  0  0  0  0
   -2.7501   -3.3514   -1.3053 H   0  0  0  0  0  0  0  0  0  0  0  0
   -1.2696   -2.4924   -0.0016 C   0  0  0  0  0  0  0  0  0  0  0  0
   -0.3986   -3.0434    0.6458 O   0  0  0  0  0  0  0  0  0  0  0  0
   -1.0650   -1.2271   -0.5171 N   0  0  0  0  0  0  0  0  0  0  0  0
   -1.7877   -0.8773   -1.1386 H   0  0  0  0  0  0  0  0  0  0  0  0
    0.2395   -0.5343   -0.5141 C   0  0  1  0  0  0  0  0  0  0  0  0
    0.9666   -1.1608   -1.0442 H   0  0  0  0  0  0  0  0  0  0  0  0
    0.0870    0.8219   -1.2414 C   0  0  0  0  0  0  0  0  0  0  0  0
   -0.9736    1.0791   -1.3254 H   0  0  0  0  0  0  0  0  0  0  0  0
    0.5552    1.6260   -0.6600 H   0  0  0  0  0  0  0  0  0  0  0  0
    0.7118    0.7844   -2.6486 C   0  0  0  0  0  0  0  0  0  0  0  0
    0.6105   -0.2071   -3.0992 H   0  0  0  0  0  0  0  0  0  0  0  0
    0.1828    1.4906   -3.2949 H   0  0  0  0  0  0  0  0  0  0  0  0
    2.1796    1.1957   -2.6149 C   0  0  0  0  0  0  0  0  0  0  0  0
    2.4501    2.3833   -2.5580 O   0  0  0  0  0  0  0  0  0  0  0  0
    3.1060    0.2115   -2.6336 O   0  0  0  0  0  0  0  0  0  0  0  0
    3.9648    0.6489   -2.5282 H   0  0  0  0  0  0  0  0  0  0  0  0
    0.8392   -0.3024    0.8928 C   0  0  0  0  0  0  0  0  0  0  0  0
    2.0545   -0.2781    1.0345 O   0  0  0  0  0  0  0  0  0  0  0  0
    0.0366    0.1659    1.9173 N   0  0  0  0  0  0  0  0  0  0  0  0
   -0.9619    0.0365    1.7931 H   0  0  0  0  0  0  0  0  0  0  0  0
    0.5485    0.4327    3.2559 C   0  0  0  0  0  0  0  0  0  0  0  0
    1.3320    1.1973    3.2221 H   0  0  0  0  0  0  0  0  0  0  0  0
   -0.2556    0.7932    3.9042 H   0  0  0  0  0  0  0  0  0  0  0  0
    0.9662   -0.4800    3.6939 H   0  0  0  0  0  0  0  0  0  0  0  0
  1  2  1  0  0  0  0
  2  3  1  0  0  0  0
  2  4  1  0  0  0  0
  2  5  1  0  0  0  0
  5  6  2  0  0  0  0
  5  7  1  0  0  0  0
  7  8  1  0  0  0  0
  7  9  1  0  0  0  0
  9 10  1  0  0  0  0
  9 11  1  0  0  0  0
  9 21  1  0  0  0  0
 11 12  1  0  0  0  0
 11 13  1  0  0  0  0
 11 14  1  0  0  0  0
 14 15  1  0  0  0  0
 14 16  1  0  0  0  0
 14 17  1  0  0  0  0
 17 18  2  0  0  0  0
 17 19  1  0  0  0  0
 19 20  1  0  0  0  0
 21 22  2  0  0  0  0
 21 23  1  0  0  0  0
 23 24  1  0  0  0  0
 23 25  1  0  0  0  0
 25 26  1  0  0  0  0
 25 27  1  0  0  0  0
 25 28  1  0  0  0  0
M  END
$$$$

  -OEChem-02102214123D

 28 27  0     1  0  0  0  0  0999 V2000
   -2.5817   -4.1752    0.2098 H   0  0  0  0  0  0  0  0  0  0  0  0
   -2.5779   -3.1973   -0.2802 C   0  0  0  0  0  0  0  0  0  0  0  0
   -3.4065   -2.6039    0.1134 H   0  0  0  0  0  0  0  0  0  0  0  0
   -2.7184   -3.3424   -1.3540 H   0  0  0  0  0  0  0  0  0  0  0  0
   -1.2619   -2.4893   -0.0204 C   0  0  0  0  0  0  0  0  0  0  0  0
   -0.3970   -3.0394    0.6358 O   0  0  0  0  0  0  0  0  0  0  0  0
   -1.0586   -1.2192   -0.5242 N   0  0  0  0  0  0  0  0  0  0  0  0
   -1.7727   -0.8723   -1.1572 H   0  0  0  0  0  0  0  0  0  0  0  0
    0.2446   -0.5254   -0.5060 C   0  0  1  0  0  0  0  0  0  0  0  0
    0.9689   -1.1543   -1.0360 H   0  0  0  0  0  0  0  0  0  0  0  0
    0.0943    0.8323   -1.2328 C   0  0  0  0  0  0  0  0  0  0  0  0
   -0.9643    1.0962   -1.3199 H   0  0  0  0  0  0  0  0  0  0  0  0
    0.5688    1.6306   -0.6487 H   0  0  0  0  0  0  0  0  0  0  0  0
    0.7305    0.8061   -2.6334 C   0  0  0  0  0  0  0  0  0  0  0  0
    0.4236   -0.0927   -3.1759 H   0  0  0  0  0  0  0  0  0  0  0  0
    0.3840    1.6711   -3.2064 H   0  0  0  0  0  0  0  0  0  0  0  0
    2.2532    0.8632   -2.5553 C   0  0  0  0  0  0  0  0  0  0  0  0
    2.7856    1.9523   -2.4269 O   0  0  0  0  0  0  0  0  0  0  0  0
    2.9321   -0.3046   -2.6208 O   0  0  0  0  0  0  0  0  0  0  0  0
    3.8633   -0.0801   -2.4690 H   0  0  0  0  0  0  0  0  0  0  0  0
    0.8399   -0.3022    0.9036 C   0  0  0  0  0  0  0  0  0  0  0  0
    2.0549   -0.2823    1.0478 O   0  0  0  0  0  0  0  0  0  0  0  0
    0.0343    0.1583    1.9291 N   0  0  0  0  0  0  0  0  0  0  0  0
   -0.9637    0.0289    1.8016 H   0  0  0  0  0  0  0  0  0  0  0  0
    0.5419    0.4188    3.2704 C   0  0  0  0  0  0  0  0  0  0  0  0
    1.3394    1.1690    3.2404 H   0  0  0  0  0  0  0  0  0  0  0  0
   -0.2598    0.7959    3.9123 H   0  0  0  0  0  0  0  0  0  0  0  0
    0.9401   -0.5002    3.7133 H   0  0  0  0  0  0  0  0  0  0  0  0
  1  2  1  0  0  0  0
  2  3  1  0  0  0  0
  2  4  1  0  0  0  0
  2  5  1  0  0  0  0
  5  6  2  0  0  0  0
  5  7  1  0  0  0  0
  7  8  1  0  0  0  0
  7  9  1  0  0  0  0
  9 10  1  0  0  0  0
  9 11  1  0  0  0  0
  9 21  1  0  0  0  0
 11 12  1  0  0  0  0
 11 13  1  0  0  0  0
 11 14  1  0  0  0  0
 14 15  1  0  0  0  0
 14 16  1  0  0  0  0
 14 17  1  0  0  0  0
 17 18  2  0  0  0  0
 17 19  1  0  0  0  0
 19 20  1  0  0  0  0
 21 22  2  0  0  0  0
 21 23  1  0  0  0  0
 23 24  1  0  0  0  0
 23 25  1  0  0  0  0
 25 26  1  0  0  0  0
 25 27  1  0  0  0  0
 25 28  1  0  0  0  0
M  END
$$$$

  -OEChem-02102214123D

 28 27  0     1  0  0  0  0  0999 V2000
   -2.5846   -4.1810    0.1686 H   0  0  0  0  0  0  0  0  0  0  0  0
   -2.5757   -3.1939   -0.3028 C   0  0  0  0  0  0  0  0  0  0  0  0
   -3.4128   -2.6103    0.0879 H   0  0  0  0  0  0  0  0  0  0  0  0
   -2.6984   -3.3198   -1.3814 H   0  0  0  0  0  0  0  0  0  0  0  0
   -1.2656   -2.4875   -0.0084 C   0  0  0  0  0  0  0  0  0  0  0  0
   -0.4243   -3.0342    0.6805 O   0  0  0  0  0  0  0  0  0  0  0  0
   -1.0407   -1.2234   -0.5185 N   0  0  0  0  0  0  0  0  0  0  0  0
   -1.7343   -0.8805   -1.1759 H   0  0  0  0  0  0  0  0  0  0  0  0
    0.2670   -0.5385   -0.4763 C   0  0  1  0  0  0  0  0  0  0  0  0
    0.9945   -1.1811   -0.9814 H   0  0  0  0  0  0  0  0  0  0  0  0
    0.1281    0.8130   -1.2216 C   0  0  0  0  0  0  0  0  0  0  0  0
   -0.9266    1.0914   -1.3117 H   0  0  0  0  0  0  0  0  0  0  0  0
    0.6109    1.6027   -0.6330 H   0  0  0  0  0  0  0  0  0  0  0  0
    0.7794    0.8138   -2.6179 C   0  0  0  0  0  0  0  0  0  0  0  0
    0.2960    0.0612   -3.2471 H   0  0  0  0  0  0  0  0  0  0  0  0
    0.6242    1.7880   -3.0908 H   0  0  0  0  0  0  0  0  0  0  0  0
    2.2786    0.5271   -2.5779 C   0  0  0  0  0  0  0  0  0  0  0  0
    3.0297    1.4471   -2.3062 O   0  0  0  0  0  0  0  0  0  0  0  0
    2.6975   -0.7291   -2.8548 O   0  0  0  0  0  0  0  0  0  0  0  0
    3.6587   -0.7197   -2.7227 H   0  0  0  0  0  0  0  0  0  0  0  0
    0.8311   -0.3067    0.9449 C   0  0  0  0  0  0  0  0  0  0  0  0
    2.0418   -0.3165    1.1215 O   0  0  0  0  0  0  0  0  0  0  0  0
    0.0072    0.1690    1.9486 N   0  0  0  0  0  0  0  0  0  0  0  0
   -0.9889    0.0532    1.7957 H   0  0  0  0  0  0  0  0  0  0  0  0
    0.4839    0.4126    3.3043 C   0  0  0  0  0  0  0  0  0  0  0  0
    1.3101    1.1316    3.2983 H   0  0  0  0  0  0  0  0  0  0  0  0
   -0.3216    0.8215    3.9215 H   0  0  0  0  0  0  0  0  0  0  0  0
    0.8331   -0.5204    3.7592 H   0  0  0  0  0  0  0  0  0  0  0  0
  1  2  1  0  0  0  0
  2  3  1  0  0  0  0
  2  4  1  0  0  0  0
  2  5  1  0  0  0  0
  5  6  2  0  0  0  0
  5  7  1  0  0  0  0
  7  8  1  0  0  0  0
  7  9  1  0  0  0  0
  9 10  1  0  0  0  0
  9 11  1  0  0  0  0
  9 21  1  0  0  0  0
 11 12  1  0  0  0  0
 11 13  1  0  0  0  0
 11 14  1  0  0  0  0
 14 15  1  0  0  0  0
 14 16  1  0  0  0  0
 14 17  1  0  0  0  0
 17 18  2  0  0  0  0
 17 19  1  0  0  0  0
 19 20  1  0  0  0  0
 21 22  2  0  0  0  0
 21 23  1  0  0  0  0
 23 24  1  0  0  0  0
 23 25  1  0  0  0  0
 25 26  1  0  0  0  0
 25 27  1  0  0  0  0
 25 28  1  0  0  0  0
M  END
$$$$

  -OEChem-02102214123D

 28 27  0     1  0  0  0  0  0999 V2000
   -2.6135   -4.1695    0.1677 H   0  0  0  0  0  0  0  0  0  0  0  0
   -2.5843   -3.1845   -0.3071 C   0  0  0  0  0  0  0  0  0  0  0  0
   -3.4224   -2.5903    0.0647 H   0  0  0  0  0  0  0  0  0  0  0  0
   -2.6870   -3.3127   -1.3874 H   0  0  0  0  0  0  0  0  0  0  0  0
   -1.2729   -2.4910    0.0107 C   0  0  0  0  0  0  0  0  0  0  0  0
   -0.4561   -3.0395    0.7273 O   0  0  0  0  0  0  0  0  0  0  0  0
   -1.0196   -1.2372   -0.5113 N   0  0  0  0  0  0  0  0  0  0  0  0
   -1.6889   -0.9001   -1.1963 H   0  0  0  0  0  0  0  0  0  0  0  0
    0.2951   -0.5677   -0.4476 C   0  0  1  0  0  0  0  0  0  0  0  0
    1.0274   -1.2271   -0.9207 H   0  0  0  0  0  0  0  0  0  0  0  0
    0.1778    0.7813   -1.2069 C   0  0  0  0  0  0  0  0  0  0  0  0
   -0.8707    1.0840   -1.2926 H   0  0  0  0  0  0  0  0  0  0  0  0
    0.6757    1.5549   -0.6096 H   0  0  0  0  0  0  0  0  0  0  0  0
    0.8383    0.8174   -2.6028 C   0  0  0  0  0  0  0  0  0  0  0  0
    0.2047    0.2685   -3.3048 H   0  0  0  0  0  0  0  0  0  0  0  0
    0.8903    1.8530   -2.9516 H   0  0  0  0  0  0  0  0  0  0  0  0
    2.2364    0.2074   -2.6692 C   0  0  0  0  0  0  0  0  0  0  0  0
    3.1815    0.9062   -2.3508 O   0  0  0  0  0  0  0  0  0  0  0  0
    2.3576   -1.0711   -3.0958 O   0  0  0  0  0  0  0  0  0  0  0  0
    3.3039   -1.2773   -3.0352 H   0  0  0  0  0  0  0  0  0  0  0  0
    0.8198   -0.3268    0.9876 C   0  0  0  0  0  0  0  0  0  0  0  0
    2.0233   -0.3565    1.2040 O   0  0  0  0  0  0  0  0  0  0  0  0
   -0.0275    0.1703    1.9613 N   0  0  0  0  0  0  0  0  0  0  0  0
   -1.0201    0.0694    1.7780 H   0  0  0  0  0  0  0  0  0  0  0  0
    0.4109    0.4178    3.3293 C   0  0  0  0  0  0  0  0  0  0  0  0
    1.2386    1.1349    3.3434 H   0  0  0  0  0  0  0  0  0  0  0  0
   -0.4108    0.8308    3.9218 H   0  0  0  0  0  0  0  0  0  0  0  0
    0.7450   -0.5141    3.7978 H   0  0  0  0  0  0  0  0  0  0  0  0
  1  2  1  0  0  0  0
  2  3  1  0  0  0  0
  2  4  1  0  0  0  0
  2  5  1  0  0  0  0
  5  6  2  0  0  0  0
  5  7  1  0  0  0  0
  7  8  1  0  0  0  0
  7  9  1  0  0  0  0
  9 10  1  0  0  0  0
  9 11  1  0  0  0  0
  9 21  1  0  0  0  0
 11 12  1  0  0  0  0
 11 13  1  0  0  0  0
 11 14  1  0  0  0  0
 14 15  1  0  0  0  0
 14 16  1  0  0  0  0
 14 17  1  0  0  0  0
 17 18  2  0  0  0  0
 17 19  1  0  0  0  0
 19 20  1  0  0  0  0
 21 22  2  0  0  0  0
 21 23  1  0  0  0  0
 23 24  1  0  0  0  0
 23 25  1  0  0  0  0
 25 26  1  0  0  0  0
 25 27  1  0  0  0  0
 25 28  1  0  0  0  0
M  END
$$$$

  -OEChem-02102214123D

 28 27  0     1  0  0  0  0  0999 V2000
   -2.6482   -4.1516    0.1817 H   0  0  0  0  0  0  0  0  0  0  0  0
   -2.5991   -3.1705   -0.2997 C   0  0  0  0  0  0  0  0  0  0  0  0
   -3.4340   -2.5622    0.0560 H   0  0  0  0  0  0  0  0  0  0  0  0
   -2.6880   -3.3057   -1.3803 H   0  0  0  0  0  0  0  0  0  0  0  0
   -1.2832   -2.4922    0.0321 C   0  0  0  0  0  0  0  0  0  0  0  0
   -0.4903   -3.0409    0.7749 O   0  0  0  0  0  0  0  0  0  0  0  0
   -1.0006   -1.2512   -0.5053 N   0  0  0  0  0  0  0  0  0  0  0  0
   -1.6440   -0.9246   -1.2197 H   0  0  0  0  0  0  0  0  0  0  0  0
    0.3222   -0.5998   -0.4256 C   0  0  1  0  0  0  0  0  0  0  0  0
    1.0607   -1.2733   -0.8659 H   0  0  0  0  0  0  0  0  0  0  0  0
    0.2297    0.7467   -1.1964 C   0  0  0  0  0  0  0  0  0  0  0  0
   -0.8127    1.0711   -1.2784 H   0  0  0  0  0  0  0  0  0  0  0  0
    0.7388    1.5070   -0.5920 H   0  0  0  0  0  0  0  0  0  0  0  0
    0.8971    0.8071   -2.5926 C   0  0  0  0  0  0  0  0  0  0  0  0
    0.1547    0.5077   -3.3375 H   0  0  0  0  0  0  0  0  0  0  0  0
    1.1740    1.8425   -2.8136 H   0  0  0  0  0  0  0  0  0  0  0  0
    2.1184   -0.0839   -2.8045 C   0  0  0  0  0  0  0  0  0  0  0  0
    3.2175    0.3755   -2.5535 O   0  0  0  0  0  0  0  0  0  0  0  0
    1.9187   -1.3350   -3.2815 O   0  0  0  0  0  0  0  0  0  0  0  0
    2.7996   -1.7397   -3.3255 H   0  0  0  0  0  0  0  0  0  0  0  0
    0.8107   -0.3470    1.0211 C   0  0  0  0  0  0  0  0  0  0  0  0
    2.0071   -0.3844    1.2725 O   0  0  0  0  0  0  0  0  0  0  0  0
   -0.0573    0.1754    1.9630 N   0  0  0  0  0  0  0  0  0  0  0  0
   -1.0454    0.0798    1.7539 H   0  0  0  0  0  0  0  0  0  0  0  0
    0.3449    0.4308    3.3407 C   0  0  0  0  0  0  0  0  0  0  0  0
    1.1715    1.1486    3.3725 H   0  0  0  0  0  0  0  0  0  0  0  0
   -0.4925    0.8457    3.9095 H   0  0  0  0  0  0  0  0  0  0  0  0
    0.6672   -0.4984    3.8227 H   0  0  0  0  0  0  0  0  0  0  0  0
  1  2  1  0  0  0  0
  2  3  1  0  0  0  0
  2  4  1  0  0  0  0
  2  5  1  0  0  0  0
  5  6  2  0  0  0  0
  5  7  1  0  0  0  0
  7  8  1  0  0  0  0
  7  9  1  0  0  0  0
  9 10  1  0  0  0  0
  9 11  1  0  0  0  0
  9 21  1  0  0  0  0
 11 12  1  0  0  0  0
 11 13  1  0  0  0  0
 11 14  1  0  0  0  0
 14 15  1  0  0  0  0
 14 16  1  0  0  0  0
 14 17  1  0  0  0  0
 17 18  2  0  0  0  0
 17 19  1  0  0  0  0
 19 20  1  0  0  0  0
 21 22  2  0  0  0  0
 21 23  1  0  0  0  0
 23 24  1  0  0  0  0
 23 25  1  0  0  0  0
 25 26  1  0  0  0  0
 25 27  1  0  0  0  0
 25 28  1  0  0  0  0
M  END
$$$$

  -OEChem-02102214123D

 28 27  0     1  0  0  0  0  0999 V2000
   -2.1614   -4.1439   -0.7071 H   0  0  0  0  0  0  0  0  0  0  0  0
   -2.5254   -3.1146   -0.6411 C   0  0  0  0  0  0  0  0  0  0  0  0
   -3.2815   -3.0585    0.1456 H   0  0  0  0  0  0  0  0  0  0  0  0
   -2.9800   -2.8423   -1.5966 H   0  0  0  0  0  0  0  0  0  0  0  0
   -1.3760   -2.1756   -0.3277 C   0  0  0  0  0  0  0  0  0  0  0  0
   -0.2702   -2.6294   -0.1114 O   0  0  0  0  0  0  0  0  0  0  0  0
   -1.6245   -0.8284   -0.1566 N   0  0  0  0  0  0  0  0  0  0  0  0
   -2.5882   -0.5553   -0.3247 H   0  0  0  0  0  0  0  0  0  0  0  0
   -0.6111    0.2435   -0.2719 C   0  0  1  0  0  0  0  0  0  0  0  0
   -1.1209    1.1332    0.1110 H   0  0  0  0  0  0  0  0  0  0  0  0
   -0.4133    0.5461   -1.7947 C   0  0  0  0  0  0  0  0  0  0  0  0
   -1.3206    0.2502   -2.3309 H   0  0  0  0  0  0  0  0  0  0  0  0
   -0.3814    1.6404   -1.8399 H   0  0  0  0  0  0  0  0  0  0  0  0
    0.8032    0.1056   -2.6666 C   0  0  0  0  0  0  0  0  0  0  0  0
    0.4570   -0.7219   -3.2916 H   0  0  0  0  0  0  0  0  0  0  0  0
    1.0465    0.9291   -3.3450 H   0  0  0  0  0  0  0  0  0  0  0  0
    2.1075   -0.3897   -2.0483 C   0  0  0  0  0  0  0  0  0  0  0  0
    3.1067    0.2921   -2.2118 O   0  0  0  0  0  0  0  0  0  0  0  0
    2.1245   -1.6087   -1.4713 O   0  0  0  0  0  0  0  0  0  0  0  0
    3.0134   -1.7115   -1.1029 H   0  0  0  0  0  0  0  0  0  0  0  0
    0.5918    0.1621    0.7007 C   0  0  0  0  0  0  0  0  0  0  0  0
    1.6106    0.8018    0.4834 O   0  0  0  0  0  0  0  0  0  0  0  0
    0.3241   -0.1291    2.0261 N   0  0  0  0  0  0  0  0  0  0  0  0
   -0.4760   -0.7370    2.1733 H   0  0  0  0  0  0  0  0  0  0  0  0
    1.3417   -0.0689    3.0693 C   0  0  0  0  0  0  0  0  0  0  0  0
    1.7227    0.9524    3.1757 H   0  0  0  0  0  0  0  0  0  0  0  0
    0.9177   -0.3786    4.0293 H   0  0  0  0  0  0  0  0  0  0  0  0
    2.1779   -0.7334    2.8274 H   0  0  0  0  0  0  0  0  0  0  0  0
  1  2  1  0  0  0  0
  2  3  1  0  0  0  0
  2  4  1  0  0  0  0
  2  5  1  0  0  0  0
  5  6  2  0  0  0  0
  5  7  1  0  0  0  0
  7  8  1  0  0  0  0
  7  9  1  0  0  0  0
  9 10  1  0  0  0  0
  9 11  1  0  0  0  0
  9 21  1  0  0  0  0
 11 12  1  0  0  0  0
 11 13  1  0  0  0  0
 11 14  1  0  0  0  0
 14 15  1  0  0  0  0
 14 16  1  0  0  0  0
 14 17  1  0  0  0  0
 17 18  2  0  0  0  0
 17 19  1  0  0  0  0
 19 20  1  0  0  0  0
 21 22  2  0  0  0  0
 21 23  1  0  0  0  0
 23 24  1  0  0  0  0
 23 25  1  0  0  0  0
 25 26  1  0  0  0  0
 25 27  1  0  0  0  0
 25 28  1  0  0  0  0
M  END
$$$$

  -OEChem-02102214123D

 28 27  0     1  0  0  0  0  0999 V2000
   -2.7132   -4.1366    0.5078 H   0  0  0  0  0  0  0  0  0  0  0  0
   -2.6358   -3.2357   -0.1078 C   0  0  0  0  0  0  0  0  0  0  0  0
   -3.4930   -2.5916    0.1020 H   0  0  0  0  0  0  0  0  0  0  0  0
   -2.6550   -3.5274   -1.1608 H   0  0  0  0  0  0  0  0  0  0  0  0
   -1.3449   -2.5017    0.2015 C   0  0  0  0  0  0  0  0  0  0  0  0
   -0.5551   -2.9765    0.9975 O   0  0  0  0  0  0  0  0  0  0  0  0
   -1.0850   -1.2937   -0.4163 N   0  0  0  0  0  0  0  0  0  0  0  0
   -1.7119   -1.0668   -1.1830 H   0  0  0  0  0  0  0  0  0  0  0  0
    0.2490   -0.6617   -0.4430 C   0  0  1  0  0  0  0  0  0  0  0  0
    0.9639   -1.3616   -0.8821 H   0  0  0  0  0  0  0  0  0  0  0  0
    0.1387    0.6613   -1.2549 C   0  0  0  0  0  0  0  0  0  0  0  0
   -0.9085    0.9784   -1.2938 H   0  0  0  0  0  0  0  0  0  0  0  0
    0.6692    1.4472   -0.7042 H   0  0  0  0  0  0  0  0  0  0  0  0
    0.7173    0.6756   -2.6958 C   0  0  0  0  0  0  0  0  0  0  0  0
   -0.0798    0.9514   -3.3922 H   0  0  0  0  0  0  0  0  0  0  0  0
    1.4766    1.4610   -2.7570 H   0  0  0  0  0  0  0  0  0  0  0  0
    1.3488   -0.6169   -3.2043 C   0  0  0  0  0  0  0  0  0  0  0  0
    0.6025   -1.5260   -3.5299 O   0  0  0  0  0  0  0  0  0  0  0  0
    2.6975   -0.6946   -3.2572 O   0  0  0  0  0  0  0  0  0  0  0  0
    2.9074   -1.5888   -3.5668 H   0  0  0  0  0  0  0  0  0  0  0  0
    0.8182   -0.3464    0.9618 C   0  0  0  0  0  0  0  0  0  0  0  0
    2.0289   -0.3640    1.1399 O   0  0  0  0  0  0  0  0  0  0  0  0
    0.0078    0.2354    1.9199 N   0  0  0  0  0  0  0  0  0  0  0  0
   -0.9896    0.1143    1.7773 H   0  0  0  0  0  0  0  0  0  0  0  0
    0.4858    0.5461    3.2614 C   0  0  0  0  0  0  0  0  0  0  0  0
    1.3156    1.2595    3.2180 H   0  0  0  0  0  0  0  0  0  0  0  0
   -0.3174    0.9898    3.8572 H   0  0  0  0  0  0  0  0  0  0  0  0
    0.8300   -0.3641    3.7642 H   0  0  0  0  0  0  0  0  0  0  0  0
  1  2  1  0  0  0  0
  2  3  1  0  0  0  0
  2  4  1  0  0  0  0
  2  5  1  0  0  0  0
  5  6  2  0  0  0  0
  5  7  1  0  0  0  0
  7  8  1  0  0  0  0
  7  9  1  0  0  0  0
  9 10  1  0  0  0  0
  9 11  1  0  0  0  0
  9 21  1  0  0  0  0
 11 12  1  0  0  0  0
 11 13  1  0  0  0  0
 11 14  1  0  0  0  0
 14 15  1  0  0  0  0
 14 16  1  0  0  0  0
 14 17  1  0  0  0  0
 17 18  2  0  0  0  0
 17 19  1  0  0  0  0
 19 20  1  0  0  0  0
 21 22  2  0  0  0  0
 21 23  1  0  0  0  0
 23 24  1  0  0  0  0
 23 25  1  0  0  0  0
 25 26  1  0  0  0  0
 25 27  1  0  0  0  0
 25 28  1  0  0  0  0
M  END
$$$$

  -OEChem-02102214123D

 28 27  0     1  0  0  0  0  0999 V2000
   -2.6541   -4.1928    0.3729 H   0  0  0  0  0  0  0  0  0  0  0  0
   -2.6289   -3.2321   -0.1494 C   0  0  0  0  0  0  0  0  0  0  0  0
   -3.4926   -2.6394    0.1608 H   0  0  0  0  0  0  0  0  0  0  0  0
   -2.6873   -3.4162   -1.2249 H   0  0  0  0  0  0  0  0  0  0  0  0
   -1.3464   -2.4925    0.1799 C   0  0  0  0  0  0  0  0  0  0  0  0
   -0.5558   -2.9753    0.9703 O   0  0  0  0  0  0  0  0  0  0  0  0
   -1.0911   -1.2753   -0.4214 N   0  0  0  0  0  0  0  0  0  0  0  0
   -1.7075   -1.0539   -1.1990 H   0  0  0  0  0  0  0  0  0  0  0  0
    0.2427   -0.6429   -0.4428 C   0  0  1  0  0  0  0  0  0  0  0  0
    0.9598   -1.3315   -0.8983 H   0  0  0  0  0  0  0  0  0  0  0  0
    0.1380    0.6917   -1.2333 C   0  0  0  0  0  0  0  0  0  0  0  0
   -0.9138    0.9918   -1.2855 H   0  0  0  0  0  0  0  0  0  0  0  0
    0.6511    1.4838   -0.6750 H   0  0  0  0  0  0  0  0  0  0  0  0
    0.7218    0.7005   -2.6705 C   0  0  0  0  0  0  0  0  0  0  0  0
    0.0491    1.2529   -3.3323 H   0  0  0  0  0  0  0  0  0  0  0  0
    1.6689    1.2484   -2.6474 H   0  0  0  0  0  0  0  0  0  0  0  0
    1.0076   -0.6621   -3.2978 C   0  0  0  0  0  0  0  0  0  0  0  0
    0.0597   -1.4041   -3.5035 O   0  0  0  0  0  0  0  0  0  0  0  0
    2.2894   -0.9828   -3.5852 O   0  0  0  0  0  0  0  0  0  0  0  0
    2.2717   -1.8828   -3.9448 H   0  0  0  0  0  0  0  0  0  0  0  0
    0.8173   -0.3477    0.9639 C   0  0  0  0  0  0  0  0  0  0  0  0
    2.0291   -0.3623    1.1353 O   0  0  0  0  0  0  0  0  0  0  0  0
    0.0097    0.2204    1.9324 N   0  0  0  0  0  0  0  0  0  0  0  0
   -0.9882    0.0978    1.7929 H   0  0  0  0  0  0  0  0  0  0  0  0
    0.4928    0.5252    3.2734 C   0  0  0  0  0  0  0  0  0  0  0  0
    1.3256    1.2351    3.2299 H   0  0  0  0  0  0  0  0  0  0  0  0
   -0.3073    0.9707    3.8720 H   0  0  0  0  0  0  0  0  0  0  0  0
    0.8344   -0.3877    3.7727 H   0  0  0  0  0  0  0  0  0  0  0  0
  1  2  1  0  0  0  0
  2  3  1  0  0  0  0
  2  4  1  0  0  0  0
  2  5  1  0  0  0  0
  5  6  2  0  0  0  0
  5  7  1  0  0  0  0
  7  8  1  0  0  0  0
  7  9  1  0  0  0  0
  9 10  1  0  0  0  0
  9 11  1  0  0  0  0
  9 21  1  0  0  0  0
 11 12  1  0  0  0  0
 11 13  1  0  0  0  0
 11 14  1  0  0  0  0
 14 15  1  0  0  0  0
 14 16  1  0  0  0  0
 14 17  1  0  0  0  0
 17 18  2  0  0  0  0
 17 19  1  0  0  0  0
 19 20  1  0  0  0  0
 21 22  2  0  0  0  0
 21 23  1  0  0  0  0
 23 24  1  0  0  0  0
 23 25  1  0  0  0  0
 25 26  1  0  0  0  0
 25 27  1  0  0  0  0
 25 28  1  0  0  0  0
M  END
$$$$

  -OEChem-02102214123D

 28 27  0     1  0  0  0  0  0999 V2000
   -2.6306   -4.1994    0.3021 H   0  0  0  0  0  0  0  0  0  0  0  0
   -2.6147   -3.2271   -0.1984 C   0  0  0  0  0  0  0  0  0  0  0  0
   -3.4838   -2.6496    0.1253 H   0  0  0  0  0  0  0  0  0  0  0  0
   -2.6726   -3.3876   -1.2778 H   0  0  0  0  0  0  0  0  0  0  0  0
   -1.3389   -2.4830    0.1468 C   0  0  0  0  0  0  0  0  0  0  0  0
   -0.5468   -2.9713    0.9324 O   0  0  0  0  0  0  0  0  0  0  0  0
   -1.0911   -1.2553   -0.4348 N   0  0  0  0  0  0  0  0  0  0  0  0
   -1.6970   -1.0384   -1.2232 H   0  0  0  0  0  0  0  0  0  0  0  0
    0.2387   -0.6148   -0.4464 C   0  0  1  0  0  0  0  0  0  0  0  0
    0.9589   -1.2869   -0.9240 H   0  0  0  0  0  0  0  0  0  0  0  0
    0.1275    0.7269   -1.2197 C   0  0  0  0  0  0  0  0  0  0  0  0
   -0.9267    1.0158   -1.2842 H   0  0  0  0  0  0  0  0  0  0  0  0
    0.6308    1.5227   -0.6582 H   0  0  0  0  0  0  0  0  0  0  0  0
    0.7237    0.7176   -2.6476 C   0  0  0  0  0  0  0  0  0  0  0  0
    0.2247    1.4724   -3.2616 H   0  0  0  0  0  0  0  0  0  0  0  0
    1.7777    1.0032   -2.5749 H   0  0  0  0  0  0  0  0  0  0  0  0
    0.6701   -0.6268   -3.3725 C   0  0  0  0  0  0  0  0  0  0  0  0
   -0.4121   -1.1860   -3.4678 O   0  0  0  0  0  0  0  0  0  0  0  0
    1.8225   -1.1323   -3.8675 O   0  0  0  0  0  0  0  0  0  0  0  0
    1.5970   -1.9845   -4.2703 H   0  0  0  0  0  0  0  0  0  0  0  0
    0.8171   -0.3363    0.9615 C   0  0  0  0  0  0  0  0  0  0  0  0
    2.0300   -0.3467    1.1264 O   0  0  0  0  0  0  0  0  0  0  0  0
    0.0112    0.2130    1.9420 N   0  0  0  0  0  0  0  0  0  0  0  0
   -0.9867    0.0877    1.8051 H   0  0  0  0  0  0  0  0  0  0  0  0
    0.4995    0.5008    3.2849 C   0  0  0  0  0  0  0  0  0  0  0  0
    1.3305    1.2132    3.2474 H   0  0  0  0  0  0  0  0  0  0  0  0
   -0.2991    0.9366    3.8927 H   0  0  0  0  0  0  0  0  0  0  0  0
    0.8456   -0.4178    3.7707 H   0  0  0  0  0  0  0  0  0  0  0  0
  1  2  1  0  0  0  0
  2  3  1  0  0  0  0
  2  4  1  0  0  0  0
  2  5  1  0  0  0  0
  5  6  2  0  0  0  0
  5  7  1  0  0  0  0
  7  8  1  0  0  0  0
  7  9  1  0  0  0  0
  9 10  1  0  0  0  0
  9 11  1  0  0  0  0
  9 21  1  0  0  0  0
 11 12  1  0  0  0  0
 11 13  1  0  0  0  0
 11 14  1  0  0  0  0
 14 15  1  0  0  0  0
 14 16  1  0  0  0  0
 14 17  1  0  0  0  0
 17 18  2  0  0  0  0
 17 19  1  0  0  0  0
 19 20  1  0  0  0  0
 21 22  2  0  0  0  0
 21 23  1  0  0  0  0
 23 24  1  0  0  0  0
 23 25  1  0  0  0  0
 25 26  1  0  0  0  0
 25 27  1  0  0  0  0
 25 28  1  0  0  0  0
M  END
$$$$

  -OEChem-02102214123D

 28 27  0     1  0  0  0  0  0999 V2000
   -2.6136   -4.2002    0.2270 H   0  0  0  0  0  0  0  0  0  0  0  0
   -2.6021   -3.2182   -0.2542 C   0  0  0  0  0  0  0  0  0  0  0  0
   -3.4758   -2.6529    0.0783 H   0  0  0  0  0  0  0  0  0  0  0  0
   -2.6567   -3.3571   -1.3368 H   0  0  0  0  0  0  0  0  0  0  0  0
   -1.3321   -2.4729    0.1098 C   0  0  0  0  0  0  0  0  0  0  0  0
   -0.5377   -2.9723    0.8861 O   0  0  0  0  0  0  0  0  0  0  0  0
   -1.0884   -1.2344   -0.4497 N   0  0  0  0  0  0  0  0  0  0  0  0
   -1.6942   -1.0042   -1.2360 H   0  0  0  0  0  0  0  0  0  0  0  0
    0.2369   -0.5850   -0.4462 C   0  0  1  0  0  0  0  0  0  0  0  0
    0.9588   -1.2430   -0.9422 H   0  0  0  0  0  0  0  0  0  0  0  0
    0.1194    0.7592   -1.2086 C   0  0  0  0  0  0  0  0  0  0  0  0
   -0.9335    1.0516   -1.2828 H   0  0  0  0  0  0  0  0  0  0  0  0
    0.6258    1.5526   -0.6467 H   0  0  0  0  0  0  0  0  0  0  0  0
    0.7368    0.7205   -2.6227 C   0  0  0  0  0  0  0  0  0  0  0  0
    0.4378    1.6119   -3.1807 H   0  0  0  0  0  0  0  0  0  0  0  0
    1.8264    0.7458   -2.5235 H   0  0  0  0  0  0  0  0  0  0  0  0
    0.3703   -0.5205   -3.4385 C   0  0  0  0  0  0  0  0  0  0  0  0
   -0.7895   -0.9073   -3.4264 O   0  0  0  0  0  0  0  0  0  0  0  0
    1.3555   -1.1296   -4.1364 O   0  0  0  0  0  0  0  0  0  0  0  0
    0.9484   -1.8888   -4.5804 H   0  0  0  0  0  0  0  0  0  0  0  0
    0.8151   -0.3232    0.9643 C   0  0  0  0  0  0  0  0  0  0  0  0
    2.0284   -0.3263    1.1265 O   0  0  0  0  0  0  0  0  0  0  0  0
    0.0062    0.2063    1.9531 N   0  0  0  0  0  0  0  0  0  0  0  0
   -0.9915    0.0801    1.8141 H   0  0  0  0  0  0  0  0  0  0  0  0
    0.4941    0.4830    3.2984 C   0  0  0  0  0  0  0  0  0  0  0  0
    1.3194    1.2021    3.2674 H   0  0  0  0  0  0  0  0  0  0  0  0
   -0.3068    0.9058    3.9123 H   0  0  0  0  0  0  0  0  0  0  0  0
    0.8475   -0.4387    3.7730 H   0  0  0  0  0  0  0  0  0  0  0  0
  1  2  1  0  0  0  0
  2  3  1  0  0  0  0
  2  4  1  0  0  0  0
  2  5  1  0  0  0  0
  5  6  2  0  0  0  0
  5  7  1  0  0  0  0
  7  8  1  0  0  0  0
  7  9  1  0  0  0  0
  9 10  1  0  0  0  0
  9 11  1  0  0  0  0
  9 21  1  0  0  0  0
 11 12  1  0  0  0  0
 11 13  1  0  0  0  0
 11 14  1  0  0  0  0
 14 15  1  0  0  0  0
 14 16  1  0  0  0  0
 14 17  1  0  0  0  0
 17 18  2  0  0  0  0
 17 19  1  0  0  0  0
 19 20  1  0  0  0  0
 21 22  2  0  0  0  0
 21 23  1  0  0  0  0
 23 24  1  0  0  0  0
 23 25  1  0  0  0  0
 25 26  1  0  0  0  0
 25 27  1  0  0  0  0
 25 28  1  0  0  0  0
M  END
$$$$

  -OEChem-02102214123D

 28 27  0     1  0  0  0  0  0999 V2000
   -2.6188   -4.1894    0.1935 H   0  0  0  0  0  0  0  0  0  0  0  0
   -2.6083   -3.1985   -0.2695 C   0  0  0  0  0  0  0  0  0  0  0  0
   -3.4756   -2.6353    0.0828 H   0  0  0  0  0  0  0  0  0  0  0  0
   -2.6748   -3.3170   -1.3539 H   0  0  0  0  0  0  0  0  0  0  0  0
   -1.3313   -2.4654    0.0947 C   0  0  0  0  0  0  0  0  0  0  0  0
   -0.5404   -2.9725    0.8696 O   0  0  0  0  0  0  0  0  0  0  0  0
   -1.0807   -1.2247   -0.4561 N   0  0  0  0  0  0  0  0  0  0  0  0
   -1.6845   -0.9828   -1.2415 H   0  0  0  0  0  0  0  0  0  0  0  0
    0.2430   -0.5739   -0.4384 C   0  0  1  0  0  0  0  0  0  0  0  0
    0.9657   -1.2285   -0.9383 H   0  0  0  0  0  0  0  0  0  0  0  0
    0.1231    0.7672   -1.2019 C   0  0  0  0  0  0  0  0  0  0  0  0
   -0.9256    1.0747   -1.2794 H   0  0  0  0  0  0  0  0  0  0  0  0
    0.6401    1.5555   -0.6423 H   0  0  0  0  0  0  0  0  0  0  0  0
    0.7606    0.7001   -2.6042 C   0  0  0  0  0  0  0  0  0  0  0  0
    0.6739    1.6766   -3.0880 H   0  0  0  0  0  0  0  0  0  0  0  0
    1.8274    0.4796   -2.4989 H   0  0  0  0  0  0  0  0  0  0  0  0
    0.1385   -0.3499   -3.5283 C   0  0  0  0  0  0  0  0  0  0  0  0
   -1.0302   -0.6745   -3.3705 O   0  0  0  0  0  0  0  0  0  0  0  0
    0.9315   -0.8647   -4.4951 O   0  0  0  0  0  0  0  0  0  0  0  0
    0.3900   -1.5042   -4.9818 H   0  0  0  0  0  0  0  0  0  0  0  0
    0.8115   -0.3162    0.9764 C   0  0  0  0  0  0  0  0  0  0  0  0
    2.0234   -0.3243    1.1487 O   0  0  0  0  0  0  0  0  0  0  0  0
   -0.0052    0.2089    1.9608 N   0  0  0  0  0  0  0  0  0  0  0  0
   -1.0017    0.0866    1.8106 H   0  0  0  0  0  0  0  0  0  0  0  0
    0.4694    0.4734    3.3130 C   0  0  0  0  0  0  0  0  0  0  0  0
    1.2956    1.1922    3.2965 H   0  0  0  0  0  0  0  0  0  0  0  0
   -0.3375    0.8917    3.9223 H   0  0  0  0  0  0  0  0  0  0  0  0
    0.8175   -0.4523    3.7833 H   0  0  0  0  0  0  0  0  0  0  0  0
  1  2  1  0  0  0  0
  2  3  1  0  0  0  0
  2  4  1  0  0  0  0
  2  5  1  0  0  0  0
  5  6  2  0  0  0  0
  5  7  1  0  0  0  0
  7  8  1  0  0  0  0
  7  9  1  0  0  0  0
  9 10  1  0  0  0  0
  9 11  1  0  0  0  0
  9 21  1  0  0  0  0
 11 12  1  0  0  0  0
 11 13  1  0  0  0  0
 11 14  1  0  0  0  0
 14 15  1  0  0  0  0
 14 16  1  0  0  0  0
 14 17  1  0  0  0  0
 17 18  2  0  0  0  0
 17 19  1  0  0  0  0
 19 20  1  0  0  0  0
 21 22  2  0  0  0  0
 21 23  1  0  0  0  0
 23 24  1  0  0  0  0
 23 25  1  0  0  0  0
 25 26  1  0  0  0  0
 25 27  1  0  0  0  0
 25 28  1  0  0  0  0
M  END
$$$$

  -OEChem-02102214123D

 28 27  0     1  0  0  0  0  0999 V2000
   -2.6440   -4.1765    0.1893 H   0  0  0  0  0  0  0  0  0  0  0  0
   -2.6202   -3.1871   -0.2761 C   0  0  0  0  0  0  0  0  0  0  0  0
   -3.4873   -2.6160    0.0639 H   0  0  0  0  0  0  0  0  0  0  0  0
   -2.6743   -3.3078   -1.3609 H   0  0  0  0  0  0  0  0  0  0  0  0
   -1.3426   -2.4624    0.1017 C   0  0  0  0  0  0  0  0  0  0  0  0
   -0.5653   -2.9719    0.8887 O   0  0  0  0  0  0  0  0  0  0  0  0
   -1.0745   -1.2273   -0.4526 N   0  0  0  0  0  0  0  0  0  0  0  0
   -1.6702   -0.9794   -1.2427 H   0  0  0  0  0  0  0  0  0  0  0  0
    0.2533   -0.5861   -0.4239 C   0  0  1  0  0  0  0  0  0  0  0  0
    0.9749   -1.2485   -0.9149 H   0  0  0  0  0  0  0  0  0  0  0  0
    0.1396    0.7490   -1.1968 C   0  0  0  0  0  0  0  0  0  0  0  0
   -0.9017    1.0820   -1.2695 H   0  0  0  0  0  0  0  0  0  0  0  0
    0.6752    1.5275   -0.6410 H   0  0  0  0  0  0  0  0  0  0  0  0
    0.7896    0.6602   -2.5926 C   0  0  0  0  0  0  0  0  0  0  0  0
    0.9209    1.6731   -2.9831 H   0  0  0  0  0  0  0  0  0  0  0  0
    1.7847    0.2121   -2.5128 H   0  0  0  0  0  0  0  0  0  0  0  0
   -0.0327   -0.1248   -3.6196 C   0  0  0  0  0  0  0  0  0  0  0  0
   -1.1545   -0.5213   -3.3344 O   0  0  0  0  0  0  0  0  0  0  0  0
    0.5468   -0.3369   -4.8226 O   0  0  0  0  0  0  0  0  0  0  0  0
   -0.0925   -0.8415   -5.3478 H   0  0  0  0  0  0  0  0  0  0  0  0
    0.8090   -0.3237    0.9951 C   0  0  0  0  0  0  0  0  0  0  0  0
    2.0190   -0.3368    1.1804 O   0  0  0  0  0  0  0  0  0  0  0  0
   -0.0151    0.2136    1.9668 N   0  0  0  0  0  0  0  0  0  0  0  0
   -1.0108    0.0985    1.8062 H   0  0  0  0  0  0  0  0  0  0  0  0
    0.4464    0.4929    3.3207 C   0  0  0  0  0  0  0  0  0  0  0  0
    1.2727    1.2113    3.3043 H   0  0  0  0  0  0  0  0  0  0  0  0
   -0.3661    0.9179    3.9176 H   0  0  0  0  0  0  0  0  0  0  0  0
    0.7897   -0.4275    3.8049 H   0  0  0  0  0  0  0  0  0  0  0  0
  1  2  1  0  0  0  0
  2  3  1  0  0  0  0
  2  4  1  0  0  0  0
  2  5  1  0  0  0  0
  5  6  2  0  0  0  0
  5  7  1  0  0  0  0
  7  8  1  0  0  0  0
  7  9  1  0  0  0  0
  9 10  1  0  0  0  0
  9 11  1  0  0  0  0
  9 21  1  0  0  0  0
 11 12  1  0  0  0  0
 11 13  1  0  0  0  0
 11 14  1  0  0  0  0
 14 15  1  0  0  0  0
 14 16  1  0  0  0  0
 14 17  1  0  0  0  0
 17 18  2  0  0  0  0
 17 19  1  0  0  0  0
 19 20  1  0  0  0  0
 21 22  2  0  0  0  0
 21 23  1  0  0  0  0
 23 24  1  0  0  0  0
 23 25  1  0  0  0  0
 25 26  1  0  0  0  0
 25 27  1  0  0  0  0
 25 28  1  0  0  0  0
M  END
$$$$

  -OEChem-02102214123D

 28 27  0     1  0  0  0  0  0999 V2000
   -2.6784   -4.1607    0.2137 H   0  0  0  0  0  0  0  0  0  0  0  0
   -2.6358   -3.1806   -0.2701 C   0  0  0  0  0  0  0  0  0  0  0  0
   -3.5004   -2.5924    0.0465 H   0  0  0  0  0  0  0  0  0  0  0  0
   -2.6767   -3.3217   -1.3530 H   0  0  0  0  0  0  0  0  0  0  0  0
   -1.3540   -2.4647    0.1109 C   0  0  0  0  0  0  0  0  0  0  0  0
   -0.5909   -2.9722    0.9131 O   0  0  0  0  0  0  0  0  0  0  0  0
   -1.0664   -1.2394   -0.4559 N   0  0  0  0  0  0  0  0  0  0  0  0
   -1.6510   -0.9924   -1.2546 H   0  0  0  0  0  0  0  0  0  0  0  0
    0.2674   -0.6118   -0.4156 C   0  0  1  0  0  0  0  0  0  0  0  0
    0.9884   -1.2878   -0.8877 H   0  0  0  0  0  0  0  0  0  0  0  0
    0.1642    0.7145   -1.2034 C   0  0  0  0  0  0  0  0  0  0  0  0
   -0.8713    1.0657   -1.2749 H   0  0  0  0  0  0  0  0  0  0  0  0
    0.7099    1.4883   -0.6510 H   0  0  0  0  0  0  0  0  0  0  0  0
    0.8252    0.6112   -2.5940 C   0  0  0  0  0  0  0  0  0  0  0  0
    1.1799    1.6057   -2.8789 H   0  0  0  0  0  0  0  0  0  0  0  0
    1.7003   -0.0442   -2.5689 H   0  0  0  0  0  0  0  0  0  0  0  0
   -0.1363    0.1444   -3.6900 C   0  0  0  0  0  0  0  0  0  0  0  0
   -1.1830   -0.4112   -3.3845 O   0  0  0  0  0  0  0  0  0  0  0  0
    0.2391    0.3741   -4.9687 O   0  0  0  0  0  0  0  0  0  0  0  0
   -0.4660    0.0150   -5.5282 H   0  0  0  0  0  0  0  0  0  0  0  0
    0.8067   -0.3355    1.0073 C   0  0  0  0  0  0  0  0  0  0  0  0
    2.0142   -0.3551    1.2073 O   0  0  0  0  0  0  0  0  0  0  0  0
   -0.0242    0.2237    1.9608 N   0  0  0  0  0  0  0  0  0  0  0  0
   -1.0191    0.1131    1.7919 H   0  0  0  0  0  0  0  0  0  0  0  0
    0.4262    0.5288    3.3129 C   0  0  0  0  0  0  0  0  0  0  0  0
    1.2580    1.2409    3.2895 H   0  0  0  0  0  0  0  0  0  0  0  0
   -0.3890    0.9726    3.8924 H   0  0  0  0  0  0  0  0  0  0  0  0
    0.7583   -0.3836    3.8197 H   0  0  0  0  0  0  0  0  0  0  0  0
  1  2  1  0  0  0  0
  2  3  1  0  0  0  0
  2  4  1  0  0  0  0
  2  5  1  0  0  0  0
  5  6  2  0  0  0  0
  5  7  1  0  0  0  0
  7  8  1  0  0  0  0
  7  9  1  0  0  0  0
  9 10  1  0  0  0  0
  9 11  1  0  0  0  0
  9 21  1  0  0  0  0
 11 12  1  0  0  0  0
 11 13  1  0  0  0  0
 11 14  1  0  0  0  0
 14 15  1  0  0  0  0
 14 16  1  0  0  0  0
 14 17  1  0  0  0  0
 17 18  2  0  0  0  0
 17 19  1  0  0  0  0
 19 20  1  0  0  0  0
 21 22  2  0  0  0  0
 21 23  1  0  0  0  0
 23 24  1  0  0  0  0
 23 25  1  0  0  0  0
 25 26  1  0  0  0  0
 25 27  1  0  0  0  0
 25 28  1  0  0  0  0
M  END
$$$$

  -OEChem-02102214123D

 28 27  0     1  0  0  0  0  0999 V2000
   -2.7060   -4.1432    0.2461 H   0  0  0  0  0  0  0  0  0  0  0  0
   -2.6541   -3.1665   -0.2432 C   0  0  0  0  0  0  0  0  0  0  0  0
   -3.5030   -2.5624    0.0850 H   0  0  0  0  0  0  0  0  0  0  0  0
   -2.7152   -3.3120   -1.3245 H   0  0  0  0  0  0  0  0  0  0  0  0
   -1.3542   -2.4713    0.1148 C   0  0  0  0  0  0  0  0  0  0  0  0
   -0.5919   -2.9836    0.9146 O   0  0  0  0  0  0  0  0  0  0  0  0
   -1.0520   -1.2548   -0.4638 N   0  0  0  0  0  0  0  0  0  0  0  0
   -1.6484   -0.9903   -1.2467 H   0  0  0  0  0  0  0  0  0  0  0  0
    0.2841   -0.6311   -0.4191 C   0  0  1  0  0  0  0  0  0  0  0  0
    1.0090   -1.3154   -0.8721 H   0  0  0  0  0  0  0  0  0  0  0  0
    0.1840    0.6846   -1.2243 C   0  0  0  0  0  0  0  0  0  0  0  0
   -0.8511    1.0370   -1.2951 H   0  0  0  0  0  0  0  0  0  0  0  0
    0.7272    1.4636   -0.6766 H   0  0  0  0  0  0  0  0  0  0  0  0
    0.8512    0.5743   -2.6138 C   0  0  0  0  0  0  0  0  0  0  0  0
    1.4312    1.4849   -2.7904 H   0  0  0  0  0  0  0  0  0  0  0  0
    1.5517   -0.2628   -2.6690 H   0  0  0  0  0  0  0  0  0  0  0  0
   -0.1732    0.4563   -3.7421 C   0  0  0  0  0  0  0  0  0  0  0  0
   -1.2023   -0.1737   -3.5418 O   0  0  0  0  0  0  0  0  0  0  0  0
    0.1192    1.0561   -4.9188 O   0  0  0  0  0  0  0  0  0  0  0  0
   -0.6251    0.8698   -5.5111 H   0  0  0  0  0  0  0  0  0  0  0  0
    0.8088   -0.3392    1.0061 C   0  0  0  0  0  0  0  0  0  0  0  0
    2.0137   -0.3620    1.2202 O   0  0  0  0  0  0  0  0  0  0  0  0
   -0.0297    0.2345    1.9443 N   0  0  0  0  0  0  0  0  0  0  0  0
   -1.0233    0.1282    1.7654 H   0  0  0  0  0  0  0  0  0  0  0  0
    0.4072    0.5497    3.2987 C   0  0  0  0  0  0  0  0  0  0  0  0
    1.2404    1.2602    3.2780 H   0  0  0  0  0  0  0  0  0  0  0  0
   -0.4131    0.9989    3.8664 H   0  0  0  0  0  0  0  0  0  0  0  0
    0.7325   -0.3590    3.8163 H   0  0  0  0  0  0  0  0  0  0  0  0
  1  2  1  0  0  0  0
  2  3  1  0  0  0  0
  2  4  1  0  0  0  0
  2  5  1  0  0  0  0
  5  6  2  0  0  0  0
  5  7  1  0  0  0  0
  7  8  1  0  0  0  0
  7  9  1  0  0  0  0
  9 10  1  0  0  0  0
  9 11  1  0  0  0  0
  9 21  1  0  0  0  0
 11 12  1  0  0  0  0
 11 13  1  0  0  0  0
 11 14  1  0  0  0  0
 14 15  1  0  0  0  0
 14 16  1  0  0  0  0
 14 17  1  0  0  0  0
 17 18  2  0  0  0  0
 17 19  1  0  0  0  0
 19 20  1  0  0  0  0
 21 22  2  0  0  0  0
 21 23  1  0  0  0  0
 23 24  1  0  0  0  0
 23 25  1  0  0  0  0
 25 26  1  0  0  0  0
 25 27  1  0  0  0  0
 25 28  1  0  0  0  0
M  END
$$$$

  -OEChem-02102214123D

 28 27  0     1  0  0  0  0  0999 V2000
   -2.7191   -4.1396    0.3010 H   0  0  0  0  0  0  0  0  0  0  0  0
   -2.6715   -3.1648   -0.1928 C   0  0  0  0  0  0  0  0  0  0  0  0
   -3.5038   -2.5506    0.1588 H   0  0  0  0  0  0  0  0  0  0  0  0
   -2.7660   -3.3131   -1.2713 H   0  0  0  0  0  0  0  0  0  0  0  0
   -1.3539   -2.4831    0.1233 C   0  0  0  0  0  0  0  0  0  0  0  0
   -0.5706   -3.0046    0.8960 O   0  0  0  0  0  0  0  0  0  0  0  0
   -1.0553   -1.2703   -0.4655 N   0  0  0  0  0  0  0  0  0  0  0  0
   -1.6828   -0.9804   -1.2130 H   0  0  0  0  0  0  0  0  0  0  0  0
    0.2806   -0.6442   -0.4322 C   0  0  1  0  0  0  0  0  0  0  0  0
    1.0067   -1.3319   -0.8785 H   0  0  0  0  0  0  0  0  0  0  0  0
    0.1880    0.6684   -1.2440 C   0  0  0  0  0  0  0  0  0  0  0  0
   -0.8515    1.0066   -1.3166 H   0  0  0  0  0  0  0  0  0  0  0  0
    0.7203    1.4585   -0.7012 H   0  0  0  0  0  0  0  0  0  0  0  0
    0.8529    0.5545   -2.6365 C   0  0  0  0  0  0  0  0  0  0  0  0
    1.6585    1.2915   -2.7055 H   0  0  0  0  0  0  0  0  0  0  0  0
    1.3054   -0.4278   -2.7932 H   0  0  0  0  0  0  0  0  0  0  0  0
   -0.1359    0.8102   -3.7712 C   0  0  0  0  0  0  0  0  0  0  0  0
   -1.2228    0.2529   -3.7338 O   0  0  0  0  0  0  0  0  0  0  0  0
    0.2446    1.6438   -4.7660 O   0  0  0  0  0  0  0  0  0  0  0  0
   -0.4958    1.6769   -5.3904 H   0  0  0  0  0  0  0  0  0  0  0  0
    0.8069   -0.3430    0.9909 C   0  0  0  0  0  0  0  0  0  0  0  0
    2.0116   -0.3658    1.2058 O   0  0  0  0  0  0  0  0  0  0  0  0
   -0.0313    0.2351    1.9268 N   0  0  0  0  0  0  0  0  0  0  0  0
   -1.0253    0.1364    1.7468 H   0  0  0  0  0  0  0  0  0  0  0  0
    0.4068    0.5618    3.2779 C   0  0  0  0  0  0  0  0  0  0  0  0
    1.2323    1.2811    3.2504 H   0  0  0  0  0  0  0  0  0  0  0  0
   -0.4164    1.0051    3.8463 H   0  0  0  0  0  0  0  0  0  0  0  0
    0.7436   -0.3408    3.7989 H   0  0  0  0  0  0  0  0  0  0  0  0
  1  2  1  0  0  0  0
  2  3  1  0  0  0  0
  2  4  1  0  0  0  0
  2  5  1  0  0  0  0
  5  6  2  0  0  0  0
  5  7  1  0  0  0  0
  7  8  1  0  0  0  0
  7  9  1  0  0  0  0
  9 10  1  0  0  0  0
  9 11  1  0  0  0  0
  9 21  1  0  0  0  0
 11 12  1  0  0  0  0
 11 13  1  0  0  0  0
 11 14  1  0  0  0  0
 14 15  1  0  0  0  0
 14 16  1  0  0  0  0
 14 17  1  0  0  0  0
 17 18  2  0  0  0  0
 17 19  1  0  0  0  0
 19 20  1  0  0  0  0
 21 22  2  0  0  0  0
 21 23  1  0  0  0  0
 23 24  1  0  0  0  0
 23 25  1  0  0  0  0
 25 26  1  0  0  0  0
 25 27  1  0  0  0  0
 25 28  1  0  0  0  0
M  END
$$$$

  -OEChem-02102214123D

 28 27  0     1  0  0  0  0  0999 V2000
   -2.7355   -4.1277    0.3611 H   0  0  0  0  0  0  0  0  0  0  0  0
   -2.6854   -3.1660   -0.1577 C   0  0  0  0  0  0  0  0  0  0  0  0
   -3.5054   -2.5344    0.1919 H   0  0  0  0  0  0  0  0  0  0  0  0
   -2.7996   -3.3400   -1.2305 H   0  0  0  0  0  0  0  0  0  0  0  0
   -1.3553   -2.4919    0.1208 C   0  0  0  0  0  0  0  0  0  0  0  0
   -0.5489   -3.0230    0.8623 O   0  0  0  0  0  0  0  0  0  0  0  0
   -1.0697   -1.2755   -0.4673 N   0  0  0  0  0  0  0  0  0  0  0  0
   -1.7262   -0.9632   -1.1788 H   0  0  0  0  0  0  0  0  0  0  0  0
    0.2625   -0.6400   -0.4467 C   0  0  1  0  0  0  0  0  0  0  0  0
    0.9877   -1.3249   -0.8992 H   0  0  0  0  0  0  0  0  0  0  0  0
    0.1734    0.6716   -1.2594 C   0  0  0  0  0  0  0  0  0  0  0  0
   -0.8738    0.9806   -1.3488 H   0  0  0  0  0  0  0  0  0  0  0  0
    0.6833    1.4797   -0.7216 H   0  0  0  0  0  0  0  0  0  0  0  0
    0.8390    0.5435   -2.6486 C   0  0  0  0  0  0  0  0  0  0  0  0
    1.8163    1.0354   -2.6316 H   0  0  0  0  0  0  0  0  0  0  0  0
    1.0081   -0.5050   -2.9087 H   0  0  0  0  0  0  0  0  0  0  0  0
   -0.0186    1.1458   -3.7571 C   0  0  0  0  0  0  0  0  0  0  0  0
   -1.1576    0.7292   -3.9003 O   0  0  0  0  0  0  0  0  0  0  0  0
    0.5258    2.1188   -4.5228 O   0  0  0  0  0  0  0  0  0  0  0  0
   -0.1550    2.3707   -5.1649 H   0  0  0  0  0  0  0  0  0  0  0  0
    0.8031   -0.3383    0.9706 C   0  0  0  0  0  0  0  0  0  0  0  0
    2.0106   -0.3516    1.1698 O   0  0  0  0  0  0  0  0  0  0  0  0
   -0.0266    0.2318    1.9189 N   0  0  0  0  0  0  0  0  0  0  0  0
   -1.0224    0.1280    1.7533 H   0  0  0  0  0  0  0  0  0  0  0  0
    0.4295    0.5657    3.2624 C   0  0  0  0  0  0  0  0  0  0  0  0
    1.2378    1.3036    3.2205 H   0  0  0  0  0  0  0  0  0  0  0  0
   -0.3924    0.9891    3.8477 H   0  0  0  0  0  0  0  0  0  0  0  0
    0.7968   -0.3300    3.7745 H   0  0  0  0  0  0  0  0  0  0  0  0
  1  2  1  0  0  0  0
  2  3  1  0  0  0  0
  2  4  1  0  0  0  0
  2  5  1  0  0  0  0
  5  6  2  0  0  0  0
  5  7  1  0  0  0  0
  7  8  1  0  0  0  0
  7  9  1  0  0  0  0
  9 10  1  0  0  0  0
  9 11  1  0  0  0  0
  9 21  1  0  0  0  0
 11 12  1  0  0  0  0
 11 13  1  0  0  0  0
 11 14  1  0  0  0  0
 14 15  1  0  0  0  0
 14 16  1  0  0  0  0
 14 17  1  0  0  0  0
 17 18  2  0  0  0  0
 17 19  1  0  0  0  0
 19 20  1  0  0  0  0
 21 22  2  0  0  0  0
 21 23  1  0  0  0  0
 23 24  1  0  0  0  0
 23 25  1  0  0  0  0
 25 26  1  0  0  0  0
 25 27  1  0  0  0  0
 25 28  1  0  0  0  0
M  END
$$$$

  -OEChem-02102214123D

 28 27  0     1  0  0  0  0  0999 V2000
   -2.6334   -4.1760    0.3011 H   0  0  0  0  0  0  0  0  0  0  0  0
   -2.6325   -3.1840   -0.1599 C   0  0  0  0  0  0  0  0  0  0  0  0
   -3.4308   -2.5875    0.2881 H   0  0  0  0  0  0  0  0  0  0  0  0
   -2.8247   -3.2947   -1.2299 H   0  0  0  0  0  0  0  0  0  0  0  0
   -1.2924   -2.5080    0.0602 C   0  0  0  0  0  0  0  0  0  0  0  0
   -0.4290   -3.0681    0.7104 O   0  0  0  0  0  0  0  0  0  0  0  0
   -1.0605   -1.2568   -0.4767 N   0  0  0  0  0  0  0  0  0  0  0  0
   -1.7834   -0.8842   -1.0860 H   0  0  0  0  0  0  0  0  0  0  0  0
    0.2458   -0.5691   -0.4460 C   0  0  1  0  0  0  0  0  0  0  0  0
    0.9898   -1.2094   -0.9334 H   0  0  0  0  0  0  0  0  0  0  0  0
    0.1182    0.7677   -1.2106 C   0  0  0  0  0  0  0  0  0  0  0  0
   -0.9423    1.0254   -1.2960 H   0  0  0  0  0  0  0  0  0  0  0  0
    0.5922    1.5809   -0.6484 H   0  0  0  0  0  0  0  0  0  0  0  0
    0.7912    0.6912   -2.6022 C   0  0  0  0  0  0  0  0  0  0  0  0
    1.8521    0.9386   -2.5004 H   0  0  0  0  0  0  0  0  0  0  0  0
    0.7291   -0.3324   -2.9823 H   0  0  0  0  0  0  0  0  0  0  0  0
    0.1719    1.5837   -3.6812 C   0  0  0  0  0  0  0  0  0  0  0  0
   -0.8725    2.1776   -3.4667 O   0  0  0  0  0  0  0  0  0  0  0  0
    0.8362    1.6523   -4.8571 O   0  0  0  0  0  0  0  0  0  0  0  0
    0.3235    2.2517   -5.4204 H   0  0  0  0  0  0  0  0  0  0  0  0
    0.7910   -0.3089    0.9773 C   0  0  0  0  0  0  0  0  0  0  0  0
    1.9996   -0.2967    1.1689 O   0  0  0  0  0  0  0  0  0  0  0  0
   -0.0491    0.1848    1.9589 N   0  0  0  0  0  0  0  0  0  0  0  0
   -1.0437    0.0792    1.7882 H   0  0  0  0  0  0  0  0  0  0  0  0
    0.4048    0.4639    3.3156 C   0  0  0  0  0  0  0  0  0  0  0  0
    1.2083    1.2078    3.3067 H   0  0  0  0  0  0  0  0  0  0  0  0
   -0.4198    0.8566    3.9178 H   0  0  0  0  0  0  0  0  0  0  0  0
    0.7773   -0.4506    3.7891 H   0  0  0  0  0  0  0  0  0  0  0  0
  1  2  1  0  0  0  0
  2  3  1  0  0  0  0
  2  4  1  0  0  0  0
  2  5  1  0  0  0  0
  5  6  2  0  0  0  0
  5  7  1  0  0  0  0
  7  8  1  0  0  0  0
  7  9  1  0  0  0  0
  9 10  1  0  0  0  0
  9 11  1  0  0  0  0
  9 21  1  0  0  0  0
 11 12  1  0  0  0  0
 11 13  1  0  0  0  0
 11 14  1  0  0  0  0
 14 15  1  0  0  0  0
 14 16  1  0  0  0  0
 14 17  1  0  0  0  0
 17 18  2  0  0  0  0
 17 19  1  0  0  0  0
 19 20  1  0  0  0  0
 21 22  2  0  0  0  0
 21 23  1  0  0  0  0
 23 24  1  0  0  0  0
 23 25  1  0  0  0  0
 25 26  1  0  0  0  0
 25 27  1  0  0  0  0
 25 28  1  0  0  0  0
M  END
$$$$

  -OEChem-02102214123D

 28 27  0     1  0  0  0  0  0999 V2000
   -2.6271   -4.1724    0.2855 H   0  0  0  0  0  0  0  0  0  0  0  0
   -2.6264   -3.1787   -0.1714 C   0  0  0  0  0  0  0  0  0  0  0  0
   -3.4239   -2.5836    0.2798 H   0  0  0  0  0  0  0  0  0  0  0  0
   -2.8194   -3.2852   -1.2415 H   0  0  0  0  0  0  0  0  0  0  0  0
   -1.2859   -2.5044    0.0502 C   0  0  0  0  0  0  0  0  0  0  0  0
   -0.4224   -3.0668    0.6981 O   0  0  0  0  0  0  0  0  0  0  0  0
   -1.0544   -1.2515   -0.4825 N   0  0  0  0  0  0  0  0  0  0  0  0
   -1.7783   -0.8761   -1.0882 H   0  0  0  0  0  0  0  0  0  0  0  0
    0.2506   -0.5617   -0.4464 C   0  0  1  0  0  0  0  0  0  0  0  0
    0.9952   -1.1997   -0.9365 H   0  0  0  0  0  0  0  0  0  0  0  0
    0.1233    0.7733   -1.2121 C   0  0  0  0  0  0  0  0  0  0  0  0
   -0.9350    1.0340   -1.3192 H   0  0  0  0  0  0  0  0  0  0  0  0
    0.5956    1.5858   -0.6471 H   0  0  0  0  0  0  0  0  0  0  0  0
    0.8032    0.6884   -2.5947 C   0  0  0  0  0  0  0  0  0  0  0  0
    1.8892    0.6868   -2.4625 H   0  0  0  0  0  0  0  0  0  0  0  0
    0.5262   -0.2525   -3.0782 H   0  0  0  0  0  0  0  0  0  0  0  0
    0.4264    1.8175   -3.5559 C   0  0  0  0  0  0  0  0  0  0  0  0
   -0.4342    2.6251   -3.2447 O   0  0  0  0  0  0  0  0  0  0  0  0
    1.0798    1.8473   -4.7394 O   0  0  0  0  0  0  0  0  0  0  0  0
    0.7327    2.6158   -5.2173 H   0  0  0  0  0  0  0  0  0  0  0  0
    0.7919   -0.3044    0.9790 C   0  0  0  0  0  0  0  0  0  0  0  0
    1.9998   -0.2951    1.1750 O   0  0  0  0  0  0  0  0  0  0  0  0
   -0.0521    0.1853    1.9592 N   0  0  0  0  0  0  0  0  0  0  0  0
   -1.0460    0.0830    1.7834 H   0  0  0  0  0  0  0  0  0  0  0  0
    0.3961    0.4628    3.3178 C   0  0  0  0  0  0  0  0  0  0  0  0
    1.1953    1.2114    3.3130 H   0  0  0  0  0  0  0  0  0  0  0  0
   -0.4330    0.8489    3.9183 H   0  0  0  0  0  0  0  0  0  0  0  0
    0.7725   -0.4507    3.7901 H   0  0  0  0  0  0  0  0  0  0  0  0
  1  2  1  0  0  0  0
  2  3  1  0  0  0  0
  2  4  1  0  0  0  0
  2  5  1  0  0  0  0
  5  6  2  0  0  0  0
  5  7  1  0  0  0  0
  7  8  1  0  0  0  0
  7  9  1  0  0  0  0
  9 10  1  0  0  0  0
  9 11  1  0  0  0  0
  9 21  1  0  0  0  0
 11 12  1  0  0  0  0
 11 13  1  0  0  0  0
 11 14  1  0  0  0  0
 14 15  1  0  0  0  0
 14 16  1  0  0  0  0
 14 17  1  0  0  0  0
 17 18  2  0  0  0  0
 17 19  1  0  0  0  0
 19 20  1  0  0  0  0
 21 22  2  0  0  0  0
 21 23  1  0  0  0  0
 23 24  1  0  0  0  0
 23 25  1  0  0  0  0
 25 26  1  0  0  0  0
 25 27  1  0  0  0  0
 25 28  1  0  0  0  0
M  END
$$$$

  -OEChem-02102214123D

 28 27  0     1  0  0  0  0  0999 V2000
   -2.6684   -4.1449    0.3366 H   0  0  0  0  0  0  0  0  0  0  0  0
   -2.6433   -3.1737   -0.1663 C   0  0  0  0  0  0  0  0  0  0  0  0
   -3.4417   -2.5475    0.2388 H   0  0  0  0  0  0  0  0  0  0  0  0
   -2.8150   -3.3273   -1.2343 H   0  0  0  0  0  0  0  0  0  0  0  0
   -1.2978   -2.5082    0.0529 C   0  0  0  0  0  0  0  0  0  0  0  0
   -0.4414   -3.0731    0.7079 O   0  0  0  0  0  0  0  0  0  0  0  0
   -1.0536   -1.2613   -0.4890 N   0  0  0  0  0  0  0  0  0  0  0  0
   -1.7719   -0.8834   -1.0995 H   0  0  0  0  0  0  0  0  0  0  0  0
    0.2578   -0.5844   -0.4542 C   0  0  1  0  0  0  0  0  0  0  0  0
    1.0016   -1.2205   -0.9476 H   0  0  0  0  0  0  0  0  0  0  0  0
    0.1307    0.7507   -1.2126 C   0  0  0  0  0  0  0  0  0  0  0  0
   -0.8721    1.1700   -1.0758 H   0  0  0  0  0  0  0  0  0  0  0  0
    0.8422    1.4751   -0.7980 H   0  0  0  0  0  0  0  0  0  0  0  0
    0.4535    0.5751   -2.7098 C   0  0  0  0  0  0  0  0  0  0  0  0
    1.4746    0.1957   -2.8149 H   0  0  0  0  0  0  0  0  0  0  0  0
   -0.2227   -0.1617   -3.1514 H   0  0  0  0  0  0  0  0  0  0  0  0
    0.3433    1.8701   -3.5153 C   0  0  0  0  0  0  0  0  0  0  0  0
   -0.3225    2.7960   -3.0814 O   0  0  0  0  0  0  0  0  0  0  0  0
    0.9883    1.9095   -4.7030 O   0  0  0  0  0  0  0  0  0  0  0  0
    0.8172    2.7900   -5.0707 H   0  0  0  0  0  0  0  0  0  0  0  0
    0.7978   -0.3219    0.9709 C   0  0  0  0  0  0  0  0  0  0  0  0
    2.0053   -0.3246    1.1689 O   0  0  0  0  0  0  0  0  0  0  0  0
   -0.0409    0.1835    1.9475 N   0  0  0  0  0  0  0  0  0  0  0  0
   -1.0362    0.0972    1.7721 H   0  0  0  0  0  0  0  0  0  0  0  0
    0.4133    0.4854    3.2990 C   0  0  0  0  0  0  0  0  0  0  0  0
    1.2026    1.2443    3.2773 H   0  0  0  0  0  0  0  0  0  0  0  0
   -0.4158    0.8691    3.9009 H   0  0  0  0  0  0  0  0  0  0  0  0
    0.8052   -0.4166    3.7810 H   0  0  0  0  0  0  0  0  0  0  0  0
  1  2  1  0  0  0  0
  2  3  1  0  0  0  0
  2  4  1  0  0  0  0
  2  5  1  0  0  0  0
  5  6  2  0  0  0  0
  5  7  1  0  0  0  0
  7  8  1  0  0  0  0
  7  9  1  0  0  0  0
  9 10  1  0  0  0  0
  9 11  1  0  0  0  0
  9 21  1  0  0  0  0
 11 12  1  0  0  0  0
 11 13  1  0  0  0  0
 11 14  1  0  0  0  0
 14 15  1  0  0  0  0
 14 16  1  0  0  0  0
 14 17  1  0  0  0  0
 17 18  2  0  0  0  0
 17 19  1  0  0  0  0
 19 20  1  0  0  0  0
 21 22  2  0  0  0  0
 21 23  1  0  0  0  0
 23 24  1  0  0  0  0
 23 25  1  0  0  0  0
 25 26  1  0  0  0  0
 25 27  1  0  0  0  0
 25 28  1  0  0  0  0
M  END
$$$$

  -OEChem-02102214123D

 28 27  0     1  0  0  0  0  0999 V2000
   -2.6670   -4.1480    0.3356 H   0  0  0  0  0  0  0  0  0  0  0  0
   -2.6464   -3.1732   -0.1600 C   0  0  0  0  0  0  0  0  0  0  0  0
   -3.4435   -2.5514    0.2546 H   0  0  0  0  0  0  0  0  0  0  0  0
   -2.8234   -3.3193   -1.2282 H   0  0  0  0  0  0  0  0  0  0  0  0
   -1.3012   -2.5070    0.0571 C   0  0  0  0  0  0  0  0  0  0  0  0
   -0.4442   -3.0710    0.7120 O   0  0  0  0  0  0  0  0  0  0  0  0
   -1.0572   -1.2620   -0.4889 N   0  0  0  0  0  0  0  0  0  0  0  0
   -1.7725   -0.8907   -1.1069 H   0  0  0  0  0  0  0  0  0  0  0  0
    0.2554   -0.5878   -0.4611 C   0  0  1  0  0  0  0  0  0  0  0  0
    0.9956   -1.2290   -0.9527 H   0  0  0  0  0  0  0  0  0  0  0  0
    0.1231    0.7453   -1.2238 C   0  0  0  0  0  0  0  0  0  0  0  0
   -0.8709    1.1825   -1.0806 H   0  0  0  0  0  0  0  0  0  0  0  0
    0.8487    1.4566   -0.8096 H   0  0  0  0  0  0  0  0  0  0  0  0
    0.4354    0.5764   -2.7249 C   0  0  0  0  0  0  0  0  0  0  0  0
    1.3439   -0.0221   -2.8415 H   0  0  0  0  0  0  0  0  0  0  0  0
   -0.3802    0.0432   -3.2197 H   0  0  0  0  0  0  0  0  0  0  0  0
    0.6703    1.9048   -3.4435 C   0  0  0  0  0  0  0  0  0  0  0  0
    0.1035    2.9081   -3.0426 O   0  0  0  0  0  0  0  0  0  0  0  0
    1.4919    1.8908   -4.5178 O   0  0  0  0  0  0  0  0  0  0  0  0
    1.5291    2.8051   -4.8379 H   0  0  0  0  0  0  0  0  0  0  0  0
    0.8015   -0.3231    0.9617 C   0  0  0  0  0  0  0  0  0  0  0  0
    2.0097   -0.3297    1.1553 O   0  0  0  0  0  0  0  0  0  0  0  0
   -0.0323    0.1865    1.9406 N   0  0  0  0  0  0  0  0  0  0  0  0
   -1.0284    0.0952    1.7720 H   0  0  0  0  0  0  0  0  0  0  0  0
    0.4282    0.4898    3.2899 C   0  0  0  0  0  0  0  0  0  0  0  0
    1.2269    1.2386    3.2634 H   0  0  0  0  0  0  0  0  0  0  0  0
   -0.3949    0.8870    3.8913 H   0  0  0  0  0  0  0  0  0  0  0  0
    0.8099   -0.4143    3.7758 H   0  0  0  0  0  0  0  0  0  0  0  0
  1  2  1  0  0  0  0
  2  3  1  0  0  0  0
  2  4  1  0  0  0  0
  2  5  1  0  0  0  0
  5  6  2  0  0  0  0
  5  7  1  0  0  0  0
  7  8  1  0  0  0  0
  7  9  1  0  0  0  0
  9 10  1  0  0  0  0
  9 11  1  0  0  0  0
  9 21  1  0  0  0  0
 11 12  1  0  0  0  0
 11 13  1  0  0  0  0
 11 14  1  0  0  0  0
 14 15  1  0  0  0  0
 14 16  1  0  0  0  0
 14 17  1  0  0  0  0
 17 18  2  0  0  0  0
 17 19  1  0  0  0  0
 19 20  1  0  0  0  0
 21 22  2  0  0  0  0
 21 23  1  0  0  0  0
 23 24  1  0  0  0  0
 23 25  1  0  0  0  0
 25 26  1  0  0  0  0
 25 27  1  0  0  0  0
 25 28  1  0  0  0  0
M  END
$$$$

  -OEChem-02102214123D

 28 27  0     1  0  0  0  0  0999 V2000
   -2.6713   -4.1455    0.3401 H   0  0  0  0  0  0  0  0  0  0  0  0
   -2.6500   -3.1710   -0.1562 C   0  0  0  0  0  0  0  0  0  0  0  0
   -3.4469   -2.5487    0.2577 H   0  0  0  0  0  0  0  0  0  0  0  0
   -2.8274   -3.3177   -1.2243 H   0  0  0  0  0  0  0  0  0  0  0  0
   -1.3042   -2.5055    0.0600 C   0  0  0  0  0  0  0  0  0  0  0  0
   -0.4492   -3.0662    0.7202 O   0  0  0  0  0  0  0  0  0  0  0  0
   -1.0597   -1.2623   -0.4896 N   0  0  0  0  0  0  0  0  0  0  0  0
   -1.7758   -0.8935   -1.1080 H   0  0  0  0  0  0  0  0  0  0  0  0
    0.2544   -0.5910   -0.4704 C   0  0  1  0  0  0  0  0  0  0  0  0
    0.9920   -1.2346   -0.9619 H   0  0  0  0  0  0  0  0  0  0  0  0
    0.1164    0.7419   -1.2346 C   0  0  0  0  0  0  0  0  0  0  0  0
   -0.8705    1.1912   -1.0801 H   0  0  0  0  0  0  0  0  0  0  0  0
    0.8510    1.4425   -0.8181 H   0  0  0  0  0  0  0  0  0  0  0  0
    0.4151    0.5865   -2.7420 C   0  0  0  0  0  0  0  0  0  0  0  0
    1.1540   -0.2055   -2.8941 H   0  0  0  0  0  0  0  0  0  0  0  0
   -0.4926    0.2975   -3.2776 H   0  0  0  0  0  0  0  0  0  0  0  0
    0.9903    1.8568   -3.3661 C   0  0  0  0  0  0  0  0  0  0  0  0
    0.5355    2.9371   -3.0279 O   0  0  0  0  0  0  0  0  0  0  0  0
    1.9718    1.7139   -4.2854 O   0  0  0  0  0  0  0  0  0  0  0  0
    2.2142    2.6118   -4.5587 H   0  0  0  0  0  0  0  0  0  0  0  0
    0.8082   -0.3248    0.9492 C   0  0  0  0  0  0  0  0  0  0  0  0
    2.0176   -0.3299    1.1353 O   0  0  0  0  0  0  0  0  0  0  0  0
   -0.0197    0.1880    1.9313 N   0  0  0  0  0  0  0  0  0  0  0  0
   -1.0166    0.0913    1.7699 H   0  0  0  0  0  0  0  0  0  0  0  0
    0.4486    0.4858    3.2793 C   0  0  0  0  0  0  0  0  0  0  0  0
    1.2539    1.2275    3.2509 H   0  0  0  0  0  0  0  0  0  0  0  0
   -0.3688    0.8897    3.8842 H   0  0  0  0  0  0  0  0  0  0  0  0
    0.8241   -0.4224    3.7626 H   0  0  0  0  0  0  0  0  0  0  0  0
  1  2  1  0  0  0  0
  2  3  1  0  0  0  0
  2  4  1  0  0  0  0
  2  5  1  0  0  0  0
  5  6  2  0  0  0  0
  5  7  1  0  0  0  0
  7  8  1  0  0  0  0
  7  9  1  0  0  0  0
  9 10  1  0  0  0  0
  9 11  1  0  0  0  0
  9 21  1  0  0  0  0
 11 12  1  0  0  0  0
 11 13  1  0  0  0  0
 11 14  1  0  0  0  0
 14 15  1  0  0  0  0
 14 16  1  0  0  0  0
 14 17  1  0  0  0  0
 17 18  2  0  0  0  0
 17 19  1  0  0  0  0
 19 20  1  0  0  0  0
 21 22  2  0  0  0  0
 21 23  1  0  0  0  0
 23 24  1  0  0  0  0
 23 25  1  0  0  0  0
 25 26  1  0  0  0  0
 25 27  1  0  0  0  0
 25 28  1  0  0  0  0
M  END
$$$$

  -OEChem-02102214123D

 28 27  0     1  0  0  0  0  0999 V2000
   -2.6791   -4.1416    0.3326 H   0  0  0  0  0  0  0  0  0  0  0  0
   -2.6545   -3.1690   -0.1672 C   0  0  0  0  0  0  0  0  0  0  0  0
   -3.4535   -2.5446    0.2394 H   0  0  0  0  0  0  0  0  0  0  0  0
   -2.8255   -3.3199   -1.2359 H   0  0  0  0  0  0  0  0  0  0  0  0
   -1.3102   -2.5024    0.0552 C   0  0  0  0  0  0  0  0  0  0  0  0
   -0.4559   -3.0647    0.7149 O   0  0  0  0  0  0  0  0  0  0  0  0
   -1.0654   -1.2582   -0.4923 N   0  0  0  0  0  0  0  0  0  0  0  0
   -1.7766   -0.8961   -1.1202 H   0  0  0  0  0  0  0  0  0  0  0  0
    0.2521   -0.5928   -0.4830 C   0  0  1  0  0  0  0  0  0  0  0  0
    0.9852   -1.2351   -0.9836 H   0  0  0  0  0  0  0  0  0  0  0  0
    0.1092    0.7473   -1.2352 C   0  0  0  0  0  0  0  0  0  0  0  0
   -0.8762    1.1936   -1.0653 H   0  0  0  0  0  0  0  0  0  0  0  0
    0.8437    1.4458   -0.8148 H   0  0  0  0  0  0  0  0  0  0  0  0
    0.3870    0.6103   -2.7504 C   0  0  0  0  0  0  0  0  0  0  0  0
    0.8861   -0.3391   -2.9638 H   0  0  0  0  0  0  0  0  0  0  0  0
   -0.5566    0.6108   -3.3020 H   0  0  0  0  0  0  0  0  0  0  0  0
    1.2799    1.7265   -3.2870 C   0  0  0  0  0  0  0  0  0  0  0  0
    0.9484    2.8830   -3.0865 O   0  0  0  0  0  0  0  0  0  0  0  0
    2.3937    1.3736   -3.9682 O   0  0  0  0  0  0  0  0  0  0  0  0
    2.8344    2.2028   -4.2088 H   0  0  0  0  0  0  0  0  0  0  0  0
    0.8195   -0.3348    0.9330 C   0  0  0  0  0  0  0  0  0  0  0  0
    2.0305   -0.3425    1.1085 O   0  0  0  0  0  0  0  0  0  0  0  0
    0.0014    0.1780    1.9234 N   0  0  0  0  0  0  0  0  0  0  0  0
   -0.9970    0.0807    1.7722 H   0  0  0  0  0  0  0  0  0  0  0  0
    0.4830    0.4798    3.2657 C   0  0  0  0  0  0  0  0  0  0  0  0
    1.2879    1.2215    3.2268 H   0  0  0  0  0  0  0  0  0  0  0  0
   -0.3285    0.8859    3.8769 H   0  0  0  0  0  0  0  0  0  0  0  0
    0.8628   -0.4269    3.7483 H   0  0  0  0  0  0  0  0  0  0  0  0
  1  2  1  0  0  0  0
  2  3  1  0  0  0  0
  2  4  1  0  0  0  0
  2  5  1  0  0  0  0
  5  6  2  0  0  0  0
  5  7  1  0  0  0  0
  7  8  1  0  0  0  0
  7  9  1  0  0  0  0
  9 10  1  0  0  0  0
  9 11  1  0  0  0  0
  9 21  1  0  0  0  0
 11 12  1  0  0  0  0
 11 13  1  0  0  0  0
 11 14  1  0  0  0  0
 14 15  1  0  0  0  0
 14 16  1  0  0  0  0
 14 17  1  0  0  0  0
 17 18  2  0  0  0  0
 17 19  1  0  0  0  0
 19 20  1  0  0  0  0
 21 22  2  0  0  0  0
 21 23  1  0  0  0  0
 23 24  1  0  0  0  0
 23 25  1  0  0  0  0
 25 26  1  0  0  0  0
 25 27  1  0  0  0  0
 25 28  1  0  0  0  0
M  END
$$$$

  -OEChem-02102214123D

 28 27  0     1  0  0  0  0  0999 V2000
   -2.6760   -4.1352    0.3249 H   0  0  0  0  0  0  0  0  0  0  0  0
   -2.6503   -3.1692   -0.1875 C   0  0  0  0  0  0  0  0  0  0  0  0
   -3.4552   -2.5428    0.2041 H   0  0  0  0  0  0  0  0  0  0  0  0
   -2.8117   -3.3351   -1.2553 H   0  0  0  0  0  0  0  0  0  0  0  0
   -1.3091   -2.4959    0.0365 C   0  0  0  0  0  0  0  0  0  0  0  0
   -0.4511   -3.0582    0.6912 O   0  0  0  0  0  0  0  0  0  0  0  0
   -1.0714   -1.2459   -0.5014 N   0  0  0  0  0  0  0  0  0  0  0  0
   -1.7869   -0.8820   -1.1233 H   0  0  0  0  0  0  0  0  0  0  0  0
    0.2458   -0.5788   -0.4980 C   0  0  1  0  0  0  0  0  0  0  0  0
    0.9758   -1.2141   -1.0125 H   0  0  0  0  0  0  0  0  0  0  0  0
    0.1015    0.7689   -1.2356 C   0  0  0  0  0  0  0  0  0  0  0  0
   -0.8931    1.1934   -1.0642 H   0  0  0  0  0  0  0  0  0  0  0  0
    0.8190    1.4816   -0.8098 H   0  0  0  0  0  0  0  0  0  0  0  0
    0.3696    0.6398   -2.7527 C   0  0  0  0  0  0  0  0  0  0  0  0
    0.5830   -0.3969   -3.0282 H   0  0  0  0  0  0  0  0  0  0  0  0
   -0.5239    0.9407   -3.3066 H   0  0  0  0  0  0  0  0  0  0  0  0
    1.5338    1.5132   -3.2098 C   0  0  0  0  0  0  0  0  0  0  0  0
    1.3985    2.7244   -3.1705 O   0  0  0  0  0  0  0  0  0  0  0  0
    2.6616    0.8968   -3.6299 O   0  0  0  0  0  0  0  0  0  0  0  0
    3.2895    1.6038   -3.8437 H   0  0  0  0  0  0  0  0  0  0  0  0
    0.8271   -0.3336    0.9145 C   0  0  0  0  0  0  0  0  0  0  0  0
    2.0399   -0.3372    1.0770 O   0  0  0  0  0  0  0  0  0  0  0  0
    0.0188    0.1686    1.9183 N   0  0  0  0  0  0  0  0  0  0  0  0
   -0.9806    0.0648    1.7789 H   0  0  0  0  0  0  0  0  0  0  0  0
    0.5152    0.4552    3.2585 C   0  0  0  0  0  0  0  0  0  0  0  0
    1.3177    1.1995    3.2190 H   0  0  0  0  0  0  0  0  0  0  0  0
   -0.2900    0.8510    3.8846 H   0  0  0  0  0  0  0  0  0  0  0  0
    0.9036   -0.4563    3.7253 H   0  0  0  0  0  0  0  0  0  0  0  0
  1  2  1  0  0  0  0
  2  3  1  0  0  0  0
  2  4  1  0  0  0  0
  2  5  1  0  0  0  0
  5  6  2  0  0  0  0
  5  7  1  0  0  0  0
  7  8  1  0  0  0  0
  7  9  1  0  0  0  0
  9 10  1  0  0  0  0
  9 11  1  0  0  0  0
  9 21  1  0  0  0  0
 11 12  1  0  0  0  0
 11 13  1  0  0  0  0
 11 14  1  0  0  0  0
 14 15  1  0  0  0  0
 14 16  1  0  0  0  0
 14 17  1  0  0  0  0
 17 18  2  0  0  0  0
 17 19  1  0  0  0  0
 19 20  1  0  0  0  0
 21 22  2  0  0  0  0
 21 23  1  0  0  0  0
 23 24  1  0  0  0  0
 23 25  1  0  0  0  0
 25 26  1  0  0  0  0
 25 27  1  0  0  0  0
 25 28  1  0  0  0  0
M  END
$$$$

  -OEChem-02102214123D

 28 27  0     1  0  0  0  0  0999 V2000
   -2.6692   -4.1214    0.3151 H   0  0  0  0  0  0  0  0  0  0  0  0
   -2.6364   -3.1664   -0.2172 C   0  0  0  0  0  0  0  0  0  0  0  0
   -3.4455   -2.5317    0.1518 H   0  0  0  0  0  0  0  0  0  0  0  0
   -2.7851   -3.3537   -1.2834 H   0  0  0  0  0  0  0  0  0  0  0  0
   -1.2974   -2.4896    0.0084 C   0  0  0  0  0  0  0  0  0  0  0  0
   -0.4324   -3.0556    0.6508 O   0  0  0  0  0  0  0  0  0  0  0  0
   -1.0702   -1.2313   -0.5145 N   0  0  0  0  0  0  0  0  0  0  0  0
   -1.7910   -0.8652   -1.1289 H   0  0  0  0  0  0  0  0  0  0  0  0
    0.2437   -0.5570   -0.5121 C   0  0  1  0  0  0  0  0  0  0  0  0
    0.9720   -1.1820   -1.0423 H   0  0  0  0  0  0  0  0  0  0  0  0
    0.0962    0.7979   -1.2340 C   0  0  0  0  0  0  0  0  0  0  0  0
   -0.9081    1.2004   -1.0652 H   0  0  0  0  0  0  0  0  0  0  0  0
    0.7980    1.5252   -0.8066 H   0  0  0  0  0  0  0  0  0  0  0  0
    0.3622    0.6686   -2.7483 C   0  0  0  0  0  0  0  0  0  0  0  0
    0.2930   -0.3728   -3.0757 H   0  0  0  0  0  0  0  0  0  0  0  0
   -0.4003    1.2301   -3.2958 H   0  0  0  0  0  0  0  0  0  0  0  0
    1.7249    1.2338   -3.1328 C   0  0  0  0  0  0  0  0  0  0  0  0
    1.8424    2.4420   -3.2455 O   0  0  0  0  0  0  0  0  0  0  0  0
    2.7393    0.3587   -3.3148 O   0  0  0  0  0  0  0  0  0  0  0  0
    3.5251    0.8937   -3.5044 H   0  0  0  0  0  0  0  0  0  0  0  0
    0.8350   -0.3270    0.8985 C   0  0  0  0  0  0  0  0  0  0  0  0
    2.0490   -0.3219    1.0512 O   0  0  0  0  0  0  0  0  0  0  0  0
    0.0309    0.1577    1.9143 N   0  0  0  0  0  0  0  0  0  0  0  0
   -0.9685    0.0462    1.7808 H   0  0  0  0  0  0  0  0  0  0  0  0
    0.5338    0.4199    3.2572 C   0  0  0  0  0  0  0  0  0  0  0  0
    1.3285    1.1729    3.2289 H   0  0  0  0  0  0  0  0  0  0  0  0
   -0.2710    0.7935    3.8975 H   0  0  0  0  0  0  0  0  0  0  0  0
    0.9345   -0.4978    3.7009 H   0  0  0  0  0  0  0  0  0  0  0  0
  1  2  1  0  0  0  0
  2  3  1  0  0  0  0
  2  4  1  0  0  0  0
  2  5  1  0  0  0  0
  5  6  2  0  0  0  0
  5  7  1  0  0  0  0
  7  8  1  0  0  0  0
  7  9  1  0  0  0  0
  9 10  1  0  0  0  0
  9 11  1  0  0  0  0
  9 21  1  0  0  0  0
 11 12  1  0  0  0  0
 11 13  1  0  0  0  0
 11 14  1  0  0  0  0
 14 15  1  0  0  0  0
 14 16  1  0  0  0  0
 14 17  1  0  0  0  0
 17 18  2  0  0  0  0
 17 19  1  0  0  0  0
 19 20  1  0  0  0  0
 21 22  2  0  0  0  0
 21 23  1  0  0  0  0
 23 24  1  0  0  0  0
 23 25  1  0  0  0  0
 25 26  1  0  0  0  0
 25 27  1  0  0  0  0
 25 28  1  0  0  0  0
M  END
$$$$

  -OEChem-02102214123D

 28 27  0     1  0  0  0  0  0999 V2000
   -2.6529   -4.1232    0.2777 H   0  0  0  0  0  0  0  0  0  0  0  0
   -2.6196   -3.1683   -0.2549 C   0  0  0  0  0  0  0  0  0  0  0  0
   -3.4375   -2.5386    0.1029 H   0  0  0  0  0  0  0  0  0  0  0  0
   -2.7527   -3.3575   -1.3228 H   0  0  0  0  0  0  0  0  0  0  0  0
   -1.2884   -2.4823   -0.0119 C   0  0  0  0  0  0  0  0  0  0  0  0
   -0.4288   -3.0438    0.6415 O   0  0  0  0  0  0  0  0  0  0  0  0
   -1.0651   -1.2194   -0.5255 N   0  0  0  0  0  0  0  0  0  0  0  0
   -1.7792   -0.8594   -1.1512 H   0  0  0  0  0  0  0  0  0  0  0  0
    0.2483   -0.5440   -0.5168 C   0  0  1  0  0  0  0  0  0  0  0  0
    0.9742   -1.1658   -1.0541 H   0  0  0  0  0  0  0  0  0  0  0  0
    0.1031    0.8177   -1.2270 C   0  0  0  0  0  0  0  0  0  0  0  0
   -0.9033    1.2143   -1.0588 H   0  0  0  0  0  0  0  0  0  0  0  0
    0.8034    1.5458   -0.7986 H   0  0  0  0  0  0  0  0  0  0  0  0
    0.3718    0.6964   -2.7383 C   0  0  0  0  0  0  0  0  0  0  0  0
    0.0480   -0.2775   -3.1167 H   0  0  0  0  0  0  0  0  0  0  0  0
   -0.2040    1.4612   -3.2679 H   0  0  0  0  0  0  0  0  0  0  0  0
    1.8461    0.9121   -3.0617 C   0  0  0  0  0  0  0  0  0  0  0  0
    2.2457    2.0520   -3.2257 O   0  0  0  0  0  0  0  0  0  0  0  0
    2.6376   -0.1817   -3.1360 O   0  0  0  0  0  0  0  0  0  0  0  0
    3.5362    0.1471   -3.2927 H   0  0  0  0  0  0  0  0  0  0  0  0
    0.8392   -0.3247    0.8955 C   0  0  0  0  0  0  0  0  0  0  0  0
    2.0532   -0.3189    1.0490 O   0  0  0  0  0  0  0  0  0  0  0  0
    0.0330    0.1512    1.9136 N   0  0  0  0  0  0  0  0  0  0  0  0
   -0.9655    0.0333    1.7785 H   0  0  0  0  0  0  0  0  0  0  0  0
    0.5323    0.3973    3.2607 C   0  0  0  0  0  0  0  0  0  0  0  0
    1.3275    1.1501    3.2439 H   0  0  0  0  0  0  0  0  0  0  0  0
   -0.2744    0.7639    3.9024 H   0  0  0  0  0  0  0  0  0  0  0  0
    0.9306   -0.5257    3.6954 H   0  0  0  0  0  0  0  0  0  0  0  0
  1  2  1  0  0  0  0
  2  3  1  0  0  0  0
  2  4  1  0  0  0  0
  2  5  1  0  0  0  0
  5  6  2  0  0  0  0
  5  7  1  0  0  0  0
  7  8  1  0  0  0  0
  7  9  1  0  0  0  0
  9 10  1  0  0  0  0
  9 11  1  0  0  0  0
  9 21  1  0  0  0  0
 11 12  1  0  0  0  0
 11 13  1  0  0  0  0
 11 14  1  0  0  0  0
 14 15  1  0  0  0  0
 14 16  1  0  0  0  0
 14 17  1  0  0  0  0
 17 18  2  0  0  0  0
 17 19  1  0  0  0  0
 19 20  1  0  0  0  0
 21 22  2  0  0  0  0
 21 23  1  0  0  0  0
 23 24  1  0  0  0  0
 23 25  1  0  0  0  0
 25 26  1  0  0  0  0
 25 27  1  0  0  0  0
 25 28  1  0  0  0  0
M  END
$$$$

  -OEChem-02102214123D

 28 27  0     1  0  0  0  0  0999 V2000
   -2.6428   -4.1304    0.2393 H   0  0  0  0  0  0  0  0  0  0  0  0
   -2.6039   -3.1727   -0.2877 C   0  0  0  0  0  0  0  0  0  0  0  0
   -3.4309   -2.5483    0.0582 H   0  0  0  0  0  0  0  0  0  0  0  0
   -2.7166   -3.3564   -1.3588 H   0  0  0  0  0  0  0  0  0  0  0  0
   -1.2806   -2.4822   -0.0167 C   0  0  0  0  0  0  0  0  0  0  0  0
   -0.4343   -3.0389    0.6580 O   0  0  0  0  0  0  0  0  0  0  0  0
   -1.0515   -1.2192   -0.5276 N   0  0  0  0  0  0  0  0  0  0  0  0
   -1.7505   -0.8681   -1.1749 H   0  0  0  0  0  0  0  0  0  0  0  0
    0.2614   -0.5440   -0.4992 C   0  0  1  0  0  0  0  0  0  0  0  0
    0.9915   -1.1712   -1.0226 H   0  0  0  0  0  0  0  0  0  0  0  0
    0.1215    0.8171   -1.2144 C   0  0  0  0  0  0  0  0  0  0  0  0
   -0.8840    1.2191   -1.0539 H   0  0  0  0  0  0  0  0  0  0  0  0
    0.8245    1.5398   -0.7810 H   0  0  0  0  0  0  0  0  0  0  0  0
    0.4093    0.7093   -2.7226 C   0  0  0  0  0  0  0  0  0  0  0  0
   -0.1270   -0.1411   -3.1523 H   0  0  0  0  0  0  0  0  0  0  0  0
    0.0499    1.6128   -3.2238 H   0  0  0  0  0  0  0  0  0  0  0  0
    1.9006    0.5683   -3.0120 C   0  0  0  0  0  0  0  0  0  0  0  0
    2.5883    1.5743   -3.0096 O   0  0  0  0  0  0  0  0  0  0  0  0
    2.3827   -0.6721   -3.2535 O   0  0  0  0  0  0  0  0  0  0  0  0
    3.3402   -0.5670   -3.3675 H   0  0  0  0  0  0  0  0  0  0  0  0
    0.8337   -0.3231    0.9203 C   0  0  0  0  0  0  0  0  0  0  0  0
    2.0457   -0.3260    1.0893 O   0  0  0  0  0  0  0  0  0  0  0  0
    0.0159    0.1539    1.9287 N   0  0  0  0  0  0  0  0  0  0  0  0
   -0.9809    0.0340    1.7829 H   0  0  0  0  0  0  0  0  0  0  0  0
    0.5009    0.4001    3.2811 C   0  0  0  0  0  0  0  0  0  0  0  0
    1.3063    1.1421    3.2707 H   0  0  0  0  0  0  0  0  0  0  0  0
   -0.3088    0.7812    3.9104 H   0  0  0  0  0  0  0  0  0  0  0  0
    0.8811   -0.5258    3.7253 H   0  0  0  0  0  0  0  0  0  0  0  0
  1  2  1  0  0  0  0
  2  3  1  0  0  0  0
  2  4  1  0  0  0  0
  2  5  1  0  0  0  0
  5  6  2  0  0  0  0
  5  7  1  0  0  0  0
  7  8  1  0  0  0  0
  7  9  1  0  0  0  0
  9 10  1  0  0  0  0
  9 11  1  0  0  0  0
  9 21  1  0  0  0  0
 11 12  1  0  0  0  0
 11 13  1  0  0  0  0
 11 14  1  0  0  0  0
 14 15  1  0  0  0  0
 14 16  1  0  0  0  0
 14 17  1  0  0  0  0
 17 18  2  0  0  0  0
 17 19  1  0  0  0  0
 19 20  1  0  0  0  0
 21 22  2  0  0  0  0
 21 23  1  0  0  0  0
 23 24  1  0  0  0  0
 23 25  1  0  0  0  0
 25 26  1  0  0  0  0
 25 27  1  0  0  0  0
 25 28  1  0  0  0  0
M  END
$$$$

  -OEChem-02102214123D

 28 27  0     1  0  0  0  0  0999 V2000
   -2.6425   -4.1396    0.1968 H   0  0  0  0  0  0  0  0  0  0  0  0
   -2.5998   -3.1696   -0.3070 C   0  0  0  0  0  0  0  0  0  0  0  0
   -3.4313   -2.5542    0.0446 H   0  0  0  0  0  0  0  0  0  0  0  0
   -2.7007   -3.3289   -1.3831 H   0  0  0  0  0  0  0  0  0  0  0  0
   -1.2807   -2.4833   -0.0060 C   0  0  0  0  0  0  0  0  0  0  0  0
   -0.4570   -3.0371    0.6986 O   0  0  0  0  0  0  0  0  0  0  0  0
   -1.0305   -1.2276   -0.5247 N   0  0  0  0  0  0  0  0  0  0  0  0
   -1.7085   -0.8834   -1.1977 H   0  0  0  0  0  0  0  0  0  0  0  0
    0.2864   -0.5621   -0.4757 C   0  0  1  0  0  0  0  0  0  0  0  0
    1.0222   -1.2024   -0.9718 H   0  0  0  0  0  0  0  0  0  0  0  0
    0.1579    0.7962   -1.2035 C   0  0  0  0  0  0  0  0  0  0  0  0
   -0.8404    1.2163   -1.0438 H   0  0  0  0  0  0  0  0  0  0  0  0
    0.8732    1.5032   -0.7652 H   0  0  0  0  0  0  0  0  0  0  0  0
    0.4607    0.7165   -2.7127 C   0  0  0  0  0  0  0  0  0  0  0  0
   -0.2533    0.0419   -3.1926 H   0  0  0  0  0  0  0  0  0  0  0  0
    0.3299    1.7061   -3.1605 H   0  0  0  0  0  0  0  0  0  0  0  0
    1.8744    0.2309   -3.0210 C   0  0  0  0  0  0  0  0  0  0  0  0
    2.7886    1.0313   -2.9387 O   0  0  0  0  0  0  0  0  0  0  0  0
    2.0398   -1.0649   -3.3730 O   0  0  0  0  0  0  0  0  0  0  0  0
    2.9955   -1.1856   -3.4890 H   0  0  0  0  0  0  0  0  0  0  0  0
    0.8280   -0.3321    0.9547 C   0  0  0  0  0  0  0  0  0  0  0  0
    2.0349   -0.3511    1.1540 O   0  0  0  0  0  0  0  0  0  0  0  0
   -0.0082    0.1607    1.9400 N   0  0  0  0  0  0  0  0  0  0  0  0
   -1.0022    0.0502    1.7708 H   0  0  0  0  0  0  0  0  0  0  0  0
    0.4468    0.4054    3.3030 C   0  0  0  0  0  0  0  0  0  0  0  0
    1.2582    1.1408    3.3105 H   0  0  0  0  0  0  0  0  0  0  0  0
   -0.3743    0.7938    3.9129 H   0  0  0  0  0  0  0  0  0  0  0  0
    0.8092   -0.5231    3.7570 H   0  0  0  0  0  0  0  0  0  0  0  0
  1  2  1  0  0  0  0
  2  3  1  0  0  0  0
  2  4  1  0  0  0  0
  2  5  1  0  0  0  0
  5  6  2  0  0  0  0
  5  7  1  0  0  0  0
  7  8  1  0  0  0  0
  7  9  1  0  0  0  0
  9 10  1  0  0  0  0
  9 11  1  0  0  0  0
  9 21  1  0  0  0  0
 11 12  1  0  0  0  0
 11 13  1  0  0  0  0
 11 14  1  0  0  0  0
 14 15  1  0  0  0  0
 14 16  1  0  0  0  0
 14 17  1  0  0  0  0
 17 18  2  0  0  0  0
 17 19  1  0  0  0  0
 19 20  1  0  0  0  0
 21 22  2  0  0  0  0
 21 23  1  0  0  0  0
 23 24  1  0  0  0  0
 23 25  1  0  0  0  0
 25 26  1  0  0  0  0
 25 27  1  0  0  0  0
 25 28  1  0  0  0  0
M  END
$$$$

  -OEChem-02102214123D

 28 27  0     1  0  0  0  0  0999 V2000
   -2.6501   -4.1434    0.1772 H   0  0  0  0  0  0  0  0  0  0  0  0
   -2.5999   -3.1681   -0.3156 C   0  0  0  0  0  0  0  0  0  0  0  0
   -3.4385   -2.5576    0.0271 H   0  0  0  0  0  0  0  0  0  0  0  0
   -2.6814   -3.3163   -1.3951 H   0  0  0  0  0  0  0  0  0  0  0  0
   -1.2875   -2.4835    0.0164 C   0  0  0  0  0  0  0  0  0  0  0  0
   -0.4881   -3.0324    0.7522 O   0  0  0  0  0  0  0  0  0  0  0  0
   -1.0128   -1.2390   -0.5169 N   0  0  0  0  0  0  0  0  0  0  0  0
   -1.6644   -0.9079   -1.2218 H   0  0  0  0  0  0  0  0  0  0  0  0
    0.3104   -0.5882   -0.4502 C   0  0  1  0  0  0  0  0  0  0  0  0
    1.0520   -1.2441   -0.9141 H   0  0  0  0  0  0  0  0  0  0  0  0
    0.2041    0.7659   -1.1933 C   0  0  0  0  0  0  0  0  0  0  0  0
   -0.7833    1.2113   -1.0337 H   0  0  0  0  0  0  0  0  0  0  0  0
    0.9350    1.4524   -0.7487 H   0  0  0  0  0  0  0  0  0  0  0  0
    0.5217    0.7138   -2.7041 C   0  0  0  0  0  0  0  0  0  0  0  0
   -0.3271    0.2647   -3.2268 H   0  0  0  0  0  0  0  0  0  0  0  0
    0.6353    1.7333   -3.0841 H   0  0  0  0  0  0  0  0  0  0  0  0
    1.7679   -0.0863   -3.0715 C   0  0  0  0  0  0  0  0  0  0  0  0
    2.8526    0.4591   -2.9789 O   0  0  0  0  0  0  0  0  0  0  0  0
    1.6022   -1.3646   -3.4839 O   0  0  0  0  0  0  0  0  0  0  0  0
    2.4966   -1.7068   -3.6404 H   0  0  0  0  0  0  0  0  0  0  0  0
    0.8185   -0.3443    0.9907 C   0  0  0  0  0  0  0  0  0  0  0  0
    2.0191   -0.3781    1.2231 O   0  0  0  0  0  0  0  0  0  0  0  0
   -0.0364    0.1720    1.9476 N   0  0  0  0  0  0  0  0  0  0  0  0
   -1.0272    0.0743    1.7528 H   0  0  0  0  0  0  0  0  0  0  0  0
    0.3856    0.4227    3.3202 C   0  0  0  0  0  0  0  0  0  0  0  0
    1.2073    1.1464    3.3432 H   0  0  0  0  0  0  0  0  0  0  0  0
   -0.4458    0.8286    3.9043 H   0  0  0  0  0  0  0  0  0  0  0  0
    0.7224   -0.5066    3.7918 H   0  0  0  0  0  0  0  0  0  0  0  0
  1  2  1  0  0  0  0
  2  3  1  0  0  0  0
  2  4  1  0  0  0  0
  2  5  1  0  0  0  0
  5  6  2  0  0  0  0
  5  7  1  0  0  0  0
  7  8  1  0  0  0  0
  7  9  1  0  0  0  0
  9 10  1  0  0  0  0
  9 11  1  0  0  0  0
  9 21  1  0  0  0  0
 11 12  1  0  0  0  0
 11 13  1  0  0  0  0
 11 14  1  0  0  0  0
 14 15  1  0  0  0  0
 14 16  1  0  0  0  0
 14 17  1  0  0  0  0
 17 18  2  0  0  0  0
 17 19  1  0  0  0  0
 19 20  1  0  0  0  0
 21 22  2  0  0  0  0
 21 23  1  0  0  0  0
 23 24  1  0  0  0  0
 23 25  1  0  0  0  0
 25 26  1  0  0  0  0
 25 27  1  0  0  0  0
 25 28  1  0  0  0  0
M  END
$$$$

  -OEChem-02102214123D

 28 27  0     1  0  0  0  0  0999 V2000
   -2.6687   -4.1431    0.1593 H   0  0  0  0  0  0  0  0  0  0  0  0
   -2.6091   -3.1616   -0.3198 C   0  0  0  0  0  0  0  0  0  0  0  0
   -3.4495   -2.5522    0.0208 H   0  0  0  0  0  0  0  0  0  0  0  0
   -2.6779   -3.2954   -1.4022 H   0  0  0  0  0  0  0  0  0  0  0  0
   -1.2992   -2.4853    0.0377 C   0  0  0  0  0  0  0  0  0  0  0  0
   -0.5271   -3.0291    0.8058 O   0  0  0  0  0  0  0  0  0  0  0  0
   -0.9973   -1.2538   -0.5104 N   0  0  0  0  0  0  0  0  0  0  0  0
   -1.6186   -0.9409   -1.2501 H   0  0  0  0  0  0  0  0  0  0  0  0
    0.3329   -0.6197   -0.4294 C   0  0  1  0  0  0  0  0  0  0  0  0
    1.0812   -1.2878   -0.8639 H   0  0  0  0  0  0  0  0  0  0  0  0
    0.2493    0.7298   -1.1858 C   0  0  0  0  0  0  0  0  0  0  0  0
   -0.7286    1.1961   -1.0270 H   0  0  0  0  0  0  0  0  0  0  0  0
    0.9914    1.3998   -0.7349 H   0  0  0  0  0  0  0  0  0  0  0  0
    0.5788    0.6966   -2.6980 C   0  0  0  0  0  0  0  0  0  0  0  0
   -0.3483    0.5092   -3.2464 H   0  0  0  0  0  0  0  0  0  0  0  0
    0.9423    1.6809   -3.0080 H   0  0  0  0  0  0  0  0  0  0  0  0
    1.5815   -0.3619   -3.1465 C   0  0  0  0  0  0  0  0  0  0  0  0
    2.7626   -0.0681   -3.1723 O   0  0  0  0  0  0  0  0  0  0  0  0
    1.1018   -1.5775   -3.5009 O   0  0  0  0  0  0  0  0  0  0  0  0
    1.8809   -2.1062   -3.7360 H   0  0  0  0  0  0  0  0  0  0  0  0
    0.8107   -0.3613    1.0200 C   0  0  0  0  0  0  0  0  0  0  0  0
    2.0054   -0.3994    1.2797 O   0  0  0  0  0  0  0  0  0  0  0  0
   -0.0598    0.1803    1.9486 N   0  0  0  0  0  0  0  0  0  0  0  0
   -1.0469    0.0843    1.7348 H   0  0  0  0  0  0  0  0  0  0  0  0
    0.3342    0.4523    3.3255 C   0  0  0  0  0  0  0  0  0  0  0  0
    1.1609    1.1700    3.3533 H   0  0  0  0  0  0  0  0  0  0  0  0
   -0.5061    0.8748    3.8845 H   0  0  0  0  0  0  0  0  0  0  0  0
    0.6534   -0.4711    3.8205 H   0  0  0  0  0  0  0  0  0  0  0  0
  1  2  1  0  0  0  0
  2  3  1  0  0  0  0
  2  4  1  0  0  0  0
  2  5  1  0  0  0  0
  5  6  2  0  0  0  0
  5  7  1  0  0  0  0
  7  8  1  0  0  0  0
  7  9  1  0  0  0  0
  9 10  1  0  0  0  0
  9 11  1  0  0  0  0
  9 21  1  0  0  0  0
 11 12  1  0  0  0  0
 11 13  1  0  0  0  0
 11 14  1  0  0  0  0
 14 15  1  0  0  0  0
 14 16  1  0  0  0  0
 14 17  1  0  0  0  0
 17 18  2  0  0  0  0
 17 19  1  0  0  0  0
 19 20  1  0  0  0  0
 21 22  2  0  0  0  0
 21 23  1  0  0  0  0
 23 24  1  0  0  0  0
 23 25  1  0  0  0  0
 25 26  1  0  0  0  0
 25 27  1  0  0  0  0
 25 28  1  0  0  0  0
M  END
$$$$

  -OEChem-02102214123D

 28 27  0     1  0  0  0  0  0999 V2000
   -2.6890   -4.1336    0.1598 H   0  0  0  0  0  0  0  0  0  0  0  0
   -2.6176   -3.1565   -0.3268 C   0  0  0  0  0  0  0  0  0  0  0  0
   -3.4667   -2.5444   -0.0134 H   0  0  0  0  0  0  0  0  0  0  0  0
   -2.6593   -3.3004   -1.4093 H   0  0  0  0  0  0  0  0  0  0  0  0
   -1.3171   -2.4763    0.0569 C   0  0  0  0  0  0  0  0  0  0  0  0
   -0.5701   -3.0080    0.8576 O   0  0  0  0  0  0  0  0  0  0  0  0
   -0.9952   -1.2568   -0.5061 N   0  0  0  0  0  0  0  0  0  0  0  0
   -1.5838   -0.9728   -1.2838 H   0  0  0  0  0  0  0  0  0  0  0  0
    0.3422   -0.6385   -0.4176 C   0  0  1  0  0  0  0  0  0  0  0  0
    1.0929   -1.3177   -0.8311 H   0  0  0  0  0  0  0  0  0  0  0  0
    0.2866    0.7049   -1.1885 C   0  0  0  0  0  0  0  0  0  0  0  0
   -0.6872    1.1838   -1.0419 H   0  0  0  0  0  0  0  0  0  0  0  0
    1.0292    1.3707   -0.7321 H   0  0  0  0  0  0  0  0  0  0  0  0
    0.6301    0.6651   -2.7003 C   0  0  0  0  0  0  0  0  0  0  0  0
   -0.3009    0.7651   -3.2647 H   0  0  0  0  0  0  0  0  0  0  0  0
    1.2486    1.5335   -2.9484 H   0  0  0  0  0  0  0  0  0  0  0  0
    1.3250   -0.5927   -3.2140 C   0  0  0  0  0  0  0  0  0  0  0  0
    2.5306   -0.5668   -3.3803 O   0  0  0  0  0  0  0  0  0  0  0  0
    0.5553   -1.6784   -3.4673 O   0  0  0  0  0  0  0  0  0  0  0  0
    1.1703   -2.3662   -3.7688 H   0  0  0  0  0  0  0  0  0  0  0  0
    0.8028   -0.3663    1.0350 C   0  0  0  0  0  0  0  0  0  0  0  0
    1.9942   -0.4081    1.3101 O   0  0  0  0  0  0  0  0  0  0  0  0
   -0.0750    0.1987    1.9424 N   0  0  0  0  0  0  0  0  0  0  0  0
   -1.0596    0.1016    1.7177 H   0  0  0  0  0  0  0  0  0  0  0  0
    0.3012    0.4801    3.3220 C   0  0  0  0  0  0  0  0  0  0  0  0
    1.1322    1.1925    3.3551 H   0  0  0  0  0  0  0  0  0  0  0  0
   -0.5445    0.9129    3.8647 H   0  0  0  0  0  0  0  0  0  0  0  0
    0.6064   -0.4409    3.8302 H   0  0  0  0  0  0  0  0  0  0  0  0
  1  2  1  0  0  0  0
  2  3  1  0  0  0  0
  2  4  1  0  0  0  0
  2  5  1  0  0  0  0
  5  6  2  0  0  0  0
  5  7  1  0  0  0  0
  7  8  1  0  0  0  0
  7  9  1  0  0  0  0
  9 10  1  0  0  0  0
  9 11  1  0  0  0  0
  9 21  1  0  0  0  0
 11 12  1  0  0  0  0
 11 13  1  0  0  0  0
 11 14  1  0  0  0  0
 14 15  1  0  0  0  0
 14 16  1  0  0  0  0
 14 17  1  0  0  0  0
 17 18  2  0  0  0  0
 17 19  1  0  0  0  0
 19 20  1  0  0  0  0
 21 22  2  0  0  0  0
 21 23  1  0  0  0  0
 23 24  1  0  0  0  0
 23 25  1  0  0  0  0
 25 26  1  0  0  0  0
 25 27  1  0  0  0  0
 25 28  1  0  0  0  0
M  END
$$$$

  -OEChem-02102214123D

 28 27  0     1  0  0  0  0  0999 V2000
   -2.6484   -4.1974    0.4014 H   0  0  0  0  0  0  0  0  0  0  0  0
   -2.6209   -3.2433   -0.1326 C   0  0  0  0  0  0  0  0  0  0  0  0
   -3.4873   -2.6477    0.1646 H   0  0  0  0  0  0  0  0  0  0  0  0
   -2.6729   -3.4408   -1.2062 H   0  0  0  0  0  0  0  0  0  0  0  0
   -1.3409   -2.4985    0.1950 C   0  0  0  0  0  0  0  0  0  0  0  0
   -0.5536   -2.9698    0.9957 O   0  0  0  0  0  0  0  0  0  0  0  0
   -1.0854   -1.2878   -0.4185 N   0  0  0  0  0  0  0  0  0  0  0  0
   -1.6958   -1.0827   -1.2057 H   0  0  0  0  0  0  0  0  0  0  0  0
    0.2477   -0.6554   -0.4471 C   0  0  1  0  0  0  0  0  0  0  0  0
    0.9723   -1.3337   -0.9080 H   0  0  0  0  0  0  0  0  0  0  0  0
    0.1234    0.6729   -1.2360 C   0  0  0  0  0  0  0  0  0  0  0  0
   -0.8531    1.1263   -1.0351 H   0  0  0  0  0  0  0  0  0  0  0  0
    0.8729    1.3716   -0.8452 H   0  0  0  0  0  0  0  0  0  0  0  0
    0.3513    0.5987   -2.7689 C   0  0  0  0  0  0  0  0  0  0  0  0
   -0.5413    0.9745   -3.2772 H   0  0  0  0  0  0  0  0  0  0  0  0
    1.1741    1.2701   -3.0329 H   0  0  0  0  0  0  0  0  0  0  0  0
    0.6718   -0.7786   -3.3432 C   0  0  0  0  0  0  0  0  0  0  0  0
   -0.2510   -1.5666   -3.4804 O   0  0  0  0  0  0  0  0  0  0  0  0
    1.9573   -1.0629   -3.6517 O   0  0  0  0  0  0  0  0  0  0  0  0
    1.9667   -1.9787   -3.9695 H   0  0  0  0  0  0  0  0  0  0  0  0
    0.8215   -0.3463    0.9569 C   0  0  0  0  0  0  0  0  0  0  0  0
    2.0332   -0.3608    1.1291 O   0  0  0  0  0  0  0  0  0  0  0  0
    0.0141    0.2308    1.9202 N   0  0  0  0  0  0  0  0  0  0  0  0
   -0.9832    0.1002    1.7846 H   0  0  0  0  0  0  0  0  0  0  0  0
    0.4983    0.5438    3.2589 C   0  0  0  0  0  0  0  0  0  0  0  0
    1.3382    1.2447    3.2100 H   0  0  0  0  0  0  0  0  0  0  0  0
   -0.2979    1.0038    3.8516 H   0  0  0  0  0  0  0  0  0  0  0  0
    0.8300   -0.3676    3.7675 H   0  0  0  0  0  0  0  0  0  0  0  0
  1  2  1  0  0  0  0
  2  3  1  0  0  0  0
  2  4  1  0  0  0  0
  2  5  1  0  0  0  0
  5  6  2  0  0  0  0
  5  7  1  0  0  0  0
  7  8  1  0  0  0  0
  7  9  1  0  0  0  0
  9 10  1  0  0  0  0
  9 11  1  0  0  0  0
  9 21  1  0  0  0  0
 11 12  1  0  0  0  0
 11 13  1  0  0  0  0
 11 14  1  0  0  0  0
 14 15  1  0  0  0  0
 14 16  1  0  0  0  0
 14 17  1  0  0  0  0
 17 18  2  0  0  0  0
 17 19  1  0  0  0  0
 19 20  1  0  0  0  0
 21 22  2  0  0  0  0
 21 23  1  0  0  0  0
 23 24  1  0  0  0  0
 23 25  1  0  0  0  0
 25 26  1  0  0  0  0
 25 27  1  0  0  0  0
 25 28  1  0  0  0  0
M  END
$$$$

  -OEChem-02102214123D

 28 27  0     1  0  0  0  0  0999 V2000
   -2.6407   -4.2020    0.3435 H   0  0  0  0  0  0  0  0  0  0  0  0
   -2.6166   -3.2385   -0.1737 C   0  0  0  0  0  0  0  0  0  0  0  0
   -3.4876   -2.6530    0.1304 H   0  0  0  0  0  0  0  0  0  0  0  0
   -2.6634   -3.4169   -1.2510 H   0  0  0  0  0  0  0  0  0  0  0  0
   -1.3426   -2.4914    0.1713 C   0  0  0  0  0  0  0  0  0  0  0  0
   -0.5536   -2.9720    0.9647 O   0  0  0  0  0  0  0  0  0  0  0  0
   -1.0912   -1.2716   -0.4247 N   0  0  0  0  0  0  0  0  0  0  0  0
   -1.6960   -1.0670   -1.2185 H   0  0  0  0  0  0  0  0  0  0  0  0
    0.2408   -0.6356   -0.4480 C   0  0  1  0  0  0  0  0  0  0  0  0
    0.9642   -1.3025   -0.9289 H   0  0  0  0  0  0  0  0  0  0  0  0
    0.1193    0.7007   -1.2214 C   0  0  0  0  0  0  0  0  0  0  0  0
   -0.8699    1.1307   -1.0312 H   0  0  0  0  0  0  0  0  0  0  0  0
    0.8501    1.4131   -0.8201 H   0  0  0  0  0  0  0  0  0  0  0  0
    0.3530    0.6242   -2.7519 C   0  0  0  0  0  0  0  0  0  0  0  0
   -0.3822    1.2517   -3.2635 H   0  0  0  0  0  0  0  0  0  0  0  0
    1.3394    1.0453   -2.9684 H   0  0  0  0  0  0  0  0  0  0  0  0
    0.3139   -0.7739   -3.3648 C   0  0  0  0  0  0  0  0  0  0  0  0
   -0.7659   -1.3429   -3.4193 O   0  0  0  0  0  0  0  0  0  0  0  0
    1.4736   -1.3179   -3.7980 O   0  0  0  0  0  0  0  0  0  0  0  0
    1.2559   -2.2015   -4.1316 H   0  0  0  0  0  0  0  0  0  0  0  0
    0.8216   -0.3446    0.9565 C   0  0  0  0  0  0  0  0  0  0  0  0
    2.0346   -0.3561    1.1201 O   0  0  0  0  0  0  0  0  0  0  0  0
    0.0184    0.2175    1.9320 N   0  0  0  0  0  0  0  0  0  0  0  0
   -0.9795    0.0854    1.8012 H   0  0  0  0  0  0  0  0  0  0  0  0
    0.5107    0.5198    3.2702 C   0  0  0  0  0  0  0  0  0  0  0  0
    1.3462    1.2264    3.2220 H   0  0  0  0  0  0  0  0  0  0  0  0
   -0.2839    0.9688    3.8738 H   0  0  0  0  0  0  0  0  0  0  0  0
    0.8516   -0.3949    3.7670 H   0  0  0  0  0  0  0  0  0  0  0  0
  1  2  1  0  0  0  0
  2  3  1  0  0  0  0
  2  4  1  0  0  0  0
  2  5  1  0  0  0  0
  5  6  2  0  0  0  0
  5  7  1  0  0  0  0
  7  8  1  0  0  0  0
  7  9  1  0  0  0  0
  9 10  1  0  0  0  0
  9 11  1  0  0  0  0
  9 21  1  0  0  0  0
 11 12  1  0  0  0  0
 11 13  1  0  0  0  0
 11 14  1  0  0  0  0
 14 15  1  0  0  0  0
 14 16  1  0  0  0  0
 14 17  1  0  0  0  0
 17 18  2  0  0  0  0
 17 19  1  0  0  0  0
 19 20  1  0  0  0  0
 21 22  2  0  0  0  0
 21 23  1  0  0  0  0
 23 24  1  0  0  0  0
 23 25  1  0  0  0  0
 25 26  1  0  0  0  0
 25 27  1  0  0  0  0
 25 28  1  0  0  0  0
M  END
$$$$

  -OEChem-02102214123D

 28 27  0     1  0  0  0  0  0999 V2000
   -2.6376   -4.1982    0.3005 H   0  0  0  0  0  0  0  0  0  0  0  0
   -2.6173   -3.2267   -0.2014 C   0  0  0  0  0  0  0  0  0  0  0  0
   -3.4808   -2.6429    0.1258 H   0  0  0  0  0  0  0  0  0  0  0  0
   -2.6816   -3.3865   -1.2807 H   0  0  0  0  0  0  0  0  0  0  0  0
   -1.3351   -2.4905    0.1367 C   0  0  0  0  0  0  0  0  0  0  0  0
   -0.5339   -2.9884    0.9068 O   0  0  0  0  0  0  0  0  0  0  0  0
   -1.0889   -1.2600   -0.4383 N   0  0  0  0  0  0  0  0  0  0  0  0
   -1.7061   -1.0312   -1.2176 H   0  0  0  0  0  0  0  0  0  0  0  0
    0.2379   -0.6126   -0.4509 C   0  0  1  0  0  0  0  0  0  0  0  0
    0.9618   -1.2669   -0.9497 H   0  0  0  0  0  0  0  0  0  0  0  0
    0.1181    0.7286   -1.2133 C   0  0  0  0  0  0  0  0  0  0  0  0
   -0.8788    1.1467   -1.0379 H   0  0  0  0  0  0  0  0  0  0  0  0
    0.8372    1.4480   -0.8038 H   0  0  0  0  0  0  0  0  0  0  0  0
    0.3697    0.6405   -2.7375 C   0  0  0  0  0  0  0  0  0  0  0  0
   -0.1626    1.4498   -3.2449 H   0  0  0  0  0  0  0  0  0  0  0  0
    1.4384    0.7959   -2.9139 H   0  0  0  0  0  0  0  0  0  0  0  0
   -0.0080   -0.6884   -3.3900 C   0  0  0  0  0  0  0  0  0  0  0  0
   -1.1783   -1.0388   -3.3494 O   0  0  0  0  0  0  0  0  0  0  0  0
    0.9743   -1.4160   -3.9687 O   0  0  0  0  0  0  0  0  0  0  0  0
    0.5564   -2.2183   -4.3165 H   0  0  0  0  0  0  0  0  0  0  0  0
    0.8179   -0.3379    0.9565 C   0  0  0  0  0  0  0  0  0  0  0  0
    2.0311   -0.3432    1.1193 O   0  0  0  0  0  0  0  0  0  0  0  0
    0.0107    0.2028    1.9404 N   0  0  0  0  0  0  0  0  0  0  0  0
   -0.9868    0.0722    1.8050 H   0  0  0  0  0  0  0  0  0  0  0  0
    0.5000    0.4925    3.2824 C   0  0  0  0  0  0  0  0  0  0  0  0
    1.3287    1.2076    3.2436 H   0  0  0  0  0  0  0  0  0  0  0  0
   -0.2991    0.9262    3.8912 H   0  0  0  0  0  0  0  0  0  0  0  0
    0.8494   -0.4249    3.7679 H   0  0  0  0  0  0  0  0  0  0  0  0
  1  2  1  0  0  0  0
  2  3  1  0  0  0  0
  2  4  1  0  0  0  0
  2  5  1  0  0  0  0
  5  6  2  0  0  0  0
  5  7  1  0  0  0  0
  7  8  1  0  0  0  0
  7  9  1  0  0  0  0
  9 10  1  0  0  0  0
  9 11  1  0  0  0  0
  9 21  1  0  0  0  0
 11 12  1  0  0  0  0
 11 13  1  0  0  0  0
 11 14  1  0  0  0  0
 14 15  1  0  0  0  0
 14 16  1  0  0  0  0
 14 17  1  0  0  0  0
 17 18  2  0  0  0  0
 17 19  1  0  0  0  0
 19 20  1  0  0  0  0
 21 22  2  0  0  0  0
 21 23  1  0  0  0  0
 23 24  1  0  0  0  0
 23 25  1  0  0  0  0
 25 26  1  0  0  0  0
 25 27  1  0  0  0  0
 25 28  1  0  0  0  0
M  END
$$$$

  -OEChem-02102214123D

 28 27  0     1  0  0  0  0  0999 V2000
   -2.6349   -4.1955    0.2620 H   0  0  0  0  0  0  0  0  0  0  0  0
   -2.6220   -3.2107   -0.2137 C   0  0  0  0  0  0  0  0  0  0  0  0
   -3.4704   -2.6293    0.1554 H   0  0  0  0  0  0  0  0  0  0  0  0
   -2.7210   -3.3407   -1.2942 H   0  0  0  0  0  0  0  0  0  0  0  0
   -1.3243   -2.4933    0.1053 C   0  0  0  0  0  0  0  0  0  0  0  0
   -0.5084   -3.0130    0.8452 O   0  0  0  0  0  0  0  0  0  0  0  0
   -1.0803   -1.2541   -0.4512 N   0  0  0  0  0  0  0  0  0  0  0  0
   -1.7199   -0.9880   -1.2010 H   0  0  0  0  0  0  0  0  0  0  0  0
    0.2398   -0.5945   -0.4501 C   0  0  1  0  0  0  0  0  0  0  0  0
    0.9668   -1.2400   -0.9563 H   0  0  0  0  0  0  0  0  0  0  0  0
    0.1223    0.7485   -1.2074 C   0  0  0  0  0  0  0  0  0  0  0  0
   -0.8754    1.1704   -1.0443 H   0  0  0  0  0  0  0  0  0  0  0  0
    0.8417    1.4650   -0.7937 H   0  0  0  0  0  0  0  0  0  0  0  0
    0.3976    0.6422   -2.7241 C   0  0  0  0  0  0  0  0  0  0  0  0
    0.0922    1.5690   -3.2173 H   0  0  0  0  0  0  0  0  0  0  0  0
    1.4774    0.5373   -2.8684 H   0  0  0  0  0  0  0  0  0  0  0  0
   -0.2807   -0.5332   -3.4269 C   0  0  0  0  0  0  0  0  0  0  0  0
   -1.4785   -0.7067   -3.2534 O   0  0  0  0  0  0  0  0  0  0  0  0
    0.4852   -1.3260   -4.2106 O   0  0  0  0  0  0  0  0  0  0  0  0
   -0.1021   -2.0053   -4.5747 H   0  0  0  0  0  0  0  0  0  0  0  0
    0.8112   -0.3319    0.9628 C   0  0  0  0  0  0  0  0  0  0  0  0
    2.0236   -0.3298    1.1310 O   0  0  0  0  0  0  0  0  0  0  0  0
   -0.0051    0.1891    1.9501 N   0  0  0  0  0  0  0  0  0  0  0  0
   -1.0017    0.0620    1.8056 H   0  0  0  0  0  0  0  0  0  0  0  0
    0.4752    0.4730    3.2966 C   0  0  0  0  0  0  0  0  0  0  0  0
    1.2981    1.1950    3.2667 H   0  0  0  0  0  0  0  0  0  0  0  0
   -0.3301    0.8960    3.9044 H   0  0  0  0  0  0  0  0  0  0  0  0
    0.8296   -0.4451    3.7771 H   0  0  0  0  0  0  0  0  0  0  0  0
  1  2  1  0  0  0  0
  2  3  1  0  0  0  0
  2  4  1  0  0  0  0
  2  5  1  0  0  0  0
  5  6  2  0  0  0  0
  5  7  1  0  0  0  0
  7  8  1  0  0  0  0
  7  9  1  0  0  0  0
  9 10  1  0  0  0  0
  9 11  1  0  0  0  0
  9 21  1  0  0  0  0
 11 12  1  0  0  0  0
 11 13  1  0  0  0  0
 11 14  1  0  0  0  0
 14 15  1  0  0  0  0
 14 16  1  0  0  0  0
 14 17  1  0  0  0  0
 17 18  2  0  0  0  0
 17 19  1  0  0  0  0
 19 20  1  0  0  0  0
 21 22  2  0  0  0  0
 21 23  1  0  0  0  0
 23 24  1  0  0  0  0
 23 25  1  0  0  0  0
 25 26  1  0  0  0  0
 25 27  1  0  0  0  0
 25 28  1  0  0  0  0
M  END
$$$$

  -OEChem-02102214123D

 28 27  0     1  0  0  0  0  0999 V2000
   -2.6417   -4.1851    0.2360 H   0  0  0  0  0  0  0  0  0  0  0  0
   -2.6289   -3.1914   -0.2208 C   0  0  0  0  0  0  0  0  0  0  0  0
   -3.4661   -2.6104    0.1734 H   0  0  0  0  0  0  0  0  0  0  0  0
   -2.7470   -3.2998   -1.3018 H   0  0  0  0  0  0  0  0  0  0  0  0
   -1.3201   -2.4909    0.0900 C   0  0  0  0  0  0  0  0  0  0  0  0
   -0.5007   -3.0257    0.8149 O   0  0  0  0  0  0  0  0  0  0  0  0
   -1.0690   -1.2493   -0.4571 N   0  0  0  0  0  0  0  0  0  0  0  0
   -1.7226   -0.9527   -1.1834 H   0  0  0  0  0  0  0  0  0  0  0  0
    0.2485   -0.5865   -0.4424 C   0  0  1  0  0  0  0  0  0  0  0  0
    0.9789   -1.2299   -0.9458 H   0  0  0  0  0  0  0  0  0  0  0  0
    0.1304    0.7550   -1.2003 C   0  0  0  0  0  0  0  0  0  0  0  0
   -0.8623    1.1906   -1.0423 H   0  0  0  0  0  0  0  0  0  0  0  0
    0.8578    1.4641   -0.7881 H   0  0  0  0  0  0  0  0  0  0  0  0
    0.4238    0.6246   -2.7105 C   0  0  0  0  0  0  0  0  0  0  0  0
    0.3538    1.6117   -3.1752 H   0  0  0  0  0  0  0  0  0  0  0  0
    1.4534    0.2771   -2.8386 H   0  0  0  0  0  0  0  0  0  0  0  0
   -0.5006   -0.3255   -3.4736 C   0  0  0  0  0  0  0  0  0  0  0  0
   -1.6722   -0.4223   -3.1368 O   0  0  0  0  0  0  0  0  0  0  0  0
    0.0381   -1.0138   -4.5054 O   0  0  0  0  0  0  0  0  0  0  0  0
   -0.6753   -1.5517   -4.8804 H   0  0  0  0  0  0  0  0  0  0  0  0
    0.8085   -0.3281    0.9753 C   0  0  0  0  0  0  0  0  0  0  0  0
    2.0192   -0.3278    1.1550 O   0  0  0  0  0  0  0  0  0  0  0  0
   -0.0175    0.1869    1.9574 N   0  0  0  0  0  0  0  0  0  0  0  0
   -1.0130    0.0682    1.7994 H   0  0  0  0  0  0  0  0  0  0  0  0
    0.4485    0.4634    3.3103 C   0  0  0  0  0  0  0  0  0  0  0  0
    1.2685    1.1891    3.2932 H   0  0  0  0  0  0  0  0  0  0  0  0
   -0.3646    0.8784    3.9134 H   0  0  0  0  0  0  0  0  0  0  0  0
    0.8024   -0.4566    3.7877 H   0  0  0  0  0  0  0  0  0  0  0  0
  1  2  1  0  0  0  0
  2  3  1  0  0  0  0
  2  4  1  0  0  0  0
  2  5  1  0  0  0  0
  5  6  2  0  0  0  0
  5  7  1  0  0  0  0
  7  8  1  0  0  0  0
  7  9  1  0  0  0  0
  9 10  1  0  0  0  0
  9 11  1  0  0  0  0
  9 21  1  0  0  0  0
 11 12  1  0  0  0  0
 11 13  1  0  0  0  0
 11 14  1  0  0  0  0
 14 15  1  0  0  0  0
 14 16  1  0  0  0  0
 14 17  1  0  0  0  0
 17 18  2  0  0  0  0
 17 19  1  0  0  0  0
 19 20  1  0  0  0  0
 21 22  2  0  0  0  0
 21 23  1  0  0  0  0
 23 24  1  0  0  0  0
 23 25  1  0  0  0  0
 25 26  1  0  0  0  0
 25 27  1  0  0  0  0
 25 28  1  0  0  0  0
M  END
$$$$

  -OEChem-02102214123D

 28 27  0     1  0  0  0  0  0999 V2000
   -2.6572   -4.1747    0.2449 H   0  0  0  0  0  0  0  0  0  0  0  0
   -2.6384   -3.1802   -0.2097 C   0  0  0  0  0  0  0  0  0  0  0  0
   -3.4702   -2.5939    0.1878 H   0  0  0  0  0  0  0  0  0  0  0  0
   -2.7599   -3.2857   -1.2905 H   0  0  0  0  0  0  0  0  0  0  0  0
   -1.3239   -2.4895    0.0989 C   0  0  0  0  0  0  0  0  0  0  0  0
   -0.5111   -3.0267    0.8295 O   0  0  0  0  0  0  0  0  0  0  0  0
   -1.0600   -1.2533   -0.4541 N   0  0  0  0  0  0  0  0  0  0  0  0
   -1.7124   -0.9473   -1.1780 H   0  0  0  0  0  0  0  0  0  0  0  0
    0.2592   -0.5958   -0.4305 C   0  0  1  0  0  0  0  0  0  0  0  0
    0.9922   -1.2459   -0.9211 H   0  0  0  0  0  0  0  0  0  0  0  0
    0.1441    0.7390   -1.1986 C   0  0  0  0  0  0  0  0  0  0  0  0
   -0.8382    1.1973   -1.0397 H   0  0  0  0  0  0  0  0  0  0  0  0
    0.8858    1.4369   -0.7925 H   0  0  0  0  0  0  0  0  0  0  0  0
    0.4492    0.5862   -2.7052 C   0  0  0  0  0  0  0  0  0  0  0  0
    0.6176    1.5807   -3.1276 H   0  0  0  0  0  0  0  0  0  0  0  0
    1.3755    0.0191   -2.8354 H   0  0  0  0  0  0  0  0  0  0  0  0
   -0.6535   -0.0770   -3.5352 C   0  0  0  0  0  0  0  0  0  0  0  0
   -1.7639   -0.2536   -3.0541 O   0  0  0  0  0  0  0  0  0  0  0  0
   -0.3251   -0.4348   -4.7971 O   0  0  0  0  0  0  0  0  0  0  0  0
   -1.1209   -0.8270   -5.1870 H   0  0  0  0  0  0  0  0  0  0  0  0
    0.8044   -0.3293    0.9915 C   0  0  0  0  0  0  0  0  0  0  0  0
    2.0131   -0.3334    1.1847 O   0  0  0  0  0  0  0  0  0  0  0  0
   -0.0297    0.1960    1.9613 N   0  0  0  0  0  0  0  0  0  0  0  0
   -1.0240    0.0786    1.7939 H   0  0  0  0  0  0  0  0  0  0  0  0
    0.4235    0.4763    3.3178 C   0  0  0  0  0  0  0  0  0  0  0  0
    1.2466    1.1987    3.3062 H   0  0  0  0  0  0  0  0  0  0  0  0
   -0.3937    0.8969    3.9112 H   0  0  0  0  0  0  0  0  0  0  0  0
    0.7688   -0.4431    3.8023 H   0  0  0  0  0  0  0  0  0  0  0  0
  1  2  1  0  0  0  0
  2  3  1  0  0  0  0
  2  4  1  0  0  0  0
  2  5  1  0  0  0  0
  5  6  2  0  0  0  0
  5  7  1  0  0  0  0
  7  8  1  0  0  0  0
  7  9  1  0  0  0  0
  9 10  1  0  0  0  0
  9 11  1  0  0  0  0
  9 21  1  0  0  0  0
 11 12  1  0  0  0  0
 11 13  1  0  0  0  0
 11 14  1  0  0  0  0
 14 15  1  0  0  0  0
 14 16  1  0  0  0  0
 14 17  1  0  0  0  0
 17 18  2  0  0  0  0
 17 19  1  0  0  0  0
 19 20  1  0  0  0  0
 21 22  2  0  0  0  0
 21 23  1  0  0  0  0
 23 24  1  0  0  0  0
 23 25  1  0  0  0  0
 25 26  1  0  0  0  0
 25 27  1  0  0  0  0
 25 28  1  0  0  0  0
M  END
$$$$

  -OEChem-02102214123D

 28 27  0     1  0  0  0  0  0999 V2000
   -2.6756   -4.1672    0.2541 H   0  0  0  0  0  0  0  0  0  0  0  0
   -2.6444   -3.1780   -0.2112 C   0  0  0  0  0  0  0  0  0  0  0  0
   -3.4817   -2.5847    0.1636 H   0  0  0  0  0  0  0  0  0  0  0  0
   -2.7453   -3.2950   -1.2930 H   0  0  0  0  0  0  0  0  0  0  0  0
   -1.3336   -2.4883    0.1154 C   0  0  0  0  0  0  0  0  0  0  0  0
   -0.5399   -3.0172    0.8729 O   0  0  0  0  0  0  0  0  0  0  0  0
   -1.0514   -1.2629   -0.4523 N   0  0  0  0  0  0  0  0  0  0  0  0
   -1.6859   -0.9674   -1.1962 H   0  0  0  0  0  0  0  0  0  0  0  0
    0.2733   -0.6178   -0.4205 C   0  0  1  0  0  0  0  0  0  0  0  0
    1.0077   -1.2800   -0.8918 H   0  0  0  0  0  0  0  0  0  0  0  0
    0.1637    0.7058   -1.2074 C   0  0  0  0  0  0  0  0  0  0  0  0
   -0.8116    1.1807   -1.0535 H   0  0  0  0  0  0  0  0  0  0  0  0
    0.9136    1.3990   -0.8086 H   0  0  0  0  0  0  0  0  0  0  0  0
    0.4785    0.5266   -2.7100 C   0  0  0  0  0  0  0  0  0  0  0  0
    0.8868    1.4695   -3.0850 H   0  0  0  0  0  0  0  0  0  0  0  0
    1.2484   -0.2357   -2.8575 H   0  0  0  0  0  0  0  0  0  0  0  0
   -0.7361    0.1892   -3.5792 C   0  0  0  0  0  0  0  0  0  0  0  0
   -1.7669   -0.2158   -3.0603 O   0  0  0  0  0  0  0  0  0  0  0  0
   -0.5922    0.3584   -4.9131 O   0  0  0  0  0  0  0  0  0  0  0  0
   -1.4367    0.1020   -5.3140 H   0  0  0  0  0  0  0  0  0  0  0  0
    0.8045   -0.3340    1.0034 C   0  0  0  0  0  0  0  0  0  0  0  0
    2.0110   -0.3427    1.2097 O   0  0  0  0  0  0  0  0  0  0  0  0
   -0.0365    0.2144    1.9545 N   0  0  0  0  0  0  0  0  0  0  0  0
   -1.0296    0.0993    1.7785 H   0  0  0  0  0  0  0  0  0  0  0  0
    0.4032    0.5176    3.3106 C   0  0  0  0  0  0  0  0  0  0  0  0
    1.2297    1.2359    3.2952 H   0  0  0  0  0  0  0  0  0  0  0  0
   -0.4189    0.9529    3.8865 H   0  0  0  0  0  0  0  0  0  0  0  0
    0.7386   -0.3942    3.8160 H   0  0  0  0  0  0  0  0  0  0  0  0
  1  2  1  0  0  0  0
  2  3  1  0  0  0  0
  2  4  1  0  0  0  0
  2  5  1  0  0  0  0
  5  6  2  0  0  0  0
  5  7  1  0  0  0  0
  7  8  1  0  0  0  0
  7  9  1  0  0  0  0
  9 10  1  0  0  0  0
  9 11  1  0  0  0  0
  9 21  1  0  0  0  0
 11 12  1  0  0  0  0
 11 13  1  0  0  0  0
 11 14  1  0  0  0  0
 14 15  1  0  0  0  0
 14 16  1  0  0  0  0
 14 17  1  0  0  0  0
 17 18  2  0  0  0  0
 17 19  1  0  0  0  0
 19 20  1  0  0  0  0
 21 22  2  0  0  0  0
 21 23  1  0  0  0  0
 23 24  1  0  0  0  0
 23 25  1  0  0  0  0
 25 26  1  0  0  0  0
 25 27  1  0  0  0  0
 25 28  1  0  0  0  0
M  END
$$$$

  -OEChem-02102214123D

 28 27  0     1  0  0  0  0  0999 V2000
   -2.6993   -4.1488    0.2456 H   0  0  0  0  0  0  0  0  0  0  0  0
   -2.6517   -3.1639   -0.2274 C   0  0  0  0  0  0  0  0  0  0  0  0
   -3.4886   -2.5595    0.1303 H   0  0  0  0  0  0  0  0  0  0  0  0
   -2.7382   -3.2894   -1.3095 H   0  0  0  0  0  0  0  0  0  0  0  0
   -1.3391   -2.4837    0.1118 C   0  0  0  0  0  0  0  0  0  0  0  0
   -0.5677   -3.0057    0.8963 O   0  0  0  0  0  0  0  0  0  0  0  0
   -1.0324   -1.2713   -0.4712 N   0  0  0  0  0  0  0  0  0  0  0  0
   -1.6470   -0.9850   -1.2349 H   0  0  0  0  0  0  0  0  0  0  0  0
    0.2999   -0.6408   -0.4240 C   0  0  1  0  0  0  0  0  0  0  0  0
    1.0397   -1.3107   -0.8755 H   0  0  0  0  0  0  0  0  0  0  0  0
    0.1857    0.6714   -1.2246 C   0  0  0  0  0  0  0  0  0  0  0  0
   -0.7904    1.1471   -1.0751 H   0  0  0  0  0  0  0  0  0  0  0  0
    0.9325    1.3724   -0.8332 H   0  0  0  0  0  0  0  0  0  0  0  0
    0.5080    0.4649   -2.7214 C   0  0  0  0  0  0  0  0  0  0  0  0
    1.1465    1.2883   -3.0550 H   0  0  0  0  0  0  0  0  0  0  0  0
    1.0630   -0.4608   -2.8951 H   0  0  0  0  0  0  0  0  0  0  0  0
   -0.7494    0.4726   -3.5892 C   0  0  0  0  0  0  0  0  0  0  0  0
   -1.7467   -0.1064   -3.1805 O   0  0  0  0  0  0  0  0  0  0  0  0
   -0.6919    1.1179   -4.7764 O   0  0  0  0  0  0  0  0  0  0  0  0
   -1.5631    1.0122   -5.1878 H   0  0  0  0  0  0  0  0  0  0  0  0
    0.8109   -0.3372    1.0034 C   0  0  0  0  0  0  0  0  0  0  0  0
    2.0138   -0.3552    1.2299 O   0  0  0  0  0  0  0  0  0  0  0  0
   -0.0386    0.2382    1.9306 N   0  0  0  0  0  0  0  0  0  0  0  0
   -1.0301    0.1311    1.7418 H   0  0  0  0  0  0  0  0  0  0  0  0
    0.3842    0.5647    3.2867 C   0  0  0  0  0  0  0  0  0  0  0  0
    1.2158    1.2771    3.2684 H   0  0  0  0  0  0  0  0  0  0  0  0
   -0.4427    1.0165    3.8427 H   0  0  0  0  0  0  0  0  0  0  0  0
    0.7063   -0.3392    3.8146 H   0  0  0  0  0  0  0  0  0  0  0  0
  1  2  1  0  0  0  0
  2  3  1  0  0  0  0
  2  4  1  0  0  0  0
  2  5  1  0  0  0  0
  5  6  2  0  0  0  0
  5  7  1  0  0  0  0
  7  8  1  0  0  0  0
  7  9  1  0  0  0  0
  9 10  1  0  0  0  0
  9 11  1  0  0  0  0
  9 21  1  0  0  0  0
 11 12  1  0  0  0  0
 11 13  1  0  0  0  0
 11 14  1  0  0  0  0
 14 15  1  0  0  0  0
 14 16  1  0  0  0  0
 14 17  1  0  0  0  0
 17 18  2  0  0  0  0
 17 19  1  0  0  0  0
 19 20  1  0  0  0  0
 21 22  2  0  0  0  0
 21 23  1  0  0  0  0
 23 24  1  0  0  0  0
 23 25  1  0  0  0  0
 25 26  1  0  0  0  0
 25 27  1  0  0  0  0
 25 28  1  0  0  0  0
M  END
$$$$

  -OEChem-02102214123D

 28 27  0     1  0  0  0  0  0999 V2000
   -2.7140   -4.1319    0.2963 H   0  0  0  0  0  0  0  0  0  0  0  0
   -2.6654   -3.1533   -0.1897 C   0  0  0  0  0  0  0  0  0  0  0  0
   -3.4837   -2.5330    0.1836 H   0  0  0  0  0  0  0  0  0  0  0  0
   -2.7830   -3.2907   -1.2673 H   0  0  0  0  0  0  0  0  0  0  0  0
   -1.3345   -2.4888    0.1068 C   0  0  0  0  0  0  0  0  0  0  0  0
   -0.5433   -3.0227    0.8629 O   0  0  0  0  0  0  0  0  0  0  0  0
   -1.0318   -1.2769   -0.4806 N   0  0  0  0  0  0  0  0  0  0  0  0
   -1.6731   -0.9633   -1.2083 H   0  0  0  0  0  0  0  0  0  0  0  0
    0.2997   -0.6426   -0.4370 C   0  0  1  0  0  0  0  0  0  0  0  0
    1.0428   -1.3105   -0.8865 H   0  0  0  0  0  0  0  0  0  0  0  0
    0.1813    0.6638   -1.2429 C   0  0  0  0  0  0  0  0  0  0  0  0
   -0.8035    1.1216   -1.0956 H   0  0  0  0  0  0  0  0  0  0  0  0
    0.9137    1.3820   -0.8556 H   0  0  0  0  0  0  0  0  0  0  0  0
    0.5046    0.4431   -2.7381 C   0  0  0  0  0  0  0  0  0  0  0  0
    1.3566    1.0709   -3.0160 H   0  0  0  0  0  0  0  0  0  0  0  0
    0.7870   -0.5931   -2.9431 H   0  0  0  0  0  0  0  0  0  0  0  0
   -0.6792    0.8032   -3.6298 C   0  0  0  0  0  0  0  0  0  0  0  0
   -1.7619    0.2949   -3.3771 O   0  0  0  0  0  0  0  0  0  0  0  0
   -0.4731    1.6629   -4.6535 O   0  0  0  0  0  0  0  0  0  0  0  0
   -1.3266    1.7616   -5.1022 H   0  0  0  0  0  0  0  0  0  0  0  0
    0.8114   -0.3335    0.9889 C   0  0  0  0  0  0  0  0  0  0  0  0
    2.0139   -0.3539    1.2156 O   0  0  0  0  0  0  0  0  0  0  0  0
   -0.0366    0.2426    1.9171 N   0  0  0  0  0  0  0  0  0  0  0  0
   -1.0289    0.1491    1.7260 H   0  0  0  0  0  0  0  0  0  0  0  0
    0.3883    0.5682    3.2727 C   0  0  0  0  0  0  0  0  0  0  0  0
    1.2151    1.2862    3.2535 H   0  0  0  0  0  0  0  0  0  0  0  0
   -0.4396    1.0126    3.8332 H   0  0  0  0  0  0  0  0  0  0  0  0
    0.7184   -0.3349    3.7970 H   0  0  0  0  0  0  0  0  0  0  0  0
  1  2  1  0  0  0  0
  2  3  1  0  0  0  0
  2  4  1  0  0  0  0
  2  5  1  0  0  0  0
  5  6  2  0  0  0  0
  5  7  1  0  0  0  0
  7  8  1  0  0  0  0
  7  9  1  0  0  0  0
  9 10  1  0  0  0  0
  9 11  1  0  0  0  0
  9 21  1  0  0  0  0
 11 12  1  0  0  0  0
 11 13  1  0  0  0  0
 11 14  1  0  0  0  0
 14 15  1  0  0  0  0
 14 16  1  0  0  0  0
 14 17  1  0  0  0  0
 17 18  2  0  0  0  0
 17 19  1  0  0  0  0
 19 20  1  0  0  0  0
 21 22  2  0  0  0  0
 21 23  1  0  0  0  0
 23 24  1  0  0  0  0
 23 25  1  0  0  0  0
 25 26  1  0  0  0  0
 25 27  1  0  0  0  0
 25 28  1  0  0  0  0
M  END
$$$$

  -OEChem-02102214123D

 28 27  0     1  0  0  0  0  0999 V2000
   -2.7263   -4.1292    0.3514 H   0  0  0  0  0  0  0  0  0  0  0  0
   -2.6800   -3.1591   -0.1517 C   0  0  0  0  0  0  0  0  0  0  0  0
   -3.4890   -2.5283    0.2245 H   0  0  0  0  0  0  0  0  0  0  0  0
   -2.8163   -3.3142   -1.2248 H   0  0  0  0  0  0  0  0  0  0  0  0
   -1.3401   -2.4981    0.1123 C   0  0  0  0  0  0  0  0  0  0  0  0
   -0.5297   -3.0363    0.8445 O   0  0  0  0  0  0  0  0  0  0  0  0
   -1.0495   -1.2843   -0.4778 N   0  0  0  0  0  0  0  0  0  0  0  0
   -1.7172   -0.9525   -1.1705 H   0  0  0  0  0  0  0  0  0  0  0  0
    0.2803   -0.6445   -0.4521 C   0  0  1  0  0  0  0  0  0  0  0  0
    1.0181   -1.3123   -0.9112 H   0  0  0  0  0  0  0  0  0  0  0  0
    0.1693    0.6630   -1.2575 C   0  0  0  0  0  0  0  0  0  0  0  0
   -0.8251    1.1013   -1.1163 H   0  0  0  0  0  0  0  0  0  0  0  0
    0.8895    1.3953   -0.8735 H   0  0  0  0  0  0  0  0  0  0  0  0
    0.4860    0.4340   -2.7510 C   0  0  0  0  0  0  0  0  0  0  0  0
    1.4931    0.7996   -2.9734 H   0  0  0  0  0  0  0  0  0  0  0  0
    0.4643   -0.6318   -2.9962 H   0  0  0  0  0  0  0  0  0  0  0  0
   -0.5238    1.1321   -3.6540 C   0  0  0  0  0  0  0  0  0  0  0  0
   -1.6944    0.7944   -3.5707 O   0  0  0  0  0  0  0  0  0  0  0  0
   -0.0771    2.0959   -4.4911 O   0  0  0  0  0  0  0  0  0  0  0  0
   -0.8539    2.4179   -4.9732 H   0  0  0  0  0  0  0  0  0  0  0  0
    0.8094   -0.3350    0.9673 C   0  0  0  0  0  0  0  0  0  0  0  0
    2.0150   -0.3461    1.1772 O   0  0  0  0  0  0  0  0  0  0  0  0
   -0.0298    0.2365    1.9064 N   0  0  0  0  0  0  0  0  0  0  0  0
   -1.0240    0.1349    1.7306 H   0  0  0  0  0  0  0  0  0  0  0  0
    0.4130    0.5755    3.2530 C   0  0  0  0  0  0  0  0  0  0  0  0
    1.2239    1.3108    3.2165 H   0  0  0  0  0  0  0  0  0  0  0  0
   -0.4139    1.0039    3.8273 H   0  0  0  0  0  0  0  0  0  0  0  0
    0.7715   -0.3189    3.7735 H   0  0  0  0  0  0  0  0  0  0  0  0
  1  2  1  0  0  0  0
  2  3  1  0  0  0  0
  2  4  1  0  0  0  0
  2  5  1  0  0  0  0
  5  6  2  0  0  0  0
  5  7  1  0  0  0  0
  7  8  1  0  0  0  0
  7  9  1  0  0  0  0
  9 10  1  0  0  0  0
  9 11  1  0  0  0  0
  9 21  1  0  0  0  0
 11 12  1  0  0  0  0
 11 13  1  0  0  0  0
 11 14  1  0  0  0  0
 14 15  1  0  0  0  0
 14 16  1  0  0  0  0
 14 17  1  0  0  0  0
 17 18  2  0  0  0  0
 17 19  1  0  0  0  0
 19 20  1  0  0  0  0
 21 22  2  0  0  0  0
 21 23  1  0  0  0  0
 23 24  1  0  0  0  0
 23 25  1  0  0  0  0
 25 26  1  0  0  0  0
 25 27  1  0  0  0  0
 25 28  1  0  0  0  0
M  END
$$$$

  -OEChem-02102214123D

 28 27  0     1  0  0  0  0  0999 V2000
   -2.7427   -4.1044    0.4255 H   0  0  0  0  0  0  0  0  0  0  0  0
   -2.6821   -3.1664   -0.1338 C   0  0  0  0  0  0  0  0  0  0  0  0
   -3.4896   -2.5081    0.1955 H   0  0  0  0  0  0  0  0  0  0  0  0
   -2.8076   -3.3830   -1.1975 H   0  0  0  0  0  0  0  0  0  0  0  0
   -1.3390   -2.5028    0.1049 C   0  0  0  0  0  0  0  0  0  0  0  0
   -0.5085   -3.0476    0.8089 O   0  0  0  0  0  0  0  0  0  0  0  0
   -1.0673   -1.2805   -0.4768 N   0  0  0  0  0  0  0  0  0  0  0  0
   -1.7568   -0.9360   -1.1402 H   0  0  0  0  0  0  0  0  0  0  0  0
    0.2575   -0.6292   -0.4629 C   0  0  1  0  0  0  0  0  0  0  0  0
    0.9911   -1.2914   -0.9371 H   0  0  0  0  0  0  0  0  0  0  0  0
    0.1421    0.6810   -1.2635 C   0  0  0  0  0  0  0  0  0  0  0  0
   -0.8601    1.1028   -1.1287 H   0  0  0  0  0  0  0  0  0  0  0  0
    0.8526    1.4229   -0.8796 H   0  0  0  0  0  0  0  0  0  0  0  0
    0.4541    0.4492   -2.7550 C   0  0  0  0  0  0  0  0  0  0  0  0
    1.5299    0.5497   -2.9277 H   0  0  0  0  0  0  0  0  0  0  0  0
    0.1668   -0.5640   -3.0511 H   0  0  0  0  0  0  0  0  0  0  0  0
   -0.3073    1.4192   -3.6507 C   0  0  0  0  0  0  0  0  0  0  0  0
   -1.5248    1.3392   -3.6798 O   0  0  0  0  0  0  0  0  0  0  0  0
    0.4031    2.3260   -4.3593 O   0  0  0  0  0  0  0  0  0  0  0  0
   -0.2445    2.8469   -4.8580 H   0  0  0  0  0  0  0  0  0  0  0  0
    0.8066   -0.3283    0.9509 C   0  0  0  0  0  0  0  0  0  0  0  0
    2.0155   -0.3333    1.1411 O   0  0  0  0  0  0  0  0  0  0  0  0
   -0.0193    0.2273    1.9111 N   0  0  0  0  0  0  0  0  0  0  0  0
   -1.0161    0.1269    1.7509 H   0  0  0  0  0  0  0  0  0  0  0  0
    0.4466    0.5604    3.2518 C   0  0  0  0  0  0  0  0  0  0  0  0
    1.2302    1.3243    3.2067 H   0  0  0  0  0  0  0  0  0  0  0  0
   -0.3793    0.9499    3.8545 H   0  0  0  0  0  0  0  0  0  0  0  0
    0.8502   -0.3284    3.7487 H   0  0  0  0  0  0  0  0  0  0  0  0
  1  2  1  0  0  0  0
  2  3  1  0  0  0  0
  2  4  1  0  0  0  0
  2  5  1  0  0  0  0
  5  6  2  0  0  0  0
  5  7  1  0  0  0  0
  7  8  1  0  0  0  0
  7  9  1  0  0  0  0
  9 10  1  0  0  0  0
  9 11  1  0  0  0  0
  9 21  1  0  0  0  0
 11 12  1  0  0  0  0
 11 13  1  0  0  0  0
 11 14  1  0  0  0  0
 14 15  1  0  0  0  0
 14 16  1  0  0  0  0
 14 17  1  0  0  0  0
 17 18  2  0  0  0  0
 17 19  1  0  0  0  0
 19 20  1  0  0  0  0
 21 22  2  0  0  0  0
 21 23  1  0  0  0  0
 23 24  1  0  0  0  0
 23 25  1  0  0  0  0
 25 26  1  0  0  0  0
 25 27  1  0  0  0  0
 25 28  1  0  0  0  0
M  END
$$$$

  -OEChem-02102214123D

 28 27  0     1  0  0  0  0  0999 V2000
   -2.6418   -4.1616    0.2711 H   0  0  0  0  0  0  0  0  0  0  0  0
   -2.6344   -3.1661   -0.1822 C   0  0  0  0  0  0  0  0  0  0  0  0
   -3.4293   -2.5683    0.2698 H   0  0  0  0  0  0  0  0  0  0  0  0
   -2.8263   -3.2671   -1.2531 H   0  0  0  0  0  0  0  0  0  0  0  0
   -1.2900   -2.5008    0.0441 C   0  0  0  0  0  0  0  0  0  0  0  0
   -0.4325   -3.0695    0.6944 O   0  0  0  0  0  0  0  0  0  0  0  0
   -1.0474   -1.2495   -0.4874 N   0  0  0  0  0  0  0  0  0  0  0  0
   -1.7698   -0.8631   -1.0879 H   0  0  0  0  0  0  0  0  0  0  0  0
    0.2605   -0.5661   -0.4429 C   0  0  1  0  0  0  0  0  0  0  0  0
    1.0099   -1.1966   -0.9359 H   0  0  0  0  0  0  0  0  0  0  0  0
    0.1335    0.7690   -1.2001 C   0  0  0  0  0  0  0  0  0  0  0  0
   -0.8787    1.1667   -1.0676 H   0  0  0  0  0  0  0  0  0  0  0  0
    0.8268    1.5086   -0.7820 H   0  0  0  0  0  0  0  0  0  0  0  0
    0.4699    0.5869   -2.6953 C   0  0  0  0  0  0  0  0  0  0  0  0
    1.5496    0.4480   -2.8051 H   0  0  0  0  0  0  0  0  0  0  0  0
   -0.0192   -0.3152   -3.0726 H   0  0  0  0  0  0  0  0  0  0  0  0
    0.0335    1.7489   -3.5896 C   0  0  0  0  0  0  0  0  0  0  0  0
   -0.6780    2.6327   -3.1406 O   0  0  0  0  0  0  0  0  0  0  0  0
    0.4592    1.7173   -4.8726 O   0  0  0  0  0  0  0  0  0  0  0  0
    0.1032    2.5156   -5.2919 H   0  0  0  0  0  0  0  0  0  0  0  0
    0.7949   -0.3096    0.9851 C   0  0  0  0  0  0  0  0  0  0  0  0
    2.0019   -0.3107    1.1872 O   0  0  0  0  0  0  0  0  0  0  0  0
   -0.0487    0.1854    1.9630 N   0  0  0  0  0  0  0  0  0  0  0  0
   -1.0429    0.0877    1.7864 H   0  0  0  0  0  0  0  0  0  0  0  0
    0.3996    0.4634    3.3220 C   0  0  0  0  0  0  0  0  0  0  0  0
    1.2031    1.2075    3.3166 H   0  0  0  0  0  0  0  0  0  0  0  0
   -0.4273    0.8556    3.9215 H   0  0  0  0  0  0  0  0  0  0  0  0
    0.7704   -0.4517    3.7959 H   0  0  0  0  0  0  0  0  0  0  0  0
  1  2  1  0  0  0  0
  2  3  1  0  0  0  0
  2  4  1  0  0  0  0
  2  5  1  0  0  0  0
  5  6  2  0  0  0  0
  5  7  1  0  0  0  0
  7  8  1  0  0  0  0
  7  9  1  0  0  0  0
  9 10  1  0  0  0  0
  9 11  1  0  0  0  0
  9 21  1  0  0  0  0
 11 12  1  0  0  0  0
 11 13  1  0  0  0  0
 11 14  1  0  0  0  0
 14 15  1  0  0  0  0
 14 16  1  0  0  0  0
 14 17  1  0  0  0  0
 17 18  2  0  0  0  0
 17 19  1  0  0  0  0
 19 20  1  0  0  0  0
 21 22  2  0  0  0  0
 21 23  1  0  0  0  0
 23 24  1  0  0  0  0
 23 25  1  0  0  0  0
 25 26  1  0  0  0  0
 25 27  1  0  0  0  0
 25 28  1  0  0  0  0
M  END
$$$$

  -OEChem-02102214123D

 28 27  0     1  0  0  0  0  0999 V2000
   -2.6886   -4.1317    0.3598 H   0  0  0  0  0  0  0  0  0  0  0  0
   -2.6523   -3.1701   -0.1603 C   0  0  0  0  0  0  0  0  0  0  0  0
   -3.4438   -2.5280    0.2335 H   0  0  0  0  0  0  0  0  0  0  0  0
   -2.8254   -3.3405   -1.2257 H   0  0  0  0  0  0  0  0  0  0  0  0
   -1.2994   -2.5158    0.0471 C   0  0  0  0  0  0  0  0  0  0  0  0
   -0.4384   -3.0891    0.6887 O   0  0  0  0  0  0  0  0  0  0  0  0
   -1.0540   -1.2677   -0.4901 N   0  0  0  0  0  0  0  0  0  0  0  0
   -1.7837   -0.8715   -1.0748 H   0  0  0  0  0  0  0  0  0  0  0  0
    0.2554   -0.5877   -0.4523 C   0  0  1  0  0  0  0  0  0  0  0  0
    0.9985   -1.2205   -0.9510 H   0  0  0  0  0  0  0  0  0  0  0  0
    0.1316    0.7440   -1.2107 C   0  0  0  0  0  0  0  0  0  0  0  0
   -0.7631    1.2791   -0.8737 H   0  0  0  0  0  0  0  0  0  0  0  0
    0.9973    1.3749   -0.9761 H   0  0  0  0  0  0  0  0  0  0  0  0
    0.0914    0.5229   -2.7366 C   0  0  0  0  0  0  0  0  0  0  0  0
    1.0094    0.0158   -3.0484 H   0  0  0  0  0  0  0  0  0  0  0  0
   -0.7508   -0.1208   -3.0020 H   0  0  0  0  0  0  0  0  0  0  0  0
   -0.0317    1.8202   -3.5357 C   0  0  0  0  0  0  0  0  0  0  0  0
   -0.5537    2.7958   -3.0217 O   0  0  0  0  0  0  0  0  0  0  0  0
    0.4364    1.8070   -4.8045 O   0  0  0  0  0  0  0  0  0  0  0  0
    0.2852    2.6983   -5.1545 H   0  0  0  0  0  0  0  0  0  0  0  0
    0.7995   -0.3238    0.9702 C   0  0  0  0  0  0  0  0  0  0  0  0
    2.0078   -0.3207    1.1636 O   0  0  0  0  0  0  0  0  0  0  0  0
   -0.0375    0.1794    1.9495 N   0  0  0  0  0  0  0  0  0  0  0  0
   -1.0333    0.0890    1.7787 H   0  0  0  0  0  0  0  0  0  0  0  0
    0.4211    0.4874    3.2981 C   0  0  0  0  0  0  0  0  0  0  0  0
    1.2037    1.2533    3.2710 H   0  0  0  0  0  0  0  0  0  0  0  0
   -0.4086    0.8645    3.9034 H   0  0  0  0  0  0  0  0  0  0  0  0
    0.8232   -0.4104    3.7796 H   0  0  0  0  0  0  0  0  0  0  0  0
  1  2  1  0  0  0  0
  2  3  1  0  0  0  0
  2  4  1  0  0  0  0
  2  5  1  0  0  0  0
  5  6  2  0  0  0  0
  5  7  1  0  0  0  0
  7  8  1  0  0  0  0
  7  9  1  0  0  0  0
  9 10  1  0  0  0  0
  9 11  1  0  0  0  0
  9 21  1  0  0  0  0
 11 12  1  0  0  0  0
 11 13  1  0  0  0  0
 11 14  1  0  0  0  0
 14 15  1  0  0  0  0
 14 16  1  0  0  0  0
 14 17  1  0  0  0  0
 17 18  2  0  0  0  0
 17 19  1  0  0  0  0
 19 20  1  0  0  0  0
 21 22  2  0  0  0  0
 21 23  1  0  0  0  0
 23 24  1  0  0  0  0
 23 25  1  0  0  0  0
 25 26  1  0  0  0  0
 25 27  1  0  0  0  0
 25 28  1  0  0  0  0
M  END
$$$$

  -OEChem-02102214123D

 28 27  0     1  0  0  0  0  0999 V2000
   -2.6782   -4.1438    0.3476 H   0  0  0  0  0  0  0  0  0  0  0  0
   -2.6538   -3.1736   -0.1571 C   0  0  0  0  0  0  0  0  0  0  0  0
   -3.4474   -2.5445    0.2530 H   0  0  0  0  0  0  0  0  0  0  0  0
   -2.8332   -3.3282   -1.2238 H   0  0  0  0  0  0  0  0  0  0  0  0
   -1.3047   -2.5120    0.0515 C   0  0  0  0  0  0  0  0  0  0  0  0
   -0.4435   -3.0798    0.6978 O   0  0  0  0  0  0  0  0  0  0  0  0
   -1.0615   -1.2652   -0.4908 N   0  0  0  0  0  0  0  0  0  0  0  0
   -1.7862   -0.8799   -1.0888 H   0  0  0  0  0  0  0  0  0  0  0  0
    0.2501   -0.5890   -0.4605 C   0  0  1  0  0  0  0  0  0  0  0  0
    0.9899   -1.2251   -0.9597 H   0  0  0  0  0  0  0  0  0  0  0  0
    0.1250    0.7430   -1.2192 C   0  0  0  0  0  0  0  0  0  0  0  0
   -0.7549    1.3000   -0.8792 H   0  0  0  0  0  0  0  0  0  0  0  0
    1.0063    1.3539   -0.9877 H   0  0  0  0  0  0  0  0  0  0  0  0
    0.0743    0.5283   -2.7459 C   0  0  0  0  0  0  0  0  0  0  0  0
    0.8497   -0.1871   -3.0359 H   0  0  0  0  0  0  0  0  0  0  0  0
   -0.8916    0.1084   -3.0372 H   0  0  0  0  0  0  0  0  0  0  0  0
    0.3137    1.8141   -3.5360 C   0  0  0  0  0  0  0  0  0  0  0  0
   -0.0612    2.8771   -3.0696 O   0  0  0  0  0  0  0  0  0  0  0  0
    0.9199    1.6994   -4.7392 O   0  0  0  0  0  0  0  0  0  0  0  0
    0.9929    2.6010   -5.0878 H   0  0  0  0  0  0  0  0  0  0  0  0
    0.8001   -0.3244    0.9601 C   0  0  0  0  0  0  0  0  0  0  0  0
    2.0089   -0.3287    1.1500 O   0  0  0  0  0  0  0  0  0  0  0  0
   -0.0315    0.1830    1.9420 N   0  0  0  0  0  0  0  0  0  0  0  0
   -1.0282    0.0913    1.7765 H   0  0  0  0  0  0  0  0  0  0  0  0
    0.4335    0.4891    3.2892 C   0  0  0  0  0  0  0  0  0  0  0  0
    1.2285    1.2416    3.2584 H   0  0  0  0  0  0  0  0  0  0  0  0
   -0.3889    0.8828    3.8938 H   0  0  0  0  0  0  0  0  0  0  0  0
    0.8213   -0.4132    3.7738 H   0  0  0  0  0  0  0  0  0  0  0  0
  1  2  1  0  0  0  0
  2  3  1  0  0  0  0
  2  4  1  0  0  0  0
  2  5  1  0  0  0  0
  5  6  2  0  0  0  0
  5  7  1  0  0  0  0
  7  8  1  0  0  0  0
  7  9  1  0  0  0  0
  9 10  1  0  0  0  0
  9 11  1  0  0  0  0
  9 21  1  0  0  0  0
 11 12  1  0  0  0  0
 11 13  1  0  0  0  0
 11 14  1  0  0  0  0
 14 15  1  0  0  0  0
 14 16  1  0  0  0  0
 14 17  1  0  0  0  0
 17 18  2  0  0  0  0
 17 19  1  0  0  0  0
 19 20  1  0  0  0  0
 21 22  2  0  0  0  0
 21 23  1  0  0  0  0
 23 24  1  0  0  0  0
 23 25  1  0  0  0  0
 25 26  1  0  0  0  0
 25 27  1  0  0  0  0
 25 28  1  0  0  0  0
M  END
$$$$

  -OEChem-02102214123D

 28 27  0     1  0  0  0  0  0999 V2000
   -2.6839   -4.1416    0.3406 H   0  0  0  0  0  0  0  0  0  0  0  0
   -2.6591   -3.1697   -0.1608 C   0  0  0  0  0  0  0  0  0  0  0  0
   -3.4532   -2.5421    0.2506 H   0  0  0  0  0  0  0  0  0  0  0  0
   -2.8377   -3.3213   -1.2280 H   0  0  0  0  0  0  0  0  0  0  0  0
   -1.3104   -2.5081    0.0508 C   0  0  0  0  0  0  0  0  0  0  0  0
   -0.4506   -3.0762    0.6985 O   0  0  0  0  0  0  0  0  0  0  0  0
   -1.0662   -1.2618   -0.4921 N   0  0  0  0  0  0  0  0  0  0  0  0
   -1.7858   -0.8834   -1.1004 H   0  0  0  0  0  0  0  0  0  0  0  0
    0.2479   -0.5907   -0.4693 C   0  0  1  0  0  0  0  0  0  0  0  0
    0.9837   -1.2277   -0.9731 H   0  0  0  0  0  0  0  0  0  0  0  0
    0.1164    0.7443   -1.2228 C   0  0  0  0  0  0  0  0  0  0  0  0
   -0.7530    1.3108   -0.8721 H   0  0  0  0  0  0  0  0  0  0  0  0
    1.0057    1.3438   -0.9912 H   0  0  0  0  0  0  0  0  0  0  0  0
    0.0500    0.5423   -2.7521 C   0  0  0  0  0  0  0  0  0  0  0  0
    0.6258   -0.3450   -3.0313 H   0  0  0  0  0  0  0  0  0  0  0  0
   -0.9836    0.3776   -3.0661 H   0  0  0  0  0  0  0  0  0  0  0  0
    0.6312    1.7218   -3.5297 C   0  0  0  0  0  0  0  0  0  0  0  0
    0.3605    2.8543   -3.1670 O   0  0  0  0  0  0  0  0  0  0  0  0
    1.4076    1.4456   -4.6023 O   0  0  0  0  0  0  0  0  0  0  0  0
    1.6865    2.3035   -4.9580 H   0  0  0  0  0  0  0  0  0  0  0  0
    0.8074   -0.3292    0.9481 C   0  0  0  0  0  0  0  0  0  0  0  0
    2.0173   -0.3369    1.1307 O   0  0  0  0  0  0  0  0  0  0  0  0
   -0.0171    0.1805    1.9347 N   0  0  0  0  0  0  0  0  0  0  0  0
   -1.0149    0.0925    1.7743 H   0  0  0  0  0  0  0  0  0  0  0  0
    0.4561    0.4832    3.2795 C   0  0  0  0  0  0  0  0  0  0  0  0
    1.2573    1.2290    3.2451 H   0  0  0  0  0  0  0  0  0  0  0  0
   -0.3605    0.8841    3.8873 H   0  0  0  0  0  0  0  0  0  0  0  0
    0.8381   -0.4221    3.7631 H   0  0  0  0  0  0  0  0  0  0  0  0
  1  2  1  0  0  0  0
  2  3  1  0  0  0  0
  2  4  1  0  0  0  0
  2  5  1  0  0  0  0
  5  6  2  0  0  0  0
  5  7  1  0  0  0  0
  7  8  1  0  0  0  0
  7  9  1  0  0  0  0
  9 10  1  0  0  0  0
  9 11  1  0  0  0  0
  9 21  1  0  0  0  0
 11 12  1  0  0  0  0
 11 13  1  0  0  0  0
 11 14  1  0  0  0  0
 14 15  1  0  0  0  0
 14 16  1  0  0  0  0
 14 17  1  0  0  0  0
 17 18  2  0  0  0  0
 17 19  1  0  0  0  0
 19 20  1  0  0  0  0
 21 22  2  0  0  0  0
 21 23  1  0  0  0  0
 23 24  1  0  0  0  0
 23 25  1  0  0  0  0
 25 26  1  0  0  0  0
 25 27  1  0  0  0  0
 25 28  1  0  0  0  0
M  END
$$$$

  -OEChem-02102214123D

 28 27  0     1  0  0  0  0  0999 V2000
   -2.6880   -4.1323    0.3317 H   0  0  0  0  0  0  0  0  0  0  0  0
   -2.6616   -3.1610   -0.1705 C   0  0  0  0  0  0  0  0  0  0  0  0
   -3.4551   -2.5321    0.2399 H   0  0  0  0  0  0  0  0  0  0  0  0
   -2.8397   -3.3128   -1.2377 H   0  0  0  0  0  0  0  0  0  0  0  0
   -1.3122   -2.5012    0.0418 C   0  0  0  0  0  0  0  0  0  0  0  0
   -0.4544   -3.0695    0.6919 O   0  0  0  0  0  0  0  0  0  0  0  0
   -1.0680   -1.2534   -0.4975 N   0  0  0  0  0  0  0  0  0  0  0  0
   -1.7859   -0.8764   -1.1088 H   0  0  0  0  0  0  0  0  0  0  0  0
    0.2480   -0.5860   -0.4803 C   0  0  1  0  0  0  0  0  0  0  0  0
    0.9809   -1.2200   -0.9923 H   0  0  0  0  0  0  0  0  0  0  0  0
    0.1115    0.7539   -1.2247 C   0  0  0  0  0  0  0  0  0  0  0  0
   -0.7574    1.3145   -0.8644 H   0  0  0  0  0  0  0  0  0  0  0  0
    0.9983    1.3556   -0.9890 H   0  0  0  0  0  0  0  0  0  0  0  0
    0.0313    0.5644   -2.7568 C   0  0  0  0  0  0  0  0  0  0  0  0
    0.3516   -0.4456   -3.0294 H   0  0  0  0  0  0  0  0  0  0  0  0
   -1.0020    0.6808   -3.0936 H   0  0  0  0  0  0  0  0  0  0  0  0
    0.9165    1.5491   -3.5167 C   0  0  0  0  0  0  0  0  0  0  0  0
    0.7941    2.7401   -3.2854 O   0  0  0  0  0  0  0  0  0  0  0  0
    1.7900    1.0468   -4.4188 O   0  0  0  0  0  0  0  0  0  0  0  0
    2.2665    1.8092   -4.7817 H   0  0  0  0  0  0  0  0  0  0  0  0
    0.8156   -0.3330    0.9356 C   0  0  0  0  0  0  0  0  0  0  0  0
    2.0264   -0.3429    1.1120 O   0  0  0  0  0  0  0  0  0  0  0  0
   -0.0033    0.1742    1.9281 N   0  0  0  0  0  0  0  0  0  0  0  0
   -1.0014    0.0778    1.7747 H   0  0  0  0  0  0  0  0  0  0  0  0
    0.4765    0.4643    3.2735 C   0  0  0  0  0  0  0  0  0  0  0  0
    1.2827    1.2049    3.2420 H   0  0  0  0  0  0  0  0  0  0  0  0
   -0.3354    0.8664    3.8867 H   0  0  0  0  0  0  0  0  0  0  0  0
    0.8541   -0.4473    3.7487 H   0  0  0  0  0  0  0  0  0  0  0  0
  1  2  1  0  0  0  0
  2  3  1  0  0  0  0
  2  4  1  0  0  0  0
  2  5  1  0  0  0  0
  5  6  2  0  0  0  0
  5  7  1  0  0  0  0
  7  8  1  0  0  0  0
  7  9  1  0  0  0  0
  9 10  1  0  0  0  0
  9 11  1  0  0  0  0
  9 21  1  0  0  0  0
 11 12  1  0  0  0  0
 11 13  1  0  0  0  0
 11 14  1  0  0  0  0
 14 15  1  0  0  0  0
 14 16  1  0  0  0  0
 14 17  1  0  0  0  0
 17 18  2  0  0  0  0
 17 19  1  0  0  0  0
 19 20  1  0  0  0  0
 21 22  2  0  0  0  0
 21 23  1  0  0  0  0
 23 24  1  0  0  0  0
 23 25  1  0  0  0  0
 25 26  1  0  0  0  0
 25 27  1  0  0  0  0
 25 28  1  0  0  0  0
M  END
$$$$

  -OEChem-02102214123D

 28 27  0     1  0  0  0  0  0999 V2000
   -2.7002   -4.1209    0.3221 H   0  0  0  0  0  0  0  0  0  0  0  0
   -2.6666   -3.1591   -0.1981 C   0  0  0  0  0  0  0  0  0  0  0  0
   -3.4673   -2.5236    0.1877 H   0  0  0  0  0  0  0  0  0  0  0  0
   -2.8278   -3.3315   -1.2650 H   0  0  0  0  0  0  0  0  0  0  0  0
   -1.3211   -2.4937    0.0226 C   0  0  0  0  0  0  0  0  0  0  0  0
   -0.4608   -3.0632    0.6682 O   0  0  0  0  0  0  0  0  0  0  0  0
   -1.0824   -1.2403   -0.5061 N   0  0  0  0  0  0  0  0  0  0  0  0
   -1.8017   -0.8640   -1.1162 H   0  0  0  0  0  0  0  0  0  0  0  0
    0.2355   -0.5747   -0.4965 C   0  0  1  0  0  0  0  0  0  0  0  0
    0.9606   -1.2046   -1.0255 H   0  0  0  0  0  0  0  0  0  0  0  0
    0.1004    0.7722   -1.2276 C   0  0  0  0  0  0  0  0  0  0  0  0
   -0.7775    1.3135   -0.8596 H   0  0  0  0  0  0  0  0  0  0  0  0
    0.9749    1.3896   -0.9869 H   0  0  0  0  0  0  0  0  0  0  0  0
    0.0077    0.5920   -2.7595 C   0  0  0  0  0  0  0  0  0  0  0  0
    0.0328   -0.4680   -3.0297 H   0  0  0  0  0  0  0  0  0  0  0  0
   -0.9425    0.9966   -3.1188 H   0  0  0  0  0  0  0  0  0  0  0  0
    1.1424    1.3033   -3.4894 C   0  0  0  0  0  0  0  0  0  0  0  0
    1.1441    2.5222   -3.5076 O   0  0  0  0  0  0  0  0  0  0  0  0
    2.0960    0.5417   -4.0719 O   0  0  0  0  0  0  0  0  0  0  0  0
    2.7372    1.1611   -4.4528 H   0  0  0  0  0  0  0  0  0  0  0  0
    0.8227   -0.3366    0.9139 C   0  0  0  0  0  0  0  0  0  0  0  0
    2.0361   -0.3435    1.0717 O   0  0  0  0  0  0  0  0  0  0  0  0
    0.0183    0.1618    1.9225 N   0  0  0  0  0  0  0  0  0  0  0  0
   -0.9816    0.0593    1.7860 H   0  0  0  0  0  0  0  0  0  0  0  0
    0.5190    0.4412    3.2626 C   0  0  0  0  0  0  0  0  0  0  0  0
    1.3229    1.1841    3.2246 H   0  0  0  0  0  0  0  0  0  0  0  0
   -0.2837    0.8360    3.8925 H   0  0  0  0  0  0  0  0  0  0  0  0
    0.9063   -0.4733    3.7242 H   0  0  0  0  0  0  0  0  0  0  0  0
  1  2  1  0  0  0  0
  2  3  1  0  0  0  0
  2  4  1  0  0  0  0
  2  5  1  0  0  0  0
  5  6  2  0  0  0  0
  5  7  1  0  0  0  0
  7  8  1  0  0  0  0
  7  9  1  0  0  0  0
  9 10  1  0  0  0  0
  9 11  1  0  0  0  0
  9 21  1  0  0  0  0
 11 12  1  0  0  0  0
 11 13  1  0  0  0  0
 11 14  1  0  0  0  0
 14 15  1  0  0  0  0
 14 16  1  0  0  0  0
 14 17  1  0  0  0  0
 17 18  2  0  0  0  0
 17 19  1  0  0  0  0
 19 20  1  0  0  0  0
 21 22  2  0  0  0  0
 21 23  1  0  0  0  0
 23 24  1  0  0  0  0
 23 25  1  0  0  0  0
 25 26  1  0  0  0  0
 25 27  1  0  0  0  0
 25 28  1  0  0  0  0
M  END
$$$$

  -OEChem-02102214123D

 28 27  0     1  0  0  0  0  0999 V2000
   -2.6964   -4.1152    0.2953 H   0  0  0  0  0  0  0  0  0  0  0  0
   -2.6648   -3.1534   -0.2247 C   0  0  0  0  0  0  0  0  0  0  0  0
   -3.4683   -2.5203    0.1589 H   0  0  0  0  0  0  0  0  0  0  0  0
   -2.8225   -3.3264   -1.2920 H   0  0  0  0  0  0  0  0  0  0  0  0
   -1.3223   -2.4836    0.0001 C   0  0  0  0  0  0  0  0  0  0  0  0
   -0.4629   -3.0516    0.6482 O   0  0  0  0  0  0  0  0  0  0  0  0
   -1.0890   -1.2255   -0.5201 N   0  0  0  0  0  0  0  0  0  0  0  0
   -1.8086   -0.8514   -1.1311 H   0  0  0  0  0  0  0  0  0  0  0  0
    0.2293   -0.5600   -0.5156 C   0  0  1  0  0  0  0  0  0  0  0  0
    0.9485   -1.1865   -1.0569 H   0  0  0  0  0  0  0  0  0  0  0  0
    0.0993    0.7939   -1.2349 C   0  0  0  0  0  0  0  0  0  0  0  0
   -0.7868    1.3185   -0.8626 H   0  0  0  0  0  0  0  0  0  0  0  0
    0.9644    1.4238   -0.9924 H   0  0  0  0  0  0  0  0  0  0  0  0
    0.0001    0.6227   -2.7652 C   0  0  0  0  0  0  0  0  0  0  0  0
   -0.2633   -0.4040   -3.0346 H   0  0  0  0  0  0  0  0  0  0  0  0
   -0.7896    1.2740   -3.1511 H   0  0  0  0  0  0  0  0  0  0  0  0
    1.3066    1.0019   -3.4527 C   0  0  0  0  0  0  0  0  0  0  0  0
    1.4899    2.1696   -3.7503 O   0  0  0  0  0  0  0  0  0  0  0  0
    2.2049    0.0172   -3.6802 O   0  0  0  0  0  0  0  0  0  0  0  0
    2.9774    0.4455   -4.0800 H   0  0  0  0  0  0  0  0  0  0  0  0
    0.8269   -0.3349    0.8925 C   0  0  0  0  0  0  0  0  0  0  0  0
    2.0415   -0.3392    1.0409 O   0  0  0  0  0  0  0  0  0  0  0  0
    0.0297    0.1540    1.9117 N   0  0  0  0  0  0  0  0  0  0  0  0
   -0.9703    0.0417    1.7836 H   0  0  0  0  0  0  0  0  0  0  0  0
    0.5395    0.4014    3.2548 C   0  0  0  0  0  0  0  0  0  0  0  0
    1.3465    1.1413    3.2291 H   0  0  0  0  0  0  0  0  0  0  0  0
   -0.2578    0.7853    3.8982 H   0  0  0  0  0  0  0  0  0  0  0  0
    0.9254   -0.5250    3.6932 H   0  0  0  0  0  0  0  0  0  0  0  0
  1  2  1  0  0  0  0
  2  3  1  0  0  0  0
  2  4  1  0  0  0  0
  2  5  1  0  0  0  0
  5  6  2  0  0  0  0
  5  7  1  0  0  0  0
  7  8  1  0  0  0  0
  7  9  1  0  0  0  0
  9 10  1  0  0  0  0
  9 11  1  0  0  0  0
  9 21  1  0  0  0  0
 11 12  1  0  0  0  0
 11 13  1  0  0  0  0
 11 14  1  0  0  0  0
 14 15  1  0  0  0  0
 14 16  1  0  0  0  0
 14 17  1  0  0  0  0
 17 18  2  0  0  0  0
 17 19  1  0  0  0  0
 19 20  1  0  0  0  0
 21 22  2  0  0  0  0
 21 23  1  0  0  0  0
 23 24  1  0  0  0  0
 23 25  1  0  0  0  0
 25 26  1  0  0  0  0
 25 27  1  0  0  0  0
 25 28  1  0  0  0  0
M  END
$$$$

  -OEChem-02102214123D

 28 27  0     1  0  0  0  0  0999 V2000
   -2.6406   -4.1489    0.2770 H   0  0  0  0  0  0  0  0  0  0  0  0
   -2.6202   -3.1588   -0.1873 C   0  0  0  0  0  0  0  0  0  0  0  0
   -3.4223   -2.5533    0.2411 H   0  0  0  0  0  0  0  0  0  0  0  0
   -2.7898   -3.2722   -1.2607 H   0  0  0  0  0  0  0  0  0  0  0  0
   -1.2786   -2.4953    0.0603 C   0  0  0  0  0  0  0  0  0  0  0  0
   -0.4434   -3.0555    0.7454 O   0  0  0  0  0  0  0  0  0  0  0  0
   -1.0181   -1.2545   -0.4879 N   0  0  0  0  0  0  0  0  0  0  0  0
   -1.7173   -0.8876   -1.1260 H   0  0  0  0  0  0  0  0  0  0  0  0
    0.2965   -0.5820   -0.4364 C   0  0  1  0  0  0  0  0  0  0  0  0
    1.0491   -1.2182   -0.9168 H   0  0  0  0  0  0  0  0  0  0  0  0
    0.1914    0.7483   -1.2048 C   0  0  0  0  0  0  0  0  0  0  0  0
   -0.7250    1.2626   -0.8978 H   0  0  0  0  0  0  0  0  0  0  0  0
    1.0239    1.4077   -0.9317 H   0  0  0  0  0  0  0  0  0  0  0  0
    0.1681    0.5260   -2.7368 C   0  0  0  0  0  0  0  0  0  0  0  0
   -0.3491   -0.4062   -2.9780 H   0  0  0  0  0  0  0  0  0  0  0  0
   -0.4041    1.3403   -3.1895 H   0  0  0  0  0  0  0  0  0  0  0  0
    1.5346    0.5160   -3.4275 C   0  0  0  0  0  0  0  0  0  0  0  0
    2.5519    0.7270   -2.7918 O   0  0  0  0  0  0  0  0  0  0  0  0
    1.5301    0.2577   -4.7549 O   0  0  0  0  0  0  0  0  0  0  0  0
    2.4607    0.2785   -5.0278 H   0  0  0  0  0  0  0  0  0  0  0  0
    0.8068   -0.3119    0.9989 C   0  0  0  0  0  0  0  0  0  0  0  0
    2.0054   -0.3417    1.2400 O   0  0  0  0  0  0  0  0  0  0  0  0
   -0.0549    0.2039    1.9507 N   0  0  0  0  0  0  0  0  0  0  0  0
   -1.0447    0.1055    1.7522 H   0  0  0  0  0  0  0  0  0  0  0  0
    0.3613    0.4750    3.3212 C   0  0  0  0  0  0  0  0  0  0  0  0
    1.1789    1.2035    3.3370 H   0  0  0  0  0  0  0  0  0  0  0  0
   -0.4741    0.8840    3.8971 H   0  0  0  0  0  0  0  0  0  0  0  0
    0.7011   -0.4460    3.8067 H   0  0  0  0  0  0  0  0  0  0  0  0
  1  2  1  0  0  0  0
  2  3  1  0  0  0  0
  2  4  1  0  0  0  0
  2  5  1  0  0  0  0
  5  6  2  0  0  0  0
  5  7  1  0  0  0  0
  7  8  1  0  0  0  0
  7  9  1  0  0  0  0
  9 10  1  0  0  0  0
  9 11  1  0  0  0  0
  9 21  1  0  0  0  0
 11 12  1  0  0  0  0
 11 13  1  0  0  0  0
 11 14  1  0  0  0  0
 14 15  1  0  0  0  0
 14 16  1  0  0  0  0
 14 17  1  0  0  0  0
 17 18  2  0  0  0  0
 17 19  1  0  0  0  0
 19 20  1  0  0  0  0
 21 22  2  0  0  0  0
 21 23  1  0  0  0  0
 23 24  1  0  0  0  0
 23 25  1  0  0  0  0
 25 26  1  0  0  0  0
 25 27  1  0  0  0  0
 25 28  1  0  0  0  0
M  END
$$$$

  -OEChem-02102214123D

 28 27  0     1  0  0  0  0  0999 V2000
   -2.6811   -4.1213    0.2138 H   0  0  0  0  0  0  0  0  0  0  0  0
   -2.6391   -3.1534   -0.2942 C   0  0  0  0  0  0  0  0  0  0  0  0
   -3.4588   -2.5299    0.0706 H   0  0  0  0  0  0  0  0  0  0  0  0
   -2.7612   -3.3150   -1.3681 H   0  0  0  0  0  0  0  0  0  0  0  0
   -1.3088   -2.4781   -0.0191 C   0  0  0  0  0  0  0  0  0  0  0  0
   -0.4721   -3.0428    0.6611 O   0  0  0  0  0  0  0  0  0  0  0  0
   -1.0623   -1.2193   -0.5318 N   0  0  0  0  0  0  0  0  0  0  0  0
   -1.7557   -0.8580   -1.1796 H   0  0  0  0  0  0  0  0  0  0  0  0
    0.2578   -0.5587   -0.4969 C   0  0  1  0  0  0  0  0  0  0  0  0
    0.9840   -1.1912   -1.0196 H   0  0  0  0  0  0  0  0  0  0  0  0
    0.1452    0.8028   -1.2102 C   0  0  0  0  0  0  0  0  0  0  0  0
   -0.7429    1.3298   -0.8462 H   0  0  0  0  0  0  0  0  0  0  0  0
    1.0136    1.4234   -0.9558 H   0  0  0  0  0  0  0  0  0  0  0  0
    0.0735    0.6610   -2.7426 C   0  0  0  0  0  0  0  0  0  0  0  0
   -0.6533   -0.1044   -3.0262 H   0  0  0  0  0  0  0  0  0  0  0  0
   -0.2625    1.6084   -3.1744 H   0  0  0  0  0  0  0  0  0  0  0  0
    1.4299    0.3188   -3.3500 C   0  0  0  0  0  0  0  0  0  0  0  0
    2.2183    1.2241   -3.5577 O   0  0  0  0  0  0  0  0  0  0  0  0
    1.6878   -0.9804   -3.6242 O   0  0  0  0  0  0  0  0  0  0  0  0
    2.5950   -1.0039   -3.9669 H   0  0  0  0  0  0  0  0  0  0  0  0
    0.8238   -0.3400    0.9251 C   0  0  0  0  0  0  0  0  0  0  0  0
    2.0344   -0.3549    1.1025 O   0  0  0  0  0  0  0  0  0  0  0  0
    0.0042    0.1492    1.9261 N   0  0  0  0  0  0  0  0  0  0  0  0
   -0.9926    0.0404    1.7728 H   0  0  0  0  0  0  0  0  0  0  0  0
    0.4809    0.3912    3.2820 C   0  0  0  0  0  0  0  0  0  0  0  0
    1.2977    1.1208    3.2774 H   0  0  0  0  0  0  0  0  0  0  0  0
   -0.3286    0.7861    3.9032 H   0  0  0  0  0  0  0  0  0  0  0  0
    0.8430   -0.5397    3.7313 H   0  0  0  0  0  0  0  0  0  0  0  0
  1  2  1  0  0  0  0
  2  3  1  0  0  0  0
  2  4  1  0  0  0  0
  2  5  1  0  0  0  0
  5  6  2  0  0  0  0
  5  7  1  0  0  0  0
  7  8  1  0  0  0  0
  7  9  1  0  0  0  0
  9 10  1  0  0  0  0
  9 11  1  0  0  0  0
  9 21  1  0  0  0  0
 11 12  1  0  0  0  0
 11 13  1  0  0  0  0
 11 14  1  0  0  0  0
 14 15  1  0  0  0  0
 14 16  1  0  0  0  0
 14 17  1  0  0  0  0
 17 18  2  0  0  0  0
 17 19  1  0  0  0  0
 19 20  1  0  0  0  0
 21 22  2  0  0  0  0
 21 23  1  0  0  0  0
 23 24  1  0  0  0  0
 23 25  1  0  0  0  0
 25 26  1  0  0  0  0
 25 27  1  0  0  0  0
 25 28  1  0  0  0  0
M  END
$$$$

  -OEChem-02102214123D

 28 27  0     1  0  0  0  0  0999 V2000
   -2.6868   -4.1208    0.1947 H   0  0  0  0  0  0  0  0  0  0  0  0
   -2.6270   -3.1578   -0.3206 C   0  0  0  0  0  0  0  0  0  0  0  0
   -3.4567   -2.5295    0.0117 H   0  0  0  0  0  0  0  0  0  0  0  0
   -2.7154   -3.3297   -1.3960 H   0  0  0  0  0  0  0  0  0  0  0  0
   -1.3050   -2.4816   -0.0104 C   0  0  0  0  0  0  0  0  0  0  0  0
   -0.4899   -3.0412    0.6997 O   0  0  0  0  0  0  0  0  0  0  0  0
   -1.0413   -1.2289   -0.5291 N   0  0  0  0  0  0  0  0  0  0  0  0
   -1.7117   -0.8803   -1.2072 H   0  0  0  0  0  0  0  0  0  0  0  0
    0.2813   -0.5758   -0.4754 C   0  0  1  0  0  0  0  0  0  0  0  0
    1.0157   -1.2169   -0.9740 H   0  0  0  0  0  0  0  0  0  0  0  0
    0.1761    0.7839   -1.1966 C   0  0  0  0  0  0  0  0  0  0  0  0
   -0.7034    1.3267   -0.8348 H   0  0  0  0  0  0  0  0  0  0  0  0
    1.0553    1.3874   -0.9397 H   0  0  0  0  0  0  0  0  0  0  0  0
    0.1202    0.6620   -2.7327 C   0  0  0  0  0  0  0  0  0  0  0  0
   -0.7667    0.0960   -3.0286 H   0  0  0  0  0  0  0  0  0  0  0  0
    0.0316    1.6614   -3.1690 H   0  0  0  0  0  0  0  0  0  0  0  0
    1.3515   -0.0146   -3.3265 C   0  0  0  0  0  0  0  0  0  0  0  0
    2.3608    0.6494   -3.4801 O   0  0  0  0  0  0  0  0  0  0  0  0
    1.2577   -1.3255   -3.6486 O   0  0  0  0  0  0  0  0  0  0  0  0
    2.1347   -1.5795   -3.9770 H   0  0  0  0  0  0  0  0  0  0  0  0
    0.8211   -0.3484    0.9557 C   0  0  0  0  0  0  0  0  0  0  0  0
    2.0278   -0.3683    1.1570 O   0  0  0  0  0  0  0  0  0  0  0  0
   -0.0144    0.1539    1.9368 N   0  0  0  0  0  0  0  0  0  0  0  0
   -1.0091    0.0513    1.7652 H   0  0  0  0  0  0  0  0  0  0  0  0
    0.4387    0.4093    3.2985 C   0  0  0  0  0  0  0  0  0  0  0  0
    1.2539    1.1407    3.3006 H   0  0  0  0  0  0  0  0  0  0  0  0
   -0.3821    0.8078    3.9023 H   0  0  0  0  0  0  0  0  0  0  0  0
    0.7956   -0.5164    3.7625 H   0  0  0  0  0  0  0  0  0  0  0  0
  1  2  1  0  0  0  0
  2  3  1  0  0  0  0
  2  4  1  0  0  0  0
  2  5  1  0  0  0  0
  5  6  2  0  0  0  0
  5  7  1  0  0  0  0
  7  8  1  0  0  0  0
  7  9  1  0  0  0  0
  9 10  1  0  0  0  0
  9 11  1  0  0  0  0
  9 21  1  0  0  0  0
 11 12  1  0  0  0  0
 11 13  1  0  0  0  0
 11 14  1  0  0  0  0
 14 15  1  0  0  0  0
 14 16  1  0  0  0  0
 14 17  1  0  0  0  0
 17 18  2  0  0  0  0
 17 19  1  0  0  0  0
 19 20  1  0  0  0  0
 21 22  2  0  0  0  0
 21 23  1  0  0  0  0
 23 24  1  0  0  0  0
 23 25  1  0  0  0  0
 25 26  1  0  0  0  0
 25 27  1  0  0  0  0
 25 28  1  0  0  0  0
M  END
$$$$

  -OEChem-02102214123D

 28 27  0     1  0  0  0  0  0999 V2000
   -2.6732   -4.1420    0.1413 H   0  0  0  0  0  0  0  0  0  0  0  0
   -2.6199   -3.1610   -0.3394 C   0  0  0  0  0  0  0  0  0  0  0  0
   -3.4637   -2.5558    0.0003 H   0  0  0  0  0  0  0  0  0  0  0  0
   -2.6882   -3.2973   -1.4214 H   0  0  0  0  0  0  0  0  0  0  0  0
   -1.3138   -2.4765    0.0154 C   0  0  0  0  0  0  0  0  0  0  0  0
   -0.5312   -3.0206    0.7726 O   0  0  0  0  0  0  0  0  0  0  0  0
   -1.0276   -1.2361   -0.5206 N   0  0  0  0  0  0  0  0  0  0  0  0
   -1.6594   -0.9198   -1.2499 H   0  0  0  0  0  0  0  0  0  0  0  0
    0.3013   -0.5982   -0.4515 C   0  0  1  0  0  0  0  0  0  0  0  0
    1.0416   -1.2543   -0.9198 H   0  0  0  0  0  0  0  0  0  0  0  0
    0.2170    0.7553   -1.1899 C   0  0  0  0  0  0  0  0  0  0  0  0
   -0.6493    1.3231   -0.8345 H   0  0  0  0  0  0  0  0  0  0  0  0
    1.1106    1.3355   -0.9291 H   0  0  0  0  0  0  0  0  0  0  0  0
    0.1789    0.6502   -2.7304 C   0  0  0  0  0  0  0  0  0  0  0  0
   -0.8177    0.3265   -3.0411 H   0  0  0  0  0  0  0  0  0  0  0  0
    0.3477    1.6408   -3.1630 H   0  0  0  0  0  0  0  0  0  0  0  0
    1.1928   -0.3225   -3.3237 C   0  0  0  0  0  0  0  0  0  0  0  0
    2.3340    0.0630   -3.5003 O   0  0  0  0  0  0  0  0  0  0  0  0
    0.7678   -1.5737   -3.6170 O   0  0  0  0  0  0  0  0  0  0  0  0
    1.5477   -2.0418   -3.9548 H   0  0  0  0  0  0  0  0  0  0  0  0
    0.8125   -0.3532    0.9877 C   0  0  0  0  0  0  0  0  0  0  0  0
    2.0141   -0.3846    1.2158 O   0  0  0  0  0  0  0  0  0  0  0  0
   -0.0377    0.1752    1.9423 N   0  0  0  0  0  0  0  0  0  0  0  0
   -1.0291    0.0698    1.7540 H   0  0  0  0  0  0  0  0  0  0  0  0
    0.3892    0.4385    3.3110 C   0  0  0  0  0  0  0  0  0  0  0  0
    1.2101    1.1634    3.3244 H   0  0  0  0  0  0  0  0  0  0  0  0
   -0.4404    0.8482    3.8949 H   0  0  0  0  0  0  0  0  0  0  0  0
    0.7288   -0.4862    3.7897 H   0  0  0  0  0  0  0  0  0  0  0  0
  1  2  1  0  0  0  0
  2  3  1  0  0  0  0
  2  4  1  0  0  0  0
  2  5  1  0  0  0  0
  5  6  2  0  0  0  0
  5  7  1  0  0  0  0
  7  8  1  0  0  0  0
  7  9  1  0  0  0  0
  9 10  1  0  0  0  0
  9 11  1  0  0  0  0
  9 21  1  0  0  0  0
 11 12  1  0  0  0  0
 11 13  1  0  0  0  0
 11 14  1  0  0  0  0
 14 15  1  0  0  0  0
 14 16  1  0  0  0  0
 14 17  1  0  0  0  0
 17 18  2  0  0  0  0
 17 19  1  0  0  0  0
 19 20  1  0  0  0  0
 21 22  2  0  0  0  0
 21 23  1  0  0  0  0
 23 24  1  0  0  0  0
 23 25  1  0  0  0  0
 25 26  1  0  0  0  0
 25 27  1  0  0  0  0
 25 28  1  0  0  0  0
M  END
$$$$

  -OEChem-02102214123D

 28 27  0     1  0  0  0  0  0999 V2000
   -2.6778   -4.1468    0.1296 H   0  0  0  0  0  0  0  0  0  0  0  0
   -2.6196   -3.1625   -0.3441 C   0  0  0  0  0  0  0  0  0  0  0  0
   -3.4732   -2.5640   -0.0174 H   0  0  0  0  0  0  0  0  0  0  0  0
   -2.6661   -3.2920   -1.4282 H   0  0  0  0  0  0  0  0  0  0  0  0
   -1.3240   -2.4738    0.0407 C   0  0  0  0  0  0  0  0  0  0  0  0
   -0.5673   -3.0062    0.8320 O   0  0  0  0  0  0  0  0  0  0  0  0
   -1.0166   -1.2461   -0.5122 N   0  0  0  0  0  0  0  0  0  0  0  0
   -1.6137   -0.9593   -1.2823 H   0  0  0  0  0  0  0  0  0  0  0  0
    0.3184   -0.6224   -0.4321 C   0  0  1  0  0  0  0  0  0  0  0  0
    1.0638   -1.2902   -0.8757 H   0  0  0  0  0  0  0  0  0  0  0  0
    0.2554    0.7229   -1.1884 C   0  0  0  0  0  0  0  0  0  0  0  0
   -0.6005    1.3112   -0.8411 H   0  0  0  0  0  0  0  0  0  0  0  0
    1.1578    1.2860   -0.9219 H   0  0  0  0  0  0  0  0  0  0  0  0
    0.2333    0.6265   -2.7328 C   0  0  0  0  0  0  0  0  0  0  0  0
   -0.8076    0.5720   -3.0622 H   0  0  0  0  0  0  0  0  0  0  0  0
    0.6565    1.5424   -3.1561 H   0  0  0  0  0  0  0  0  0  0  0  0
    0.9590   -0.5753   -3.3301 C   0  0  0  0  0  0  0  0  0  0  0  0
    2.1390   -0.4642   -3.6078 O   0  0  0  0  0  0  0  0  0  0  0  0
    0.2462   -1.7116   -3.5185 O   0  0  0  0  0  0  0  0  0  0  0  0
    0.8753   -2.3540   -3.8846 H   0  0  0  0  0  0  0  0  0  0  0  0
    0.8051   -0.3604    1.0129 C   0  0  0  0  0  0  0  0  0  0  0  0
    2.0019   -0.3973    1.2646 O   0  0  0  0  0  0  0  0  0  0  0  0
   -0.0578    0.1928    1.9416 N   0  0  0  0  0  0  0  0  0  0  0  0
   -1.0460    0.0906    1.7359 H   0  0  0  0  0  0  0  0  0  0  0  0
    0.3438    0.4695    3.3151 C   0  0  0  0  0  0  0  0  0  0  0  0
    1.1697    1.1884    3.3357 H   0  0  0  0  0  0  0  0  0  0  0  0
   -0.4942    0.8924    3.8772 H   0  0  0  0  0  0  0  0  0  0  0  0
    0.6667   -0.4515    3.8119 H   0  0  0  0  0  0  0  0  0  0  0  0
  1  2  1  0  0  0  0
  2  3  1  0  0  0  0
  2  4  1  0  0  0  0
  2  5  1  0  0  0  0
  5  6  2  0  0  0  0
  5  7  1  0  0  0  0
  7  8  1  0  0  0  0
  7  9  1  0  0  0  0
  9 10  1  0  0  0  0
  9 11  1  0  0  0  0
  9 21  1  0  0  0  0
 11 12  1  0  0  0  0
 11 13  1  0  0  0  0
 11 14  1  0  0  0  0
 14 15  1  0  0  0  0
 14 16  1  0  0  0  0
 14 17  1  0  0  0  0
 17 18  2  0  0  0  0
 17 19  1  0  0  0  0
 19 20  1  0  0  0  0
 21 22  2  0  0  0  0
 21 23  1  0  0  0  0
 23 24  1  0  0  0  0
 23 25  1  0  0  0  0
 25 26  1  0  0  0  0
 25 27  1  0  0  0  0
 25 28  1  0  0  0  0
M  END
$$$$

  -OEChem-02102214123D

 28 27  0     1  0  0  0  0  0999 V2000
   -2.7000   -4.1430    0.1456 H   0  0  0  0  0  0  0  0  0  0  0  0
   -2.6289   -3.1654   -0.3400 C   0  0  0  0  0  0  0  0  0  0  0  0
   -3.4898   -2.5615   -0.0435 H   0  0  0  0  0  0  0  0  0  0  0  0
   -2.6477   -3.3095   -1.4230 H   0  0  0  0  0  0  0  0  0  0  0  0
   -1.3435   -2.4713    0.0686 C   0  0  0  0  0  0  0  0  0  0  0  0
   -0.6113   -2.9881    0.8924 O   0  0  0  0  0  0  0  0  0  0  0  0
   -1.0164   -1.2574   -0.5025 N   0  0  0  0  0  0  0  0  0  0  0  0
   -1.5792   -1.0045   -1.3108 H   0  0  0  0  0  0  0  0  0  0  0  0
    0.3241   -0.6461   -0.4143 C   0  0  1  0  0  0  0  0  0  0  0  0
    1.0706   -1.3256   -0.8392 H   0  0  0  0  0  0  0  0  0  0  0  0
    0.2849    0.6870   -1.1939 C   0  0  0  0  0  0  0  0  0  0  0  0
   -0.5716    1.2851   -0.8651 H   0  0  0  0  0  0  0  0  0  0  0  0
    1.1858    1.2487   -0.9196 H   0  0  0  0  0  0  0  0  0  0  0  0
    0.2824    0.5805   -2.7400 C   0  0  0  0  0  0  0  0  0  0  0  0
   -0.7247    0.8070   -3.1001 H   0  0  0  0  0  0  0  0  0  0  0  0
    0.9478    1.3453   -3.1522 H   0  0  0  0  0  0  0  0  0  0  0  0
    0.6736   -0.7748   -3.3225 C   0  0  0  0  0  0  0  0  0  0  0  0
    1.8348   -0.9616   -3.6360 O   0  0  0  0  0  0  0  0  0  0  0  0
   -0.3005   -1.7067   -3.4610 O   0  0  0  0  0  0  0  0  0  0  0  0
    0.1419   -2.4837   -3.8399 H   0  0  0  0  0  0  0  0  0  0  0  0
    0.7953   -0.3618    1.0319 C   0  0  0  0  0  0  0  0  0  0  0  0
    1.9892   -0.4015    1.2969 O   0  0  0  0  0  0  0  0  0  0  0  0
   -0.0727    0.2178    1.9395 N   0  0  0  0  0  0  0  0  0  0  0  0
   -1.0597    0.1161    1.7265 H   0  0  0  0  0  0  0  0  0  0  0  0
    0.3173    0.5203    3.3111 C   0  0  0  0  0  0  0  0  0  0  0  0
    1.1452    1.2371    3.3254 H   0  0  0  0  0  0  0  0  0  0  0  0
   -0.5246    0.9566    3.8569 H   0  0  0  0  0  0  0  0  0  0  0  0
    0.6327   -0.3918    3.8288 H   0  0  0  0  0  0  0  0  0  0  0  0
  1  2  1  0  0  0  0
  2  3  1  0  0  0  0
  2  4  1  0  0  0  0
  2  5  1  0  0  0  0
  5  6  2  0  0  0  0
  5  7  1  0  0  0  0
  7  8  1  0  0  0  0
  7  9  1  0  0  0  0
  9 10  1  0  0  0  0
  9 11  1  0  0  0  0
  9 21  1  0  0  0  0
 11 12  1  0  0  0  0
 11 13  1  0  0  0  0
 11 14  1  0  0  0  0
 14 15  1  0  0  0  0
 14 16  1  0  0  0  0
 14 17  1  0  0  0  0
 17 18  2  0  0  0  0
 17 19  1  0  0  0  0
 19 20  1  0  0  0  0
 21 22  2  0  0  0  0
 21 23  1  0  0  0  0
 23 24  1  0  0  0  0
 23 25  1  0  0  0  0
 25 26  1  0  0  0  0
 25 27  1  0  0  0  0
 25 28  1  0  0  0  0
M  END
$$$$

  -OEChem-02102214123D

 28 27  0     1  0  0  0  0  0999 V2000
   -2.6406   -4.2002    0.4466 H   0  0  0  0  0  0  0  0  0  0  0  0
   -2.5934   -3.2781   -0.1397 C   0  0  0  0  0  0  0  0  0  0  0  0
   -3.4716   -2.6700    0.0894 H   0  0  0  0  0  0  0  0  0  0  0  0
   -2.6035   -3.5351   -1.2021 H   0  0  0  0  0  0  0  0  0  0  0  0
   -1.3280   -2.5112    0.1931 C   0  0  0  0  0  0  0  0  0  0  0  0
   -0.5238   -2.9789    0.9790 O   0  0  0  0  0  0  0  0  0  0  0  0
   -1.0981   -1.2910   -0.4106 N   0  0  0  0  0  0  0  0  0  0  0  0
   -1.7174   -1.0963   -1.1960 H   0  0  0  0  0  0  0  0  0  0  0  0
    0.2253   -0.6379   -0.4492 C   0  0  1  0  0  0  0  0  0  0  0  0
    0.9476   -1.2967   -0.9437 H   0  0  0  0  0  0  0  0  0  0  0  0
    0.0877    0.6887   -1.2293 C   0  0  0  0  0  0  0  0  0  0  0  0
   -0.7668    1.2482   -0.8340 H   0  0  0  0  0  0  0  0  0  0  0  0
    0.9803    1.2926   -1.0269 H   0  0  0  0  0  0  0  0  0  0  0  0
   -0.0455    0.5761   -2.7707 C   0  0  0  0  0  0  0  0  0  0  0  0
   -0.9764    1.0591   -3.0818 H   0  0  0  0  0  0  0  0  0  0  0  0
    0.7728    1.1354   -3.2337 H   0  0  0  0  0  0  0  0  0  0  0  0
   -0.0280   -0.8363   -3.3498 C   0  0  0  0  0  0  0  0  0  0  0  0
   -1.0776   -1.4612   -3.3648 O   0  0  0  0  0  0  0  0  0  0  0  0
    1.1483   -1.3287   -3.7992 O   0  0  0  0  0  0  0  0  0  0  0  0
    0.9701   -2.2294   -4.1104 H   0  0  0  0  0  0  0  0  0  0  0  0
    0.8198   -0.3307    0.9458 C   0  0  0  0  0  0  0  0  0  0  0  0
    2.0343   -0.3326    1.0977 O   0  0  0  0  0  0  0  0  0  0  0  0
    0.0208    0.2270    1.9272 N   0  0  0  0  0  0  0  0  0  0  0  0
   -0.9776    0.0921    1.8035 H   0  0  0  0  0  0  0  0  0  0  0  0
    0.5218    0.5388    3.2599 C   0  0  0  0  0  0  0  0  0  0  0  0
    1.3397    1.2648    3.2028 H   0  0  0  0  0  0  0  0  0  0  0  0
   -0.2761    0.9677    3.8734 H   0  0  0  0  0  0  0  0  0  0  0  0
    0.8898   -0.3682    3.7513 H   0  0  0  0  0  0  0  0  0  0  0  0
  1  2  1  0  0  0  0
  2  3  1  0  0  0  0
  2  4  1  0  0  0  0
  2  5  1  0  0  0  0
  5  6  2  0  0  0  0
  5  7  1  0  0  0  0
  7  8  1  0  0  0  0
  7  9  1  0  0  0  0
  9 10  1  0  0  0  0
  9 11  1  0  0  0  0
  9 21  1  0  0  0  0
 11 12  1  0  0  0  0
 11 13  1  0  0  0  0
 11 14  1  0  0  0  0
 14 15  1  0  0  0  0
 14 16  1  0  0  0  0
 14 17  1  0  0  0  0
 17 18  2  0  0  0  0
 17 19  1  0  0  0  0
 19 20  1  0  0  0  0
 21 22  2  0  0  0  0
 21 23  1  0  0  0  0
 23 24  1  0  0  0  0
 23 25  1  0  0  0  0
 25 26  1  0  0  0  0
 25 27  1  0  0  0  0
 25 28  1  0  0  0  0
M  END
$$$$

  -OEChem-02102214123D

 28 27  0     1  0  0  0  0  0999 V2000
   -2.8062   -4.0627    0.3519 H   0  0  0  0  0  0  0  0  0  0  0  0
   -2.6515   -3.1766   -0.2705 C   0  0  0  0  0  0  0  0  0  0  0  0
   -3.4947   -2.4963   -0.1290 H   0  0  0  0  0  0  0  0  0  0  0  0
   -2.6114   -3.4847   -1.3180 H   0  0  0  0  0  0  0  0  0  0  0  0
   -1.3571   -2.4868    0.1159 C   0  0  0  0  0  0  0  0  0  0  0  0
   -0.6301   -2.9870    0.9541 O   0  0  0  0  0  0  0  0  0  0  0  0
   -1.0220   -1.2890   -0.4830 N   0  0  0  0  0  0  0  0  0  0  0  0
   -1.5929   -1.0378   -1.2892 H   0  0  0  0  0  0  0  0  0  0  0  0
    0.3179   -0.6738   -0.4014 C   0  0  1  0  0  0  0  0  0  0  0  0
    1.0625   -1.3659   -0.8122 H   0  0  0  0  0  0  0  0  0  0  0  0
    0.3160    0.6329   -1.2248 C   0  0  0  0  0  0  0  0  0  0  0  0
   -0.5702    1.2131   -0.9456 H   0  0  0  0  0  0  0  0  0  0  0  0
    1.1880    1.2309   -0.9342 H   0  0  0  0  0  0  0  0  0  0  0  0
    0.3497    0.4831   -2.7675 C   0  0  0  0  0  0  0  0  0  0  0  0
   -0.3417    1.2054   -3.2100 H   0  0  0  0  0  0  0  0  0  0  0  0
    1.3537    0.7507   -3.1126 H   0  0  0  0  0  0  0  0  0  0  0  0
    0.0253   -0.8987   -3.3322 C   0  0  0  0  0  0  0  0  0  0  0  0
    0.9385   -1.5909   -3.7424 O   0  0  0  0  0  0  0  0  0  0  0  0
   -1.2757   -1.2796   -3.3706 O   0  0  0  0  0  0  0  0  0  0  0  0
   -1.2706   -2.1408   -3.8203 H   0  0  0  0  0  0  0  0  0  0  0  0
    0.7773   -0.3514    1.0399 C   0  0  0  0  0  0  0  0  0  0  0  0
    1.9698   -0.3765    1.3139 O   0  0  0  0  0  0  0  0  0  0  0  0
   -0.1003    0.2505    1.9232 N   0  0  0  0  0  0  0  0  0  0  0  0
   -1.0847    0.1388    1.7035 H   0  0  0  0  0  0  0  0  0  0  0  0
    0.2752    0.5871    3.2909 C   0  0  0  0  0  0  0  0  0  0  0  0
    1.1028    1.3045    3.2966 H   0  0  0  0  0  0  0  0  0  0  0  0
   -0.5726    1.0363    3.8166 H   0  0  0  0  0  0  0  0  0  0  0  0
    0.5856   -0.3119    3.8343 H   0  0  0  0  0  0  0  0  0  0  0  0
  1  2  1  0  0  0  0
  2  3  1  0  0  0  0
  2  4  1  0  0  0  0
  2  5  1  0  0  0  0
  5  6  2  0  0  0  0
  5  7  1  0  0  0  0
  7  8  1  0  0  0  0
  7  9  1  0  0  0  0
  9 10  1  0  0  0  0
  9 11  1  0  0  0  0
  9 21  1  0  0  0  0
 11 12  1  0  0  0  0
 11 13  1  0  0  0  0
 11 14  1  0  0  0  0
 14 15  1  0  0  0  0
 14 16  1  0  0  0  0
 14 17  1  0  0  0  0
 17 18  2  0  0  0  0
 17 19  1  0  0  0  0
 19 20  1  0  0  0  0
 21 22  2  0  0  0  0
 21 23  1  0  0  0  0
 23 24  1  0  0  0  0
 23 25  1  0  0  0  0
 25 26  1  0  0  0  0
 25 27  1  0  0  0  0
 25 28  1  0  0  0  0
M  END
$$$$

  -OEChem-02102214123D

 28 27  0     1  0  0  0  0  0999 V2000
   -2.6315   -4.2157    0.3920 H   0  0  0  0  0  0  0  0  0  0  0  0
   -2.6230   -3.2491   -0.1197 C   0  0  0  0  0  0  0  0  0  0  0  0
   -3.4590   -2.6488    0.2471 H   0  0  0  0  0  0  0  0  0  0  0  0
   -2.7473   -3.4172   -1.1923 H   0  0  0  0  0  0  0  0  0  0  0  0
   -1.3141   -2.5296    0.1429 C   0  0  0  0  0  0  0  0  0  0  0  0
   -0.4666   -3.0456    0.8486 O   0  0  0  0  0  0  0  0  0  0  0  0
   -1.0939   -1.2918   -0.4260 N   0  0  0  0  0  0  0  0  0  0  0  0
   -1.7770   -1.0111   -1.1310 H   0  0  0  0  0  0  0  0  0  0  0  0
    0.2152   -0.6093   -0.4482 C   0  0  1  0  0  0  0  0  0  0  0  0
    0.9411   -1.2541   -0.9571 H   0  0  0  0  0  0  0  0  0  0  0  0
    0.0990    0.7218   -1.2252 C   0  0  0  0  0  0  0  0  0  0  0  0
   -0.7886    1.2501   -0.8611 H   0  0  0  0  0  0  0  0  0  0  0  0
    0.9642    1.3516   -0.9865 H   0  0  0  0  0  0  0  0  0  0  0  0
    0.0122    0.6113   -2.7686 C   0  0  0  0  0  0  0  0  0  0  0  0
   -0.5118    1.4859   -3.1643 H   0  0  0  0  0  0  0  0  0  0  0  0
    1.0322    0.6431   -3.1638 H   0  0  0  0  0  0  0  0  0  0  0  0
   -0.6433   -0.6477   -3.3298 C   0  0  0  0  0  0  0  0  0  0  0  0
   -1.8409   -0.8078   -3.1459 O   0  0  0  0  0  0  0  0  0  0  0  0
    0.1399   -1.5307   -3.9905 O   0  0  0  0  0  0  0  0  0  0  0  0
   -0.4360   -2.2566   -4.2738 H   0  0  0  0  0  0  0  0  0  0  0  0
    0.8022   -0.3234    0.9534 C   0  0  0  0  0  0  0  0  0  0  0  0
    2.0165   -0.3012    1.1055 O   0  0  0  0  0  0  0  0  0  0  0  0
   -0.0079    0.1931    1.9481 N   0  0  0  0  0  0  0  0  0  0  0  0
   -1.0048    0.0533    1.8188 H   0  0  0  0  0  0  0  0  0  0  0  0
    0.4883    0.4935    3.2854 C   0  0  0  0  0  0  0  0  0  0  0  0
    1.2903    1.2380    3.2397 H   0  0  0  0  0  0  0  0  0  0  0  0
   -0.3174    0.8949    3.9074 H   0  0  0  0  0  0  0  0  0  0  0  0
    0.8768   -0.4132    3.7611 H   0  0  0  0  0  0  0  0  0  0  0  0
  1  2  1  0  0  0  0
  2  3  1  0  0  0  0
  2  4  1  0  0  0  0
  2  5  1  0  0  0  0
  5  6  2  0  0  0  0
  5  7  1  0  0  0  0
  7  8  1  0  0  0  0
  7  9  1  0  0  0  0
  9 10  1  0  0  0  0
  9 11  1  0  0  0  0
  9 21  1  0  0  0  0
 11 12  1  0  0  0  0
 11 13  1  0  0  0  0
 11 14  1  0  0  0  0
 14 15  1  0  0  0  0
 14 16  1  0  0  0  0
 14 17  1  0  0  0  0
 17 18  2  0  0  0  0
 17 19  1  0  0  0  0
 19 20  1  0  0  0  0
 21 22  2  0  0  0  0
 21 23  1  0  0  0  0
 23 24  1  0  0  0  0
 23 25  1  0  0  0  0
 25 26  1  0  0  0  0
 25 27  1  0  0  0  0
 25 28  1  0  0  0  0
M  END
$$$$

  -OEChem-02102214123D

 28 27  0     1  0  0  0  0  0999 V2000
   -2.6466   -4.2050    0.3489 H   0  0  0  0  0  0  0  0  0  0  0  0
   -2.6428   -3.2186   -0.1234 C   0  0  0  0  0  0  0  0  0  0  0  0
   -3.4522   -2.6208    0.3022 H   0  0  0  0  0  0  0  0  0  0  0  0
   -2.8147   -3.3410   -1.1955 H   0  0  0  0  0  0  0  0  0  0  0  0
   -1.3115   -2.5314    0.1117 C   0  0  0  0  0  0  0  0  0  0  0  0
   -0.4512   -3.0789    0.7771 O   0  0  0  0  0  0  0  0  0  0  0  0
   -1.0841   -1.2866   -0.4377 N   0  0  0  0  0  0  0  0  0  0  0  0
   -1.7986   -0.9474   -1.0832 H   0  0  0  0  0  0  0  0  0  0  0  0
    0.2216   -0.6002   -0.4453 C   0  0  1  0  0  0  0  0  0  0  0  0
    0.9495   -1.2418   -0.9549 H   0  0  0  0  0  0  0  0  0  0  0  0
    0.1178    0.7354   -1.2157 C   0  0  0  0  0  0  0  0  0  0  0  0
   -0.7695    1.2715   -0.8618 H   0  0  0  0  0  0  0  0  0  0  0  0
    0.9869    1.3563   -0.9693 H   0  0  0  0  0  0  0  0  0  0  0  0
    0.0512    0.6155   -2.7581 C   0  0  0  0  0  0  0  0  0  0  0  0
   -0.2277    1.5846   -3.1809 H   0  0  0  0  0  0  0  0  0  0  0  0
    1.0575    0.3835   -3.1199 H   0  0  0  0  0  0  0  0  0  0  0  0
   -0.8916   -0.4442   -3.3238 C   0  0  0  0  0  0  0  0  0  0  0  0
   -2.0625   -0.4334   -2.9729 O   0  0  0  0  0  0  0  0  0  0  0  0
   -0.3771   -1.3489   -4.1877 O   0  0  0  0  0  0  0  0  0  0  0  0
   -1.1074   -1.9286   -4.4514 H   0  0  0  0  0  0  0  0  0  0  0  0
    0.7984   -0.3315    0.9635 C   0  0  0  0  0  0  0  0  0  0  0  0
    2.0113   -0.3097    1.1257 O   0  0  0  0  0  0  0  0  0  0  0  0
   -0.0204    0.1688    1.9593 N   0  0  0  0  0  0  0  0  0  0  0  0
   -1.0169    0.0403    1.8163 H   0  0  0  0  0  0  0  0  0  0  0  0
    0.4638    0.4585    3.3034 C   0  0  0  0  0  0  0  0  0  0  0  0
    1.2690    1.2001    3.2702 H   0  0  0  0  0  0  0  0  0  0  0  0
   -0.3466    0.8591    3.9197 H   0  0  0  0  0  0  0  0  0  0  0  0
    0.8446   -0.4526    3.7770 H   0  0  0  0  0  0  0  0  0  0  0  0
  1  2  1  0  0  0  0
  2  3  1  0  0  0  0
  2  4  1  0  0  0  0
  2  5  1  0  0  0  0
  5  6  2  0  0  0  0
  5  7  1  0  0  0  0
  7  8  1  0  0  0  0
  7  9  1  0  0  0  0
  9 10  1  0  0  0  0
  9 11  1  0  0  0  0
  9 21  1  0  0  0  0
 11 12  1  0  0  0  0
 11 13  1  0  0  0  0
 11 14  1  0  0  0  0
 14 15  1  0  0  0  0
 14 16  1  0  0  0  0
 14 17  1  0  0  0  0
 17 18  2  0  0  0  0
 17 19  1  0  0  0  0
 19 20  1  0  0  0  0
 21 22  2  0  0  0  0
 21 23  1  0  0  0  0
 23 24  1  0  0  0  0
 23 25  1  0  0  0  0
 25 26  1  0  0  0  0
 25 27  1  0  0  0  0
 25 28  1  0  0  0  0
M  END
$$$$

  -OEChem-02102214123D

 28 27  0     1  0  0  0  0  0999 V2000
   -2.6544   -4.1895    0.3495 H   0  0  0  0  0  0  0  0  0  0  0  0
   -2.6494   -3.1994   -0.1151 C   0  0  0  0  0  0  0  0  0  0  0  0
   -3.4358   -2.5924    0.3396 H   0  0  0  0  0  0  0  0  0  0  0  0
   -2.8554   -3.3104   -1.1823 H   0  0  0  0  0  0  0  0  0  0  0  0
   -1.3006   -2.5355    0.0853 C   0  0  0  0  0  0  0  0  0  0  0  0
   -0.4298   -3.1030    0.7197 O   0  0  0  0  0  0  0  0  0  0  0  0
   -1.0689   -1.2868   -0.4534 N   0  0  0  0  0  0  0  0  0  0  0  0
   -1.8046   -0.9058   -1.0501 H   0  0  0  0  0  0  0  0  0  0  0  0
    0.2337   -0.5965   -0.4443 C   0  0  1  0  0  0  0  0  0  0  0  0
    0.9678   -1.2340   -0.9500 H   0  0  0  0  0  0  0  0  0  0  0  0
    0.1335    0.7425   -1.2077 C   0  0  0  0  0  0  0  0  0  0  0  0
   -0.7465    1.2939   -0.8587 H   0  0  0  0  0  0  0  0  0  0  0  0
    1.0119    1.3503   -0.9611 H   0  0  0  0  0  0  0  0  0  0  0  0
    0.0837    0.6032   -2.7475 C   0  0  0  0  0  0  0  0  0  0  0  0
    0.0518    1.6020   -3.1913 H   0  0  0  0  0  0  0  0  0  0  0  0
    1.0130    0.1306   -3.0793 H   0  0  0  0  0  0  0  0  0  0  0  0
   -1.0830   -0.1995   -3.3222 C   0  0  0  0  0  0  0  0  0  0  0  0
   -2.1834   -0.1160   -2.7962 O   0  0  0  0  0  0  0  0  0  0  0  0
   -0.8313   -0.9665   -4.4074 O   0  0  0  0  0  0  0  0  0  0  0  0
   -1.6705   -1.3849   -4.6516 H   0  0  0  0  0  0  0  0  0  0  0  0
    0.7939   -0.3355    0.9721 C   0  0  0  0  0  0  0  0  0  0  0  0
    2.0047   -0.3124    1.1488 O   0  0  0  0  0  0  0  0  0  0  0  0
   -0.0382    0.1556    1.9613 N   0  0  0  0  0  0  0  0  0  0  0  0
   -1.0332    0.0327    1.8040 H   0  0  0  0  0  0  0  0  0  0  0  0
    0.4289    0.4472    3.3107 C   0  0  0  0  0  0  0  0  0  0  0  0
    1.2341    1.1892    3.2867 H   0  0  0  0  0  0  0  0  0  0  0  0
   -0.3893    0.8484    3.9162 H   0  0  0  0  0  0  0  0  0  0  0  0
    0.8035   -0.4635    3.7898 H   0  0  0  0  0  0  0  0  0  0  0  0
  1  2  1  0  0  0  0
  2  3  1  0  0  0  0
  2  4  1  0  0  0  0
  2  5  1  0  0  0  0
  5  6  2  0  0  0  0
  5  7  1  0  0  0  0
  7  8  1  0  0  0  0
  7  9  1  0  0  0  0
  9 10  1  0  0  0  0
  9 11  1  0  0  0  0
  9 21  1  0  0  0  0
 11 12  1  0  0  0  0
 11 13  1  0  0  0  0
 11 14  1  0  0  0  0
 14 15  1  0  0  0  0
 14 16  1  0  0  0  0
 14 17  1  0  0  0  0
 17 18  2  0  0  0  0
 17 19  1  0  0  0  0
 19 20  1  0  0  0  0
 21 22  2  0  0  0  0
 21 23  1  0  0  0  0
 23 24  1  0  0  0  0
 23 25  1  0  0  0  0
 25 26  1  0  0  0  0
 25 27  1  0  0  0  0
 25 28  1  0  0  0  0
M  END
$$$$

  -OEChem-02102214123D

 28 27  0     1  0  0  0  0  0999 V2000
   -2.6638   -4.1741    0.3438 H   0  0  0  0  0  0  0  0  0  0  0  0
   -2.6520   -3.1812   -0.1149 C   0  0  0  0  0  0  0  0  0  0  0  0
   -3.4330   -2.5711    0.3453 H   0  0  0  0  0  0  0  0  0  0  0  0
   -2.8614   -3.2843   -1.1824 H   0  0  0  0  0  0  0  0  0  0  0  0
   -1.2976   -2.5288    0.0860 C   0  0  0  0  0  0  0  0  0  0  0  0
   -0.4333   -3.1014    0.7250 O   0  0  0  0  0  0  0  0  0  0  0  0
   -1.0540   -1.2839   -0.4561 N   0  0  0  0  0  0  0  0  0  0  0  0
   -1.7898   -0.8897   -1.0442 H   0  0  0  0  0  0  0  0  0  0  0  0
    0.2496   -0.5976   -0.4367 C   0  0  1  0  0  0  0  0  0  0  0  0
    0.9887   -1.2374   -0.9318 H   0  0  0  0  0  0  0  0  0  0  0  0
    0.1450    0.7360   -1.2063 C   0  0  0  0  0  0  0  0  0  0  0  0
   -0.7227    1.3073   -0.8590 H   0  0  0  0  0  0  0  0  0  0  0  0
    1.0339    1.3323   -0.9704 H   0  0  0  0  0  0  0  0  0  0  0  0
    0.1028    0.5644   -2.7432 C   0  0  0  0  0  0  0  0  0  0  0  0
    0.3101    1.5346   -3.2031 H   0  0  0  0  0  0  0  0  0  0  0  0
    0.9030   -0.1158   -3.0496 H   0  0  0  0  0  0  0  0  0  0  0  0
   -1.2143    0.0593   -3.3373 C   0  0  0  0  0  0  0  0  0  0  0  0
   -2.2355    0.0697   -2.6654 O   0  0  0  0  0  0  0  0  0  0  0  0
   -1.1713   -0.3757   -4.6168 O   0  0  0  0  0  0  0  0  0  0  0  0
   -2.0740   -0.6418   -4.8481 H   0  0  0  0  0  0  0  0  0  0  0  0
    0.7947   -0.3305    0.9846 C   0  0  0  0  0  0  0  0  0  0  0  0
    2.0035   -0.3113    1.1754 O   0  0  0  0  0  0  0  0  0  0  0  0
   -0.0472    0.1681    1.9620 N   0  0  0  0  0  0  0  0  0  0  0  0
   -1.0407    0.0487    1.7924 H   0  0  0  0  0  0  0  0  0  0  0  0
    0.4035    0.4516    3.3187 C   0  0  0  0  0  0  0  0  0  0  0  0
    1.2125    1.1896    3.3090 H   0  0  0  0  0  0  0  0  0  0  0  0
   -0.4206    0.8540    3.9151 H   0  0  0  0  0  0  0  0  0  0  0  0
    0.7668   -0.4631    3.7989 H   0  0  0  0  0  0  0  0  0  0  0  0
  1  2  1  0  0  0  0
  2  3  1  0  0  0  0
  2  4  1  0  0  0  0
  2  5  1  0  0  0  0
  5  6  2  0  0  0  0
  5  7  1  0  0  0  0
  7  8  1  0  0  0  0
  7  9  1  0  0  0  0
  9 10  1  0  0  0  0
  9 11  1  0  0  0  0
  9 21  1  0  0  0  0
 11 12  1  0  0  0  0
 11 13  1  0  0  0  0
 11 14  1  0  0  0  0
 14 15  1  0  0  0  0
 14 16  1  0  0  0  0
 14 17  1  0  0  0  0
 17 18  2  0  0  0  0
 17 19  1  0  0  0  0
 19 20  1  0  0  0  0
 21 22  2  0  0  0  0
 21 23  1  0  0  0  0
 23 24  1  0  0  0  0
 23 25  1  0  0  0  0
 25 26  1  0  0  0  0
 25 27  1  0  0  0  0
 25 28  1  0  0  0  0
M  END
$$$$

  -OEChem-02102214123D

 28 27  0     1  0  0  0  0  0999 V2000
   -2.6659   -4.1729    0.3283 H   0  0  0  0  0  0  0  0  0  0  0  0
   -2.6499   -3.1782   -0.1260 C   0  0  0  0  0  0  0  0  0  0  0  0
   -3.4424   -2.5731    0.3205 H   0  0  0  0  0  0  0  0  0  0  0  0
   -2.8371   -3.2776   -1.1979 H   0  0  0  0  0  0  0  0  0  0  0  0
   -1.3031   -2.5208    0.1048 C   0  0  0  0  0  0  0  0  0  0  0  0
   -0.4569   -3.0815    0.7778 O   0  0  0  0  0  0  0  0  0  0  0  0
   -1.0457   -1.2856   -0.4517 N   0  0  0  0  0  0  0  0  0  0  0  0
   -1.7605   -0.9110   -1.0777 H   0  0  0  0  0  0  0  0  0  0  0  0
    0.2621   -0.6084   -0.4270 C   0  0  1  0  0  0  0  0  0  0  0  0
    1.0041   -1.2564   -0.9070 H   0  0  0  0  0  0  0  0  0  0  0  0
    0.1532    0.7130   -1.2143 C   0  0  0  0  0  0  0  0  0  0  0  0
   -0.7093    1.2969   -0.8746 H   0  0  0  0  0  0  0  0  0  0  0  0
    1.0461    1.3075   -0.9893 H   0  0  0  0  0  0  0  0  0  0  0  0
    0.1160    0.5033   -2.7472 C   0  0  0  0  0  0  0  0  0  0  0  0
    0.5573    1.3867   -3.2175 H   0  0  0  0  0  0  0  0  0  0  0  0
    0.7379   -0.3519   -3.0262 H   0  0  0  0  0  0  0  0  0  0  0  0
   -1.2750    0.3248   -3.3625 C   0  0  0  0  0  0  0  0  0  0  0  0
   -2.2405    0.0970   -2.6481 O   0  0  0  0  0  0  0  0  0  0  0  0
   -1.3546    0.4252   -4.7087 O   0  0  0  0  0  0  0  0  0  0  0  0
   -2.2867    0.2927   -4.9394 H   0  0  0  0  0  0  0  0  0  0  0  0
    0.7964   -0.3240    0.9949 C   0  0  0  0  0  0  0  0  0  0  0  0
    2.0035   -0.3148    1.1972 O   0  0  0  0  0  0  0  0  0  0  0  0
   -0.0504    0.1949    1.9574 N   0  0  0  0  0  0  0  0  0  0  0  0
   -1.0429    0.0765    1.7807 H   0  0  0  0  0  0  0  0  0  0  0  0
    0.3892    0.4858    3.3164 C   0  0  0  0  0  0  0  0  0  0  0  0
    1.2042    1.2173    3.3088 H   0  0  0  0  0  0  0  0  0  0  0  0
   -0.4376    0.8995    3.9014 H   0  0  0  0  0  0  0  0  0  0  0  0
    0.7408   -0.4276    3.8077 H   0  0  0  0  0  0  0  0  0  0  0  0
  1  2  1  0  0  0  0
  2  3  1  0  0  0  0
  2  4  1  0  0  0  0
  2  5  1  0  0  0  0
  5  6  2  0  0  0  0
  5  7  1  0  0  0  0
  7  8  1  0  0  0  0
  7  9  1  0  0  0  0
  9 10  1  0  0  0  0
  9 11  1  0  0  0  0
  9 21  1  0  0  0  0
 11 12  1  0  0  0  0
 11 13  1  0  0  0  0
 11 14  1  0  0  0  0
 14 15  1  0  0  0  0
 14 16  1  0  0  0  0
 14 17  1  0  0  0  0
 17 18  2  0  0  0  0
 17 19  1  0  0  0  0
 19 20  1  0  0  0  0
 21 22  2  0  0  0  0
 21 23  1  0  0  0  0
 23 24  1  0  0  0  0
 23 25  1  0  0  0  0
 25 26  1  0  0  0  0
 25 27  1  0  0  0  0
 25 28  1  0  0  0  0
M  END
$$$$

  -OEChem-02102214123D

 28 27  0     1  0  0  0  0  0999 V2000
   -2.6840   -4.1650    0.2952 H   0  0  0  0  0  0  0  0  0  0  0  0
   -2.6519   -3.1745   -0.1671 C   0  0  0  0  0  0  0  0  0  0  0  0
   -3.4627   -2.5673    0.2423 H   0  0  0  0  0  0  0  0  0  0  0  0
   -2.7973   -3.2843   -1.2445 H   0  0  0  0  0  0  0  0  0  0  0  0
   -1.3168   -2.5107    0.1099 C   0  0  0  0  0  0  0  0  0  0  0  0
   -0.5046   -3.0525    0.8380 O   0  0  0  0  0  0  0  0  0  0  0  0
   -1.0325   -1.2909   -0.4674 N   0  0  0  0  0  0  0  0  0  0  0  0
   -1.7081   -0.9500   -1.1536 H   0  0  0  0  0  0  0  0  0  0  0  0
    0.2856   -0.6320   -0.4293 C   0  0  1  0  0  0  0  0  0  0  0  0
    1.0312   -1.2891   -0.8905 H   0  0  0  0  0  0  0  0  0  0  0  0
    0.1720    0.6741   -1.2352 C   0  0  0  0  0  0  0  0  0  0  0  0
   -0.6959    1.2581   -0.9084 H   0  0  0  0  0  0  0  0  0  0  0  0
    1.0599    1.2802   -1.0205 H   0  0  0  0  0  0  0  0  0  0  0  0
    0.1406    0.4158   -2.7593 C   0  0  0  0  0  0  0  0  0  0  0  0
    0.8005    1.1398   -3.2464 H   0  0  0  0  0  0  0  0  0  0  0  0
    0.5223   -0.5799   -3.0018 H   0  0  0  0  0  0  0  0  0  0  0  0
   -1.2537    0.5798   -3.3620 C   0  0  0  0  0  0  0  0  0  0  0  0
   -2.2028    0.0619   -2.7911 O   0  0  0  0  0  0  0  0  0  0  0  0
   -1.3663    1.2898   -4.5074 O   0  0  0  0  0  0  0  0  0  0  0  0
   -2.3068    1.2837   -4.7421 H   0  0  0  0  0  0  0  0  0  0  0  0
    0.8020   -0.3228    0.9940 C   0  0  0  0  0  0  0  0  0  0  0  0
    2.0064   -0.3191    1.2121 O   0  0  0  0  0  0  0  0  0  0  0  0
   -0.0521    0.2306    1.9304 N   0  0  0  0  0  0  0  0  0  0  0  0
   -1.0431    0.1121    1.7456 H   0  0  0  0  0  0  0  0  0  0  0  0
    0.3726    0.5572    3.2859 C   0  0  0  0  0  0  0  0  0  0  0  0
    1.1901    1.2858    3.2678 H   0  0  0  0  0  0  0  0  0  0  0  0
   -0.4599    0.9892    3.8494 H   0  0  0  0  0  0  0  0  0  0  0  0
    0.7155   -0.3436    3.8060 H   0  0  0  0  0  0  0  0  0  0  0  0
  1  2  1  0  0  0  0
  2  3  1  0  0  0  0
  2  4  1  0  0  0  0
  2  5  1  0  0  0  0
  5  6  2  0  0  0  0
  5  7  1  0  0  0  0
  7  8  1  0  0  0  0
  7  9  1  0  0  0  0
  9 10  1  0  0  0  0
  9 11  1  0  0  0  0
  9 21  1  0  0  0  0
 11 12  1  0  0  0  0
 11 13  1  0  0  0  0
 11 14  1  0  0  0  0
 14 15  1  0  0  0  0
 14 16  1  0  0  0  0
 14 17  1  0  0  0  0
 17 18  2  0  0  0  0
 17 19  1  0  0  0  0
 19 20  1  0  0  0  0
 21 22  2  0  0  0  0
 21 23  1  0  0  0  0
 23 24  1  0  0  0  0
 23 25  1  0  0  0  0
 25 26  1  0  0  0  0
 25 27  1  0  0  0  0
 25 28  1  0  0  0  0
M  END
$$$$

  -OEChem-02102214123D

 28 27  0     1  0  0  0  0  0999 V2000
   -2.7067   -4.1381    0.2990 H   0  0  0  0  0  0  0  0  0  0  0  0
   -2.6649   -3.1521   -0.1724 C   0  0  0  0  0  0  0  0  0  0  0  0
   -3.4655   -2.5310    0.2364 H   0  0  0  0  0  0  0  0  0  0  0  0
   -2.8178   -3.2706   -1.2479 H   0  0  0  0  0  0  0  0  0  0  0  0
   -1.3196   -2.5035    0.0915 C   0  0  0  0  0  0  0  0  0  0  0  0
   -0.5092   -3.0524    0.8159 O   0  0  0  0  0  0  0  0  0  0  0  0
   -1.0243   -1.2869   -0.4880 N   0  0  0  0  0  0  0  0  0  0  0  0
   -1.7010   -0.9313   -1.1637 H   0  0  0  0  0  0  0  0  0  0  0  0
    0.2993   -0.6364   -0.4405 C   0  0  1  0  0  0  0  0  0  0  0  0
    1.0475   -1.2915   -0.9014 H   0  0  0  0  0  0  0  0  0  0  0  0
    0.1692    0.6635   -1.2466 C   0  0  0  0  0  0  0  0  0  0  0  0
   -0.7108    1.2280   -0.9172 H   0  0  0  0  0  0  0  0  0  0  0  0
    1.0429    1.2927   -1.0402 H   0  0  0  0  0  0  0  0  0  0  0  0
    0.1353    0.3782   -2.7647 C   0  0  0  0  0  0  0  0  0  0  0  0
    0.9747    0.8900   -3.2449 H   0  0  0  0  0  0  0  0  0  0  0  0
    0.2452   -0.6893   -2.9769 H   0  0  0  0  0  0  0  0  0  0  0  0
   -1.1614    0.8715   -3.3939 C   0  0  0  0  0  0  0  0  0  0  0  0
   -2.2072    0.4036   -2.9675 O   0  0  0  0  0  0  0  0  0  0  0  0
   -1.0952    1.7972   -4.3777 O   0  0  0  0  0  0  0  0  0  0  0  0
   -2.0094    1.9776   -4.6450 H   0  0  0  0  0  0  0  0  0  0  0  0
    0.8109   -0.3240    0.9836 C   0  0  0  0  0  0  0  0  0  0  0  0
    2.0140   -0.3288    1.2077 O   0  0  0  0  0  0  0  0  0  0  0  0
   -0.0431    0.2401    1.9138 N   0  0  0  0  0  0  0  0  0  0  0  0
   -1.0345    0.1339    1.7246 H   0  0  0  0  0  0  0  0  0  0  0  0
    0.3804    0.5792    3.2667 C   0  0  0  0  0  0  0  0  0  0  0  0
    1.1977    1.3077    3.2418 H   0  0  0  0  0  0  0  0  0  0  0  0
   -0.4523    1.0161    3.8262 H   0  0  0  0  0  0  0  0  0  0  0  0
    0.7233   -0.3165    3.7956 H   0  0  0  0  0  0  0  0  0  0  0  0
  1  2  1  0  0  0  0
  2  3  1  0  0  0  0
  2  4  1  0  0  0  0
  2  5  1  0  0  0  0
  5  6  2  0  0  0  0
  5  7  1  0  0  0  0
  7  8  1  0  0  0  0
  7  9  1  0  0  0  0
  9 10  1  0  0  0  0
  9 11  1  0  0  0  0
  9 21  1  0  0  0  0
 11 12  1  0  0  0  0
 11 13  1  0  0  0  0
 11 14  1  0  0  0  0
 14 15  1  0  0  0  0
 14 16  1  0  0  0  0
 14 17  1  0  0  0  0
 17 18  2  0  0  0  0
 17 19  1  0  0  0  0
 19 20  1  0  0  0  0
 21 22  2  0  0  0  0
 21 23  1  0  0  0  0
 23 24  1  0  0  0  0
 23 25  1  0  0  0  0
 25 26  1  0  0  0  0
 25 27  1  0  0  0  0
 25 28  1  0  0  0  0
M  END
$$$$

  -OEChem-02102214123D

 28 27  0     1  0  0  0  0  0999 V2000
   -2.7159   -4.1397    0.3661 H   0  0  0  0  0  0  0  0  0  0  0  0
   -2.6788   -3.1644   -0.1277 C   0  0  0  0  0  0  0  0  0  0  0  0
   -3.4691   -2.5311    0.2825 H   0  0  0  0  0  0  0  0  0  0  0  0
   -2.8527   -3.3059   -1.1973 H   0  0  0  0  0  0  0  0  0  0  0  0
   -1.3256   -2.5169    0.0979 C   0  0  0  0  0  0  0  0  0  0  0  0
   -0.4949   -3.0688    0.7963 O   0  0  0  0  0  0  0  0  0  0  0  0
   -1.0454   -1.2977   -0.4853 N   0  0  0  0  0  0  0  0  0  0  0  0
   -1.7439   -0.9302   -1.1286 H   0  0  0  0  0  0  0  0  0  0  0  0
    0.2769   -0.6421   -0.4558 C   0  0  1  0  0  0  0  0  0  0  0  0
    1.0184   -1.2977   -0.9269 H   0  0  0  0  0  0  0  0  0  0  0  0
    0.1543    0.6605   -1.2595 C   0  0  0  0  0  0  0  0  0  0  0  0
   -0.7352    1.2077   -0.9272 H   0  0  0  0  0  0  0  0  0  0  0  0
    1.0186    1.3022   -1.0517 H   0  0  0  0  0  0  0  0  0  0  0  0
    0.1110    0.3822   -2.7774 C   0  0  0  0  0  0  0  0  0  0  0  0
    1.0811    0.6248   -3.2214 H   0  0  0  0  0  0  0  0  0  0  0  0
   -0.0809   -0.6758   -2.9786 H   0  0  0  0  0  0  0  0  0  0  0  0
   -0.9789    1.1953   -3.4631 C   0  0  0  0  0  0  0  0  0  0  0  0
   -2.1389    0.9341   -3.1849 O   0  0  0  0  0  0  0  0  0  0  0  0
   -0.6121    2.1684   -4.3275 O   0  0  0  0  0  0  0  0  0  0  0  0
   -1.4338    2.5687   -4.6503 H   0  0  0  0  0  0  0  0  0  0  0  0
    0.8076   -0.3295    0.9613 C   0  0  0  0  0  0  0  0  0  0  0  0
    2.0137   -0.3289    1.1681 O   0  0  0  0  0  0  0  0  0  0  0  0
   -0.0351    0.2304    1.9043 N   0  0  0  0  0  0  0  0  0  0  0  0
   -1.0292    0.1253    1.7292 H   0  0  0  0  0  0  0  0  0  0  0  0
    0.4082    0.5814    3.2478 C   0  0  0  0  0  0  0  0  0  0  0  0
    1.2093    1.3270    3.2053 H   0  0  0  0  0  0  0  0  0  0  0  0
   -0.4221    1.0020    3.8229 H   0  0  0  0  0  0  0  0  0  0  0  0
    0.7804   -0.3058    3.7711 H   0  0  0  0  0  0  0  0  0  0  0  0
  1  2  1  0  0  0  0
  2  3  1  0  0  0  0
  2  4  1  0  0  0  0
  2  5  1  0  0  0  0
  5  6  2  0  0  0  0
  5  7  1  0  0  0  0
  7  8  1  0  0  0  0
  7  9  1  0  0  0  0
  9 10  1  0  0  0  0
  9 11  1  0  0  0  0
  9 21  1  0  0  0  0
 11 12  1  0  0  0  0
 11 13  1  0  0  0  0
 11 14  1  0  0  0  0
 14 15  1  0  0  0  0
 14 16  1  0  0  0  0
 14 17  1  0  0  0  0
 17 18  2  0  0  0  0
 17 19  1  0  0  0  0
 19 20  1  0  0  0  0
 21 22  2  0  0  0  0
 21 23  1  0  0  0  0
 23 24  1  0  0  0  0
 23 25  1  0  0  0  0
 25 26  1  0  0  0  0
 25 27  1  0  0  0  0
 25 28  1  0  0  0  0
M  END
$$$$

  -OEChem-02102214123D

 28 27  0     1  0  0  0  0  0999 V2000
   -2.7109   -4.1211    0.4485 H   0  0  0  0  0  0  0  0  0  0  0  0
   -2.6741   -3.1688   -0.0883 C   0  0  0  0  0  0  0  0  0  0  0  0
   -3.4595   -2.5160    0.3004 H   0  0  0  0  0  0  0  0  0  0  0  0
   -2.8564   -3.3566   -1.1492 H   0  0  0  0  0  0  0  0  0  0  0  0
   -1.3169   -2.5175    0.0971 C   0  0  0  0  0  0  0  0  0  0  0  0
   -0.4610   -3.0729    0.7611 O   0  0  0  0  0  0  0  0  0  0  0  0
   -1.0616   -1.2904   -0.4816 N   0  0  0  0  0  0  0  0  0  0  0  0
   -1.7853   -0.9125   -1.0882 H   0  0  0  0  0  0  0  0  0  0  0  0
    0.2541   -0.6207   -0.4695 C   0  0  1  0  0  0  0  0  0  0  0  0
    0.9919   -1.2728   -0.9510 H   0  0  0  0  0  0  0  0  0  0  0  0
    0.1303    0.6830   -1.2731 C   0  0  0  0  0  0  0  0  0  0  0  0
   -0.7674    1.2186   -0.9442 H   0  0  0  0  0  0  0  0  0  0  0  0
    0.9884    1.3333   -1.0655 H   0  0  0  0  0  0  0  0  0  0  0  0
    0.0815    0.4058   -2.7897 C   0  0  0  0  0  0  0  0  0  0  0  0
    1.0992    0.3766   -3.1905 H   0  0  0  0  0  0  0  0  0  0  0  0
   -0.3757   -0.5667   -2.9923 H   0  0  0  0  0  0  0  0  0  0  0  0
   -0.7319    1.4615   -3.5279 C   0  0  0  0  0  0  0  0  0  0  0  0
   -1.9375    1.4858   -3.3409 O   0  0  0  0  0  0  0  0  0  0  0  0
   -0.0795    2.3220   -4.3420 O   0  0  0  0  0  0  0  0  0  0  0  0
   -0.7555    2.9106   -4.7109 H   0  0  0  0  0  0  0  0  0  0  0  0
    0.8025   -0.3155    0.9429 C   0  0  0  0  0  0  0  0  0  0  0  0
    2.0111   -0.3143    1.1348 O   0  0  0  0  0  0  0  0  0  0  0  0
   -0.0301    0.2263    1.9052 N   0  0  0  0  0  0  0  0  0  0  0  0
   -1.0257    0.1186    1.7424 H   0  0  0  0  0  0  0  0  0  0  0  0
    0.4293    0.5440    3.2514 C   0  0  0  0  0  0  0  0  0  0  0  0
    1.2140    1.3072    3.2186 H   0  0  0  0  0  0  0  0  0  0  0  0
   -0.3994    0.9278    3.8540 H   0  0  0  0  0  0  0  0  0  0  0  0
    0.8290   -0.3513    3.7396 H   0  0  0  0  0  0  0  0  0  0  0  0
  1  2  1  0  0  0  0
  2  3  1  0  0  0  0
  2  4  1  0  0  0  0
  2  5  1  0  0  0  0
  5  6  2  0  0  0  0
  5  7  1  0  0  0  0
  7  8  1  0  0  0  0
  7  9  1  0  0  0  0
  9 10  1  0  0  0  0
  9 11  1  0  0  0  0
  9 21  1  0  0  0  0
 11 12  1  0  0  0  0
 11 13  1  0  0  0  0
 11 14  1  0  0  0  0
 14 15  1  0  0  0  0
 14 16  1  0  0  0  0
 14 17  1  0  0  0  0
 17 18  2  0  0  0  0
 17 19  1  0  0  0  0
 19 20  1  0  0  0  0
 21 22  2  0  0  0  0
 21 23  1  0  0  0  0
 23 24  1  0  0  0  0
 23 25  1  0  0  0  0
 25 26  1  0  0  0  0
 25 27  1  0  0  0  0
 25 28  1  0  0  0  0
M  END
$$$$

  -OEChem-02102214123D

 28 27  0     1  0  0  0  0  0999 V2000
   -2.6513   -4.1619    0.2742 H   0  0  0  0  0  0  0  0  0  0  0  0
   -2.6420   -3.1657   -0.1774 C   0  0  0  0  0  0  0  0  0  0  0  0
   -3.4304   -2.5642    0.2810 H   0  0  0  0  0  0  0  0  0  0  0  0
   -2.8423   -3.2635   -1.2471 H   0  0  0  0  0  0  0  0  0  0  0  0
   -1.2927   -2.5074    0.0402 C   0  0  0  0  0  0  0  0  0  0  0  0
   -0.4319   -3.0824    0.6805 O   0  0  0  0  0  0  0  0  0  0  0  0
   -1.0497   -1.2549   -0.4877 N   0  0  0  0  0  0  0  0  0  0  0  0
   -1.7802   -0.8549   -1.0688 H   0  0  0  0  0  0  0  0  0  0  0  0
    0.2570   -0.5700   -0.4376 C   0  0  1  0  0  0  0  0  0  0  0  0
    1.0044   -1.2005   -0.9328 H   0  0  0  0  0  0  0  0  0  0  0  0
    0.1446    0.7622   -1.1983 C   0  0  0  0  0  0  0  0  0  0  0  0
   -0.7613    1.2822   -0.8680 H   0  0  0  0  0  0  0  0  0  0  0  0
    0.9977    1.4056   -0.9519 H   0  0  0  0  0  0  0  0  0  0  0  0
    0.1246    0.5388   -2.7272 C   0  0  0  0  0  0  0  0  0  0  0  0
    1.1291    0.2608   -3.0597 H   0  0  0  0  0  0  0  0  0  0  0  0
   -0.5434   -0.2902   -2.9736 H   0  0  0  0  0  0  0  0  0  0  0  0
   -0.3394    1.7498   -3.5387 C   0  0  0  0  0  0  0  0  0  0  0  0
   -0.8129    2.7215   -2.9733 O   0  0  0  0  0  0  0  0  0  0  0  0
   -0.2109    1.6607   -4.8818 O   0  0  0  0  0  0  0  0  0  0  0  0
   -0.5381    2.5011   -5.2377 H   0  0  0  0  0  0  0  0  0  0  0  0
    0.7916   -0.3131    0.9900 C   0  0  0  0  0  0  0  0  0  0  0  0
    1.9985   -0.3139    1.1913 O   0  0  0  0  0  0  0  0  0  0  0  0
   -0.0510    0.1807    1.9697 N   0  0  0  0  0  0  0  0  0  0  0  0
   -1.0455    0.0826    1.7957 H   0  0  0  0  0  0  0  0  0  0  0  0
    0.4002    0.4659    3.3263 C   0  0  0  0  0  0  0  0  0  0  0  0
    1.2017    1.2121    3.3154 H   0  0  0  0  0  0  0  0  0  0  0  0
   -0.4260    0.8589    3.9263 H   0  0  0  0  0  0  0  0  0  0  0  0
    0.7744   -0.4460    3.8038 H   0  0  0  0  0  0  0  0  0  0  0  0
  1  2  1  0  0  0  0
  2  3  1  0  0  0  0
  2  4  1  0  0  0  0
  2  5  1  0  0  0  0
  5  6  2  0  0  0  0
  5  7  1  0  0  0  0
  7  8  1  0  0  0  0
  7  9  1  0  0  0  0
  9 10  1  0  0  0  0
  9 11  1  0  0  0  0
  9 21  1  0  0  0  0
 11 12  1  0  0  0  0
 11 13  1  0  0  0  0
 11 14  1  0  0  0  0
 14 15  1  0  0  0  0
 14 16  1  0  0  0  0
 14 17  1  0  0  0  0
 17 18  2  0  0  0  0
 17 19  1  0  0  0  0
 19 20  1  0  0  0  0
 21 22  2  0  0  0  0
 21 23  1  0  0  0  0
 23 24  1  0  0  0  0
 23 25  1  0  0  0  0
 25 26  1  0  0  0  0
 25 27  1  0  0  0  0
 25 28  1  0  0  0  0
M  END
$$$$

  -OEChem-02102214123D

 28 27  0     1  0  0  0  0  0999 V2000
   -2.6809   -4.1551    0.3968 H   0  0  0  0  0  0  0  0  0  0  0  0
   -2.6554   -3.1988   -0.1337 C   0  0  0  0  0  0  0  0  0  0  0  0
   -3.4481   -2.5582    0.2599 H   0  0  0  0  0  0  0  0  0  0  0  0
   -2.8355   -3.3814   -1.1959 H   0  0  0  0  0  0  0  0  0  0  0  0
   -1.3054   -2.5338    0.0562 C   0  0  0  0  0  0  0  0  0  0  0  0
   -0.4306   -3.1031    0.6824 O   0  0  0  0  0  0  0  0  0  0  0  0
   -1.0777   -1.2813   -0.4787 N   0  0  0  0  0  0  0  0  0  0  0  0
   -1.8219   -0.8819   -1.0419 H   0  0  0  0  0  0  0  0  0  0  0  0
    0.2260   -0.5895   -0.4488 C   0  0  1  0  0  0  0  0  0  0  0  0
    0.9613   -1.2273   -0.9527 H   0  0  0  0  0  0  0  0  0  0  0  0
    0.1285    0.7389   -1.2188 C   0  0  0  0  0  0  0  0  0  0  0  0
   -0.6047    1.3862   -0.7247 H   0  0  0  0  0  0  0  0  0  0  0  0
    1.0984    1.2485   -1.1730 H   0  0  0  0  0  0  0  0  0  0  0  0
   -0.2623    0.5395   -2.6998 C   0  0  0  0  0  0  0  0  0  0  0  0
    0.4878   -0.0930   -3.1840 H   0  0  0  0  0  0  0  0  0  0  0  0
   -1.2259    0.0319   -2.7788 H   0  0  0  0  0  0  0  0  0  0  0  0
   -0.3631    1.8503   -3.4800 C   0  0  0  0  0  0  0  0  0  0  0  0
   -0.6235    2.8850   -2.8889 O   0  0  0  0  0  0  0  0  0  0  0  0
   -0.1748    1.7833   -4.8173 O   0  0  0  0  0  0  0  0  0  0  0  0
   -0.2653    2.6913   -5.1449 H   0  0  0  0  0  0  0  0  0  0  0  0
    0.7843   -0.3235    0.9677 C   0  0  0  0  0  0  0  0  0  0  0  0
    1.9948   -0.3087    1.1466 O   0  0  0  0  0  0  0  0  0  0  0  0
   -0.0456    0.1702    1.9580 N   0  0  0  0  0  0  0  0  0  0  0  0
   -1.0428    0.0711    1.8000 H   0  0  0  0  0  0  0  0  0  0  0  0
    0.4276    0.4924    3.2985 C   0  0  0  0  0  0  0  0  0  0  0  0
    1.1890    1.2786    3.2565 H   0  0  0  0  0  0  0  0  0  0  0  0
   -0.4010    0.8487    3.9179 H   0  0  0  0  0  0  0  0  0  0  0  0
    0.8619   -0.3934    3.7742 H   0  0  0  0  0  0  0  0  0  0  0  0
  1  2  1  0  0  0  0
  2  3  1  0  0  0  0
  2  4  1  0  0  0  0
  2  5  1  0  0  0  0
  5  6  2  0  0  0  0
  5  7  1  0  0  0  0
  7  8  1  0  0  0  0
  7  9  1  0  0  0  0
  9 10  1  0  0  0  0
  9 11  1  0  0  0  0
  9 21  1  0  0  0  0
 11 12  1  0  0  0  0
 11 13  1  0  0  0  0
 11 14  1  0  0  0  0
 14 15  1  0  0  0  0
 14 16  1  0  0  0  0
 14 17  1  0  0  0  0
 17 18  2  0  0  0  0
 17 19  1  0  0  0  0
 19 20  1  0  0  0  0
 21 22  2  0  0  0  0
 21 23  1  0  0  0  0
 23 24  1  0  0  0  0
 23 25  1  0  0  0  0
 25 26  1  0  0  0  0
 25 27  1  0  0  0  0
 25 28  1  0  0  0  0
M  END
$$$$

  -OEChem-02102214123D

 28 27  0     1  0  0  0  0  0999 V2000
   -2.6768   -4.1531    0.3712 H   0  0  0  0  0  0  0  0  0  0  0  0
   -2.6586   -3.1850   -0.1375 C   0  0  0  0  0  0  0  0  0  0  0  0
   -3.4472   -2.5547    0.2801 H   0  0  0  0  0  0  0  0  0  0  0  0
   -2.8514   -3.3437   -1.2011 H   0  0  0  0  0  0  0  0  0  0  0  0
   -1.3072   -2.5225    0.0514 C   0  0  0  0  0  0  0  0  0  0  0  0
   -0.4342   -3.0923    0.6797 O   0  0  0  0  0  0  0  0  0  0  0  0
   -1.0759   -1.2710   -0.4846 N   0  0  0  0  0  0  0  0  0  0  0  0
   -1.8131   -0.8779   -1.0612 H   0  0  0  0  0  0  0  0  0  0  0  0
    0.2303   -0.5840   -0.4562 C   0  0  1  0  0  0  0  0  0  0  0  0
    0.9640   -1.2215   -0.9625 H   0  0  0  0  0  0  0  0  0  0  0  0
    0.1222    0.7450   -1.2225 C   0  0  0  0  0  0  0  0  0  0  0  0
   -0.5981    1.4076   -0.7298 H   0  0  0  0  0  0  0  0  0  0  0  0
    1.1004    1.2399   -1.1859 H   0  0  0  0  0  0  0  0  0  0  0  0
   -0.2797    0.5403   -2.6986 C   0  0  0  0  0  0  0  0  0  0  0  0
    0.3137   -0.2758   -3.1220 H   0  0  0  0  0  0  0  0  0  0  0  0
   -1.3334    0.2619   -2.7735 H   0  0  0  0  0  0  0  0  0  0  0  0
   -0.0423    1.7827   -3.5558 C   0  0  0  0  0  0  0  0  0  0  0  0
   -0.1710    2.8864   -3.0531 O   0  0  0  0  0  0  0  0  0  0  0  0
    0.2825    1.5870   -4.8537 O   0  0  0  0  0  0  0  0  0  0  0  0
    0.4004    2.4710   -5.2344 H   0  0  0  0  0  0  0  0  0  0  0  0
    0.7919   -0.3188    0.9591 C   0  0  0  0  0  0  0  0  0  0  0  0
    2.0023   -0.3149    1.1386 O   0  0  0  0  0  0  0  0  0  0  0  0
   -0.0353    0.1789    1.9495 N   0  0  0  0  0  0  0  0  0  0  0  0
   -1.0326    0.0841    1.7900 H   0  0  0  0  0  0  0  0  0  0  0  0
    0.4367    0.4808    3.2951 C   0  0  0  0  0  0  0  0  0  0  0  0
    1.2235    1.2420    3.2640 H   0  0  0  0  0  0  0  0  0  0  0  0
   -0.3856    0.8616    3.9084 H   0  0  0  0  0  0  0  0  0  0  0  0
    0.8375   -0.4206    3.7707 H   0  0  0  0  0  0  0  0  0  0  0  0
  1  2  1  0  0  0  0
  2  3  1  0  0  0  0
  2  4  1  0  0  0  0
  2  5  1  0  0  0  0
  5  6  2  0  0  0  0
  5  7  1  0  0  0  0
  7  8  1  0  0  0  0
  7  9  1  0  0  0  0
  9 10  1  0  0  0  0
  9 11  1  0  0  0  0
  9 21  1  0  0  0  0
 11 12  1  0  0  0  0
 11 13  1  0  0  0  0
 11 14  1  0  0  0  0
 14 15  1  0  0  0  0
 14 16  1  0  0  0  0
 14 17  1  0  0  0  0
 17 18  2  0  0  0  0
 17 19  1  0  0  0  0
 19 20  1  0  0  0  0
 21 22  2  0  0  0  0
 21 23  1  0  0  0  0
 23 24  1  0  0  0  0
 23 25  1  0  0  0  0
 25 26  1  0  0  0  0
 25 27  1  0  0  0  0
 25 28  1  0  0  0  0
M  END
$$$$

  -OEChem-02102214123D

 28 27  0     1  0  0  0  0  0999 V2000
   -2.6870   -4.1506    0.3379 H   0  0  0  0  0  0  0  0  0  0  0  0
   -2.6672   -3.1766   -0.1599 C   0  0  0  0  0  0  0  0  0  0  0  0
   -3.4631   -2.5538    0.2556 H   0  0  0  0  0  0  0  0  0  0  0  0
   -2.8473   -3.3250   -1.2273 H   0  0  0  0  0  0  0  0  0  0  0  0
   -1.3210   -2.5100    0.0517 C   0  0  0  0  0  0  0  0  0  0  0  0
   -0.4587   -3.0758    0.6980 O   0  0  0  0  0  0  0  0  0  0  0  0
   -1.0837   -1.2596   -0.4843 N   0  0  0  0  0  0  0  0  0  0  0  0
   -1.8073   -0.8783   -1.0857 H   0  0  0  0  0  0  0  0  0  0  0  0
    0.2284   -0.5838   -0.4621 C   0  0  1  0  0  0  0  0  0  0  0  0
    0.9555   -1.2226   -0.9767 H   0  0  0  0  0  0  0  0  0  0  0  0
    0.1137    0.7492   -1.2209 C   0  0  0  0  0  0  0  0  0  0  0  0
   -0.5926    1.4196   -0.7195 H   0  0  0  0  0  0  0  0  0  0  0  0
    1.0980    1.2328   -1.1892 H   0  0  0  0  0  0  0  0  0  0  0  0
   -0.3066    0.5523   -2.6940 C   0  0  0  0  0  0  0  0  0  0  0  0
    0.0745   -0.4074   -3.0561 H   0  0  0  0  0  0  0  0  0  0  0  0
   -1.3957    0.5314   -2.7789 H   0  0  0  0  0  0  0  0  0  0  0  0
    0.2460    1.6391   -3.6134 C   0  0  0  0  0  0  0  0  0  0  0  0
    0.2011    2.8000   -3.2430 O   0  0  0  0  0  0  0  0  0  0  0  0
    0.7447    1.2543   -4.8102 O   0  0  0  0  0  0  0  0  0  0  0  0
    1.0494    2.0657   -5.2452 H   0  0  0  0  0  0  0  0  0  0  0  0
    0.8007   -0.3253    0.9501 C   0  0  0  0  0  0  0  0  0  0  0  0
    2.0122   -0.3298    1.1216 O   0  0  0  0  0  0  0  0  0  0  0  0
   -0.0170    0.1780    1.9456 N   0  0  0  0  0  0  0  0  0  0  0  0
   -1.0157    0.0848    1.7942 H   0  0  0  0  0  0  0  0  0  0  0  0
    0.4664    0.4761    3.2878 C   0  0  0  0  0  0  0  0  0  0  0  0
    1.2598    1.2301    3.2507 H   0  0  0  0  0  0  0  0  0  0  0  0
   -0.3483    0.8646    3.9063 H   0  0  0  0  0  0  0  0  0  0  0  0
    0.8622   -0.4287    3.7612 H   0  0  0  0  0  0  0  0  0  0  0  0
  1  2  1  0  0  0  0
  2  3  1  0  0  0  0
  2  4  1  0  0  0  0
  2  5  1  0  0  0  0
  5  6  2  0  0  0  0
  5  7  1  0  0  0  0
  7  8  1  0  0  0  0
  7  9  1  0  0  0  0
  9 10  1  0  0  0  0
  9 11  1  0  0  0  0
  9 21  1  0  0  0  0
 11 12  1  0  0  0  0
 11 13  1  0  0  0  0
 11 14  1  0  0  0  0
 14 15  1  0  0  0  0
 14 16  1  0  0  0  0
 14 17  1  0  0  0  0
 17 18  2  0  0  0  0
 17 19  1  0  0  0  0
 19 20  1  0  0  0  0
 21 22  2  0  0  0  0
 21 23  1  0  0  0  0
 23 24  1  0  0  0  0
 23 25  1  0  0  0  0
 25 26  1  0  0  0  0
 25 27  1  0  0  0  0
 25 28  1  0  0  0  0
M  END
$$$$

  -OEChem-02102214123D

 28 27  0     1  0  0  0  0  0999 V2000
   -2.6983   -4.1327    0.3444 H   0  0  0  0  0  0  0  0  0  0  0  0
   -2.6759   -3.1637   -0.1624 C   0  0  0  0  0  0  0  0  0  0  0  0
   -3.4664   -2.5329    0.2509 H   0  0  0  0  0  0  0  0  0  0  0  0
   -2.8619   -3.3210   -1.2275 H   0  0  0  0  0  0  0  0  0  0  0  0
   -1.3251   -2.5022    0.0364 C   0  0  0  0  0  0  0  0  0  0  0  0
   -0.4544   -3.0750    0.6652 O   0  0  0  0  0  0  0  0  0  0  0  0
   -1.0928   -1.2475   -0.4917 N   0  0  0  0  0  0  0  0  0  0  0  0
   -1.8245   -0.8584   -1.0784 H   0  0  0  0  0  0  0  0  0  0  0  0
    0.2191   -0.5710   -0.4765 C   0  0  1  0  0  0  0  0  0  0  0  0
    0.9422   -1.2069   -1.0007 H   0  0  0  0  0  0  0  0  0  0  0  0
    0.1001    0.7642   -1.2305 C   0  0  0  0  0  0  0  0  0  0  0  0
   -0.6079    1.4278   -0.7228 H   0  0  0  0  0  0  0  0  0  0  0  0
    1.0812    1.2540   -1.1951 H   0  0  0  0  0  0  0  0  0  0  0  0
   -0.3297    0.5736   -2.7032 C   0  0  0  0  0  0  0  0  0  0  0  0
   -0.2009   -0.4717   -2.9996 H   0  0  0  0  0  0  0  0  0  0  0  0
   -1.3875    0.8229   -2.8217 H   0  0  0  0  0  0  0  0  0  0  0  0
    0.4960    1.4253   -3.6629 C   0  0  0  0  0  0  0  0  0  0  0  0
    0.5150    2.6330   -3.4981 O   0  0  0  0  0  0  0  0  0  0  0  0
    1.1649    0.7931   -4.6539 O   0  0  0  0  0  0  0  0  0  0  0  0
    1.6365    1.4859   -5.1415 H   0  0  0  0  0  0  0  0  0  0  0  0
    0.8045   -0.3229    0.9324 C   0  0  0  0  0  0  0  0  0  0  0  0
    2.0177   -0.3252    1.0912 O   0  0  0  0  0  0  0  0  0  0  0  0
   -0.0033    0.1719    1.9401 N   0  0  0  0  0  0  0  0  0  0  0  0
   -1.0025    0.0643    1.8022 H   0  0  0  0  0  0  0  0  0  0  0  0
    0.4936    0.4469    3.2827 C   0  0  0  0  0  0  0  0  0  0  0  0
    1.2920    1.1958    3.2505 H   0  0  0  0  0  0  0  0  0  0  0  0
   -0.3132    0.8314    3.9139 H   0  0  0  0  0  0  0  0  0  0  0  0
    0.8872   -0.4675    3.7392 H   0  0  0  0  0  0  0  0  0  0  0  0
  1  2  1  0  0  0  0
  2  3  1  0  0  0  0
  2  4  1  0  0  0  0
  2  5  1  0  0  0  0
  5  6  2  0  0  0  0
  5  7  1  0  0  0  0
  7  8  1  0  0  0  0
  7  9  1  0  0  0  0
  9 10  1  0  0  0  0
  9 11  1  0  0  0  0
  9 21  1  0  0  0  0
 11 12  1  0  0  0  0
 11 13  1  0  0  0  0
 11 14  1  0  0  0  0
 14 15  1  0  0  0  0
 14 16  1  0  0  0  0
 14 17  1  0  0  0  0
 17 18  2  0  0  0  0
 17 19  1  0  0  0  0
 19 20  1  0  0  0  0
 21 22  2  0  0  0  0
 21 23  1  0  0  0  0
 23 24  1  0  0  0  0
 23 25  1  0  0  0  0
 25 26  1  0  0  0  0
 25 27  1  0  0  0  0
 25 28  1  0  0  0  0
M  END
$$$$

  -OEChem-02102214123D

 28 27  0     1  0  0  0  0  0999 V2000
   -2.7150   -4.1274    0.3242 H   0  0  0  0  0  0  0  0  0  0  0  0
   -2.6892   -3.1584   -0.1825 C   0  0  0  0  0  0  0  0  0  0  0  0
   -3.4842   -2.5287    0.2237 H   0  0  0  0  0  0  0  0  0  0  0  0
   -2.8655   -3.3153   -1.2493 H   0  0  0  0  0  0  0  0  0  0  0  0
   -1.3411   -2.4954    0.0278 C   0  0  0  0  0  0  0  0  0  0  0  0
   -0.4750   -3.0674    0.6633 O   0  0  0  0  0  0  0  0  0  0  0  0
   -1.1081   -1.2393   -0.4966 N   0  0  0  0  0  0  0  0  0  0  0  0
   -1.8371   -0.8541   -1.0891 H   0  0  0  0  0  0  0  0  0  0  0  0
    0.2081   -0.5698   -0.4928 C   0  0  1  0  0  0  0  0  0  0  0  0
    0.9206   -1.2071   -1.0296 H   0  0  0  0  0  0  0  0  0  0  0  0
    0.0955    0.7719   -1.2377 C   0  0  0  0  0  0  0  0  0  0  0  0
   -0.6171    1.4202   -0.7168 H   0  0  0  0  0  0  0  0  0  0  0  0
    1.0700    1.2742   -1.1969 H   0  0  0  0  0  0  0  0  0  0  0  0
   -0.3484    0.6056   -2.7098 C   0  0  0  0  0  0  0  0  0  0  0  0
   -0.5132   -0.4479   -2.9533 H   0  0  0  0  0  0  0  0  0  0  0  0
   -1.2928    1.1326   -2.8724 H   0  0  0  0  0  0  0  0  0  0  0  0
    0.6919    1.1552   -3.6798 C   0  0  0  0  0  0  0  0  0  0  0  0
    0.7963    2.3644   -3.7917 O   0  0  0  0  0  0  0  0  0  0  0  0
    1.4540    0.2688   -4.3598 O   0  0  0  0  0  0  0  0  0  0  0  0
    2.0639    0.7975   -4.8970 H   0  0  0  0  0  0  0  0  0  0  0  0
    0.8106   -0.3327    0.9106 C   0  0  0  0  0  0  0  0  0  0  0  0
    2.0256   -0.3361    1.0551 O   0  0  0  0  0  0  0  0  0  0  0  0
    0.0153    0.1610    1.9287 N   0  0  0  0  0  0  0  0  0  0  0  0
   -0.9851    0.0506    1.8025 H   0  0  0  0  0  0  0  0  0  0  0  0
    0.5274    0.4255    3.2675 C   0  0  0  0  0  0  0  0  0  0  0  0
    1.3275    1.1725    3.2321 H   0  0  0  0  0  0  0  0  0  0  0  0
   -0.2714    0.8081    3.9099 H   0  0  0  0  0  0  0  0  0  0  0  0
    0.9233   -0.4931    3.7135 H   0  0  0  0  0  0  0  0  0  0  0  0
  1  2  1  0  0  0  0
  2  3  1  0  0  0  0
  2  4  1  0  0  0  0
  2  5  1  0  0  0  0
  5  6  2  0  0  0  0
  5  7  1  0  0  0  0
  7  8  1  0  0  0  0
  7  9  1  0  0  0  0
  9 10  1  0  0  0  0
  9 11  1  0  0  0  0
  9 21  1  0  0  0  0
 11 12  1  0  0  0  0
 11 13  1  0  0  0  0
 11 14  1  0  0  0  0
 14 15  1  0  0  0  0
 14 16  1  0  0  0  0
 14 17  1  0  0  0  0
 17 18  2  0  0  0  0
 17 19  1  0  0  0  0
 19 20  1  0  0  0  0
 21 22  2  0  0  0  0
 21 23  1  0  0  0  0
 23 24  1  0  0  0  0
 23 25  1  0  0  0  0
 25 26  1  0  0  0  0
 25 27  1  0  0  0  0
 25 28  1  0  0  0  0
M  END
$$$$

  -OEChem-02102214123D

 28 27  0     1  0  0  0  0  0999 V2000
   -2.6497   -4.1695    0.2811 H   0  0  0  0  0  0  0  0  0  0  0  0
   -2.6361   -3.1773   -0.1797 C   0  0  0  0  0  0  0  0  0  0  0  0
   -3.4395   -2.5772    0.2538 H   0  0  0  0  0  0  0  0  0  0  0  0
   -2.8091   -3.2874   -1.2529 H   0  0  0  0  0  0  0  0  0  0  0  0
   -1.2969   -2.5078    0.0645 C   0  0  0  0  0  0  0  0  0  0  0  0
   -0.4537   -3.0667    0.7411 O   0  0  0  0  0  0  0  0  0  0  0  0
   -1.0455   -1.2627   -0.4776 N   0  0  0  0  0  0  0  0  0  0  0  0
   -1.7561   -0.8864   -1.0975 H   0  0  0  0  0  0  0  0  0  0  0  0
    0.2662   -0.5841   -0.4288 C   0  0  1  0  0  0  0  0  0  0  0  0
    1.0079   -1.2295   -0.9135 H   0  0  0  0  0  0  0  0  0  0  0  0
    0.1935    0.7410   -1.2108 C   0  0  0  0  0  0  0  0  0  0  0  0
   -0.5702    1.3719   -0.7442 H   0  0  0  0  0  0  0  0  0  0  0  0
    1.1422    1.2785   -1.1033 H   0  0  0  0  0  0  0  0  0  0  0  0
   -0.1760    0.5455   -2.7072 C   0  0  0  0  0  0  0  0  0  0  0  0
   -0.6253   -0.4365   -2.8713 H   0  0  0  0  0  0  0  0  0  0  0  0
   -0.9287    1.2929   -2.9723 H   0  0  0  0  0  0  0  0  0  0  0  0
    0.9710    0.7013   -3.7110 C   0  0  0  0  0  0  0  0  0  0  0  0
    2.0798    1.0507   -3.3465 O   0  0  0  0  0  0  0  0  0  0  0  0
    0.6679    0.4280   -5.0001 O   0  0  0  0  0  0  0  0  0  0  0  0
    1.4901    0.5639   -5.4965 H   0  0  0  0  0  0  0  0  0  0  0  0
    0.7930   -0.3146    0.9997 C   0  0  0  0  0  0  0  0  0  0  0  0
    1.9968   -0.3242    1.2170 O   0  0  0  0  0  0  0  0  0  0  0  0
   -0.0575    0.1948    1.9646 N   0  0  0  0  0  0  0  0  0  0  0  0
   -1.0497    0.0840    1.7852 H   0  0  0  0  0  0  0  0  0  0  0  0
    0.3810    0.4810    3.3251 C   0  0  0  0  0  0  0  0  0  0  0  0
    1.1887    1.2207    3.3204 H   0  0  0  0  0  0  0  0  0  0  0  0
   -0.4487    0.8827    3.9144 H   0  0  0  0  0  0  0  0  0  0  0  0
    0.7430   -0.4317    3.8103 H   0  0  0  0  0  0  0  0  0  0  0  0
  1  2  1  0  0  0  0
  2  3  1  0  0  0  0
  2  4  1  0  0  0  0
  2  5  1  0  0  0  0
  5  6  2  0  0  0  0
  5  7  1  0  0  0  0
  7  8  1  0  0  0  0
  7  9  1  0  0  0  0
  9 10  1  0  0  0  0
  9 11  1  0  0  0  0
  9 21  1  0  0  0  0
 11 12  1  0  0  0  0
 11 13  1  0  0  0  0
 11 14  1  0  0  0  0
 14 15  1  0  0  0  0
 14 16  1  0  0  0  0
 14 17  1  0  0  0  0
 17 18  2  0  0  0  0
 17 19  1  0  0  0  0
 19 20  1  0  0  0  0
 21 22  2  0  0  0  0
 21 23  1  0  0  0  0
 23 24  1  0  0  0  0
 23 25  1  0  0  0  0
 25 26  1  0  0  0  0
 25 27  1  0  0  0  0
 25 28  1  0  0  0  0
M  END
$$$$

  -OEChem-02102214123D

 28 27  0     1  0  0  0  0  0999 V2000
   -2.6211   -4.2211    0.5158 H   0  0  0  0  0  0  0  0  0  0  0  0
   -2.6254   -3.2804   -0.0426 C   0  0  0  0  0  0  0  0  0  0  0  0
   -3.4592   -2.6674    0.3076 H   0  0  0  0  0  0  0  0  0  0  0  0
   -2.7644   -3.5034   -1.1032 H   0  0  0  0  0  0  0  0  0  0  0  0
   -1.3150   -2.5450    0.1648 C   0  0  0  0  0  0  0  0  0  0  0  0
   -0.4576   -3.0243    0.8836 O   0  0  0  0  0  0  0  0  0  0  0  0
   -1.1108   -1.3256   -0.4510 N   0  0  0  0  0  0  0  0  0  0  0  0
   -1.8251   -1.0333   -1.1103 H   0  0  0  0  0  0  0  0  0  0  0  0
    0.1919   -0.6313   -0.4933 C   0  0  1  0  0  0  0  0  0  0  0  0
    0.9166   -1.2976   -0.9763 H   0  0  0  0  0  0  0  0  0  0  0  0
    0.0805    0.6547   -1.3339 C   0  0  0  0  0  0  0  0  0  0  0  0
   -0.6625    1.3082   -0.8646 H   0  0  0  0  0  0  0  0  0  0  0  0
    1.0361    1.1927   -1.3132 H   0  0  0  0  0  0  0  0  0  0  0  0
   -0.3431    0.3943   -2.7954 C   0  0  0  0  0  0  0  0  0  0  0  0
   -1.0271   -0.4538   -2.8786 H   0  0  0  0  0  0  0  0  0  0  0  0
   -0.8704    1.2754   -3.1715 H   0  0  0  0  0  0  0  0  0  0  0  0
    0.8684    0.1710   -3.6937 C   0  0  0  0  0  0  0  0  0  0  0  0
    1.0612   -0.9510   -4.1277 O   0  0  0  0  0  0  0  0  0  0  0  0
    1.6634    1.2303   -3.9687 O   0  0  0  0  0  0  0  0  0  0  0  0
    2.3793    0.8880   -4.5261 H   0  0  0  0  0  0  0  0  0  0  0  0
    0.7832   -0.2813    0.8911 C   0  0  0  0  0  0  0  0  0  0  0  0
    1.9977   -0.2372    1.0349 O   0  0  0  0  0  0  0  0  0  0  0  0
   -0.0269    0.2684    1.8680 N   0  0  0  0  0  0  0  0  0  0  0  0
   -1.0227    0.1110    1.7534 H   0  0  0  0  0  0  0  0  0  0  0  0
    0.4754    0.6286    3.1881 C   0  0  0  0  0  0  0  0  0  0  0  0
    1.2717    1.3759    3.1049 H   0  0  0  0  0  0  0  0  0  0  0  0
   -0.3289    1.0505    3.7981 H   0  0  0  0  0  0  0  0  0  0  0  0
    0.8738   -0.2547    3.6988 H   0  0  0  0  0  0  0  0  0  0  0  0
  1  2  1  0  0  0  0
  2  3  1  0  0  0  0
  2  4  1  0  0  0  0
  2  5  1  0  0  0  0
  5  6  2  0  0  0  0
  5  7  1  0  0  0  0
  7  8  1  0  0  0  0
  7  9  1  0  0  0  0
  9 10  1  0  0  0  0
  9 11  1  0  0  0  0
  9 21  1  0  0  0  0
 11 12  1  0  0  0  0
 11 13  1  0  0  0  0
 11 14  1  0  0  0  0
 14 15  1  0  0  0  0
 14 16  1  0  0  0  0
 14 17  1  0  0  0  0
 17 18  2  0  0  0  0
 17 19  1  0  0  0  0
 19 20  1  0  0  0  0
 21 22  2  0  0  0  0
 21 23  1  0  0  0  0
 23 24  1  0  0  0  0
 23 25  1  0  0  0  0
 25 26  1  0  0  0  0
 25 27  1  0  0  0  0
 25 28  1  0  0  0  0
M  END
$$$$

  -OEChem-02102214123D

 28 27  0     1  0  0  0  0  0999 V2000
   -2.7127   -4.1322    0.1872 H   0  0  0  0  0  0  0  0  0  0  0  0
   -2.6752   -3.1541   -0.3011 C   0  0  0  0  0  0  0  0  0  0  0  0
   -3.5017   -2.5438    0.0705 H   0  0  0  0  0  0  0  0  0  0  0  0
   -2.7892   -3.2957   -1.3786 H   0  0  0  0  0  0  0  0  0  0  0  0
   -1.3517   -2.4744   -0.0061 C   0  0  0  0  0  0  0  0  0  0  0  0
   -0.5215   -3.0371    0.6839 O   0  0  0  0  0  0  0  0  0  0  0  0
   -1.1022   -1.2159   -0.5174 N   0  0  0  0  0  0  0  0  0  0  0  0
   -1.7910   -0.8573   -1.1708 H   0  0  0  0  0  0  0  0  0  0  0  0
    0.2213   -0.5625   -0.4869 C   0  0  1  0  0  0  0  0  0  0  0  0
    0.9327   -1.2109   -1.0110 H   0  0  0  0  0  0  0  0  0  0  0  0
    0.1540    0.7924   -1.2197 C   0  0  0  0  0  0  0  0  0  0  0  0
   -0.5657    1.4356   -0.7024 H   0  0  0  0  0  0  0  0  0  0  0  0
    1.1312    1.2871   -1.1586 H   0  0  0  0  0  0  0  0  0  0  0  0
   -0.2604    0.6706   -2.7006 C   0  0  0  0  0  0  0  0  0  0  0  0
   -1.1388    0.0331   -2.8200 H   0  0  0  0  0  0  0  0  0  0  0  0
   -0.5281    1.6628   -3.0763 H   0  0  0  0  0  0  0  0  0  0  0  0
    0.8773    0.1317   -3.5602 C   0  0  0  0  0  0  0  0  0  0  0  0
    1.7150    0.9121   -3.9764 O   0  0  0  0  0  0  0  0  0  0  0  0
    0.8975   -1.1975   -3.8105 O   0  0  0  0  0  0  0  0  0  0  0  0
    1.6966   -1.3558   -4.3373 H   0  0  0  0  0  0  0  0  0  0  0  0
    0.8028   -0.3456    0.9286 C   0  0  0  0  0  0  0  0  0  0  0  0
    2.0154   -0.3604    1.0911 O   0  0  0  0  0  0  0  0  0  0  0  0
   -0.0030    0.1482    1.9385 N   0  0  0  0  0  0  0  0  0  0  0  0
   -1.0017    0.0344    1.8009 H   0  0  0  0  0  0  0  0  0  0  0  0
    0.4932    0.3936    3.2870 C   0  0  0  0  0  0  0  0  0  0  0  0
    1.3079    1.1254    3.2690 H   0  0  0  0  0  0  0  0  0  0  0  0
   -0.3076    0.7872    3.9201 H   0  0  0  0  0  0  0  0  0  0  0  0
    0.8646   -0.5355    3.7324 H   0  0  0  0  0  0  0  0  0  0  0  0
  1  2  1  0  0  0  0
  2  3  1  0  0  0  0
  2  4  1  0  0  0  0
  2  5  1  0  0  0  0
  5  6  2  0  0  0  0
  5  7  1  0  0  0  0
  7  8  1  0  0  0  0
  7  9  1  0  0  0  0
  9 10  1  0  0  0  0
  9 11  1  0  0  0  0
  9 21  1  0  0  0  0
 11 12  1  0  0  0  0
 11 13  1  0  0  0  0
 11 14  1  0  0  0  0
 14 15  1  0  0  0  0
 14 16  1  0  0  0  0
 14 17  1  0  0  0  0
 17 18  2  0  0  0  0
 17 19  1  0  0  0  0
 19 20  1  0  0  0  0
 21 22  2  0  0  0  0
 21 23  1  0  0  0  0
 23 24  1  0  0  0  0
 23 25  1  0  0  0  0
 25 26  1  0  0  0  0
 25 27  1  0  0  0  0
 25 28  1  0  0  0  0
M  END
$$$$

  -OEChem-02102214123D

 28 27  0     1  0  0  0  0  0999 V2000
   -2.7082   -4.1298    0.1692 H   0  0  0  0  0  0  0  0  0  0  0  0
   -2.6540   -3.1601   -0.3339 C   0  0  0  0  0  0  0  0  0  0  0  0
   -3.4953   -2.5459   -0.0047 H   0  0  0  0  0  0  0  0  0  0  0  0
   -2.7267   -3.3200   -1.4125 H   0  0  0  0  0  0  0  0  0  0  0  0
   -1.3443   -2.4717    0.0008 C   0  0  0  0  0  0  0  0  0  0  0  0
   -0.5382   -3.0230    0.7278 O   0  0  0  0  0  0  0  0  0  0  0  0
   -1.0797   -1.2197   -0.5191 N   0  0  0  0  0  0  0  0  0  0  0  0
   -1.7367   -0.8872   -1.2178 H   0  0  0  0  0  0  0  0  0  0  0  0
    0.2464   -0.5730   -0.4687 C   0  0  1  0  0  0  0  0  0  0  0  0
    0.9678   -1.2270   -0.9707 H   0  0  0  0  0  0  0  0  0  0  0  0
    0.1849    0.7790   -1.2080 C   0  0  0  0  0  0  0  0  0  0  0  0
   -0.5270    1.4371   -0.6991 H   0  0  0  0  0  0  0  0  0  0  0  0
    1.1702    1.2571   -1.1475 H   0  0  0  0  0  0  0  0  0  0  0  0
   -0.2123    0.6588   -2.6938 C   0  0  0  0  0  0  0  0  0  0  0  0
   -1.2166    0.2395   -2.7888 H   0  0  0  0  0  0  0  0  0  0  0  0
   -0.2366    1.6581   -3.1384 H   0  0  0  0  0  0  0  0  0  0  0  0
    0.7612   -0.1990   -3.4944 C   0  0  0  0  0  0  0  0  0  0  0  0
    1.7973    0.3060   -3.8874 O   0  0  0  0  0  0  0  0  0  0  0  0
    0.4213   -1.4898   -3.7180 O   0  0  0  0  0  0  0  0  0  0  0  0
    1.1634   -1.8747   -4.2109 H   0  0  0  0  0  0  0  0  0  0  0  0
    0.8008   -0.3440    0.9562 C   0  0  0  0  0  0  0  0  0  0  0  0
    2.0098   -0.3632    1.1438 O   0  0  0  0  0  0  0  0  0  0  0  0
   -0.0224    0.1647    1.9444 N   0  0  0  0  0  0  0  0  0  0  0  0
   -1.0187    0.0556    1.7863 H   0  0  0  0  0  0  0  0  0  0  0  0
    0.4465    0.4132    3.3022 C   0  0  0  0  0  0  0  0  0  0  0  0
    1.2599    1.1466    3.2994 H   0  0  0  0  0  0  0  0  0  0  0  0
   -0.3677    0.8058    3.9186 H   0  0  0  0  0  0  0  0  0  0  0  0
    0.8111   -0.5145    3.7563 H   0  0  0  0  0  0  0  0  0  0  0  0
  1  2  1  0  0  0  0
  2  3  1  0  0  0  0
  2  4  1  0  0  0  0
  2  5  1  0  0  0  0
  5  6  2  0  0  0  0
  5  7  1  0  0  0  0
  7  8  1  0  0  0  0
  7  9  1  0  0  0  0
  9 10  1  0  0  0  0
  9 11  1  0  0  0  0
  9 21  1  0  0  0  0
 11 12  1  0  0  0  0
 11 13  1  0  0  0  0
 11 14  1  0  0  0  0
 14 15  1  0  0  0  0
 14 16  1  0  0  0  0
 14 17  1  0  0  0  0
 17 18  2  0  0  0  0
 17 19  1  0  0  0  0
 19 20  1  0  0  0  0
 21 22  2  0  0  0  0
 21 23  1  0  0  0  0
 23 24  1  0  0  0  0
 23 25  1  0  0  0  0
 25 26  1  0  0  0  0
 25 27  1  0  0  0  0
 25 28  1  0  0  0  0
M  END
$$$$

  -OEChem-02102214123D

 28 27  0     1  0  0  0  0  0999 V2000
   -2.6889   -4.1486    0.1129 H   0  0  0  0  0  0  0  0  0  0  0  0
   -2.6377   -3.1648   -0.3622 C   0  0  0  0  0  0  0  0  0  0  0  0
   -3.4979   -2.5730   -0.0404 H   0  0  0  0  0  0  0  0  0  0  0  0
   -2.6782   -3.2964   -1.4463 H   0  0  0  0  0  0  0  0  0  0  0  0
   -1.3500   -2.4637    0.0267 C   0  0  0  0  0  0  0  0  0  0  0  0
   -0.5812   -2.9956    0.8064 O   0  0  0  0  0  0  0  0  0  0  0  0
   -1.0626   -1.2247   -0.5107 N   0  0  0  0  0  0  0  0  0  0  0  0
   -1.6713   -0.9361   -1.2706 H   0  0  0  0  0  0  0  0  0  0  0  0
    0.2705   -0.5945   -0.4451 C   0  0  1  0  0  0  0  0  0  0  0  0
    0.9982   -1.2603   -0.9222 H   0  0  0  0  0  0  0  0  0  0  0  0
    0.2214    0.7502   -1.1997 C   0  0  0  0  0  0  0  0  0  0  0  0
   -0.4768    1.4295   -0.6994 H   0  0  0  0  0  0  0  0  0  0  0  0
    1.2171    1.2056   -1.1396 H   0  0  0  0  0  0  0  0  0  0  0  0
   -0.1616    0.6345   -2.6915 C   0  0  0  0  0  0  0  0  0  0  0  0
   -1.2375    0.4635   -2.7794 H   0  0  0  0  0  0  0  0  0  0  0  0
    0.0556    1.5823   -3.1930 H   0  0  0  0  0  0  0  0  0  0  0  0
    0.5617   -0.4873   -3.4288 C   0  0  0  0  0  0  0  0  0  0  0  0
    1.6966   -0.2911   -3.8226 O   0  0  0  0  0  0  0  0  0  0  0  0
   -0.0998   -1.6575   -3.5922 O   0  0  0  0  0  0  0  0  0  0  0  0
    0.5207   -2.2437   -4.0546 H   0  0  0  0  0  0  0  0  0  0  0  0
    0.7988   -0.3484    0.9873 C   0  0  0  0  0  0  0  0  0  0  0  0
    2.0034   -0.3789    1.2004 O   0  0  0  0  0  0  0  0  0  0  0  0
   -0.0390    0.1877    1.9484 N   0  0  0  0  0  0  0  0  0  0  0  0
   -1.0324    0.0790    1.7721 H   0  0  0  0  0  0  0  0  0  0  0  0
    0.4023    0.4502    3.3126 C   0  0  0  0  0  0  0  0  0  0  0  0
    1.2225    1.1759    3.3178 H   0  0  0  0  0  0  0  0  0  0  0  0
   -0.4216    0.8588    3.9053 H   0  0  0  0  0  0  0  0  0  0  0  0
    0.7472   -0.4744    3.7876 H   0  0  0  0  0  0  0  0  0  0  0  0
  1  2  1  0  0  0  0
  2  3  1  0  0  0  0
  2  4  1  0  0  0  0
  2  5  1  0  0  0  0
  5  6  2  0  0  0  0
  5  7  1  0  0  0  0
  7  8  1  0  0  0  0
  7  9  1  0  0  0  0
  9 10  1  0  0  0  0
  9 11  1  0  0  0  0
  9 21  1  0  0  0  0
 11 12  1  0  0  0  0
 11 13  1  0  0  0  0
 11 14  1  0  0  0  0
 14 15  1  0  0  0  0
 14 16  1  0  0  0  0
 14 17  1  0  0  0  0
 17 18  2  0  0  0  0
 17 19  1  0  0  0  0
 19 20  1  0  0  0  0
 21 22  2  0  0  0  0
 21 23  1  0  0  0  0
 23 24  1  0  0  0  0
 23 25  1  0  0  0  0
 25 26  1  0  0  0  0
 25 27  1  0  0  0  0
 25 28  1  0  0  0  0
M  END
$$$$

  -OEChem-02102214123D

 28 27  0     1  0  0  0  0  0999 V2000
   -2.6812   -4.1636    0.1281 H   0  0  0  0  0  0  0  0  0  0  0  0
   -2.6340   -3.1754   -0.3386 C   0  0  0  0  0  0  0  0  0  0  0  0
   -3.4973   -2.5903   -0.0129 H   0  0  0  0  0  0  0  0  0  0  0  0
   -2.6725   -3.2975   -1.4238 H   0  0  0  0  0  0  0  0  0  0  0  0
   -1.3506   -2.4718    0.0590 C   0  0  0  0  0  0  0  0  0  0  0  0
   -0.6004   -2.9895    0.8660 O   0  0  0  0  0  0  0  0  0  0  0  0
   -1.0470   -1.2463   -0.4996 N   0  0  0  0  0  0  0  0  0  0  0  0
   -1.6271   -0.9884   -1.2940 H   0  0  0  0  0  0  0  0  0  0  0  0
    0.2890   -0.6228   -0.4238 C   0  0  1  0  0  0  0  0  0  0  0  0
    1.0234   -1.2976   -0.8779 H   0  0  0  0  0  0  0  0  0  0  0  0
    0.2539    0.7096   -1.2011 C   0  0  0  0  0  0  0  0  0  0  0  0
   -0.4381    1.4051   -0.7145 H   0  0  0  0  0  0  0  0  0  0  0  0
    1.2553    1.1511   -1.1328 H   0  0  0  0  0  0  0  0  0  0  0  0
   -0.1072    0.6000   -2.7016 C   0  0  0  0  0  0  0  0  0  0  0  0
   -1.1911    0.6942   -2.8085 H   0  0  0  0  0  0  0  0  0  0  0  0
    0.3425    1.4376   -3.2434 H   0  0  0  0  0  0  0  0  0  0  0  0
    0.3102   -0.7047   -3.3739 C   0  0  0  0  0  0  0  0  0  0  0  0
    1.4584   -0.8187   -3.7610 O   0  0  0  0  0  0  0  0  0  0  0  0
   -0.6236   -1.6791   -3.4947 O   0  0  0  0  0  0  0  0  0  0  0  0
   -0.1689   -2.4140   -3.9379 H   0  0  0  0  0  0  0  0  0  0  0  0
    0.7918   -0.3507    1.0130 C   0  0  0  0  0  0  0  0  0  0  0  0
    1.9919   -0.3827    1.2497 O   0  0  0  0  0  0  0  0  0  0  0  0
   -0.0613    0.2099    1.9461 N   0  0  0  0  0  0  0  0  0  0  0  0
   -1.0515    0.1014    1.7522 H   0  0  0  0  0  0  0  0  0  0  0  0
    0.3540    0.4947    3.3139 C   0  0  0  0  0  0  0  0  0  0  0  0
    1.1806    1.2131    3.3227 H   0  0  0  0  0  0  0  0  0  0  0  0
   -0.4783    0.9218    3.8811 H   0  0  0  0  0  0  0  0  0  0  0  0
    0.6809   -0.4237    3.8130 H   0  0  0  0  0  0  0  0  0  0  0  0
  1  2  1  0  0  0  0
  2  3  1  0  0  0  0
  2  4  1  0  0  0  0
  2  5  1  0  0  0  0
  5  6  2  0  0  0  0
  5  7  1  0  0  0  0
  7  8  1  0  0  0  0
  7  9  1  0  0  0  0
  9 10  1  0  0  0  0
  9 11  1  0  0  0  0
  9 21  1  0  0  0  0
 11 12  1  0  0  0  0
 11 13  1  0  0  0  0
 11 14  1  0  0  0  0
 14 15  1  0  0  0  0
 14 16  1  0  0  0  0
 14 17  1  0  0  0  0
 17 18  2  0  0  0  0
 17 19  1  0  0  0  0
 19 20  1  0  0  0  0
 21 22  2  0  0  0  0
 21 23  1  0  0  0  0
 23 24  1  0  0  0  0
 23 25  1  0  0  0  0
 25 26  1  0  0  0  0
 25 27  1  0  0  0  0
 25 28  1  0  0  0  0
M  END
$$$$

  -OEChem-02102214123D

 28 27  0     1  0  0  0  0  0999 V2000
   -2.6910   -4.1812    0.1873 H   0  0  0  0  0  0  0  0  0  0  0  0
   -2.6422   -3.1969   -0.2871 C   0  0  0  0  0  0  0  0  0  0  0  0
   -3.5007   -2.6053    0.0397 H   0  0  0  0  0  0  0  0  0  0  0  0
   -2.6892   -3.3269   -1.3708 H   0  0  0  0  0  0  0  0  0  0  0  0
   -1.3531   -2.4958    0.0969 C   0  0  0  0  0  0  0  0  0  0  0  0
   -0.6068   -3.0035    0.9134 O   0  0  0  0  0  0  0  0  0  0  0  0
   -1.0422   -1.2811   -0.4809 N   0  0  0  0  0  0  0  0  0  0  0  0
   -1.6220   -1.0298   -1.2794 H   0  0  0  0  0  0  0  0  0  0  0  0
    0.2925   -0.6534   -0.4029 C   0  0  1  0  0  0  0  0  0  0  0  0
    1.0308   -1.3372   -0.8380 H   0  0  0  0  0  0  0  0  0  0  0  0
    0.2791    0.6636   -1.2078 C   0  0  0  0  0  0  0  0  0  0  0  0
   -0.4186    1.3669   -0.7404 H   0  0  0  0  0  0  0  0  0  0  0  0
    1.2797    1.1034   -1.1213 H   0  0  0  0  0  0  0  0  0  0  0  0
   -0.0519    0.5593   -2.7187 C   0  0  0  0  0  0  0  0  0  0  0  0
   -1.0684    0.9307   -2.8761 H   0  0  0  0  0  0  0  0  0  0  0  0
    0.6181    1.2202   -3.2772 H   0  0  0  0  0  0  0  0  0  0  0  0
    0.0215   -0.8371   -3.3316 C   0  0  0  0  0  0  0  0  0  0  0  0
    1.0997   -1.2443   -3.7227 O   0  0  0  0  0  0  0  0  0  0  0  0
   -1.1247   -1.5565   -3.4102 O   0  0  0  0  0  0  0  0  0  0  0  0
   -0.8723   -2.3845   -3.8514 H   0  0  0  0  0  0  0  0  0  0  0  0
    0.7789   -0.3528    1.0338 C   0  0  0  0  0  0  0  0  0  0  0  0
    1.9771   -0.3680    1.2816 O   0  0  0  0  0  0  0  0  0  0  0  0
   -0.0859    0.2238    1.9462 N   0  0  0  0  0  0  0  0  0  0  0  0
   -1.0739    0.1047    1.7474 H   0  0  0  0  0  0  0  0  0  0  0  0
    0.3176    0.5492    3.3084 C   0  0  0  0  0  0  0  0  0  0  0  0
    1.1400    1.2724    3.3025 H   0  0  0  0  0  0  0  0  0  0  0  0
   -0.5211    0.9872    3.8575 H   0  0  0  0  0  0  0  0  0  0  0  0
    0.6462   -0.3528    3.8354 H   0  0  0  0  0  0  0  0  0  0  0  0
  1  2  1  0  0  0  0
  2  3  1  0  0  0  0
  2  4  1  0  0  0  0
  2  5  1  0  0  0  0
  5  6  2  0  0  0  0
  5  7  1  0  0  0  0
  7  8  1  0  0  0  0
  7  9  1  0  0  0  0
  9 10  1  0  0  0  0
  9 11  1  0  0  0  0
  9 21  1  0  0  0  0
 11 12  1  0  0  0  0
 11 13  1  0  0  0  0
 11 14  1  0  0  0  0
 14 15  1  0  0  0  0
 14 16  1  0  0  0  0
 14 17  1  0  0  0  0
 17 18  2  0  0  0  0
 17 19  1  0  0  0  0
 19 20  1  0  0  0  0
 21 22  2  0  0  0  0
 21 23  1  0  0  0  0
 23 24  1  0  0  0  0
 23 25  1  0  0  0  0
 25 26  1  0  0  0  0
 25 27  1  0  0  0  0
 25 28  1  0  0  0  0
M  END
$$$$

  -OEChem-02102214123D

 28 27  0     1  0  0  0  0  0999 V2000
   -2.7092   -4.1786    0.3226 H   0  0  0  0  0  0  0  0  0  0  0  0
   -2.6424   -3.2258   -0.2105 C   0  0  0  0  0  0  0  0  0  0  0  0
   -3.4935   -2.6027    0.0741 H   0  0  0  0  0  0  0  0  0  0  0  0
   -2.6845   -3.4209   -1.2845 H   0  0  0  0  0  0  0  0  0  0  0  0
   -1.3449   -2.5224    0.1391 C   0  0  0  0  0  0  0  0  0  0  0  0
   -0.5854   -3.0206    0.9493 O   0  0  0  0  0  0  0  0  0  0  0  0
   -1.0419   -1.3152   -0.4585 N   0  0  0  0  0  0  0  0  0  0  0  0
   -1.6495   -1.0499   -1.2328 H   0  0  0  0  0  0  0  0  0  0  0  0
    0.2875   -0.6749   -0.3925 C   0  0  1  0  0  0  0  0  0  0  0  0
    1.0261   -1.3661   -0.8155 H   0  0  0  0  0  0  0  0  0  0  0  0
    0.2933    0.6264   -1.2248 C   0  0  0  0  0  0  0  0  0  0  0  0
   -0.4225    1.3238   -0.7767 H   0  0  0  0  0  0  0  0  0  0  0  0
    1.2852    1.0816   -1.1189 H   0  0  0  0  0  0  0  0  0  0  0  0
   -0.0139    0.5236   -2.7432 C   0  0  0  0  0  0  0  0  0  0  0  0
   -0.8784    1.1552   -2.9661 H   0  0  0  0  0  0  0  0  0  0  0  0
    0.8328    0.9416   -3.2965 H   0  0  0  0  0  0  0  0  0  0  0  0
   -0.2994   -0.8654   -3.3091 C   0  0  0  0  0  0  0  0  0  0  0  0
    0.6295   -1.5148   -3.7524 O   0  0  0  0  0  0  0  0  0  0  0  0
   -1.5825   -1.3039   -3.3026 O   0  0  0  0  0  0  0  0  0  0  0  0
   -1.5575   -2.1591   -3.7630 H   0  0  0  0  0  0  0  0  0  0  0  0
    0.7672   -0.3481    1.0408 C   0  0  0  0  0  0  0  0  0  0  0  0
    1.9645   -0.3517    1.2940 O   0  0  0  0  0  0  0  0  0  0  0  0
   -0.1057    0.2350    1.9415 N   0  0  0  0  0  0  0  0  0  0  0  0
   -1.0922    0.1144    1.7363 H   0  0  0  0  0  0  0  0  0  0  0  0
    0.2869    0.5796    3.3022 C   0  0  0  0  0  0  0  0  0  0  0  0
    1.1077    1.3045    3.2927 H   0  0  0  0  0  0  0  0  0  0  0  0
   -0.5570    1.0228    3.8392 H   0  0  0  0  0  0  0  0  0  0  0  0
    0.6133   -0.3146    3.8438 H   0  0  0  0  0  0  0  0  0  0  0  0
  1  2  1  0  0  0  0
  2  3  1  0  0  0  0
  2  4  1  0  0  0  0
  2  5  1  0  0  0  0
  5  6  2  0  0  0  0
  5  7  1  0  0  0  0
  7  8  1  0  0  0  0
  7  9  1  0  0  0  0
  9 10  1  0  0  0  0
  9 11  1  0  0  0  0
  9 21  1  0  0  0  0
 11 12  1  0  0  0  0
 11 13  1  0  0  0  0
 11 14  1  0  0  0  0
 14 15  1  0  0  0  0
 14 16  1  0  0  0  0
 14 17  1  0  0  0  0
 17 18  2  0  0  0  0
 17 19  1  0  0  0  0
 19 20  1  0  0  0  0
 21 22  2  0  0  0  0
 21 23  1  0  0  0  0
 23 24  1  0  0  0  0
 23 25  1  0  0  0  0
 25 26  1  0  0  0  0
 25 27  1  0  0  0  0
 25 28  1  0  0  0  0
M  END
$$$$

  -OEChem-02102214123D

 28 27  0     1  0  0  0  0  0999 V2000
   -2.7166   -4.1762    0.4262 H   0  0  0  0  0  0  0  0  0  0  0  0
   -2.6489   -3.2397   -0.1348 C   0  0  0  0  0  0  0  0  0  0  0  0
   -3.4868   -2.5985    0.1490 H   0  0  0  0  0  0  0  0  0  0  0  0
   -2.7141   -3.4642   -1.2018 H   0  0  0  0  0  0  0  0  0  0  0  0
   -1.3358   -2.5438    0.1681 C   0  0  0  0  0  0  0  0  0  0  0  0
   -0.5493   -3.0461    0.9496 O   0  0  0  0  0  0  0  0  0  0  0  0
   -1.0471   -1.3386   -0.4403 N   0  0  0  0  0  0  0  0  0  0  0  0
   -1.7009   -1.0350   -1.1613 H   0  0  0  0  0  0  0  0  0  0  0  0
    0.2727   -0.6793   -0.3904 C   0  0  1  0  0  0  0  0  0  0  0  0
    1.0125   -1.3755   -0.8027 H   0  0  0  0  0  0  0  0  0  0  0  0
    0.2923    0.6038   -1.2521 C   0  0  0  0  0  0  0  0  0  0  0  0
   -0.4466    1.2925   -0.8291 H   0  0  0  0  0  0  0  0  0  0  0  0
    1.2723    1.0811   -1.1333 H   0  0  0  0  0  0  0  0  0  0  0  0
    0.0067    0.4814   -2.7739 C   0  0  0  0  0  0  0  0  0  0  0  0
   -0.6381    1.3110   -3.0769 H   0  0  0  0  0  0  0  0  0  0  0  0
    0.9567    0.6119   -3.3020 H   0  0  0  0  0  0  0  0  0  0  0  0
   -0.6158   -0.8138   -3.2897 C   0  0  0  0  0  0  0  0  0  0  0  0
    0.1059   -1.6358   -3.8233 O   0  0  0  0  0  0  0  0  0  0  0  0
   -1.9547   -0.9766   -3.1491 O   0  0  0  0  0  0  0  0  0  0  0  0
   -2.1597   -1.7995   -3.6235 H   0  0  0  0  0  0  0  0  0  0  0  0
    0.7540   -0.3339    1.0375 C   0  0  0  0  0  0  0  0  0  0  0  0
    1.9524   -0.3181    1.2850 O   0  0  0  0  0  0  0  0  0  0  0  0
   -0.1230    0.2440    1.9374 N   0  0  0  0  0  0  0  0  0  0  0  0
   -1.1086    0.1088    1.7371 H   0  0  0  0  0  0  0  0  0  0  0  0
    0.2705    0.5969    3.2957 C   0  0  0  0  0  0  0  0  0  0  0  0
    1.0776    1.3370    3.2815 H   0  0  0  0  0  0  0  0  0  0  0  0
   -0.5785    1.0242    3.8373 H   0  0  0  0  0  0  0  0  0  0  0  0
    0.6167   -0.2908    3.8356 H   0  0  0  0  0  0  0  0  0  0  0  0
  1  2  1  0  0  0  0
  2  3  1  0  0  0  0
  2  4  1  0  0  0  0
  2  5  1  0  0  0  0
  5  6  2  0  0  0  0
  5  7  1  0  0  0  0
  7  8  1  0  0  0  0
  7  9  1  0  0  0  0
  9 10  1  0  0  0  0
  9 11  1  0  0  0  0
  9 21  1  0  0  0  0
 11 12  1  0  0  0  0
 11 13  1  0  0  0  0
 11 14  1  0  0  0  0
 14 15  1  0  0  0  0
 14 16  1  0  0  0  0
 14 17  1  0  0  0  0
 17 18  2  0  0  0  0
 17 19  1  0  0  0  0
 19 20  1  0  0  0  0
 21 22  2  0  0  0  0
 21 23  1  0  0  0  0
 23 24  1  0  0  0  0
 23 25  1  0  0  0  0
 25 26  1  0  0  0  0
 25 27  1  0  0  0  0
 25 28  1  0  0  0  0
M  END
$$$$

  -OEChem-02102214123D

 28 27  0     1  0  0  0  0  0999 V2000
   -2.7789   -4.1173    0.5806 H   0  0  0  0  0  0  0  0  0  0  0  0
   -2.6772   -3.2366   -0.0601 C   0  0  0  0  0  0  0  0  0  0  0  0
   -3.4952   -2.5463    0.1592 H   0  0  0  0  0  0  0  0  0  0  0  0
   -2.7433   -3.5519   -1.1040 H   0  0  0  0  0  0  0  0  0  0  0  0
   -1.3425   -2.5612    0.1910 C   0  0  0  0  0  0  0  0  0  0  0  0
   -0.5328   -3.0750    0.9408 O   0  0  0  0  0  0  0  0  0  0  0  0
   -1.0564   -1.3624   -0.4309 N   0  0  0  0  0  0  0  0  0  0  0  0
   -1.7510   -1.0138   -1.0905 H   0  0  0  0  0  0  0  0  0  0  0  0
    0.2591   -0.6966   -0.3950 C   0  0  1  0  0  0  0  0  0  0  0  0
    0.9969   -1.4015   -0.7959 H   0  0  0  0  0  0  0  0  0  0  0  0
    0.2925    0.5711   -1.2800 C   0  0  0  0  0  0  0  0  0  0  0  0
   -0.4532    1.2646   -0.8768 H   0  0  0  0  0  0  0  0  0  0  0  0
    1.2704    1.0523   -1.1612 H   0  0  0  0  0  0  0  0  0  0  0  0
    0.0184    0.4229   -2.8008 C   0  0  0  0  0  0  0  0  0  0  0  0
   -0.3770    1.3702   -3.1777 H   0  0  0  0  0  0  0  0  0  0  0  0
    0.9838    0.2629   -3.2916 H   0  0  0  0  0  0  0  0  0  0  0  0
   -0.9091   -0.6966   -3.2684 C   0  0  0  0  0  0  0  0  0  0  0  0
   -0.4419   -1.6047   -3.9308 O   0  0  0  0  0  0  0  0  0  0  0  0
   -2.2251   -0.6069   -2.9524 O   0  0  0  0  0  0  0  0  0  0  0  0
   -2.6529   -1.3320   -3.4376 H   0  0  0  0  0  0  0  0  0  0  0  0
    0.7450   -0.3309    1.0264 C   0  0  0  0  0  0  0  0  0  0  0  0
    1.9446   -0.3027    1.2667 O   0  0  0  0  0  0  0  0  0  0  0  0
   -0.1300    0.2541    1.9237 N   0  0  0  0  0  0  0  0  0  0  0  0
   -1.1171    0.1209    1.7297 H   0  0  0  0  0  0  0  0  0  0  0  0
    0.2723    0.6527    3.2667 C   0  0  0  0  0  0  0  0  0  0  0  0
    1.0756    1.3958    3.2220 H   0  0  0  0  0  0  0  0  0  0  0  0
   -0.5744    1.0942    3.8008 H   0  0  0  0  0  0  0  0  0  0  0  0
    0.6267   -0.2152    3.8328 H   0  0  0  0  0  0  0  0  0  0  0  0
  1  2  1  0  0  0  0
  2  3  1  0  0  0  0
  2  4  1  0  0  0  0
  2  5  1  0  0  0  0
  5  6  2  0  0  0  0
  5  7  1  0  0  0  0
  7  8  1  0  0  0  0
  7  9  1  0  0  0  0
  9 10  1  0  0  0  0
  9 11  1  0  0  0  0
  9 21  1  0  0  0  0
 11 12  1  0  0  0  0
 11 13  1  0  0  0  0
 11 14  1  0  0  0  0
 14 15  1  0  0  0  0
 14 16  1  0  0  0  0
 14 17  1  0  0  0  0
 17 18  2  0  0  0  0
 17 19  1  0  0  0  0
 19 20  1  0  0  0  0
 21 22  2  0  0  0  0
 21 23  1  0  0  0  0
 23 24  1  0  0  0  0
 23 25  1  0  0  0  0
 25 26  1  0  0  0  0
 25 27  1  0  0  0  0
 25 28  1  0  0  0  0
M  END
$$$$

  -OEChem-02102214123D

 28 27  0     1  0  0  0  0  0999 V2000
   -2.6169   -4.2294    0.5191 H   0  0  0  0  0  0  0  0  0  0  0  0
   -2.6354   -3.2545    0.0237 C   0  0  0  0  0  0  0  0  0  0  0  0
   -3.3982   -2.6325    0.4980 H   0  0  0  0  0  0  0  0  0  0  0  0
   -2.8948   -3.3985   -1.0279 H   0  0  0  0  0  0  0  0  0  0  0  0
   -1.2779   -2.5872    0.1348 C   0  0  0  0  0  0  0  0  0  0  0  0
   -0.3634   -3.1540    0.7049 O   0  0  0  0  0  0  0  0  0  0  0  0
   -1.0874   -1.3356   -0.4133 N   0  0  0  0  0  0  0  0  0  0  0  0
   -1.8819   -0.9240   -0.9040 H   0  0  0  0  0  0  0  0  0  0  0  0
    0.1967   -0.6126   -0.4365 C   0  0  1  0  0  0  0  0  0  0  0  0
    0.9253   -1.2545   -0.9447 H   0  0  0  0  0  0  0  0  0  0  0  0
    0.1162    0.7163   -1.2261 C   0  0  0  0  0  0  0  0  0  0  0  0
   -0.6125    1.3585   -0.7198 H   0  0  0  0  0  0  0  0  0  0  0  0
    1.0880    1.2189   -1.1561 H   0  0  0  0  0  0  0  0  0  0  0  0
   -0.2746    0.6467   -2.7261 C   0  0  0  0  0  0  0  0  0  0  0  0
   -0.4830    1.6592   -3.0829 H   0  0  0  0  0  0  0  0  0  0  0  0
    0.6008    0.2875   -3.2757 H   0  0  0  0  0  0  0  0  0  0  0  0
   -1.4476   -0.2440   -3.1277 C   0  0  0  0  0  0  0  0  0  0  0  0
   -2.5108   -0.1153   -2.5387 O   0  0  0  0  0  0  0  0  0  0  0  0
   -1.2499   -1.1326   -4.1283 O   0  0  0  0  0  0  0  0  0  0  0  0
   -2.0937   -1.5884   -4.2669 H   0  0  0  0  0  0  0  0  0  0  0  0
    0.7792   -0.3321    0.9669 C   0  0  0  0  0  0  0  0  0  0  0  0
    1.9921   -0.2812    1.1208 O   0  0  0  0  0  0  0  0  0  0  0  0
   -0.0450    0.1416    1.9716 N   0  0  0  0  0  0  0  0  0  0  0  0
   -1.0407    0.0057    1.8311 H   0  0  0  0  0  0  0  0  0  0  0  0
    0.4405    0.4429    3.3123 C   0  0  0  0  0  0  0  0  0  0  0  0
    1.2239    1.2074    3.2745 H   0  0  0  0  0  0  0  0  0  0  0  0
   -0.3764    0.8190    3.9353 H   0  0  0  0  0  0  0  0  0  0  0  0
    0.8503   -0.4582    3.7807 H   0  0  0  0  0  0  0  0  0  0  0  0
  1  2  1  0  0  0  0
  2  3  1  0  0  0  0
  2  4  1  0  0  0  0
  2  5  1  0  0  0  0
  5  6  2  0  0  0  0
  5  7  1  0  0  0  0
  7  8  1  0  0  0  0
  7  9  1  0  0  0  0
  9 10  1  0  0  0  0
  9 11  1  0  0  0  0
  9 21  1  0  0  0  0
 11 12  1  0  0  0  0
 11 13  1  0  0  0  0
 11 14  1  0  0  0  0
 14 15  1  0  0  0  0
 14 16  1  0  0  0  0
 14 17  1  0  0  0  0
 17 18  2  0  0  0  0
 17 19  1  0  0  0  0
 19 20  1  0  0  0  0
 21 22  2  0  0  0  0
 21 23  1  0  0  0  0
 23 24  1  0  0  0  0
 23 25  1  0  0  0  0
 25 26  1  0  0  0  0
 25 27  1  0  0  0  0
 25 28  1  0  0  0  0
M  END
$$$$

  -OEChem-02102214123D

 28 27  0     1  0  0  0  0  0999 V2000
   -2.6371   -4.2044    0.4789 H   0  0  0  0  0  0  0  0  0  0  0  0
   -2.6493   -3.2184    0.0058 C   0  0  0  0  0  0  0  0  0  0  0  0
   -3.3866   -2.5925    0.5142 H   0  0  0  0  0  0  0  0  0  0  0  0
   -2.9391   -3.3339   -1.0414 H   0  0  0  0  0  0  0  0  0  0  0  0
   -1.2765   -2.5801    0.0944 C   0  0  0  0  0  0  0  0  0  0  0  0
   -0.3602   -3.1720    0.6356 O   0  0  0  0  0  0  0  0  0  0  0  0
   -1.0744   -1.3239   -0.4382 N   0  0  0  0  0  0  0  0  0  0  0  0
   -1.8787   -0.8732   -0.8756 H   0  0  0  0  0  0  0  0  0  0  0  0
    0.2109   -0.6044   -0.4370 C   0  0  1  0  0  0  0  0  0  0  0  0
    0.9451   -1.2420   -0.9427 H   0  0  0  0  0  0  0  0  0  0  0  0
    0.1324    0.7285   -1.2175 C   0  0  0  0  0  0  0  0  0  0  0  0
   -0.5897    1.3833   -0.7176 H   0  0  0  0  0  0  0  0  0  0  0  0
    1.1102    1.2194   -1.1510 H   0  0  0  0  0  0  0  0  0  0  0  0
   -0.2461    0.6284   -2.7169 C   0  0  0  0  0  0  0  0  0  0  0  0
   -0.2222    1.6322   -3.1494 H   0  0  0  0  0  0  0  0  0  0  0  0
    0.5272    0.0408   -3.2204 H   0  0  0  0  0  0  0  0  0  0  0  0
   -1.5988    0.0103   -3.0693 C   0  0  0  0  0  0  0  0  0  0  0  0
   -2.5520    0.1905   -2.3257 O   0  0  0  0  0  0  0  0  0  0  0  0
   -1.6715   -0.7069   -4.2137 O   0  0  0  0  0  0  0  0  0  0  0  0
   -2.5919   -0.9970   -4.3016 H   0  0  0  0  0  0  0  0  0  0  0  0
    0.7774   -0.3377    0.9754 C   0  0  0  0  0  0  0  0  0  0  0  0
    1.9885   -0.2945    1.1448 O   0  0  0  0  0  0  0  0  0  0  0  0
   -0.0559    0.1292    1.9757 N   0  0  0  0  0  0  0  0  0  0  0  0
   -1.0514    0.0085    1.8208 H   0  0  0  0  0  0  0  0  0  0  0  0
    0.4163    0.4250    3.3227 C   0  0  0  0  0  0  0  0  0  0  0  0
    1.1998    1.1898    3.2959 H   0  0  0  0  0  0  0  0  0  0  0  0
   -0.4069    0.7982    3.9393 H   0  0  0  0  0  0  0  0  0  0  0  0
    0.8219   -0.4776    3.7920 H   0  0  0  0  0  0  0  0  0  0  0  0
  1  2  1  0  0  0  0
  2  3  1  0  0  0  0
  2  4  1  0  0  0  0
  2  5  1  0  0  0  0
  5  6  2  0  0  0  0
  5  7  1  0  0  0  0
  7  8  1  0  0  0  0
  7  9  1  0  0  0  0
  9 10  1  0  0  0  0
  9 11  1  0  0  0  0
  9 21  1  0  0  0  0
 11 12  1  0  0  0  0
 11 13  1  0  0  0  0
 11 14  1  0  0  0  0
 14 15  1  0  0  0  0
 14 16  1  0  0  0  0
 14 17  1  0  0  0  0
 17 18  2  0  0  0  0
 17 19  1  0  0  0  0
 19 20  1  0  0  0  0
 21 22  2  0  0  0  0
 21 23  1  0  0  0  0
 23 24  1  0  0  0  0
 23 25  1  0  0  0  0
 25 26  1  0  0  0  0
 25 27  1  0  0  0  0
 25 28  1  0  0  0  0
M  END
$$$$

  -OEChem-02102214123D

 28 27  0     1  0  0  0  0  0999 V2000
   -2.6419   -4.1842    0.4626 H   0  0  0  0  0  0  0  0  0  0  0  0
   -2.6479   -3.1974   -0.0091 C   0  0  0  0  0  0  0  0  0  0  0  0
   -3.3776   -2.5661    0.5035 H   0  0  0  0  0  0  0  0  0  0  0  0
   -2.9430   -3.3087   -1.0552 H   0  0  0  0  0  0  0  0  0  0  0  0
   -1.2694   -2.5706    0.0744 C   0  0  0  0  0  0  0  0  0  0  0  0
   -0.3568   -3.1712    0.6124 O   0  0  0  0  0  0  0  0  0  0  0  0
   -1.0578   -1.3148   -0.4555 N   0  0  0  0  0  0  0  0  0  0  0  0
   -1.8613   -0.8486   -0.8779 H   0  0  0  0  0  0  0  0  0  0  0  0
    0.2294   -0.5990   -0.4365 C   0  0  1  0  0  0  0  0  0  0  0  0
    0.9702   -1.2336   -0.9362 H   0  0  0  0  0  0  0  0  0  0  0  0
    0.1419    0.7332   -1.2133 C   0  0  0  0  0  0  0  0  0  0  0  0
   -0.5698    1.4023   -0.7171 H   0  0  0  0  0  0  0  0  0  0  0  0
    1.1247    1.2154   -1.1590 H   0  0  0  0  0  0  0  0  0  0  0  0
   -0.2335    0.5915   -2.7091 C   0  0  0  0  0  0  0  0  0  0  0  0
    0.0100    1.5313   -3.2123 H   0  0  0  0  0  0  0  0  0  0  0  0
    0.3925   -0.1865   -3.1560 H   0  0  0  0  0  0  0  0  0  0  0  0
   -1.6948    0.2764   -3.0381 C   0  0  0  0  0  0  0  0  0  0  0  0
   -2.5552    0.3793   -2.1760 O   0  0  0  0  0  0  0  0  0  0  0  0
   -1.9584   -0.1025   -4.3090 O   0  0  0  0  0  0  0  0  0  0  0  0
   -2.9164   -0.2381   -4.3639 H   0  0  0  0  0  0  0  0  0  0  0  0
    0.7804   -0.3324    0.9818 C   0  0  0  0  0  0  0  0  0  0  0  0
    1.9896   -0.2958    1.1666 O   0  0  0  0  0  0  0  0  0  0  0  0
   -0.0636    0.1379    1.9714 N   0  0  0  0  0  0  0  0  0  0  0  0
   -1.0578    0.0269    1.8011 H   0  0  0  0  0  0  0  0  0  0  0  0
    0.3912    0.4264    3.3256 C   0  0  0  0  0  0  0  0  0  0  0  0
    1.1819    1.1841    3.3124 H   0  0  0  0  0  0  0  0  0  0  0  0
   -0.4376    0.8056    3.9308 H   0  0  0  0  0  0  0  0  0  0  0  0
    0.7811   -0.4811    3.7986 H   0  0  0  0  0  0  0  0  0  0  0  0
  1  2  1  0  0  0  0
  2  3  1  0  0  0  0
  2  4  1  0  0  0  0
  2  5  1  0  0  0  0
  5  6  2  0  0  0  0
  5  7  1  0  0  0  0
  7  8  1  0  0  0  0
  7  9  1  0  0  0  0
  9 10  1  0  0  0  0
  9 11  1  0  0  0  0
  9 21  1  0  0  0  0
 11 12  1  0  0  0  0
 11 13  1  0  0  0  0
 11 14  1  0  0  0  0
 14 15  1  0  0  0  0
 14 16  1  0  0  0  0
 14 17  1  0  0  0  0
 17 18  2  0  0  0  0
 17 19  1  0  0  0  0
 19 20  1  0  0  0  0
 21 22  2  0  0  0  0
 21 23  1  0  0  0  0
 23 24  1  0  0  0  0
 23 25  1  0  0  0  0
 25 26  1  0  0  0  0
 25 27  1  0  0  0  0
 25 28  1  0  0  0  0
M  END
$$$$

  -OEChem-02102214123D

 28 27  0     1  0  0  0  0  0999 V2000
   -2.6467   -4.1870    0.4261 H   0  0  0  0  0  0  0  0  0  0  0  0
   -2.6458   -3.1969   -0.0383 C   0  0  0  0  0  0  0  0  0  0  0  0
   -3.3928   -2.5736    0.4587 H   0  0  0  0  0  0  0  0  0  0  0  0
   -2.9126   -3.3027   -1.0925 H   0  0  0  0  0  0  0  0  0  0  0  0
   -1.2737   -2.5624    0.0868 C   0  0  0  0  0  0  0  0  0  0  0  0
   -0.3779   -3.1516    0.6643 O   0  0  0  0  0  0  0  0  0  0  0  0
   -1.0474   -1.3141   -0.4544 N   0  0  0  0  0  0  0  0  0  0  0  0
   -1.8323   -0.8658   -0.9285 H   0  0  0  0  0  0  0  0  0  0  0  0
    0.2429   -0.6046   -0.4294 C   0  0  1  0  0  0  0  0  0  0  0  0
    0.9873   -1.2432   -0.9181 H   0  0  0  0  0  0  0  0  0  0  0  0
    0.1456    0.7162   -1.2199 C   0  0  0  0  0  0  0  0  0  0  0  0
   -0.5616    1.3972   -0.7338 H   0  0  0  0  0  0  0  0  0  0  0  0
    1.1297    1.1971   -1.1784 H   0  0  0  0  0  0  0  0  0  0  0  0
   -0.2291    0.5274   -2.7104 C   0  0  0  0  0  0  0  0  0  0  0  0
    0.2248    1.3465   -3.2755 H   0  0  0  0  0  0  0  0  0  0  0  0
    0.2065   -0.4026   -3.0868 H   0  0  0  0  0  0  0  0  0  0  0  0
   -1.7243    0.5390   -3.0420 C   0  0  0  0  0  0  0  0  0  0  0  0
   -2.5536    0.3984   -2.1554 O   0  0  0  0  0  0  0  0  0  0  0  0
   -2.0503    0.7014   -4.3441 O   0  0  0  0  0  0  0  0  0  0  0  0
   -3.0186    0.6948   -4.3882 H   0  0  0  0  0  0  0  0  0  0  0  0
    0.7837   -0.3220    0.9895 C   0  0  0  0  0  0  0  0  0  0  0  0
    1.9917   -0.2852    1.1816 O   0  0  0  0  0  0  0  0  0  0  0  0
   -0.0654    0.1655    1.9665 N   0  0  0  0  0  0  0  0  0  0  0  0
   -1.0583    0.0485    1.7922 H   0  0  0  0  0  0  0  0  0  0  0  0
    0.3806    0.4653    3.3216 C   0  0  0  0  0  0  0  0  0  0  0  0
    1.1725    1.2216    3.3080 H   0  0  0  0  0  0  0  0  0  0  0  0
   -0.4520    0.8508    3.9177 H   0  0  0  0  0  0  0  0  0  0  0  0
    0.7662   -0.4386    3.8049 H   0  0  0  0  0  0  0  0  0  0  0  0
  1  2  1  0  0  0  0
  2  3  1  0  0  0  0
  2  4  1  0  0  0  0
  2  5  1  0  0  0  0
  5  6  2  0  0  0  0
  5  7  1  0  0  0  0
  7  8  1  0  0  0  0
  7  9  1  0  0  0  0
  9 10  1  0  0  0  0
  9 11  1  0  0  0  0
  9 21  1  0  0  0  0
 11 12  1  0  0  0  0
 11 13  1  0  0  0  0
 11 14  1  0  0  0  0
 14 15  1  0  0  0  0
 14 16  1  0  0  0  0
 14 17  1  0  0  0  0
 17 18  2  0  0  0  0
 17 19  1  0  0  0  0
 19 20  1  0  0  0  0
 21 22  2  0  0  0  0
 21 23  1  0  0  0  0
 23 24  1  0  0  0  0
 23 25  1  0  0  0  0
 25 26  1  0  0  0  0
 25 27  1  0  0  0  0
 25 28  1  0  0  0  0
M  END
$$$$

  -OEChem-02102214123D

 28 27  0     1  0  0  0  0  0999 V2000
   -2.6572   -4.1891    0.3859 H   0  0  0  0  0  0  0  0  0  0  0  0
   -2.6455   -3.2014   -0.0838 C   0  0  0  0  0  0  0  0  0  0  0  0
   -3.4217   -2.5836    0.3740 H   0  0  0  0  0  0  0  0  0  0  0  0
   -2.8620   -3.3156   -1.1488 H   0  0  0  0  0  0  0  0  0  0  0  0
   -1.2882   -2.5507    0.1022 C   0  0  0  0  0  0  0  0  0  0  0  0
   -0.4258   -3.1104    0.7551 O   0  0  0  0  0  0  0  0  0  0  0  0
   -1.0401   -1.3183   -0.4646 N   0  0  0  0  0  0  0  0  0  0  0  0
   -1.7824   -0.9221   -1.0433 H   0  0  0  0  0  0  0  0  0  0  0  0
    0.2593   -0.6226   -0.4335 C   0  0  1  0  0  0  0  0  0  0  0  0
    1.0075   -1.2711   -0.9031 H   0  0  0  0  0  0  0  0  0  0  0  0
    0.1521    0.6778   -1.2505 C   0  0  0  0  0  0  0  0  0  0  0  0
   -0.5671    1.3597   -0.7831 H   0  0  0  0  0  0  0  0  0  0  0  0
    1.1287    1.1747   -1.2210 H   0  0  0  0  0  0  0  0  0  0  0  0
   -0.2200    0.4240   -2.7299 C   0  0  0  0  0  0  0  0  0  0  0  0
    0.4185    1.0519   -3.3584 H   0  0  0  0  0  0  0  0  0  0  0  0
   -0.0225   -0.6144   -3.0112 H   0  0  0  0  0  0  0  0  0  0  0  0
   -1.6718    0.7695   -3.0538 C   0  0  0  0  0  0  0  0  0  0  0  0
   -2.5551    0.2697   -2.3729 O   0  0  0  0  0  0  0  0  0  0  0  0
   -1.9069    1.6137   -4.0840 O   0  0  0  0  0  0  0  0  0  0  0  0
   -2.8692    1.7137   -4.1434 H   0  0  0  0  0  0  0  0  0  0  0  0
    0.7861   -0.3094    0.9841 C   0  0  0  0  0  0  0  0  0  0  0  0
    1.9924   -0.2729    1.1868 O   0  0  0  0  0  0  0  0  0  0  0  0
   -0.0702    0.2127    1.9363 N   0  0  0  0  0  0  0  0  0  0  0  0
   -1.0612    0.0834    1.7591 H   0  0  0  0  0  0  0  0  0  0  0  0
    0.3640    0.5475    3.2866 C   0  0  0  0  0  0  0  0  0  0  0  0
    1.1577    1.3016    3.2586 H   0  0  0  0  0  0  0  0  0  0  0  0
   -0.4728    0.9509    3.8646 H   0  0  0  0  0  0  0  0  0  0  0  0
    0.7432   -0.3437    3.7979 H   0  0  0  0  0  0  0  0  0  0  0  0
  1  2  1  0  0  0  0
  2  3  1  0  0  0  0
  2  4  1  0  0  0  0
  2  5  1  0  0  0  0
  5  6  2  0  0  0  0
  5  7  1  0  0  0  0
  7  8  1  0  0  0  0
  7  9  1  0  0  0  0
  9 10  1  0  0  0  0
  9 11  1  0  0  0  0
  9 21  1  0  0  0  0
 11 12  1  0  0  0  0
 11 13  1  0  0  0  0
 11 14  1  0  0  0  0
 14 15  1  0  0  0  0
 14 16  1  0  0  0  0
 14 17  1  0  0  0  0
 17 18  2  0  0  0  0
 17 19  1  0  0  0  0
 19 20  1  0  0  0  0
 21 22  2  0  0  0  0
 21 23  1  0  0  0  0
 23 24  1  0  0  0  0
 23 25  1  0  0  0  0
 25 26  1  0  0  0  0
 25 27  1  0  0  0  0
 25 28  1  0  0  0  0
M  END
$$$$

  -OEChem-02102214123D

 28 27  0     1  0  0  0  0  0999 V2000
   -2.6798   -4.1601    0.3740 H   0  0  0  0  0  0  0  0  0  0  0  0
   -2.6584   -3.1737   -0.0980 C   0  0  0  0  0  0  0  0  0  0  0  0
   -3.4255   -2.5461    0.3617 H   0  0  0  0  0  0  0  0  0  0  0  0
   -2.8799   -3.2881   -1.1619 H   0  0  0  0  0  0  0  0  0  0  0  0
   -1.2932   -2.5381    0.0810 C   0  0  0  0  0  0  0  0  0  0  0  0
   -0.4346   -3.1065    0.7311 O   0  0  0  0  0  0  0  0  0  0  0  0
   -1.0336   -1.3080   -0.4866 N   0  0  0  0  0  0  0  0  0  0  0  0
   -1.7731   -0.8977   -1.0574 H   0  0  0  0  0  0  0  0  0  0  0  0
    0.2729   -0.6218   -0.4451 C   0  0  1  0  0  0  0  0  0  0  0  0
    1.0223   -1.2675   -0.9165 H   0  0  0  0  0  0  0  0  0  0  0  0
    0.1451    0.6724   -1.2617 C   0  0  0  0  0  0  0  0  0  0  0  0
   -0.5877    1.3357   -0.7882 H   0  0  0  0  0  0  0  0  0  0  0  0
    1.1083    1.1952   -1.2408 H   0  0  0  0  0  0  0  0  0  0  0  0
   -0.2332    0.3892   -2.7343 C   0  0  0  0  0  0  0  0  0  0  0  0
    0.5480    0.7941   -3.3842 H   0  0  0  0  0  0  0  0  0  0  0  0
   -0.2909   -0.6834   -2.9406 H   0  0  0  0  0  0  0  0  0  0  0  0
   -1.5557    1.0435   -3.1086 C   0  0  0  0  0  0  0  0  0  0  0  0
   -2.5580    0.6396   -2.5382 O   0  0  0  0  0  0  0  0  0  0  0  0
   -1.5584    2.0305   -4.0331 O   0  0  0  0  0  0  0  0  0  0  0  0
   -2.4809    2.3120   -4.1303 H   0  0  0  0  0  0  0  0  0  0  0  0
    0.7958   -0.3081    0.9740 C   0  0  0  0  0  0  0  0  0  0  0  0
    2.0013   -0.2835    1.1823 O   0  0  0  0  0  0  0  0  0  0  0  0
   -0.0593    0.2245    1.9216 N   0  0  0  0  0  0  0  0  0  0  0  0
   -1.0509    0.1045    1.7423 H   0  0  0  0  0  0  0  0  0  0  0  0
    0.3740    0.5634    3.2715 C   0  0  0  0  0  0  0  0  0  0  0  0
    1.1743    1.3104    3.2416 H   0  0  0  0  0  0  0  0  0  0  0  0
   -0.4607    0.9775    3.8450 H   0  0  0  0  0  0  0  0  0  0  0  0
    0.7442   -0.3279    3.7891 H   0  0  0  0  0  0  0  0  0  0  0  0
  1  2  1  0  0  0  0
  2  3  1  0  0  0  0
  2  4  1  0  0  0  0
  2  5  1  0  0  0  0
  5  6  2  0  0  0  0
  5  7  1  0  0  0  0
  7  8  1  0  0  0  0
  7  9  1  0  0  0  0
  9 10  1  0  0  0  0
  9 11  1  0  0  0  0
  9 21  1  0  0  0  0
 11 12  1  0  0  0  0
 11 13  1  0  0  0  0
 11 14  1  0  0  0  0
 14 15  1  0  0  0  0
 14 16  1  0  0  0  0
 14 17  1  0  0  0  0
 17 18  2  0  0  0  0
 17 19  1  0  0  0  0
 19 20  1  0  0  0  0
 21 22  2  0  0  0  0
 21 23  1  0  0  0  0
 23 24  1  0  0  0  0
 23 25  1  0  0  0  0
 25 26  1  0  0  0  0
 25 27  1  0  0  0  0
 25 28  1  0  0  0  0
M  END
$$$$

  -OEChem-02102214123D

 28 27  0     1  0  0  0  0  0999 V2000
   -2.6725   -4.1821    0.4354 H   0  0  0  0  0  0  0  0  0  0  0  0
   -2.6657   -3.2042   -0.0545 C   0  0  0  0  0  0  0  0  0  0  0  0
   -3.4358   -2.5768    0.4006 H   0  0  0  0  0  0  0  0  0  0  0  0
   -2.8949   -3.3408   -1.1141 H   0  0  0  0  0  0  0  0  0  0  0  0
   -1.3049   -2.5529    0.1024 C   0  0  0  0  0  0  0  0  0  0  0  0
   -0.4323   -3.1108    0.7425 O   0  0  0  0  0  0  0  0  0  0  0  0
   -1.0629   -1.3234   -0.4758 N   0  0  0  0  0  0  0  0  0  0  0  0
   -1.8119   -0.9214   -1.0359 H   0  0  0  0  0  0  0  0  0  0  0  0
    0.2425   -0.6335   -0.4599 C   0  0  1  0  0  0  0  0  0  0  0  0
    0.9830   -1.2848   -0.9379 H   0  0  0  0  0  0  0  0  0  0  0  0
    0.1255    0.6607   -1.2804 C   0  0  0  0  0  0  0  0  0  0  0  0
   -0.6145    1.3106   -0.7994 H   0  0  0  0  0  0  0  0  0  0  0  0
    1.0829    1.1943   -1.2567 H   0  0  0  0  0  0  0  0  0  0  0  0
   -0.2644    0.3981   -2.7535 C   0  0  0  0  0  0  0  0  0  0  0  0
    0.6189    0.5225   -3.3868 H   0  0  0  0  0  0  0  0  0  0  0  0
   -0.6185   -0.6250   -2.9040 H   0  0  0  0  0  0  0  0  0  0  0  0
   -1.3523    1.3550   -3.2200 C   0  0  0  0  0  0  0  0  0  0  0  0
   -2.4808    1.1751   -2.7909 O   0  0  0  0  0  0  0  0  0  0  0  0
   -1.0160    2.3588   -4.0614 O   0  0  0  0  0  0  0  0  0  0  0  0
   -1.8304    2.8567   -4.2304 H   0  0  0  0  0  0  0  0  0  0  0  0
    0.7884   -0.3138    0.9494 C   0  0  0  0  0  0  0  0  0  0  0  0
    1.9972   -0.2823    1.1367 O   0  0  0  0  0  0  0  0  0  0  0  0
   -0.0525    0.2195    1.9092 N   0  0  0  0  0  0  0  0  0  0  0  0
   -1.0469    0.0972    1.7481 H   0  0  0  0  0  0  0  0  0  0  0  0
    0.4036    0.5758    3.2469 C   0  0  0  0  0  0  0  0  0  0  0  0
    1.1840    1.3424    3.1948 H   0  0  0  0  0  0  0  0  0  0  0  0
   -0.4277    0.9715    3.8381 H   0  0  0  0  0  0  0  0  0  0  0  0
    0.8078   -0.3035    3.7594 H   0  0  0  0  0  0  0  0  0  0  0  0
  1  2  1  0  0  0  0
  2  3  1  0  0  0  0
  2  4  1  0  0  0  0
  2  5  1  0  0  0  0
  5  6  2  0  0  0  0
  5  7  1  0  0  0  0
  7  8  1  0  0  0  0
  7  9  1  0  0  0  0
  9 10  1  0  0  0  0
  9 11  1  0  0  0  0
  9 21  1  0  0  0  0
 11 12  1  0  0  0  0
 11 13  1  0  0  0  0
 11 14  1  0  0  0  0
 14 15  1  0  0  0  0
 14 16  1  0  0  0  0
 14 17  1  0  0  0  0
 17 18  2  0  0  0  0
 17 19  1  0  0  0  0
 19 20  1  0  0  0  0
 21 22  2  0  0  0  0
 21 23  1  0  0  0  0
 23 24  1  0  0  0  0
 23 25  1  0  0  0  0
 25 26  1  0  0  0  0
 25 27  1  0  0  0  0
 25 28  1  0  0  0  0
M  END
$$$$

  -OEChem-02102214123D

 28 27  0     1  0  0  0  0  0999 V2000
   -2.6776   -4.1656    0.5253 H   0  0  0  0  0  0  0  0  0  0  0  0
   -2.6602   -3.2233   -0.0300 C   0  0  0  0  0  0  0  0  0  0  0  0
   -3.4390   -2.5678    0.3666 H   0  0  0  0  0  0  0  0  0  0  0  0
   -2.8682   -3.4312   -1.0823 H   0  0  0  0  0  0  0  0  0  0  0  0
   -1.3026   -2.5613    0.1085 C   0  0  0  0  0  0  0  0  0  0  0  0
   -0.4167   -3.1125    0.7358 O   0  0  0  0  0  0  0  0  0  0  0  0
   -1.0802   -1.3286   -0.4715 N   0  0  0  0  0  0  0  0  0  0  0  0
   -1.8401   -0.9346   -1.0201 H   0  0  0  0  0  0  0  0  0  0  0  0
    0.2200   -0.6293   -0.4752 C   0  0  1  0  0  0  0  0  0  0  0  0
    0.9560   -1.2786   -0.9629 H   0  0  0  0  0  0  0  0  0  0  0  0
    0.1014    0.6685   -1.2923 C   0  0  0  0  0  0  0  0  0  0  0  0
   -0.6431    1.3091   -0.8058 H   0  0  0  0  0  0  0  0  0  0  0  0
    1.0555    1.2077   -1.2696 H   0  0  0  0  0  0  0  0  0  0  0  0
   -0.3003    0.4226   -2.7633 C   0  0  0  0  0  0  0  0  0  0  0  0
    0.5997    0.2695   -3.3661 H   0  0  0  0  0  0  0  0  0  0  0  0
   -0.9132   -0.4756   -2.8691 H   0  0  0  0  0  0  0  0  0  0  0  0
   -1.0946    1.5956   -3.3215 C   0  0  0  0  0  0  0  0  0  0  0  0
   -2.2665    1.6944   -2.9972 O   0  0  0  0  0  0  0  0  0  0  0  0
   -0.4598    2.4746   -4.1295 O   0  0  0  0  0  0  0  0  0  0  0  0
   -1.1176    3.1446   -4.3702 H   0  0  0  0  0  0  0  0  0  0  0  0
    0.7841   -0.3099    0.9272 C   0  0  0  0  0  0  0  0  0  0  0  0
    1.9952   -0.2739    1.0975 O   0  0  0  0  0  0  0  0  0  0  0  0
   -0.0455    0.2144    1.9017 N   0  0  0  0  0  0  0  0  0  0  0  0
   -1.0415    0.0895    1.7542 H   0  0  0  0  0  0  0  0  0  0  0  0
    0.4286    0.5655    3.2345 C   0  0  0  0  0  0  0  0  0  0  0  0
    1.2070    1.3336    3.1749 H   0  0  0  0  0  0  0  0  0  0  0  0
   -0.3951    0.9576    3.8385 H   0  0  0  0  0  0  0  0  0  0  0  0
    0.8410   -0.3156    3.7378 H   0  0  0  0  0  0  0  0  0  0  0  0
  1  2  1  0  0  0  0
  2  3  1  0  0  0  0
  2  4  1  0  0  0  0
  2  5  1  0  0  0  0
  5  6  2  0  0  0  0
  5  7  1  0  0  0  0
  7  8  1  0  0  0  0
  7  9  1  0  0  0  0
  9 10  1  0  0  0  0
  9 11  1  0  0  0  0
  9 21  1  0  0  0  0
 11 12  1  0  0  0  0
 11 13  1  0  0  0  0
 11 14  1  0  0  0  0
 14 15  1  0  0  0  0
 14 16  1  0  0  0  0
 14 17  1  0  0  0  0
 17 18  2  0  0  0  0
 17 19  1  0  0  0  0
 19 20  1  0  0  0  0
 21 22  2  0  0  0  0
 21 23  1  0  0  0  0
 23 24  1  0  0  0  0
 23 25  1  0  0  0  0
 25 26  1  0  0  0  0
 25 27  1  0  0  0  0
 25 28  1  0  0  0  0
M  END
$$$$

  -OEChem-02102214123D

 28 27  0     1  0  0  0  0  0999 V2000
   -2.6448   -4.1816    0.3137 H   0  0  0  0  0  0  0  0  0  0  0  0
   -2.6440   -3.1865   -0.1405 C   0  0  0  0  0  0  0  0  0  0  0  0
   -3.4211   -2.5828    0.3341 H   0  0  0  0  0  0  0  0  0  0  0  0
   -2.8679   -3.2869   -1.2053 H   0  0  0  0  0  0  0  0  0  0  0  0
   -1.2895   -2.5295    0.0460 C   0  0  0  0  0  0  0  0  0  0  0  0
   -0.4146   -3.1043    0.6671 O   0  0  0  0  0  0  0  0  0  0  0  0
   -1.0594   -1.2747   -0.4822 N   0  0  0  0  0  0  0  0  0  0  0  0
   -1.8063   -0.8659   -1.0353 H   0  0  0  0  0  0  0  0  0  0  0  0
    0.2409   -0.5767   -0.4343 C   0  0  1  0  0  0  0  0  0  0  0  0
    0.9848   -1.2129   -0.9274 H   0  0  0  0  0  0  0  0  0  0  0  0
    0.1547    0.7500   -1.2104 C   0  0  0  0  0  0  0  0  0  0  0  0
   -0.5987    1.3793   -0.7237 H   0  0  0  0  0  0  0  0  0  0  0  0
    1.1134    1.2779   -1.1443 H   0  0  0  0  0  0  0  0  0  0  0  0
   -0.2095    0.5520   -2.7017 C   0  0  0  0  0  0  0  0  0  0  0  0
    0.6576    0.1412   -3.2264 H   0  0  0  0  0  0  0  0  0  0  0  0
   -1.0237   -0.1678   -2.8054 H   0  0  0  0  0  0  0  0  0  0  0  0
   -0.6540    1.8285   -3.4186 C   0  0  0  0  0  0  0  0  0  0  0  0
   -0.7778    2.8705   -2.7969 O   0  0  0  0  0  0  0  0  0  0  0  0
   -0.9094    1.7177   -4.7418 O   0  0  0  0  0  0  0  0  0  0  0  0
   -1.1643    2.6049   -5.0387 H   0  0  0  0  0  0  0  0  0  0  0  0
    0.7794   -0.3122    0.9901 C   0  0  0  0  0  0  0  0  0  0  0  0
    1.9868   -0.3045    1.1882 O   0  0  0  0  0  0  0  0  0  0  0  0
   -0.0645    0.1747    1.9719 N   0  0  0  0  0  0  0  0  0  0  0  0
   -1.0591    0.0775    1.7981 H   0  0  0  0  0  0  0  0  0  0  0  0
    0.3879    0.4666    3.3265 C   0  0  0  0  0  0  0  0  0  0  0  0
    1.1830    1.2195    3.3117 H   0  0  0  0  0  0  0  0  0  0  0  0
   -0.4400    0.8535    3.9281 H   0  0  0  0  0  0  0  0  0  0  0  0
    0.7716   -0.4408    3.8049 H   0  0  0  0  0  0  0  0  0  0  0  0
  1  2  1  0  0  0  0
  2  3  1  0  0  0  0
  2  4  1  0  0  0  0
  2  5  1  0  0  0  0
  5  6  2  0  0  0  0
  5  7  1  0  0  0  0
  7  8  1  0  0  0  0
  7  9  1  0  0  0  0
  9 10  1  0  0  0  0
  9 11  1  0  0  0  0
  9 21  1  0  0  0  0
 11 12  1  0  0  0  0
 11 13  1  0  0  0  0
 11 14  1  0  0  0  0
 14 15  1  0  0  0  0
 14 16  1  0  0  0  0
 14 17  1  0  0  0  0
 17 18  2  0  0  0  0
 17 19  1  0  0  0  0
 19 20  1  0  0  0  0
 21 22  2  0  0  0  0
 21 23  1  0  0  0  0
 23 24  1  0  0  0  0
 23 25  1  0  0  0  0
 25 26  1  0  0  0  0
 25 27  1  0  0  0  0
 25 28  1  0  0  0  0
M  END
$$$$

  -OEChem-02102214123D

 28 27  0     1  0  0  0  0  0999 V2000
   -2.6293   -4.2211    0.3378 H   0  0  0  0  0  0  0  0  0  0  0  0
   -2.6431   -3.2296   -0.1241 C   0  0  0  0  0  0  0  0  0  0  0  0
   -3.4392   -2.6390    0.3352 H   0  0  0  0  0  0  0  0  0  0  0  0
   -2.8503   -3.3428   -1.1909 H   0  0  0  0  0  0  0  0  0  0  0  0
   -1.3050   -2.5431    0.0749 C   0  0  0  0  0  0  0  0  0  0  0  0
   -0.4243   -3.0994    0.7045 O   0  0  0  0  0  0  0  0  0  0  0  0
   -1.0934   -1.2867   -0.4580 N   0  0  0  0  0  0  0  0  0  0  0  0
   -1.8409   -0.9005   -1.0252 H   0  0  0  0  0  0  0  0  0  0  0  0
    0.2025   -0.5787   -0.4290 C   0  0  1  0  0  0  0  0  0  0  0  0
    0.9340   -1.2268   -0.9255 H   0  0  0  0  0  0  0  0  0  0  0  0
    0.1381    0.7409   -1.2243 C   0  0  0  0  0  0  0  0  0  0  0  0
   -0.3993    1.4857   -0.6264 H   0  0  0  0  0  0  0  0  0  0  0  0
    1.1593    1.1139   -1.3676 H   0  0  0  0  0  0  0  0  0  0  0  0
   -0.5592    0.6110   -2.5986 C   0  0  0  0  0  0  0  0  0  0  0  0
   -0.0236   -0.1281   -3.2016 H   0  0  0  0  0  0  0  0  0  0  0  0
   -1.5869    0.2636   -2.4763 H   0  0  0  0  0  0  0  0  0  0  0  0
   -0.6198    1.9219   -3.3848 C   0  0  0  0  0  0  0  0  0  0  0  0
   -0.3101    2.9723   -2.8480 O   0  0  0  0  0  0  0  0  0  0  0  0
   -1.0464    1.8385   -4.6650 O   0  0  0  0  0  0  0  0  0  0  0  0
   -1.0179    2.7434   -5.0126 H   0  0  0  0  0  0  0  0  0  0  0  0
    0.7660   -0.3052    0.9837 C   0  0  0  0  0  0  0  0  0  0  0  0
    1.9770   -0.2807    1.1568 O   0  0  0  0  0  0  0  0  0  0  0  0
   -0.0641    0.1786    1.9785 N   0  0  0  0  0  0  0  0  0  0  0  0
   -1.0601    0.0624    1.8258 H   0  0  0  0  0  0  0  0  0  0  0  0
    0.4112    0.4833    3.3223 C   0  0  0  0  0  0  0  0  0  0  0  0
    1.1929    1.2497    3.2883 H   0  0  0  0  0  0  0  0  0  0  0  0
   -0.4109    0.8586    3.9389 H   0  0  0  0  0  0  0  0  0  0  0  0
    0.8198   -0.4157    3.7958 H   0  0  0  0  0  0  0  0  0  0  0  0
  1  2  1  0  0  0  0
  2  3  1  0  0  0  0
  2  4  1  0  0  0  0
  2  5  1  0  0  0  0
  5  6  2  0  0  0  0
  5  7  1  0  0  0  0
  7  8  1  0  0  0  0
  7  9  1  0  0  0  0
  9 10  1  0  0  0  0
  9 11  1  0  0  0  0
  9 21  1  0  0  0  0
 11 12  1  0  0  0  0
 11 13  1  0  0  0  0
 11 14  1  0  0  0  0
 14 15  1  0  0  0  0
 14 16  1  0  0  0  0
 14 17  1  0  0  0  0
 17 18  2  0  0  0  0
 17 19  1  0  0  0  0
 19 20  1  0  0  0  0
 21 22  2  0  0  0  0
 21 23  1  0  0  0  0
 23 24  1  0  0  0  0
 23 25  1  0  0  0  0
 25 26  1  0  0  0  0
 25 27  1  0  0  0  0
 25 28  1  0  0  0  0
M  END
$$$$

  -OEChem-02102214123D

 28 27  0     1  0  0  0  0  0999 V2000
   -2.6657   -4.1896    0.3686 H   0  0  0  0  0  0  0  0  0  0  0  0
   -2.6600   -3.2185   -0.1347 C   0  0  0  0  0  0  0  0  0  0  0  0
   -3.4648   -2.6050    0.2772 H   0  0  0  0  0  0  0  0  0  0  0  0
   -2.8389   -3.3755   -1.2012 H   0  0  0  0  0  0  0  0  0  0  0  0
   -1.3228   -2.5321    0.0728 C   0  0  0  0  0  0  0  0  0  0  0  0
   -0.4483   -3.0863    0.7129 O   0  0  0  0  0  0  0  0  0  0  0  0
   -1.1076   -1.2762   -0.4599 N   0  0  0  0  0  0  0  0  0  0  0  0
   -1.8429   -0.9023   -1.0509 H   0  0  0  0  0  0  0  0  0  0  0  0
    0.1942   -0.5787   -0.4413 C   0  0  1  0  0  0  0  0  0  0  0  0
    0.9170   -1.2251   -0.9522 H   0  0  0  0  0  0  0  0  0  0  0  0
    0.1113    0.7463   -1.2241 C   0  0  0  0  0  0  0  0  0  0  0  0
   -0.4035    1.5014   -0.6195 H   0  0  0  0  0  0  0  0  0  0  0  0
    1.1340    1.1058   -1.3904 H   0  0  0  0  0  0  0  0  0  0  0  0
   -0.6144    0.6125   -2.5810 C   0  0  0  0  0  0  0  0  0  0  0  0
   -0.2481   -0.2813   -3.0949 H   0  0  0  0  0  0  0  0  0  0  0  0
   -1.6905    0.5003   -2.4303 H   0  0  0  0  0  0  0  0  0  0  0  0
   -0.3821    1.8100   -3.5015 C   0  0  0  0  0  0  0  0  0  0  0  0
   -0.2217    2.9163   -3.0144 O   0  0  0  0  0  0  0  0  0  0  0  0
   -0.3898    1.5752   -4.8331 O   0  0  0  0  0  0  0  0  0  0  0  0
   -0.2240    2.4327   -5.2546 H   0  0  0  0  0  0  0  0  0  0  0  0
    0.7767   -0.3110    0.9648 C   0  0  0  0  0  0  0  0  0  0  0  0
    1.9901   -0.2942    1.1217 O   0  0  0  0  0  0  0  0  0  0  0  0
   -0.0367    0.1786    1.9707 N   0  0  0  0  0  0  0  0  0  0  0  0
   -1.0355    0.0670    1.8326 H   0  0  0  0  0  0  0  0  0  0  0  0
    0.4592    0.4832    3.3072 C   0  0  0  0  0  0  0  0  0  0  0  0
    1.2319    1.2581    3.2622 H   0  0  0  0  0  0  0  0  0  0  0  0
   -0.3557    0.8467    3.9404 H   0  0  0  0  0  0  0  0  0  0  0  0
    0.8861   -0.4131    3.7698 H   0  0  0  0  0  0  0  0  0  0  0  0
  1  2  1  0  0  0  0
  2  3  1  0  0  0  0
  2  4  1  0  0  0  0
  2  5  1  0  0  0  0
  5  6  2  0  0  0  0
  5  7  1  0  0  0  0
  7  8  1  0  0  0  0
  7  9  1  0  0  0  0
  9 10  1  0  0  0  0
  9 11  1  0  0  0  0
  9 21  1  0  0  0  0
 11 12  1  0  0  0  0
 11 13  1  0  0  0  0
 11 14  1  0  0  0  0
 14 15  1  0  0  0  0
 14 16  1  0  0  0  0
 14 17  1  0  0  0  0
 17 18  2  0  0  0  0
 17 19  1  0  0  0  0
 19 20  1  0  0  0  0
 21 22  2  0  0  0  0
 21 23  1  0  0  0  0
 23 24  1  0  0  0  0
 23 25  1  0  0  0  0
 25 26  1  0  0  0  0
 25 27  1  0  0  0  0
 25 28  1  0  0  0  0
M  END
$$$$

  -OEChem-02102214123D

 28 27  0     1  0  0  0  0  0999 V2000
   -2.6765   -4.1711    0.3699 H   0  0  0  0  0  0  0  0  0  0  0  0
   -2.6705   -3.1983   -0.1303 C   0  0  0  0  0  0  0  0  0  0  0  0
   -3.4644   -2.5798    0.2953 H   0  0  0  0  0  0  0  0  0  0  0  0
   -2.8647   -3.3502   -1.1947 H   0  0  0  0  0  0  0  0  0  0  0  0
   -1.3256   -2.5229    0.0607 C   0  0  0  0  0  0  0  0  0  0  0  0
   -0.4472   -3.0858    0.6877 O   0  0  0  0  0  0  0  0  0  0  0  0
   -1.1078   -1.2660   -0.4684 N   0  0  0  0  0  0  0  0  0  0  0  0
   -1.8466   -0.8820   -1.0489 H   0  0  0  0  0  0  0  0  0  0  0  0
    0.1971   -0.5744   -0.4529 C   0  0  1  0  0  0  0  0  0  0  0  0
    0.9161   -1.2197   -0.9710 H   0  0  0  0  0  0  0  0  0  0  0  0
    0.1084    0.7548   -1.2280 C   0  0  0  0  0  0  0  0  0  0  0  0
   -0.3935    1.5151   -0.6196 H   0  0  0  0  0  0  0  0  0  0  0  0
    1.1342    1.1039   -1.3981 H   0  0  0  0  0  0  0  0  0  0  0  0
   -0.6290    0.6272   -2.5807 C   0  0  0  0  0  0  0  0  0  0  0  0
   -0.4649   -0.3749   -2.9886 H   0  0  0  0  0  0  0  0  0  0  0  0
   -1.7045    0.7635   -2.4417 H   0  0  0  0  0  0  0  0  0  0  0  0
   -0.1297    1.6247   -3.6247 C   0  0  0  0  0  0  0  0  0  0  0  0
    0.1055    2.7703   -3.2801 O   0  0  0  0  0  0  0  0  0  0  0  0
    0.0060    1.1840   -4.8963 O   0  0  0  0  0  0  0  0  0  0  0  0
    0.3308    1.9421   -5.4067 H   0  0  0  0  0  0  0  0  0  0  0  0
    0.7834   -0.3165    0.9534 C   0  0  0  0  0  0  0  0  0  0  0  0
    1.9968   -0.3069    1.1098 O   0  0  0  0  0  0  0  0  0  0  0  0
   -0.0275    0.1715    1.9618 N   0  0  0  0  0  0  0  0  0  0  0  0
   -1.0264    0.0625    1.8234 H   0  0  0  0  0  0  0  0  0  0  0  0
    0.4686    0.4634    3.3009 C   0  0  0  0  0  0  0  0  0  0  0  0
    1.2543    1.2254    3.2614 H   0  0  0  0  0  0  0  0  0  0  0  0
   -0.3425    0.8386    3.9321 H   0  0  0  0  0  0  0  0  0  0  0  0
    0.8784   -0.4415    3.7622 H   0  0  0  0  0  0  0  0  0  0  0  0
  1  2  1  0  0  0  0
  2  3  1  0  0  0  0
  2  4  1  0  0  0  0
  2  5  1  0  0  0  0
  5  6  2  0  0  0  0
  5  7  1  0  0  0  0
  7  8  1  0  0  0  0
  7  9  1  0  0  0  0
  9 10  1  0  0  0  0
  9 11  1  0  0  0  0
  9 21  1  0  0  0  0
 11 12  1  0  0  0  0
 11 13  1  0  0  0  0
 11 14  1  0  0  0  0
 14 15  1  0  0  0  0
 14 16  1  0  0  0  0
 14 17  1  0  0  0  0
 17 18  2  0  0  0  0
 17 19  1  0  0  0  0
 19 20  1  0  0  0  0
 21 22  2  0  0  0  0
 21 23  1  0  0  0  0
 23 24  1  0  0  0  0
 23 25  1  0  0  0  0
 25 26  1  0  0  0  0
 25 27  1  0  0  0  0
 25 28  1  0  0  0  0
M  END
$$$$

  -OEChem-02102214123D

 28 27  0     1  0  0  0  0  0999 V2000
   -2.6972   -4.1661    0.3546 H   0  0  0  0  0  0  0  0  0  0  0  0
   -2.6900   -3.1915   -0.1419 C   0  0  0  0  0  0  0  0  0  0  0  0
   -3.4850   -2.5745    0.2834 H   0  0  0  0  0  0  0  0  0  0  0  0
   -2.8815   -3.3395   -1.2073 H   0  0  0  0  0  0  0  0  0  0  0  0
   -1.3458   -2.5166    0.0544 C   0  0  0  0  0  0  0  0  0  0  0  0
   -0.4652   -3.0838    0.6743 O   0  0  0  0  0  0  0  0  0  0  0  0
   -1.1297   -1.2568   -0.4681 N   0  0  0  0  0  0  0  0  0  0  0  0
   -1.8707   -0.8709   -1.0450 H   0  0  0  0  0  0  0  0  0  0  0  0
    0.1778   -0.5695   -0.4641 C   0  0  1  0  0  0  0  0  0  0  0  0
    0.8872   -1.2162   -0.9931 H   0  0  0  0  0  0  0  0  0  0  0  0
    0.0889    0.7618   -1.2362 C   0  0  0  0  0  0  0  0  0  0  0  0
   -0.4098    1.5173   -0.6195 H   0  0  0  0  0  0  0  0  0  0  0  0
    1.1142    1.1140   -1.4035 H   0  0  0  0  0  0  0  0  0  0  0  0
   -0.6590    0.6535   -2.5870 C   0  0  0  0  0  0  0  0  0  0  0  0
   -0.7420   -0.3942   -2.8899 H   0  0  0  0  0  0  0  0  0  0  0  0
   -1.6709    1.0566   -2.4929 H   0  0  0  0  0  0  0  0  0  0  0  0
    0.0724    1.3817   -3.7111 C   0  0  0  0  0  0  0  0  0  0  0  0
    0.3050    2.5708   -3.5786 O   0  0  0  0  0  0  0  0  0  0  0  0
    0.4226    0.6665   -4.8045 O   0  0  0  0  0  0  0  0  0  0  0  0
    0.8819    1.2865   -5.3919 H   0  0  0  0  0  0  0  0  0  0  0  0
    0.7852   -0.3219    0.9349 C   0  0  0  0  0  0  0  0  0  0  0  0
    2.0011   -0.3105    1.0712 O   0  0  0  0  0  0  0  0  0  0  0  0
   -0.0090    0.1625    1.9583 N   0  0  0  0  0  0  0  0  0  0  0  0
   -1.0097    0.0468    1.8388 H   0  0  0  0  0  0  0  0  0  0  0  0
    0.5111    0.4486    3.2898 C   0  0  0  0  0  0  0  0  0  0  0  0
    1.2976    1.2092    3.2394 H   0  0  0  0  0  0  0  0  0  0  0  0
   -0.2879    0.8234    3.9367 H   0  0  0  0  0  0  0  0  0  0  0  0
    0.9280   -0.4584    3.7403 H   0  0  0  0  0  0  0  0  0  0  0  0
  1  2  1  0  0  0  0
  2  3  1  0  0  0  0
  2  4  1  0  0  0  0
  2  5  1  0  0  0  0
  5  6  2  0  0  0  0
  5  7  1  0  0  0  0
  7  8  1  0  0  0  0
  7  9  1  0  0  0  0
  9 10  1  0  0  0  0
  9 11  1  0  0  0  0
  9 21  1  0  0  0  0
 11 12  1  0  0  0  0
 11 13  1  0  0  0  0
 11 14  1  0  0  0  0
 14 15  1  0  0  0  0
 14 16  1  0  0  0  0
 14 17  1  0  0  0  0
 17 18  2  0  0  0  0
 17 19  1  0  0  0  0
 19 20  1  0  0  0  0
 21 22  2  0  0  0  0
 21 23  1  0  0  0  0
 23 24  1  0  0  0  0
 23 25  1  0  0  0  0
 25 26  1  0  0  0  0
 25 27  1  0  0  0  0
 25 28  1  0  0  0  0
M  END
$$$$

  -OEChem-02102214123D

 28 27  0     1  0  0  0  0  0999 V2000
   -2.7405   -4.1404    0.3906 H   0  0  0  0  0  0  0  0  0  0  0  0
   -2.7244   -3.1786   -0.1300 C   0  0  0  0  0  0  0  0  0  0  0  0
   -3.5108   -2.5426    0.2834 H   0  0  0  0  0  0  0  0  0  0  0  0
   -2.9222   -3.3504   -1.1908 H   0  0  0  0  0  0  0  0  0  0  0  0
   -1.3717   -2.5145    0.0436 C   0  0  0  0  0  0  0  0  0  0  0  0
   -0.4856   -3.0888    0.6492 O   0  0  0  0  0  0  0  0  0  0  0  0
   -1.1570   -1.2537   -0.4773 N   0  0  0  0  0  0  0  0  0  0  0  0
   -1.9092   -0.8570   -1.0319 H   0  0  0  0  0  0  0  0  0  0  0  0
    0.1550   -0.5750   -0.4976 C   0  0  1  0  0  0  0  0  0  0  0  0
    0.8487   -1.2255   -1.0434 H   0  0  0  0  0  0  0  0  0  0  0  0
    0.0743    0.7639   -1.2596 C   0  0  0  0  0  0  0  0  0  0  0  0
   -0.4209    1.5033   -0.6208 H   0  0  0  0  0  0  0  0  0  0  0  0
    1.0964    1.1265   -1.4241 H   0  0  0  0  0  0  0  0  0  0  0  0
   -0.6923    0.7001   -2.6033 C   0  0  0  0  0  0  0  0  0  0  0  0
   -1.0616   -0.3067   -2.8105 H   0  0  0  0  0  0  0  0  0  0  0  0
   -1.5561    1.3704   -2.5681 H   0  0  0  0  0  0  0  0  0  0  0  0
    0.2034    1.1014   -3.7694 C   0  0  0  0  0  0  0  0  0  0  0  0
    0.2592    2.2786   -4.0784 O   0  0  0  0  0  0  0  0  0  0  0  0
    0.8987    0.1257   -4.3967 O   0  0  0  0  0  0  0  0  0  0  0  0
    1.4194    0.5683   -5.0847 H   0  0  0  0  0  0  0  0  0  0  0  0
    0.7883   -0.3409    0.8923 C   0  0  0  0  0  0  0  0  0  0  0  0
    2.0064   -0.3269    1.0066 O   0  0  0  0  0  0  0  0  0  0  0  0
    0.0124    0.1419    1.9304 N   0  0  0  0  0  0  0  0  0  0  0  0
   -0.9897    0.0215    1.8283 H   0  0  0  0  0  0  0  0  0  0  0  0
    0.5545    0.4095    3.2567 C   0  0  0  0  0  0  0  0  0  0  0  0
    1.3342    1.1769    3.2042 H   0  0  0  0  0  0  0  0  0  0  0  0
   -0.2355    0.7666    3.9242 H   0  0  0  0  0  0  0  0  0  0  0  0
    0.9859   -0.5019    3.6840 H   0  0  0  0  0  0  0  0  0  0  0  0
  1  2  1  0  0  0  0
  2  3  1  0  0  0  0
  2  4  1  0  0  0  0
  2  5  1  0  0  0  0
  5  6  2  0  0  0  0
  5  7  1  0  0  0  0
  7  8  1  0  0  0  0
  7  9  1  0  0  0  0
  9 10  1  0  0  0  0
  9 11  1  0  0  0  0
  9 21  1  0  0  0  0
 11 12  1  0  0  0  0
 11 13  1  0  0  0  0
 11 14  1  0  0  0  0
 14 15  1  0  0  0  0
 14 16  1  0  0  0  0
 14 17  1  0  0  0  0
 17 18  2  0  0  0  0
 17 19  1  0  0  0  0
 19 20  1  0  0  0  0
 21 22  2  0  0  0  0
 21 23  1  0  0  0  0
 23 24  1  0  0  0  0
 23 25  1  0  0  0  0
 25 26  1  0  0  0  0
 25 27  1  0  0  0  0
 25 28  1  0  0  0  0
M  END
$$$$

  -OEChem-02102214123D

 28 27  0     1  0  0  0  0  0999 V2000
   -2.5737   -4.2690    0.5943 H   0  0  0  0  0  0  0  0  0  0  0  0
   -2.5955   -3.3451    0.0090 C   0  0  0  0  0  0  0  0  0  0  0  0
   -3.4348   -2.7336    0.3486 H   0  0  0  0  0  0  0  0  0  0  0  0
   -2.7398   -3.6004   -1.0437 H   0  0  0  0  0  0  0  0  0  0  0  0
   -1.2937   -2.5863    0.1842 C   0  0  0  0  0  0  0  0  0  0  0  0
   -0.4052   -3.0549    0.8719 O   0  0  0  0  0  0  0  0  0  0  0  0
   -1.1300   -1.3590   -0.4279 N   0  0  0  0  0  0  0  0  0  0  0  0
   -1.8746   -1.0648   -1.0517 H   0  0  0  0  0  0  0  0  0  0  0  0
    0.1517   -0.6265   -0.4828 C   0  0  1  0  0  0  0  0  0  0  0  0
    0.8796   -1.2892   -0.9652 H   0  0  0  0  0  0  0  0  0  0  0  0
    0.0461    0.6497   -1.3458 C   0  0  0  0  0  0  0  0  0  0  0  0
   -0.5049    1.3992   -0.7676 H   0  0  0  0  0  0  0  0  0  0  0  0
    1.0525    1.0557   -1.5051 H   0  0  0  0  0  0  0  0  0  0  0  0
   -0.6846    0.4751   -2.7004 C   0  0  0  0  0  0  0  0  0  0  0  0
   -1.2941   -0.4298   -2.7357 H   0  0  0  0  0  0  0  0  0  0  0  0
   -1.3566    1.3245   -2.8513 H   0  0  0  0  0  0  0  0  0  0  0  0
    0.2982    0.4557   -3.8663 C   0  0  0  0  0  0  0  0  0  0  0  0
    0.4443   -0.5880   -4.4778 O   0  0  0  0  0  0  0  0  0  0  0  0
    0.9478    1.6026   -4.1718 O   0  0  0  0  0  0  0  0  0  0  0  0
    1.5267    1.3897   -4.9200 H   0  0  0  0  0  0  0  0  0  0  0  0
    0.7511   -0.2637    0.8950 C   0  0  0  0  0  0  0  0  0  0  0  0
    1.9654   -0.1832    1.0230 O   0  0  0  0  0  0  0  0  0  0  0  0
   -0.0625    0.2590    1.8838 N   0  0  0  0  0  0  0  0  0  0  0  0
   -1.0548    0.0755    1.7796 H   0  0  0  0  0  0  0  0  0  0  0  0
    0.4440    0.6353    3.1979 C   0  0  0  0  0  0  0  0  0  0  0  0
    1.2172    1.4055    3.1057 H   0  0  0  0  0  0  0  0  0  0  0  0
   -0.3660    1.0341    3.8160 H   0  0  0  0  0  0  0  0  0  0  0  0
    0.8734   -0.2353    3.7052 H   0  0  0  0  0  0  0  0  0  0  0  0
  1  2  1  0  0  0  0
  2  3  1  0  0  0  0
  2  4  1  0  0  0  0
  2  5  1  0  0  0  0
  5  6  2  0  0  0  0
  5  7  1  0  0  0  0
  7  8  1  0  0  0  0
  7  9  1  0  0  0  0
  9 10  1  0  0  0  0
  9 11  1  0  0  0  0
  9 21  1  0  0  0  0
 11 12  1  0  0  0  0
 11 13  1  0  0  0  0
 11 14  1  0  0  0  0
 14 15  1  0  0  0  0
 14 16  1  0  0  0  0
 14 17  1  0  0  0  0
 17 18  2  0  0  0  0
 17 19  1  0  0  0  0
 19 20  1  0  0  0  0
 21 22  2  0  0  0  0
 21 23  1  0  0  0  0
 23 24  1  0  0  0  0
 23 25  1  0  0  0  0
 25 26  1  0  0  0  0
 25 27  1  0  0  0  0
 25 28  1  0  0  0  0
M  END
$$$$

  -OEChem-02102214123D

 28 27  0     1  0  0  0  0  0999 V2000
   -2.6158   -4.2353    0.6206 H   0  0  0  0  0  0  0  0  0  0  0  0
   -2.6103   -3.3395   -0.0068 C   0  0  0  0  0  0  0  0  0  0  0  0
   -3.4642   -2.7149    0.2660 H   0  0  0  0  0  0  0  0  0  0  0  0
   -2.7069   -3.6425   -1.0522 H   0  0  0  0  0  0  0  0  0  0  0  0
   -1.3170   -2.5720    0.1911 C   0  0  0  0  0  0  0  0  0  0  0  0
   -0.4387   -3.0345    0.8960 O   0  0  0  0  0  0  0  0  0  0  0  0
   -1.1532   -1.3420   -0.4155 N   0  0  0  0  0  0  0  0  0  0  0  0
   -1.8801   -1.0722   -1.0700 H   0  0  0  0  0  0  0  0  0  0  0  0
    0.1352   -0.6232   -0.4831 C   0  0  1  0  0  0  0  0  0  0  0  0
    0.8481   -1.2907   -0.9810 H   0  0  0  0  0  0  0  0  0  0  0  0
    0.0352    0.6638   -1.3318 C   0  0  0  0  0  0  0  0  0  0  0  0
   -0.5021    1.4109   -0.7378 H   0  0  0  0  0  0  0  0  0  0  0  0
    1.0416    1.0636   -1.5052 H   0  0  0  0  0  0  0  0  0  0  0  0
   -0.7156    0.5122   -2.6745 C   0  0  0  0  0  0  0  0  0  0  0  0
   -1.5402   -0.2004   -2.6213 H   0  0  0  0  0  0  0  0  0  0  0  0
   -1.1492    1.4807   -2.9399 H   0  0  0  0  0  0  0  0  0  0  0  0
    0.2359    0.1222   -3.7993 C   0  0  0  0  0  0  0  0  0  0  0  0
    0.1748   -1.0162   -4.2298 O   0  0  0  0  0  0  0  0  0  0  0  0
    1.0949    1.0578   -4.2651 O   0  0  0  0  0  0  0  0  0  0  0  0
    1.6193    0.6204   -4.9535 H   0  0  0  0  0  0  0  0  0  0  0  0
    0.7598   -0.2764    0.8875 C   0  0  0  0  0  0  0  0  0  0  0  0
    1.9770   -0.2081    0.9945 O   0  0  0  0  0  0  0  0  0  0  0  0
   -0.0315    0.2482    1.8933 N   0  0  0  0  0  0  0  0  0  0  0  0
   -1.0264    0.0678    1.8080 H   0  0  0  0  0  0  0  0  0  0  0  0
    0.5030    0.6065    3.2013 C   0  0  0  0  0  0  0  0  0  0  0  0
    1.2846    1.3671    3.1019 H   0  0  0  0  0  0  0  0  0  0  0  0
   -0.2901    1.0106    3.8374 H   0  0  0  0  0  0  0  0  0  0  0  0
    0.9301   -0.2738    3.6933 H   0  0  0  0  0  0  0  0  0  0  0  0
  1  2  1  0  0  0  0
  2  3  1  0  0  0  0
  2  4  1  0  0  0  0
  2  5  1  0  0  0  0
  5  6  2  0  0  0  0
  5  7  1  0  0  0  0
  7  8  1  0  0  0  0
  7  9  1  0  0  0  0
  9 10  1  0  0  0  0
  9 11  1  0  0  0  0
  9 21  1  0  0  0  0
 11 12  1  0  0  0  0
 11 13  1  0  0  0  0
 11 14  1  0  0  0  0
 14 15  1  0  0  0  0
 14 16  1  0  0  0  0
 14 17  1  0  0  0  0
 17 18  2  0  0  0  0
 17 19  1  0  0  0  0
 19 20  1  0  0  0  0
 21 22  2  0  0  0  0
 21 23  1  0  0  0  0
 23 24  1  0  0  0  0
 23 25  1  0  0  0  0
 25 26  1  0  0  0  0
 25 27  1  0  0  0  0
 25 28  1  0  0  0  0
M  END
$$$$

  -OEChem-02102214123D

 28 27  0     1  0  0  0  0  0999 V2000
   -2.7462   -4.1384    0.2236 H   0  0  0  0  0  0  0  0  0  0  0  0
   -2.7061   -3.1686   -0.2807 C   0  0  0  0  0  0  0  0  0  0  0  0
   -3.5430   -2.5578    0.0657 H   0  0  0  0  0  0  0  0  0  0  0  0
   -2.8001   -3.3285   -1.3576 H   0  0  0  0  0  0  0  0  0  0  0  0
   -1.3926   -2.4749    0.0267 C   0  0  0  0  0  0  0  0  0  0  0  0
   -0.5680   -3.0238    0.7344 O   0  0  0  0  0  0  0  0  0  0  0  0
   -1.1473   -1.2187   -0.4922 N   0  0  0  0  0  0  0  0  0  0  0  0
   -1.8202   -0.8904   -1.1769 H   0  0  0  0  0  0  0  0  0  0  0  0
    0.1789   -0.5693   -0.4727 C   0  0  1  0  0  0  0  0  0  0  0  0
    0.8732   -1.2390   -0.9930 H   0  0  0  0  0  0  0  0  0  0  0  0
    0.1646    0.7758   -1.2328 C   0  0  0  0  0  0  0  0  0  0  0  0
   -0.3401    1.5180   -0.6050 H   0  0  0  0  0  0  0  0  0  0  0  0
    1.1964    1.1213   -1.3710 H   0  0  0  0  0  0  0  0  0  0  0  0
   -0.5568    0.7428   -2.5968 C   0  0  0  0  0  0  0  0  0  0  0  0
   -1.5403    0.2746   -2.5326 H   0  0  0  0  0  0  0  0  0  0  0  0
   -0.7185    1.7721   -2.9310 H   0  0  0  0  0  0  0  0  0  0  0  0
    0.2850    0.0360   -3.6517 C   0  0  0  0  0  0  0  0  0  0  0  0
    1.1184    0.6779   -4.2658 O   0  0  0  0  0  0  0  0  0  0  0  0
    0.0611   -1.2846   -3.8429 O   0  0  0  0  0  0  0  0  0  0  0  0
    0.6975   -1.5640   -4.5200 H   0  0  0  0  0  0  0  0  0  0  0  0
    0.7753   -0.3467    0.9360 C   0  0  0  0  0  0  0  0  0  0  0  0
    1.9898   -0.3606    1.0850 O   0  0  0  0  0  0  0  0  0  0  0  0
   -0.0193    0.1548    1.9509 N   0  0  0  0  0  0  0  0  0  0  0  0
   -1.0194    0.0408    1.8229 H   0  0  0  0  0  0  0  0  0  0  0  0
    0.4892    0.3991    3.2952 C   0  0  0  0  0  0  0  0  0  0  0  0
    1.3145    1.1186    3.2690 H   0  0  0  0  0  0  0  0  0  0  0  0
   -0.3015    0.8076    3.9314 H   0  0  0  0  0  0  0  0  0  0  0  0
    0.8497   -0.5335    3.7424 H   0  0  0  0  0  0  0  0  0  0  0  0
  1  2  1  0  0  0  0
  2  3  1  0  0  0  0
  2  4  1  0  0  0  0
  2  5  1  0  0  0  0
  5  6  2  0  0  0  0
  5  7  1  0  0  0  0
  7  8  1  0  0  0  0
  7  9  1  0  0  0  0
  9 10  1  0  0  0  0
  9 11  1  0  0  0  0
  9 21  1  0  0  0  0
 11 12  1  0  0  0  0
 11 13  1  0  0  0  0
 11 14  1  0  0  0  0
 14 15  1  0  0  0  0
 14 16  1  0  0  0  0
 14 17  1  0  0  0  0
 17 18  2  0  0  0  0
 17 19  1  0  0  0  0
 19 20  1  0  0  0  0
 21 22  2  0  0  0  0
 21 23  1  0  0  0  0
 23 24  1  0  0  0  0
 23 25  1  0  0  0  0
 25 26  1  0  0  0  0
 25 27  1  0  0  0  0
 25 28  1  0  0  0  0
M  END
$$$$

  -OEChem-02102214123D

 28 27  0     1  0  0  0  0  0999 V2000
   -2.7215   -4.1478    0.1637 H   0  0  0  0  0  0  0  0  0  0  0  0
   -2.6768   -3.1719   -0.3280 C   0  0  0  0  0  0  0  0  0  0  0  0
   -3.5342   -2.5760   -0.0063 H   0  0  0  0  0  0  0  0  0  0  0  0
   -2.7292   -3.3212   -1.4093 H   0  0  0  0  0  0  0  0  0  0  0  0
   -1.3857   -2.4636    0.0351 C   0  0  0  0  0  0  0  0  0  0  0  0
   -0.5920   -2.9973    0.7885 O   0  0  0  0  0  0  0  0  0  0  0  0
   -1.1239   -1.2149   -0.4932 N   0  0  0  0  0  0  0  0  0  0  0  0
   -1.7518   -0.9263   -1.2373 H   0  0  0  0  0  0  0  0  0  0  0  0
    0.2067   -0.5759   -0.4528 C   0  0  1  0  0  0  0  0  0  0  0  0
    0.9096   -1.2510   -0.9539 H   0  0  0  0  0  0  0  0  0  0  0  0
    0.1950    0.7640   -1.2210 C   0  0  0  0  0  0  0  0  0  0  0  0
   -0.3026    1.5218   -0.6062 H   0  0  0  0  0  0  0  0  0  0  0  0
    1.2311    1.0931   -1.3643 H   0  0  0  0  0  0  0  0  0  0  0  0
   -0.5145    0.7129   -2.5900 C   0  0  0  0  0  0  0  0  0  0  0  0
   -1.5731    0.4714   -2.4722 H   0  0  0  0  0  0  0  0  0  0  0  0
   -0.4641    1.7034   -3.0520 H   0  0  0  0  0  0  0  0  0  0  0  0
    0.1340   -0.2899   -3.5367 C   0  0  0  0  0  0  0  0  0  0  0  0
    1.1483    0.0315   -4.1286 O   0  0  0  0  0  0  0  0  0  0  0  0
   -0.4540   -1.5038   -3.6548 O   0  0  0  0  0  0  0  0  0  0  0  0
    0.1061   -2.0051   -4.2694 H   0  0  0  0  0  0  0  0  0  0  0  0
    0.7777   -0.3418    0.9643 C   0  0  0  0  0  0  0  0  0  0  0  0
    1.9888   -0.3640    1.1376 O   0  0  0  0  0  0  0  0  0  0  0  0
   -0.0331    0.1774    1.9570 N   0  0  0  0  0  0  0  0  0  0  0  0
   -1.0309    0.0647    1.8103 H   0  0  0  0  0  0  0  0  0  0  0  0
    0.4499    0.4274    3.3093 C   0  0  0  0  0  0  0  0  0  0  0  0
    1.2636    1.1602    3.2970 H   0  0  0  0  0  0  0  0  0  0  0  0
   -0.3579    0.8212    3.9333 H   0  0  0  0  0  0  0  0  0  0  0  0
    0.8185   -0.5000    3.7603 H   0  0  0  0  0  0  0  0  0  0  0  0
  1  2  1  0  0  0  0
  2  3  1  0  0  0  0
  2  4  1  0  0  0  0
  2  5  1  0  0  0  0
  5  6  2  0  0  0  0
  5  7  1  0  0  0  0
  7  8  1  0  0  0  0
  7  9  1  0  0  0  0
  9 10  1  0  0  0  0
  9 11  1  0  0  0  0
  9 21  1  0  0  0  0
 11 12  1  0  0  0  0
 11 13  1  0  0  0  0
 11 14  1  0  0  0  0
 14 15  1  0  0  0  0
 14 16  1  0  0  0  0
 14 17  1  0  0  0  0
 17 18  2  0  0  0  0
 17 19  1  0  0  0  0
 19 20  1  0  0  0  0
 21 22  2  0  0  0  0
 21 23  1  0  0  0  0
 23 24  1  0  0  0  0
 23 25  1  0  0  0  0
 25 26  1  0  0  0  0
 25 27  1  0  0  0  0
 25 28  1  0  0  0  0
M  END
$$$$

  -OEChem-02102214123D

 28 27  0     1  0  0  0  0  0999 V2000
   -2.6874   -4.1845    0.1209 H   0  0  0  0  0  0  0  0  0  0  0  0
   -2.6617   -3.1876   -0.3283 C   0  0  0  0  0  0  0  0  0  0  0  0
   -3.5282   -2.6210    0.0209 H   0  0  0  0  0  0  0  0  0  0  0  0
   -2.7153   -3.2911   -1.4149 H   0  0  0  0  0  0  0  0  0  0  0  0
   -1.3823   -2.4725    0.0622 C   0  0  0  0  0  0  0  0  0  0  0  0
   -0.6132   -2.9927    0.8496 O   0  0  0  0  0  0  0  0  0  0  0  0
   -1.1002   -1.2367   -0.4853 N   0  0  0  0  0  0  0  0  0  0  0  0
   -1.6978   -0.9758   -1.2656 H   0  0  0  0  0  0  0  0  0  0  0  0
    0.2346   -0.6060   -0.4285 C   0  0  1  0  0  0  0  0  0  0  0  0
    0.9469   -1.2892   -0.9058 H   0  0  0  0  0  0  0  0  0  0  0  0
    0.2326    0.7247   -1.2129 C   0  0  0  0  0  0  0  0  0  0  0  0
   -0.2542    1.5006   -0.6122 H   0  0  0  0  0  0  0  0  0  0  0  0
    1.2757    1.0316   -1.3532 H   0  0  0  0  0  0  0  0  0  0  0  0
   -0.4560    0.6751   -2.5942 C   0  0  0  0  0  0  0  0  0  0  0  0
   -1.5409    0.6807   -2.4615 H   0  0  0  0  0  0  0  0  0  0  0  0
   -0.1966    1.5764   -3.1575 H   0  0  0  0  0  0  0  0  0  0  0  0
   -0.0737   -0.5463   -3.4239 C   0  0  0  0  0  0  0  0  0  0  0  0
    1.0224   -0.5753   -3.9521 O   0  0  0  0  0  0  0  0  0  0  0  0
   -0.9781   -1.5513   -3.5127 O   0  0  0  0  0  0  0  0  0  0  0  0
   -0.5562   -2.2268   -4.0688 H   0  0  0  0  0  0  0  0  0  0  0  0
    0.7762   -0.3473    0.9961 C   0  0  0  0  0  0  0  0  0  0  0  0
    1.9832   -0.3694    1.1962 O   0  0  0  0  0  0  0  0  0  0  0  0
   -0.0536    0.1977    1.9590 N   0  0  0  0  0  0  0  0  0  0  0  0
   -1.0488    0.0899    1.7920 H   0  0  0  0  0  0  0  0  0  0  0  0
    0.4005    0.4826    3.3143 C   0  0  0  0  0  0  0  0  0  0  0  0
    1.2128    1.2171    3.2998 H   0  0  0  0  0  0  0  0  0  0  0  0
   -0.4207    0.8899    3.9115 H   0  0  0  0  0  0  0  0  0  0  0  0
    0.7612   -0.4319    3.7973 H   0  0  0  0  0  0  0  0  0  0  0  0
  1  2  1  0  0  0  0
  2  3  1  0  0  0  0
  2  4  1  0  0  0  0
  2  5  1  0  0  0  0
  5  6  2  0  0  0  0
  5  7  1  0  0  0  0
  7  8  1  0  0  0  0
  7  9  1  0  0  0  0
  9 10  1  0  0  0  0
  9 11  1  0  0  0  0
  9 21  1  0  0  0  0
 11 12  1  0  0  0  0
 11 13  1  0  0  0  0
 11 14  1  0  0  0  0
 14 15  1  0  0  0  0
 14 16  1  0  0  0  0
 14 17  1  0  0  0  0
 17 18  2  0  0  0  0
 17 19  1  0  0  0  0
 19 20  1  0  0  0  0
 21 22  2  0  0  0  0
 21 23  1  0  0  0  0
 23 24  1  0  0  0  0
 23 25  1  0  0  0  0
 25 26  1  0  0  0  0
 25 27  1  0  0  0  0
 25 28  1  0  0  0  0
M  END
$$$$

  -OEChem-02102214123D

 28 27  0     1  0  0  0  0  0999 V2000
   -2.6826   -4.2028    0.2056 H   0  0  0  0  0  0  0  0  0  0  0  0
   -2.6564   -3.2114   -0.2559 C   0  0  0  0  0  0  0  0  0  0  0  0
   -3.5098   -2.6322    0.1046 H   0  0  0  0  0  0  0  0  0  0  0  0
   -2.7341   -3.3270   -1.3396 H   0  0  0  0  0  0  0  0  0  0  0  0
   -1.3624   -2.5043    0.0998 C   0  0  0  0  0  0  0  0  0  0  0  0
   -0.5889   -3.0156    0.8885 O   0  0  0  0  0  0  0  0  0  0  0  0
   -1.0788   -1.2784   -0.4681 N   0  0  0  0  0  0  0  0  0  0  0  0
   -1.6877   -1.0152   -1.2407 H   0  0  0  0  0  0  0  0  0  0  0  0
    0.2497   -0.6340   -0.4067 C   0  0  1  0  0  0  0  0  0  0  0  0
    0.9739   -1.3218   -0.8593 H   0  0  0  0  0  0  0  0  0  0  0  0
    0.2553    0.6794   -1.2215 C   0  0  0  0  0  0  0  0  0  0  0  0
   -0.2336    1.4682   -0.6398 H   0  0  0  0  0  0  0  0  0  0  0  0
    1.3035    0.9761   -1.3441 H   0  0  0  0  0  0  0  0  0  0  0  0
   -0.3975    0.6394   -2.6248 C   0  0  0  0  0  0  0  0  0  0  0  0
   -1.4543    0.9022   -2.5246 H   0  0  0  0  0  0  0  0  0  0  0  0
    0.0637    1.4025   -3.2589 H   0  0  0  0  0  0  0  0  0  0  0  0
   -0.3223   -0.7061   -3.3422 C   0  0  0  0  0  0  0  0  0  0  0  0
    0.7375   -1.0416   -3.8376 O   0  0  0  0  0  0  0  0  0  0  0  0
   -1.4434   -1.4669   -3.3825 O   0  0  0  0  0  0  0  0  0  0  0  0
   -1.1975   -2.2526   -3.8987 H   0  0  0  0  0  0  0  0  0  0  0  0
    0.7666   -0.3419    1.0207 C   0  0  0  0  0  0  0  0  0  0  0  0
    1.9706   -0.3449    1.2393 O   0  0  0  0  0  0  0  0  0  0  0  0
   -0.0828    0.2141    1.9598 N   0  0  0  0  0  0  0  0  0  0  0  0
   -1.0739    0.0850    1.7827 H   0  0  0  0  0  0  0  0  0  0  0  0
    0.3483    0.5226    3.3176 C   0  0  0  0  0  0  0  0  0  0  0  0
    1.1650    1.2522    3.3049 H   0  0  0  0  0  0  0  0  0  0  0  0
   -0.4815    0.9458    3.8916 H   0  0  0  0  0  0  0  0  0  0  0  0
    0.6949   -0.3849    3.8235 H   0  0  0  0  0  0  0  0  0  0  0  0
  1  2  1  0  0  0  0
  2  3  1  0  0  0  0
  2  4  1  0  0  0  0
  2  5  1  0  0  0  0
  5  6  2  0  0  0  0
  5  7  1  0  0  0  0
  7  8  1  0  0  0  0
  7  9  1  0  0  0  0
  9 10  1  0  0  0  0
  9 11  1  0  0  0  0
  9 21  1  0  0  0  0
 11 12  1  0  0  0  0
 11 13  1  0  0  0  0
 11 14  1  0  0  0  0
 14 15  1  0  0  0  0
 14 16  1  0  0  0  0
 14 17  1  0  0  0  0
 17 18  2  0  0  0  0
 17 19  1  0  0  0  0
 19 20  1  0  0  0  0
 21 22  2  0  0  0  0
 21 23  1  0  0  0  0
 23 24  1  0  0  0  0
 23 25  1  0  0  0  0
 25 26  1  0  0  0  0
 25 27  1  0  0  0  0
 25 28  1  0  0  0  0
M  END
$$$$

  -OEChem-02102214123D

 28 27  0     1  0  0  0  0  0999 V2000
   -2.6678   -4.2339    0.3173 H   0  0  0  0  0  0  0  0  0  0  0  0
   -2.6473   -3.2516   -0.1632 C   0  0  0  0  0  0  0  0  0  0  0  0
   -3.4893   -2.6608    0.2052 H   0  0  0  0  0  0  0  0  0  0  0  0
   -2.7498   -3.3864   -1.2424 H   0  0  0  0  0  0  0  0  0  0  0  0
   -1.3425   -2.5451    0.1505 C   0  0  0  0  0  0  0  0  0  0  0  0
   -0.5499   -3.0489    0.9248 O   0  0  0  0  0  0  0  0  0  0  0  0
   -1.0707   -1.3260   -0.4371 N   0  0  0  0  0  0  0  0  0  0  0  0
   -1.7171   -1.0402   -1.1712 H   0  0  0  0  0  0  0  0  0  0  0  0
    0.2471   -0.6607   -0.3857 C   0  0  1  0  0  0  0  0  0  0  0  0
    0.9773   -1.3554   -0.8175 H   0  0  0  0  0  0  0  0  0  0  0  0
    0.2688    0.6320   -1.2354 C   0  0  0  0  0  0  0  0  0  0  0  0
   -0.2315    1.4279   -0.6730 H   0  0  0  0  0  0  0  0  0  0  0  0
    1.3198    0.9284   -1.3318 H   0  0  0  0  0  0  0  0  0  0  0  0
   -0.3454    0.6045   -2.6608 C   0  0  0  0  0  0  0  0  0  0  0  0
   -1.3016    1.1346   -2.6305 H   0  0  0  0  0  0  0  0  0  0  0  0
    0.3062    1.1667   -3.3367 H   0  0  0  0  0  0  0  0  0  0  0  0
   -0.6112   -0.7655   -3.2801 C   0  0  0  0  0  0  0  0  0  0  0  0
    0.3165   -1.3544   -3.8028 O   0  0  0  0  0  0  0  0  0  0  0  0
   -1.8725   -1.2595   -3.2204 O   0  0  0  0  0  0  0  0  0  0  0  0
   -1.8410   -2.0923   -3.7202 H   0  0  0  0  0  0  0  0  0  0  0  0
    0.7523   -0.3368    1.0390 C   0  0  0  0  0  0  0  0  0  0  0  0
    1.9552   -0.3171    1.2631 O   0  0  0  0  0  0  0  0  0  0  0  0
   -0.1102    0.2218    1.9647 N   0  0  0  0  0  0  0  0  0  0  0  0
   -1.0990    0.0848    1.7816 H   0  0  0  0  0  0  0  0  0  0  0  0
    0.3089    0.5621    3.3188 C   0  0  0  0  0  0  0  0  0  0  0  0
    1.1170    1.3010    3.2961 H   0  0  0  0  0  0  0  0  0  0  0  0
   -0.5292    0.9871    3.8794 H   0  0  0  0  0  0  0  0  0  0  0  0
    0.6628   -0.3309    3.8450 H   0  0  0  0  0  0  0  0  0  0  0  0
  1  2  1  0  0  0  0
  2  3  1  0  0  0  0
  2  4  1  0  0  0  0
  2  5  1  0  0  0  0
  5  6  2  0  0  0  0
  5  7  1  0  0  0  0
  7  8  1  0  0  0  0
  7  9  1  0  0  0  0
  9 10  1  0  0  0  0
  9 11  1  0  0  0  0
  9 21  1  0  0  0  0
 11 12  1  0  0  0  0
 11 13  1  0  0  0  0
 11 14  1  0  0  0  0
 14 15  1  0  0  0  0
 14 16  1  0  0  0  0
 14 17  1  0  0  0  0
 17 18  2  0  0  0  0
 17 19  1  0  0  0  0
 19 20  1  0  0  0  0
 21 22  2  0  0  0  0
 21 23  1  0  0  0  0
 23 24  1  0  0  0  0
 23 25  1  0  0  0  0
 25 26  1  0  0  0  0
 25 27  1  0  0  0  0
 25 28  1  0  0  0  0
M  END
$$$$

  -OEChem-02102214123D

 28 27  0     1  0  0  0  0  0999 V2000
   -2.6687   -4.2448    0.4716 H   0  0  0  0  0  0  0  0  0  0  0  0
   -2.6382   -3.2922   -0.0653 C   0  0  0  0  0  0  0  0  0  0  0  0
   -3.4657   -2.6674    0.2789 H   0  0  0  0  0  0  0  0  0  0  0  0
   -2.7567   -3.4879   -1.1335 H   0  0  0  0  0  0  0  0  0  0  0  0
   -1.3176   -2.5915    0.1903 C   0  0  0  0  0  0  0  0  0  0  0  0
   -0.4953   -3.0966    0.9322 O   0  0  0  0  0  0  0  0  0  0  0  0
   -1.0645   -1.3748   -0.4103 N   0  0  0  0  0  0  0  0  0  0  0  0
   -1.7615   -1.0498   -1.0794 H   0  0  0  0  0  0  0  0  0  0  0  0
    0.2389   -0.6839   -0.3743 C   0  0  1  0  0  0  0  0  0  0  0  0
    0.9759   -1.3794   -0.7933 H   0  0  0  0  0  0  0  0  0  0  0  0
    0.2677    0.5934   -1.2497 C   0  0  0  0  0  0  0  0  0  0  0  0
   -0.2619    1.3789   -0.6998 H   0  0  0  0  0  0  0  0  0  0  0  0
    1.3136    0.9140   -1.3195 H   0  0  0  0  0  0  0  0  0  0  0  0
   -0.3191    0.5748   -2.6905 C   0  0  0  0  0  0  0  0  0  0  0  0
   -1.0973    1.3410   -2.7535 H   0  0  0  0  0  0  0  0  0  0  0  0
    0.4737    0.8768   -3.3821 H   0  0  0  0  0  0  0  0  0  0  0  0
   -0.9183   -0.7237   -3.2239 C   0  0  0  0  0  0  0  0  0  0  0  0
   -0.1964   -1.4886   -3.8362 O   0  0  0  0  0  0  0  0  0  0  0  0
   -2.2363   -0.9558   -3.0044 O   0  0  0  0  0  0  0  0  0  0  0  0
   -2.4365   -1.7675   -3.4998 H   0  0  0  0  0  0  0  0  0  0  0  0
    0.7405   -0.3350    1.0458 C   0  0  0  0  0  0  0  0  0  0  0  0
    1.9431   -0.2851    1.2667 O   0  0  0  0  0  0  0  0  0  0  0  0
   -0.1312    0.2165    1.9673 N   0  0  0  0  0  0  0  0  0  0  0  0
   -1.1180    0.0629    1.7873 H   0  0  0  0  0  0  0  0  0  0  0  0
    0.2838    0.5959    3.3124 C   0  0  0  0  0  0  0  0  0  0  0  0
    1.0733    1.3540    3.2713 H   0  0  0  0  0  0  0  0  0  0  0  0
   -0.5628    1.0118    3.8667 H   0  0  0  0  0  0  0  0  0  0  0  0
    0.6617   -0.2764    3.8561 H   0  0  0  0  0  0  0  0  0  0  0  0
  1  2  1  0  0  0  0
  2  3  1  0  0  0  0
  2  4  1  0  0  0  0
  2  5  1  0  0  0  0
  5  6  2  0  0  0  0
  5  7  1  0  0  0  0
  7  8  1  0  0  0  0
  7  9  1  0  0  0  0
  9 10  1  0  0  0  0
  9 11  1  0  0  0  0
  9 21  1  0  0  0  0
 11 12  1  0  0  0  0
 11 13  1  0  0  0  0
 11 14  1  0  0  0  0
 14 15  1  0  0  0  0
 14 16  1  0  0  0  0
 14 17  1  0  0  0  0
 17 18  2  0  0  0  0
 17 19  1  0  0  0  0
 19 20  1  0  0  0  0
 21 22  2  0  0  0  0
 21 23  1  0  0  0  0
 23 24  1  0  0  0  0
 23 25  1  0  0  0  0
 25 26  1  0  0  0  0
 25 27  1  0  0  0  0
 25 28  1  0  0  0  0
M  END
$$$$

  -OEChem-02102214123D

 28 27  0     1  0  0  0  0  0999 V2000
   -2.6584   -4.2452    0.6011 H   0  0  0  0  0  0  0  0  0  0  0  0
   -2.6350   -3.3113    0.0319 C   0  0  0  0  0  0  0  0  0  0  0  0
   -3.4400   -2.6633    0.3863 H   0  0  0  0  0  0  0  0  0  0  0  0
   -2.7964   -3.5398   -1.0244 H   0  0  0  0  0  0  0  0  0  0  0  0
   -1.2952   -2.6239    0.2134 C   0  0  0  0  0  0  0  0  0  0  0  0
   -0.4342   -3.1406    0.9015 O   0  0  0  0  0  0  0  0  0  0  0  0
   -1.0643   -1.4071   -0.3959 N   0  0  0  0  0  0  0  0  0  0  0  0
   -1.8154   -1.0340   -0.9746 H   0  0  0  0  0  0  0  0  0  0  0  0
    0.2265   -0.6950   -0.3801 C   0  0  1  0  0  0  0  0  0  0  0  0
    0.9675   -1.3891   -0.7940 H   0  0  0  0  0  0  0  0  0  0  0  0
    0.2557    0.5713   -1.2731 C   0  0  0  0  0  0  0  0  0  0  0  0
   -0.3009    1.3444   -0.7324 H   0  0  0  0  0  0  0  0  0  0  0  0
    1.2942    0.9180   -1.3291 H   0  0  0  0  0  0  0  0  0  0  0  0
   -0.3209    0.5471   -2.7185 C   0  0  0  0  0  0  0  0  0  0  0  0
   -0.8691    1.4783   -2.8865 H   0  0  0  0  0  0  0  0  0  0  0  0
    0.5304    0.5571   -3.4067 H   0  0  0  0  0  0  0  0  0  0  0  0
   -1.2229   -0.6050   -3.1537 C   0  0  0  0  0  0  0  0  0  0  0  0
   -0.7595   -1.4689   -3.8751 O   0  0  0  0  0  0  0  0  0  0  0  0
   -2.5144   -0.5948   -2.7397 O   0  0  0  0  0  0  0  0  0  0  0  0
   -2.9393   -1.3285   -3.2143 H   0  0  0  0  0  0  0  0  0  0  0  0
    0.7338   -0.3309    1.0338 C   0  0  0  0  0  0  0  0  0  0  0  0
    1.9369   -0.2597    1.2455 O   0  0  0  0  0  0  0  0  0  0  0  0
   -0.1396    0.2102    1.9598 N   0  0  0  0  0  0  0  0  0  0  0  0
   -1.1265    0.0535    1.7838 H   0  0  0  0  0  0  0  0  0  0  0  0
    0.2797    0.6102    3.2973 C   0  0  0  0  0  0  0  0  0  0  0  0
    1.0495    1.3873    3.2418 H   0  0  0  0  0  0  0  0  0  0  0  0
   -0.5713    1.0090    3.8576 H   0  0  0  0  0  0  0  0  0  0  0  0
    0.6849   -0.2483    3.8432 H   0  0  0  0  0  0  0  0  0  0  0  0
  1  2  1  0  0  0  0
  2  3  1  0  0  0  0
  2  4  1  0  0  0  0
  2  5  1  0  0  0  0
  5  6  2  0  0  0  0
  5  7  1  0  0  0  0
  7  8  1  0  0  0  0
  7  9  1  0  0  0  0
  9 10  1  0  0  0  0
  9 11  1  0  0  0  0
  9 21  1  0  0  0  0
 11 12  1  0  0  0  0
 11 13  1  0  0  0  0
 11 14  1  0  0  0  0
 14 15  1  0  0  0  0
 14 16  1  0  0  0  0
 14 17  1  0  0  0  0
 17 18  2  0  0  0  0
 17 19  1  0  0  0  0
 19 20  1  0  0  0  0
 21 22  2  0  0  0  0
 21 23  1  0  0  0  0
 23 24  1  0  0  0  0
 23 25  1  0  0  0  0
 25 26  1  0  0  0  0
 25 27  1  0  0  0  0
 25 28  1  0  0  0  0
M  END
$$$$

  -OEChem-02102214123D

 28 27  0     1  0  0  0  0  0999 V2000
   -2.6391   -4.2477    0.6564 H   0  0  0  0  0  0  0  0  0  0  0  0
   -2.6409   -3.3019    0.1067 C   0  0  0  0  0  0  0  0  0  0  0  0
   -3.4118   -2.6519    0.5274 H   0  0  0  0  0  0  0  0  0  0  0  0
   -2.8743   -3.5053   -0.9413 H   0  0  0  0  0  0  0  0  0  0  0  0
   -1.2824   -2.6359    0.2126 C   0  0  0  0  0  0  0  0  0  0  0  0
   -0.3885   -3.1712    0.8424 O   0  0  0  0  0  0  0  0  0  0  0  0
   -1.0702   -1.4165   -0.3978 N   0  0  0  0  0  0  0  0  0  0  0  0
   -1.8617   -0.9981   -0.8833 H   0  0  0  0  0  0  0  0  0  0  0  0
    0.2133   -0.6940   -0.4028 C   0  0  1  0  0  0  0  0  0  0  0  0
    0.9518   -1.3863   -0.8237 H   0  0  0  0  0  0  0  0  0  0  0  0
    0.2321    0.5677   -1.3038 C   0  0  0  0  0  0  0  0  0  0  0  0
   -0.3297    1.3387   -0.7652 H   0  0  0  0  0  0  0  0  0  0  0  0
    1.2670    0.9228   -1.3707 H   0  0  0  0  0  0  0  0  0  0  0  0
   -0.3576    0.5258   -2.7425 C   0  0  0  0  0  0  0  0  0  0  0  0
   -0.6692    1.5378   -3.0157 H   0  0  0  0  0  0  0  0  0  0  0  0
    0.4627    0.2550   -3.4152 H   0  0  0  0  0  0  0  0  0  0  0  0
   -1.5151   -0.4183   -3.0600 C   0  0  0  0  0  0  0  0  0  0  0  0
   -1.3436   -1.2962   -3.8858 O   0  0  0  0  0  0  0  0  0  0  0  0
   -2.7005   -0.2073   -2.4358 O   0  0  0  0  0  0  0  0  0  0  0  0
   -3.3279   -0.8102   -2.8682 H   0  0  0  0  0  0  0  0  0  0  0  0
    0.7384   -0.3288    1.0044 C   0  0  0  0  0  0  0  0  0  0  0  0
    1.9440   -0.2544    1.2004 O   0  0  0  0  0  0  0  0  0  0  0  0
   -0.1247    0.2028    1.9456 N   0  0  0  0  0  0  0  0  0  0  0  0
   -1.1137    0.0470    1.7818 H   0  0  0  0  0  0  0  0  0  0  0  0
    0.3121    0.6001    3.2785 C   0  0  0  0  0  0  0  0  0  0  0  0
    1.0773    1.3810    3.2146 H   0  0  0  0  0  0  0  0  0  0  0  0
   -0.5323    0.9927    3.8530 H   0  0  0  0  0  0  0  0  0  0  0  0
    0.7295   -0.2583    3.8156 H   0  0  0  0  0  0  0  0  0  0  0  0
  1  2  1  0  0  0  0
  2  3  1  0  0  0  0
  2  4  1  0  0  0  0
  2  5  1  0  0  0  0
  5  6  2  0  0  0  0
  5  7  1  0  0  0  0
  7  8  1  0  0  0  0
  7  9  1  0  0  0  0
  9 10  1  0  0  0  0
  9 11  1  0  0  0  0
  9 21  1  0  0  0  0
 11 12  1  0  0  0  0
 11 13  1  0  0  0  0
 11 14  1  0  0  0  0
 14 15  1  0  0  0  0
 14 16  1  0  0  0  0
 14 17  1  0  0  0  0
 17 18  2  0  0  0  0
 17 19  1  0  0  0  0
 19 20  1  0  0  0  0
 21 22  2  0  0  0  0
 21 23  1  0  0  0  0
 23 24  1  0  0  0  0
 23 25  1  0  0  0  0
 25 26  1  0  0  0  0
 25 27  1  0  0  0  0
 25 28  1  0  0  0  0
M  END
$$$$

  -OEChem-02102214123D

 28 27  0     1  0  0  0  0  0999 V2000
   -2.2816   -4.5307    0.6987 H   0  0  0  0  0  0  0  0  0  0  0  0
   -2.4246   -3.5866    0.1655 C   0  0  0  0  0  0  0  0  0  0  0  0
   -3.3247   -3.0983    0.5459 H   0  0  0  0  0  0  0  0  0  0  0  0
   -2.5571   -3.8008   -0.8982 H   0  0  0  0  0  0  0  0  0  0  0  0
   -1.2218   -2.6850    0.3661 C   0  0  0  0  0  0  0  0  0  0  0  0
   -0.3364   -3.0133    1.1356 O   0  0  0  0  0  0  0  0  0  0  0  0
   -1.1518   -1.4887   -0.3204 N   0  0  0  0  0  0  0  0  0  0  0  0
   -1.8400   -1.4250   -1.0681 H   0  0  0  0  0  0  0  0  0  0  0  0
    0.1037   -0.7252   -0.4878 C   0  0  1  0  0  0  0  0  0  0  0  0
    0.8169   -1.4086   -0.9631 H   0  0  0  0  0  0  0  0  0  0  0  0
    0.0109    0.5339   -1.3979 C   0  0  0  0  0  0  0  0  0  0  0  0
   -0.4855    1.3137   -0.8103 H   0  0  0  0  0  0  0  0  0  0  0  0
    1.0315    0.8852   -1.5896 H   0  0  0  0  0  0  0  0  0  0  0  0
   -0.7318    0.4626   -2.7583 C   0  0  0  0  0  0  0  0  0  0  0  0
   -0.8566    1.4756   -3.1512 H   0  0  0  0  0  0  0  0  0  0  0  0
   -0.0876   -0.0730   -3.4637 H   0  0  0  0  0  0  0  0  0  0  0  0
   -2.0849   -0.2354   -2.7616 C   0  0  0  0  0  0  0  0  0  0  0  0
   -2.1315   -1.4135   -3.0744 O   0  0  0  0  0  0  0  0  0  0  0  0
   -3.1475    0.4794   -2.3092 O   0  0  0  0  0  0  0  0  0  0  0  0
   -2.8617    1.3840   -2.1186 H   0  0  0  0  0  0  0  0  0  0  0  0
    0.7562   -0.2840    0.8439 C   0  0  0  0  0  0  0  0  0  0  0  0
    1.9691   -0.1248    0.8922 O   0  0  0  0  0  0  0  0  0  0  0  0
   -0.0297    0.2592    1.8439 N   0  0  0  0  0  0  0  0  0  0  0  0
   -1.0042   -0.0259    1.8247 H   0  0  0  0  0  0  0  0  0  0  0  0
    0.5301    0.7194    3.1088 C   0  0  0  0  0  0  0  0  0  0  0  0
    1.2660    1.5124    2.9379 H   0  0  0  0  0  0  0  0  0  0  0  0
   -0.2616    1.1186    3.7499 H   0  0  0  0  0  0  0  0  0  0  0  0
    1.0198   -0.1081    3.6333 H   0  0  0  0  0  0  0  0  0  0  0  0
  1  2  1  0  0  0  0
  2  3  1  0  0  0  0
  2  4  1  0  0  0  0
  2  5  1  0  0  0  0
  5  6  2  0  0  0  0
  5  7  1  0  0  0  0
  7  8  1  0  0  0  0
  7  9  1  0  0  0  0
  9 10  1  0  0  0  0
  9 11  1  0  0  0  0
  9 21  1  0  0  0  0
 11 12  1  0  0  0  0
 11 13  1  0  0  0  0
 11 14  1  0  0  0  0
 14 15  1  0  0  0  0
 14 16  1  0  0  0  0
 14 17  1  0  0  0  0
 17 18  2  0  0  0  0
 17 19  1  0  0  0  0
 19 20  1  0  0  0  0
 21 22  2  0  0  0  0
 21 23  1  0  0  0  0
 23 24  1  0  0  0  0
 23 25  1  0  0  0  0
 25 26  1  0  0  0  0
 25 27  1  0  0  0  0
 25 28  1  0  0  0  0
M  END
$$$$

  -OEChem-02102214123D

 28 27  0     1  0  0  0  0  0999 V2000
   -2.5499   -4.2432    0.6177 H   0  0  0  0  0  0  0  0  0  0  0  0
   -2.6013   -3.2733    0.1147 C   0  0  0  0  0  0  0  0  0  0  0  0
   -3.3004   -2.6328    0.6572 H   0  0  0  0  0  0  0  0  0  0  0  0
   -2.9692   -3.4233   -0.9032 H   0  0  0  0  0  0  0  0  0  0  0  0
   -1.2274   -2.6317    0.0774 C   0  0  0  0  0  0  0  0  0  0  0  0
   -0.2586   -3.2391    0.4963 O   0  0  0  0  0  0  0  0  0  0  0  0
   -1.0825   -1.3573   -0.4308 N   0  0  0  0  0  0  0  0  0  0  0  0
   -1.9388   -0.8629   -0.6800 H   0  0  0  0  0  0  0  0  0  0  0  0
    0.1816   -0.6019   -0.4439 C   0  0  1  0  0  0  0  0  0  0  0  0
    0.9100   -1.2275   -0.9727 H   0  0  0  0  0  0  0  0  0  0  0  0
    0.1024    0.7386   -1.2174 C   0  0  0  0  0  0  0  0  0  0  0  0
   -0.4171    1.4659   -0.5837 H   0  0  0  0  0  0  0  0  0  0  0  0
    1.1254    1.1077   -1.3521 H   0  0  0  0  0  0  0  0  0  0  0  0
   -0.5984    0.7408   -2.6012 C   0  0  0  0  0  0  0  0  0  0  0  0
   -0.5230    1.7461   -3.0246 H   0  0  0  0  0  0  0  0  0  0  0  0
   -0.0371    0.0704   -3.2586 H   0  0  0  0  0  0  0  0  0  0  0  0
   -2.0681    0.3259   -2.6746 C   0  0  0  0  0  0  0  0  0  0  0  0
   -2.7935    0.4995   -1.7064 O   0  0  0  0  0  0  0  0  0  0  0  0
   -2.4984   -0.2065   -3.8410 O   0  0  0  0  0  0  0  0  0  0  0  0
   -3.4471   -0.3738   -3.7368 H   0  0  0  0  0  0  0  0  0  0  0  0
    0.7802   -0.3508    0.9580 C   0  0  0  0  0  0  0  0  0  0  0  0
    1.9939   -0.2818    1.0975 O   0  0  0  0  0  0  0  0  0  0  0  0
   -0.0371    0.0699    1.9917 N   0  0  0  0  0  0  0  0  0  0  0  0
   -1.0363   -0.0380    1.8518 H   0  0  0  0  0  0  0  0  0  0  0  0
    0.4620    0.3607    3.3301 C   0  0  0  0  0  0  0  0  0  0  0  0
    1.2172    1.1530    3.2949 H   0  0  0  0  0  0  0  0  0  0  0  0
   -0.3562    0.6940    3.9755 H   0  0  0  0  0  0  0  0  0  0  0  0
    0.9115   -0.5343    3.7729 H   0  0  0  0  0  0  0  0  0  0  0  0
  1  2  1  0  0  0  0
  2  3  1  0  0  0  0
  2  4  1  0  0  0  0
  2  5  1  0  0  0  0
  5  6  2  0  0  0  0
  5  7  1  0  0  0  0
  7  8  1  0  0  0  0
  7  9  1  0  0  0  0
  9 10  1  0  0  0  0
  9 11  1  0  0  0  0
  9 21  1  0  0  0  0
 11 12  1  0  0  0  0
 11 13  1  0  0  0  0
 11 14  1  0  0  0  0
 14 15  1  0  0  0  0
 14 16  1  0  0  0  0
 14 17  1  0  0  0  0
 17 18  2  0  0  0  0
 17 19  1  0  0  0  0
 19 20  1  0  0  0  0
 21 22  2  0  0  0  0
 21 23  1  0  0  0  0
 23 24  1  0  0  0  0
 23 25  1  0  0  0  0
 25 26  1  0  0  0  0
 25 27  1  0  0  0  0
 25 28  1  0  0  0  0
M  END
$$$$

  -OEChem-02102214123D

 28 27  0     1  0  0  0  0  0999 V2000
   -2.5855   -4.2130    0.5598 H   0  0  0  0  0  0  0  0  0  0  0  0
   -2.6196   -3.2291    0.0832 C   0  0  0  0  0  0  0  0  0  0  0  0
   -3.3094   -2.5911    0.6408 H   0  0  0  0  0  0  0  0  0  0  0  0
   -2.9867   -3.3455   -0.9394 H   0  0  0  0  0  0  0  0  0  0  0  0
   -1.2356   -2.6091    0.0669 C   0  0  0  0  0  0  0  0  0  0  0  0
   -0.2844   -3.2253    0.5128 O   0  0  0  0  0  0  0  0  0  0  0  0
   -1.0620   -1.3422   -0.4508 N   0  0  0  0  0  0  0  0  0  0  0  0
   -1.9060   -0.8362   -0.7182 H   0  0  0  0  0  0  0  0  0  0  0  0
    0.2100   -0.5999   -0.4318 C   0  0  1  0  0  0  0  0  0  0  0  0
    0.9506   -1.2314   -0.9358 H   0  0  0  0  0  0  0  0  0  0  0  0
    0.1365    0.7308   -1.2176 C   0  0  0  0  0  0  0  0  0  0  0  0
   -0.3800    1.4805   -0.6080 H   0  0  0  0  0  0  0  0  0  0  0  0
    1.1632    1.0878   -1.3575 H   0  0  0  0  0  0  0  0  0  0  0  0
   -0.5482    0.6660   -2.6064 C   0  0  0  0  0  0  0  0  0  0  0  0
   -0.2811    1.5714   -3.1584 H   0  0  0  0  0  0  0  0  0  0  0  0
   -0.1366   -0.1836   -3.1590 H   0  0  0  0  0  0  0  0  0  0  0  0
   -2.0754    0.5608   -2.6404 C   0  0  0  0  0  0  0  0  0  0  0  0
   -2.7226    0.6417   -1.6069 O   0  0  0  0  0  0  0  0  0  0  0  0
   -2.6389    0.3841   -3.8568 O   0  0  0  0  0  0  0  0  0  0  0  0
   -3.5980    0.3671   -3.7176 H   0  0  0  0  0  0  0  0  0  0  0  0
    0.7686   -0.3374    0.9839 C   0  0  0  0  0  0  0  0  0  0  0  0
    1.9782   -0.2849    1.1614 O   0  0  0  0  0  0  0  0  0  0  0  0
   -0.0759    0.1045    1.9860 N   0  0  0  0  0  0  0  0  0  0  0  0
   -1.0714    0.0123    1.8126 H   0  0  0  0  0  0  0  0  0  0  0  0
    0.3827    0.4000    3.3374 C   0  0  0  0  0  0  0  0  0  0  0  0
    1.1509    1.1804    3.3201 H   0  0  0  0  0  0  0  0  0  0  0  0
   -0.4513    0.7522    3.9519 H   0  0  0  0  0  0  0  0  0  0  0  0
    0.8036   -0.4977    3.8025 H   0  0  0  0  0  0  0  0  0  0  0  0
  1  2  1  0  0  0  0
  2  3  1  0  0  0  0
  2  4  1  0  0  0  0
  2  5  1  0  0  0  0
  5  6  2  0  0  0  0
  5  7  1  0  0  0  0
  7  8  1  0  0  0  0
  7  9  1  0  0  0  0
  9 10  1  0  0  0  0
  9 11  1  0  0  0  0
  9 21  1  0  0  0  0
 11 12  1  0  0  0  0
 11 13  1  0  0  0  0
 11 14  1  0  0  0  0
 14 15  1  0  0  0  0
 14 16  1  0  0  0  0
 14 17  1  0  0  0  0
 17 18  2  0  0  0  0
 17 19  1  0  0  0  0
 19 20  1  0  0  0  0
 21 22  2  0  0  0  0
 21 23  1  0  0  0  0
 23 24  1  0  0  0  0
 23 25  1  0  0  0  0
 25 26  1  0  0  0  0
 25 27  1  0  0  0  0
 25 28  1  0  0  0  0
M  END
$$$$

  -OEChem-02102214123D

 28 27  0     1  0  0  0  0  0999 V2000
   -2.5937   -4.2074    0.5264 H   0  0  0  0  0  0  0  0  0  0  0  0
   -2.6172   -3.2227    0.0508 C   0  0  0  0  0  0  0  0  0  0  0  0
   -3.3184   -2.5856    0.5950 H   0  0  0  0  0  0  0  0  0  0  0  0
   -2.9632   -3.3369   -0.9792 H   0  0  0  0  0  0  0  0  0  0  0  0
   -1.2331   -2.6025    0.0653 C   0  0  0  0  0  0  0  0  0  0  0  0
   -0.2959   -3.2099    0.5511 O   0  0  0  0  0  0  0  0  0  0  0  0
   -1.0449   -1.3425   -0.4632 N   0  0  0  0  0  0  0  0  0  0  0  0
   -1.8767   -0.8499   -0.7888 H   0  0  0  0  0  0  0  0  0  0  0  0
    0.2289   -0.6031   -0.4337 C   0  0  1  0  0  0  0  0  0  0  0  0
    0.9770   -1.2340   -0.9275 H   0  0  0  0  0  0  0  0  0  0  0  0
    0.1381    0.7181   -1.2291 C   0  0  0  0  0  0  0  0  0  0  0  0
   -0.3794    1.4765   -0.6312 H   0  0  0  0  0  0  0  0  0  0  0  0
    1.1616    1.0790   -1.3809 H   0  0  0  0  0  0  0  0  0  0  0  0
   -0.5495    0.5993   -2.6117 C   0  0  0  0  0  0  0  0  0  0  0  0
   -0.1145    1.3604   -3.2661 H   0  0  0  0  0  0  0  0  0  0  0  0
   -0.3230   -0.3738   -3.0568 H   0  0  0  0  0  0  0  0  0  0  0  0
   -2.0658    0.8144   -2.6310 C   0  0  0  0  0  0  0  0  0  0  0  0
   -2.7207    0.6480   -1.6126 O   0  0  0  0  0  0  0  0  0  0  0  0
   -2.6119    1.1733   -3.8149 O   0  0  0  0  0  0  0  0  0  0  0  0
   -3.5634    1.2752   -3.6595 H   0  0  0  0  0  0  0  0  0  0  0  0
    0.7708   -0.3236    0.9850 C   0  0  0  0  0  0  0  0  0  0  0  0
    1.9783   -0.2711    1.1753 O   0  0  0  0  0  0  0  0  0  0  0  0
   -0.0839    0.1332    1.9719 N   0  0  0  0  0  0  0  0  0  0  0  0
   -1.0775    0.0357    1.7896 H   0  0  0  0  0  0  0  0  0  0  0  0
    0.3599    0.4406    3.3257 C   0  0  0  0  0  0  0  0  0  0  0  0
    1.1330    1.2160    3.3100 H   0  0  0  0  0  0  0  0  0  0  0  0
   -0.4794    0.8042    3.9261 H   0  0  0  0  0  0  0  0  0  0  0  0
    0.7695   -0.4545    3.8057 H   0  0  0  0  0  0  0  0  0  0  0  0
  1  2  1  0  0  0  0
  2  3  1  0  0  0  0
  2  4  1  0  0  0  0
  2  5  1  0  0  0  0
  5  6  2  0  0  0  0
  5  7  1  0  0  0  0
  7  8  1  0  0  0  0
  7  9  1  0  0  0  0
  9 10  1  0  0  0  0
  9 11  1  0  0  0  0
  9 21  1  0  0  0  0
 11 12  1  0  0  0  0
 11 13  1  0  0  0  0
 11 14  1  0  0  0  0
 14 15  1  0  0  0  0
 14 16  1  0  0  0  0
 14 17  1  0  0  0  0
 17 18  2  0  0  0  0
 17 19  1  0  0  0  0
 19 20  1  0  0  0  0
 21 22  2  0  0  0  0
 21 23  1  0  0  0  0
 23 24  1  0  0  0  0
 23 25  1  0  0  0  0
 25 26  1  0  0  0  0
 25 27  1  0  0  0  0
 25 28  1  0  0  0  0
M  END
$$$$

  -OEChem-02102214123D

 28 27  0     1  0  0  0  0  0999 V2000
   -2.6043   -4.2264    0.4662 H   0  0  0  0  0  0  0  0  0  0  0  0
   -2.6206   -3.2395   -0.0045 C   0  0  0  0  0  0  0  0  0  0  0  0
   -3.3652   -2.6196    0.5006 H   0  0  0  0  0  0  0  0  0  0  0  0
   -2.9039   -3.3543   -1.0534 H   0  0  0  0  0  0  0  0  0  0  0  0
   -1.2528   -2.5918    0.0943 C   0  0  0  0  0  0  0  0  0  0  0  0
   -0.3463   -3.1610    0.6755 O   0  0  0  0  0  0  0  0  0  0  0  0
   -1.0442   -1.3493   -0.4665 N   0  0  0  0  0  0  0  0  0  0  0  0
   -1.8414   -0.9118   -0.9308 H   0  0  0  0  0  0  0  0  0  0  0  0
    0.2365   -0.6170   -0.4408 C   0  0  1  0  0  0  0  0  0  0  0  0
    0.9888   -1.2587   -0.9137 H   0  0  0  0  0  0  0  0  0  0  0  0
    0.1296    0.6774   -1.2719 C   0  0  0  0  0  0  0  0  0  0  0  0
   -0.4015    1.4441   -0.6964 H   0  0  0  0  0  0  0  0  0  0  0  0
    1.1455    1.0532   -1.4381 H   0  0  0  0  0  0  0  0  0  0  0  0
   -0.5606    0.4791   -2.6416 C   0  0  0  0  0  0  0  0  0  0  0  0
    0.0111    1.0251   -3.3978 H   0  0  0  0  0  0  0  0  0  0  0  0
   -0.5566   -0.5725   -2.9423 H   0  0  0  0  0  0  0  0  0  0  0  0
   -1.9864    1.0206   -2.6611 C   0  0  0  0  0  0  0  0  0  0  0  0
   -2.8111    0.4790   -1.9404 O   0  0  0  0  0  0  0  0  0  0  0  0
   -2.2648    2.0731   -3.4635 O   0  0  0  0  0  0  0  0  0  0  0  0
   -3.2058    2.2713   -3.3408 H   0  0  0  0  0  0  0  0  0  0  0  0
    0.7684   -0.2965    0.9727 C   0  0  0  0  0  0  0  0  0  0  0  0
    1.9748   -0.2301    1.1661 O   0  0  0  0  0  0  0  0  0  0  0  0
   -0.0929    0.1969    1.9357 N   0  0  0  0  0  0  0  0  0  0  0  0
   -1.0833    0.0590    1.7621 H   0  0  0  0  0  0  0  0  0  0  0  0
    0.3444    0.5448    3.2818 C   0  0  0  0  0  0  0  0  0  0  0  0
    1.1106    1.3267    3.2465 H   0  0  0  0  0  0  0  0  0  0  0  0
   -0.4997    0.9172    3.8700 H   0  0  0  0  0  0  0  0  0  0  0  0
    0.7605   -0.3333    3.7872 H   0  0  0  0  0  0  0  0  0  0  0  0
  1  2  1  0  0  0  0
  2  3  1  0  0  0  0
  2  4  1  0  0  0  0
  2  5  1  0  0  0  0
  5  6  2  0  0  0  0
  5  7  1  0  0  0  0
  7  8  1  0  0  0  0
  7  9  1  0  0  0  0
  9 10  1  0  0  0  0
  9 11  1  0  0  0  0
  9 21  1  0  0  0  0
 11 12  1  0  0  0  0
 11 13  1  0  0  0  0
 11 14  1  0  0  0  0
 14 15  1  0  0  0  0
 14 16  1  0  0  0  0
 14 17  1  0  0  0  0
 17 18  2  0  0  0  0
 17 19  1  0  0  0  0
 19 20  1  0  0  0  0
 21 22  2  0  0  0  0
 21 23  1  0  0  0  0
 23 24  1  0  0  0  0
 23 25  1  0  0  0  0
 25 26  1  0  0  0  0
 25 27  1  0  0  0  0
 25 28  1  0  0  0  0
M  END
$$$$

  -OEChem-02102214123D

 28 27  0     1  0  0  0  0  0999 V2000
   -2.6131   -4.2170    0.4813 H   0  0  0  0  0  0  0  0  0  0  0  0
   -2.6317   -3.2330    0.0040 C   0  0  0  0  0  0  0  0  0  0  0  0
   -3.3712   -2.6093    0.5118 H   0  0  0  0  0  0  0  0  0  0  0  0
   -2.9241   -3.3550   -1.0417 H   0  0  0  0  0  0  0  0  0  0  0  0
   -1.2617   -2.5872    0.0871 C   0  0  0  0  0  0  0  0  0  0  0  0
   -0.3499   -3.1601    0.6556 O   0  0  0  0  0  0  0  0  0  0  0  0
   -1.0560   -1.3428   -0.4722 N   0  0  0  0  0  0  0  0  0  0  0  0
   -1.8550   -0.8969   -0.9213 H   0  0  0  0  0  0  0  0  0  0  0  0
    0.2286   -0.6143   -0.4492 C   0  0  1  0  0  0  0  0  0  0  0  0
    0.9769   -1.2551   -0.9296 H   0  0  0  0  0  0  0  0  0  0  0  0
    0.1111    0.6779   -1.2793 C   0  0  0  0  0  0  0  0  0  0  0  0
   -0.4291    1.4288   -0.6915 H   0  0  0  0  0  0  0  0  0  0  0  0
    1.1189    1.0749   -1.4465 H   0  0  0  0  0  0  0  0  0  0  0  0
   -0.5875    0.4786   -2.6476 C   0  0  0  0  0  0  0  0  0  0  0  0
    0.1031    0.7897   -3.4370 H   0  0  0  0  0  0  0  0  0  0  0  0
   -0.8283   -0.5686   -2.8472 H   0  0  0  0  0  0  0  0  0  0  0  0
   -1.8475    1.3234   -2.7661 C   0  0  0  0  0  0  0  0  0  0  0  0
   -2.7940    1.0093   -2.0611 O   0  0  0  0  0  0  0  0  0  0  0  0
   -1.8586    2.3671   -3.6260 O   0  0  0  0  0  0  0  0  0  0  0  0
   -2.7367    2.7715   -3.5541 H   0  0  0  0  0  0  0  0  0  0  0  0
    0.7713   -0.2982    0.9615 C   0  0  0  0  0  0  0  0  0  0  0  0
    1.9793   -0.2402    1.1468 O   0  0  0  0  0  0  0  0  0  0  0  0
   -0.0801    0.1965    1.9328 N   0  0  0  0  0  0  0  0  0  0  0  0
   -1.0730    0.0693    1.7656 H   0  0  0  0  0  0  0  0  0  0  0  0
    0.3698    0.5412    3.2759 C   0  0  0  0  0  0  0  0  0  0  0  0
    1.1426    1.3161    3.2348 H   0  0  0  0  0  0  0  0  0  0  0  0
   -0.4665    0.9216    3.8701 H   0  0  0  0  0  0  0  0  0  0  0  0
    0.7817   -0.3403    3.7786 H   0  0  0  0  0  0  0  0  0  0  0  0
  1  2  1  0  0  0  0
  2  3  1  0  0  0  0
  2  4  1  0  0  0  0
  2  5  1  0  0  0  0
  5  6  2  0  0  0  0
  5  7  1  0  0  0  0
  7  8  1  0  0  0  0
  7  9  1  0  0  0  0
  9 10  1  0  0  0  0
  9 11  1  0  0  0  0
  9 21  1  0  0  0  0
 11 12  1  0  0  0  0
 11 13  1  0  0  0  0
 11 14  1  0  0  0  0
 14 15  1  0  0  0  0
 14 16  1  0  0  0  0
 14 17  1  0  0  0  0
 17 18  2  0  0  0  0
 17 19  1  0  0  0  0
 19 20  1  0  0  0  0
 21 22  2  0  0  0  0
 21 23  1  0  0  0  0
 23 24  1  0  0  0  0
 23 25  1  0  0  0  0
 25 26  1  0  0  0  0
 25 27  1  0  0  0  0
 25 28  1  0  0  0  0
M  END
$$$$

  -OEChem-02102214123D

 28 27  0     1  0  0  0  0  0999 V2000
   -2.6041   -4.2522    0.5176 H   0  0  0  0  0  0  0  0  0  0  0  0
   -2.6372   -3.2729    0.0316 C   0  0  0  0  0  0  0  0  0  0  0  0
   -3.3879   -2.6570    0.5322 H   0  0  0  0  0  0  0  0  0  0  0  0
   -2.9248   -3.4094   -1.0136 H   0  0  0  0  0  0  0  0  0  0  0  0
   -1.2777   -2.6050    0.1123 C   0  0  0  0  0  0  0  0  0  0  0  0
   -0.3576   -3.1617    0.6832 O   0  0  0  0  0  0  0  0  0  0  0  0
   -1.0903   -1.3612   -0.4556 N   0  0  0  0  0  0  0  0  0  0  0  0
   -1.8916   -0.9365   -0.9163 H   0  0  0  0  0  0  0  0  0  0  0  0
    0.1911   -0.6275   -0.4615 C   0  0  1  0  0  0  0  0  0  0  0  0
    0.9305   -1.2732   -0.9494 H   0  0  0  0  0  0  0  0  0  0  0  0
    0.0806    0.6644   -1.2963 C   0  0  0  0  0  0  0  0  0  0  0  0
   -0.4668    1.4012   -0.6970 H   0  0  0  0  0  0  0  0  0  0  0  0
    1.0844    1.0731   -1.4592 H   0  0  0  0  0  0  0  0  0  0  0  0
   -0.6281    0.4961   -2.6639 C   0  0  0  0  0  0  0  0  0  0  0  0
    0.1260    0.5146   -3.4561 H   0  0  0  0  0  0  0  0  0  0  0  0
   -1.1467   -0.4602   -2.7547 H   0  0  0  0  0  0  0  0  0  0  0  0
   -1.6330    1.6119   -2.9147 C   0  0  0  0  0  0  0  0  0  0  0  0
   -2.7064    1.5416   -2.3386 O   0  0  0  0  0  0  0  0  0  0  0  0
   -1.2851    2.6242   -3.7413 O   0  0  0  0  0  0  0  0  0  0  0  0
   -2.0428    3.2285   -3.7644 H   0  0  0  0  0  0  0  0  0  0  0  0
    0.7613   -0.3049    0.9374 C   0  0  0  0  0  0  0  0  0  0  0  0
    1.9725   -0.2337    1.0951 O   0  0  0  0  0  0  0  0  0  0  0  0
   -0.0723    0.1890    1.9243 N   0  0  0  0  0  0  0  0  0  0  0  0
   -1.0675    0.0506    1.7829 H   0  0  0  0  0  0  0  0  0  0  0  0
    0.4061    0.5624    3.2494 C   0  0  0  0  0  0  0  0  0  0  0  0
    1.1373    1.3745    3.1779 H   0  0  0  0  0  0  0  0  0  0  0  0
   -0.4271    0.9033    3.8709 H   0  0  0  0  0  0  0  0  0  0  0  0
    0.8788   -0.2945    3.7411 H   0  0  0  0  0  0  0  0  0  0  0  0
  1  2  1  0  0  0  0
  2  3  1  0  0  0  0
  2  4  1  0  0  0  0
  2  5  1  0  0  0  0
  5  6  2  0  0  0  0
  5  7  1  0  0  0  0
  7  8  1  0  0  0  0
  7  9  1  0  0  0  0
  9 10  1  0  0  0  0
  9 11  1  0  0  0  0
  9 21  1  0  0  0  0
 11 12  1  0  0  0  0
 11 13  1  0  0  0  0
 11 14  1  0  0  0  0
 14 15  1  0  0  0  0
 14 16  1  0  0  0  0
 14 17  1  0  0  0  0
 17 18  2  0  0  0  0
 17 19  1  0  0  0  0
 19 20  1  0  0  0  0
 21 22  2  0  0  0  0
 21 23  1  0  0  0  0
 23 24  1  0  0  0  0
 23 25  1  0  0  0  0
 25 26  1  0  0  0  0
 25 27  1  0  0  0  0
 25 28  1  0  0  0  0
M  END
$$$$

  -OEChem-02102214123D

 28 27  0     1  0  0  0  0  0999 V2000
   -2.6038   -4.2363    0.3426 H   0  0  0  0  0  0  0  0  0  0  0  0
   -2.5922   -3.2761   -0.1813 C   0  0  0  0  0  0  0  0  0  0  0  0
   -3.4037   -2.6547    0.2049 H   0  0  0  0  0  0  0  0  0  0  0  0
   -2.7535   -3.4557   -1.2469 H   0  0  0  0  0  0  0  0  0  0  0  0
   -1.2598   -2.5832    0.0302 C   0  0  0  0  0  0  0  0  0  0  0  0
   -0.3920   -3.1207    0.6933 O   0  0  0  0  0  0  0  0  0  0  0  0
   -1.0399   -1.3387   -0.5256 N   0  0  0  0  0  0  0  0  0  0  0  0
   -1.7904   -0.9454   -1.0856 H   0  0  0  0  0  0  0  0  0  0  0  0
    0.2372   -0.6019   -0.4445 C   0  0  1  0  0  0  0  0  0  0  0  0
    1.0083   -1.2499   -0.8768 H   0  0  0  0  0  0  0  0  0  0  0  0
    0.2019    0.6921   -1.2852 C   0  0  0  0  0  0  0  0  0  0  0  0
   -0.3948    1.4246   -0.7296 H   0  0  0  0  0  0  0  0  0  0  0  0
    1.2156    1.1011   -1.3656 H   0  0  0  0  0  0  0  0  0  0  0  0
   -0.3996    0.5403   -2.7029 C   0  0  0  0  0  0  0  0  0  0  0  0
    0.3917    0.2603   -3.4050 H   0  0  0  0  0  0  0  0  0  0  0  0
   -1.1589   -0.2414   -2.7479 H   0  0  0  0  0  0  0  0  0  0  0  0
   -1.0616    1.8347   -3.1578 C   0  0  0  0  0  0  0  0  0  0  0  0
   -0.4725    2.5512   -3.9467 O   0  0  0  0  0  0  0  0  0  0  0  0
   -2.2841    2.1206   -2.6516 O   0  0  0  0  0  0  0  0  0  0  0  0
   -2.5365    2.9706   -3.0460 H   0  0  0  0  0  0  0  0  0  0  0  0
    0.7090   -0.2777    0.9910 C   0  0  0  0  0  0  0  0  0  0  0  0
    1.9065   -0.2117    1.2323 O   0  0  0  0  0  0  0  0  0  0  0  0
   -0.1895    0.2145    1.9205 N   0  0  0  0  0  0  0  0  0  0  0  0
   -1.1717    0.0642    1.7162 H   0  0  0  0  0  0  0  0  0  0  0  0
    0.1988    0.5693    3.2802 C   0  0  0  0  0  0  0  0  0  0  0  0
    0.9888    1.3279    3.2693 H   0  0  0  0  0  0  0  0  0  0  0  0
   -0.6584    0.9755    3.8256 H   0  0  0  0  0  0  0  0  0  0  0  0
    0.5663   -0.3131    3.8147 H   0  0  0  0  0  0  0  0  0  0  0  0
  1  2  1  0  0  0  0
  2  3  1  0  0  0  0
  2  4  1  0  0  0  0
  2  5  1  0  0  0  0
  5  6  2  0  0  0  0
  5  7  1  0  0  0  0
  7  8  1  0  0  0  0
  7  9  1  0  0  0  0
  9 10  1  0  0  0  0
  9 11  1  0  0  0  0
  9 21  1  0  0  0  0
 11 12  1  0  0  0  0
 11 13  1  0  0  0  0
 11 14  1  0  0  0  0
 14 15  1  0  0  0  0
 14 16  1  0  0  0  0
 14 17  1  0  0  0  0
 17 18  2  0  0  0  0
 17 19  1  0  0  0  0
 19 20  1  0  0  0  0
 21 22  2  0  0  0  0
 21 23  1  0  0  0  0
 23 24  1  0  0  0  0
 23 25  1  0  0  0  0
 25 26  1  0  0  0  0
 25 27  1  0  0  0  0
 25 28  1  0  0  0  0
M  END
$$$$

  -OEChem-02102214123D

 28 27  0     1  0  0  0  0  0999 V2000
   -2.6154   -4.2332    0.3443 H   0  0  0  0  0  0  0  0  0  0  0  0
   -2.6363   -3.2373   -0.1075 C   0  0  0  0  0  0  0  0  0  0  0  0
   -3.4193   -2.6484    0.3758 H   0  0  0  0  0  0  0  0  0  0  0  0
   -2.8689   -3.3399   -1.1702 H   0  0  0  0  0  0  0  0  0  0  0  0
   -1.2913   -2.5581    0.0670 C   0  0  0  0  0  0  0  0  0  0  0  0
   -0.3999   -3.1215    0.6749 O   0  0  0  0  0  0  0  0  0  0  0  0
   -1.0868   -1.2988   -0.4611 N   0  0  0  0  0  0  0  0  0  0  0  0
   -1.8509   -0.8956   -0.9933 H   0  0  0  0  0  0  0  0  0  0  0  0
    0.2026   -0.5797   -0.4243 C   0  0  1  0  0  0  0  0  0  0  0  0
    0.9404   -1.2256   -0.9138 H   0  0  0  0  0  0  0  0  0  0  0  0
    0.1480    0.7386   -1.2256 C   0  0  0  0  0  0  0  0  0  0  0  0
   -0.4093    1.4664   -0.6250 H   0  0  0  0  0  0  0  0  0  0  0  0
    1.1645    1.1309   -1.3470 H   0  0  0  0  0  0  0  0  0  0  0  0
   -0.5273    0.6220   -2.6154 C   0  0  0  0  0  0  0  0  0  0  0  0
    0.1443    0.0890   -3.2940 H   0  0  0  0  0  0  0  0  0  0  0  0
   -1.4526    0.0480   -2.5517 H   0  0  0  0  0  0  0  0  0  0  0  0
   -0.9008    1.9644   -3.2472 C   0  0  0  0  0  0  0  0  0  0  0  0
   -0.6221    3.0091   -2.6835 O   0  0  0  0  0  0  0  0  0  0  0  0
   -1.5515    1.9093   -4.4313 O   0  0  0  0  0  0  0  0  0  0  0  0
   -1.6977    2.8305   -4.6966 H   0  0  0  0  0  0  0  0  0  0  0  0
    0.7562   -0.3053    0.9924 C   0  0  0  0  0  0  0  0  0  0  0  0
    1.9660   -0.2769    1.1730 O   0  0  0  0  0  0  0  0  0  0  0  0
   -0.0812    0.1688    1.9860 N   0  0  0  0  0  0  0  0  0  0  0  0
   -1.0766    0.0565    1.8270 H   0  0  0  0  0  0  0  0  0  0  0  0
    0.3874    0.4760    3.3319 C   0  0  0  0  0  0  0  0  0  0  0  0
    1.1656    1.2462    3.3013 H   0  0  0  0  0  0  0  0  0  0  0  0
   -0.4387    0.8470    3.9458 H   0  0  0  0  0  0  0  0  0  0  0  0
    0.7985   -0.4212    3.8068 H   0  0  0  0  0  0  0  0  0  0  0  0
  1  2  1  0  0  0  0
  2  3  1  0  0  0  0
  2  4  1  0  0  0  0
  2  5  1  0  0  0  0
  5  6  2  0  0  0  0
  5  7  1  0  0  0  0
  7  8  1  0  0  0  0
  7  9  1  0  0  0  0
  9 10  1  0  0  0  0
  9 11  1  0  0  0  0
  9 21  1  0  0  0  0
 11 12  1  0  0  0  0
 11 13  1  0  0  0  0
 11 14  1  0  0  0  0
 14 15  1  0  0  0  0
 14 16  1  0  0  0  0
 14 17  1  0  0  0  0
 17 18  2  0  0  0  0
 17 19  1  0  0  0  0
 19 20  1  0  0  0  0
 21 22  2  0  0  0  0
 21 23  1  0  0  0  0
 23 24  1  0  0  0  0
 23 25  1  0  0  0  0
 25 26  1  0  0  0  0
 25 27  1  0  0  0  0
 25 28  1  0  0  0  0
M  END
$$$$

  -OEChem-02102214123D

 28 27  0     1  0  0  0  0  0999 V2000
   -2.5992   -4.2603    0.3406 H   0  0  0  0  0  0  0  0  0  0  0  0
   -2.6292   -3.2662   -0.1147 C   0  0  0  0  0  0  0  0  0  0  0  0
   -3.4417   -2.6952    0.3409 H   0  0  0  0  0  0  0  0  0  0  0  0
   -2.8241   -3.3764   -1.1843 H   0  0  0  0  0  0  0  0  0  0  0  0
   -1.3075   -2.5539    0.1017 C   0  0  0  0  0  0  0  0  0  0  0  0
   -0.4267   -3.0908    0.7477 O   0  0  0  0  0  0  0  0  0  0  0  0
   -1.1135   -1.2954   -0.4329 N   0  0  0  0  0  0  0  0  0  0  0  0
   -1.8523   -0.9400   -1.0302 H   0  0  0  0  0  0  0  0  0  0  0  0
    0.1777   -0.5773   -0.4158 C   0  0  1  0  0  0  0  0  0  0  0  0
    0.9027   -1.2341   -0.9107 H   0  0  0  0  0  0  0  0  0  0  0  0
    0.1307    0.7378   -1.2292 C   0  0  0  0  0  0  0  0  0  0  0  0
   -0.1647    1.5535   -0.5589 H   0  0  0  0  0  0  0  0  0  0  0  0
    1.1439    0.9636   -1.5822 H   0  0  0  0  0  0  0  0  0  0  0  0
   -0.8483    0.7276   -2.4274 C   0  0  0  0  0  0  0  0  0  0  0  0
   -0.5729   -0.0813   -3.1101 H   0  0  0  0  0  0  0  0  0  0  0  0
   -1.8686    0.5504   -2.0805 H   0  0  0  0  0  0  0  0  0  0  0  0
   -0.8759    2.0376   -3.2172 C   0  0  0  0  0  0  0  0  0  0  0  0
   -0.2347    3.0005   -2.8323 O   0  0  0  0  0  0  0  0  0  0  0  0
   -1.6481    2.0535   -4.3272 O   0  0  0  0  0  0  0  0  0  0  0  0
   -1.5485    2.9410   -4.7058 H   0  0  0  0  0  0  0  0  0  0  0  0
    0.7539   -0.3002    0.9914 C   0  0  0  0  0  0  0  0  0  0  0  0
    1.9664   -0.2677    1.1527 O   0  0  0  0  0  0  0  0  0  0  0  0
   -0.0704    0.1767    1.9942 N   0  0  0  0  0  0  0  0  0  0  0  0
   -1.0665    0.0487    1.8518 H   0  0  0  0  0  0  0  0  0  0  0  0
    0.4155    0.4833    3.3337 C   0  0  0  0  0  0  0  0  0  0  0  0
    1.1932    1.2532    3.2928 H   0  0  0  0  0  0  0  0  0  0  0  0
   -0.4028    0.8546    3.9579 H   0  0  0  0  0  0  0  0  0  0  0  0
    0.8327   -0.4137    3.8035 H   0  0  0  0  0  0  0  0  0  0  0  0
  1  2  1  0  0  0  0
  2  3  1  0  0  0  0
  2  4  1  0  0  0  0
  2  5  1  0  0  0  0
  5  6  2  0  0  0  0
  5  7  1  0  0  0  0
  7  8  1  0  0  0  0
  7  9  1  0  0  0  0
  9 10  1  0  0  0  0
  9 11  1  0  0  0  0
  9 21  1  0  0  0  0
 11 12  1  0  0  0  0
 11 13  1  0  0  0  0
 11 14  1  0  0  0  0
 14 15  1  0  0  0  0
 14 16  1  0  0  0  0
 14 17  1  0  0  0  0
 17 18  2  0  0  0  0
 17 19  1  0  0  0  0
 19 20  1  0  0  0  0
 21 22  2  0  0  0  0
 21 23  1  0  0  0  0
 23 24  1  0  0  0  0
 23 25  1  0  0  0  0
 25 26  1  0  0  0  0
 25 27  1  0  0  0  0
 25 28  1  0  0  0  0
M  END
$$$$

  -OEChem-02102214123D

 28 27  0     1  0  0  0  0  0999 V2000
   -2.6425   -4.2217    0.3768 H   0  0  0  0  0  0  0  0  0  0  0  0
   -2.6509   -3.2475   -0.1207 C   0  0  0  0  0  0  0  0  0  0  0  0
   -3.4650   -2.6482    0.2939 H   0  0  0  0  0  0  0  0  0  0  0  0
   -2.8259   -3.4007   -1.1884 H   0  0  0  0  0  0  0  0  0  0  0  0
   -1.3244   -2.5428    0.0914 C   0  0  0  0  0  0  0  0  0  0  0  0
   -0.4401   -3.0895    0.7245 O   0  0  0  0  0  0  0  0  0  0  0  0
   -1.1275   -1.2818   -0.4359 N   0  0  0  0  0  0  0  0  0  0  0  0
   -1.8686   -0.9165   -1.0250 H   0  0  0  0  0  0  0  0  0  0  0  0
    0.1686   -0.5726   -0.4260 C   0  0  1  0  0  0  0  0  0  0  0  0
    0.8848   -1.2262   -0.9371 H   0  0  0  0  0  0  0  0  0  0  0  0
    0.1055    0.7485   -1.2252 C   0  0  0  0  0  0  0  0  0  0  0  0
   -0.1675    1.5704   -0.5535 H   0  0  0  0  0  0  0  0  0  0  0  0
    1.1134    0.9620   -1.6001 H   0  0  0  0  0  0  0  0  0  0  0  0
   -0.8961    0.7352   -2.4022 C   0  0  0  0  0  0  0  0  0  0  0  0
   -0.7783   -0.1979   -2.9615 H   0  0  0  0  0  0  0  0  0  0  0  0
   -1.9218    0.7842   -2.0281 H   0  0  0  0  0  0  0  0  0  0  0  0
   -0.6887    1.8886   -3.3838 C   0  0  0  0  0  0  0  0  0  0  0  0
   -0.1940    2.9317   -2.9920 O   0  0  0  0  0  0  0  0  0  0  0  0
   -1.0944    1.6883   -4.6580 O   0  0  0  0  0  0  0  0  0  0  0  0
   -0.8867    2.5077   -5.1337 H   0  0  0  0  0  0  0  0  0  0  0  0
    0.7634   -0.3080    0.9753 C   0  0  0  0  0  0  0  0  0  0  0  0
    1.9780   -0.2781    1.1194 O   0  0  0  0  0  0  0  0  0  0  0  0
   -0.0450    0.1681    1.9913 N   0  0  0  0  0  0  0  0  0  0  0  0
   -1.0436    0.0428    1.8642 H   0  0  0  0  0  0  0  0  0  0  0  0
    0.4622    0.4762    3.3226 C   0  0  0  0  0  0  0  0  0  0  0  0
    1.2268    1.2586    3.2694 H   0  0  0  0  0  0  0  0  0  0  0  0
   -0.3492    0.8315    3.9648 H   0  0  0  0  0  0  0  0  0  0  0  0
    0.9029   -0.4162    3.7796 H   0  0  0  0  0  0  0  0  0  0  0  0
  1  2  1  0  0  0  0
  2  3  1  0  0  0  0
  2  4  1  0  0  0  0
  2  5  1  0  0  0  0
  5  6  2  0  0  0  0
  5  7  1  0  0  0  0
  7  8  1  0  0  0  0
  7  9  1  0  0  0  0
  9 10  1  0  0  0  0
  9 11  1  0  0  0  0
  9 21  1  0  0  0  0
 11 12  1  0  0  0  0
 11 13  1  0  0  0  0
 11 14  1  0  0  0  0
 14 15  1  0  0  0  0
 14 16  1  0  0  0  0
 14 17  1  0  0  0  0
 17 18  2  0  0  0  0
 17 19  1  0  0  0  0
 19 20  1  0  0  0  0
 21 22  2  0  0  0  0
 21 23  1  0  0  0  0
 23 24  1  0  0  0  0
 23 25  1  0  0  0  0
 25 26  1  0  0  0  0
 25 27  1  0  0  0  0
 25 28  1  0  0  0  0
M  END
$$$$

  -OEChem-02102214123D

 28 27  0     1  0  0  0  0  0999 V2000
   -2.6610   -4.2049    0.4020 H   0  0  0  0  0  0  0  0  0  0  0  0
   -2.6712   -3.2313   -0.0968 C   0  0  0  0  0  0  0  0  0  0  0  0
   -3.4684   -2.6230    0.3370 H   0  0  0  0  0  0  0  0  0  0  0  0
   -2.8743   -3.3841   -1.1595 H   0  0  0  0  0  0  0  0  0  0  0  0
   -1.3323   -2.5407    0.0817 C   0  0  0  0  0  0  0  0  0  0  0  0
   -0.4380   -3.0976    0.6912 O   0  0  0  0  0  0  0  0  0  0  0  0
   -1.1368   -1.2784   -0.4430 N   0  0  0  0  0  0  0  0  0  0  0  0
   -1.8935   -0.8940   -0.9996 H   0  0  0  0  0  0  0  0  0  0  0  0
    0.1603   -0.5703   -0.4438 C   0  0  1  0  0  0  0  0  0  0  0  0
    0.8708   -1.2218   -0.9657 H   0  0  0  0  0  0  0  0  0  0  0  0
    0.0865    0.7549   -1.2357 C   0  0  0  0  0  0  0  0  0  0  0  0
   -0.1724    1.5783   -0.5606 H   0  0  0  0  0  0  0  0  0  0  0  0
    1.0936    0.9622   -1.6170 H   0  0  0  0  0  0  0  0  0  0  0  0
   -0.9272    0.7553   -2.4043 C   0  0  0  0  0  0  0  0  0  0  0  0
   -0.9965   -0.2506   -2.8287 H   0  0  0  0  0  0  0  0  0  0  0  0
   -1.9195    1.0456   -2.0494 H   0  0  0  0  0  0  0  0  0  0  0  0
   -0.5056    1.6799   -3.5447 C   0  0  0  0  0  0  0  0  0  0  0  0
   -0.0757    2.7885   -3.2761 O   0  0  0  0  0  0  0  0  0  0  0  0
   -0.6479    1.2193   -4.8085 O   0  0  0  0  0  0  0  0  0  0  0  0
   -0.3294    1.9300   -5.3867 H   0  0  0  0  0  0  0  0  0  0  0  0
    0.7687   -0.3111    0.9525 C   0  0  0  0  0  0  0  0  0  0  0  0
    1.9845   -0.2858    1.0874 O   0  0  0  0  0  0  0  0  0  0  0  0
   -0.0308    0.1626    1.9767 N   0  0  0  0  0  0  0  0  0  0  0  0
   -1.0310    0.0481    1.8531 H   0  0  0  0  0  0  0  0  0  0  0  0
    0.4850    0.4548    3.3081 C   0  0  0  0  0  0  0  0  0  0  0  0
    1.2484    1.2387    3.2602 H   0  0  0  0  0  0  0  0  0  0  0  0
   -0.3226    0.8007    3.9601 H   0  0  0  0  0  0  0  0  0  0  0  0
    0.9293   -0.4428    3.7513 H   0  0  0  0  0  0  0  0  0  0  0  0
  1  2  1  0  0  0  0
  2  3  1  0  0  0  0
  2  4  1  0  0  0  0
  2  5  1  0  0  0  0
  5  6  2  0  0  0  0
  5  7  1  0  0  0  0
  7  8  1  0  0  0  0
  7  9  1  0  0  0  0
  9 10  1  0  0  0  0
  9 11  1  0  0  0  0
  9 21  1  0  0  0  0
 11 12  1  0  0  0  0
 11 13  1  0  0  0  0
 11 14  1  0  0  0  0
 14 15  1  0  0  0  0
 14 16  1  0  0  0  0
 14 17  1  0  0  0  0
 17 18  2  0  0  0  0
 17 19  1  0  0  0  0
 19 20  1  0  0  0  0
 21 22  2  0  0  0  0
 21 23  1  0  0  0  0
 23 24  1  0  0  0  0
 23 25  1  0  0  0  0
 25 26  1  0  0  0  0
 25 27  1  0  0  0  0
 25 28  1  0  0  0  0
M  END
$$$$

  -OEChem-02102214123D

 28 27  0     1  0  0  0  0  0999 V2000
   -2.6732   -4.2035    0.4184 H   0  0  0  0  0  0  0  0  0  0  0  0
   -2.6910   -3.2277   -0.0755 C   0  0  0  0  0  0  0  0  0  0  0  0
   -3.4760   -2.6185    0.3786 H   0  0  0  0  0  0  0  0  0  0  0  0
   -2.9178   -3.3749   -1.1341 H   0  0  0  0  0  0  0  0  0  0  0  0
   -1.3458   -2.5430    0.0764 C   0  0  0  0  0  0  0  0  0  0  0  0
   -0.4396   -3.1067    0.6619 O   0  0  0  0  0  0  0  0  0  0  0  0
   -1.1584   -1.2772   -0.4428 N   0  0  0  0  0  0  0  0  0  0  0  0
   -1.9310   -0.8791   -0.9674 H   0  0  0  0  0  0  0  0  0  0  0  0
    0.1372   -0.5669   -0.4576 C   0  0  1  0  0  0  0  0  0  0  0  0
    0.8398   -1.2204   -0.9876 H   0  0  0  0  0  0  0  0  0  0  0  0
    0.0702    0.7600   -1.2502 C   0  0  0  0  0  0  0  0  0  0  0  0
   -0.1840    1.5786   -0.5676 H   0  0  0  0  0  0  0  0  0  0  0  0
    1.0812    0.9670   -1.6210 H   0  0  0  0  0  0  0  0  0  0  0  0
   -0.9420    0.7939   -2.4239 C   0  0  0  0  0  0  0  0  0  0  0  0
   -1.2457   -0.2179   -2.7027 H   0  0  0  0  0  0  0  0  0  0  0  0
   -1.8391    1.3479   -2.1343 H   0  0  0  0  0  0  0  0  0  0  0  0
   -0.3409    1.4183   -3.6806 C   0  0  0  0  0  0  0  0  0  0  0  0
    0.1021    2.5515   -3.6123 O   0  0  0  0  0  0  0  0  0  0  0  0
   -0.3353    0.6789   -4.8134 O   0  0  0  0  0  0  0  0  0  0  0  0
    0.0895    1.2308   -5.4884 H   0  0  0  0  0  0  0  0  0  0  0  0
    0.7625   -0.3163    0.9330 C   0  0  0  0  0  0  0  0  0  0  0  0
    1.9798   -0.2835    1.0506 O   0  0  0  0  0  0  0  0  0  0  0  0
   -0.0244    0.1488    1.9708 N   0  0  0  0  0  0  0  0  0  0  0  0
   -1.0251    0.0221    1.8634 H   0  0  0  0  0  0  0  0  0  0  0  0
    0.5095    0.4326    3.2972 C   0  0  0  0  0  0  0  0  0  0  0  0
    1.2739    1.2152    3.2441 H   0  0  0  0  0  0  0  0  0  0  0  0
   -0.2889    0.7765    3.9615 H   0  0  0  0  0  0  0  0  0  0  0  0
    0.9580   -0.4684    3.7289 H   0  0  0  0  0  0  0  0  0  0  0  0
  1  2  1  0  0  0  0
  2  3  1  0  0  0  0
  2  4  1  0  0  0  0
  2  5  1  0  0  0  0
  5  6  2  0  0  0  0
  5  7  1  0  0  0  0
  7  8  1  0  0  0  0
  7  9  1  0  0  0  0
  9 10  1  0  0  0  0
  9 11  1  0  0  0  0
  9 21  1  0  0  0  0
 11 12  1  0  0  0  0
 11 13  1  0  0  0  0
 11 14  1  0  0  0  0
 14 15  1  0  0  0  0
 14 16  1  0  0  0  0
 14 17  1  0  0  0  0
 17 18  2  0  0  0  0
 17 19  1  0  0  0  0
 19 20  1  0  0  0  0
 21 22  2  0  0  0  0
 21 23  1  0  0  0  0
 23 24  1  0  0  0  0
 23 25  1  0  0  0  0
 25 26  1  0  0  0  0
 25 27  1  0  0  0  0
 25 28  1  0  0  0  0
M  END
$$$$

  -OEChem-02102214123D

 28 27  0     1  0  0  0  0  0999 V2000
   -2.7177   -4.1861    0.4353 H   0  0  0  0  0  0  0  0  0  0  0  0
   -2.7325   -3.2130   -0.0640 C   0  0  0  0  0  0  0  0  0  0  0  0
   -3.5080   -2.5948    0.3944 H   0  0  0  0  0  0  0  0  0  0  0  0
   -2.9712   -3.3641   -1.1196 H   0  0  0  0  0  0  0  0  0  0  0  0
   -1.3808   -2.5376    0.0710 C   0  0  0  0  0  0  0  0  0  0  0  0
   -0.4714   -3.1068    0.6461 O   0  0  0  0  0  0  0  0  0  0  0  0
   -1.1941   -1.2708   -0.4459 N   0  0  0  0  0  0  0  0  0  0  0  0
   -1.9717   -0.8699   -0.9600 H   0  0  0  0  0  0  0  0  0  0  0  0
    0.1065   -0.5714   -0.4858 C   0  0  1  0  0  0  0  0  0  0  0  0
    0.7912   -1.2311   -1.0316 H   0  0  0  0  0  0  0  0  0  0  0  0
    0.0529    0.7621   -1.2712 C   0  0  0  0  0  0  0  0  0  0  0  0
   -0.1961    1.5641   -0.5675 H   0  0  0  0  0  0  0  0  0  0  0  0
    1.0638    0.9790   -1.6374 H   0  0  0  0  0  0  0  0  0  0  0  0
   -0.9675    0.8485   -2.4362 C   0  0  0  0  0  0  0  0  0  0  0  0
   -1.5371   -0.0729   -2.5638 H   0  0  0  0  0  0  0  0  0  0  0  0
   -1.6823    1.6531   -2.2391 H   0  0  0  0  0  0  0  0  0  0  0  0
   -0.2639    1.1219   -3.7605 C   0  0  0  0  0  0  0  0  0  0  0  0
   -0.0737    2.2797   -4.0887 O   0  0  0  0  0  0  0  0  0  0  0  0
    0.1208    0.0574   -4.5010 O   0  0  0  0  0  0  0  0  0  0  0  0
    0.5609    0.4225   -5.2842 H   0  0  0  0  0  0  0  0  0  0  0  0
    0.7597   -0.3358    0.8950 C   0  0  0  0  0  0  0  0  0  0  0  0
    1.9793   -0.3032    0.9886 O   0  0  0  0  0  0  0  0  0  0  0  0
   -0.0056    0.1285    1.9493 N   0  0  0  0  0  0  0  0  0  0  0  0
   -1.0080   -0.0002    1.8611 H   0  0  0  0  0  0  0  0  0  0  0  0
    0.5535    0.3955    3.2687 C   0  0  0  0  0  0  0  0  0  0  0  0
    1.3161    1.1795    3.2108 H   0  0  0  0  0  0  0  0  0  0  0  0
   -0.2323    0.7299    3.9528 H   0  0  0  0  0  0  0  0  0  0  0  0
    1.0106   -0.5109    3.6801 H   0  0  0  0  0  0  0  0  0  0  0  0
  1  2  1  0  0  0  0
  2  3  1  0  0  0  0
  2  4  1  0  0  0  0
  2  5  1  0  0  0  0
  5  6  2  0  0  0  0
  5  7  1  0  0  0  0
  7  8  1  0  0  0  0
  7  9  1  0  0  0  0
  9 10  1  0  0  0  0
  9 11  1  0  0  0  0
  9 21  1  0  0  0  0
 11 12  1  0  0  0  0
 11 13  1  0  0  0  0
 11 14  1  0  0  0  0
 14 15  1  0  0  0  0
 14 16  1  0  0  0  0
 14 17  1  0  0  0  0
 17 18  2  0  0  0  0
 17 19  1  0  0  0  0
 19 20  1  0  0  0  0
 21 22  2  0  0  0  0
 21 23  1  0  0  0  0
 23 24  1  0  0  0  0
 23 25  1  0  0  0  0
 25 26  1  0  0  0  0
 25 27  1  0  0  0  0
 25 28  1  0  0  0  0
M  END
$$$$

  -OEChem-02102214123D

 28 27  0     1  0  0  0  0  0999 V2000
   -2.6335   -4.2431    0.4173 H   0  0  0  0  0  0  0  0  0  0  0  0
   -2.6566   -3.2552   -0.0516 C   0  0  0  0  0  0  0  0  0  0  0  0
   -3.4423   -2.6605    0.4202 H   0  0  0  0  0  0  0  0  0  0  0  0
   -2.8862   -3.3763   -1.1130 H   0  0  0  0  0  0  0  0  0  0  0  0
   -1.3142   -2.5685    0.1140 C   0  0  0  0  0  0  0  0  0  0  0  0
   -0.4231   -3.1180    0.7346 O   0  0  0  0  0  0  0  0  0  0  0  0
   -1.1153   -1.3151   -0.4304 N   0  0  0  0  0  0  0  0  0  0  0  0
   -1.8804   -0.9277   -0.9722 H   0  0  0  0  0  0  0  0  0  0  0  0
    0.1778   -0.6004   -0.4256 C   0  0  1  0  0  0  0  0  0  0  0  0
    0.8979   -1.2692   -0.9116 H   0  0  0  0  0  0  0  0  0  0  0  0
    0.1649    0.7079   -1.2564 C   0  0  0  0  0  0  0  0  0  0  0  0
   -0.1641    1.5082   -0.5846 H   0  0  0  0  0  0  0  0  0  0  0  0
    1.1945    0.9590   -1.5339 H   0  0  0  0  0  0  0  0  0  0  0  0
   -0.7897    0.7573   -2.4868 C   0  0  0  0  0  0  0  0  0  0  0  0
   -1.5784    0.0080   -2.4341 H   0  0  0  0  0  0  0  0  0  0  0  0
   -1.2859    1.7319   -2.4845 H   0  0  0  0  0  0  0  0  0  0  0  0
   -0.1129    0.6251   -3.8547 C   0  0  0  0  0  0  0  0  0  0  0  0
    1.0994    0.6840   -3.9627 O   0  0  0  0  0  0  0  0  0  0  0  0
   -0.9415    0.4379   -4.9069 O   0  0  0  0  0  0  0  0  0  0  0  0
   -0.3657    0.3744   -5.6851 H   0  0  0  0  0  0  0  0  0  0  0  0
    0.7523   -0.3186    0.9822 C   0  0  0  0  0  0  0  0  0  0  0  0
    1.9638   -0.2748    1.1464 O   0  0  0  0  0  0  0  0  0  0  0  0
   -0.0745    0.1651    1.9803 N   0  0  0  0  0  0  0  0  0  0  0  0
   -1.0692    0.0228    1.8416 H   0  0  0  0  0  0  0  0  0  0  0  0
    0.4095    0.4747    3.3203 C   0  0  0  0  0  0  0  0  0  0  0  0
    1.1896    1.2423    3.2791 H   0  0  0  0  0  0  0  0  0  0  0  0
   -0.4089    0.8503    3.9417 H   0  0  0  0  0  0  0  0  0  0  0  0
    0.8233   -0.4219    3.7939 H   0  0  0  0  0  0  0  0  0  0  0  0
  1  2  1  0  0  0  0
  2  3  1  0  0  0  0
  2  4  1  0  0  0  0
  2  5  1  0  0  0  0
  5  6  2  0  0  0  0
  5  7  1  0  0  0  0
  7  8  1  0  0  0  0
  7  9  1  0  0  0  0
  9 10  1  0  0  0  0
  9 11  1  0  0  0  0
  9 21  1  0  0  0  0
 11 12  1  0  0  0  0
 11 13  1  0  0  0  0
 11 14  1  0  0  0  0
 14 15  1  0  0  0  0
 14 16  1  0  0  0  0
 14 17  1  0  0  0  0
 17 18  2  0  0  0  0
 17 19  1  0  0  0  0
 19 20  1  0  0  0  0
 21 22  2  0  0  0  0
 21 23  1  0  0  0  0
 23 24  1  0  0  0  0
 23 25  1  0  0  0  0
 25 26  1  0  0  0  0
 25 27  1  0  0  0  0
 25 28  1  0  0  0  0
M  END
$$$$

  -OEChem-02102214123D

 28 27  0     1  0  0  0  0  0999 V2000
   -2.5274   -4.3314    0.5726 H   0  0  0  0  0  0  0  0  0  0  0  0
   -2.5785   -3.3979    0.0047 C   0  0  0  0  0  0  0  0  0  0  0  0
   -3.4522   -2.8321    0.3364 H   0  0  0  0  0  0  0  0  0  0  0  0
   -2.6879   -3.6382   -1.0556 H   0  0  0  0  0  0  0  0  0  0  0  0
   -1.3169   -2.5844    0.2232 C   0  0  0  0  0  0  0  0  0  0  0  0
   -0.4291   -3.0215    0.9326 O   0  0  0  0  0  0  0  0  0  0  0  0
   -1.1923   -1.3450   -0.3740 N   0  0  0  0  0  0  0  0  0  0  0  0
   -1.9080   -1.1246   -1.0584 H   0  0  0  0  0  0  0  0  0  0  0  0
    0.0847   -0.6072   -0.4635 C   0  0  1  0  0  0  0  0  0  0  0  0
    0.7876   -1.2754   -0.9743 H   0  0  0  0  0  0  0  0  0  0  0  0
   -0.0080    0.6829   -1.3171 C   0  0  0  0  0  0  0  0  0  0  0  0
   -0.2975    1.4991   -0.6460 H   0  0  0  0  0  0  0  0  0  0  0  0
    0.9888    0.9336   -1.6988 H   0  0  0  0  0  0  0  0  0  0  0  0
   -1.0368    0.6767   -2.4713 C   0  0  0  0  0  0  0  0  0  0  0  0
   -1.9489    0.1272   -2.2358 H   0  0  0  0  0  0  0  0  0  0  0  0
   -1.3406    1.7102   -2.6608 H   0  0  0  0  0  0  0  0  0  0  0  0
   -0.4161    0.1572   -3.7612 C   0  0  0  0  0  0  0  0  0  0  0  0
   -0.7088   -0.9718   -4.1154 O   0  0  0  0  0  0  0  0  0  0  0  0
    0.4247    0.9674   -4.4442 O   0  0  0  0  0  0  0  0  0  0  0  0
    0.7219    0.4589   -5.2145 H   0  0  0  0  0  0  0  0  0  0  0  0
    0.7379   -0.2677    0.8960 C   0  0  0  0  0  0  0  0  0  0  0  0
    1.9563   -0.1805    0.9726 O   0  0  0  0  0  0  0  0  0  0  0  0
   -0.0362    0.2338    1.9263 N   0  0  0  0  0  0  0  0  0  0  0  0
   -1.0287    0.0311    1.8642 H   0  0  0  0  0  0  0  0  0  0  0  0
    0.5249    0.5767    3.2272 C   0  0  0  0  0  0  0  0  0  0  0  0
    1.2839    1.3593    3.1234 H   0  0  0  0  0  0  0  0  0  0  0  0
   -0.2605    0.9456    3.8936 H   0  0  0  0  0  0  0  0  0  0  0  0
    0.9875   -0.3031    3.6872 H   0  0  0  0  0  0  0  0  0  0  0  0
  1  2  1  0  0  0  0
  2  3  1  0  0  0  0
  2  4  1  0  0  0  0
  2  5  1  0  0  0  0
  5  6  2  0  0  0  0
  5  7  1  0  0  0  0
  7  8  1  0  0  0  0
  7  9  1  0  0  0  0
  9 10  1  0  0  0  0
  9 11  1  0  0  0  0
  9 21  1  0  0  0  0
 11 12  1  0  0  0  0
 11 13  1  0  0  0  0
 11 14  1  0  0  0  0
 14 15  1  0  0  0  0
 14 16  1  0  0  0  0
 14 17  1  0  0  0  0
 17 18  2  0  0  0  0
 17 19  1  0  0  0  0
 19 20  1  0  0  0  0
 21 22  2  0  0  0  0
 21 23  1  0  0  0  0
 23 24  1  0  0  0  0
 23 25  1  0  0  0  0
 25 26  1  0  0  0  0
 25 27  1  0  0  0  0
 25 28  1  0  0  0  0
M  END
$$$$

  -OEChem-02102214123D

 28 27  0     1  0  0  0  0  0999 V2000
   -2.7725   -4.1401    0.2697 H   0  0  0  0  0  0  0  0  0  0  0  0
   -2.7172   -3.1880   -0.2658 C   0  0  0  0  0  0  0  0  0  0  0  0
   -3.5742   -2.5738    0.0204 H   0  0  0  0  0  0  0  0  0  0  0  0
   -2.7602   -3.3855   -1.3397 H   0  0  0  0  0  0  0  0  0  0  0  0
   -1.4253   -2.4709    0.0765 C   0  0  0  0  0  0  0  0  0  0  0  0
   -0.6175   -2.9976    0.8195 O   0  0  0  0  0  0  0  0  0  0  0  0
   -1.1804   -1.2210   -0.4569 N   0  0  0  0  0  0  0  0  0  0  0  0
   -1.8152   -0.9491   -1.2012 H   0  0  0  0  0  0  0  0  0  0  0  0
    0.1500   -0.5789   -0.4470 C   0  0  1  0  0  0  0  0  0  0  0  0
    0.8317   -1.2694   -0.9571 H   0  0  0  0  0  0  0  0  0  0  0  0
    0.1714    0.7536   -1.2374 C   0  0  0  0  0  0  0  0  0  0  0  0
   -0.0847    1.5632   -0.5450 H   0  0  0  0  0  0  0  0  0  0  0  0
    1.1933    0.9468   -1.5851 H   0  0  0  0  0  0  0  0  0  0  0  0
   -0.8135    0.8476   -2.4224 C   0  0  0  0  0  0  0  0  0  0  0  0
   -1.8282    0.5586   -2.1426 H   0  0  0  0  0  0  0  0  0  0  0  0
   -0.8673    1.8921   -2.7442 H   0  0  0  0  0  0  0  0  0  0  0  0
   -0.3325    0.0256   -3.6107 C   0  0  0  0  0  0  0  0  0  0  0  0
    0.4800    0.5110   -4.3768 O   0  0  0  0  0  0  0  0  0  0  0  0
   -0.8367   -1.2241   -3.7398 O   0  0  0  0  0  0  0  0  0  0  0  0
   -0.4062   -1.5983   -4.5254 H   0  0  0  0  0  0  0  0  0  0  0  0
    0.7555   -0.3446    0.9561 C   0  0  0  0  0  0  0  0  0  0  0  0
    1.9709   -0.3634    1.0981 O   0  0  0  0  0  0  0  0  0  0  0  0
   -0.0312    0.1722    1.9691 N   0  0  0  0  0  0  0  0  0  0  0  0
   -1.0324    0.0601    1.8464 H   0  0  0  0  0  0  0  0  0  0  0  0
    0.4843    0.4207    3.3097 C   0  0  0  0  0  0  0  0  0  0  0  0
    1.3018    1.1488    3.2780 H   0  0  0  0  0  0  0  0  0  0  0  0
   -0.3064    0.8199    3.9519 H   0  0  0  0  0  0  0  0  0  0  0  0
    0.8576   -0.5084    3.7536 H   0  0  0  0  0  0  0  0  0  0  0  0
  1  2  1  0  0  0  0
  2  3  1  0  0  0  0
  2  4  1  0  0  0  0
  2  5  1  0  0  0  0
  5  6  2  0  0  0  0
  5  7  1  0  0  0  0
  7  8  1  0  0  0  0
  7  9  1  0  0  0  0
  9 10  1  0  0  0  0
  9 11  1  0  0  0  0
  9 21  1  0  0  0  0
 11 12  1  0  0  0  0
 11 13  1  0  0  0  0
 11 14  1  0  0  0  0
 14 15  1  0  0  0  0
 14 16  1  0  0  0  0
 14 17  1  0  0  0  0
 17 18  2  0  0  0  0
 17 19  1  0  0  0  0
 19 20  1  0  0  0  0
 21 22  2  0  0  0  0
 21 23  1  0  0  0  0
 23 24  1  0  0  0  0
 23 25  1  0  0  0  0
 25 26  1  0  0  0  0
 25 27  1  0  0  0  0
 25 28  1  0  0  0  0
M  END
$$$$

  -OEChem-02102214123D

 28 27  0     1  0  0  0  0  0999 V2000
   -2.7244   -4.1745    0.1970 H   0  0  0  0  0  0  0  0  0  0  0  0
   -2.6914   -3.1934   -0.2855 C   0  0  0  0  0  0  0  0  0  0  0  0
   -3.5558   -2.6106    0.0413 H   0  0  0  0  0  0  0  0  0  0  0  0
   -2.7416   -3.3324   -1.3683 H   0  0  0  0  0  0  0  0  0  0  0  0
   -1.4097   -2.4722    0.0850 C   0  0  0  0  0  0  0  0  0  0  0  0
   -0.6250   -2.9884    0.8596 O   0  0  0  0  0  0  0  0  0  0  0  0
   -1.1480   -1.2315   -0.4610 N   0  0  0  0  0  0  0  0  0  0  0  0
   -1.7542   -0.9839   -1.2395 H   0  0  0  0  0  0  0  0  0  0  0  0
    0.1854   -0.5950   -0.4312 C   0  0  1  0  0  0  0  0  0  0  0  0
    0.8785   -1.2879   -0.9224 H   0  0  0  0  0  0  0  0  0  0  0  0
    0.2090    0.7319   -1.2298 C   0  0  0  0  0  0  0  0  0  0  0  0
   -0.0400    1.5559   -0.5522 H   0  0  0  0  0  0  0  0  0  0  0  0
    1.2327    0.9062   -1.5817 H   0  0  0  0  0  0  0  0  0  0  0  0
   -0.7635    0.8100   -2.4252 C   0  0  0  0  0  0  0  0  0  0  0  0
   -1.7997    0.7429   -2.0841 H   0  0  0  0  0  0  0  0  0  0  0  0
   -0.6512    1.7853   -2.9085 H   0  0  0  0  0  0  0  0  0  0  0  0
   -0.4931   -0.2701   -3.4661 C   0  0  0  0  0  0  0  0  0  0  0  0
    0.4575   -0.1417   -4.2156 O   0  0  0  0  0  0  0  0  0  0  0  0
   -1.3278   -1.3372   -3.4849 O   0  0  0  0  0  0  0  0  0  0  0  0
   -0.9962   -1.9097   -4.1962 H   0  0  0  0  0  0  0  0  0  0  0  0
    0.7594   -0.3440    0.9820 C   0  0  0  0  0  0  0  0  0  0  0  0
    1.9711   -0.3623    1.1519 O   0  0  0  0  0  0  0  0  0  0  0  0
   -0.0499    0.1902    1.9679 N   0  0  0  0  0  0  0  0  0  0  0  0
   -1.0480    0.0755    1.8229 H   0  0  0  0  0  0  0  0  0  0  0  0
    0.4328    0.4545    3.3174 C   0  0  0  0  0  0  0  0  0  0  0  0
    1.2490    1.1844    3.2971 H   0  0  0  0  0  0  0  0  0  0  0  0
   -0.3743    0.8580    3.9362 H   0  0  0  0  0  0  0  0  0  0  0  0
    0.7982   -0.4686    3.7798 H   0  0  0  0  0  0  0  0  0  0  0  0
  1  2  1  0  0  0  0
  2  3  1  0  0  0  0
  2  4  1  0  0  0  0
  2  5  1  0  0  0  0
  5  6  2  0  0  0  0
  5  7  1  0  0  0  0
  7  8  1  0  0  0  0
  7  9  1  0  0  0  0
  9 10  1  0  0  0  0
  9 11  1  0  0  0  0
  9 21  1  0  0  0  0
 11 12  1  0  0  0  0
 11 13  1  0  0  0  0
 11 14  1  0  0  0  0
 14 15  1  0  0  0  0
 14 16  1  0  0  0  0
 14 17  1  0  0  0  0
 17 18  2  0  0  0  0
 17 19  1  0  0  0  0
 19 20  1  0  0  0  0
 21 22  2  0  0  0  0
 21 23  1  0  0  0  0
 23 24  1  0  0  0  0
 23 25  1  0  0  0  0
 25 26  1  0  0  0  0
 25 27  1  0  0  0  0
 25 28  1  0  0  0  0
M  END
$$$$

  -OEChem-02102214123D

 28 27  0     1  0  0  0  0  0999 V2000
   -2.6827   -4.2185    0.2292 H   0  0  0  0  0  0  0  0  0  0  0  0
   -2.6768   -3.2199   -0.2167 C   0  0  0  0  0  0  0  0  0  0  0  0
   -3.5217   -2.6517    0.1797 H   0  0  0  0  0  0  0  0  0  0  0  0
   -2.7881   -3.3184   -1.2991 H   0  0  0  0  0  0  0  0  0  0  0  0
   -1.3766   -2.5105    0.1097 C   0  0  0  0  0  0  0  0  0  0  0  0
   -0.5779   -3.0273    0.8693 O   0  0  0  0  0  0  0  0  0  0  0  0
   -1.1146   -1.2766   -0.4513 N   0  0  0  0  0  0  0  0  0  0  0  0
   -1.7495   -1.0040   -1.1996 H   0  0  0  0  0  0  0  0  0  0  0  0
    0.2108   -0.6228   -0.4119 C   0  0  1  0  0  0  0  0  0  0  0  0
    0.9200   -1.3170   -0.8781 H   0  0  0  0  0  0  0  0  0  0  0  0
    0.2370    0.6901   -1.2339 C   0  0  0  0  0  0  0  0  0  0  0  0
   -0.0116    1.5291   -0.5749 H   0  0  0  0  0  0  0  0  0  0  0  0
    1.2681    0.8465   -1.5716 H   0  0  0  0  0  0  0  0  0  0  0  0
   -0.7016    0.7700   -2.4592 C   0  0  0  0  0  0  0  0  0  0  0  0
   -1.7258    0.9391   -2.1152 H   0  0  0  0  0  0  0  0  0  0  0  0
   -0.4209    1.6322   -3.0714 H   0  0  0  0  0  0  0  0  0  0  0  0
   -0.6887   -0.4770   -3.3390 C   0  0  0  0  0  0  0  0  0  0  0  0
    0.2994   -0.7064   -4.0113 O   0  0  0  0  0  0  0  0  0  0  0  0
   -1.7816   -1.2777   -3.3139 O   0  0  0  0  0  0  0  0  0  0  0  0
   -1.5912   -1.9870   -3.9504 H   0  0  0  0  0  0  0  0  0  0  0  0
    0.7549   -0.3426    1.0075 C   0  0  0  0  0  0  0  0  0  0  0  0
    1.9630   -0.3392    1.2017 O   0  0  0  0  0  0  0  0  0  0  0  0
   -0.0805    0.1968    1.9685 N   0  0  0  0  0  0  0  0  0  0  0  0
   -1.0743    0.0714    1.8053 H   0  0  0  0  0  0  0  0  0  0  0  0
    0.3735    0.5005    3.3197 C   0  0  0  0  0  0  0  0  0  0  0  0
    1.1776    1.2436    3.2961 H   0  0  0  0  0  0  0  0  0  0  0  0
   -0.4510    0.9049    3.9145 H   0  0  0  0  0  0  0  0  0  0  0  0
    0.7456   -0.4052    3.8103 H   0  0  0  0  0  0  0  0  0  0  0  0
  1  2  1  0  0  0  0
  2  3  1  0  0  0  0
  2  4  1  0  0  0  0
  2  5  1  0  0  0  0
  5  6  2  0  0  0  0
  5  7  1  0  0  0  0
  7  8  1  0  0  0  0
  7  9  1  0  0  0  0
  9 10  1  0  0  0  0
  9 11  1  0  0  0  0
  9 21  1  0  0  0  0
 11 12  1  0  0  0  0
 11 13  1  0  0  0  0
 11 14  1  0  0  0  0
 14 15  1  0  0  0  0
 14 16  1  0  0  0  0
 14 17  1  0  0  0  0
 17 18  2  0  0  0  0
 17 19  1  0  0  0  0
 19 20  1  0  0  0  0
 21 22  2  0  0  0  0
 21 23  1  0  0  0  0
 23 24  1  0  0  0  0
 23 25  1  0  0  0  0
 25 26  1  0  0  0  0
 25 27  1  0  0  0  0
 25 28  1  0  0  0  0
M  END
$$$$

  -OEChem-02102214123D

 28 27  0     1  0  0  0  0  0999 V2000
   -2.6620   -4.2525    0.3667 H   0  0  0  0  0  0  0  0  0  0  0  0
   -2.6540   -3.2727   -0.1195 C   0  0  0  0  0  0  0  0  0  0  0  0
   -3.4862   -2.6806    0.2683 H   0  0  0  0  0  0  0  0  0  0  0  0
   -2.7853   -3.4138   -1.1947 H   0  0  0  0  0  0  0  0  0  0  0  0
   -1.3406   -2.5647    0.1547 C   0  0  0  0  0  0  0  0  0  0  0  0
   -0.5170   -3.0769    0.8903 O   0  0  0  0  0  0  0  0  0  0  0  0
   -1.0956   -1.3344   -0.4220 N   0  0  0  0  0  0  0  0  0  0  0  0
   -1.7795   -1.0268   -1.1119 H   0  0  0  0  0  0  0  0  0  0  0  0
    0.2133   -0.6493   -0.3877 C   0  0  1  0  0  0  0  0  0  0  0  0
    0.9361   -1.3447   -0.8307 H   0  0  0  0  0  0  0  0  0  0  0  0
    0.2465    0.6442   -1.2429 C   0  0  0  0  0  0  0  0  0  0  0  0
   -0.0065    1.4966   -0.6028 H   0  0  0  0  0  0  0  0  0  0  0  0
    1.2875    0.7860   -1.5550 H   0  0  0  0  0  0  0  0  0  0  0  0
   -0.6453    0.7423   -2.5072 C   0  0  0  0  0  0  0  0  0  0  0  0
   -1.6082    1.1701   -2.2137 H   0  0  0  0  0  0  0  0  0  0  0  0
   -0.1877    1.4414   -3.2136 H   0  0  0  0  0  0  0  0  0  0  0  0
   -0.9341   -0.5672   -3.2369 C   0  0  0  0  0  0  0  0  0  0  0  0
   -0.0449   -1.0689   -3.8990 O   0  0  0  0  0  0  0  0  0  0  0  0
   -2.1689   -1.1113   -3.1070 O   0  0  0  0  0  0  0  0  0  0  0  0
   -2.1646   -1.8897   -3.6888 H   0  0  0  0  0  0  0  0  0  0  0  0
    0.7418   -0.3347    1.0305 C   0  0  0  0  0  0  0  0  0  0  0  0
    1.9483   -0.2959    1.2309 O   0  0  0  0  0  0  0  0  0  0  0  0
   -0.1114    0.1997    1.9788 N   0  0  0  0  0  0  0  0  0  0  0  0
   -1.1015    0.0524    1.8120 H   0  0  0  0  0  0  0  0  0  0  0  0
    0.3276    0.5371    3.3271 C   0  0  0  0  0  0  0  0  0  0  0  0
    1.1251    1.2872    3.2952 H   0  0  0  0  0  0  0  0  0  0  0  0
   -0.5059    0.9465    3.9055 H   0  0  0  0  0  0  0  0  0  0  0  0
    0.7034   -0.3545    3.8402 H   0  0  0  0  0  0  0  0  0  0  0  0
  1  2  1  0  0  0  0
  2  3  1  0  0  0  0
  2  4  1  0  0  0  0
  2  5  1  0  0  0  0
  5  6  2  0  0  0  0
  5  7  1  0  0  0  0
  7  8  1  0  0  0  0
  7  9  1  0  0  0  0
  9 10  1  0  0  0  0
  9 11  1  0  0  0  0
  9 21  1  0  0  0  0
 11 12  1  0  0  0  0
 11 13  1  0  0  0  0
 11 14  1  0  0  0  0
 14 15  1  0  0  0  0
 14 16  1  0  0  0  0
 14 17  1  0  0  0  0
 17 18  2  0  0  0  0
 17 19  1  0  0  0  0
 19 20  1  0  0  0  0
 21 22  2  0  0  0  0
 21 23  1  0  0  0  0
 23 24  1  0  0  0  0
 23 25  1  0  0  0  0
 25 26  1  0  0  0  0
 25 27  1  0  0  0  0
 25 28  1  0  0  0  0
M  END
$$$$

  -OEChem-02102214123D

 28 27  0     1  0  0  0  0  0999 V2000
   -2.6304   -4.2820    0.5240 H   0  0  0  0  0  0  0  0  0  0  0  0
   -2.6279   -3.3238   -0.0037 C   0  0  0  0  0  0  0  0  0  0  0  0
   -3.4420   -2.7063    0.3837 H   0  0  0  0  0  0  0  0  0  0  0  0
   -2.7931   -3.5092   -1.0676 H   0  0  0  0  0  0  0  0  0  0  0  0
   -1.2993   -2.6200    0.1993 C   0  0  0  0  0  0  0  0  0  0  0  0
   -0.4390   -3.1329    0.8914 O   0  0  0  0  0  0  0  0  0  0  0  0
   -1.0801   -1.3916   -0.3910 N   0  0  0  0  0  0  0  0  0  0  0  0
   -1.8212   -1.0418   -0.9966 H   0  0  0  0  0  0  0  0  0  0  0  0
    0.2090   -0.6736   -0.3699 C   0  0  1  0  0  0  0  0  0  0  0  0
    0.9439   -1.3674   -0.7952 H   0  0  0  0  0  0  0  0  0  0  0  0
    0.2450    0.6016   -1.2554 C   0  0  0  0  0  0  0  0  0  0  0  0
   -0.0277    1.4572   -0.6276 H   0  0  0  0  0  0  0  0  0  0  0  0
    1.2936    0.7503   -1.5379 H   0  0  0  0  0  0  0  0  0  0  0  0
   -0.6082    0.7125   -2.5510 C   0  0  0  0  0  0  0  0  0  0  0  0
   -1.4435    1.3876   -2.3443 H   0  0  0  0  0  0  0  0  0  0  0  0
   -0.0023    1.1913   -3.3264 H   0  0  0  0  0  0  0  0  0  0  0  0
   -1.2089   -0.5605   -3.1407 C   0  0  0  0  0  0  0  0  0  0  0  0
   -0.5110   -1.2478   -3.8625 O   0  0  0  0  0  0  0  0  0  0  0  0
   -2.4966   -0.8612   -2.8408 O   0  0  0  0  0  0  0  0  0  0  0  0
   -2.7063   -1.6423   -3.3796 H   0  0  0  0  0  0  0  0  0  0  0  0
    0.7283   -0.3295    1.0446 C   0  0  0  0  0  0  0  0  0  0  0  0
    1.9331   -0.2531    1.2442 O   0  0  0  0  0  0  0  0  0  0  0  0
   -0.1392    0.1933    1.9864 N   0  0  0  0  0  0  0  0  0  0  0  0
   -1.1260    0.0262    1.8197 H   0  0  0  0  0  0  0  0  0  0  0  0
    0.2914    0.5702    3.3272 C   0  0  0  0  0  0  0  0  0  0  0  0
    1.0660    1.3428    3.2788 H   0  0  0  0  0  0  0  0  0  0  0  0
   -0.5532    0.9661    3.8991 H   0  0  0  0  0  0  0  0  0  0  0  0
    0.6949   -0.2990    3.8572 H   0  0  0  0  0  0  0  0  0  0  0  0
  1  2  1  0  0  0  0
  2  3  1  0  0  0  0
  2  4  1  0  0  0  0
  2  5  1  0  0  0  0
  5  6  2  0  0  0  0
  5  7  1  0  0  0  0
  7  8  1  0  0  0  0
  7  9  1  0  0  0  0
  9 10  1  0  0  0  0
  9 11  1  0  0  0  0
  9 21  1  0  0  0  0
 11 12  1  0  0  0  0
 11 13  1  0  0  0  0
 11 14  1  0  0  0  0
 14 15  1  0  0  0  0
 14 16  1  0  0  0  0
 14 17  1  0  0  0  0
 17 18  2  0  0  0  0
 17 19  1  0  0  0  0
 19 20  1  0  0  0  0
 21 22  2  0  0  0  0
 21 23  1  0  0  0  0
 23 24  1  0  0  0  0
 23 25  1  0  0  0  0
 25 26  1  0  0  0  0
 25 27  1  0  0  0  0
 25 28  1  0  0  0  0
M  END
$$$$

  -OEChem-02102214123D

 28 27  0     1  0  0  0  0  0999 V2000
   -2.5725   -4.3159    0.6431 H   0  0  0  0  0  0  0  0  0  0  0  0
   -2.5972   -3.3609    0.1101 C   0  0  0  0  0  0  0  0  0  0  0  0
   -3.3821   -2.7365    0.5430 H   0  0  0  0  0  0  0  0  0  0  0  0
   -2.8280   -3.5516   -0.9405 H   0  0  0  0  0  0  0  0  0  0  0  0
   -1.2554   -2.6637    0.2270 C   0  0  0  0  0  0  0  0  0  0  0  0
   -0.3544   -3.1803    0.8621 O   0  0  0  0  0  0  0  0  0  0  0  0
   -1.0702   -1.4341   -0.3719 N   0  0  0  0  0  0  0  0  0  0  0  0
   -1.8655   -1.0434   -0.8745 H   0  0  0  0  0  0  0  0  0  0  0  0
    0.1994   -0.6855   -0.3700 C   0  0  1  0  0  0  0  0  0  0  0  0
    0.9438   -1.3725   -0.7893 H   0  0  0  0  0  0  0  0  0  0  0  0
    0.2273    0.5784   -1.2744 C   0  0  0  0  0  0  0  0  0  0  0  0
   -0.0814    1.4232   -0.6487 H   0  0  0  0  0  0  0  0  0  0  0  0
    1.2769    0.7590   -1.5330 H   0  0  0  0  0  0  0  0  0  0  0  0
   -0.6090    0.6914   -2.5844 C   0  0  0  0  0  0  0  0  0  0  0  0
   -1.2544    1.5702   -2.4975 H   0  0  0  0  0  0  0  0  0  0  0  0
    0.0854    0.8967   -3.4053 H   0  0  0  0  0  0  0  0  0  0  0  0
   -1.4973   -0.4680   -3.0260 C   0  0  0  0  0  0  0  0  0  0  0  0
   -1.0512   -1.2694   -3.8259 O   0  0  0  0  0  0  0  0  0  0  0  0
   -2.7549   -0.5384   -2.5235 O   0  0  0  0  0  0  0  0  0  0  0  0
   -3.1839   -1.2613   -3.0110 H   0  0  0  0  0  0  0  0  0  0  0  0
    0.7205   -0.3227    1.0393 C   0  0  0  0  0  0  0  0  0  0  0  0
    1.9246   -0.2197    1.2316 O   0  0  0  0  0  0  0  0  0  0  0  0
   -0.1519    0.1828    1.9862 N   0  0  0  0  0  0  0  0  0  0  0  0
   -1.1373    0.0049    1.8233 H   0  0  0  0  0  0  0  0  0  0  0  0
    0.2784    0.5778    3.3219 C   0  0  0  0  0  0  0  0  0  0  0  0
    1.0436    1.3592    3.2640 H   0  0  0  0  0  0  0  0  0  0  0  0
   -0.5689    0.9694    3.8929 H   0  0  0  0  0  0  0  0  0  0  0  0
    0.6933   -0.2818    3.8589 H   0  0  0  0  0  0  0  0  0  0  0  0
  1  2  1  0  0  0  0
  2  3  1  0  0  0  0
  2  4  1  0  0  0  0
  2  5  1  0  0  0  0
  5  6  2  0  0  0  0
  5  7  1  0  0  0  0
  7  8  1  0  0  0  0
  7  9  1  0  0  0  0
  9 10  1  0  0  0  0
  9 11  1  0  0  0  0
  9 21  1  0  0  0  0
 11 12  1  0  0  0  0
 11 13  1  0  0  0  0
 11 14  1  0  0  0  0
 14 15  1  0  0  0  0
 14 16  1  0  0  0  0
 14 17  1  0  0  0  0
 17 18  2  0  0  0  0
 17 19  1  0  0  0  0
 19 20  1  0  0  0  0
 21 22  2  0  0  0  0
 21 23  1  0  0  0  0
 23 24  1  0  0  0  0
 23 25  1  0  0  0  0
 25 26  1  0  0  0  0
 25 27  1  0  0  0  0
 25 28  1  0  0  0  0
M  END
$$$$

  -OEChem-02102214123D

 28 27  0     1  0  0  0  0  0999 V2000
   -2.4751   -4.3476    0.7577 H   0  0  0  0  0  0  0  0  0  0  0  0
   -2.5409   -3.3960    0.2223 C   0  0  0  0  0  0  0  0  0  0  0  0
   -3.2967   -2.7721    0.7052 H   0  0  0  0  0  0  0  0  0  0  0  0
   -2.8433   -3.5937   -0.8090 H   0  0  0  0  0  0  0  0  0  0  0  0
   -1.1965   -2.6941    0.2399 C   0  0  0  0  0  0  0  0  0  0  0  0
   -0.2455   -3.2127    0.7957 O   0  0  0  0  0  0  0  0  0  0  0  0
   -1.0624   -1.4600   -0.3633 N   0  0  0  0  0  0  0  0  0  0  0  0
   -1.9062   -1.0437   -0.7522 H   0  0  0  0  0  0  0  0  0  0  0  0
    0.1859   -0.6799   -0.4021 C   0  0  1  0  0  0  0  0  0  0  0  0
    0.9329   -1.3513   -0.8419 H   0  0  0  0  0  0  0  0  0  0  0  0
    0.1675    0.5816   -1.3107 C   0  0  0  0  0  0  0  0  0  0  0  0
   -0.1689    1.4067   -0.6730 H   0  0  0  0  0  0  0  0  0  0  0  0
    1.2053    0.8086   -1.5805 H   0  0  0  0  0  0  0  0  0  0  0  0
   -0.7004    0.6828   -2.6014 C   0  0  0  0  0  0  0  0  0  0  0  0
   -1.1333    1.6863   -2.6424 H   0  0  0  0  0  0  0  0  0  0  0  0
   -0.0157    0.6036   -3.4519 H   0  0  0  0  0  0  0  0  0  0  0  0
   -1.8310   -0.3097   -2.8602 C   0  0  0  0  0  0  0  0  0  0  0  0
   -1.6914   -1.1385   -3.7407 O   0  0  0  0  0  0  0  0  0  0  0  0
   -2.9610   -0.1968   -2.1190 O   0  0  0  0  0  0  0  0  0  0  0  0
   -3.5959   -0.8111   -2.5237 H   0  0  0  0  0  0  0  0  0  0  0  0
    0.7396   -0.3062    0.9917 C   0  0  0  0  0  0  0  0  0  0  0  0
    1.9461   -0.1800    1.1517 O   0  0  0  0  0  0  0  0  0  0  0  0
   -0.1172    0.1753    1.9652 N   0  0  0  0  0  0  0  0  0  0  0  0
   -1.1046   -0.0094    1.8237 H   0  0  0  0  0  0  0  0  0  0  0  0
    0.3397    0.5816    3.2884 C   0  0  0  0  0  0  0  0  0  0  0  0
    1.0878    1.3776    3.2096 H   0  0  0  0  0  0  0  0  0  0  0  0
   -0.5001    0.9580    3.8802 H   0  0  0  0  0  0  0  0  0  0  0  0
    0.7849   -0.2686    3.8159 H   0  0  0  0  0  0  0  0  0  0  0  0
  1  2  1  0  0  0  0
  2  3  1  0  0  0  0
  2  4  1  0  0  0  0
  2  5  1  0  0  0  0
  5  6  2  0  0  0  0
  5  7  1  0  0  0  0
  7  8  1  0  0  0  0
  7  9  1  0  0  0  0
  9 10  1  0  0  0  0
  9 11  1  0  0  0  0
  9 21  1  0  0  0  0
 11 12  1  0  0  0  0
 11 13  1  0  0  0  0
 11 14  1  0  0  0  0
 14 15  1  0  0  0  0
 14 16  1  0  0  0  0
 14 17  1  0  0  0  0
 17 18  2  0  0  0  0
 17 19  1  0  0  0  0
 19 20  1  0  0  0  0
 21 22  2  0  0  0  0
 21 23  1  0  0  0  0
 23 24  1  0  0  0  0
 23 25  1  0  0  0  0
 25 26  1  0  0  0  0
 25 27  1  0  0  0  0
 25 28  1  0  0  0  0
M  END
$$$$

  -OEChem-02102214123D

 28 27  0     1  0  0  0  0  0999 V2000
   -2.3542   -4.3660    0.8988 H   0  0  0  0  0  0  0  0  0  0  0  0
   -2.4613   -3.4286    0.3455 C   0  0  0  0  0  0  0  0  0  0  0  0
   -3.2107   -2.8096    0.8442 H   0  0  0  0  0  0  0  0  0  0  0  0
   -2.8000   -3.6562   -0.6683 H   0  0  0  0  0  0  0  0  0  0  0  0
   -1.1322   -2.6993    0.2934 C   0  0  0  0  0  0  0  0  0  0  0  0
   -0.1498   -3.1829    0.8259 O   0  0  0  0  0  0  0  0  0  0  0  0
   -1.0474   -1.4790   -0.3460 N   0  0  0  0  0  0  0  0  0  0  0  0
   -1.9202   -1.0743   -0.6769 H   0  0  0  0  0  0  0  0  0  0  0  0
    0.1716   -0.6560   -0.4148 C   0  0  1  0  0  0  0  0  0  0  0  0
    0.9393   -1.3152   -0.8366 H   0  0  0  0  0  0  0  0  0  0  0  0
    0.1094    0.5726   -1.3658 C   0  0  0  0  0  0  0  0  0  0  0  0
   -0.2638    1.4040   -0.7575 H   0  0  0  0  0  0  0  0  0  0  0  0
    1.1363    0.8325   -1.6468 H   0  0  0  0  0  0  0  0  0  0  0  0
   -0.7663    0.5859   -2.6528 C   0  0  0  0  0  0  0  0  0  0  0  0
   -1.0163    1.6249   -2.8846 H   0  0  0  0  0  0  0  0  0  0  0  0
   -0.1327    0.2229   -3.4685 H   0  0  0  0  0  0  0  0  0  0  0  0
   -2.0606   -0.2221   -2.7132 C   0  0  0  0  0  0  0  0  0  0  0  0
   -2.1942   -1.0441   -3.6012 O   0  0  0  0  0  0  0  0  0  0  0  0
   -3.0250    0.0432   -1.7975 O   0  0  0  0  0  0  0  0  0  0  0  0
   -3.8051   -0.4552   -2.0926 H   0  0  0  0  0  0  0  0  0  0  0  0
    0.7220   -0.2205    0.9625 C   0  0  0  0  0  0  0  0  0  0  0  0
    1.9247   -0.0492    1.1082 O   0  0  0  0  0  0  0  0  0  0  0  0
   -0.1413    0.2599    1.9307 N   0  0  0  0  0  0  0  0  0  0  0  0
   -1.1260    0.0548    1.8000 H   0  0  0  0  0  0  0  0  0  0  0  0
    0.3143    0.7342    3.2318 C   0  0  0  0  0  0  0  0  0  0  0  0
    1.0007    1.5795    3.1132 H   0  0  0  0  0  0  0  0  0  0  0  0
   -0.5371    1.0646    3.8345 H   0  0  0  0  0  0  0  0  0  0  0  0
    0.8321   -0.0667    3.7705 H   0  0  0  0  0  0  0  0  0  0  0  0
  1  2  1  0  0  0  0
  2  3  1  0  0  0  0
  2  4  1  0  0  0  0
  2  5  1  0  0  0  0
  5  6  2  0  0  0  0
  5  7  1  0  0  0  0
  7  8  1  0  0  0  0
  7  9  1  0  0  0  0
  9 10  1  0  0  0  0
  9 11  1  0  0  0  0
  9 21  1  0  0  0  0
 11 12  1  0  0  0  0
 11 13  1  0  0  0  0
 11 14  1  0  0  0  0
 14 15  1  0  0  0  0
 14 16  1  0  0  0  0
 14 17  1  0  0  0  0
 17 18  2  0  0  0  0
 17 19  1  0  0  0  0
 19 20  1  0  0  0  0
 21 22  2  0  0  0  0
 21 23  1  0  0  0  0
 23 24  1  0  0  0  0
 23 25  1  0  0  0  0
 25 26  1  0  0  0  0
 25 27  1  0  0  0  0
 25 28  1  0  0  0  0
M  END
$$$$

  -OEChem-02102214123D

 28 27  0     1  0  0  0  0  0999 V2000
   -2.5917   -4.0150    0.4336 H   0  0  0  0  0  0  0  0  0  0  0  0
   -2.2958   -3.0599   -0.0864 C   0  0  0  0  0  0  0  0  0  0  0  0
   -3.0945   -2.3788    0.4552 H   0  0  0  0  0  0  0  0  0  0  0  0
   -2.8142   -3.1351   -1.0688 H   0  0  0  0  0  0  0  0  0  0  0  0
   -0.5041   -2.7838   -0.1026 C   0  0  0  0  0  0  0  0  0  0  0  0
   -0.0930   -3.3230    0.9506 O   0  0  0  0  0  0  0  0  0  0  0  0
    0.3625   -1.7589   -0.3969 N   0  0  0  0  0  0  0  0  0  0  0  0
    1.2051   -2.4645   -0.5143 H   0  0  0  0  0  0  0  0  0  0  0  0
    1.1970   -0.7748   -0.6781 C   0  0  1  0  0  0  0  0  0  0  0  0
    1.2598   -1.3972   -1.5652 H   0  0  0  0  0  0  0  0  0  0  0  0
    0.0087    0.4611   -1.2553 C   0  0  0  0  0  0  0  0  0  0  0  0
    0.0606    1.3214   -0.6099 H   0  0  0  0  0  0  0  0  0  0  0  0
    1.0988    1.0024   -1.7527 H   0  0  0  0  0  0  0  0  0  0  0  0
   -1.5559    1.0468   -1.9388 C   0  0  0  0  0  0  0  0  0  0  0  0
   -1.3032    1.8444   -2.7410 H   0  0  0  0  0  0  0  0  0  0  0  0
   -1.1852    0.4251   -2.7659 H   0  0  0  0  0  0  0  0  0  0  0  0
   -3.8635    0.9235   -1.7844 C   0  0  0  0  0  0  0  0  0  0  0  0
   -5.3724    1.2481   -1.5600 O   0  0  0  0  0  0  0  0  0  0  0  0
   -3.8422    0.2290   -2.6861 O   0  0  0  0  0  0  0  0  0  0  0  0
   -3.9303   -0.6805   -2.4557 H   0  0  0  0  0  0  0  0  0  0  0  0
    1.1613   -0.2724    0.8977 C   0  0  0  0  0  0  0  0  0  0  0  0
    2.3197   -0.5622    1.5552 O   0  0  0  0  0  0  0  0  0  0  0  0
   -0.0567   -0.0699    1.7921 N   0  0  0  0  0  0  0  0  0  0  0  0
   -0.9794    0.2638    1.4488 H   0  0  0  0  0  0  0  0  0  0  0  0
    0.2096    0.3412    3.2193 C   0  0  0  0  0  0  0  0  0  0  0  0
    1.0226    1.0774    3.3414 H   0  0  0  0  0  0  0  0  0  0  0  0
   -0.6736    0.7699    3.7637 H   0  0  0  0  0  0  0  0  0  0  0  0
    0.5036   -0.5595    3.7562 H   0  0  0  0  0  0  0  0  0  0  0  0
  1  2  1  0  0  0  0
  2  3  1  0  0  0  0
  2  4  1  0  0  0  0
  2  5  1  0  0  0  0
  5  6  2  0  0  0  0
  5  7  1  0  0  0  0
  7  8  1  0  0  0  0
  7  9  1  0  0  0  0
  9 10  1  0  0  0  0
  9 11  1  0  0  0  0
  9 21  1  0  0  0  0
 11 12  1  0  0  0  0
 11 13  1  0  0  0  0
 11 14  1  0  0  0  0
 14 15  1  0  0  0  0
 14 16  1  0  0  0  0
 14 17  1  0  0  0  0
 17 18  2  0  0  0  0
 17 19  1  0  0  0  0
 19 20  1  0  0  0  0
 21 22  2  0  0  0  0
 21 23  1  0  0  0  0
 23 24  1  0  0  0  0
 23 25  1  0  0  0  0
 25 26  1  0  0  0  0
 25 27  1  0  0  0  0
 25 28  1  0  0  0  0
M  END
$$$$

  -OEChem-02102214123D

 28 27  0     1  0  0  0  0  0999 V2000
   -2.4880   -4.2821    0.6488 H   0  0  0  0  0  0  0  0  0  0  0  0
   -2.5692   -3.2908    0.1938 C   0  0  0  0  0  0  0  0  0  0  0  0
   -3.2074   -2.6663    0.8234 H   0  0  0  0  0  0  0  0  0  0  0  0
   -3.0282   -3.3926   -0.7925 H   0  0  0  0  0  0  0  0  0  0  0  0
   -1.1947   -2.6631    0.0616 C   0  0  0  0  0  0  0  0  0  0  0  0
   -0.2049   -3.2833    0.4063 O   0  0  0  0  0  0  0  0  0  0  0  0
   -1.0761   -1.3817   -0.4367 N   0  0  0  0  0  0  0  0  0  0  0  0
   -1.9465   -0.8668   -0.5575 H   0  0  0  0  0  0  0  0  0  0  0  0
    0.1777   -0.6083   -0.4274 C   0  0  1  0  0  0  0  0  0  0  0  0
    0.9161   -1.2313   -0.9451 H   0  0  0  0  0  0  0  0  0  0  0  0
    0.1199    0.7317   -1.2097 C   0  0  0  0  0  0  0  0  0  0  0  0
   -0.1776    1.5188   -0.5074 H   0  0  0  0  0  0  0  0  0  0  0  0
    1.1390    0.9698   -1.5342 H   0  0  0  0  0  0  0  0  0  0  0  0
   -0.8247    0.8458   -2.4353 C   0  0  0  0  0  0  0  0  0  0  0  0
   -0.6931    1.8366   -2.8785 H   0  0  0  0  0  0  0  0  0  0  0  0
   -0.4959    0.1127   -3.1774 H   0  0  0  0  0  0  0  0  0  0  0  0
   -2.3257    0.6390   -2.2259 C   0  0  0  0  0  0  0  0  0  0  0  0
   -2.8063    0.7536   -1.1081 O   0  0  0  0  0  0  0  0  0  0  0  0
   -3.0579    0.3410   -3.3231 O   0  0  0  0  0  0  0  0  0  0  0  0
   -3.9815    0.2826   -3.0350 H   0  0  0  0  0  0  0  0  0  0  0  0
    0.7558   -0.3619    0.9837 C   0  0  0  0  0  0  0  0  0  0  0  0
    1.9667   -0.2883    1.1431 O   0  0  0  0  0  0  0  0  0  0  0  0
   -0.0798    0.0380    2.0109 N   0  0  0  0  0  0  0  0  0  0  0  0
   -1.0785   -0.0226    1.8412 H   0  0  0  0  0  0  0  0  0  0  0  0
    0.3973    0.3516    3.3518 C   0  0  0  0  0  0  0  0  0  0  0  0
    1.0987    1.1922    3.3223 H   0  0  0  0  0  0  0  0  0  0  0  0
   -0.4419    0.6249    3.9984 H   0  0  0  0  0  0  0  0  0  0  0  0
    0.9042   -0.5153    3.7889 H   0  0  0  0  0  0  0  0  0  0  0  0
  1  2  1  0  0  0  0
  2  3  1  0  0  0  0
  2  4  1  0  0  0  0
  2  5  1  0  0  0  0
  5  6  2  0  0  0  0
  5  7  1  0  0  0  0
  7  8  1  0  0  0  0
  7  9  1  0  0  0  0
  9 10  1  0  0  0  0
  9 11  1  0  0  0  0
  9 21  1  0  0  0  0
 11 12  1  0  0  0  0
 11 13  1  0  0  0  0
 11 14  1  0  0  0  0
 14 15  1  0  0  0  0
 14 16  1  0  0  0  0
 14 17  1  0  0  0  0
 17 18  2  0  0  0  0
 17 19  1  0  0  0  0
 19 20  1  0  0  0  0
 21 22  2  0  0  0  0
 21 23  1  0  0  0  0
 23 24  1  0  0  0  0
 23 25  1  0  0  0  0
 25 26  1  0  0  0  0
 25 27  1  0  0  0  0
 25 28  1  0  0  0  0
M  END
$$$$

  -OEChem-02102214123D

 28 27  0     1  0  0  0  0  0999 V2000
   -2.5113   -4.2600    0.6008 H   0  0  0  0  0  0  0  0  0  0  0  0
   -2.5794   -3.2652    0.1513 C   0  0  0  0  0  0  0  0  0  0  0  0
   -3.2185   -2.6390    0.7783 H   0  0  0  0  0  0  0  0  0  0  0  0
   -3.0292   -3.3574   -0.8402 H   0  0  0  0  0  0  0  0  0  0  0  0
   -1.1983   -2.6488    0.0371 C   0  0  0  0  0  0  0  0  0  0  0  0
   -0.2188   -3.2779    0.3950 O   0  0  0  0  0  0  0  0  0  0  0  0
   -1.0600   -1.3708   -0.4646 N   0  0  0  0  0  0  0  0  0  0  0  0
   -1.9227   -0.8465   -0.6015 H   0  0  0  0  0  0  0  0  0  0  0  0
    0.2012   -0.6088   -0.4337 C   0  0  1  0  0  0  0  0  0  0  0  0
    0.9459   -1.2317   -0.9428 H   0  0  0  0  0  0  0  0  0  0  0  0
    0.1363    0.7296   -1.2130 C   0  0  0  0  0  0  0  0  0  0  0  0
   -0.1510    1.5310   -0.5226 H   0  0  0  0  0  0  0  0  0  0  0  0
    1.1519    0.9591   -1.5545 H   0  0  0  0  0  0  0  0  0  0  0  0
   -0.8182    0.7888   -2.4315 C   0  0  0  0  0  0  0  0  0  0  0  0
   -0.5480    1.6646   -3.0280 H   0  0  0  0  0  0  0  0  0  0  0  0
   -0.6482   -0.0925   -3.0567 H   0  0  0  0  0  0  0  0  0  0  0  0
   -2.3190    0.8925   -2.1447 C   0  0  0  0  0  0  0  0  0  0  0  0
   -2.7333    0.8554   -0.9954 O   0  0  0  0  0  0  0  0  0  0  0  0
   -3.1272    1.0189   -3.2211 O   0  0  0  0  0  0  0  0  0  0  0  0
   -4.0316    1.0973   -2.8811 H   0  0  0  0  0  0  0  0  0  0  0  0
    0.7569   -0.3596    0.9854 C   0  0  0  0  0  0  0  0  0  0  0  0
    1.9653   -0.2978    1.1658 O   0  0  0  0  0  0  0  0  0  0  0  0
   -0.0928    0.0540    1.9954 N   0  0  0  0  0  0  0  0  0  0  0  0
   -1.0887    0.0175    1.8034 H   0  0  0  0  0  0  0  0  0  0  0  0
    0.3635    0.3816    3.3402 C   0  0  0  0  0  0  0  0  0  0  0  0
    1.0705    1.2175    3.3121 H   0  0  0  0  0  0  0  0  0  0  0  0
   -0.4846    0.6678    3.9694 H   0  0  0  0  0  0  0  0  0  0  0  0
    0.8579   -0.4827    3.7964 H   0  0  0  0  0  0  0  0  0  0  0  0
  1  2  1  0  0  0  0
  2  3  1  0  0  0  0
  2  4  1  0  0  0  0
  2  5  1  0  0  0  0
  5  6  2  0  0  0  0
  5  7  1  0  0  0  0
  7  8  1  0  0  0  0
  7  9  1  0  0  0  0
  9 10  1  0  0  0  0
  9 11  1  0  0  0  0
  9 21  1  0  0  0  0
 11 12  1  0  0  0  0
 11 13  1  0  0  0  0
 11 14  1  0  0  0  0
 14 15  1  0  0  0  0
 14 16  1  0  0  0  0
 14 17  1  0  0  0  0
 17 18  2  0  0  0  0
 17 19  1  0  0  0  0
 19 20  1  0  0  0  0
 21 22  2  0  0  0  0
 21 23  1  0  0  0  0
 23 24  1  0  0  0  0
 23 25  1  0  0  0  0
 25 26  1  0  0  0  0
 25 27  1  0  0  0  0
 25 28  1  0  0  0  0
M  END
$$$$

  -OEChem-02102214123D

 28 27  0     1  0  0  0  0  0999 V2000
   -2.5091   -4.2610    0.5923 H   0  0  0  0  0  0  0  0  0  0  0  0
   -2.5675   -3.2774    0.1177 C   0  0  0  0  0  0  0  0  0  0  0  0
   -3.2413   -2.6450    0.7004 H   0  0  0  0  0  0  0  0  0  0  0  0
   -2.9708   -3.3963   -0.8906 H   0  0  0  0  0  0  0  0  0  0  0  0
   -1.1897   -2.6467    0.0531 C   0  0  0  0  0  0  0  0  0  0  0  0
   -0.2206   -3.2517    0.4756 O   0  0  0  0  0  0  0  0  0  0  0  0
   -1.0436   -1.3788   -0.4703 N   0  0  0  0  0  0  0  0  0  0  0  0
   -1.9026   -0.8775   -0.6960 H   0  0  0  0  0  0  0  0  0  0  0  0
    0.2128   -0.6083   -0.4397 C   0  0  1  0  0  0  0  0  0  0  0  0
    0.9690   -1.2305   -0.9323 H   0  0  0  0  0  0  0  0  0  0  0  0
    0.1234    0.7131   -1.2424 C   0  0  0  0  0  0  0  0  0  0  0  0
   -0.1721    1.5283   -0.5719 H   0  0  0  0  0  0  0  0  0  0  0  0
    1.1336    0.9486   -1.5955 H   0  0  0  0  0  0  0  0  0  0  0  0
   -0.8372    0.7055   -2.4567 C   0  0  0  0  0  0  0  0  0  0  0  0
   -0.4473    1.4136   -3.1939 H   0  0  0  0  0  0  0  0  0  0  0  0
   -0.8402   -0.2788   -2.9334 H   0  0  0  0  0  0  0  0  0  0  0  0
   -2.2756    1.1281   -2.1478 C   0  0  0  0  0  0  0  0  0  0  0  0
   -2.7988    0.7649   -1.1050 O   0  0  0  0  0  0  0  0  0  0  0  0
   -2.9065    1.8872   -3.0723 O   0  0  0  0  0  0  0  0  0  0  0  0
   -3.7924    2.0677   -2.7226 H   0  0  0  0  0  0  0  0  0  0  0  0
    0.7523   -0.3253    0.9789 C   0  0  0  0  0  0  0  0  0  0  0  0
    1.9584   -0.2448    1.1677 O   0  0  0  0  0  0  0  0  0  0  0  0
   -0.1111    0.1043    1.9705 N   0  0  0  0  0  0  0  0  0  0  0  0
   -1.1043    0.0153    1.7809 H   0  0  0  0  0  0  0  0  0  0  0  0
    0.3290    0.4354    3.3199 C   0  0  0  0  0  0  0  0  0  0  0  0
    1.0698    1.2417    3.2951 H   0  0  0  0  0  0  0  0  0  0  0  0
   -0.5200    0.7667    3.9250 H   0  0  0  0  0  0  0  0  0  0  0  0
    0.7776   -0.4404    3.8005 H   0  0  0  0  0  0  0  0  0  0  0  0
  1  2  1  0  0  0  0
  2  3  1  0  0  0  0
  2  4  1  0  0  0  0
  2  5  1  0  0  0  0
  5  6  2  0  0  0  0
  5  7  1  0  0  0  0
  7  8  1  0  0  0  0
  7  9  1  0  0  0  0
  9 10  1  0  0  0  0
  9 11  1  0  0  0  0
  9 21  1  0  0  0  0
 11 12  1  0  0  0  0
 11 13  1  0  0  0  0
 11 14  1  0  0  0  0
 14 15  1  0  0  0  0
 14 16  1  0  0  0  0
 14 17  1  0  0  0  0
 17 18  2  0  0  0  0
 17 19  1  0  0  0  0
 19 20  1  0  0  0  0
 21 22  2  0  0  0  0
 21 23  1  0  0  0  0
 23 24  1  0  0  0  0
 23 25  1  0  0  0  0
 25 26  1  0  0  0  0
 25 27  1  0  0  0  0
 25 28  1  0  0  0  0
M  END
$$$$

  -OEChem-02102214123D

 28 27  0     1  0  0  0  0  0999 V2000
   -2.5263   -4.2633    0.5508 H   0  0  0  0  0  0  0  0  0  0  0  0
   -2.5770   -3.2791    0.0761 C   0  0  0  0  0  0  0  0  0  0  0  0
   -3.2844   -2.6569    0.6294 H   0  0  0  0  0  0  0  0  0  0  0  0
   -2.9340   -3.4010   -0.9493 H   0  0  0  0  0  0  0  0  0  0  0  0
   -1.2064   -2.6296    0.0730 C   0  0  0  0  0  0  0  0  0  0  0  0
   -0.2541   -3.2098    0.5627 O   0  0  0  0  0  0  0  0  0  0  0  0
   -1.0459   -1.3740   -0.4753 N   0  0  0  0  0  0  0  0  0  0  0  0
   -1.8899   -0.8997   -0.7978 H   0  0  0  0  0  0  0  0  0  0  0  0
    0.2152   -0.6064   -0.4521 C   0  0  1  0  0  0  0  0  0  0  0  0
    0.9741   -1.2352   -0.9320 H   0  0  0  0  0  0  0  0  0  0  0  0
    0.1017    0.6921   -1.2830 C   0  0  0  0  0  0  0  0  0  0  0  0
   -0.1994    1.5197   -0.6301 H   0  0  0  0  0  0  0  0  0  0  0  0
    1.1037    0.9363   -1.6532 H   0  0  0  0  0  0  0  0  0  0  0  0
   -0.8706    0.6118   -2.4847 C   0  0  0  0  0  0  0  0  0  0  0  0
   -0.3972    1.1050   -3.3390 H   0  0  0  0  0  0  0  0  0  0  0  0
   -1.0662   -0.4176   -2.7965 H   0  0  0  0  0  0  0  0  0  0  0  0
   -2.1750    1.3454   -2.2048 C   0  0  0  0  0  0  0  0  0  0  0  0
   -2.9327    0.8408   -1.3899 O   0  0  0  0  0  0  0  0  0  0  0  0
   -2.4235    2.5083   -2.8489 O   0  0  0  0  0  0  0  0  0  0  0  0
   -3.2867    2.8178   -2.5344 H   0  0  0  0  0  0  0  0  0  0  0  0
    0.7499   -0.2916    0.9615 C   0  0  0  0  0  0  0  0  0  0  0  0
    1.9552   -0.1996    1.1497 O   0  0  0  0  0  0  0  0  0  0  0  0
   -0.1181    0.1640    1.9372 N   0  0  0  0  0  0  0  0  0  0  0  0
   -1.1081    0.0293    1.7587 H   0  0  0  0  0  0  0  0  0  0  0  0
    0.3161    0.5119    3.2843 C   0  0  0  0  0  0  0  0  0  0  0  0
    1.0601    1.3149    3.2528 H   0  0  0  0  0  0  0  0  0  0  0  0
   -0.5352    0.8551    3.8798 H   0  0  0  0  0  0  0  0  0  0  0  0
    0.7587   -0.3588    3.7798 H   0  0  0  0  0  0  0  0  0  0  0  0
  1  2  1  0  0  0  0
  2  3  1  0  0  0  0
  2  4  1  0  0  0  0
  2  5  1  0  0  0  0
  5  6  2  0  0  0  0
  5  7  1  0  0  0  0
  7  8  1  0  0  0  0
  7  9  1  0  0  0  0
  9 10  1  0  0  0  0
  9 11  1  0  0  0  0
  9 21  1  0  0  0  0
 11 12  1  0  0  0  0
 11 13  1  0  0  0  0
 11 14  1  0  0  0  0
 14 15  1  0  0  0  0
 14 16  1  0  0  0  0
 14 17  1  0  0  0  0
 17 18  2  0  0  0  0
 17 19  1  0  0  0  0
 19 20  1  0  0  0  0
 21 22  2  0  0  0  0
 21 23  1  0  0  0  0
 23 24  1  0  0  0  0
 23 25  1  0  0  0  0
 25 26  1  0  0  0  0
 25 27  1  0  0  0  0
 25 28  1  0  0  0  0
M  END
$$$$

  -OEChem-02102214123D

 28 27  0     1  0  0  0  0  0999 V2000
   -2.5134   -4.2972    0.5611 H   0  0  0  0  0  0  0  0  0  0  0  0
   -2.5802   -3.3126    0.0896 C   0  0  0  0  0  0  0  0  0  0  0  0
   -3.3011   -2.7057    0.6426 H   0  0  0  0  0  0  0  0  0  0  0  0
   -2.9307   -3.4382   -0.9377 H   0  0  0  0  0  0  0  0  0  0  0  0
   -1.2212   -2.6390    0.0948 C   0  0  0  0  0  0  0  0  0  0  0  0
   -0.2636   -3.2011    0.5943 O   0  0  0  0  0  0  0  0  0  0  0  0
   -1.0771   -1.3819   -0.4558 N   0  0  0  0  0  0  0  0  0  0  0  0
   -1.9189   -0.9307   -0.8074 H   0  0  0  0  0  0  0  0  0  0  0  0
    0.1807   -0.6087   -0.4548 C   0  0  1  0  0  0  0  0  0  0  0  0
    0.9321   -1.2393   -0.9442 H   0  0  0  0  0  0  0  0  0  0  0  0
    0.0644    0.6869   -1.2906 C   0  0  0  0  0  0  0  0  0  0  0  0
   -0.2404    1.5023   -0.6243 H   0  0  0  0  0  0  0  0  0  0  0  0
    1.0643    0.9463   -1.6560 H   0  0  0  0  0  0  0  0  0  0  0  0
   -0.9135    0.6313   -2.4935 C   0  0  0  0  0  0  0  0  0  0  0  0
   -0.3495    0.8638   -3.4016 H   0  0  0  0  0  0  0  0  0  0  0  0
   -1.3457   -0.3577   -2.6562 H   0  0  0  0  0  0  0  0  0  0  0  0
   -2.0252    1.6618   -2.3623 C   0  0  0  0  0  0  0  0  0  0  0  0
   -2.9121    1.4227   -1.5586 O   0  0  0  0  0  0  0  0  0  0  0  0
   -1.9714    2.7821   -3.1180 O   0  0  0  0  0  0  0  0  0  0  0  0
   -2.7518    3.3071   -2.8834 H   0  0  0  0  0  0  0  0  0  0  0  0
    0.7428   -0.2905    0.9481 C   0  0  0  0  0  0  0  0  0  0  0  0
    1.9517   -0.1938    1.1099 O   0  0  0  0  0  0  0  0  0  0  0  0
   -0.1044    0.1621    1.9434 N   0  0  0  0  0  0  0  0  0  0  0  0
   -1.0978    0.0244    1.7890 H   0  0  0  0  0  0  0  0  0  0  0  0
    0.3604    0.5173    3.2783 C   0  0  0  0  0  0  0  0  0  0  0  0
    1.0895    1.3328    3.2263 H   0  0  0  0  0  0  0  0  0  0  0  0
   -0.4798    0.8461    3.8972 H   0  0  0  0  0  0  0  0  0  0  0  0
    0.8308   -0.3458    3.7610 H   0  0  0  0  0  0  0  0  0  0  0  0
  1  2  1  0  0  0  0
  2  3  1  0  0  0  0
  2  4  1  0  0  0  0
  2  5  1  0  0  0  0
  5  6  2  0  0  0  0
  5  7  1  0  0  0  0
  7  8  1  0  0  0  0
  7  9  1  0  0  0  0
  9 10  1  0  0  0  0
  9 11  1  0  0  0  0
  9 21  1  0  0  0  0
 11 12  1  0  0  0  0
 11 13  1  0  0  0  0
 11 14  1  0  0  0  0
 14 15  1  0  0  0  0
 14 16  1  0  0  0  0
 14 17  1  0  0  0  0
 17 18  2  0  0  0  0
 17 19  1  0  0  0  0
 19 20  1  0  0  0  0
 21 22  2  0  0  0  0
 21 23  1  0  0  0  0
 23 24  1  0  0  0  0
 23 25  1  0  0  0  0
 25 26  1  0  0  0  0
 25 27  1  0  0  0  0
 25 28  1  0  0  0  0
M  END
$$$$

  -OEChem-02102214123D

 28 27  0     1  0  0  0  0  0999 V2000
   -2.5748   -4.2735    0.4191 H   0  0  0  0  0  0  0  0  0  0  0  0
   -2.6194   -3.2772   -0.0301 C   0  0  0  0  0  0  0  0  0  0  0  0
   -3.3773   -2.6897    0.4934 H   0  0  0  0  0  0  0  0  0  0  0  0
   -2.9055   -3.3787   -1.0799 H   0  0  0  0  0  0  0  0  0  0  0  0
   -1.2678   -2.5964    0.0763 C   0  0  0  0  0  0  0  0  0  0  0  0
   -0.3381   -3.1695    0.6142 O   0  0  0  0  0  0  0  0  0  0  0  0
   -1.1006   -1.3229   -0.4306 N   0  0  0  0  0  0  0  0  0  0  0  0
   -1.9085   -0.8918   -0.8681 H   0  0  0  0  0  0  0  0  0  0  0  0
    0.1729   -0.5753   -0.4061 C   0  0  1  0  0  0  0  0  0  0  0  0
    0.9066   -1.2172   -0.9074 H   0  0  0  0  0  0  0  0  0  0  0  0
    0.1279    0.7470   -1.2134 C   0  0  0  0  0  0  0  0  0  0  0  0
   -0.1696    1.5269   -0.5054 H   0  0  0  0  0  0  0  0  0  0  0  0
    1.1442    0.9997   -1.5362 H   0  0  0  0  0  0  0  0  0  0  0  0
   -0.8233    0.7891   -2.4492 C   0  0  0  0  0  0  0  0  0  0  0  0
   -0.2055    0.7038   -3.3476 H   0  0  0  0  0  0  0  0  0  0  0  0
   -1.5035   -0.0615   -2.4695 H   0  0  0  0  0  0  0  0  0  0  0  0
   -1.6897    2.0444   -2.6018 C   0  0  0  0  0  0  0  0  0  0  0  0
   -1.6187    2.9589   -1.7990 O   0  0  0  0  0  0  0  0  0  0  0  0
   -2.5325    2.0528   -3.6590 O   0  0  0  0  0  0  0  0  0  0  0  0
   -2.9901    2.9074   -3.6270 H   0  0  0  0  0  0  0  0  0  0  0  0
    0.7474   -0.3167    1.0055 C   0  0  0  0  0  0  0  0  0  0  0  0
    1.9595   -0.2636    1.1640 O   0  0  0  0  0  0  0  0  0  0  0  0
   -0.0811    0.1182    2.0240 N   0  0  0  0  0  0  0  0  0  0  0  0
   -1.0782    0.0074    1.8750 H   0  0  0  0  0  0  0  0  0  0  0  0
    0.4036    0.4144    3.3665 C   0  0  0  0  0  0  0  0  0  0  0  0
    1.1635    1.2025    3.3353 H   0  0  0  0  0  0  0  0  0  0  0  0
   -0.4203    0.7566    4.0001 H   0  0  0  0  0  0  0  0  0  0  0  0
    0.8430   -0.4805    3.8198 H   0  0  0  0  0  0  0  0  0  0  0  0
  1  2  1  0  0  0  0
  2  3  1  0  0  0  0
  2  4  1  0  0  0  0
  2  5  1  0  0  0  0
  5  6  2  0  0  0  0
  5  7  1  0  0  0  0
  7  8  1  0  0  0  0
  7  9  1  0  0  0  0
  9 10  1  0  0  0  0
  9 11  1  0  0  0  0
  9 21  1  0  0  0  0
 11 12  1  0  0  0  0
 11 13  1  0  0  0  0
 11 14  1  0  0  0  0
 14 15  1  0  0  0  0
 14 16  1  0  0  0  0
 14 17  1  0  0  0  0
 17 18  2  0  0  0  0
 17 19  1  0  0  0  0
 19 20  1  0  0  0  0
 21 22  2  0  0  0  0
 21 23  1  0  0  0  0
 23 24  1  0  0  0  0
 23 25  1  0  0  0  0
 25 26  1  0  0  0  0
 25 27  1  0  0  0  0
 25 28  1  0  0  0  0
M  END
$$$$

  -OEChem-02102214123D

 28 27  0     1  0  0  0  0  0999 V2000
   -2.5335   -4.3053    0.3972 H   0  0  0  0  0  0  0  0  0  0  0  0
   -2.5670   -3.3338   -0.1045 C   0  0  0  0  0  0  0  0  0  0  0  0
   -3.3732   -2.7400    0.3327 H   0  0  0  0  0  0  0  0  0  0  0  0
   -2.7741   -3.4939   -1.1654 H   0  0  0  0  0  0  0  0  0  0  0  0
   -1.2417   -2.6147    0.0615 C   0  0  0  0  0  0  0  0  0  0  0  0
   -0.3395   -3.1370    0.6901 O   0  0  0  0  0  0  0  0  0  0  0  0
   -1.0685   -1.3628   -0.4944 N   0  0  0  0  0  0  0  0  0  0  0  0
   -1.8530   -0.9759   -1.0087 H   0  0  0  0  0  0  0  0  0  0  0  0
    0.1887   -0.5903   -0.4377 C   0  0  1  0  0  0  0  0  0  0  0  0
    0.9600   -1.2371   -0.8716 H   0  0  0  0  0  0  0  0  0  0  0  0
    0.1589    0.6953   -1.3014 C   0  0  0  0  0  0  0  0  0  0  0  0
   -0.2139    1.5019   -0.6594 H   0  0  0  0  0  0  0  0  0  0  0  0
    1.1838    0.9650   -1.5807 H   0  0  0  0  0  0  0  0  0  0  0  0
   -0.7265    0.6617   -2.5721 C   0  0  0  0  0  0  0  0  0  0  0  0
   -0.1433    0.2727   -3.4124 H   0  0  0  0  0  0  0  0  0  0  0  0
   -1.5969    0.0167   -2.4567 H   0  0  0  0  0  0  0  0  0  0  0  0
   -1.2604    2.0492   -2.9058 C   0  0  0  0  0  0  0  0  0  0  0  0
   -0.7156    2.6903   -3.7862 O   0  0  0  0  0  0  0  0  0  0  0  0
   -2.3255    2.4959   -2.2000 O   0  0  0  0  0  0  0  0  0  0  0  0
   -2.5146    3.3830   -2.5446 H   0  0  0  0  0  0  0  0  0  0  0  0
    0.6804   -0.2575    0.9894 C   0  0  0  0  0  0  0  0  0  0  0  0
    1.8801   -0.1605    1.2083 O   0  0  0  0  0  0  0  0  0  0  0  0
   -0.2127    0.2060    1.9384 N   0  0  0  0  0  0  0  0  0  0  0  0
   -1.1949    0.0394    1.7475 H   0  0  0  0  0  0  0  0  0  0  0  0
    0.1901    0.5563    3.2950 C   0  0  0  0  0  0  0  0  0  0  0  0
    0.9548    1.3402    3.2792 H   0  0  0  0  0  0  0  0  0  0  0  0
   -0.6692    0.9272    3.8615 H   0  0  0  0  0  0  0  0  0  0  0  0
    0.5960   -0.3201    3.8113 H   0  0  0  0  0  0  0  0  0  0  0  0
  1  2  1  0  0  0  0
  2  3  1  0  0  0  0
  2  4  1  0  0  0  0
  2  5  1  0  0  0  0
  5  6  2  0  0  0  0
  5  7  1  0  0  0  0
  7  8  1  0  0  0  0
  7  9  1  0  0  0  0
  9 10  1  0  0  0  0
  9 11  1  0  0  0  0
  9 21  1  0  0  0  0
 11 12  1  0  0  0  0
 11 13  1  0  0  0  0
 11 14  1  0  0  0  0
 14 15  1  0  0  0  0
 14 16  1  0  0  0  0
 14 17  1  0  0  0  0
 17 18  2  0  0  0  0
 17 19  1  0  0  0  0
 19 20  1  0  0  0  0
 21 22  2  0  0  0  0
 21 23  1  0  0  0  0
 23 24  1  0  0  0  0
 23 25  1  0  0  0  0
 25 26  1  0  0  0  0
 25 27  1  0  0  0  0
 25 28  1  0  0  0  0
M  END
$$$$

  -OEChem-02102214123D

 28 27  0     1  0  0  0  0  0999 V2000
   -2.5905   -4.2659    0.4180 H   0  0  0  0  0  0  0  0  0  0  0  0
   -2.6136   -3.2928   -0.0810 C   0  0  0  0  0  0  0  0  0  0  0  0
   -3.4205   -2.6962    0.3510 H   0  0  0  0  0  0  0  0  0  0  0  0
   -2.8119   -3.4483   -1.1441 H   0  0  0  0  0  0  0  0  0  0  0  0
   -1.2855   -2.5823    0.1002 C   0  0  0  0  0  0  0  0  0  0  0  0
   -0.3921   -3.1167    0.7309 O   0  0  0  0  0  0  0  0  0  0  0  0
   -1.1019   -1.3253   -0.4418 N   0  0  0  0  0  0  0  0  0  0  0  0
   -1.8558   -0.9660   -1.0173 H   0  0  0  0  0  0  0  0  0  0  0  0
    0.1806   -0.5918   -0.4220 C   0  0  1  0  0  0  0  0  0  0  0  0
    0.9153   -1.2470   -0.9040 H   0  0  0  0  0  0  0  0  0  0  0  0
    0.1455    0.7198   -1.2446 C   0  0  0  0  0  0  0  0  0  0  0  0
   -0.1720    1.5230   -0.5693 H   0  0  0  0  0  0  0  0  0  0  0  0
    1.1633    0.9626   -1.5718 H   0  0  0  0  0  0  0  0  0  0  0  0
   -0.8078    0.7324   -2.4660 C   0  0  0  0  0  0  0  0  0  0  0  0
   -0.3910    0.1073   -3.2605 H   0  0  0  0  0  0  0  0  0  0  0  0
   -1.7844    0.3276   -2.1980 H   0  0  0  0  0  0  0  0  0  0  0  0
   -1.0758    2.1332   -3.0198 C   0  0  0  0  0  0  0  0  0  0  0  0
   -0.3498    3.0626   -2.7109 O   0  0  0  0  0  0  0  0  0  0  0  0
   -2.1400    2.2631   -3.8437 O   0  0  0  0  0  0  0  0  0  0  0  0
   -2.1563    3.1967   -4.1069 H   0  0  0  0  0  0  0  0  0  0  0  0
    0.7382   -0.3020    0.9902 C   0  0  0  0  0  0  0  0  0  0  0  0
    1.9480   -0.2494    1.1646 O   0  0  0  0  0  0  0  0  0  0  0  0
   -0.1036    0.1693    1.9813 N   0  0  0  0  0  0  0  0  0  0  0  0
   -1.0967    0.0316    1.8274 H   0  0  0  0  0  0  0  0  0  0  0  0
    0.3619    0.4939    3.3238 C   0  0  0  0  0  0  0  0  0  0  0  0
    1.1174    1.2859    3.2865 H   0  0  0  0  0  0  0  0  0  0  0  0
   -0.4722    0.8430    3.9399 H   0  0  0  0  0  0  0  0  0  0  0  0
    0.8010   -0.3891    3.8002 H   0  0  0  0  0  0  0  0  0  0  0  0
  1  2  1  0  0  0  0
  2  3  1  0  0  0  0
  2  4  1  0  0  0  0
  2  5  1  0  0  0  0
  5  6  2  0  0  0  0
  5  7  1  0  0  0  0
  7  8  1  0  0  0  0
  7  9  1  0  0  0  0
  9 10  1  0  0  0  0
  9 11  1  0  0  0  0
  9 21  1  0  0  0  0
 11 12  1  0  0  0  0
 11 13  1  0  0  0  0
 11 14  1  0  0  0  0
 14 15  1  0  0  0  0
 14 16  1  0  0  0  0
 14 17  1  0  0  0  0
 17 18  2  0  0  0  0
 17 19  1  0  0  0  0
 19 20  1  0  0  0  0
 21 22  2  0  0  0  0
 21 23  1  0  0  0  0
 23 24  1  0  0  0  0
 23 25  1  0  0  0  0
 25 26  1  0  0  0  0
 25 27  1  0  0  0  0
 25 28  1  0  0  0  0
M  END
$$$$

  -OEChem-02102214123D

 28 27  0     1  0  0  0  0  0999 V2000
   -2.5772   -4.2783    0.3502 H   0  0  0  0  0  0  0  0  0  0  0  0
   -2.6140   -3.2855   -0.1074 C   0  0  0  0  0  0  0  0  0  0  0  0
   -3.4341   -2.7214    0.3428 H   0  0  0  0  0  0  0  0  0  0  0  0
   -2.8022   -3.3992   -1.1777 H   0  0  0  0  0  0  0  0  0  0  0  0
   -1.3004   -2.5603    0.1144 C   0  0  0  0  0  0  0  0  0  0  0  0
   -0.4186   -3.0871    0.7672 O   0  0  0  0  0  0  0  0  0  0  0  0
   -1.1157   -1.3006   -0.4208 N   0  0  0  0  0  0  0  0  0  0  0  0
   -1.8499   -0.9601   -1.0329 H   0  0  0  0  0  0  0  0  0  0  0  0
    0.1721   -0.5748   -0.4085 C   0  0  1  0  0  0  0  0  0  0  0  0
    0.8986   -1.2325   -0.8995 H   0  0  0  0  0  0  0  0  0  0  0  0
    0.1271    0.7386   -1.2317 C   0  0  0  0  0  0  0  0  0  0  0  0
    0.1013    1.5891   -0.5400 H   0  0  0  0  0  0  0  0  0  0  0  0
    1.0611    0.8210   -1.7995 H   0  0  0  0  0  0  0  0  0  0  0  0
   -1.0771    0.8774   -2.1934 C   0  0  0  0  0  0  0  0  0  0  0  0
   -1.0716    0.0459   -2.9039 H   0  0  0  0  0  0  0  0  0  0  0  0
   -2.0102    0.8421   -1.6257 H   0  0  0  0  0  0  0  0  0  0  0  0
   -1.0899    2.1833   -2.9904 C   0  0  0  0  0  0  0  0  0  0  0  0
   -0.2139    3.0145   -2.8234 O   0  0  0  0  0  0  0  0  0  0  0  0
   -2.1129    2.3455   -3.8595 O   0  0  0  0  0  0  0  0  0  0  0  0
   -1.9689    3.2088   -4.2780 H   0  0  0  0  0  0  0  0  0  0  0  0
    0.7487   -0.2966    0.9988 C   0  0  0  0  0  0  0  0  0  0  0  0
    1.9611   -0.2559    1.1580 O   0  0  0  0  0  0  0  0  0  0  0  0
   -0.0767    0.1740    2.0036 N   0  0  0  0  0  0  0  0  0  0  0  0
   -1.0717    0.0342    1.8642 H   0  0  0  0  0  0  0  0  0  0  0  0
    0.4095    0.4720    3.3450 C   0  0  0  0  0  0  0  0  0  0  0  0
    1.1900    1.2392    3.3084 H   0  0  0  0  0  0  0  0  0  0  0  0
   -0.4075    0.8432    3.9708 H   0  0  0  0  0  0  0  0  0  0  0  0
    0.8237   -0.4289    3.8101 H   0  0  0  0  0  0  0  0  0  0  0  0
  1  2  1  0  0  0  0
  2  3  1  0  0  0  0
  2  4  1  0  0  0  0
  2  5  1  0  0  0  0
  5  6  2  0  0  0  0
  5  7  1  0  0  0  0
  7  8  1  0  0  0  0
  7  9  1  0  0  0  0
  9 10  1  0  0  0  0
  9 11  1  0  0  0  0
  9 21  1  0  0  0  0
 11 12  1  0  0  0  0
 11 13  1  0  0  0  0
 11 14  1  0  0  0  0
 14 15  1  0  0  0  0
 14 16  1  0  0  0  0
 14 17  1  0  0  0  0
 17 18  2  0  0  0  0
 17 19  1  0  0  0  0
 19 20  1  0  0  0  0
 21 22  2  0  0  0  0
 21 23  1  0  0  0  0
 23 24  1  0  0  0  0
 23 25  1  0  0  0  0
 25 26  1  0  0  0  0
 25 27  1  0  0  0  0
 25 28  1  0  0  0  0
M  END
$$$$

  -OEChem-02102214123D

 28 27  0     1  0  0  0  0  0999 V2000
   -2.6142   -4.2459    0.4001 H   0  0  0  0  0  0  0  0  0  0  0  0
   -2.6367   -3.2671   -0.0878 C   0  0  0  0  0  0  0  0  0  0  0  0
   -3.4410   -2.6734    0.3532 H   0  0  0  0  0  0  0  0  0  0  0  0
   -2.8384   -3.4108   -1.1520 H   0  0  0  0  0  0  0  0  0  0  0  0
   -1.3067   -2.5615    0.0982 C   0  0  0  0  0  0  0  0  0  0  0  0
   -0.4107   -3.1064    0.7159 O   0  0  0  0  0  0  0  0  0  0  0  0
   -1.1223   -1.2982   -0.4284 N   0  0  0  0  0  0  0  0  0  0  0  0
   -1.8762   -0.9303   -0.9995 H   0  0  0  0  0  0  0  0  0  0  0  0
    0.1664   -0.5737   -0.4211 C   0  0  1  0  0  0  0  0  0  0  0  0
    0.8885   -1.2259   -0.9262 H   0  0  0  0  0  0  0  0  0  0  0  0
    0.1084    0.7476   -1.2290 C   0  0  0  0  0  0  0  0  0  0  0  0
    0.1028    1.6007   -0.5405 H   0  0  0  0  0  0  0  0  0  0  0  0
    1.0346    0.8187   -1.8112 H   0  0  0  0  0  0  0  0  0  0  0  0
   -1.1078    0.8918   -2.1743 C   0  0  0  0  0  0  0  0  0  0  0  0
   -1.2375   -0.0367   -2.7380 H   0  0  0  0  0  0  0  0  0  0  0  0
   -2.0159    1.0736   -1.5935 H   0  0  0  0  0  0  0  0  0  0  0  0
   -0.9531    2.0129   -3.2030 C   0  0  0  0  0  0  0  0  0  0  0  0
   -0.1636    2.9194   -2.9999 O   0  0  0  0  0  0  0  0  0  0  0  0
   -1.7386    1.9413   -4.3015 O   0  0  0  0  0  0  0  0  0  0  0  0
   -1.5160    2.7199   -4.8355 H   0  0  0  0  0  0  0  0  0  0  0  0
    0.7560   -0.3055    0.9827 C   0  0  0  0  0  0  0  0  0  0  0  0
    1.9698   -0.2660    1.1311 O   0  0  0  0  0  0  0  0  0  0  0  0
   -0.0593    0.1594    1.9987 N   0  0  0  0  0  0  0  0  0  0  0  0
   -1.0567    0.0313    1.8660 H   0  0  0  0  0  0  0  0  0  0  0  0
    0.4402    0.4617    3.3346 C   0  0  0  0  0  0  0  0  0  0  0  0
    1.2037    1.2458    3.2906 H   0  0  0  0  0  0  0  0  0  0  0  0
   -0.3754    0.8118    3.9745 H   0  0  0  0  0  0  0  0  0  0  0  0
    0.8798   -0.4324    3.7893 H   0  0  0  0  0  0  0  0  0  0  0  0
  1  2  1  0  0  0  0
  2  3  1  0  0  0  0
  2  4  1  0  0  0  0
  2  5  1  0  0  0  0
  5  6  2  0  0  0  0
  5  7  1  0  0  0  0
  7  8  1  0  0  0  0
  7  9  1  0  0  0  0
  9 10  1  0  0  0  0
  9 11  1  0  0  0  0
  9 21  1  0  0  0  0
 11 12  1  0  0  0  0
 11 13  1  0  0  0  0
 11 14  1  0  0  0  0
 14 15  1  0  0  0  0
 14 16  1  0  0  0  0
 14 17  1  0  0  0  0
 17 18  2  0  0  0  0
 17 19  1  0  0  0  0
 19 20  1  0  0  0  0
 21 22  2  0  0  0  0
 21 23  1  0  0  0  0
 23 24  1  0  0  0  0
 23 25  1  0  0  0  0
 25 26  1  0  0  0  0
 25 27  1  0  0  0  0
 25 28  1  0  0  0  0
M  END
$$$$

  -OEChem-02102214123D

 28 27  0     1  0  0  0  0  0999 V2000
   -2.6230   -4.2454    0.4341 H   0  0  0  0  0  0  0  0  0  0  0  0
   -2.6561   -3.2654   -0.0507 C   0  0  0  0  0  0  0  0  0  0  0  0
   -3.4444   -2.6698    0.4155 H   0  0  0  0  0  0  0  0  0  0  0  0
   -2.8902   -3.4053   -1.1088 H   0  0  0  0  0  0  0  0  0  0  0  0
   -1.3181   -2.5656    0.0962 C   0  0  0  0  0  0  0  0  0  0  0  0
   -0.4029   -3.1200    0.6762 O   0  0  0  0  0  0  0  0  0  0  0  0
   -1.1464   -1.2979   -0.4241 N   0  0  0  0  0  0  0  0  0  0  0  0
   -1.9256   -0.9086   -0.9448 H   0  0  0  0  0  0  0  0  0  0  0  0
    0.1391   -0.5688   -0.4361 C   0  0  1  0  0  0  0  0  0  0  0  0
    0.8527   -1.2196   -0.9548 H   0  0  0  0  0  0  0  0  0  0  0  0
    0.0746    0.7565   -1.2391 C   0  0  0  0  0  0  0  0  0  0  0  0
    0.0904    1.6100   -0.5514 H   0  0  0  0  0  0  0  0  0  0  0  0
    0.9979    0.8152   -1.8275 H   0  0  0  0  0  0  0  0  0  0  0  0
   -1.1456    0.9289   -2.1778 C   0  0  0  0  0  0  0  0  0  0  0  0
   -1.4499   -0.0423   -2.5760 H   0  0  0  0  0  0  0  0  0  0  0  0
   -1.9901    1.3555   -1.6302 H   0  0  0  0  0  0  0  0  0  0  0  0
   -0.8326    1.7951   -3.3972 C   0  0  0  0  0  0  0  0  0  0  0  0
   -0.1469    2.7929   -3.2557 O   0  0  0  0  0  0  0  0  0  0  0  0
   -1.3558    1.4104   -4.5839 O   0  0  0  0  0  0  0  0  0  0  0  0
   -1.0562    2.0685   -5.2305 H   0  0  0  0  0  0  0  0  0  0  0  0
    0.7520   -0.3099    0.9594 C   0  0  0  0  0  0  0  0  0  0  0  0
    1.9679   -0.2623    1.0861 O   0  0  0  0  0  0  0  0  0  0  0  0
   -0.0474    0.1436    1.9932 N   0  0  0  0  0  0  0  0  0  0  0  0
   -1.0466    0.0129    1.8774 H   0  0  0  0  0  0  0  0  0  0  0  0
    0.4746    0.4402    3.3218 C   0  0  0  0  0  0  0  0  0  0  0  0
    1.2261    1.2352    3.2700 H   0  0  0  0  0  0  0  0  0  0  0  0
   -0.3325    0.7731    3.9811 H   0  0  0  0  0  0  0  0  0  0  0  0
    0.9356   -0.4516    3.7592 H   0  0  0  0  0  0  0  0  0  0  0  0
  1  2  1  0  0  0  0
  2  3  1  0  0  0  0
  2  4  1  0  0  0  0
  2  5  1  0  0  0  0
  5  6  2  0  0  0  0
  5  7  1  0  0  0  0
  7  8  1  0  0  0  0
  7  9  1  0  0  0  0
  9 10  1  0  0  0  0
  9 11  1  0  0  0  0
  9 21  1  0  0  0  0
 11 12  1  0  0  0  0
 11 13  1  0  0  0  0
 11 14  1  0  0  0  0
 14 15  1  0  0  0  0
 14 16  1  0  0  0  0
 14 17  1  0  0  0  0
 17 18  2  0  0  0  0
 17 19  1  0  0  0  0
 19 20  1  0  0  0  0
 21 22  2  0  0  0  0
 21 23  1  0  0  0  0
 23 24  1  0  0  0  0
 23 25  1  0  0  0  0
 25 26  1  0  0  0  0
 25 27  1  0  0  0  0
 25 28  1  0  0  0  0
M  END
$$$$

  -OEChem-02102214123D

 28 27  0     1  0  0  0  0  0999 V2000
   -2.6428   -4.2454    0.4605 H   0  0  0  0  0  0  0  0  0  0  0  0
   -2.6855   -3.2632   -0.0189 C   0  0  0  0  0  0  0  0  0  0  0  0
   -3.4592   -2.6669    0.4704 H   0  0  0  0  0  0  0  0  0  0  0  0
   -2.9474   -3.3974   -1.0713 H   0  0  0  0  0  0  0  0  0  0  0  0
   -1.3422   -2.5680    0.0965 C   0  0  0  0  0  0  0  0  0  0  0  0
   -0.4126   -3.1281    0.6478 O   0  0  0  0  0  0  0  0  0  0  0  0
   -1.1836   -1.2959   -0.4171 N   0  0  0  0  0  0  0  0  0  0  0  0
   -1.9805   -0.8972   -0.9023 H   0  0  0  0  0  0  0  0  0  0  0  0
    0.1000   -0.5653   -0.4536 C   0  0  1  0  0  0  0  0  0  0  0  0
    0.8000   -1.2184   -0.9875 H   0  0  0  0  0  0  0  0  0  0  0  0
    0.0408    0.7643   -1.2537 C   0  0  0  0  0  0  0  0  0  0  0  0
    0.0683    1.6084   -0.5550 H   0  0  0  0  0  0  0  0  0  0  0  0
    0.9674    0.8234   -1.8368 H   0  0  0  0  0  0  0  0  0  0  0  0
   -1.1776    0.9827   -2.1901 C   0  0  0  0  0  0  0  0  0  0  0  0
   -1.6992    0.0476   -2.3979 H   0  0  0  0  0  0  0  0  0  0  0  0
   -1.8915    1.6684   -1.7251 H   0  0  0  0  0  0  0  0  0  0  0  0
   -0.7512    1.5301   -3.5494 C   0  0  0  0  0  0  0  0  0  0  0  0
   -0.2174    2.6245   -3.5938 O   0  0  0  0  0  0  0  0  0  0  0  0
   -0.9851    0.7651   -4.6406 O   0  0  0  0  0  0  0  0  0  0  0  0
   -0.6358    1.2657   -5.3944 H   0  0  0  0  0  0  0  0  0  0  0  0
    0.7429   -0.3185    0.9305 C   0  0  0  0  0  0  0  0  0  0  0  0
    1.9611   -0.2620    1.0288 O   0  0  0  0  0  0  0  0  0  0  0  0
   -0.0346    0.1244    1.9851 N   0  0  0  0  0  0  0  0  0  0  0  0
   -1.0349   -0.0161    1.8933 H   0  0  0  0  0  0  0  0  0  0  0  0
    0.5175    0.4137    3.3029 C   0  0  0  0  0  0  0  0  0  0  0  0
    1.2615    1.2150    3.2393 H   0  0  0  0  0  0  0  0  0  0  0  0
   -0.2756    0.7346    3.9849 H   0  0  0  0  0  0  0  0  0  0  0  0
    0.9960   -0.4783    3.7214 H   0  0  0  0  0  0  0  0  0  0  0  0
  1  2  1  0  0  0  0
  2  3  1  0  0  0  0
  2  4  1  0  0  0  0
  2  5  1  0  0  0  0
  5  6  2  0  0  0  0
  5  7  1  0  0  0  0
  7  8  1  0  0  0  0
  7  9  1  0  0  0  0
  9 10  1  0  0  0  0
  9 11  1  0  0  0  0
  9 21  1  0  0  0  0
 11 12  1  0  0  0  0
 11 13  1  0  0  0  0
 11 14  1  0  0  0  0
 14 15  1  0  0  0  0
 14 16  1  0  0  0  0
 14 17  1  0  0  0  0
 17 18  2  0  0  0  0
 17 19  1  0  0  0  0
 19 20  1  0  0  0  0
 21 22  2  0  0  0  0
 21 23  1  0  0  0  0
 23 24  1  0  0  0  0
 23 25  1  0  0  0  0
 25 26  1  0  0  0  0
 25 27  1  0  0  0  0
 25 28  1  0  0  0  0
M  END
$$$$

  -OEChem-02102214123D

 28 27  0     1  0  0  0  0  0999 V2000
   -2.6799   -4.2295    0.4607 H   0  0  0  0  0  0  0  0  0  0  0  0
   -2.7139   -3.2518   -0.0285 C   0  0  0  0  0  0  0  0  0  0  0  0
   -3.4994   -2.6528    0.4380 H   0  0  0  0  0  0  0  0  0  0  0  0
   -2.9522   -3.3963   -1.0851 H   0  0  0  0  0  0  0  0  0  0  0  0
   -1.3748   -2.5527    0.1093 C   0  0  0  0  0  0  0  0  0  0  0  0
   -0.4543   -3.1082    0.6802 O   0  0  0  0  0  0  0  0  0  0  0  0
   -1.2114   -1.2827   -0.4077 N   0  0  0  0  0  0  0  0  0  0  0  0
   -1.9949   -0.9047   -0.9288 H   0  0  0  0  0  0  0  0  0  0  0  0
    0.0795   -0.5658   -0.4598 C   0  0  1  0  0  0  0  0  0  0  0  0
    0.7651   -1.2316   -0.9971 H   0  0  0  0  0  0  0  0  0  0  0  0
    0.0454    0.7637   -1.2643 C   0  0  0  0  0  0  0  0  0  0  0  0
    0.0688    1.5953   -0.5507 H   0  0  0  0  0  0  0  0  0  0  0  0
    0.9814    0.8312   -1.8314 H   0  0  0  0  0  0  0  0  0  0  0  0
   -1.1630    1.0264   -2.2041 C   0  0  0  0  0  0  0  0  0  0  0  0
   -1.9028    0.2279   -2.1903 H   0  0  0  0  0  0  0  0  0  0  0  0
   -1.6737    1.9406   -1.8868 H   0  0  0  0  0  0  0  0  0  0  0  0
   -0.7112    1.2010   -3.6496 C   0  0  0  0  0  0  0  0  0  0  0  0
   -0.2315    2.2693   -3.9854 O   0  0  0  0  0  0  0  0  0  0  0  0
   -0.8617    0.1485   -4.4862 O   0  0  0  0  0  0  0  0  0  0  0  0
   -0.5089    0.4378   -5.3422 H   0  0  0  0  0  0  0  0  0  0  0  0
    0.7381   -0.3269    0.9188 C   0  0  0  0  0  0  0  0  0  0  0  0
    1.9578   -0.2795    1.0051 O   0  0  0  0  0  0  0  0  0  0  0  0
   -0.0258    0.1234    1.9801 N   0  0  0  0  0  0  0  0  0  0  0  0
   -1.0266   -0.0208    1.8989 H   0  0  0  0  0  0  0  0  0  0  0  0
    0.5397    0.3896    3.2973 C   0  0  0  0  0  0  0  0  0  0  0  0
    1.2968    1.1787    3.2375 H   0  0  0  0  0  0  0  0  0  0  0  0
   -0.2438    0.7166    3.9875 H   0  0  0  0  0  0  0  0  0  0  0  0
    1.0057   -0.5147    3.7032 H   0  0  0  0  0  0  0  0  0  0  0  0
  1  2  1  0  0  0  0
  2  3  1  0  0  0  0
  2  4  1  0  0  0  0
  2  5  1  0  0  0  0
  5  6  2  0  0  0  0
  5  7  1  0  0  0  0
  7  8  1  0  0  0  0
  7  9  1  0  0  0  0
  9 10  1  0  0  0  0
  9 11  1  0  0  0  0
  9 21  1  0  0  0  0
 11 12  1  0  0  0  0
 11 13  1  0  0  0  0
 11 14  1  0  0  0  0
 14 15  1  0  0  0  0
 14 16  1  0  0  0  0
 14 17  1  0  0  0  0
 17 18  2  0  0  0  0
 17 19  1  0  0  0  0
 19 20  1  0  0  0  0
 21 22  2  0  0  0  0
 21 23  1  0  0  0  0
 23 24  1  0  0  0  0
 23 25  1  0  0  0  0
 25 26  1  0  0  0  0
 25 27  1  0  0  0  0
 25 28  1  0  0  0  0
M  END
$$$$

  -OEChem-02102214123D

 28 27  0     1  0  0  0  0  0999 V2000
   -2.7450   -4.1880    0.4356 H   0  0  0  0  0  0  0  0  0  0  0  0
   -2.7354   -3.2363   -0.1036 C   0  0  0  0  0  0  0  0  0  0  0  0
   -3.5684   -2.6241    0.2498 H   0  0  0  0  0  0  0  0  0  0  0  0
   -2.8639   -3.4358   -1.1703 H   0  0  0  0  0  0  0  0  0  0  0  0
   -1.4222   -2.5152    0.1338 C   0  0  0  0  0  0  0  0  0  0  0  0
   -0.5509   -3.0446    0.7990 O   0  0  0  0  0  0  0  0  0  0  0  0
   -1.2298   -1.2568   -0.4024 N   0  0  0  0  0  0  0  0  0  0  0  0
   -1.9371   -0.9590   -1.0653 H   0  0  0  0  0  0  0  0  0  0  0  0
    0.0827   -0.5797   -0.4542 C   0  0  1  0  0  0  0  0  0  0  0  0
    0.7530   -1.2655   -0.9852 H   0  0  0  0  0  0  0  0  0  0  0  0
    0.0840    0.7511   -1.2588 C   0  0  0  0  0  0  0  0  0  0  0  0
    0.1121    1.5736   -0.5348 H   0  0  0  0  0  0  0  0  0  0  0  0
    1.0221    0.8166   -1.8227 H   0  0  0  0  0  0  0  0  0  0  0  0
   -1.1198    1.0439   -2.1912 C   0  0  0  0  0  0  0  0  0  0  0  0
   -2.0138    0.4690   -1.9555 H   0  0  0  0  0  0  0  0  0  0  0  0
   -1.3960    2.0963   -2.0712 H   0  0  0  0  0  0  0  0  0  0  0  0
   -0.7468    0.8358   -3.6533 C   0  0  0  0  0  0  0  0  0  0  0  0
   -0.3119    1.7778   -4.2916 O   0  0  0  0  0  0  0  0  0  0  0  0
   -0.9185   -0.4048   -4.1649 O   0  0  0  0  0  0  0  0  0  0  0  0
   -0.6153   -0.3544   -5.0852 H   0  0  0  0  0  0  0  0  0  0  0  0
    0.7388   -0.3421    0.9262 C   0  0  0  0  0  0  0  0  0  0  0  0
    1.9590   -0.3266    1.0185 O   0  0  0  0  0  0  0  0  0  0  0  0
   -0.0197    0.1452    1.9749 N   0  0  0  0  0  0  0  0  0  0  0  0
   -1.0221    0.0118    1.8902 H   0  0  0  0  0  0  0  0  0  0  0  0
    0.5422    0.3973    3.2959 C   0  0  0  0  0  0  0  0  0  0  0  0
    1.3276    1.1585    3.2404 H   0  0  0  0  0  0  0  0  0  0  0  0
   -0.2360    0.7552    3.9766 H   0  0  0  0  0  0  0  0  0  0  0  0
    0.9710   -0.5216    3.7096 H   0  0  0  0  0  0  0  0  0  0  0  0
  1  2  1  0  0  0  0
  2  3  1  0  0  0  0
  2  4  1  0  0  0  0
  2  5  1  0  0  0  0
  5  6  2  0  0  0  0
  5  7  1  0  0  0  0
  7  8  1  0  0  0  0
  7  9  1  0  0  0  0
  9 10  1  0  0  0  0
  9 11  1  0  0  0  0
  9 21  1  0  0  0  0
 11 12  1  0  0  0  0
 11 13  1  0  0  0  0
 11 14  1  0  0  0  0
 14 15  1  0  0  0  0
 14 16  1  0  0  0  0
 14 17  1  0  0  0  0
 17 18  2  0  0  0  0
 17 19  1  0  0  0  0
 19 20  1  0  0  0  0
 21 22  2  0  0  0  0
 21 23  1  0  0  0  0
 23 24  1  0  0  0  0
 23 25  1  0  0  0  0
 25 26  1  0  0  0  0
 25 27  1  0  0  0  0
 25 28  1  0  0  0  0
M  END
$$$$

  -OEChem-02102214123D

 28 27  0     1  0  0  0  0  0999 V2000
   -2.7638   -4.1688    0.3460 H   0  0  0  0  0  0  0  0  0  0  0  0
   -2.7310   -3.2141   -0.1867 C   0  0  0  0  0  0  0  0  0  0  0  0
   -3.5857   -2.6089    0.1243 H   0  0  0  0  0  0  0  0  0  0  0  0
   -2.8009   -3.4080   -1.2597 H   0  0  0  0  0  0  0  0  0  0  0  0
   -1.4371   -2.4864    0.1255 C   0  0  0  0  0  0  0  0  0  0  0  0
   -0.6129   -3.0030    0.8577 O   0  0  0  0  0  0  0  0  0  0  0  0
   -1.2106   -1.2374   -0.4187 N   0  0  0  0  0  0  0  0  0  0  0  0
   -1.8559   -0.9807   -1.1600 H   0  0  0  0  0  0  0  0  0  0  0  0
    0.1166   -0.5878   -0.4408 C   0  0  1  0  0  0  0  0  0  0  0  0
    0.7895   -1.2833   -0.9553 H   0  0  0  0  0  0  0  0  0  0  0  0
    0.1376    0.7413   -1.2462 C   0  0  0  0  0  0  0  0  0  0  0  0
    0.1591    1.5676   -0.5264 H   0  0  0  0  0  0  0  0  0  0  0  0
    1.0760    0.8029   -1.8098 H   0  0  0  0  0  0  0  0  0  0  0  0
   -1.0631    1.0150   -2.1816 C   0  0  0  0  0  0  0  0  0  0  0  0
   -2.0142    0.6630   -1.7798 H   0  0  0  0  0  0  0  0  0  0  0  0
   -1.1656    2.0993   -2.2888 H   0  0  0  0  0  0  0  0  0  0  0  0
   -0.8198    0.4521   -3.5747 C   0  0  0  0  0  0  0  0  0  0  0  0
   -0.2295    1.1292   -4.3971 O   0  0  0  0  0  0  0  0  0  0  0  0
   -1.2752   -0.7995   -3.8159 O   0  0  0  0  0  0  0  0  0  0  0  0
   -1.0191   -0.9978   -4.7311 H   0  0  0  0  0  0  0  0  0  0  0  0
    0.7445   -0.3478    0.9525 C   0  0  0  0  0  0  0  0  0  0  0  0
    1.9624   -0.3567    1.0732 O   0  0  0  0  0  0  0  0  0  0  0  0
   -0.0287    0.1667    1.9772 N   0  0  0  0  0  0  0  0  0  0  0  0
   -1.0307    0.0460    1.8709 H   0  0  0  0  0  0  0  0  0  0  0  0
    0.5057    0.4239    3.3088 C   0  0  0  0  0  0  0  0  0  0  0  0
    1.3297    1.1437    3.2602 H   0  0  0  0  0  0  0  0  0  0  0  0
   -0.2735    0.8375    3.9559 H   0  0  0  0  0  0  0  0  0  0  0  0
    0.8753   -0.5042    3.7577 H   0  0  0  0  0  0  0  0  0  0  0  0
  1  2  1  0  0  0  0
  2  3  1  0  0  0  0
  2  4  1  0  0  0  0
  2  5  1  0  0  0  0
  5  6  2  0  0  0  0
  5  7  1  0  0  0  0
  7  8  1  0  0  0  0
  7  9  1  0  0  0  0
  9 10  1  0  0  0  0
  9 11  1  0  0  0  0
  9 21  1  0  0  0  0
 11 12  1  0  0  0  0
 11 13  1  0  0  0  0
 11 14  1  0  0  0  0
 14 15  1  0  0  0  0
 14 16  1  0  0  0  0
 14 17  1  0  0  0  0
 17 18  2  0  0  0  0
 17 19  1  0  0  0  0
 19 20  1  0  0  0  0
 21 22  2  0  0  0  0
 21 23  1  0  0  0  0
 23 24  1  0  0  0  0
 23 25  1  0  0  0  0
 25 26  1  0  0  0  0
 25 27  1  0  0  0  0
 25 28  1  0  0  0  0
M  END
$$$$

  -OEChem-02102214123D

 28 27  0     1  0  0  0  0  0999 V2000
   -2.7606   -4.1663    0.2756 H   0  0  0  0  0  0  0  0  0  0  0  0
   -2.7229   -3.1978   -0.2312 C   0  0  0  0  0  0  0  0  0  0  0  0
   -3.5826   -2.6017    0.0840 H   0  0  0  0  0  0  0  0  0  0  0  0
   -2.7782   -3.3633   -1.3099 H   0  0  0  0  0  0  0  0  0  0  0  0
   -1.4352   -2.4757    0.1169 C   0  0  0  0  0  0  0  0  0  0  0  0
   -0.6377   -2.9901    0.8797 O   0  0  0  0  0  0  0  0  0  0  0  0
   -1.1848   -1.2341   -0.4329 N   0  0  0  0  0  0  0  0  0  0  0  0
   -1.7992   -0.9942   -1.2084 H   0  0  0  0  0  0  0  0  0  0  0  0
    0.1486   -0.5958   -0.4291 C   0  0  1  0  0  0  0  0  0  0  0  0
    0.8301   -1.2964   -0.9253 H   0  0  0  0  0  0  0  0  0  0  0  0
    0.1818    0.7290   -1.2397 C   0  0  0  0  0  0  0  0  0  0  0  0
    0.2036    1.5662   -0.5329 H   0  0  0  0  0  0  0  0  0  0  0  0
    1.1198    0.7752   -1.8051 H   0  0  0  0  0  0  0  0  0  0  0  0
   -1.0109    0.9796   -2.1870 C   0  0  0  0  0  0  0  0  0  0  0  0
   -1.9681    0.8369   -1.6797 H   0  0  0  0  0  0  0  0  0  0  0  0
   -0.9827    2.0255   -2.5075 H   0  0  0  0  0  0  0  0  0  0  0  0
   -0.9313    0.1148   -3.4378 C   0  0  0  0  0  0  0  0  0  0  0  0
   -0.2324    0.4764   -4.3667 O   0  0  0  0  0  0  0  0  0  0  0  0
   -1.6460   -1.0362   -3.4359 O   0  0  0  0  0  0  0  0  0  0  0  0
   -1.4663   -1.4511   -4.2958 H   0  0  0  0  0  0  0  0  0  0  0  0
    0.7462   -0.3478    0.9753 C   0  0  0  0  0  0  0  0  0  0  0  0
    1.9610   -0.3622    1.1232 O   0  0  0  0  0  0  0  0  0  0  0  0
   -0.0461    0.1829    1.9766 N   0  0  0  0  0  0  0  0  0  0  0  0
   -1.0465    0.0690    1.8483 H   0  0  0  0  0  0  0  0  0  0  0  0
    0.4599    0.4435    3.3183 C   0  0  0  0  0  0  0  0  0  0  0  0
    1.2763    1.1727    3.2853 H   0  0  0  0  0  0  0  0  0  0  0  0
   -0.3361    0.8463    3.9517 H   0  0  0  0  0  0  0  0  0  0  0  0
    0.8318   -0.4812    3.7723 H   0  0  0  0  0  0  0  0  0  0  0  0
  1  2  1  0  0  0  0
  2  3  1  0  0  0  0
  2  4  1  0  0  0  0
  2  5  1  0  0  0  0
  5  6  2  0  0  0  0
  5  7  1  0  0  0  0
  7  8  1  0  0  0  0
  7  9  1  0  0  0  0
  9 10  1  0  0  0  0
  9 11  1  0  0  0  0
  9 21  1  0  0  0  0
 11 12  1  0  0  0  0
 11 13  1  0  0  0  0
 11 14  1  0  0  0  0
 14 15  1  0  0  0  0
 14 16  1  0  0  0  0
 14 17  1  0  0  0  0
 17 18  2  0  0  0  0
 17 19  1  0  0  0  0
 19 20  1  0  0  0  0
 21 22  2  0  0  0  0
 21 23  1  0  0  0  0
 23 24  1  0  0  0  0
 23 25  1  0  0  0  0
 25 26  1  0  0  0  0
 25 27  1  0  0  0  0
 25 28  1  0  0  0  0
M  END
$$$$

  -OEChem-02102214123D

 28 27  0     1  0  0  0  0  0999 V2000
   -2.7198   -4.1980    0.3031 H   0  0  0  0  0  0  0  0  0  0  0  0
   -2.6992   -3.2184   -0.1829 C   0  0  0  0  0  0  0  0  0  0  0  0
   -3.5397   -2.6250    0.1847 H   0  0  0  0  0  0  0  0  0  0  0  0
   -2.8050   -3.3588   -1.2612 H   0  0  0  0  0  0  0  0  0  0  0  0
   -1.3922   -2.5115    0.1222 C   0  0  0  0  0  0  0  0  0  0  0  0
   -0.5755   -3.0353    0.8576 O   0  0  0  0  0  0  0  0  0  0  0  0
   -1.1445   -1.2720   -0.4331 N   0  0  0  0  0  0  0  0  0  0  0  0
   -1.7980   -0.9947   -1.1641 H   0  0  0  0  0  0  0  0  0  0  0  0
    0.1789   -0.6122   -0.4159 C   0  0  1  0  0  0  0  0  0  0  0  0
    0.8785   -1.3093   -0.8917 H   0  0  0  0  0  0  0  0  0  0  0  0
    0.2119    0.7026   -1.2424 C   0  0  0  0  0  0  0  0  0  0  0  0
    0.2289    1.5535   -0.5520 H   0  0  0  0  0  0  0  0  0  0  0  0
    1.1566    0.7318   -1.7977 H   0  0  0  0  0  0  0  0  0  0  0  0
   -0.9555    0.9427   -2.2242 C   0  0  0  0  0  0  0  0  0  0  0  0
   -1.8972    1.0144   -1.6732 H   0  0  0  0  0  0  0  0  0  0  0  0
   -0.8048    1.9026   -2.7270 H   0  0  0  0  0  0  0  0  0  0  0  0
   -1.0742   -0.1401   -3.2926 C   0  0  0  0  0  0  0  0  0  0  0  0
   -0.2481   -0.1736   -4.1859 O   0  0  0  0  0  0  0  0  0  0  0  0
   -2.0945   -1.0250   -3.1804 O   0  0  0  0  0  0  0  0  0  0  0  0
   -2.0100   -1.6090   -3.9528 H   0  0  0  0  0  0  0  0  0  0  0  0
    0.7462   -0.3436    0.9972 C   0  0  0  0  0  0  0  0  0  0  0  0
    1.9576   -0.3367    1.1705 O   0  0  0  0  0  0  0  0  0  0  0  0
   -0.0751    0.1824    1.9776 N   0  0  0  0  0  0  0  0  0  0  0  0
   -1.0710    0.0558    1.8288 H   0  0  0  0  0  0  0  0  0  0  0  0
    0.3989    0.4717    3.3252 C   0  0  0  0  0  0  0  0  0  0  0  0
    1.2030    1.2147    3.2981 H   0  0  0  0  0  0  0  0  0  0  0  0
   -0.4166    0.8700    3.9362 H   0  0  0  0  0  0  0  0  0  0  0  0
    0.7774   -0.4394    3.8008 H   0  0  0  0  0  0  0  0  0  0  0  0
  1  2  1  0  0  0  0
  2  3  1  0  0  0  0
  2  4  1  0  0  0  0
  2  5  1  0  0  0  0
  5  6  2  0  0  0  0
  5  7  1  0  0  0  0
  7  8  1  0  0  0  0
  7  9  1  0  0  0  0
  9 10  1  0  0  0  0
  9 11  1  0  0  0  0
  9 21  1  0  0  0  0
 11 12  1  0  0  0  0
 11 13  1  0  0  0  0
 11 14  1  0  0  0  0
 14 15  1  0  0  0  0
 14 16  1  0  0  0  0
 14 17  1  0  0  0  0
 17 18  2  0  0  0  0
 17 19  1  0  0  0  0
 19 20  1  0  0  0  0
 21 22  2  0  0  0  0
 21 23  1  0  0  0  0
 23 24  1  0  0  0  0
 23 25  1  0  0  0  0
 25 26  1  0  0  0  0
 25 27  1  0  0  0  0
 25 28  1  0  0  0  0
M  END
$$$$

  -OEChem-02102214123D

 28 27  0     1  0  0  0  0  0999 V2000
   -2.6696   -4.2472    0.4047 H   0  0  0  0  0  0  0  0  0  0  0  0
   -2.6661   -3.2704   -0.0876 C   0  0  0  0  0  0  0  0  0  0  0  0
   -3.4844   -2.6696    0.3157 H   0  0  0  0  0  0  0  0  0  0  0  0
   -2.8238   -3.4170   -1.1586 H   0  0  0  0  0  0  0  0  0  0  0  0
   -1.3419   -2.5701    0.1511 C   0  0  0  0  0  0  0  0  0  0  0  0
   -0.4910   -3.0980    0.8436 O   0  0  0  0  0  0  0  0  0  0  0  0
   -1.1150   -1.3309   -0.4133 N   0  0  0  0  0  0  0  0  0  0  0  0
   -1.8323   -0.9987   -1.0560 H   0  0  0  0  0  0  0  0  0  0  0  0
    0.1884   -0.6351   -0.3948 C   0  0  1  0  0  0  0  0  0  0  0  0
    0.9063   -1.3289   -0.8480 H   0  0  0  0  0  0  0  0  0  0  0  0
    0.2240    0.6629   -1.2491 C   0  0  0  0  0  0  0  0  0  0  0  0
    0.2383    1.5287   -0.5776 H   0  0  0  0  0  0  0  0  0  0  0  0
    1.1817    0.6683   -1.7819 H   0  0  0  0  0  0  0  0  0  0  0  0
   -0.8999    0.9135   -2.2832 C   0  0  0  0  0  0  0  0  0  0  0  0
   -1.8009    1.2294   -1.7497 H   0  0  0  0  0  0  0  0  0  0  0  0
   -0.6062    1.7405   -2.9364 H   0  0  0  0  0  0  0  0  0  0  0  0
   -1.2646   -0.2854   -3.1559 C   0  0  0  0  0  0  0  0  0  0  0  0
   -0.4690   -0.6492   -4.0018 O   0  0  0  0  0  0  0  0  0  0  0  0
   -2.4570   -0.8926   -2.9397 O   0  0  0  0  0  0  0  0  0  0  0  0
   -2.5185   -1.5810   -3.6233 H   0  0  0  0  0  0  0  0  0  0  0  0
    0.7350   -0.3362    1.0202 C   0  0  0  0  0  0  0  0  0  0  0  0
    1.9440   -0.2916    1.2044 O   0  0  0  0  0  0  0  0  0  0  0  0
   -0.1087    0.1773    1.9884 N   0  0  0  0  0  0  0  0  0  0  0  0
   -1.1008    0.0342    1.8307 H   0  0  0  0  0  0  0  0  0  0  0  0
    0.3469    0.5045    3.3337 C   0  0  0  0  0  0  0  0  0  0  0  0
    1.1339    1.2655    3.2979 H   0  0  0  0  0  0  0  0  0  0  0  0
   -0.4827    0.8963    3.9298 H   0  0  0  0  0  0  0  0  0  0  0  0
    0.7422   -0.3879    3.8305 H   0  0  0  0  0  0  0  0  0  0  0  0
  1  2  1  0  0  0  0
  2  3  1  0  0  0  0
  2  4  1  0  0  0  0
  2  5  1  0  0  0  0
  5  6  2  0  0  0  0
  5  7  1  0  0  0  0
  7  8  1  0  0  0  0
  7  9  1  0  0  0  0
  9 10  1  0  0  0  0
  9 11  1  0  0  0  0
  9 21  1  0  0  0  0
 11 12  1  0  0  0  0
 11 13  1  0  0  0  0
 11 14  1  0  0  0  0
 14 15  1  0  0  0  0
 14 16  1  0  0  0  0
 14 17  1  0  0  0  0
 17 18  2  0  0  0  0
 17 19  1  0  0  0  0
 19 20  1  0  0  0  0
 21 22  2  0  0  0  0
 21 23  1  0  0  0  0
 23 24  1  0  0  0  0
 23 25  1  0  0  0  0
 25 26  1  0  0  0  0
 25 27  1  0  0  0  0
 25 28  1  0  0  0  0
M  END
$$$$

  -OEChem-02102214123D

 28 27  0     1  0  0  0  0  0999 V2000
   -2.5956   -4.2965    0.5532 H   0  0  0  0  0  0  0  0  0  0  0  0
   -2.6171   -3.3292    0.0433 C   0  0  0  0  0  0  0  0  0  0  0  0
   -3.4067   -2.7160    0.4841 H   0  0  0  0  0  0  0  0  0  0  0  0
   -2.8389   -3.4940   -1.0138 H   0  0  0  0  0  0  0  0  0  0  0  0
   -1.2772   -2.6337    0.1887 C   0  0  0  0  0  0  0  0  0  0  0  0
   -0.3832   -3.1614    0.8245 O   0  0  0  0  0  0  0  0  0  0  0  0
   -1.0853   -1.3948   -0.3888 N   0  0  0  0  0  0  0  0  0  0  0  0
   -1.8660   -1.0161   -0.9225 H   0  0  0  0  0  0  0  0  0  0  0  0
    0.1927   -0.6572   -0.3800 C   0  0  1  0  0  0  0  0  0  0  0  0
    0.9298   -1.3438   -0.8136 H   0  0  0  0  0  0  0  0  0  0  0  0
    0.2236    0.6249   -1.2624 C   0  0  0  0  0  0  0  0  0  0  0  0
    0.2300    1.5011   -0.6042 H   0  0  0  0  0  0  0  0  0  0  0  0
    1.1942    0.6189   -1.7714 H   0  0  0  0  0  0  0  0  0  0  0  0
   -0.8591    0.8907   -2.3433 C   0  0  0  0  0  0  0  0  0  0  0  0
   -1.6700    1.4527   -1.8714 H   0  0  0  0  0  0  0  0  0  0  0  0
   -0.4330    1.5371   -3.1166 H   0  0  0  0  0  0  0  0  0  0  0  0
   -1.4974   -0.3167   -3.0248 C   0  0  0  0  0  0  0  0  0  0  0  0
   -0.8635   -0.8926   -3.8890 O   0  0  0  0  0  0  0  0  0  0  0  0
   -2.7429   -0.6884   -2.6390 O   0  0  0  0  0  0  0  0  0  0  0  0
   -2.9932   -1.4059   -3.2452 H   0  0  0  0  0  0  0  0  0  0  0  0
    0.7220   -0.3276    1.0348 C   0  0  0  0  0  0  0  0  0  0  0  0
    1.9276   -0.2412    1.2256 O   0  0  0  0  0  0  0  0  0  0  0  0
   -0.1431    0.1666    1.9941 N   0  0  0  0  0  0  0  0  0  0  0  0
   -1.1303   -0.0003    1.8296 H   0  0  0  0  0  0  0  0  0  0  0  0
    0.2932    0.5235    3.3385 C   0  0  0  0  0  0  0  0  0  0  0  0
    1.0651    1.2994    3.2987 H   0  0  0  0  0  0  0  0  0  0  0  0
   -0.5497    0.9073    3.9211 H   0  0  0  0  0  0  0  0  0  0  0  0
    0.7016   -0.3530    3.8528 H   0  0  0  0  0  0  0  0  0  0  0  0
  1  2  1  0  0  0  0
  2  3  1  0  0  0  0
  2  4  1  0  0  0  0
  2  5  1  0  0  0  0
  5  6  2  0  0  0  0
  5  7  1  0  0  0  0
  7  8  1  0  0  0  0
  7  9  1  0  0  0  0
  9 10  1  0  0  0  0
  9 11  1  0  0  0  0
  9 21  1  0  0  0  0
 11 12  1  0  0  0  0
 11 13  1  0  0  0  0
 11 14  1  0  0  0  0
 14 15  1  0  0  0  0
 14 16  1  0  0  0  0
 14 17  1  0  0  0  0
 17 18  2  0  0  0  0
 17 19  1  0  0  0  0
 19 20  1  0  0  0  0
 21 22  2  0  0  0  0
 21 23  1  0  0  0  0
 23 24  1  0  0  0  0
 23 25  1  0  0  0  0
 25 26  1  0  0  0  0
 25 27  1  0  0  0  0
 25 28  1  0  0  0  0
M  END
$$$$

  -OEChem-02102214123D

 28 27  0     1  0  0  0  0  0999 V2000
   -2.5198   -4.3417    0.6840 H   0  0  0  0  0  0  0  0  0  0  0  0
   -2.5663   -3.3866    0.1528 C   0  0  0  0  0  0  0  0  0  0  0  0
   -3.3370   -2.7645    0.6140 H   0  0  0  0  0  0  0  0  0  0  0  0
   -2.8344   -3.5771   -0.8891 H   0  0  0  0  0  0  0  0  0  0  0  0
   -1.2223   -2.6869    0.2202 C   0  0  0  0  0  0  0  0  0  0  0  0
   -0.2906   -3.2124    0.8018 O   0  0  0  0  0  0  0  0  0  0  0  0
   -1.0685   -1.4467   -0.3658 N   0  0  0  0  0  0  0  0  0  0  0  0
   -1.8969   -1.0358   -0.7922 H   0  0  0  0  0  0  0  0  0  0  0  0
    0.1864   -0.6740   -0.3709 C   0  0  1  0  0  0  0  0  0  0  0  0
    0.9365   -1.3513   -0.7965 H   0  0  0  0  0  0  0  0  0  0  0  0
    0.2054    0.5971   -1.2721 C   0  0  0  0  0  0  0  0  0  0  0  0
    0.1923    1.4748   -0.6159 H   0  0  0  0  0  0  0  0  0  0  0  0
    1.1870    0.6021   -1.7596 H   0  0  0  0  0  0  0  0  0  0  0  0
   -0.8527    0.8720   -2.3817 C   0  0  0  0  0  0  0  0  0  0  0  0
   -1.5193    1.6568   -2.0124 H   0  0  0  0  0  0  0  0  0  0  0  0
   -0.3358    1.2878   -3.2522 H   0  0  0  0  0  0  0  0  0  0  0  0
   -1.7541   -0.2593   -2.8682 C   0  0  0  0  0  0  0  0  0  0  0  0
   -1.3591   -0.9601   -3.7812 O   0  0  0  0  0  0  0  0  0  0  0  0
   -2.9621   -0.4210   -2.2734 O   0  0  0  0  0  0  0  0  0  0  0  0
   -3.4144   -1.1043   -2.7960 H   0  0  0  0  0  0  0  0  0  0  0  0
    0.7137   -0.3212    1.0389 C   0  0  0  0  0  0  0  0  0  0  0  0
    1.9172   -0.2006    1.2229 O   0  0  0  0  0  0  0  0  0  0  0  0
   -0.1588    0.1541    2.0013 N   0  0  0  0  0  0  0  0  0  0  0  0
   -1.1438   -0.0277    1.8406 H   0  0  0  0  0  0  0  0  0  0  0  0
    0.2757    0.5387    3.3387 C   0  0  0  0  0  0  0  0  0  0  0  0
    1.0174    1.3427    3.2857 H   0  0  0  0  0  0  0  0  0  0  0  0
   -0.5758    0.8955    3.9259 H   0  0  0  0  0  0  0  0  0  0  0  0
    0.7215   -0.3176    3.8560 H   0  0  0  0  0  0  0  0  0  0  0  0
  1  2  1  0  0  0  0
  2  3  1  0  0  0  0
  2  4  1  0  0  0  0
  2  5  1  0  0  0  0
  5  6  2  0  0  0  0
  5  7  1  0  0  0  0
  7  8  1  0  0  0  0
  7  9  1  0  0  0  0
  9 10  1  0  0  0  0
  9 11  1  0  0  0  0
  9 21  1  0  0  0  0
 11 12  1  0  0  0  0
 11 13  1  0  0  0  0
 11 14  1  0  0  0  0
 14 15  1  0  0  0  0
 14 16  1  0  0  0  0
 14 17  1  0  0  0  0
 17 18  2  0  0  0  0
 17 19  1  0  0  0  0
 19 20  1  0  0  0  0
 21 22  2  0  0  0  0
 21 23  1  0  0  0  0
 23 24  1  0  0  0  0
 23 25  1  0  0  0  0
 25 26  1  0  0  0  0
 25 27  1  0  0  0  0
 25 28  1  0  0  0  0
M  END
$$$$

  -OEChem-02102214123D

 28 27  0     1  0  0  0  0  0999 V2000
   -2.5762   -4.0136    0.4456 H   0  0  0  0  0  0  0  0  0  0  0  0
   -2.3778   -2.9002    0.1103 C   0  0  0  0  0  0  0  0  0  0  0  0
   -3.2631   -2.3793    0.4772 H   0  0  0  0  0  0  0  0  0  0  0  0
   -2.8001   -3.1170   -1.0550 H   0  0  0  0  0  0  0  0  0  0  0  0
   -0.8099   -1.5602    0.9930 C   0  0  0  0  0  0  0  0  0  0  0  0
   -0.3199   -3.0002    0.6638 O   0  0  0  0  0  0  0  0  0  0  0  0
    1.2543   -0.7499    1.8786 N   0  0  0  0  0  0  0  0  0  0  0  0
   -0.4353   -0.3707    1.0887 H   0  0  0  0  0  0  0  0  0  0  0  0
    2.0324   -0.4418    0.0727 C   0  0  1  0  0  0  0  0  0  0  0  0
    1.1355   -1.2494   -0.9339 H   0  0  0  0  0  0  0  0  0  0  0  0
    0.4884    0.5332   -1.3887 C   0  0  0  0  0  0  0  0  0  0  0  0
    0.1998    1.5048   -0.6319 H   0  0  0  0  0  0  0  0  0  0  0  0
    1.1316    0.9029   -1.9996 H   0  0  0  0  0  0  0  0  0  0  0  0
   -1.4674    0.7131   -2.4975 C   0  0  0  0  0  0  0  0  0  0  0  0
   -1.7346    1.7125   -1.8256 H   0  0  0  0  0  0  0  0  0  0  0  0
   -0.8262    0.9386   -3.1211 H   0  0  0  0  0  0  0  0  0  0  0  0
   -3.1807   -1.4105   -3.7797 C   0  0  0  0  0  0  0  0  0  0  0  0
   -3.9242   -1.9973   -5.1952 O   0  0  0  0  0  0  0  0  0  0  0  0
   -3.2579   -0.4190   -2.5753 O   0  0  0  0  0  0  0  0  0  0  0  0
   -3.5544   -1.2696   -2.4266 H   0  0  0  0  0  0  0  0  0  0  0  0
    0.9671   -0.5209    1.0694 C   0  0  0  0  0  0  0  0  0  0  0  0
    2.2275   -0.4402    0.1433 O   0  0  0  0  0  0  0  0  0  0  0  0
   -0.7228   -0.6460    2.6501 N   0  0  0  0  0  0  0  0  0  0  0  0
   -0.9745    0.2137    1.6678 H   0  0  0  0  0  0  0  0  0  0  0  0
   -0.2170    0.5194    3.3292 C   0  0  0  0  0  0  0  0  0  0  0  0
    0.9077    1.1546    3.3585 H   0  0  0  0  0  0  0  0  0  0  0  0
   -0.7591    0.8359    3.8344 H   0  0  0  0  0  0  0  0  0  0  0  0
   -0.5256   -0.6794    3.8010 H   0  0  0  0  0  0  0  0  0  0  0  0
  1  2  1  0  0  0  0
  2  3  1  0  0  0  0
  2  4  1  0  0  0  0
  2  5  1  0  0  0  0
  5  6  2  0  0  0  0
  5  7  1  0  0  0  0
  7  8  1  0  0  0  0
  7  9  1  0  0  0  0
  9 10  1  0  0  0  0
  9 11  1  0  0  0  0
  9 21  1  0  0  0  0
 11 12  1  0  0  0  0
 11 13  1  0  0  0  0
 11 14  1  0  0  0  0
 14 15  1  0  0  0  0
 14 16  1  0  0  0  0
 14 17  1  0  0  0  0
 17 18  2  0  0  0  0
 17 19  1  0  0  0  0
 19 20  1  0  0  0  0
 21 22  2  0  0  0  0
 21 23  1  0  0  0  0
 23 24  1  0  0  0  0
 23 25  1  0  0  0  0
 25 26  1  0  0  0  0
 25 27  1  0  0  0  0
 25 28  1  0  0  0  0
M  END
$$$$

  -OEChem-02102214123D

 28 27  0     1  0  0  0  0  0999 V2000
   -2.2135   -4.3397    1.2506 H   0  0  0  0  0  0  0  0  0  0  0  0
   -2.3626   -3.4548    0.6254 C   0  0  0  0  0  0  0  0  0  0  0  0
   -3.1084   -2.8116    1.0980 H   0  0  0  0  0  0  0  0  0  0  0  0
   -2.7313   -3.7737   -0.3528 H   0  0  0  0  0  0  0  0  0  0  0  0
   -1.0542   -2.7049    0.4638 C   0  0  0  0  0  0  0  0  0  0  0  0
   -0.0373   -3.1349    0.9771 O   0  0  0  0  0  0  0  0  0  0  0  0
   -1.0288   -1.5262   -0.2536 N   0  0  0  0  0  0  0  0  0  0  0  0
   -1.9301   -1.1516   -0.5378 H   0  0  0  0  0  0  0  0  0  0  0  0
    0.1583   -0.6686   -0.4026 C   0  0  1  0  0  0  0  0  0  0  0  0
    0.9391   -1.3370   -0.7849 H   0  0  0  0  0  0  0  0  0  0  0  0
    0.0652    0.4863   -1.4463 C   0  0  0  0  0  0  0  0  0  0  0  0
   -0.0504    1.4084   -0.8655 H   0  0  0  0  0  0  0  0  0  0  0  0
    1.0428    0.5622   -1.9355 H   0  0  0  0  0  0  0  0  0  0  0  0
   -1.0319    0.5766   -2.5515 C   0  0  0  0  0  0  0  0  0  0  0  0
   -1.3528    1.6194   -2.6264 H   0  0  0  0  0  0  0  0  0  0  0  0
   -0.5432    0.3327   -3.5004 H   0  0  0  0  0  0  0  0  0  0  0  0
   -2.2942   -0.2786   -2.4820 C   0  0  0  0  0  0  0  0  0  0  0  0
   -2.4767   -1.1228   -3.3398 O   0  0  0  0  0  0  0  0  0  0  0  0
   -3.1772   -0.0342   -1.4824 O   0  0  0  0  0  0  0  0  0  0  0  0
   -3.9641   -0.5627   -1.6965 H   0  0  0  0  0  0  0  0  0  0  0  0
    0.7168   -0.1306    0.9352 C   0  0  0  0  0  0  0  0  0  0  0  0
    1.9151    0.0895    1.0478 O   0  0  0  0  0  0  0  0  0  0  0  0
   -0.1462    0.3784    1.8889 N   0  0  0  0  0  0  0  0  0  0  0  0
   -1.1276    0.1449    1.7834 H   0  0  0  0  0  0  0  0  0  0  0  0
    0.3135    0.9483    3.1494 C   0  0  0  0  0  0  0  0  0  0  0  0
    0.9649    1.8095    2.9662 H   0  0  0  0  0  0  0  0  0  0  0  0
   -0.5391    1.2830    3.7481 H   0  0  0  0  0  0  0  0  0  0  0  0
    0.8714    0.2019    3.7249 H   0  0  0  0  0  0  0  0  0  0  0  0
  1  2  1  0  0  0  0
  2  3  1  0  0  0  0
  2  4  1  0  0  0  0
  2  5  1  0  0  0  0
  5  6  2  0  0  0  0
  5  7  1  0  0  0  0
  7  8  1  0  0  0  0
  7  9  1  0  0  0  0
  9 10  1  0  0  0  0
  9 11  1  0  0  0  0
  9 21  1  0  0  0  0
 11 12  1  0  0  0  0
 11 13  1  0  0  0  0
 11 14  1  0  0  0  0
 14 15  1  0  0  0  0
 14 16  1  0  0  0  0
 14 17  1  0  0  0  0
 17 18  2  0  0  0  0
 17 19  1  0  0  0  0
 19 20  1  0  0  0  0
 21 22  2  0  0  0  0
 21 23  1  0  0  0  0
 23 24  1  0  0  0  0
 23 25  1  0  0  0  0
 25 26  1  0  0  0  0
 25 27  1  0  0  0  0
 25 28  1  0  0  0  0
M  END
$$$$

  -OEChem-02102214123D

 28 27  0     1  0  0  0  0  0999 V2000
   -1.9049   -4.5509    0.5102 H   0  0  0  0  0  0  0  0  0  0  0  0
   -2.1722   -3.5571    0.1394 C   0  0  0  0  0  0  0  0  0  0  0  0
   -2.8117   -3.0672    0.8775 H   0  0  0  0  0  0  0  0  0  0  0  0
   -2.7248   -3.6668   -0.7968 H   0  0  0  0  0  0  0  0  0  0  0  0
   -0.9201   -2.7338   -0.0936 C   0  0  0  0  0  0  0  0  0  0  0  0
    0.1779   -3.2410    0.0493 O   0  0  0  0  0  0  0  0  0  0  0  0
   -1.0349   -1.4054   -0.4507 N   0  0  0  0  0  0  0  0  0  0  0  0
   -1.9706   -1.0100   -0.3814 H   0  0  0  0  0  0  0  0  0  0  0  0
    0.1002   -0.4678   -0.4877 C   0  0  1  0  0  0  0  0  0  0  0  0
    0.8450   -0.9484   -1.1331 H   0  0  0  0  0  0  0  0  0  0  0  0
   -0.1624    0.9281   -1.1323 C   0  0  0  0  0  0  0  0  0  0  0  0
   -0.2308    1.6381   -0.3002 H   0  0  0  0  0  0  0  0  0  0  0  0
    0.7345    1.2071   -1.6963 H   0  0  0  0  0  0  0  0  0  0  0  0
   -1.4067    1.2385   -2.0163 C   0  0  0  0  0  0  0  0  0  0  0  0
   -1.6030    2.3134   -1.9743 H   0  0  0  0  0  0  0  0  0  0  0  0
   -1.1189    1.0110   -3.0470 H   0  0  0  0  0  0  0  0  0  0  0  0
   -2.7305    0.5162   -1.7809 C   0  0  0  0  0  0  0  0  0  0  0  0
   -3.1668    0.4389   -0.6421 O   0  0  0  0  0  0  0  0  0  0  0  0
   -3.3664    0.0042   -2.8599 O   0  0  0  0  0  0  0  0  0  0  0  0
   -4.2024   -0.3690   -2.5423 H   0  0  0  0  0  0  0  0  0  0  0  0
    0.8011   -0.2947    0.8790 C   0  0  0  0  0  0  0  0  0  0  0  0
    2.0021   -0.0662    0.9244 O   0  0  0  0  0  0  0  0  0  0  0  0
    0.0450   -0.1272    2.0253 N   0  0  0  0  0  0  0  0  0  0  0  0
   -0.9510   -0.3059    1.9505 H   0  0  0  0  0  0  0  0  0  0  0  0
    0.6291    0.1089    3.3395 C   0  0  0  0  0  0  0  0  0  0  0  0
    1.2164    1.0332    3.3375 H   0  0  0  0  0  0  0  0  0  0  0  0
   -0.1586    0.2024    4.0931 H   0  0  0  0  0  0  0  0  0  0  0  0
    1.2830   -0.7230    3.6221 H   0  0  0  0  0  0  0  0  0  0  0  0
  1  2  1  0  0  0  0
  2  3  1  0  0  0  0
  2  4  1  0  0  0  0
  2  5  1  0  0  0  0
  5  6  2  0  0  0  0
  5  7  1  0  0  0  0
  7  8  1  0  0  0  0
  7  9  1  0  0  0  0
  9 10  1  0  0  0  0
  9 11  1  0  0  0  0
  9 21  1  0  0  0  0
 11 12  1  0  0  0  0
 11 13  1  0  0  0  0
 11 14  1  0  0  0  0
 14 15  1  0  0  0  0
 14 16  1  0  0  0  0
 14 17  1  0  0  0  0
 17 18  2  0  0  0  0
 17 19  1  0  0  0  0
 19 20  1  0  0  0  0
 21 22  2  0  0  0  0
 21 23  1  0  0  0  0
 23 24  1  0  0  0  0
 23 25  1  0  0  0  0
 25 26  1  0  0  0  0
 25 27  1  0  0  0  0
 25 28  1  0  0  0  0
M  END
$$$$

  -OEChem-02102214123D

 28 27  0     1  0  0  0  0  0999 V2000
   -2.3821   -4.3562    0.7006 H   0  0  0  0  0  0  0  0  0  0  0  0
   -2.5035   -3.3610    0.2637 C   0  0  0  0  0  0  0  0  0  0  0  0
   -3.1035   -2.7501    0.9423 H   0  0  0  0  0  0  0  0  0  0  0  0
   -3.0266   -3.4574   -0.6907 H   0  0  0  0  0  0  0  0  0  0  0  0
   -1.1469   -2.7184    0.0465 C   0  0  0  0  0  0  0  0  0  0  0  0
   -0.1310   -3.3409    0.2998 O   0  0  0  0  0  0  0  0  0  0  0  0
   -1.0738   -1.4251   -0.4309 N   0  0  0  0  0  0  0  0  0  0  0  0
   -1.9540   -0.9149   -0.4405 H   0  0  0  0  0  0  0  0  0  0  0  0
    0.1675   -0.6304   -0.4288 C   0  0  1  0  0  0  0  0  0  0  0  0
    0.9070   -1.2395   -0.9622 H   0  0  0  0  0  0  0  0  0  0  0  0
    0.1102    0.7289   -1.1891 C   0  0  0  0  0  0  0  0  0  0  0  0
    0.0725    1.5191   -0.4306 H   0  0  0  0  0  0  0  0  0  0  0  0
    1.0625    0.8543   -1.7158 H   0  0  0  0  0  0  0  0  0  0  0  0
   -1.0400    1.0568   -2.1815 C   0  0  0  0  0  0  0  0  0  0  0  0
   -0.9822    2.1174   -2.4412 H   0  0  0  0  0  0  0  0  0  0  0  0
   -0.8430    0.4909   -3.0968 H   0  0  0  0  0  0  0  0  0  0  0  0
   -2.4857    0.7562   -1.7875 C   0  0  0  0  0  0  0  0  0  0  0  0
   -2.8084    0.7920   -0.6093 O   0  0  0  0  0  0  0  0  0  0  0  0
   -3.3513    0.4749   -2.7881 O   0  0  0  0  0  0  0  0  0  0  0  0
   -4.2236    0.3628   -2.3807 H   0  0  0  0  0  0  0  0  0  0  0  0
    0.7545   -0.4118    0.9841 C   0  0  0  0  0  0  0  0  0  0  0  0
    1.9649   -0.3251    1.1383 O   0  0  0  0  0  0  0  0  0  0  0  0
   -0.0811   -0.0517    2.0263 N   0  0  0  0  0  0  0  0  0  0  0  0
   -1.0784   -0.0369    1.8371 H   0  0  0  0  0  0  0  0  0  0  0  0
    0.4005    0.3117    3.3529 C   0  0  0  0  0  0  0  0  0  0  0  0
    0.9998    1.2269    3.3052 H   0  0  0  0  0  0  0  0  0  0  0  0
   -0.4430    0.4839    4.0282 H   0  0  0  0  0  0  0  0  0  0  0  0
    1.0174   -0.4918    3.7692 H   0  0  0  0  0  0  0  0  0  0  0  0
  1  2  1  0  0  0  0
  2  3  1  0  0  0  0
  2  4  1  0  0  0  0
  2  5  1  0  0  0  0
  5  6  2  0  0  0  0
  5  7  1  0  0  0  0
  7  8  1  0  0  0  0
  7  9  1  0  0  0  0
  9 10  1  0  0  0  0
  9 11  1  0  0  0  0
  9 21  1  0  0  0  0
 11 12  1  0  0  0  0
 11 13  1  0  0  0  0
 11 14  1  0  0  0  0
 14 15  1  0  0  0  0
 14 16  1  0  0  0  0
 14 17  1  0  0  0  0
 17 18  2  0  0  0  0
 17 19  1  0  0  0  0
 19 20  1  0  0  0  0
 21 22  2  0  0  0  0
 21 23  1  0  0  0  0
 23 24  1  0  0  0  0
 23 25  1  0  0  0  0
 25 26  1  0  0  0  0
 25 27  1  0  0  0  0
 25 28  1  0  0  0  0
M  END
$$$$

  -OEChem-02102214123D

 28 27  0     1  0  0  0  0  0999 V2000
   -2.4288   -4.3016    0.6565 H   0  0  0  0  0  0  0  0  0  0  0  0
   -2.5263   -3.3053    0.2159 C   0  0  0  0  0  0  0  0  0  0  0  0
   -3.1215   -2.6812    0.8867 H   0  0  0  0  0  0  0  0  0  0  0  0
   -3.0411   -3.3933   -0.7436 H   0  0  0  0  0  0  0  0  0  0  0  0
   -1.1555   -2.6896    0.0116 C   0  0  0  0  0  0  0  0  0  0  0  0
   -0.1543   -3.3292    0.2802 O   0  0  0  0  0  0  0  0  0  0  0  0
   -1.0533   -1.4009   -0.4725 N   0  0  0  0  0  0  0  0  0  0  0  0
   -1.9233   -0.8745   -0.4902 H   0  0  0  0  0  0  0  0  0  0  0  0
    0.2003   -0.6251   -0.4444 C   0  0  1  0  0  0  0  0  0  0  0  0
    0.9472   -1.2360   -0.9652 H   0  0  0  0  0  0  0  0  0  0  0  0
    0.1423    0.7348   -1.1978 C   0  0  0  0  0  0  0  0  0  0  0  0
    0.1197    1.5393   -0.4536 H   0  0  0  0  0  0  0  0  0  0  0  0
    1.0841    0.8476   -1.7457 H   0  0  0  0  0  0  0  0  0  0  0  0
   -1.0270    1.0075   -2.1792 C   0  0  0  0  0  0  0  0  0  0  0  0
   -0.8688    1.9875   -2.6377 H   0  0  0  0  0  0  0  0  0  0  0  0
   -0.9762    0.2636   -2.9795 H   0  0  0  0  0  0  0  0  0  0  0  0
   -2.4531    0.9882   -1.6225 C   0  0  0  0  0  0  0  0  0  0  0  0
   -2.6400    0.9428   -0.4153 O   0  0  0  0  0  0  0  0  0  0  0  0
   -3.4562    1.0227   -2.5284 O   0  0  0  0  0  0  0  0  0  0  0  0
   -4.2850    1.0472   -2.0261 H   0  0  0  0  0  0  0  0  0  0  0  0
    0.7549   -0.4067    0.9811 C   0  0  0  0  0  0  0  0  0  0  0  0
    1.9624   -0.3507    1.1694 O   0  0  0  0  0  0  0  0  0  0  0  0
   -0.1025   -0.0270    1.9984 N   0  0  0  0  0  0  0  0  0  0  0  0
   -1.0918    0.0271    1.7741 H   0  0  0  0  0  0  0  0  0  0  0  0
    0.3486    0.3286    3.3376 C   0  0  0  0  0  0  0  0  0  0  0  0
    1.0080    1.2021    3.3006 H   0  0  0  0  0  0  0  0  0  0  0  0
   -0.5081    0.5676    3.9749 H   0  0  0  0  0  0  0  0  0  0  0  0
    0.8943   -0.5060    3.7905 H   0  0  0  0  0  0  0  0  0  0  0  0
  1  2  1  0  0  0  0
  2  3  1  0  0  0  0
  2  4  1  0  0  0  0
  2  5  1  0  0  0  0
  5  6  2  0  0  0  0
  5  7  1  0  0  0  0
  7  8  1  0  0  0  0
  7  9  1  0  0  0  0
  9 10  1  0  0  0  0
  9 11  1  0  0  0  0
  9 21  1  0  0  0  0
 11 12  1  0  0  0  0
 11 13  1  0  0  0  0
 11 14  1  0  0  0  0
 14 15  1  0  0  0  0
 14 16  1  0  0  0  0
 14 17  1  0  0  0  0
 17 18  2  0  0  0  0
 17 19  1  0  0  0  0
 19 20  1  0  0  0  0
 21 22  2  0  0  0  0
 21 23  1  0  0  0  0
 23 24  1  0  0  0  0
 23 25  1  0  0  0  0
 25 26  1  0  0  0  0
 25 27  1  0  0  0  0
 25 28  1  0  0  0  0
M  END
$$$$

  -OEChem-02102214123D

 28 27  0     1  0  0  0  0  0999 V2000
   -2.4474   -4.2813    0.6201 H   0  0  0  0  0  0  0  0  0  0  0  0
   -2.5304   -3.2846    0.1775 C   0  0  0  0  0  0  0  0  0  0  0  0
   -3.1296   -2.6547    0.8394 H   0  0  0  0  0  0  0  0  0  0  0  0
   -3.0329   -3.3694   -0.7889 H   0  0  0  0  0  0  0  0  0  0  0  0
   -1.1520   -2.6798   -0.0077 C   0  0  0  0  0  0  0  0  0  0  0  0
   -0.1599   -3.3230    0.2857 O   0  0  0  0  0  0  0  0  0  0  0  0
   -1.0316   -1.3974   -0.5040 N   0  0  0  0  0  0  0  0  0  0  0  0
   -1.8976   -0.8649   -0.5516 H   0  0  0  0  0  0  0  0  0  0  0  0
    0.2262   -0.6280   -0.4573 C   0  0  1  0  0  0  0  0  0  0  0  0
    0.9840   -1.2365   -0.9648 H   0  0  0  0  0  0  0  0  0  0  0  0
    0.1543    0.7287   -1.2106 C   0  0  0  0  0  0  0  0  0  0  0  0
    0.1396    1.5483   -0.4829 H   0  0  0  0  0  0  0  0  0  0  0  0
    1.0863    0.8345   -1.7762 H   0  0  0  0  0  0  0  0  0  0  0  0
   -1.0313    0.9422   -2.1835 C   0  0  0  0  0  0  0  0  0  0  0  0
   -0.7934    1.7995   -2.8199 H   0  0  0  0  0  0  0  0  0  0  0  0
   -1.1262    0.0717   -2.8389 H   0  0  0  0  0  0  0  0  0  0  0  0
   -2.3927    1.2253   -1.5399 C   0  0  0  0  0  0  0  0  0  0  0  0
   -2.5782    0.9762   -0.3573 O   0  0  0  0  0  0  0  0  0  0  0  0
   -3.3471    1.7367   -2.3494 O   0  0  0  0  0  0  0  0  0  0  0  0
   -4.1326    1.8764   -1.7986 H   0  0  0  0  0  0  0  0  0  0  0  0
    0.7504   -0.3965    0.9772 C   0  0  0  0  0  0  0  0  0  0  0  0
    1.9536   -0.3444    1.1928 O   0  0  0  0  0  0  0  0  0  0  0  0
   -0.1294   -0.0005    1.9687 N   0  0  0  0  0  0  0  0  0  0  0  0
   -1.1107    0.0700    1.7143 H   0  0  0  0  0  0  0  0  0  0  0  0
    0.2906    0.3732    3.3130 C   0  0  0  0  0  0  0  0  0  0  0  0
    0.9452    1.2505    3.2804 H   0  0  0  0  0  0  0  0  0  0  0  0
   -0.5810    0.6136    3.9294 H   0  0  0  0  0  0  0  0  0  0  0  0
    0.8318   -0.4525    3.7874 H   0  0  0  0  0  0  0  0  0  0  0  0
  1  2  1  0  0  0  0
  2  3  1  0  0  0  0
  2  4  1  0  0  0  0
  2  5  1  0  0  0  0
  5  6  2  0  0  0  0
  5  7  1  0  0  0  0
  7  8  1  0  0  0  0
  7  9  1  0  0  0  0
  9 10  1  0  0  0  0
  9 11  1  0  0  0  0
  9 21  1  0  0  0  0
 11 12  1  0  0  0  0
 11 13  1  0  0  0  0
 11 14  1  0  0  0  0
 14 15  1  0  0  0  0
 14 16  1  0  0  0  0
 14 17  1  0  0  0  0
 17 18  2  0  0  0  0
 17 19  1  0  0  0  0
 19 20  1  0  0  0  0
 21 22  2  0  0  0  0
 21 23  1  0  0  0  0
 23 24  1  0  0  0  0
 23 25  1  0  0  0  0
 25 26  1  0  0  0  0
 25 27  1  0  0  0  0
 25 28  1  0  0  0  0
M  END
$$$$

  -OEChem-02102214123D

 28 27  0     1  0  0  0  0  0999 V2000
   -2.4217   -4.3352    0.5657 H   0  0  0  0  0  0  0  0  0  0  0  0
   -2.5101   -3.3394    0.1221 C   0  0  0  0  0  0  0  0  0  0  0  0
   -3.1939   -2.7422    0.7299 H   0  0  0  0  0  0  0  0  0  0  0  0
   -2.9206   -3.4387   -0.8855 H   0  0  0  0  0  0  0  0  0  0  0  0
   -1.1500   -2.6711    0.0630 C   0  0  0  0  0  0  0  0  0  0  0  0
   -0.1689   -3.2410    0.5061 O   0  0  0  0  0  0  0  0  0  0  0  0
   -1.0341   -1.4075   -0.4780 N   0  0  0  0  0  0  0  0  0  0  0  0
   -1.9060   -0.9370   -0.7212 H   0  0  0  0  0  0  0  0  0  0  0  0
    0.2042   -0.6045   -0.4578 C   0  0  1  0  0  0  0  0  0  0  0  0
    0.9772   -1.2179   -0.9351 H   0  0  0  0  0  0  0  0  0  0  0  0
    0.0937    0.7067   -1.2808 C   0  0  0  0  0  0  0  0  0  0  0  0
    0.0559    1.5686   -0.6040 H   0  0  0  0  0  0  0  0  0  0  0  0
    1.0214    0.8064   -1.8549 H   0  0  0  0  0  0  0  0  0  0  0  0
   -1.0980    0.7992   -2.2608 C   0  0  0  0  0  0  0  0  0  0  0  0
   -0.8126    1.4598   -3.0850 H   0  0  0  0  0  0  0  0  0  0  0  0
   -1.3304   -0.1718   -2.7067 H   0  0  0  0  0  0  0  0  0  0  0  0
   -2.3362    1.4023   -1.6054 C   0  0  0  0  0  0  0  0  0  0  0  0
   -3.0074    0.6836   -0.8806 O   0  0  0  0  0  0  0  0  0  0  0  0
   -2.6172    2.7036   -1.8431 O   0  0  0  0  0  0  0  0  0  0  0  0
   -3.4246    2.9068   -1.3465 H   0  0  0  0  0  0  0  0  0  0  0  0
    0.7260   -0.2941    0.9621 C   0  0  0  0  0  0  0  0  0  0  0  0
    1.9268   -0.1627    1.1557 O   0  0  0  0  0  0  0  0  0  0  0  0
   -0.1599    0.1230    1.9392 N   0  0  0  0  0  0  0  0  0  0  0  0
   -1.1462   -0.0258    1.7507 H   0  0  0  0  0  0  0  0  0  0  0  0
    0.2573    0.4871    3.2872 C   0  0  0  0  0  0  0  0  0  0  0  0
    0.9400    1.3429    3.2590 H   0  0  0  0  0  0  0  0  0  0  0  0
   -0.6126    0.7598    3.8922 H   0  0  0  0  0  0  0  0  0  0  0  0
    0.7666   -0.3536    3.7701 H   0  0  0  0  0  0  0  0  0  0  0  0
  1  2  1  0  0  0  0
  2  3  1  0  0  0  0
  2  4  1  0  0  0  0
  2  5  1  0  0  0  0
  5  6  2  0  0  0  0
  5  7  1  0  0  0  0
  7  8  1  0  0  0  0
  7  9  1  0  0  0  0
  9 10  1  0  0  0  0
  9 11  1  0  0  0  0
  9 21  1  0  0  0  0
 11 12  1  0  0  0  0
 11 13  1  0  0  0  0
 11 14  1  0  0  0  0
 14 15  1  0  0  0  0
 14 16  1  0  0  0  0
 14 17  1  0  0  0  0
 17 18  2  0  0  0  0
 17 19  1  0  0  0  0
 19 20  1  0  0  0  0
 21 22  2  0  0  0  0
 21 23  1  0  0  0  0
 23 24  1  0  0  0  0
 23 25  1  0  0  0  0
 25 26  1  0  0  0  0
 25 27  1  0  0  0  0
 25 28  1  0  0  0  0
M  END
$$$$

  -OEChem-02102214123D

 28 27  0     1  0  0  0  0  0999 V2000
   -2.4323   -4.3175    0.5910 H   0  0  0  0  0  0  0  0  0  0  0  0
   -2.5206   -3.3315    0.1258 C   0  0  0  0  0  0  0  0  0  0  0  0
   -3.1996   -2.7197    0.7245 H   0  0  0  0  0  0  0  0  0  0  0  0
   -2.9369   -3.4522   -0.8773 H   0  0  0  0  0  0  0  0  0  0  0  0
   -1.1586   -2.6689    0.0458 C   0  0  0  0  0  0  0  0  0  0  0  0
   -0.1726   -3.2486    0.4640 O   0  0  0  0  0  0  0  0  0  0  0  0
   -1.0448   -1.4011   -0.4875 N   0  0  0  0  0  0  0  0  0  0  0  0
   -1.9146   -0.9206   -0.7091 H   0  0  0  0  0  0  0  0  0  0  0  0
    0.1968   -0.6022   -0.4651 C   0  0  1  0  0  0  0  0  0  0  0  0
    0.9670   -1.2110   -0.9530 H   0  0  0  0  0  0  0  0  0  0  0  0
    0.0742    0.7139   -1.2764 C   0  0  0  0  0  0  0  0  0  0  0  0
    0.0449    1.5685   -0.5899 H   0  0  0  0  0  0  0  0  0  0  0  0
    0.9976    0.8219   -1.8562 H   0  0  0  0  0  0  0  0  0  0  0  0
   -1.1269    0.8097   -2.2500 C   0  0  0  0  0  0  0  0  0  0  0  0
   -0.7698    1.2704   -3.1758 H   0  0  0  0  0  0  0  0  0  0  0  0
   -1.5334   -0.1617   -2.5394 H   0  0  0  0  0  0  0  0  0  0  0  0
   -2.2177    1.7145   -1.6973 C   0  0  0  0  0  0  0  0  0  0  0  0
   -2.8878    1.2707   -0.7776 O   0  0  0  0  0  0  0  0  0  0  0  0
   -2.3830    2.9474   -2.2282 O   0  0  0  0  0  0  0  0  0  0  0  0
   -3.1095    3.3619   -1.7382 H   0  0  0  0  0  0  0  0  0  0  0  0
    0.7285   -0.3016    0.9536 C   0  0  0  0  0  0  0  0  0  0  0  0
    1.9321   -0.1934    1.1442 O   0  0  0  0  0  0  0  0  0  0  0  0
   -0.1465    0.1137    1.9412 N   0  0  0  0  0  0  0  0  0  0  0  0
   -1.1381    0.0170    1.7461 H   0  0  0  0  0  0  0  0  0  0  0  0
    0.2818    0.4797    3.2852 C   0  0  0  0  0  0  0  0  0  0  0  0
    0.9818    1.3212    3.2487 H   0  0  0  0  0  0  0  0  0  0  0  0
   -0.5806    0.7746    3.8905 H   0  0  0  0  0  0  0  0  0  0  0  0
    0.7750   -0.3680    3.7727 H   0  0  0  0  0  0  0  0  0  0  0  0
  1  2  1  0  0  0  0
  2  3  1  0  0  0  0
  2  4  1  0  0  0  0
  2  5  1  0  0  0  0
  5  6  2  0  0  0  0
  5  7  1  0  0  0  0
  7  8  1  0  0  0  0
  7  9  1  0  0  0  0
  9 10  1  0  0  0  0
  9 11  1  0  0  0  0
  9 21  1  0  0  0  0
 11 12  1  0  0  0  0
 11 13  1  0  0  0  0
 11 14  1  0  0  0  0
 14 15  1  0  0  0  0
 14 16  1  0  0  0  0
 14 17  1  0  0  0  0
 17 18  2  0  0  0  0
 17 19  1  0  0  0  0
 19 20  1  0  0  0  0
 21 22  2  0  0  0  0
 21 23  1  0  0  0  0
 23 24  1  0  0  0  0
 23 25  1  0  0  0  0
 25 26  1  0  0  0  0
 25 27  1  0  0  0  0
 25 28  1  0  0  0  0
M  END
$$$$

  -OEChem-02102214123D

 28 27  0     1  0  0  0  0  0999 V2000
   -2.4113   -4.3678    0.5885 H   0  0  0  0  0  0  0  0  0  0  0  0
   -2.5199   -3.3784    0.1346 C   0  0  0  0  0  0  0  0  0  0  0  0
   -3.2230   -2.7932    0.7319 H   0  0  0  0  0  0  0  0  0  0  0  0
   -2.9198   -3.4971   -0.8754 H   0  0  0  0  0  0  0  0  0  0  0  0
   -1.1749   -2.6791    0.0804 C   0  0  0  0  0  0  0  0  0  0  0  0
   -0.1812   -3.2355    0.5110 O   0  0  0  0  0  0  0  0  0  0  0  0
   -1.0845   -1.4088   -0.4528 N   0  0  0  0  0  0  0  0  0  0  0  0
   -1.9570   -0.9599   -0.7175 H   0  0  0  0  0  0  0  0  0  0  0  0
    0.1493   -0.5983   -0.4625 C   0  0  1  0  0  0  0  0  0  0  0  0
    0.9092   -1.2096   -0.9632 H   0  0  0  0  0  0  0  0  0  0  0  0
    0.0238    0.7135   -1.2836 C   0  0  0  0  0  0  0  0  0  0  0  0
   -0.0073    1.5581   -0.5847 H   0  0  0  0  0  0  0  0  0  0  0  0
    0.9490    0.8338   -1.8581 H   0  0  0  0  0  0  0  0  0  0  0  0
   -1.1790    0.8392   -2.2581 C   0  0  0  0  0  0  0  0  0  0  0  0
   -0.7840    1.0131   -3.2635 H   0  0  0  0  0  0  0  0  0  0  0  0
   -1.7880   -0.0618   -2.3308 H   0  0  0  0  0  0  0  0  0  0  0  0
   -2.0682    2.0222   -1.9003 C   0  0  0  0  0  0  0  0  0  0  0  0
   -2.8396    1.8789   -0.9660 O   0  0  0  0  0  0  0  0  0  0  0  0
   -1.9521    3.1642   -2.6153 O   0  0  0  0  0  0  0  0  0  0  0  0
   -2.5839    3.7911   -2.2309 H   0  0  0  0  0  0  0  0  0  0  0  0
    0.7193   -0.2928    0.9411 C   0  0  0  0  0  0  0  0  0  0  0  0
    1.9274   -0.1769    1.0955 O   0  0  0  0  0  0  0  0  0  0  0  0
   -0.1273    0.1138    1.9566 N   0  0  0  0  0  0  0  0  0  0  0  0
   -1.1235    0.0108    1.7932 H   0  0  0  0  0  0  0  0  0  0  0  0
    0.3413    0.4765    3.2882 C   0  0  0  0  0  0  0  0  0  0  0  0
    1.0246    1.3306    3.2344 H   0  0  0  0  0  0  0  0  0  0  0  0
   -0.5045    0.7511    3.9257 H   0  0  0  0  0  0  0  0  0  0  0  0
    0.8659   -0.3660    3.7514 H   0  0  0  0  0  0  0  0  0  0  0  0
  1  2  1  0  0  0  0
  2  3  1  0  0  0  0
  2  4  1  0  0  0  0
  2  5  1  0  0  0  0
  5  6  2  0  0  0  0
  5  7  1  0  0  0  0
  7  8  1  0  0  0  0
  7  9  1  0  0  0  0
  9 10  1  0  0  0  0
  9 11  1  0  0  0  0
  9 21  1  0  0  0  0
 11 12  1  0  0  0  0
 11 13  1  0  0  0  0
 11 14  1  0  0  0  0
 14 15  1  0  0  0  0
 14 16  1  0  0  0  0
 14 17  1  0  0  0  0
 17 18  2  0  0  0  0
 17 19  1  0  0  0  0
 19 20  1  0  0  0  0
 21 22  2  0  0  0  0
 21 23  1  0  0  0  0
 23 24  1  0  0  0  0
 23 25  1  0  0  0  0
 25 26  1  0  0  0  0
 25 27  1  0  0  0  0
 25 28  1  0  0  0  0
M  END
$$$$

  -OEChem-02102214123D

 28 27  0     1  0  0  0  0  0999 V2000
   -2.5104   -4.3317    0.4138 H   0  0  0  0  0  0  0  0  0  0  0  0
   -2.5634   -3.3528   -0.0712 C   0  0  0  0  0  0  0  0  0  0  0  0
   -3.3457   -2.7630    0.4123 H   0  0  0  0  0  0  0  0  0  0  0  0
   -2.8210   -3.4960   -1.1232 H   0  0  0  0  0  0  0  0  0  0  0  0
   -1.2284   -2.6416    0.0429 C   0  0  0  0  0  0  0  0  0  0  0  0
   -0.2974   -3.1816    0.6118 O   0  0  0  0  0  0  0  0  0  0  0  0
   -1.0766   -1.3790   -0.4950 N   0  0  0  0  0  0  0  0  0  0  0  0
   -1.8934   -0.9657   -0.9323 H   0  0  0  0  0  0  0  0  0  0  0  0
    0.1721   -0.5925   -0.4365 C   0  0  1  0  0  0  0  0  0  0  0  0
    0.9461   -1.2316   -0.8775 H   0  0  0  0  0  0  0  0  0  0  0  0
    0.1504    0.7100   -1.2841 C   0  0  0  0  0  0  0  0  0  0  0  0
    0.0661    1.5500   -0.5841 H   0  0  0  0  0  0  0  0  0  0  0  0
    1.1245    0.8227   -1.7731 H   0  0  0  0  0  0  0  0  0  0  0  0
   -0.9659    0.8735   -2.3509 C   0  0  0  0  0  0  0  0  0  0  0  0
   -0.5396    0.6996   -3.3437 H   0  0  0  0  0  0  0  0  0  0  0  0
   -1.7825    0.1641   -2.2319 H   0  0  0  0  0  0  0  0  0  0  0  0
   -1.5811    2.2667   -2.2975 C   0  0  0  0  0  0  0  0  0  0  0  0
   -1.2319    3.0960   -3.1181 O   0  0  0  0  0  0  0  0  0  0  0  0
   -2.4935    2.5070   -1.3266 O   0  0  0  0  0  0  0  0  0  0  0  0
   -2.7593    3.4332   -1.4412 H   0  0  0  0  0  0  0  0  0  0  0  0
    0.6625   -0.2820    0.9964 C   0  0  0  0  0  0  0  0  0  0  0  0
    1.8608   -0.1723    1.2171 O   0  0  0  0  0  0  0  0  0  0  0  0
   -0.2361    0.1522    1.9540 N   0  0  0  0  0  0  0  0  0  0  0  0
   -1.2198    0.0116    1.7505 H   0  0  0  0  0  0  0  0  0  0  0  0
    0.1615    0.5225    3.3065 C   0  0  0  0  0  0  0  0  0  0  0  0
    0.8613    1.3647    3.2832 H   0  0  0  0  0  0  0  0  0  0  0  0
   -0.7146    0.8187    3.8913 H   0  0  0  0  0  0  0  0  0  0  0  0
    0.6446   -0.3228    3.8079 H   0  0  0  0  0  0  0  0  0  0  0  0
  1  2  1  0  0  0  0
  2  3  1  0  0  0  0
  2  4  1  0  0  0  0
  2  5  1  0  0  0  0
  5  6  2  0  0  0  0
  5  7  1  0  0  0  0
  7  8  1  0  0  0  0
  7  9  1  0  0  0  0
  9 10  1  0  0  0  0
  9 11  1  0  0  0  0
  9 21  1  0  0  0  0
 11 12  1  0  0  0  0
 11 13  1  0  0  0  0
 11 14  1  0  0  0  0
 14 15  1  0  0  0  0
 14 16  1  0  0  0  0
 14 17  1  0  0  0  0
 17 18  2  0  0  0  0
 17 19  1  0  0  0  0
 19 20  1  0  0  0  0
 21 22  2  0  0  0  0
 21 23  1  0  0  0  0
 23 24  1  0  0  0  0
 23 25  1  0  0  0  0
 25 26  1  0  0  0  0
 25 27  1  0  0  0  0
 25 28  1  0  0  0  0
M  END
$$$$

  -OEChem-02102214123D

 28 27  0     1  0  0  0  0  0999 V2000
   -2.5353   -4.3274    0.4289 H   0  0  0  0  0  0  0  0  0  0  0  0
   -2.5702   -3.3654   -0.0907 C   0  0  0  0  0  0  0  0  0  0  0  0
   -3.4071   -2.7835    0.3026 H   0  0  0  0  0  0  0  0  0  0  0  0
   -2.7298   -3.5479   -1.1561 H   0  0  0  0  0  0  0  0  0  0  0  0
   -1.2695   -2.6132    0.1181 C   0  0  0  0  0  0  0  0  0  0  0  0
   -0.3771   -3.1147    0.7766 O   0  0  0  0  0  0  0  0  0  0  0  0
   -1.1084   -1.3587   -0.4367 N   0  0  0  0  0  0  0  0  0  0  0  0
   -1.8521   -1.0404   -1.0482 H   0  0  0  0  0  0  0  0  0  0  0  0
    0.1600   -0.6002   -0.4186 C   0  0  1  0  0  0  0  0  0  0  0  0
    0.9082   -1.2556   -0.8794 H   0  0  0  0  0  0  0  0  0  0  0  0
    0.1336    0.7017   -1.2681 C   0  0  0  0  0  0  0  0  0  0  0  0
    0.0706    1.5427   -0.5673 H   0  0  0  0  0  0  0  0  0  0  0  0
    1.0926    0.8070   -1.7875 H   0  0  0  0  0  0  0  0  0  0  0  0
   -1.0205    0.8736   -2.2899 C   0  0  0  0  0  0  0  0  0  0  0  0
   -0.7444    0.4167   -3.2443 H   0  0  0  0  0  0  0  0  0  0  0  0
   -1.9365    0.3947   -1.9454 H   0  0  0  0  0  0  0  0  0  0  0  0
   -1.3786    2.3422   -2.5061 C   0  0  0  0  0  0  0  0  0  0  0  0
   -0.4913    3.1291   -2.7859 O   0  0  0  0  0  0  0  0  0  0  0  0
   -2.6768    2.6967   -2.3658 O   0  0  0  0  0  0  0  0  0  0  0  0
   -2.7086    3.6510   -2.5376 H   0  0  0  0  0  0  0  0  0  0  0  0
    0.7004   -0.2874    0.9967 C   0  0  0  0  0  0  0  0  0  0  0  0
    1.9074   -0.2035    1.1782 O   0  0  0  0  0  0  0  0  0  0  0  0
   -0.1584    0.1762    1.9768 N   0  0  0  0  0  0  0  0  0  0  0  0
   -1.1475    0.0174    1.8169 H   0  0  0  0  0  0  0  0  0  0  0  0
    0.2906    0.5310    3.3175 C   0  0  0  0  0  0  0  0  0  0  0  0
    1.0284    1.3392    3.2735 H   0  0  0  0  0  0  0  0  0  0  0  0
   -0.5552    0.8705    3.9228 H   0  0  0  0  0  0  0  0  0  0  0  0
    0.7459   -0.3345    3.8105 H   0  0  0  0  0  0  0  0  0  0  0  0
  1  2  1  0  0  0  0
  2  3  1  0  0  0  0
  2  4  1  0  0  0  0
  2  5  1  0  0  0  0
  5  6  2  0  0  0  0
  5  7  1  0  0  0  0
  7  8  1  0  0  0  0
  7  9  1  0  0  0  0
  9 10  1  0  0  0  0
  9 11  1  0  0  0  0
  9 21  1  0  0  0  0
 11 12  1  0  0  0  0
 11 13  1  0  0  0  0
 11 14  1  0  0  0  0
 14 15  1  0  0  0  0
 14 16  1  0  0  0  0
 14 17  1  0  0  0  0
 17 18  2  0  0  0  0
 17 19  1  0  0  0  0
 19 20  1  0  0  0  0
 21 22  2  0  0  0  0
 21 23  1  0  0  0  0
 23 24  1  0  0  0  0
 23 25  1  0  0  0  0
 25 26  1  0  0  0  0
 25 27  1  0  0  0  0
 25 28  1  0  0  0  0
M  END
$$$$

  -OEChem-02102214123D

 28 27  0     1  0  0  0  0  0999 V2000
   -2.5709   -4.2923    0.4071 H   0  0  0  0  0  0  0  0  0  0  0  0
   -2.5943   -3.3255   -0.1039 C   0  0  0  0  0  0  0  0  0  0  0  0
   -3.4293   -2.7409    0.2893 H   0  0  0  0  0  0  0  0  0  0  0  0
   -2.7477   -3.4967   -1.1721 H   0  0  0  0  0  0  0  0  0  0  0  0
   -1.2890   -2.5855    0.1210 C   0  0  0  0  0  0  0  0  0  0  0  0
   -0.4067   -3.0986    0.7842 O   0  0  0  0  0  0  0  0  0  0  0  0
   -1.1121   -1.3290   -0.4245 N   0  0  0  0  0  0  0  0  0  0  0  0
   -1.8394   -1.0100   -1.0557 H   0  0  0  0  0  0  0  0  0  0  0  0
    0.1696   -0.5924   -0.4102 C   0  0  1  0  0  0  0  0  0  0  0  0
    0.9044   -1.2502   -0.8888 H   0  0  0  0  0  0  0  0  0  0  0  0
    0.1347    0.7180   -1.2424 C   0  0  0  0  0  0  0  0  0  0  0  0
    0.0929    1.5608   -0.5419 H   0  0  0  0  0  0  0  0  0  0  0  0
    1.0790    0.8132   -1.7906 H   0  0  0  0  0  0  0  0  0  0  0  0
   -1.0501    0.8764   -2.2273 C   0  0  0  0  0  0  0  0  0  0  0  0
   -0.9186    0.2010   -3.0771 H   0  0  0  0  0  0  0  0  0  0  0  0
   -1.9889    0.6247   -1.7305 H   0  0  0  0  0  0  0  0  0  0  0  0
   -1.2298    2.3054   -2.7422 C   0  0  0  0  0  0  0  0  0  0  0  0
   -0.2959    3.0880   -2.7069 O   0  0  0  0  0  0  0  0  0  0  0  0
   -2.4513    2.6253   -3.2267 O   0  0  0  0  0  0  0  0  0  0  0  0
   -2.3869    3.5498   -3.5133 H   0  0  0  0  0  0  0  0  0  0  0  0
    0.7312   -0.2993    1.0006 C   0  0  0  0  0  0  0  0  0  0  0  0
    1.9416   -0.2412    1.1693 O   0  0  0  0  0  0  0  0  0  0  0  0
   -0.1079    0.1718    1.9938 N   0  0  0  0  0  0  0  0  0  0  0  0
   -1.1004    0.0225    1.8474 H   0  0  0  0  0  0  0  0  0  0  0  0
    0.3641    0.5045    3.3321 C   0  0  0  0  0  0  0  0  0  0  0  0
    1.1204    1.2954    3.2864 H   0  0  0  0  0  0  0  0  0  0  0  0
   -0.4666    0.8588    3.9498 H   0  0  0  0  0  0  0  0  0  0  0  0
    0.8044   -0.3759    3.8121 H   0  0  0  0  0  0  0  0  0  0  0  0
  1  2  1  0  0  0  0
  2  3  1  0  0  0  0
  2  4  1  0  0  0  0
  2  5  1  0  0  0  0
  5  6  2  0  0  0  0
  5  7  1  0  0  0  0
  7  8  1  0  0  0  0
  7  9  1  0  0  0  0
  9 10  1  0  0  0  0
  9 11  1  0  0  0  0
  9 21  1  0  0  0  0
 11 12  1  0  0  0  0
 11 13  1  0  0  0  0
 11 14  1  0  0  0  0
 14 15  1  0  0  0  0
 14 16  1  0  0  0  0
 14 17  1  0  0  0  0
 17 18  2  0  0  0  0
 17 19  1  0  0  0  0
 19 20  1  0  0  0  0
 21 22  2  0  0  0  0
 21 23  1  0  0  0  0
 23 24  1  0  0  0  0
 23 25  1  0  0  0  0
 25 26  1  0  0  0  0
 25 27  1  0  0  0  0
 25 28  1  0  0  0  0
M  END
$$$$

  -OEChem-02102214123D

 28 27  0     1  0  0  0  0  0999 V2000
   -2.5642   -4.2756    0.3750 H   0  0  0  0  0  0  0  0  0  0  0  0
   -2.6003   -3.2840   -0.0858 C   0  0  0  0  0  0  0  0  0  0  0  0
   -3.4075   -2.7108    0.3764 H   0  0  0  0  0  0  0  0  0  0  0  0
   -2.8077   -3.4006   -1.1523 H   0  0  0  0  0  0  0  0  0  0  0  0
   -1.2771   -2.5687    0.1108 C   0  0  0  0  0  0  0  0  0  0  0  0
   -0.3879   -3.1005    0.7495 O   0  0  0  0  0  0  0  0  0  0  0  0
   -1.0938   -1.3104   -0.4284 N   0  0  0  0  0  0  0  0  0  0  0  0
   -1.8400   -0.9590   -1.0196 H   0  0  0  0  0  0  0  0  0  0  0  0
    0.1908   -0.5782   -0.4172 C   0  0  1  0  0  0  0  0  0  0  0  0
    0.9288   -1.2284   -0.9013 H   0  0  0  0  0  0  0  0  0  0  0  0
    0.1363    0.7404   -1.2360 C   0  0  0  0  0  0  0  0  0  0  0  0
    0.3981    1.5826   -0.5841 H   0  0  0  0  0  0  0  0  0  0  0  0
    0.9115    0.6912   -2.0091 H   0  0  0  0  0  0  0  0  0  0  0  0
   -1.2221    1.0526   -1.9077 C   0  0  0  0  0  0  0  0  0  0  0  0
   -1.4835    0.2442   -2.5961 H   0  0  0  0  0  0  0  0  0  0  0  0
   -2.0003    1.1239   -1.1430 H   0  0  0  0  0  0  0  0  0  0  0  0
   -1.2375    2.3584   -2.7049 C   0  0  0  0  0  0  0  0  0  0  0  0
   -0.2329    3.0447   -2.7812 O   0  0  0  0  0  0  0  0  0  0  0  0
   -2.4074    2.6834   -3.3002 O   0  0  0  0  0  0  0  0  0  0  0  0
   -2.2451    3.5230   -3.7585 H   0  0  0  0  0  0  0  0  0  0  0  0
    0.7504   -0.2994    0.9972 C   0  0  0  0  0  0  0  0  0  0  0  0
    1.9606   -0.2550    1.1717 O   0  0  0  0  0  0  0  0  0  0  0  0
   -0.0891    0.1663    1.9930 N   0  0  0  0  0  0  0  0  0  0  0  0
   -1.0817    0.0241    1.8403 H   0  0  0  0  0  0  0  0  0  0  0  0
    0.3785    0.4546    3.3434 C   0  0  0  0  0  0  0  0  0  0  0  0
    1.1624    1.2192    3.3235 H   0  0  0  0  0  0  0  0  0  0  0  0
   -0.4466    0.8249    3.9593 H   0  0  0  0  0  0  0  0  0  0  0  0
    0.7821   -0.4508    3.8091 H   0  0  0  0  0  0  0  0  0  0  0  0
  1  2  1  0  0  0  0
  2  3  1  0  0  0  0
  2  4  1  0  0  0  0
  2  5  1  0  0  0  0
  5  6  2  0  0  0  0
  5  7  1  0  0  0  0
  7  8  1  0  0  0  0
  7  9  1  0  0  0  0
  9 10  1  0  0  0  0
  9 11  1  0  0  0  0
  9 21  1  0  0  0  0
 11 12  1  0  0  0  0
 11 13  1  0  0  0  0
 11 14  1  0  0  0  0
 14 15  1  0  0  0  0
 14 16  1  0  0  0  0
 14 17  1  0  0  0  0
 17 18  2  0  0  0  0
 17 19  1  0  0  0  0
 19 20  1  0  0  0  0
 21 22  2  0  0  0  0
 21 23  1  0  0  0  0
 23 24  1  0  0  0  0
 23 25  1  0  0  0  0
 25 26  1  0  0  0  0
 25 27  1  0  0  0  0
 25 28  1  0  0  0  0
M  END
$$$$

  -OEChem-02102214123D

 28 27  0     1  0  0  0  0  0999 V2000
   -2.5793   -4.2702    0.4195 H   0  0  0  0  0  0  0  0  0  0  0  0
   -2.6151   -3.2861   -0.0568 C   0  0  0  0  0  0  0  0  0  0  0  0
   -3.4129   -2.7009    0.4064 H   0  0  0  0  0  0  0  0  0  0  0  0
   -2.8372   -3.4181   -1.1185 H   0  0  0  0  0  0  0  0  0  0  0  0
   -1.2846   -2.5772    0.1109 C   0  0  0  0  0  0  0  0  0  0  0  0
   -0.3811   -3.1181    0.7213 O   0  0  0  0  0  0  0  0  0  0  0  0
   -1.1088   -1.3164   -0.4250 N   0  0  0  0  0  0  0  0  0  0  0  0
   -1.8717   -0.9519   -0.9859 H   0  0  0  0  0  0  0  0  0  0  0  0
    0.1753   -0.5830   -0.4276 C   0  0  1  0  0  0  0  0  0  0  0  0
    0.9077   -1.2305   -0.9239 H   0  0  0  0  0  0  0  0  0  0  0  0
    0.1156    0.7442   -1.2333 C   0  0  0  0  0  0  0  0  0  0  0  0
    0.4034    1.5852   -0.5909 H   0  0  0  0  0  0  0  0  0  0  0  0
    0.8785    0.6776   -2.0175 H   0  0  0  0  0  0  0  0  0  0  0  0
   -1.2449    1.0803   -1.8915 C   0  0  0  0  0  0  0  0  0  0  0  0
   -1.6291    0.1984   -2.4100 H   0  0  0  0  0  0  0  0  0  0  0  0
   -1.9671    1.3745   -1.1251 H   0  0  0  0  0  0  0  0  0  0  0  0
   -1.1628    2.1825   -2.9491 C   0  0  0  0  0  0  0  0  0  0  0  0
   -0.1903    2.9162   -2.9932 O   0  0  0  0  0  0  0  0  0  0  0  0
   -2.2141    2.2887   -3.7930 O   0  0  0  0  0  0  0  0  0  0  0  0
   -2.0033    3.0281   -4.3846 H   0  0  0  0  0  0  0  0  0  0  0  0
    0.7512   -0.3108    0.9817 C   0  0  0  0  0  0  0  0  0  0  0  0
    1.9632   -0.2644    1.1424 O   0  0  0  0  0  0  0  0  0  0  0  0
   -0.0770    0.1493    1.9893 N   0  0  0  0  0  0  0  0  0  0  0  0
   -1.0720    0.0134    1.8468 H   0  0  0  0  0  0  0  0  0  0  0  0
    0.4069    0.4509    3.3308 C   0  0  0  0  0  0  0  0  0  0  0  0
    1.1688    1.2370    3.2955 H   0  0  0  0  0  0  0  0  0  0  0  0
   -0.4164    0.7990    3.9617 H   0  0  0  0  0  0  0  0  0  0  0  0
    0.8435   -0.4429    3.7895 H   0  0  0  0  0  0  0  0  0  0  0  0
  1  2  1  0  0  0  0
  2  3  1  0  0  0  0
  2  4  1  0  0  0  0
  2  5  1  0  0  0  0
  5  6  2  0  0  0  0
  5  7  1  0  0  0  0
  7  8  1  0  0  0  0
  7  9  1  0  0  0  0
  9 10  1  0  0  0  0
  9 11  1  0  0  0  0
  9 21  1  0  0  0  0
 11 12  1  0  0  0  0
 11 13  1  0  0  0  0
 11 14  1  0  0  0  0
 14 15  1  0  0  0  0
 14 16  1  0  0  0  0
 14 17  1  0  0  0  0
 17 18  2  0  0  0  0
 17 19  1  0  0  0  0
 19 20  1  0  0  0  0
 21 22  2  0  0  0  0
 21 23  1  0  0  0  0
 23 24  1  0  0  0  0
 23 25  1  0  0  0  0
 25 26  1  0  0  0  0
 25 27  1  0  0  0  0
 25 28  1  0  0  0  0
M  END
$$$$

  -OEChem-02102214123D

 28 27  0     1  0  0  0  0  0999 V2000
   -2.5795   -4.2676    0.4894 H   0  0  0  0  0  0  0  0  0  0  0  0
   -2.6274   -3.2896    0.0019 C   0  0  0  0  0  0  0  0  0  0  0  0
   -3.4044   -2.6935    0.4864 H   0  0  0  0  0  0  0  0  0  0  0  0
   -2.8882   -3.4338   -1.0493 H   0  0  0  0  0  0  0  0  0  0  0  0
   -1.2877   -2.5866    0.1117 C   0  0  0  0  0  0  0  0  0  0  0  0
   -0.3575   -3.1363    0.6720 O   0  0  0  0  0  0  0  0  0  0  0  0
   -1.1335   -1.3202   -0.4178 N   0  0  0  0  0  0  0  0  0  0  0  0
   -1.9298   -0.9342   -0.9137 H   0  0  0  0  0  0  0  0  0  0  0  0
    0.1434   -0.5759   -0.4438 C   0  0  1  0  0  0  0  0  0  0  0  0
    0.8691   -1.2197   -0.9547 H   0  0  0  0  0  0  0  0  0  0  0  0
    0.0779    0.7578   -1.2415 C   0  0  0  0  0  0  0  0  0  0  0  0
    0.3905    1.5943   -0.6055 H   0  0  0  0  0  0  0  0  0  0  0  0
    0.8338    0.6778   -2.0313 H   0  0  0  0  0  0  0  0  0  0  0  0
   -1.2780    1.1318   -1.8950 C   0  0  0  0  0  0  0  0  0  0  0  0
   -1.8123    0.2344   -2.2105 H   0  0  0  0  0  0  0  0  0  0  0  0
   -1.9056    1.6692   -1.1790 H   0  0  0  0  0  0  0  0  0  0  0  0
   -1.1148    1.9647   -3.1663 C   0  0  0  0  0  0  0  0  0  0  0  0
   -0.2417    2.8137   -3.2156 O   0  0  0  0  0  0  0  0  0  0  0  0
   -1.9745    1.7186   -4.1813 O   0  0  0  0  0  0  0  0  0  0  0  0
   -1.7279    2.3336   -4.8898 H   0  0  0  0  0  0  0  0  0  0  0  0
    0.7431   -0.3126    0.9569 C   0  0  0  0  0  0  0  0  0  0  0  0
    1.9574   -0.2593    1.0964 O   0  0  0  0  0  0  0  0  0  0  0  0
   -0.0699    0.1305    1.9843 N   0  0  0  0  0  0  0  0  0  0  0  0
   -1.0666   -0.0059    1.8564 H   0  0  0  0  0  0  0  0  0  0  0  0
    0.4357    0.4149    3.3216 C   0  0  0  0  0  0  0  0  0  0  0  0
    1.1932    1.2051    3.2854 H   0  0  0  0  0  0  0  0  0  0  0  0
   -0.3787    0.7486    3.9716 H   0  0  0  0  0  0  0  0  0  0  0  0
    0.8848   -0.4832    3.7590 H   0  0  0  0  0  0  0  0  0  0  0  0
  1  2  1  0  0  0  0
  2  3  1  0  0  0  0
  2  4  1  0  0  0  0
  2  5  1  0  0  0  0
  5  6  2  0  0  0  0
  5  7  1  0  0  0  0
  7  8  1  0  0  0  0
  7  9  1  0  0  0  0
  9 10  1  0  0  0  0
  9 11  1  0  0  0  0
  9 21  1  0  0  0  0
 11 12  1  0  0  0  0
 11 13  1  0  0  0  0
 11 14  1  0  0  0  0
 14 15  1  0  0  0  0
 14 16  1  0  0  0  0
 14 17  1  0  0  0  0
 17 18  2  0  0  0  0
 17 19  1  0  0  0  0
 19 20  1  0  0  0  0
 21 22  2  0  0  0  0
 21 23  1  0  0  0  0
 23 24  1  0  0  0  0
 23 25  1  0  0  0  0
 25 26  1  0  0  0  0
 25 27  1  0  0  0  0
 25 28  1  0  0  0  0
M  END
$$$$

  -OEChem-02102214123D

 28 27  0     1  0  0  0  0  0999 V2000
   -2.6147   -4.2756    0.4874 H   0  0  0  0  0  0  0  0  0  0  0  0
   -2.6632   -3.2995   -0.0039 C   0  0  0  0  0  0  0  0  0  0  0  0
   -3.4629   -2.7144    0.4563 H   0  0  0  0  0  0  0  0  0  0  0  0
   -2.8923   -3.4505   -1.0616 H   0  0  0  0  0  0  0  0  0  0  0  0
   -1.3377   -2.5761    0.1416 C   0  0  0  0  0  0  0  0  0  0  0  0
   -0.4159   -3.1104    0.7302 O   0  0  0  0  0  0  0  0  0  0  0  0
   -1.1879   -1.3106   -0.3914 N   0  0  0  0  0  0  0  0  0  0  0  0
   -1.9604   -0.9705   -0.9531 H   0  0  0  0  0  0  0  0  0  0  0  0
    0.0961   -0.5802   -0.4500 C   0  0  1  0  0  0  0  0  0  0  0  0
    0.7998   -1.2340   -0.9789 H   0  0  0  0  0  0  0  0  0  0  0  0
    0.0410    0.7596   -1.2426 C   0  0  0  0  0  0  0  0  0  0  0  0
    0.3827    1.5817   -0.6024 H   0  0  0  0  0  0  0  0  0  0  0  0
    0.7907    0.6724   -2.0376 H   0  0  0  0  0  0  0  0  0  0  0  0
   -1.3073    1.1947   -1.8793 C   0  0  0  0  0  0  0  0  0  0  0  0
   -2.0248    0.3783   -1.9389 H   0  0  0  0  0  0  0  0  0  0  0  0
   -1.7620    1.9835   -1.2732 H   0  0  0  0  0  0  0  0  0  0  0  0
   -1.1196    1.6980   -3.3077 C   0  0  0  0  0  0  0  0  0  0  0  0
   -0.4500    2.6993   -3.4894 O   0  0  0  0  0  0  0  0  0  0  0  0
   -1.7044    0.9958   -4.3056 O   0  0  0  0  0  0  0  0  0  0  0  0
   -1.4681    1.4572   -5.1256 H   0  0  0  0  0  0  0  0  0  0  0  0
    0.7357   -0.3258    0.9354 C   0  0  0  0  0  0  0  0  0  0  0  0
    1.9540   -0.2735    1.0378 O   0  0  0  0  0  0  0  0  0  0  0  0
   -0.0447    0.1244    1.9848 N   0  0  0  0  0  0  0  0  0  0  0  0
   -1.0441   -0.0217    1.8905 H   0  0  0  0  0  0  0  0  0  0  0  0
    0.5024    0.4105    3.3052 C   0  0  0  0  0  0  0  0  0  0  0  0
    1.2556    1.2033    3.2447 H   0  0  0  0  0  0  0  0  0  0  0  0
   -0.2915    0.7418    3.9811 H   0  0  0  0  0  0  0  0  0  0  0  0
    0.9685   -0.4858    3.7281 H   0  0  0  0  0  0  0  0  0  0  0  0
  1  2  1  0  0  0  0
  2  3  1  0  0  0  0
  2  4  1  0  0  0  0
  2  5  1  0  0  0  0
  5  6  2  0  0  0  0
  5  7  1  0  0  0  0
  7  8  1  0  0  0  0
  7  9  1  0  0  0  0
  9 10  1  0  0  0  0
  9 11  1  0  0  0  0
  9 21  1  0  0  0  0
 11 12  1  0  0  0  0
 11 13  1  0  0  0  0
 11 14  1  0  0  0  0
 14 15  1  0  0  0  0
 14 16  1  0  0  0  0
 14 17  1  0  0  0  0
 17 18  2  0  0  0  0
 17 19  1  0  0  0  0
 19 20  1  0  0  0  0
 21 22  2  0  0  0  0
 21 23  1  0  0  0  0
 23 24  1  0  0  0  0
 23 25  1  0  0  0  0
 25 26  1  0  0  0  0
 25 27  1  0  0  0  0
 25 28  1  0  0  0  0
M  END
$$$$

  -OEChem-02102214123D

 28 27  0     1  0  0  0  0  0999 V2000
   -2.7008   -4.2301    0.4771 H   0  0  0  0  0  0  0  0  0  0  0  0
   -2.7106   -3.2739   -0.0541 C   0  0  0  0  0  0  0  0  0  0  0  0
   -3.5429   -2.6731    0.3202 H   0  0  0  0  0  0  0  0  0  0  0  0
   -2.8578   -3.4660   -1.1198 H   0  0  0  0  0  0  0  0  0  0  0  0
   -1.4005   -2.5410    0.1643 C   0  0  0  0  0  0  0  0  0  0  0  0
   -0.5172   -3.0617    0.8204 O   0  0  0  0  0  0  0  0  0  0  0  0
   -1.2244   -1.2839   -0.3809 N   0  0  0  0  0  0  0  0  0  0  0  0
   -1.9379   -1.0005   -1.0445 H   0  0  0  0  0  0  0  0  0  0  0  0
    0.0810   -0.5936   -0.4514 C   0  0  1  0  0  0  0  0  0  0  0  0
    0.7615   -1.2674   -0.9850 H   0  0  0  0  0  0  0  0  0  0  0  0
    0.0535    0.7482   -1.2432 C   0  0  0  0  0  0  0  0  0  0  0  0
    0.4037    1.5537   -0.5869 H   0  0  0  0  0  0  0  0  0  0  0  0
    0.8068    0.6699   -2.0358 H   0  0  0  0  0  0  0  0  0  0  0  0
   -1.2894    1.2243   -1.8626 C   0  0  0  0  0  0  0  0  0  0  0  0
   -2.1353    0.5782   -1.6365 H   0  0  0  0  0  0  0  0  0  0  0  0
   -1.5357    2.2062   -1.4466 H   0  0  0  0  0  0  0  0  0  0  0  0
   -1.1841    1.3638   -3.3759 C   0  0  0  0  0  0  0  0  0  0  0  0
   -0.7934    2.4182   -3.8440 O   0  0  0  0  0  0  0  0  0  0  0  0
   -1.5250    0.2888   -4.1236 O   0  0  0  0  0  0  0  0  0  0  0  0
   -1.3810    0.5537   -5.0459 H   0  0  0  0  0  0  0  0  0  0  0  0
    0.7375   -0.3483    0.9281 C   0  0  0  0  0  0  0  0  0  0  0  0
    1.9577   -0.3229    1.0186 O   0  0  0  0  0  0  0  0  0  0  0  0
   -0.0230    0.1332    1.9781 N   0  0  0  0  0  0  0  0  0  0  0  0
   -1.0258    0.0040    1.8932 H   0  0  0  0  0  0  0  0  0  0  0  0
    0.5404    0.4119    3.2931 C   0  0  0  0  0  0  0  0  0  0  0  0
    1.3056    1.1923    3.2240 H   0  0  0  0  0  0  0  0  0  0  0  0
   -0.2421    0.7565    3.9757 H   0  0  0  0  0  0  0  0  0  0  0  0
    0.9956   -0.4912    3.7134 H   0  0  0  0  0  0  0  0  0  0  0  0
  1  2  1  0  0  0  0
  2  3  1  0  0  0  0
  2  4  1  0  0  0  0
  2  5  1  0  0  0  0
  5  6  2  0  0  0  0
  5  7  1  0  0  0  0
  7  8  1  0  0  0  0
  7  9  1  0  0  0  0
  9 10  1  0  0  0  0
  9 11  1  0  0  0  0
  9 21  1  0  0  0  0
 11 12  1  0  0  0  0
 11 13  1  0  0  0  0
 11 14  1  0  0  0  0
 14 15  1  0  0  0  0
 14 16  1  0  0  0  0
 14 17  1  0  0  0  0
 17 18  2  0  0  0  0
 17 19  1  0  0  0  0
 19 20  1  0  0  0  0
 21 22  2  0  0  0  0
 21 23  1  0  0  0  0
 23 24  1  0  0  0  0
 23 25  1  0  0  0  0
 25 26  1  0  0  0  0
 25 27  1  0  0  0  0
 25 28  1  0  0  0  0
M  END
$$$$

  -OEChem-02102214123D

 28 27  0     1  0  0  0  0  0999 V2000
   -2.7514   -4.1783    0.4185 H   0  0  0  0  0  0  0  0  0  0  0  0
   -2.7301   -3.2247   -0.1167 C   0  0  0  0  0  0  0  0  0  0  0  0
   -3.5708   -2.6136    0.2204 H   0  0  0  0  0  0  0  0  0  0  0  0
   -2.8355   -3.4200   -1.1867 H   0  0  0  0  0  0  0  0  0  0  0  0
   -1.4228   -2.5042    0.1528 C   0  0  0  0  0  0  0  0  0  0  0  0
   -0.5759   -3.0259    0.8547 O   0  0  0  0  0  0  0  0  0  0  0  0
   -1.2107   -1.2548   -0.3958 N   0  0  0  0  0  0  0  0  0  0  0  0
   -1.8816   -0.9863   -1.1103 H   0  0  0  0  0  0  0  0  0  0  0  0
    0.1091   -0.5916   -0.4410 C   0  0  1  0  0  0  0  0  0  0  0  0
    0.7884   -1.2777   -0.9603 H   0  0  0  0  0  0  0  0  0  0  0  0
    0.1013    0.7427   -1.2434 C   0  0  0  0  0  0  0  0  0  0  0  0
    0.4236    1.5477   -0.5724 H   0  0  0  0  0  0  0  0  0  0  0  0
    0.8704    0.6811   -2.0222 H   0  0  0  0  0  0  0  0  0  0  0  0
   -1.2406    1.1995   -1.8722 C   0  0  0  0  0  0  0  0  0  0  0  0
   -2.1217    0.7563   -1.4082 H   0  0  0  0  0  0  0  0  0  0  0  0
   -1.3352    2.2782   -1.7129 H   0  0  0  0  0  0  0  0  0  0  0  0
   -1.2572    0.9672   -3.3766 C   0  0  0  0  0  0  0  0  0  0  0  0
   -0.8627    1.8470   -4.1206 O   0  0  0  0  0  0  0  0  0  0  0  0
   -1.7081   -0.2353   -3.8041 O   0  0  0  0  0  0  0  0  0  0  0  0
   -1.6310   -0.2147   -4.7716 H   0  0  0  0  0  0  0  0  0  0  0  0
    0.7445   -0.3485    0.9486 C   0  0  0  0  0  0  0  0  0  0  0  0
    1.9631   -0.3481    1.0620 O   0  0  0  0  0  0  0  0  0  0  0  0
   -0.0264    0.1560    1.9798 N   0  0  0  0  0  0  0  0  0  0  0  0
   -1.0288    0.0357    1.8769 H   0  0  0  0  0  0  0  0  0  0  0  0
    0.5141    0.4093    3.3095 C   0  0  0  0  0  0  0  0  0  0  0  0
    1.3179    1.1517    3.2625 H   0  0  0  0  0  0  0  0  0  0  0  0
   -0.2691    0.7923    3.9705 H   0  0  0  0  0  0  0  0  0  0  0  0
    0.9132   -0.5145    3.7417 H   0  0  0  0  0  0  0  0  0  0  0  0
  1  2  1  0  0  0  0
  2  3  1  0  0  0  0
  2  4  1  0  0  0  0
  2  5  1  0  0  0  0
  5  6  2  0  0  0  0
  5  7  1  0  0  0  0
  7  8  1  0  0  0  0
  7  9  1  0  0  0  0
  9 10  1  0  0  0  0
  9 11  1  0  0  0  0
  9 21  1  0  0  0  0
 11 12  1  0  0  0  0
 11 13  1  0  0  0  0
 11 14  1  0  0  0  0
 14 15  1  0  0  0  0
 14 16  1  0  0  0  0
 14 17  1  0  0  0  0
 17 18  2  0  0  0  0
 17 19  1  0  0  0  0
 19 20  1  0  0  0  0
 21 22  2  0  0  0  0
 21 23  1  0  0  0  0
 23 24  1  0  0  0  0
 23 25  1  0  0  0  0
 25 26  1  0  0  0  0
 25 27  1  0  0  0  0
 25 28  1  0  0  0  0
M  END
$$$$

  -OEChem-02102214123D

 28 27  0     1  0  0  0  0  0999 V2000
   -2.7859   -4.1418    0.3758 H   0  0  0  0  0  0  0  0  0  0  0  0
   -2.7365   -3.1955   -0.1704 C   0  0  0  0  0  0  0  0  0  0  0  0
   -3.5864   -2.5748    0.1233 H   0  0  0  0  0  0  0  0  0  0  0  0
   -2.7982   -3.4039   -1.2413 H   0  0  0  0  0  0  0  0  0  0  0  0
   -1.4371   -2.4791    0.1435 C   0  0  0  0  0  0  0  0  0  0  0  0
   -0.6222   -2.9984    0.8840 O   0  0  0  0  0  0  0  0  0  0  0  0
   -1.1940   -1.2392   -0.4135 N   0  0  0  0  0  0  0  0  0  0  0  0
   -1.8277   -0.9889   -1.1707 H   0  0  0  0  0  0  0  0  0  0  0  0
    0.1384   -0.5986   -0.4337 C   0  0  1  0  0  0  0  0  0  0  0  0
    0.8197   -1.2957   -0.9348 H   0  0  0  0  0  0  0  0  0  0  0  0
    0.1535    0.7304   -1.2431 C   0  0  0  0  0  0  0  0  0  0  0  0
    0.4690    1.5403   -0.5750 H   0  0  0  0  0  0  0  0  0  0  0  0
    0.9239    0.6619   -2.0197 H   0  0  0  0  0  0  0  0  0  0  0  0
   -1.1862    1.1673   -1.8795 C   0  0  0  0  0  0  0  0  0  0  0  0
   -2.0492    0.9287   -1.2543 H   0  0  0  0  0  0  0  0  0  0  0  0
   -1.1753    2.2576   -1.9744 H   0  0  0  0  0  0  0  0  0  0  0  0
   -1.3516    0.5988   -3.2812 C   0  0  0  0  0  0  0  0  0  0  0  0
   -0.9443    1.2325   -4.2377 O   0  0  0  0  0  0  0  0  0  0  0  0
   -1.9473   -0.6143   -3.3776 O   0  0  0  0  0  0  0  0  0  0  0  0
   -1.9579   -0.8213   -4.3268 H   0  0  0  0  0  0  0  0  0  0  0  0
    0.7452   -0.3510    0.9678 C   0  0  0  0  0  0  0  0  0  0  0  0
    1.9606   -0.3706    1.1101 O   0  0  0  0  0  0  0  0  0  0  0  0
   -0.0411    0.1777    1.9750 N   0  0  0  0  0  0  0  0  0  0  0  0
   -1.0426    0.0714    1.8492 H   0  0  0  0  0  0  0  0  0  0  0  0
    0.4708    0.4313    3.3161 C   0  0  0  0  0  0  0  0  0  0  0  0
    1.2852    1.1628    3.2841 H   0  0  0  0  0  0  0  0  0  0  0  0
   -0.3230    0.8284    3.9559 H   0  0  0  0  0  0  0  0  0  0  0  0
    0.8467   -0.4953    3.7632 H   0  0  0  0  0  0  0  0  0  0  0  0
  1  2  1  0  0  0  0
  2  3  1  0  0  0  0
  2  4  1  0  0  0  0
  2  5  1  0  0  0  0
  5  6  2  0  0  0  0
  5  7  1  0  0  0  0
  7  8  1  0  0  0  0
  7  9  1  0  0  0  0
  9 10  1  0  0  0  0
  9 11  1  0  0  0  0
  9 21  1  0  0  0  0
 11 12  1  0  0  0  0
 11 13  1  0  0  0  0
 11 14  1  0  0  0  0
 14 15  1  0  0  0  0
 14 16  1  0  0  0  0
 14 17  1  0  0  0  0
 17 18  2  0  0  0  0
 17 19  1  0  0  0  0
 19 20  1  0  0  0  0
 21 22  2  0  0  0  0
 21 23  1  0  0  0  0
 23 24  1  0  0  0  0
 23 25  1  0  0  0  0
 25 26  1  0  0  0  0
 25 27  1  0  0  0  0
 25 28  1  0  0  0  0
M  END
$$$$

  -OEChem-02102214123D

 28 27  0     1  0  0  0  0  0999 V2000
   -2.7509   -4.1770    0.3600 H   0  0  0  0  0  0  0  0  0  0  0  0
   -2.7196   -3.2096   -0.1494 C   0  0  0  0  0  0  0  0  0  0  0  0
   -3.5534   -2.5982    0.2040 H   0  0  0  0  0  0  0  0  0  0  0  0
   -2.8274   -3.3746   -1.2240 H   0  0  0  0  0  0  0  0  0  0  0  0
   -1.4050   -2.5097    0.1379 C   0  0  0  0  0  0  0  0  0  0  0  0
   -0.5796   -3.0395    0.8593 O   0  0  0  0  0  0  0  0  0  0  0  0
   -1.1586   -1.2717   -0.4210 N   0  0  0  0  0  0  0  0  0  0  0  0
   -1.8218   -0.9900   -1.1423 H   0  0  0  0  0  0  0  0  0  0  0  0
    0.1666   -0.6159   -0.4230 C   0  0  1  0  0  0  0  0  0  0  0  0
    0.8646   -1.3106   -0.9042 H   0  0  0  0  0  0  0  0  0  0  0  0
    0.1917    0.7069   -1.2417 C   0  0  0  0  0  0  0  0  0  0  0  0
    0.4952    1.5258   -0.5794 H   0  0  0  0  0  0  0  0  0  0  0  0
    0.9725    0.6267   -2.0068 H   0  0  0  0  0  0  0  0  0  0  0  0
   -1.1301    1.1346   -1.9153 C   0  0  0  0  0  0  0  0  0  0  0  0
   -1.9597    1.0943   -1.2042 H   0  0  0  0  0  0  0  0  0  0  0  0
   -1.0371    2.1777   -2.2333 H   0  0  0  0  0  0  0  0  0  0  0  0
   -1.4537    0.3024   -3.1517 C   0  0  0  0  0  0  0  0  0  0  0  0
   -0.8874    0.5614   -4.1974 O   0  0  0  0  0  0  0  0  0  0  0  0
   -2.3551   -0.7003   -3.0148 O   0  0  0  0  0  0  0  0  0  0  0  0
   -2.4345   -1.0933   -3.9005 H   0  0  0  0  0  0  0  0  0  0  0  0
    0.7431   -0.3532    0.9879 C   0  0  0  0  0  0  0  0  0  0  0  0
    1.9556   -0.3517    1.1541 O   0  0  0  0  0  0  0  0  0  0  0  0
   -0.0704    0.1725    1.9746 N   0  0  0  0  0  0  0  0  0  0  0  0
   -1.0680    0.0537    1.8310 H   0  0  0  0  0  0  0  0  0  0  0  0
    0.4144    0.4627    3.3179 C   0  0  0  0  0  0  0  0  0  0  0  0
    1.2062    1.2185    3.2846 H   0  0  0  0  0  0  0  0  0  0  0  0
   -0.4002    0.8447    3.9403 H   0  0  0  0  0  0  0  0  0  0  0  0
    0.8129   -0.4445    3.7844 H   0  0  0  0  0  0  0  0  0  0  0  0
  1  2  1  0  0  0  0
  2  3  1  0  0  0  0
  2  4  1  0  0  0  0
  2  5  1  0  0  0  0
  5  6  2  0  0  0  0
  5  7  1  0  0  0  0
  7  8  1  0  0  0  0
  7  9  1  0  0  0  0
  9 10  1  0  0  0  0
  9 11  1  0  0  0  0
  9 21  1  0  0  0  0
 11 12  1  0  0  0  0
 11 13  1  0  0  0  0
 11 14  1  0  0  0  0
 14 15  1  0  0  0  0
 14 16  1  0  0  0  0
 14 17  1  0  0  0  0
 17 18  2  0  0  0  0
 17 19  1  0  0  0  0
 19 20  1  0  0  0  0
 21 22  2  0  0  0  0
 21 23  1  0  0  0  0
 23 24  1  0  0  0  0
 23 25  1  0  0  0  0
 25 26  1  0  0  0  0
 25 27  1  0  0  0  0
 25 28  1  0  0  0  0
M  END
$$$$

  -OEChem-02102214123D

 28 27  0     1  0  0  0  0  0999 V2000
   -2.6707   -4.2369    0.4102 H   0  0  0  0  0  0  0  0  0  0  0  0
   -2.6781   -3.2487   -0.0585 C   0  0  0  0  0  0  0  0  0  0  0  0
   -3.4725   -2.6501    0.3934 H   0  0  0  0  0  0  0  0  0  0  0  0
   -2.8822   -3.3675   -1.1252 H   0  0  0  0  0  0  0  0  0  0  0  0
   -1.3381   -2.5665    0.1401 C   0  0  0  0  0  0  0  0  0  0  0  0
   -0.4684   -3.1119    0.7947 O   0  0  0  0  0  0  0  0  0  0  0  0
   -1.1185   -1.3230   -0.4173 N   0  0  0  0  0  0  0  0  0  0  0  0
   -1.8611   -0.9667   -1.0169 H   0  0  0  0  0  0  0  0  0  0  0  0
    0.1830   -0.6233   -0.4114 C   0  0  1  0  0  0  0  0  0  0  0  0
    0.9041   -1.3081   -0.8728 H   0  0  0  0  0  0  0  0  0  0  0  0
    0.2059    0.6866   -1.2521 C   0  0  0  0  0  0  0  0  0  0  0  0
    0.4975    1.5207   -0.6036 H   0  0  0  0  0  0  0  0  0  0  0  0
    1.0025    0.5853   -1.9981 H   0  0  0  0  0  0  0  0  0  0  0  0
   -1.0870    1.1087   -1.9865 C   0  0  0  0  0  0  0  0  0  0  0  0
   -1.8762    1.2924   -1.2521 H   0  0  0  0  0  0  0  0  0  0  0  0
   -0.9060    2.0530   -2.5081 H   0  0  0  0  0  0  0  0  0  0  0  0
   -1.5876    0.0912   -3.0092 C   0  0  0  0  0  0  0  0  0  0  0  0
   -0.9525   -0.0588   -4.0363 O   0  0  0  0  0  0  0  0  0  0  0  0
   -2.7126   -0.6058   -2.7168 O   0  0  0  0  0  0  0  0  0  0  0  0
   -2.8843   -1.1520   -3.5024 H   0  0  0  0  0  0  0  0  0  0  0  0
    0.7340   -0.3398    1.0054 C   0  0  0  0  0  0  0  0  0  0  0  0
    1.9434   -0.2996    1.1872 O   0  0  0  0  0  0  0  0  0  0  0  0
   -0.1068    0.1595    1.9834 N   0  0  0  0  0  0  0  0  0  0  0  0
   -1.0993    0.0180    1.8275 H   0  0  0  0  0  0  0  0  0  0  0  0
    0.3534    0.4701    3.3312 C   0  0  0  0  0  0  0  0  0  0  0  0
    1.1474    1.2237    3.3022 H   0  0  0  0  0  0  0  0  0  0  0  0
   -0.4719    0.8640    3.9318 H   0  0  0  0  0  0  0  0  0  0  0  0
    0.7409   -0.4305    3.8193 H   0  0  0  0  0  0  0  0  0  0  0  0
  1  2  1  0  0  0  0
  2  3  1  0  0  0  0
  2  4  1  0  0  0  0
  2  5  1  0  0  0  0
  5  6  2  0  0  0  0
  5  7  1  0  0  0  0
  7  8  1  0  0  0  0
  7  9  1  0  0  0  0
  9 10  1  0  0  0  0
  9 11  1  0  0  0  0
  9 21  1  0  0  0  0
 11 12  1  0  0  0  0
 11 13  1  0  0  0  0
 11 14  1  0  0  0  0
 14 15  1  0  0  0  0
 14 16  1  0  0  0  0
 14 17  1  0  0  0  0
 17 18  2  0  0  0  0
 17 19  1  0  0  0  0
 19 20  1  0  0  0  0
 21 22  2  0  0  0  0
 21 23  1  0  0  0  0
 23 24  1  0  0  0  0
 23 25  1  0  0  0  0
 25 26  1  0  0  0  0
 25 27  1  0  0  0  0
 25 28  1  0  0  0  0
M  END
$$$$

  -OEChem-02102214123D

 28 27  0     1  0  0  0  0  0999 V2000
   -2.5902   -4.2814    0.5694 H   0  0  0  0  0  0  0  0  0  0  0  0
   -2.6169   -3.3123    0.0627 C   0  0  0  0  0  0  0  0  0  0  0  0
   -3.3822   -2.6903    0.5327 H   0  0  0  0  0  0  0  0  0  0  0  0
   -2.8785   -3.4710   -0.9861 H   0  0  0  0  0  0  0  0  0  0  0  0
   -1.2635   -2.6350    0.1610 C   0  0  0  0  0  0  0  0  0  0  0  0
   -0.3477   -3.1852    0.7448 O   0  0  0  0  0  0  0  0  0  0  0  0
   -1.0822   -1.3893   -0.4050 N   0  0  0  0  0  0  0  0  0  0  0  0
   -1.8909   -0.9791   -0.8685 H   0  0  0  0  0  0  0  0  0  0  0  0
    0.1926   -0.6455   -0.4011 C   0  0  1  0  0  0  0  0  0  0  0  0
    0.9359   -1.3195   -0.8437 H   0  0  0  0  0  0  0  0  0  0  0  0
    0.2098    0.6545   -1.2610 C   0  0  0  0  0  0  0  0  0  0  0  0
    0.5009    1.4987   -0.6254 H   0  0  0  0  0  0  0  0  0  0  0  0
    1.0183    0.5301   -1.9902 H   0  0  0  0  0  0  0  0  0  0  0  0
   -1.0470    1.0947   -2.0536 C   0  0  0  0  0  0  0  0  0  0  0  0
   -1.7640    1.5199   -1.3456 H   0  0  0  0  0  0  0  0  0  0  0  0
   -0.7659    1.8949   -2.7445 H   0  0  0  0  0  0  0  0  0  0  0  0
   -1.7710    0.0105   -2.8484 C   0  0  0  0  0  0  0  0  0  0  0  0
   -1.2484   -0.4047   -3.8659 O   0  0  0  0  0  0  0  0  0  0  0  0
   -2.9606   -0.4420   -2.3811 O   0  0  0  0  0  0  0  0  0  0  0  0
   -3.2846   -1.0562   -3.0614 H   0  0  0  0  0  0  0  0  0  0  0  0
    0.7215   -0.3349    1.0185 C   0  0  0  0  0  0  0  0  0  0  0  0
    1.9267   -0.2525    1.2130 O   0  0  0  0  0  0  0  0  0  0  0  0
   -0.1446    0.1407    1.9865 N   0  0  0  0  0  0  0  0  0  0  0  0
   -1.1325   -0.0136    1.8156 H   0  0  0  0  0  0  0  0  0  0  0  0
    0.2910    0.4795    3.3359 C   0  0  0  0  0  0  0  0  0  0  0  0
    1.0582    1.2608    3.3072 H   0  0  0  0  0  0  0  0  0  0  0  0
   -0.5534    0.8492    3.9254 H   0  0  0  0  0  0  0  0  0  0  0  0
    0.7055   -0.4023    3.8359 H   0  0  0  0  0  0  0  0  0  0  0  0
  1  2  1  0  0  0  0
  2  3  1  0  0  0  0
  2  4  1  0  0  0  0
  2  5  1  0  0  0  0
  5  6  2  0  0  0  0
  5  7  1  0  0  0  0
  7  8  1  0  0  0  0
  7  9  1  0  0  0  0
  9 10  1  0  0  0  0
  9 11  1  0  0  0  0
  9 21  1  0  0  0  0
 11 12  1  0  0  0  0
 11 13  1  0  0  0  0
 11 14  1  0  0  0  0
 14 15  1  0  0  0  0
 14 16  1  0  0  0  0
 14 17  1  0  0  0  0
 17 18  2  0  0  0  0
 17 19  1  0  0  0  0
 19 20  1  0  0  0  0
 21 22  2  0  0  0  0
 21 23  1  0  0  0  0
 23 24  1  0  0  0  0
 23 25  1  0  0  0  0
 25 26  1  0  0  0  0
 25 27  1  0  0  0  0
 25 28  1  0  0  0  0
M  END
$$$$

  -OEChem-02102214123D

 28 27  0     1  0  0  0  0  0999 V2000
   -2.4859   -4.3401    0.6931 H   0  0  0  0  0  0  0  0  0  0  0  0
   -2.5450   -3.3795    0.1734 C   0  0  0  0  0  0  0  0  0  0  0  0
   -3.2850   -2.7527    0.6764 H   0  0  0  0  0  0  0  0  0  0  0  0
   -2.8647   -3.5566   -0.8562 H   0  0  0  0  0  0  0  0  0  0  0  0
   -1.1907   -2.6966    0.1833 C   0  0  0  0  0  0  0  0  0  0  0  0
   -0.2369   -3.2426    0.7071 O   0  0  0  0  0  0  0  0  0  0  0  0
   -1.0527   -1.4487   -0.3902 N   0  0  0  0  0  0  0  0  0  0  0  0
   -1.9052   -1.0106   -0.7325 H   0  0  0  0  0  0  0  0  0  0  0  0
    0.1960   -0.6652   -0.3922 C   0  0  1  0  0  0  0  0  0  0  0  0
    0.9584   -1.3250   -0.8238 H   0  0  0  0  0  0  0  0  0  0  0  0
    0.1989    0.6279   -1.2667 C   0  0  0  0  0  0  0  0  0  0  0  0
    0.4896    1.4784   -0.6395 H   0  0  0  0  0  0  0  0  0  0  0  0
    1.0173    0.4920   -1.9825 H   0  0  0  0  0  0  0  0  0  0  0  0
   -1.0306    1.0837   -2.1022 C   0  0  0  0  0  0  0  0  0  0  0  0
   -1.6340    1.7378   -1.4662 H   0  0  0  0  0  0  0  0  0  0  0  0
   -0.6757    1.6961   -2.9367 H   0  0  0  0  0  0  0  0  0  0  0  0
   -1.9799    0.0269   -2.6594 C   0  0  0  0  0  0  0  0  0  0  0  0
   -1.6727   -0.5344   -3.6944 O   0  0  0  0  0  0  0  0  0  0  0  0
   -3.1250   -0.2338   -1.9812 O   0  0  0  0  0  0  0  0  0  0  0  0
   -3.6254   -0.8440   -2.5487 H   0  0  0  0  0  0  0  0  0  0  0  0
    0.7108   -0.3333    1.0279 C   0  0  0  0  0  0  0  0  0  0  0  0
    1.9122   -0.2130    1.2267 O   0  0  0  0  0  0  0  0  0  0  0  0
   -0.1732    0.1172    1.9920 N   0  0  0  0  0  0  0  0  0  0  0  0
   -1.1571   -0.0548    1.8155 H   0  0  0  0  0  0  0  0  0  0  0  0
    0.2462    0.4912    3.3372 C   0  0  0  0  0  0  0  0  0  0  0  0
    0.9924    1.2919    3.2987 H   0  0  0  0  0  0  0  0  0  0  0  0
   -0.6111    0.8490    3.9152 H   0  0  0  0  0  0  0  0  0  0  0  0
    0.6808   -0.3699    3.8556 H   0  0  0  0  0  0  0  0  0  0  0  0
  1  2  1  0  0  0  0
  2  3  1  0  0  0  0
  2  4  1  0  0  0  0
  2  5  1  0  0  0  0
  5  6  2  0  0  0  0
  5  7  1  0  0  0  0
  7  8  1  0  0  0  0
  7  9  1  0  0  0  0
  9 10  1  0  0  0  0
  9 11  1  0  0  0  0
  9 21  1  0  0  0  0
 11 12  1  0  0  0  0
 11 13  1  0  0  0  0
 11 14  1  0  0  0  0
 14 15  1  0  0  0  0
 14 16  1  0  0  0  0
 14 17  1  0  0  0  0
 17 18  2  0  0  0  0
 17 19  1  0  0  0  0
 19 20  1  0  0  0  0
 21 22  2  0  0  0  0
 21 23  1  0  0  0  0
 23 24  1  0  0  0  0
 23 25  1  0  0  0  0
 25 26  1  0  0  0  0
 25 27  1  0  0  0  0
 25 28  1  0  0  0  0
M  END
$$$$

  -OEChem-02102214123D

 28 27  0     1  0  0  0  0  0999 V2000
   -2.2440   -4.4175    0.9157 H   0  0  0  0  0  0  0  0  0  0  0  0
   -2.3858   -3.4730    0.3826 C   0  0  0  0  0  0  0  0  0  0  0  0
   -3.1037   -2.8621    0.9345 H   0  0  0  0  0  0  0  0  0  0  0  0
   -2.7852   -3.6875   -0.6116 H   0  0  0  0  0  0  0  0  0  0  0  0
   -1.0638   -2.7396    0.2607 C   0  0  0  0  0  0  0  0  0  0  0  0
   -0.0485   -3.2352    0.7148 O   0  0  0  0  0  0  0  0  0  0  0  0
   -1.0243   -1.5024   -0.3508 N   0  0  0  0  0  0  0  0  0  0  0  0
   -1.9234   -1.0881   -0.5835 H   0  0  0  0  0  0  0  0  0  0  0  0
    0.1783   -0.6552   -0.4300 C   0  0  1  0  0  0  0  0  0  0  0  0
    0.9539   -1.2906   -0.8744 H   0  0  0  0  0  0  0  0  0  0  0  0
    0.0912    0.6116   -1.3403 C   0  0  0  0  0  0  0  0  0  0  0  0
    0.3705    1.4864   -0.7418 H   0  0  0  0  0  0  0  0  0  0  0  0
    0.8956    0.4906   -2.0745 H   0  0  0  0  0  0  0  0  0  0  0  0
   -1.1725    1.0198   -2.1573 C   0  0  0  0  0  0  0  0  0  0  0  0
   -1.6268    1.8711   -1.6423 H   0  0  0  0  0  0  0  0  0  0  0  0
   -0.8418    1.3894   -3.1331 H   0  0  0  0  0  0  0  0  0  0  0  0
   -2.3034    0.0240   -2.3948 C   0  0  0  0  0  0  0  0  0  0  0  0
   -2.2986   -0.6197   -3.4275 O   0  0  0  0  0  0  0  0  0  0  0  0
   -3.2756   -0.0847   -1.4555 O   0  0  0  0  0  0  0  0  0  0  0  0
   -3.9527   -0.6586   -1.8520 H   0  0  0  0  0  0  0  0  0  0  0  0
    0.7350   -0.2597    0.9578 C   0  0  0  0  0  0  0  0  0  0  0  0
    1.9363   -0.0791    1.1030 O   0  0  0  0  0  0  0  0  0  0  0  0
   -0.1285    0.1692    1.9499 N   0  0  0  0  0  0  0  0  0  0  0  0
   -1.1128   -0.0325    1.8124 H   0  0  0  0  0  0  0  0  0  0  0  0
    0.3274    0.6002    3.2656 C   0  0  0  0  0  0  0  0  0  0  0  0
    1.0134    1.4491    3.1754 H   0  0  0  0  0  0  0  0  0  0  0  0
   -0.5239    0.9098    3.8792 H   0  0  0  0  0  0  0  0  0  0  0  0
    0.8454   -0.2183    3.7767 H   0  0  0  0  0  0  0  0  0  0  0  0
  1  2  1  0  0  0  0
  2  3  1  0  0  0  0
  2  4  1  0  0  0  0
  2  5  1  0  0  0  0
  5  6  2  0  0  0  0
  5  7  1  0  0  0  0
  7  8  1  0  0  0  0
  7  9  1  0  0  0  0
  9 10  1  0  0  0  0
  9 11  1  0  0  0  0
  9 21  1  0  0  0  0
 11 12  1  0  0  0  0
 11 13  1  0  0  0  0
 11 14  1  0  0  0  0
 14 15  1  0  0  0  0
 14 16  1  0  0  0  0
 14 17  1  0  0  0  0
 17 18  2  0  0  0  0
 17 19  1  0  0  0  0
 19 20  1  0  0  0  0
 21 22  2  0  0  0  0
 21 23  1  0  0  0  0
 23 24  1  0  0  0  0
 23 25  1  0  0  0  0
 25 26  1  0  0  0  0
 25 27  1  0  0  0  0
 25 28  1  0  0  0  0
M  END
$$$$

  -OEChem-02102214123D

 28 27  0     1  0  0  0  0  0999 V2000
   -2.0226   -4.4478    1.1641 H   0  0  0  0  0  0  0  0  0  0  0  0
   -2.2197   -3.5381    0.5897 C   0  0  0  0  0  0  0  0  0  0  0  0
   -2.9593   -2.9380    1.1247 H   0  0  0  0  0  0  0  0  0  0  0  0
   -2.6226   -3.8193   -0.3865 H   0  0  0  0  0  0  0  0  0  0  0  0
   -0.9382   -2.7470    0.4100 C   0  0  0  0  0  0  0  0  0  0  0  0
    0.1054   -3.1609    0.8812 O   0  0  0  0  0  0  0  0  0  0  0  0
   -0.9682   -1.5518   -0.2800 N   0  0  0  0  0  0  0  0  0  0  0  0
   -1.8908   -1.1947   -0.5087 H   0  0  0  0  0  0  0  0  0  0  0  0
    0.1812   -0.6394   -0.4051 C   0  0  1  0  0  0  0  0  0  0  0  0
    0.9982   -1.2563   -0.7983 H   0  0  0  0  0  0  0  0  0  0  0  0
    0.0376    0.5542   -1.4044 C   0  0  0  0  0  0  0  0  0  0  0  0
    0.2284    1.4767   -0.8437 H   0  0  0  0  0  0  0  0  0  0  0  0
    0.8763    0.4606   -2.1031 H   0  0  0  0  0  0  0  0  0  0  0  0
   -1.2293    0.8396   -2.2711 C   0  0  0  0  0  0  0  0  0  0  0  0
   -1.5737    1.8489   -2.0279 H   0  0  0  0  0  0  0  0  0  0  0  0
   -0.9102    0.8665   -3.3181 H   0  0  0  0  0  0  0  0  0  0  0  0
   -2.4587   -0.0606   -2.1998 C   0  0  0  0  0  0  0  0  0  0  0  0
   -2.6900   -0.8075   -3.1324 O   0  0  0  0  0  0  0  0  0  0  0  0
   -3.2527    0.0257   -1.1041 O   0  0  0  0  0  0  0  0  0  0  0  0
   -4.0414   -0.5029   -1.3115 H   0  0  0  0  0  0  0  0  0  0  0  0
    0.6974   -0.1218    0.9581 C   0  0  0  0  0  0  0  0  0  0  0  0
    1.8843    0.1383    1.1011 O   0  0  0  0  0  0  0  0  0  0  0  0
   -0.2008    0.3167    1.9147 N   0  0  0  0  0  0  0  0  0  0  0  0
   -1.1758    0.0774    1.7706 H   0  0  0  0  0  0  0  0  0  0  0  0
    0.2113    0.8800    3.1944 C   0  0  0  0  0  0  0  0  0  0  0  0
    0.7980    1.7919    3.0406 H   0  0  0  0  0  0  0  0  0  0  0  0
   -0.6659    1.1317    3.7979 H   0  0  0  0  0  0  0  0  0  0  0  0
    0.8200    0.1593    3.7507 H   0  0  0  0  0  0  0  0  0  0  0  0
  1  2  1  0  0  0  0
  2  3  1  0  0  0  0
  2  4  1  0  0  0  0
  2  5  1  0  0  0  0
  5  6  2  0  0  0  0
  5  7  1  0  0  0  0
  7  8  1  0  0  0  0
  7  9  1  0  0  0  0
  9 10  1  0  0  0  0
  9 11  1  0  0  0  0
  9 21  1  0  0  0  0
 11 12  1  0  0  0  0
 11 13  1  0  0  0  0
 11 14  1  0  0  0  0
 14 15  1  0  0  0  0
 14 16  1  0  0  0  0
 14 17  1  0  0  0  0
 17 18  2  0  0  0  0
 17 19  1  0  0  0  0
 19 20  1  0  0  0  0
 21 22  2  0  0  0  0
 21 23  1  0  0  0  0
 23 24  1  0  0  0  0
 23 25  1  0  0  0  0
 25 26  1  0  0  0  0
 25 27  1  0  0  0  0
 25 28  1  0  0  0  0
M  END
$$$$

  -OEChem-02102214123D

 28 27  0     1  0  0  0  0  0999 V2000
   -2.0422   -4.6001    0.1472 H   0  0  0  0  0  0  0  0  0  0  0  0
   -2.2559   -3.5821   -0.1907 C   0  0  0  0  0  0  0  0  0  0  0  0
   -3.1038   -3.1931    0.3779 H   0  0  0  0  0  0  0  0  0  0  0  0
   -2.5181   -3.6118   -1.2511 H   0  0  0  0  0  0  0  0  0  0  0  0
   -1.0423   -2.6967    0.0191 C   0  0  0  0  0  0  0  0  0  0  0  0
   -0.0391   -3.1569    0.5327 O   0  0  0  0  0  0  0  0  0  0  0  0
   -1.0911   -1.3774   -0.3873 N   0  0  0  0  0  0  0  0  0  0  0  0
   -1.8736   -1.1609   -0.9992 H   0  0  0  0  0  0  0  0  0  0  0  0
    0.0940   -0.5040   -0.4811 C   0  0  1  0  0  0  0  0  0  0  0  0
    0.8061   -1.0163   -1.1383 H   0  0  0  0  0  0  0  0  0  0  0  0
   -0.1417    0.9217   -1.0856 C   0  0  0  0  0  0  0  0  0  0  0  0
    0.1927    1.6512   -0.3382 H   0  0  0  0  0  0  0  0  0  0  0  0
    0.5562    1.0256   -1.9235 H   0  0  0  0  0  0  0  0  0  0  0  0
   -1.5252    1.4501   -1.5743 C   0  0  0  0  0  0  0  0  0  0  0  0
   -1.6205    2.4963   -1.2674 H   0  0  0  0  0  0  0  0  0  0  0  0
   -1.5048    1.4490   -2.6680 H   0  0  0  0  0  0  0  0  0  0  0  0
   -2.8090    0.7312   -1.1753 C   0  0  0  0  0  0  0  0  0  0  0  0
   -3.3476    1.0511   -0.1315 O   0  0  0  0  0  0  0  0  0  0  0  0
   -3.2789   -0.2474   -1.9862 O   0  0  0  0  0  0  0  0  0  0  0  0
   -4.1469   -0.4947   -1.6267 H   0  0  0  0  0  0  0  0  0  0  0  0
    0.8216   -0.3305    0.8747 C   0  0  0  0  0  0  0  0  0  0  0  0
    2.0341   -0.1630    0.8928 O   0  0  0  0  0  0  0  0  0  0  0  0
    0.0902   -0.0861    2.0223 N   0  0  0  0  0  0  0  0  0  0  0  0
   -0.9057   -0.2784    1.9689 H   0  0  0  0  0  0  0  0  0  0  0  0
    0.7052    0.1031    3.3294 C   0  0  0  0  0  0  0  0  0  0  0  0
    1.3945    0.9540    3.3100 H   0  0  0  0  0  0  0  0  0  0  0  0
   -0.0623    0.2989    4.0843 H   0  0  0  0  0  0  0  0  0  0  0  0
    1.2608   -0.7940    3.6222 H   0  0  0  0  0  0  0  0  0  0  0  0
  1  2  1  0  0  0  0
  2  3  1  0  0  0  0
  2  4  1  0  0  0  0
  2  5  1  0  0  0  0
  5  6  2  0  0  0  0
  5  7  1  0  0  0  0
  7  8  1  0  0  0  0
  7  9  1  0  0  0  0
  9 10  1  0  0  0  0
  9 11  1  0  0  0  0
  9 21  1  0  0  0  0
 11 12  1  0  0  0  0
 11 13  1  0  0  0  0
 11 14  1  0  0  0  0
 14 15  1  0  0  0  0
 14 16  1  0  0  0  0
 14 17  1  0  0  0  0
 17 18  2  0  0  0  0
 17 19  1  0  0  0  0
 19 20  1  0  0  0  0
 21 22  2  0  0  0  0
 21 23  1  0  0  0  0
 23 24  1  0  0  0  0
 23 25  1  0  0  0  0
 25 26  1  0  0  0  0
 25 27  1  0  0  0  0
 25 28  1  0  0  0  0
M  END
$$$$

  -OEChem-02102214123D

 28 27  0     1  0  0  0  0  0999 V2000
   -2.4611   -4.4104    0.4398 H   0  0  0  0  0  0  0  0  0  0  0  0
   -2.5388   -3.4156   -0.0082 C   0  0  0  0  0  0  0  0  0  0  0  0
   -3.3576   -2.8758    0.4731 H   0  0  0  0  0  0  0  0  0  0  0  0
   -2.7585   -3.5262   -1.0727 H   0  0  0  0  0  0  0  0  0  0  0  0
   -1.2389   -2.6566    0.1776 C   0  0  0  0  0  0  0  0  0  0  0  0
   -0.3175   -3.1727    0.7830 O   0  0  0  0  0  0  0  0  0  0  0  0
   -1.1141   -1.3887   -0.3559 N   0  0  0  0  0  0  0  0  0  0  0  0
   -1.8520   -1.1237   -1.0044 H   0  0  0  0  0  0  0  0  0  0  0  0
    0.1575   -0.6413   -0.4207 C   0  0  1  0  0  0  0  0  0  0  0  0
    0.8698   -1.2771   -0.9588 H   0  0  0  0  0  0  0  0  0  0  0  0
    0.1016    0.7297   -1.1726 C   0  0  0  0  0  0  0  0  0  0  0  0
    0.4305    1.5048   -0.4701 H   0  0  0  0  0  0  0  0  0  0  0  0
    0.8639    0.6995   -1.9586 H   0  0  0  0  0  0  0  0  0  0  0  0
   -1.2042    1.2832   -1.8092 C   0  0  0  0  0  0  0  0  0  0  0  0
   -1.1378    2.3742   -1.8577 H   0  0  0  0  0  0  0  0  0  0  0  0
   -1.2458    0.9230   -2.8412 H   0  0  0  0  0  0  0  0  0  0  0  0
   -2.5356    0.9145   -1.1627 C   0  0  0  0  0  0  0  0  0  0  0  0
   -2.8220    1.4305   -0.0975 O   0  0  0  0  0  0  0  0  0  0  0  0
   -3.3136   -0.0088   -1.7775 O   0  0  0  0  0  0  0  0  0  0  0  0
   -4.1406   -0.0373   -1.2686 H   0  0  0  0  0  0  0  0  0  0  0  0
    0.7781   -0.3937    0.9757 C   0  0  0  0  0  0  0  0  0  0  0  0
    1.9950   -0.3463    1.0998 O   0  0  0  0  0  0  0  0  0  0  0  0
   -0.0239    0.0361    2.0167 N   0  0  0  0  0  0  0  0  0  0  0  0
   -1.0276   -0.0060    1.8660 H   0  0  0  0  0  0  0  0  0  0  0  0
    0.4853    0.3403    3.3469 C   0  0  0  0  0  0  0  0  0  0  0  0
    1.2350    1.1369    3.2981 H   0  0  0  0  0  0  0  0  0  0  0  0
   -0.3294    0.6732    3.9970 H   0  0  0  0  0  0  0  0  0  0  0  0
    0.9442   -0.5489    3.7917 H   0  0  0  0  0  0  0  0  0  0  0  0
  1  2  1  0  0  0  0
  2  3  1  0  0  0  0
  2  4  1  0  0  0  0
  2  5  1  0  0  0  0
  5  6  2  0  0  0  0
  5  7  1  0  0  0  0
  7  8  1  0  0  0  0
  7  9  1  0  0  0  0
  9 10  1  0  0  0  0
  9 11  1  0  0  0  0
  9 21  1  0  0  0  0
 11 12  1  0  0  0  0
 11 13  1  0  0  0  0
 11 14  1  0  0  0  0
 14 15  1  0  0  0  0
 14 16  1  0  0  0  0
 14 17  1  0  0  0  0
 17 18  2  0  0  0  0
 17 19  1  0  0  0  0
 19 20  1  0  0  0  0
 21 22  2  0  0  0  0
 21 23  1  0  0  0  0
 23 24  1  0  0  0  0
 23 25  1  0  0  0  0
 25 26  1  0  0  0  0
 25 27  1  0  0  0  0
 25 28  1  0  0  0  0
M  END
$$$$

  -OEChem-02102214123D

 28 27  0     1  0  0  0  0  0999 V2000
   -2.5840   -4.3317    0.3686 H   0  0  0  0  0  0  0  0  0  0  0  0
   -2.6225   -3.3274   -0.0630 C   0  0  0  0  0  0  0  0  0  0  0  0
   -3.4024   -2.7558    0.4453 H   0  0  0  0  0  0  0  0  0  0  0  0
   -2.8720   -3.4101   -1.1235 H   0  0  0  0  0  0  0  0  0  0  0  0
   -1.2818   -2.6375    0.1029 C   0  0  0  0  0  0  0  0  0  0  0  0
   -0.3736   -3.2082    0.6786 O   0  0  0  0  0  0  0  0  0  0  0  0
   -1.1004   -1.3719   -0.4190 N   0  0  0  0  0  0  0  0  0  0  0  0
   -1.8492   -1.0308   -1.0170 H   0  0  0  0  0  0  0  0  0  0  0  0
    0.1927   -0.6561   -0.4337 C   0  0  1  0  0  0  0  0  0  0  0  0
    0.9116   -1.2961   -0.9583 H   0  0  0  0  0  0  0  0  0  0  0  0
    0.1623    0.7232   -1.1653 C   0  0  0  0  0  0  0  0  0  0  0  0
    0.4903    1.4978   -0.4616 H   0  0  0  0  0  0  0  0  0  0  0  0
    0.9204    0.6931   -1.9549 H   0  0  0  0  0  0  0  0  0  0  0  0
   -1.1574    1.2361   -1.7947 C   0  0  0  0  0  0  0  0  0  0  0  0
   -1.0406    2.2895   -2.0651 H   0  0  0  0  0  0  0  0  0  0  0  0
   -1.3326    0.6819   -2.7215 H   0  0  0  0  0  0  0  0  0  0  0  0
   -2.4044    1.0973   -0.9236 C   0  0  0  0  0  0  0  0  0  0  0  0
   -2.4061    1.6117    0.1809 O   0  0  0  0  0  0  0  0  0  0  0  0
   -3.4179    0.3313   -1.3920 O   0  0  0  0  0  0  0  0  0  0  0  0
   -4.1314    0.4059   -0.7372 H   0  0  0  0  0  0  0  0  0  0  0  0
    0.7690   -0.4274    0.9843 C   0  0  0  0  0  0  0  0  0  0  0  0
    1.9808   -0.4282    1.1571 O   0  0  0  0  0  0  0  0  0  0  0  0
   -0.0584    0.0214    1.9975 N   0  0  0  0  0  0  0  0  0  0  0  0
   -1.0388    0.1551    1.7649 H   0  0  0  0  0  0  0  0  0  0  0  0
    0.4232    0.4134    3.3148 C   0  0  0  0  0  0  0  0  0  0  0  0
    1.0913    1.2774    3.2371 H   0  0  0  0  0  0  0  0  0  0  0  0
   -0.4183    0.6812    3.9607 H   0  0  0  0  0  0  0  0  0  0  0  0
    0.9682   -0.4132    3.7829 H   0  0  0  0  0  0  0  0  0  0  0  0
  1  2  1  0  0  0  0
  2  3  1  0  0  0  0
  2  4  1  0  0  0  0
  2  5  1  0  0  0  0
  5  6  2  0  0  0  0
  5  7  1  0  0  0  0
  7  8  1  0  0  0  0
  7  9  1  0  0  0  0
  9 10  1  0  0  0  0
  9 11  1  0  0  0  0
  9 21  1  0  0  0  0
 11 12  1  0  0  0  0
 11 13  1  0  0  0  0
 11 14  1  0  0  0  0
 14 15  1  0  0  0  0
 14 16  1  0  0  0  0
 14 17  1  0  0  0  0
 17 18  2  0  0  0  0
 17 19  1  0  0  0  0
 19 20  1  0  0  0  0
 21 22  2  0  0  0  0
 21 23  1  0  0  0  0
 23 24  1  0  0  0  0
 23 25  1  0  0  0  0
 25 26  1  0  0  0  0
 25 27  1  0  0  0  0
 25 28  1  0  0  0  0
M  END
$$$$

  -OEChem-02102214123D

 28 27  0     1  0  0  0  0  0999 V2000
   -2.4234   -4.3070    0.5797 H   0  0  0  0  0  0  0  0  0  0  0  0
   -2.5148   -3.2906    0.1861 C   0  0  0  0  0  0  0  0  0  0  0  0
   -3.0703   -2.6838    0.9050 H   0  0  0  0  0  0  0  0  0  0  0  0
   -3.0667   -3.3264   -0.7562 H   0  0  0  0  0  0  0  0  0  0  0  0
   -1.1391   -2.6942   -0.0426 C   0  0  0  0  0  0  0  0  0  0  0  0
   -0.1425   -3.3560    0.1869 O   0  0  0  0  0  0  0  0  0  0  0  0
   -1.0282   -1.4013   -0.5140 N   0  0  0  0  0  0  0  0  0  0  0  0
   -1.8906   -0.8660   -0.4907 H   0  0  0  0  0  0  0  0  0  0  0  0
    0.2334   -0.6375   -0.4538 C   0  0  1  0  0  0  0  0  0  0  0  0
    0.9930   -1.2368   -0.9694 H   0  0  0  0  0  0  0  0  0  0  0  0
    0.1691    0.7381   -1.1793 C   0  0  0  0  0  0  0  0  0  0  0  0
    0.4326    1.5271   -0.4653 H   0  0  0  0  0  0  0  0  0  0  0  0
    0.9553    0.7400   -1.9419 H   0  0  0  0  0  0  0  0  0  0  0  0
   -1.1545    1.1631   -1.8668 C   0  0  0  0  0  0  0  0  0  0  0  0
   -0.9924    2.1320   -2.3474 H   0  0  0  0  0  0  0  0  0  0  0  0
   -1.3773    0.4429   -2.6596 H   0  0  0  0  0  0  0  0  0  0  0  0
   -2.4051    1.2919   -0.9908 C   0  0  0  0  0  0  0  0  0  0  0  0
   -2.3587    1.0208    0.1999 O   0  0  0  0  0  0  0  0  0  0  0  0
   -3.5324    1.7005   -1.6149 O   0  0  0  0  0  0  0  0  0  0  0  0
   -4.2205    1.7667   -0.9349 H   0  0  0  0  0  0  0  0  0  0  0  0
    0.7572   -0.4434    0.9880 C   0  0  0  0  0  0  0  0  0  0  0  0
    1.9605   -0.4232    1.2088 O   0  0  0  0  0  0  0  0  0  0  0  0
   -0.1200   -0.0674    1.9894 N   0  0  0  0  0  0  0  0  0  0  0  0
   -1.0761    0.1323    1.7008 H   0  0  0  0  0  0  0  0  0  0  0  0
    0.3135    0.3289    3.3226 C   0  0  0  0  0  0  0  0  0  0  0  0
    0.8961    1.2546    3.2768 H   0  0  0  0  0  0  0  0  0  0  0  0
   -0.5540    0.4937    3.9688 H   0  0  0  0  0  0  0  0  0  0  0  0
    0.9326   -0.4547    3.7722 H   0  0  0  0  0  0  0  0  0  0  0  0
  1  2  1  0  0  0  0
  2  3  1  0  0  0  0
  2  4  1  0  0  0  0
  2  5  1  0  0  0  0
  5  6  2  0  0  0  0
  5  7  1  0  0  0  0
  7  8  1  0  0  0  0
  7  9  1  0  0  0  0
  9 10  1  0  0  0  0
  9 11  1  0  0  0  0
  9 21  1  0  0  0  0
 11 12  1  0  0  0  0
 11 13  1  0  0  0  0
 11 14  1  0  0  0  0
 14 15  1  0  0  0  0
 14 16  1  0  0  0  0
 14 17  1  0  0  0  0
 17 18  2  0  0  0  0
 17 19  1  0  0  0  0
 19 20  1  0  0  0  0
 21 22  2  0  0  0  0
 21 23  1  0  0  0  0
 23 24  1  0  0  0  0
 23 25  1  0  0  0  0
 25 26  1  0  0  0  0
 25 27  1  0  0  0  0
 25 28  1  0  0  0  0
M  END
$$$$

  -OEChem-02102214123D

 28 27  0     1  0  0  0  0  0999 V2000
   -2.4066   -4.3054    0.6026 H   0  0  0  0  0  0  0  0  0  0  0  0
   -2.4965   -3.3103    0.1577 C   0  0  0  0  0  0  0  0  0  0  0  0
   -3.0949   -2.6812    0.8209 H   0  0  0  0  0  0  0  0  0  0  0  0
   -3.0038   -3.4002   -0.8059 H   0  0  0  0  0  0  0  0  0  0  0  0
   -1.1221   -2.6991   -0.0363 C   0  0  0  0  0  0  0  0  0  0  0  0
   -0.1246   -3.3414    0.2401 O   0  0  0  0  0  0  0  0  0  0  0  0
   -1.0114   -1.4154   -0.5311 N   0  0  0  0  0  0  0  0  0  0  0  0
   -1.8805   -0.8873   -0.5550 H   0  0  0  0  0  0  0  0  0  0  0  0
    0.2398   -0.6353   -0.4693 C   0  0  1  0  0  0  0  0  0  0  0  0
    1.0164   -1.2284   -0.9664 H   0  0  0  0  0  0  0  0  0  0  0  0
    0.1492    0.7285   -1.2117 C   0  0  0  0  0  0  0  0  0  0  0  0
    0.4091    1.5420   -0.5242 H   0  0  0  0  0  0  0  0  0  0  0  0
    0.9248    0.7206   -1.9850 H   0  0  0  0  0  0  0  0  0  0  0  0
   -1.1912    1.0888   -1.8980 C   0  0  0  0  0  0  0  0  0  0  0  0
   -1.0030    1.9262   -2.5765 H   0  0  0  0  0  0  0  0  0  0  0  0
   -1.5377    0.2546   -2.5144 H   0  0  0  0  0  0  0  0  0  0  0  0
   -2.3135    1.5166   -0.9471 C   0  0  0  0  0  0  0  0  0  0  0  0
   -2.4710    0.9262    0.1114 O   0  0  0  0  0  0  0  0  0  0  0  0
   -3.0976    2.5416   -1.3503 O   0  0  0  0  0  0  0  0  0  0  0  0
   -3.7437    2.6916   -0.6432 H   0  0  0  0  0  0  0  0  0  0  0  0
    0.7383   -0.4057    0.9756 C   0  0  0  0  0  0  0  0  0  0  0  0
    1.9375   -0.3478    1.2111 O   0  0  0  0  0  0  0  0  0  0  0  0
   -0.1599   -0.0204    1.9547 N   0  0  0  0  0  0  0  0  0  0  0  0
   -1.1283    0.1009    1.6648 H   0  0  0  0  0  0  0  0  0  0  0  0
    0.2420    0.3959    3.2919 C   0  0  0  0  0  0  0  0  0  0  0  0
    0.8474    1.3070    3.2433 H   0  0  0  0  0  0  0  0  0  0  0  0
   -0.6401    0.5963    3.9075 H   0  0  0  0  0  0  0  0  0  0  0  0
    0.8288   -0.3916    3.7770 H   0  0  0  0  0  0  0  0  0  0  0  0
  1  2  1  0  0  0  0
  2  3  1  0  0  0  0
  2  4  1  0  0  0  0
  2  5  1  0  0  0  0
  5  6  2  0  0  0  0
  5  7  1  0  0  0  0
  7  8  1  0  0  0  0
  7  9  1  0  0  0  0
  9 10  1  0  0  0  0
  9 11  1  0  0  0  0
  9 21  1  0  0  0  0
 11 12  1  0  0  0  0
 11 13  1  0  0  0  0
 11 14  1  0  0  0  0
 14 15  1  0  0  0  0
 14 16  1  0  0  0  0
 14 17  1  0  0  0  0
 17 18  2  0  0  0  0
 17 19  1  0  0  0  0
 19 20  1  0  0  0  0
 21 22  2  0  0  0  0
 21 23  1  0  0  0  0
 23 24  1  0  0  0  0
 23 25  1  0  0  0  0
 25 26  1  0  0  0  0
 25 27  1  0  0  0  0
 25 28  1  0  0  0  0
M  END
$$$$

  -OEChem-02102214123D

 28 27  0     1  0  0  0  0  0999 V2000
   -2.3765   -4.3160    0.6087 H   0  0  0  0  0  0  0  0  0  0  0  0
   -2.4763   -3.3262    0.1541 C   0  0  0  0  0  0  0  0  0  0  0  0
   -3.0974   -2.7025    0.8016 H   0  0  0  0  0  0  0  0  0  0  0  0
   -2.9650   -3.4327   -0.8173 H   0  0  0  0  0  0  0  0  0  0  0  0
   -1.1093   -2.6928   -0.0205 C   0  0  0  0  0  0  0  0  0  0  0  0
   -0.1079   -3.3042    0.3069 O   0  0  0  0  0  0  0  0  0  0  0  0
   -1.0082   -1.4210   -0.5478 N   0  0  0  0  0  0  0  0  0  0  0  0
   -1.8855   -0.9131   -0.6375 H   0  0  0  0  0  0  0  0  0  0  0  0
    0.2326   -0.6215   -0.5000 C   0  0  1  0  0  0  0  0  0  0  0  0
    1.0229   -1.2084   -0.9827 H   0  0  0  0  0  0  0  0  0  0  0  0
    0.1141    0.7305   -1.2569 C   0  0  0  0  0  0  0  0  0  0  0  0
    0.3785    1.5648   -0.5959 H   0  0  0  0  0  0  0  0  0  0  0  0
    0.8744    0.7155   -2.0452 H   0  0  0  0  0  0  0  0  0  0  0  0
   -1.2469    1.0248   -1.9288 C   0  0  0  0  0  0  0  0  0  0  0  0
   -1.0674    1.6954   -2.7745 H   0  0  0  0  0  0  0  0  0  0  0  0
   -1.7189    0.1318   -2.3452 H   0  0  0  0  0  0  0  0  0  0  0  0
   -2.1852    1.7491   -0.9713 C   0  0  0  0  0  0  0  0  0  0  0  0
   -2.6079    1.1144   -0.0156 O   0  0  0  0  0  0  0  0  0  0  0  0
   -2.4909    3.0440   -1.2124 O   0  0  0  0  0  0  0  0  0  0  0  0
   -3.0798    3.3274   -0.4964 H   0  0  0  0  0  0  0  0  0  0  0  0
    0.7112   -0.3517    0.9441 C   0  0  0  0  0  0  0  0  0  0  0  0
    1.9061   -0.2668    1.1923 O   0  0  0  0  0  0  0  0  0  0  0  0
   -0.2061    0.0435    1.9017 N   0  0  0  0  0  0  0  0  0  0  0  0
   -1.1800    0.1012    1.6130 H   0  0  0  0  0  0  0  0  0  0  0  0
    0.1672    0.4647    3.2454 C   0  0  0  0  0  0  0  0  0  0  0  0
    0.7876    1.3661    3.2066 H   0  0  0  0  0  0  0  0  0  0  0  0
   -0.7279    0.6840    3.8351 H   0  0  0  0  0  0  0  0  0  0  0  0
    0.7288   -0.3277    3.7516 H   0  0  0  0  0  0  0  0  0  0  0  0
  1  2  1  0  0  0  0
  2  3  1  0  0  0  0
  2  4  1  0  0  0  0
  2  5  1  0  0  0  0
  5  6  2  0  0  0  0
  5  7  1  0  0  0  0
  7  8  1  0  0  0  0
  7  9  1  0  0  0  0
  9 10  1  0  0  0  0
  9 11  1  0  0  0  0
  9 21  1  0  0  0  0
 11 12  1  0  0  0  0
 11 13  1  0  0  0  0
 11 14  1  0  0  0  0
 14 15  1  0  0  0  0
 14 16  1  0  0  0  0
 14 17  1  0  0  0  0
 17 18  2  0  0  0  0
 17 19  1  0  0  0  0
 19 20  1  0  0  0  0
 21 22  2  0  0  0  0
 21 23  1  0  0  0  0
 23 24  1  0  0  0  0
 23 25  1  0  0  0  0
 25 26  1  0  0  0  0
 25 27  1  0  0  0  0
 25 28  1  0  0  0  0
M  END
$$$$

  -OEChem-02102214123D

 28 27  0     1  0  0  0  0  0999 V2000
   -2.3703   -4.3619    0.5865 H   0  0  0  0  0  0  0  0  0  0  0  0
   -2.4796   -3.3712    0.1358 C   0  0  0  0  0  0  0  0  0  0  0  0
   -3.1294   -2.7659    0.7723 H   0  0  0  0  0  0  0  0  0  0  0  0
   -2.9424   -3.4816   -0.8478 H   0  0  0  0  0  0  0  0  0  0  0  0
   -1.1221   -2.7085   -0.0014 C   0  0  0  0  0  0  0  0  0  0  0  0
   -0.1175   -3.2999    0.3510 O   0  0  0  0  0  0  0  0  0  0  0  0
   -1.0329   -1.4339   -0.5250 N   0  0  0  0  0  0  0  0  0  0  0  0
   -1.9133   -0.9527   -0.6813 H   0  0  0  0  0  0  0  0  0  0  0  0
    0.2010   -0.6237   -0.4937 C   0  0  1  0  0  0  0  0  0  0  0  0
    0.9866   -1.2072   -0.9879 H   0  0  0  0  0  0  0  0  0  0  0  0
    0.0729    0.7289   -1.2491 C   0  0  0  0  0  0  0  0  0  0  0  0
    0.3545    1.5583   -0.5887 H   0  0  0  0  0  0  0  0  0  0  0  0
    0.8291    0.7116   -2.0414 H   0  0  0  0  0  0  0  0  0  0  0  0
   -1.2885    1.0444   -1.9203 C   0  0  0  0  0  0  0  0  0  0  0  0
   -1.0821    1.4947   -2.8960 H   0  0  0  0  0  0  0  0  0  0  0  0
   -1.9037    0.1676   -2.1251 H   0  0  0  0  0  0  0  0  0  0  0  0
   -2.0657    2.0739   -1.1121 C   0  0  0  0  0  0  0  0  0  0  0  0
   -2.5101    1.7096   -0.0343 O   0  0  0  0  0  0  0  0  0  0  0  0
   -2.2170    3.3221   -1.6100 O   0  0  0  0  0  0  0  0  0  0  0  0
   -2.7216    3.8216   -0.9498 H   0  0  0  0  0  0  0  0  0  0  0  0
    0.7064   -0.3484    0.9413 C   0  0  0  0  0  0  0  0  0  0  0  0
    1.9063   -0.2586    1.1626 O   0  0  0  0  0  0  0  0  0  0  0  0
   -0.1897    0.0398    1.9218 N   0  0  0  0  0  0  0  0  0  0  0  0
   -1.1658    0.1184    1.6505 H   0  0  0  0  0  0  0  0  0  0  0  0
    0.2164    0.4822    3.2494 C   0  0  0  0  0  0  0  0  0  0  0  0
    0.8284    1.3875    3.1811 H   0  0  0  0  0  0  0  0  0  0  0  0
   -0.6642    0.7032    3.8601 H   0  0  0  0  0  0  0  0  0  0  0  0
    0.7971   -0.2990    3.7514 H   0  0  0  0  0  0  0  0  0  0  0  0
  1  2  1  0  0  0  0
  2  3  1  0  0  0  0
  2  4  1  0  0  0  0
  2  5  1  0  0  0  0
  5  6  2  0  0  0  0
  5  7  1  0  0  0  0
  7  8  1  0  0  0  0
  7  9  1  0  0  0  0
  9 10  1  0  0  0  0
  9 11  1  0  0  0  0
  9 21  1  0  0  0  0
 11 12  1  0  0  0  0
 11 13  1  0  0  0  0
 11 14  1  0  0  0  0
 14 15  1  0  0  0  0
 14 16  1  0  0  0  0
 14 17  1  0  0  0  0
 17 18  2  0  0  0  0
 17 19  1  0  0  0  0
 19 20  1  0  0  0  0
 21 22  2  0  0  0  0
 21 23  1  0  0  0  0
 23 24  1  0  0  0  0
 23 25  1  0  0  0  0
 25 26  1  0  0  0  0
 25 27  1  0  0  0  0
 25 28  1  0  0  0  0
M  END
$$$$

  -OEChem-02102214123D

 28 27  0     1  0  0  0  0  0999 V2000
   -2.3497   -4.4079    0.5758 H   0  0  0  0  0  0  0  0  0  0  0  0
   -2.4765   -3.4244    0.1143 C   0  0  0  0  0  0  0  0  0  0  0  0
   -3.1881   -2.8464    0.7086 H   0  0  0  0  0  0  0  0  0  0  0  0
   -2.8761   -3.5580   -0.8939 H   0  0  0  0  0  0  0  0  0  0  0  0
   -1.1438   -2.7028    0.0516 C   0  0  0  0  0  0  0  0  0  0  0  0
   -0.1348   -3.2520    0.4548 O   0  0  0  0  0  0  0  0  0  0  0  0
   -1.0820   -1.4241   -0.4662 N   0  0  0  0  0  0  0  0  0  0  0  0
   -1.9651   -0.9915   -0.7150 H   0  0  0  0  0  0  0  0  0  0  0  0
    0.1395   -0.5945   -0.4755 C   0  0  1  0  0  0  0  0  0  0  0  0
    0.9113   -1.1831   -0.9853 H   0  0  0  0  0  0  0  0  0  0  0  0
    0.0023    0.7435   -1.2582 C   0  0  0  0  0  0  0  0  0  0  0  0
    0.2754    1.5731   -0.5944 H   0  0  0  0  0  0  0  0  0  0  0  0
    0.7660    0.7334   -2.0435 H   0  0  0  0  0  0  0  0  0  0  0  0
   -1.3569    1.0701   -1.9350 C   0  0  0  0  0  0  0  0  0  0  0  0
   -1.1833    1.2117   -3.0060 H   0  0  0  0  0  0  0  0  0  0  0  0
   -2.1004    0.2796   -1.8516 H   0  0  0  0  0  0  0  0  0  0  0  0
   -1.9502    2.3592   -1.3825 C   0  0  0  0  0  0  0  0  0  0  0  0
   -2.5262    2.2978   -0.3090 O   0  0  0  0  0  0  0  0  0  0  0  0
   -1.7991    3.4992   -2.0942 O   0  0  0  0  0  0  0  0  0  0  0  0
   -2.2240    4.2003   -1.5766 H   0  0  0  0  0  0  0  0  0  0  0  0
    0.7020   -0.3098    0.9368 C   0  0  0  0  0  0  0  0  0  0  0  0
    1.9088   -0.1885    1.0976 O   0  0  0  0  0  0  0  0  0  0  0  0
   -0.1505    0.0641    1.9601 N   0  0  0  0  0  0  0  0  0  0  0  0
   -1.1471    0.0208    1.7738 H   0  0  0  0  0  0  0  0  0  0  0  0
    0.3116    0.4577    3.2849 C   0  0  0  0  0  0  0  0  0  0  0  0
    0.9494    1.3455    3.2204 H   0  0  0  0  0  0  0  0  0  0  0  0
   -0.5412    0.6908    3.9295 H   0  0  0  0  0  0  0  0  0  0  0  0
    0.8833   -0.3544    3.7468 H   0  0  0  0  0  0  0  0  0  0  0  0
  1  2  1  0  0  0  0
  2  3  1  0  0  0  0
  2  4  1  0  0  0  0
  2  5  1  0  0  0  0
  5  6  2  0  0  0  0
  5  7  1  0  0  0  0
  7  8  1  0  0  0  0
  7  9  1  0  0  0  0
  9 10  1  0  0  0  0
  9 11  1  0  0  0  0
  9 21  1  0  0  0  0
 11 12  1  0  0  0  0
 11 13  1  0  0  0  0
 11 14  1  0  0  0  0
 14 15  1  0  0  0  0
 14 16  1  0  0  0  0
 14 17  1  0  0  0  0
 17 18  2  0  0  0  0
 17 19  1  0  0  0  0
 19 20  1  0  0  0  0
 21 22  2  0  0  0  0
 21 23  1  0  0  0  0
 23 24  1  0  0  0  0
 23 25  1  0  0  0  0
 25 26  1  0  0  0  0
 25 27  1  0  0  0  0
 25 28  1  0  0  0  0
M  END
$$$$

  -OEChem-02102214123D

 28 27  0     1  0  0  0  0  0999 V2000
   -2.4941   -4.3497    0.4362 H   0  0  0  0  0  0  0  0  0  0  0  0
   -2.5256   -3.4042   -0.1130 C   0  0  0  0  0  0  0  0  0  0  0  0
   -3.3813   -2.8225    0.2383 H   0  0  0  0  0  0  0  0  0  0  0  0
   -2.6508   -3.6207   -1.1766 H   0  0  0  0  0  0  0  0  0  0  0  0
   -1.2419   -2.6274    0.1106 C   0  0  0  0  0  0  0  0  0  0  0  0
   -0.3561   -3.1047    0.7955 O   0  0  0  0  0  0  0  0  0  0  0  0
   -1.0905   -1.3796   -0.4625 N   0  0  0  0  0  0  0  0  0  0  0  0
   -1.8129   -1.0997   -1.1168 H   0  0  0  0  0  0  0  0  0  0  0  0
    0.1644   -0.5995   -0.4323 C   0  0  1  0  0  0  0  0  0  0  0  0
    0.9416   -1.2379   -0.8685 H   0  0  0  0  0  0  0  0  0  0  0  0
    0.1232    0.7101   -1.2750 C   0  0  0  0  0  0  0  0  0  0  0  0
    0.3640    1.5482   -0.6094 H   0  0  0  0  0  0  0  0  0  0  0  0
    0.9398    0.6695   -2.0041 H   0  0  0  0  0  0  0  0  0  0  0  0
   -1.1835    1.0590   -2.0373 C   0  0  0  0  0  0  0  0  0  0  0  0
   -1.0615    0.8305   -3.1005 H   0  0  0  0  0  0  0  0  0  0  0  0
   -2.0447    0.4980   -1.6779 H   0  0  0  0  0  0  0  0  0  0  0  0
   -1.5458    2.5291   -1.8568 C   0  0  0  0  0  0  0  0  0  0  0  0
   -1.2968    3.3068   -2.7604 O   0  0  0  0  0  0  0  0  0  0  0  0
   -2.1322    2.8922   -0.6924 O   0  0  0  0  0  0  0  0  0  0  0  0
   -2.2716    3.8503   -0.7549 H   0  0  0  0  0  0  0  0  0  0  0  0
    0.6522   -0.2654    0.9976 C   0  0  0  0  0  0  0  0  0  0  0  0
    1.8515   -0.1683    1.2207 O   0  0  0  0  0  0  0  0  0  0  0  0
   -0.2464    0.1923    1.9437 N   0  0  0  0  0  0  0  0  0  0  0  0
   -1.2298    0.0545    1.7352 H   0  0  0  0  0  0  0  0  0  0  0  0
    0.1458    0.5565    3.2989 C   0  0  0  0  0  0  0  0  0  0  0  0
    0.8850    1.3643    3.2807 H   0  0  0  0  0  0  0  0  0  0  0  0
   -0.7245    0.8999    3.8660 H   0  0  0  0  0  0  0  0  0  0  0  0
    0.5796   -0.3065    3.8150 H   0  0  0  0  0  0  0  0  0  0  0  0
  1  2  1  0  0  0  0
  2  3  1  0  0  0  0
  2  4  1  0  0  0  0
  2  5  1  0  0  0  0
  5  6  2  0  0  0  0
  5  7  1  0  0  0  0
  7  8  1  0  0  0  0
  7  9  1  0  0  0  0
  9 10  1  0  0  0  0
  9 11  1  0  0  0  0
  9 21  1  0  0  0  0
 11 12  1  0  0  0  0
 11 13  1  0  0  0  0
 11 14  1  0  0  0  0
 14 15  1  0  0  0  0
 14 16  1  0  0  0  0
 14 17  1  0  0  0  0
 17 18  2  0  0  0  0
 17 19  1  0  0  0  0
 19 20  1  0  0  0  0
 21 22  2  0  0  0  0
 21 23  1  0  0  0  0
 23 24  1  0  0  0  0
 23 25  1  0  0  0  0
 25 26  1  0  0  0  0
 25 27  1  0  0  0  0
 25 28  1  0  0  0  0
M  END
$$$$

  -OEChem-02102214123D

 28 27  0     1  0  0  0  0  0999 V2000
   -2.5324   -4.3159    0.4230 H   0  0  0  0  0  0  0  0  0  0  0  0
   -2.5570   -3.3590   -0.1061 C   0  0  0  0  0  0  0  0  0  0  0  0
   -3.4025   -2.7748    0.2646 H   0  0  0  0  0  0  0  0  0  0  0  0
   -2.6944   -3.5518   -1.1727 H   0  0  0  0  0  0  0  0  0  0  0  0
   -1.2621   -2.6025    0.1235 C   0  0  0  0  0  0  0  0  0  0  0  0
   -0.3832   -3.0972    0.8049 O   0  0  0  0  0  0  0  0  0  0  0  0
   -1.0939   -1.3507   -0.4361 N   0  0  0  0  0  0  0  0  0  0  0  0
   -1.8113   -1.0564   -1.0906 H   0  0  0  0  0  0  0  0  0  0  0  0
    0.1781   -0.5975   -0.4193 C   0  0  1  0  0  0  0  0  0  0  0  0
    0.9335   -1.2458   -0.8785 H   0  0  0  0  0  0  0  0  0  0  0  0
    0.1327    0.7129   -1.2585 C   0  0  0  0  0  0  0  0  0  0  0  0
    0.3718    1.5487   -0.5892 H   0  0  0  0  0  0  0  0  0  0  0  0
    0.9358    0.6814   -2.0030 H   0  0  0  0  0  0  0  0  0  0  0  0
   -1.1979    1.0507   -1.9806 C   0  0  0  0  0  0  0  0  0  0  0  0
   -1.2284    0.5692   -2.9618 H   0  0  0  0  0  0  0  0  0  0  0  0
   -2.0536    0.6981   -1.4023 H   0  0  0  0  0  0  0  0  0  0  0  0
   -1.4076    2.5562   -2.1351 C   0  0  0  0  0  0  0  0  0  0  0  0
   -0.4910    3.2384   -2.5590 O   0  0  0  0  0  0  0  0  0  0  0  0
   -2.6173    3.0575   -1.7947 O   0  0  0  0  0  0  0  0  0  0  0  0
   -2.5614    4.0122   -1.9579 H   0  0  0  0  0  0  0  0  0  0  0  0
    0.7076   -0.2874    1.0012 C   0  0  0  0  0  0  0  0  0  0  0  0
    1.9136   -0.2144    1.1945 O   0  0  0  0  0  0  0  0  0  0  0  0
   -0.1574    0.1798    1.9740 N   0  0  0  0  0  0  0  0  0  0  0  0
   -1.1448    0.0184    1.8065 H   0  0  0  0  0  0  0  0  0  0  0  0
    0.2813    0.5163    3.3226 C   0  0  0  0  0  0  0  0  0  0  0  0
    1.0338    1.3115    3.2942 H   0  0  0  0  0  0  0  0  0  0  0  0
   -0.5658    0.8659    3.9204 H   0  0  0  0  0  0  0  0  0  0  0  0
    0.7151   -0.3613    3.8133 H   0  0  0  0  0  0  0  0  0  0  0  0
  1  2  1  0  0  0  0
  2  3  1  0  0  0  0
  2  4  1  0  0  0  0
  2  5  1  0  0  0  0
  5  6  2  0  0  0  0
  5  7  1  0  0  0  0
  7  8  1  0  0  0  0
  7  9  1  0  0  0  0
  9 10  1  0  0  0  0
  9 11  1  0  0  0  0
  9 21  1  0  0  0  0
 11 12  1  0  0  0  0
 11 13  1  0  0  0  0
 11 14  1  0  0  0  0
 14 15  1  0  0  0  0
 14 16  1  0  0  0  0
 14 17  1  0  0  0  0
 17 18  2  0  0  0  0
 17 19  1  0  0  0  0
 19 20  1  0  0  0  0
 21 22  2  0  0  0  0
 21 23  1  0  0  0  0
 23 24  1  0  0  0  0
 23 25  1  0  0  0  0
 25 26  1  0  0  0  0
 25 27  1  0  0  0  0
 25 28  1  0  0  0  0
M  END
$$$$

  -OEChem-02102214123D

 28 27  0     1  0  0  0  0  0999 V2000
   -2.5618   -4.2890    0.3981 H   0  0  0  0  0  0  0  0  0  0  0  0
   -2.5823   -3.3215   -0.1117 C   0  0  0  0  0  0  0  0  0  0  0  0
   -3.4171   -2.7358    0.2804 H   0  0  0  0  0  0  0  0  0  0  0  0
   -2.7340   -3.4917   -1.1803 H   0  0  0  0  0  0  0  0  0  0  0  0
   -1.2763   -2.5844    0.1174 C   0  0  0  0  0  0  0  0  0  0  0  0
   -0.4001   -3.0970    0.7889 O   0  0  0  0  0  0  0  0  0  0  0  0
   -1.0922   -1.3312   -0.4333 N   0  0  0  0  0  0  0  0  0  0  0  0
   -1.8137   -1.0128   -1.0722 H   0  0  0  0  0  0  0  0  0  0  0  0
    0.1911   -0.5965   -0.4165 C   0  0  1  0  0  0  0  0  0  0  0  0
    0.9358   -1.2476   -0.8887 H   0  0  0  0  0  0  0  0  0  0  0  0
    0.1425    0.7192   -1.2426 C   0  0  0  0  0  0  0  0  0  0  0  0
    0.3923    1.5569   -0.5803 H   0  0  0  0  0  0  0  0  0  0  0  0
    0.9289    0.6821   -2.0046 H   0  0  0  0  0  0  0  0  0  0  0  0
   -1.2063    1.0403   -1.9311 C   0  0  0  0  0  0  0  0  0  0  0  0
   -1.3648    0.3664   -2.7773 H   0  0  0  0  0  0  0  0  0  0  0  0
   -2.0241    0.9009   -1.2194 H   0  0  0  0  0  0  0  0  0  0  0  0
   -1.3120    2.4864   -2.4169 C   0  0  0  0  0  0  0  0  0  0  0  0
   -0.2997    3.1207   -2.6595 O   0  0  0  0  0  0  0  0  0  0  0  0
   -2.5589    2.9886   -2.5641 O   0  0  0  0  0  0  0  0  0  0  0  0
   -2.4403    3.8985   -2.8784 H   0  0  0  0  0  0  0  0  0  0  0  0
    0.7350   -0.3029    1.0017 C   0  0  0  0  0  0  0  0  0  0  0  0
    1.9432   -0.2461    1.1865 O   0  0  0  0  0  0  0  0  0  0  0  0
   -0.1169    0.1709    1.9828 N   0  0  0  0  0  0  0  0  0  0  0  0
   -1.1073    0.0199    1.8237 H   0  0  0  0  0  0  0  0  0  0  0  0
    0.3371    0.5042    3.3272 C   0  0  0  0  0  0  0  0  0  0  0  0
    1.0932    1.2959    3.2914 H   0  0  0  0  0  0  0  0  0  0  0  0
   -0.5021    0.8574    3.9341 H   0  0  0  0  0  0  0  0  0  0  0  0
    0.7720   -0.3758    3.8129 H   0  0  0  0  0  0  0  0  0  0  0  0
  1  2  1  0  0  0  0
  2  3  1  0  0  0  0
  2  4  1  0  0  0  0
  2  5  1  0  0  0  0
  5  6  2  0  0  0  0
  5  7  1  0  0  0  0
  7  8  1  0  0  0  0
  7  9  1  0  0  0  0
  9 10  1  0  0  0  0
  9 11  1  0  0  0  0
  9 21  1  0  0  0  0
 11 12  1  0  0  0  0
 11 13  1  0  0  0  0
 11 14  1  0  0  0  0
 14 15  1  0  0  0  0
 14 16  1  0  0  0  0
 14 17  1  0  0  0  0
 17 18  2  0  0  0  0
 17 19  1  0  0  0  0
 19 20  1  0  0  0  0
 21 22  2  0  0  0  0
 21 23  1  0  0  0  0
 23 24  1  0  0  0  0
 23 25  1  0  0  0  0
 25 26  1  0  0  0  0
 25 27  1  0  0  0  0
 25 28  1  0  0  0  0
M  END
$$$$

  -OEChem-02102214123D

 28 27  0     1  0  0  0  0  0999 V2000
   -2.5760   -4.2595    0.4137 H   0  0  0  0  0  0  0  0  0  0  0  0
   -2.5903   -3.2893   -0.0916 C   0  0  0  0  0  0  0  0  0  0  0  0
   -3.4047   -2.6896    0.3221 H   0  0  0  0  0  0  0  0  0  0  0  0
   -2.7694   -3.4516   -1.1572 H   0  0  0  0  0  0  0  0  0  0  0  0
   -1.2660   -2.5770    0.1093 C   0  0  0  0  0  0  0  0  0  0  0  0
   -0.3856   -3.1047    0.7633 O   0  0  0  0  0  0  0  0  0  0  0  0
   -1.0726   -1.3264   -0.4442 N   0  0  0  0  0  0  0  0  0  0  0  0
   -1.8094   -0.9846   -1.0522 H   0  0  0  0  0  0  0  0  0  0  0  0
    0.2147   -0.5985   -0.4326 C   0  0  1  0  0  0  0  0  0  0  0  0
    0.9654   -1.2408   -0.9077 H   0  0  0  0  0  0  0  0  0  0  0  0
    0.1518    0.7282   -1.2366 C   0  0  0  0  0  0  0  0  0  0  0  0
    0.6884    1.5154   -0.6927 H   0  0  0  0  0  0  0  0  0  0  0  0
    0.6948    0.5725   -2.1755 H   0  0  0  0  0  0  0  0  0  0  0  0
   -1.2703    1.2321   -1.5806 C   0  0  0  0  0  0  0  0  0  0  0  0
   -1.7930    0.4880   -2.1863 H   0  0  0  0  0  0  0  0  0  0  0  0
   -1.8339    1.3838   -0.6557 H   0  0  0  0  0  0  0  0  0  0  0  0
   -1.2918    2.5414   -2.3713 C   0  0  0  0  0  0  0  0  0  0  0  0
   -0.2518    3.0345   -2.7728 O   0  0  0  0  0  0  0  0  0  0  0  0
   -2.5086    3.0881   -2.5923 O   0  0  0  0  0  0  0  0  0  0  0  0
   -2.3444    3.9008   -3.0959 H   0  0  0  0  0  0  0  0  0  0  0  0
    0.7510   -0.3108    0.9897 C   0  0  0  0  0  0  0  0  0  0  0  0
    1.9582   -0.2657    1.1846 O   0  0  0  0  0  0  0  0  0  0  0  0
   -0.1041    0.1656    1.9670 N   0  0  0  0  0  0  0  0  0  0  0  0
   -1.0939    0.0188    1.8015 H   0  0  0  0  0  0  0  0  0  0  0  0
    0.3433    0.4789    3.3185 C   0  0  0  0  0  0  0  0  0  0  0  0
    1.1102    1.2605    3.2970 H   0  0  0  0  0  0  0  0  0  0  0  0
   -0.4959    0.8375    3.9219 H   0  0  0  0  0  0  0  0  0  0  0  0
    0.7619   -0.4119    3.7988 H   0  0  0  0  0  0  0  0  0  0  0  0
  1  2  1  0  0  0  0
  2  3  1  0  0  0  0
  2  4  1  0  0  0  0
  2  5  1  0  0  0  0
  5  6  2  0  0  0  0
  5  7  1  0  0  0  0
  7  8  1  0  0  0  0
  7  9  1  0  0  0  0
  9 10  1  0  0  0  0
  9 11  1  0  0  0  0
  9 21  1  0  0  0  0
 11 12  1  0  0  0  0
 11 13  1  0  0  0  0
 11 14  1  0  0  0  0
 14 15  1  0  0  0  0
 14 16  1  0  0  0  0
 14 17  1  0  0  0  0
 17 18  2  0  0  0  0
 17 19  1  0  0  0  0
 19 20  1  0  0  0  0
 21 22  2  0  0  0  0
 21 23  1  0  0  0  0
 23 24  1  0  0  0  0
 23 25  1  0  0  0  0
 25 26  1  0  0  0  0
 25 27  1  0  0  0  0
 25 28  1  0  0  0  0
M  END
$$$$

  -OEChem-02102214123D

 28 27  0     1  0  0  0  0  0999 V2000
   -2.5532   -4.2919    0.4106 H   0  0  0  0  0  0  0  0  0  0  0  0
   -2.5950   -3.3042   -0.0577 C   0  0  0  0  0  0  0  0  0  0  0  0
   -3.4027   -2.7304    0.4026 H   0  0  0  0  0  0  0  0  0  0  0  0
   -2.8068   -3.4303   -1.1221 H   0  0  0  0  0  0  0  0  0  0  0  0
   -1.2733   -2.5825    0.1268 C   0  0  0  0  0  0  0  0  0  0  0  0
   -0.3773   -3.1095    0.7600 O   0  0  0  0  0  0  0  0  0  0  0  0
   -1.0976   -1.3280   -0.4243 N   0  0  0  0  0  0  0  0  0  0  0  0
   -1.8502   -0.9868   -1.0124 H   0  0  0  0  0  0  0  0  0  0  0  0
    0.1864   -0.5947   -0.4357 C   0  0  1  0  0  0  0  0  0  0  0  0
    0.9286   -1.2365   -0.9245 H   0  0  0  0  0  0  0  0  0  0  0  0
    0.1218    0.7378   -1.2317 C   0  0  0  0  0  0  0  0  0  0  0  0
    0.6858    1.5191   -0.7080 H   0  0  0  0  0  0  0  0  0  0  0  0
    0.6468    0.5597   -2.1769 H   0  0  0  0  0  0  0  0  0  0  0  0
   -1.2913    1.2767   -1.5688 C   0  0  0  0  0  0  0  0  0  0  0  0
   -1.9174    0.4764   -1.9674 H   0  0  0  0  0  0  0  0  0  0  0  0
   -1.7635    1.6616   -0.6609 H   0  0  0  0  0  0  0  0  0  0  0  0
   -1.2954    2.3708   -2.6385 C   0  0  0  0  0  0  0  0  0  0  0  0
   -0.2543    2.9159   -2.9627 O   0  0  0  0  0  0  0  0  0  0  0  0
   -2.4964    2.6817   -3.1766 O   0  0  0  0  0  0  0  0  0  0  0  0
   -2.3222    3.3870   -3.8194 H   0  0  0  0  0  0  0  0  0  0  0  0
    0.7487   -0.3132    0.9778 C   0  0  0  0  0  0  0  0  0  0  0  0
    1.9591   -0.2664    1.1506 O   0  0  0  0  0  0  0  0  0  0  0  0
   -0.0894    0.1538    1.9741 N   0  0  0  0  0  0  0  0  0  0  0  0
   -1.0817    0.0059    1.8248 H   0  0  0  0  0  0  0  0  0  0  0  0
    0.3810    0.4538    3.3208 C   0  0  0  0  0  0  0  0  0  0  0  0
    1.1529    1.2302    3.2942 H   0  0  0  0  0  0  0  0  0  0  0  0
   -0.4463    0.8130    3.9401 H   0  0  0  0  0  0  0  0  0  0  0  0
    0.8011   -0.4437    3.7870 H   0  0  0  0  0  0  0  0  0  0  0  0
  1  2  1  0  0  0  0
  2  3  1  0  0  0  0
  2  4  1  0  0  0  0
  2  5  1  0  0  0  0
  5  6  2  0  0  0  0
  5  7  1  0  0  0  0
  7  8  1  0  0  0  0
  7  9  1  0  0  0  0
  9 10  1  0  0  0  0
  9 11  1  0  0  0  0
  9 21  1  0  0  0  0
 11 12  1  0  0  0  0
 11 13  1  0  0  0  0
 11 14  1  0  0  0  0
 14 15  1  0  0  0  0
 14 16  1  0  0  0  0
 14 17  1  0  0  0  0
 17 18  2  0  0  0  0
 17 19  1  0  0  0  0
 19 20  1  0  0  0  0
 21 22  2  0  0  0  0
 21 23  1  0  0  0  0
 23 24  1  0  0  0  0
 23 25  1  0  0  0  0
 25 26  1  0  0  0  0
 25 27  1  0  0  0  0
 25 28  1  0  0  0  0
M  END
$$$$

  -OEChem-02102214123D

 28 27  0     1  0  0  0  0  0999 V2000
   -2.5870   -4.2683    0.5022 H   0  0  0  0  0  0  0  0  0  0  0  0
   -2.6156   -3.3115   -0.0273 C   0  0  0  0  0  0  0  0  0  0  0  0
   -3.4315   -2.7095    0.3796 H   0  0  0  0  0  0  0  0  0  0  0  0
   -2.8045   -3.5022   -1.0864 H   0  0  0  0  0  0  0  0  0  0  0  0
   -1.2958   -2.5829    0.1417 C   0  0  0  0  0  0  0  0  0  0  0  0
   -0.3909   -3.1059    0.7652 O   0  0  0  0  0  0  0  0  0  0  0  0
   -1.1342   -1.3260   -0.4088 N   0  0  0  0  0  0  0  0  0  0  0  0
   -1.8838   -1.0083   -1.0136 H   0  0  0  0  0  0  0  0  0  0  0  0
    0.1511   -0.5961   -0.4512 C   0  0  1  0  0  0  0  0  0  0  0  0
    0.8784   -1.2368   -0.9633 H   0  0  0  0  0  0  0  0  0  0  0  0
    0.0824    0.7517   -1.2255 C   0  0  0  0  0  0  0  0  0  0  0  0
    0.6823    1.5163   -0.7172 H   0  0  0  0  0  0  0  0  0  0  0  0
    0.5798    0.5664   -2.1845 H   0  0  0  0  0  0  0  0  0  0  0  0
   -1.3201    1.3408   -1.5320 C   0  0  0  0  0  0  0  0  0  0  0  0
   -2.0619    0.5561   -1.6761 H   0  0  0  0  0  0  0  0  0  0  0  0
   -1.6514    1.9593   -0.6934 H   0  0  0  0  0  0  0  0  0  0  0  0
   -1.3406    2.1682   -2.8166 C   0  0  0  0  0  0  0  0  0  0  0  0
   -0.4187    2.9310   -3.0477 O   0  0  0  0  0  0  0  0  0  0  0  0
   -2.4005    2.0062   -3.6414 O   0  0  0  0  0  0  0  0  0  0  0  0
   -2.2465    2.6056   -4.3886 H   0  0  0  0  0  0  0  0  0  0  0  0
    0.7462   -0.3267    0.9514 C   0  0  0  0  0  0  0  0  0  0  0  0
    1.9605   -0.2836    1.0967 O   0  0  0  0  0  0  0  0  0  0  0  0
   -0.0686    0.1351    1.9690 N   0  0  0  0  0  0  0  0  0  0  0  0
   -1.0646   -0.0058    1.8386 H   0  0  0  0  0  0  0  0  0  0  0  0
    0.4313    0.4289    3.3061 C   0  0  0  0  0  0  0  0  0  0  0  0
    1.1947    1.2131    3.2661 H   0  0  0  0  0  0  0  0  0  0  0  0
   -0.3843    0.7753    3.9479 H   0  0  0  0  0  0  0  0  0  0  0  0
    0.8710   -0.4680    3.7552 H   0  0  0  0  0  0  0  0  0  0  0  0
  1  2  1  0  0  0  0
  2  3  1  0  0  0  0
  2  4  1  0  0  0  0
  2  5  1  0  0  0  0
  5  6  2  0  0  0  0
  5  7  1  0  0  0  0
  7  8  1  0  0  0  0
  7  9  1  0  0  0  0
  9 10  1  0  0  0  0
  9 11  1  0  0  0  0
  9 21  1  0  0  0  0
 11 12  1  0  0  0  0
 11 13  1  0  0  0  0
 11 14  1  0  0  0  0
 14 15  1  0  0  0  0
 14 16  1  0  0  0  0
 14 17  1  0  0  0  0
 17 18  2  0  0  0  0
 17 19  1  0  0  0  0
 19 20  1  0  0  0  0
 21 22  2  0  0  0  0
 21 23  1  0  0  0  0
 23 24  1  0  0  0  0
 23 25  1  0  0  0  0
 25 26  1  0  0  0  0
 25 27  1  0  0  0  0
 25 28  1  0  0  0  0
M  END
$$$$

  -OEChem-02102214123D

 28 27  0     1  0  0  0  0  0999 V2000
   -2.6725   -4.2220    0.5173 H   0  0  0  0  0  0  0  0  0  0  0  0
   -2.6811   -3.2777   -0.0347 C   0  0  0  0  0  0  0  0  0  0  0  0
   -3.5076   -2.6643    0.3322 H   0  0  0  0  0  0  0  0  0  0  0  0
   -2.8366   -3.4924   -1.0948 H   0  0  0  0  0  0  0  0  0  0  0  0
   -1.3651   -2.5484    0.1591 C   0  0  0  0  0  0  0  0  0  0  0  0
   -0.4715   -3.0713    0.7990 O   0  0  0  0  0  0  0  0  0  0  0  0
   -1.1956   -1.2915   -0.3888 N   0  0  0  0  0  0  0  0  0  0  0  0
   -1.9212   -0.9990   -1.0357 H   0  0  0  0  0  0  0  0  0  0  0  0
    0.1031   -0.5896   -0.4622 C   0  0  1  0  0  0  0  0  0  0  0  0
    0.8013   -1.2412   -1.0004 H   0  0  0  0  0  0  0  0  0  0  0  0
    0.0372    0.7665   -1.2236 C   0  0  0  0  0  0  0  0  0  0  0  0
    0.6647    1.5122   -0.7205 H   0  0  0  0  0  0  0  0  0  0  0  0
    0.5144    0.5847   -2.1935 H   0  0  0  0  0  0  0  0  0  0  0  0
   -1.3564    1.3990   -1.4887 C   0  0  0  0  0  0  0  0  0  0  0  0
   -2.1821    0.7072   -1.3317 H   0  0  0  0  0  0  0  0  0  0  0  0
   -1.5084    2.2313   -0.7947 H   0  0  0  0  0  0  0  0  0  0  0  0
   -1.4714    1.9069   -2.9207 C   0  0  0  0  0  0  0  0  0  0  0  0
   -1.1412    3.0535   -3.1645 O   0  0  0  0  0  0  0  0  0  0  0  0
   -1.9315    1.0419   -3.8543 O   0  0  0  0  0  0  0  0  0  0  0  0
   -1.9270    1.5317   -4.6919 H   0  0  0  0  0  0  0  0  0  0  0  0
    0.7466   -0.3406    0.9228 C   0  0  0  0  0  0  0  0  0  0  0  0
    1.9659   -0.3177    1.0268 O   0  0  0  0  0  0  0  0  0  0  0  0
   -0.0252    0.1329    1.9680 N   0  0  0  0  0  0  0  0  0  0  0  0
   -1.0268    0.0038    1.8714 H   0  0  0  0  0  0  0  0  0  0  0  0
    0.5235    0.3989    3.2919 C   0  0  0  0  0  0  0  0  0  0  0  0
    1.2908    1.1785    3.2396 H   0  0  0  0  0  0  0  0  0  0  0  0
   -0.2666    0.7383    3.9683 H   0  0  0  0  0  0  0  0  0  0  0  0
    0.9720   -0.5090    3.7091 H   0  0  0  0  0  0  0  0  0  0  0  0
  1  2  1  0  0  0  0
  2  3  1  0  0  0  0
  2  4  1  0  0  0  0
  2  5  1  0  0  0  0
  5  6  2  0  0  0  0
  5  7  1  0  0  0  0
  7  8  1  0  0  0  0
  7  9  1  0  0  0  0
  9 10  1  0  0  0  0
  9 11  1  0  0  0  0
  9 21  1  0  0  0  0
 11 12  1  0  0  0  0
 11 13  1  0  0  0  0
 11 14  1  0  0  0  0
 14 15  1  0  0  0  0
 14 16  1  0  0  0  0
 14 17  1  0  0  0  0
 17 18  2  0  0  0  0
 17 19  1  0  0  0  0
 19 20  1  0  0  0  0
 21 22  2  0  0  0  0
 21 23  1  0  0  0  0
 23 24  1  0  0  0  0
 23 25  1  0  0  0  0
 25 26  1  0  0  0  0
 25 27  1  0  0  0  0
 25 28  1  0  0  0  0
M  END
$$$$

  -OEChem-02102214123D

 28 27  0     1  0  0  0  0  0999 V2000
   -2.7147   -4.1901    0.4790 H   0  0  0  0  0  0  0  0  0  0  0  0
   -2.7063   -3.2396   -0.0624 C   0  0  0  0  0  0  0  0  0  0  0  0
   -3.5296   -2.6205    0.3019 H   0  0  0  0  0  0  0  0  0  0  0  0
   -2.8520   -3.4405   -1.1265 H   0  0  0  0  0  0  0  0  0  0  0  0
   -1.3845   -2.5276    0.1542 C   0  0  0  0  0  0  0  0  0  0  0  0
   -0.5129   -3.0578    0.8182 O   0  0  0  0  0  0  0  0  0  0  0  0
   -1.1849   -1.2776   -0.3991 N   0  0  0  0  0  0  0  0  0  0  0  0
   -1.8868   -0.9849   -1.0735 H   0  0  0  0  0  0  0  0  0  0  0  0
    0.1268   -0.5982   -0.4547 C   0  0  1  0  0  0  0  0  0  0  0  0
    0.8236   -1.2626   -0.9789 H   0  0  0  0  0  0  0  0  0  0  0  0
    0.0834    0.7510   -1.2287 C   0  0  0  0  0  0  0  0  0  0  0  0
    0.6941    1.4933   -0.7004 H   0  0  0  0  0  0  0  0  0  0  0  0
    0.5899    0.5831   -2.1859 H   0  0  0  0  0  0  0  0  0  0  0  0
   -1.3064    1.3846   -1.5101 C   0  0  0  0  0  0  0  0  0  0  0  0
   -2.1375    0.8394   -1.0637 H   0  0  0  0  0  0  0  0  0  0  0  0
   -1.3254    2.3814   -1.0587 H   0  0  0  0  0  0  0  0  0  0  0  0
   -1.5604    1.5407   -3.0035 C   0  0  0  0  0  0  0  0  0  0  0  0
   -1.2213    2.5701   -3.5588 O   0  0  0  0  0  0  0  0  0  0  0  0
   -2.1460    0.4994   -3.6397 O   0  0  0  0  0  0  0  0  0  0  0  0
   -2.2163    0.7678   -4.5699 H   0  0  0  0  0  0  0  0  0  0  0  0
    0.7509   -0.3504    0.9393 C   0  0  0  0  0  0  0  0  0  0  0  0
    1.9686   -0.3427    1.0635 O   0  0  0  0  0  0  0  0  0  0  0  0
   -0.0322    0.1433    1.9665 N   0  0  0  0  0  0  0  0  0  0  0  0
   -1.0332    0.0213    1.8544 H   0  0  0  0  0  0  0  0  0  0  0  0
    0.4965    0.4100    3.2982 C   0  0  0  0  0  0  0  0  0  0  0  0
    1.2825    1.1712    3.2534 H   0  0  0  0  0  0  0  0  0  0  0  0
   -0.2983    0.7749    3.9555 H   0  0  0  0  0  0  0  0  0  0  0  0
    0.9156   -0.5035    3.7331 H   0  0  0  0  0  0  0  0  0  0  0  0
  1  2  1  0  0  0  0
  2  3  1  0  0  0  0
  2  4  1  0  0  0  0
  2  5  1  0  0  0  0
  5  6  2  0  0  0  0
  5  7  1  0  0  0  0
  7  8  1  0  0  0  0
  7  9  1  0  0  0  0
  9 10  1  0  0  0  0
  9 11  1  0  0  0  0
  9 21  1  0  0  0  0
 11 12  1  0  0  0  0
 11 13  1  0  0  0  0
 11 14  1  0  0  0  0
 14 15  1  0  0  0  0
 14 16  1  0  0  0  0
 14 17  1  0  0  0  0
 17 18  2  0  0  0  0
 17 19  1  0  0  0  0
 19 20  1  0  0  0  0
 21 22  2  0  0  0  0
 21 23  1  0  0  0  0
 23 24  1  0  0  0  0
 23 25  1  0  0  0  0
 25 26  1  0  0  0  0
 25 27  1  0  0  0  0
 25 28  1  0  0  0  0
M  END
$$$$

  -OEChem-02102214123D

 28 27  0     1  0  0  0  0  0999 V2000
   -2.7921   -4.1294    0.4321 H   0  0  0  0  0  0  0  0  0  0  0  0
   -2.7448   -3.1870   -0.1213 C   0  0  0  0  0  0  0  0  0  0  0  0
   -3.5741   -2.5509    0.1970 H   0  0  0  0  0  0  0  0  0  0  0  0
   -2.8456   -3.4001   -1.1883 H   0  0  0  0  0  0  0  0  0  0  0  0
   -1.4235   -2.4912    0.1450 C   0  0  0  0  0  0  0  0  0  0  0  0
   -0.5891   -3.0256    0.8524 O   0  0  0  0  0  0  0  0  0  0  0  0
   -1.1827   -1.2508   -0.4123 N   0  0  0  0  0  0  0  0  0  0  0  0
   -1.8477   -0.9645   -1.1286 H   0  0  0  0  0  0  0  0  0  0  0  0
    0.1467   -0.6040   -0.4438 C   0  0  1  0  0  0  0  0  0  0  0  0
    0.8380   -1.2848   -0.9536 H   0  0  0  0  0  0  0  0  0  0  0  0
    0.1273    0.7364   -1.2312 C   0  0  0  0  0  0  0  0  0  0  0  0
    0.7174    1.4793   -0.6814 H   0  0  0  0  0  0  0  0  0  0  0  0
    0.6543    0.5815   -2.1796 H   0  0  0  0  0  0  0  0  0  0  0  0
   -1.2649    1.3530   -1.5190 C   0  0  0  0  0  0  0  0  0  0  0  0
   -2.0452    0.9939   -0.8454 H   0  0  0  0  0  0  0  0  0  0  0  0
   -1.1964    2.4317   -1.3462 H   0  0  0  0  0  0  0  0  0  0  0  0
   -1.6744    1.1551   -2.9708 C   0  0  0  0  0  0  0  0  0  0  0  0
   -1.4693    2.0410   -3.7806 O   0  0  0  0  0  0  0  0  0  0  0  0
   -2.2476   -0.0324   -3.2801 O   0  0  0  0  0  0  0  0  0  0  0  0
   -2.4298    0.0096   -4.2331 H   0  0  0  0  0  0  0  0  0  0  0  0
    0.7548   -0.3577    0.9575 C   0  0  0  0  0  0  0  0  0  0  0  0
    1.9706   -0.3741    1.0983 O   0  0  0  0  0  0  0  0  0  0  0  0
   -0.0310    0.1649    1.9681 N   0  0  0  0  0  0  0  0  0  0  0  0
   -1.0325    0.0574    1.8450 H   0  0  0  0  0  0  0  0  0  0  0  0
    0.4859    0.4285    3.3053 C   0  0  0  0  0  0  0  0  0  0  0  0
    1.2919    1.1689    3.2662 H   0  0  0  0  0  0  0  0  0  0  0  0
   -0.3083    0.8186    3.9488 H   0  0  0  0  0  0  0  0  0  0  0  0
    0.8758   -0.4921    3.7525 H   0  0  0  0  0  0  0  0  0  0  0  0
  1  2  1  0  0  0  0
  2  3  1  0  0  0  0
  2  4  1  0  0  0  0
  2  5  1  0  0  0  0
  5  6  2  0  0  0  0
  5  7  1  0  0  0  0
  7  8  1  0  0  0  0
  7  9  1  0  0  0  0
  9 10  1  0  0  0  0
  9 11  1  0  0  0  0
  9 21  1  0  0  0  0
 11 12  1  0  0  0  0
 11 13  1  0  0  0  0
 11 14  1  0  0  0  0
 14 15  1  0  0  0  0
 14 16  1  0  0  0  0
 14 17  1  0  0  0  0
 17 18  2  0  0  0  0
 17 19  1  0  0  0  0
 19 20  1  0  0  0  0
 21 22  2  0  0  0  0
 21 23  1  0  0  0  0
 23 24  1  0  0  0  0
 23 25  1  0  0  0  0
 25 26  1  0  0  0  0
 25 27  1  0  0  0  0
 25 28  1  0  0  0  0
M  END
$$$$

  -OEChem-02102214123D

 28 27  0     1  0  0  0  0  0999 V2000
   -2.4646   -4.3375    0.5093 H   0  0  0  0  0  0  0  0  0  0  0  0
   -2.4923   -3.4135   -0.0753 C   0  0  0  0  0  0  0  0  0  0  0  0
   -3.3734   -2.8375    0.2175 H   0  0  0  0  0  0  0  0  0  0  0  0
   -2.5687   -3.6686   -1.1352 H   0  0  0  0  0  0  0  0  0  0  0  0
   -1.2350   -2.6018    0.1704 C   0  0  0  0  0  0  0  0  0  0  0  0
   -0.3367   -3.0624    0.8514 O   0  0  0  0  0  0  0  0  0  0  0  0
   -1.1244   -1.3402   -0.3781 N   0  0  0  0  0  0  0  0  0  0  0  0
   -1.8446   -1.1084   -1.0632 H   0  0  0  0  0  0  0  0  0  0  0  0
    0.1369   -0.5714   -0.4426 C   0  0  1  0  0  0  0  0  0  0  0  0
    0.8723   -1.1819   -0.9789 H   0  0  0  0  0  0  0  0  0  0  0  0
   -0.0278    0.7660   -1.2183 C   0  0  0  0  0  0  0  0  0  0  0  0
    0.5016    1.5578   -0.6754 H   0  0  0  0  0  0  0  0  0  0  0  0
    0.4787    0.6718   -2.1854 H   0  0  0  0  0  0  0  0  0  0  0  0
   -1.4795    1.2401   -1.4574 C   0  0  0  0  0  0  0  0  0  0  0  0
   -2.1302    0.9945   -0.6135 H   0  0  0  0  0  0  0  0  0  0  0  0
   -1.4737    2.3312   -1.5370 H   0  0  0  0  0  0  0  0  0  0  0  0
   -2.0529    0.7010   -2.7619 C   0  0  0  0  0  0  0  0  0  0  0  0
   -2.6482   -0.3639   -2.7171 O   0  0  0  0  0  0  0  0  0  0  0  0
   -1.8589    1.4101   -3.8969 O   0  0  0  0  0  0  0  0  0  0  0  0
   -2.2830    0.9086   -4.6102 H   0  0  0  0  0  0  0  0  0  0  0  0
    0.7605   -0.2831    0.9437 C   0  0  0  0  0  0  0  0  0  0  0  0
    1.9758   -0.1785    1.0481 O   0  0  0  0  0  0  0  0  0  0  0  0
   -0.0422    0.1533    1.9817 N   0  0  0  0  0  0  0  0  0  0  0  0
   -1.0301   -0.0598    1.8877 H   0  0  0  0  0  0  0  0  0  0  0  0
    0.4849    0.4486    3.3080 C   0  0  0  0  0  0  0  0  0  0  0  0
    1.2261    1.2531    3.2557 H   0  0  0  0  0  0  0  0  0  0  0  0
   -0.3224    0.7676    3.9738 H   0  0  0  0  0  0  0  0  0  0  0  0
    0.9596   -0.4402    3.7374 H   0  0  0  0  0  0  0  0  0  0  0  0
  1  2  1  0  0  0  0
  2  3  1  0  0  0  0
  2  4  1  0  0  0  0
  2  5  1  0  0  0  0
  5  6  2  0  0  0  0
  5  7  1  0  0  0  0
  7  8  1  0  0  0  0
  7  9  1  0  0  0  0
  9 10  1  0  0  0  0
  9 11  1  0  0  0  0
  9 21  1  0  0  0  0
 11 12  1  0  0  0  0
 11 13  1  0  0  0  0
 11 14  1  0  0  0  0
 14 15  1  0  0  0  0
 14 16  1  0  0  0  0
 14 17  1  0  0  0  0
 17 18  2  0  0  0  0
 17 19  1  0  0  0  0
 19 20  1  0  0  0  0
 21 22  2  0  0  0  0
 21 23  1  0  0  0  0
 23 24  1  0  0  0  0
 23 25  1  0  0  0  0
 25 26  1  0  0  0  0
 25 27  1  0  0  0  0
 25 28  1  0  0  0  0
M  END
$$$$

  -OEChem-02102214123D

 28 27  0     1  0  0  0  0  0999 V2000
   -2.4836   -4.3824    0.4761 H   0  0  0  0  0  0  0  0  0  0  0  0
   -2.4999   -3.4429   -0.0836 C   0  0  0  0  0  0  0  0  0  0  0  0
   -3.4096   -2.8955    0.1739 H   0  0  0  0  0  0  0  0  0  0  0  0
   -2.5096   -3.6705   -1.1525 H   0  0  0  0  0  0  0  0  0  0  0  0
   -1.2789   -2.6098    0.2574 C   0  0  0  0  0  0  0  0  0  0  0  0
   -0.4697   -3.0260    1.0667 O   0  0  0  0  0  0  0  0  0  0  0  0
   -1.1071   -1.3815   -0.3497 N   0  0  0  0  0  0  0  0  0  0  0  0
   -1.7099   -1.2422   -1.1591 H   0  0  0  0  0  0  0  0  0  0  0  0
    0.1848   -0.6675   -0.3924 C   0  0  1  0  0  0  0  0  0  0  0  0
    0.9167   -1.3304   -0.8681 H   0  0  0  0  0  0  0  0  0  0  0  0
    0.1236    0.6507   -1.2207 C   0  0  0  0  0  0  0  0  0  0  0  0
    0.6865    1.4290   -0.6919 H   0  0  0  0  0  0  0  0  0  0  0  0
    0.6587    0.4760   -2.1604 H   0  0  0  0  0  0  0  0  0  0  0  0
   -1.2702    1.2332   -1.5723 C   0  0  0  0  0  0  0  0  0  0  0  0
   -1.8849    1.2686   -0.6689 H   0  0  0  0  0  0  0  0  0  0  0  0
   -1.1226    2.2667   -1.8990 H   0  0  0  0  0  0  0  0  0  0  0  0
   -2.0672    0.5322   -2.6767 C   0  0  0  0  0  0  0  0  0  0  0  0
   -1.8149   -0.6219   -2.9814 O   0  0  0  0  0  0  0  0  0  0  0  0
   -3.0521    1.2535   -3.2572 O   0  0  0  0  0  0  0  0  0  0  0  0
   -3.4419    0.6851   -3.9393 H   0  0  0  0  0  0  0  0  0  0  0  0
    0.7580   -0.3355    1.0062 C   0  0  0  0  0  0  0  0  0  0  0  0
    1.9709   -0.2698    1.1607 O   0  0  0  0  0  0  0  0  0  0  0  0
   -0.0722    0.1826    1.9829 N   0  0  0  0  0  0  0  0  0  0  0  0
   -1.0607   -0.0111    1.8582 H   0  0  0  0  0  0  0  0  0  0  0  0
    0.4090    0.5282    3.3143 C   0  0  0  0  0  0  0  0  0  0  0  0
    1.1893    1.2943    3.2536 H   0  0  0  0  0  0  0  0  0  0  0  0
   -0.4106    0.9208    3.9232 H   0  0  0  0  0  0  0  0  0  0  0  0
    0.8219   -0.3552    3.8127 H   0  0  0  0  0  0  0  0  0  0  0  0
  1  2  1  0  0  0  0
  2  3  1  0  0  0  0
  2  4  1  0  0  0  0
  2  5  1  0  0  0  0
  5  6  2  0  0  0  0
  5  7  1  0  0  0  0
  7  8  1  0  0  0  0
  7  9  1  0  0  0  0
  9 10  1  0  0  0  0
  9 11  1  0  0  0  0
  9 21  1  0  0  0  0
 11 12  1  0  0  0  0
 11 13  1  0  0  0  0
 11 14  1  0  0  0  0
 14 15  1  0  0  0  0
 14 16  1  0  0  0  0
 14 17  1  0  0  0  0
 17 18  2  0  0  0  0
 17 19  1  0  0  0  0
 19 20  1  0  0  0  0
 21 22  2  0  0  0  0
 21 23  1  0  0  0  0
 23 24  1  0  0  0  0
 23 25  1  0  0  0  0
 25 26  1  0  0  0  0
 25 27  1  0  0  0  0
 25 28  1  0  0  0  0
M  END
$$$$

  -OEChem-02102214123D

 28 27  0     1  0  0  0  0  0999 V2000
   -2.6236   -4.2262    0.5843 H   0  0  0  0  0  0  0  0  0  0  0  0
   -2.6337   -3.2707    0.0521 C   0  0  0  0  0  0  0  0  0  0  0  0
   -3.3833   -2.6210    0.5100 H   0  0  0  0  0  0  0  0  0  0  0  0
   -2.9056   -3.4517   -0.9905 H   0  0  0  0  0  0  0  0  0  0  0  0
   -1.2659   -2.6192    0.1232 C   0  0  0  0  0  0  0  0  0  0  0  0
   -0.3459   -3.1926    0.6773 O   0  0  0  0  0  0  0  0  0  0  0  0
   -1.0760   -1.3703   -0.4327 N   0  0  0  0  0  0  0  0  0  0  0  0
   -1.8938   -0.9329   -0.8521 H   0  0  0  0  0  0  0  0  0  0  0  0
    0.2037   -0.6349   -0.4256 C   0  0  1  0  0  0  0  0  0  0  0  0
    0.9525   -1.2949   -0.8792 H   0  0  0  0  0  0  0  0  0  0  0  0
    0.2056    0.6846   -1.2530 C   0  0  0  0  0  0  0  0  0  0  0  0
    0.7568    1.4536   -0.6995 H   0  0  0  0  0  0  0  0  0  0  0  0
    0.7860    0.4896   -2.1619 H   0  0  0  0  0  0  0  0  0  0  0  0
   -1.1427    1.2975   -1.7004 C   0  0  0  0  0  0  0  0  0  0  0  0
   -1.7235    1.5583   -0.8112 H   0  0  0  0  0  0  0  0  0  0  0  0
   -0.9440    2.2283   -2.2399 H   0  0  0  0  0  0  0  0  0  0  0  0
   -2.0008    0.4096   -2.5990 C   0  0  0  0  0  0  0  0  0  0  0  0
   -1.6450    0.2380   -3.7499 O   0  0  0  0  0  0  0  0  0  0  0  0
   -3.1155   -0.1522   -2.0705 O   0  0  0  0  0  0  0  0  0  0  0  0
   -3.5483   -0.6078   -2.8124 H   0  0  0  0  0  0  0  0  0  0  0  0
    0.7258   -0.3459    1.0016 C   0  0  0  0  0  0  0  0  0  0  0  0
    1.9305   -0.2784    1.2053 O   0  0  0  0  0  0  0  0  0  0  0  0
   -0.1420    0.1231    1.9715 N   0  0  0  0  0  0  0  0  0  0  0  0
   -1.1302   -0.0223    1.7953 H   0  0  0  0  0  0  0  0  0  0  0  0
    0.2908    0.4524    3.3240 C   0  0  0  0  0  0  0  0  0  0  0  0
    1.0476    1.2437    3.3029 H   0  0  0  0  0  0  0  0  0  0  0  0
   -0.5574    0.8044    3.9185 H   0  0  0  0  0  0  0  0  0  0  0  0
    0.7174   -0.4292    3.8142 H   0  0  0  0  0  0  0  0  0  0  0  0
  1  2  1  0  0  0  0
  2  3  1  0  0  0  0
  2  4  1  0  0  0  0
  2  5  1  0  0  0  0
  5  6  2  0  0  0  0
  5  7  1  0  0  0  0
  7  8  1  0  0  0  0
  7  9  1  0  0  0  0
  9 10  1  0  0  0  0
  9 11  1  0  0  0  0
  9 21  1  0  0  0  0
 11 12  1  0  0  0  0
 11 13  1  0  0  0  0
 11 14  1  0  0  0  0
 14 15  1  0  0  0  0
 14 16  1  0  0  0  0
 14 17  1  0  0  0  0
 17 18  2  0  0  0  0
 17 19  1  0  0  0  0
 19 20  1  0  0  0  0
 21 22  2  0  0  0  0
 21 23  1  0  0  0  0
 23 24  1  0  0  0  0
 23 25  1  0  0  0  0
 25 26  1  0  0  0  0
 25 27  1  0  0  0  0
 25 28  1  0  0  0  0
M  END
$$$$

  -OEChem-02102214123D

 28 27  0     1  0  0  0  0  0999 V2000
   -2.4948   -4.3039    0.6846 H   0  0  0  0  0  0  0  0  0  0  0  0
   -2.5507   -3.3456    0.1602 C   0  0  0  0  0  0  0  0  0  0  0  0
   -3.2703   -2.7045    0.6746 H   0  0  0  0  0  0  0  0  0  0  0  0
   -2.8948   -3.5237   -0.8614 H   0  0  0  0  0  0  0  0  0  0  0  0
   -1.1864   -2.6832    0.1378 C   0  0  0  0  0  0  0  0  0  0  0  0
   -0.2258   -3.2506    0.6252 O   0  0  0  0  0  0  0  0  0  0  0  0
   -1.0460   -1.4311   -0.4263 N   0  0  0  0  0  0  0  0  0  0  0  0
   -1.9054   -0.9714   -0.7171 H   0  0  0  0  0  0  0  0  0  0  0  0
    0.2073   -0.6538   -0.4213 C   0  0  1  0  0  0  0  0  0  0  0  0
    0.9767   -1.2991   -0.8618 H   0  0  0  0  0  0  0  0  0  0  0  0
    0.2000    0.6623   -1.2585 C   0  0  0  0  0  0  0  0  0  0  0  0
    0.7583    1.4351   -0.7175 H   0  0  0  0  0  0  0  0  0  0  0  0
    0.7854    0.4422   -2.1581 H   0  0  0  0  0  0  0  0  0  0  0  0
   -1.1218    1.2996   -1.7614 C   0  0  0  0  0  0  0  0  0  0  0  0
   -1.6004    1.7937   -0.9113 H   0  0  0  0  0  0  0  0  0  0  0  0
   -0.8773    2.0810   -2.4872 H   0  0  0  0  0  0  0  0  0  0  0  0
   -2.1603    0.3773   -2.3936 C   0  0  0  0  0  0  0  0  0  0  0  0
   -1.9838    0.0155   -3.5417 O   0  0  0  0  0  0  0  0  0  0  0  0
   -3.2307    0.0030   -1.6502 O   0  0  0  0  0  0  0  0  0  0  0  0
   -3.8074   -0.4873   -2.2604 H   0  0  0  0  0  0  0  0  0  0  0  0
    0.7105   -0.3442    1.0086 C   0  0  0  0  0  0  0  0  0  0  0  0
    1.9109   -0.2440    1.2234 O   0  0  0  0  0  0  0  0  0  0  0  0
   -0.1782    0.0980    1.9725 N   0  0  0  0  0  0  0  0  0  0  0  0
   -1.1631   -0.0503    1.7811 H   0  0  0  0  0  0  0  0  0  0  0  0
    0.2326    0.4477    3.3268 C   0  0  0  0  0  0  0  0  0  0  0  0
    0.9621    1.2644    3.3082 H   0  0  0  0  0  0  0  0  0  0  0  0
   -0.6319    0.7728    3.9134 H   0  0  0  0  0  0  0  0  0  0  0  0
    0.6852   -0.4169    3.8239 H   0  0  0  0  0  0  0  0  0  0  0  0
  1  2  1  0  0  0  0
  2  3  1  0  0  0  0
  2  4  1  0  0  0  0
  2  5  1  0  0  0  0
  5  6  2  0  0  0  0
  5  7  1  0  0  0  0
  7  8  1  0  0  0  0
  7  9  1  0  0  0  0
  9 10  1  0  0  0  0
  9 11  1  0  0  0  0
  9 21  1  0  0  0  0
 11 12  1  0  0  0  0
 11 13  1  0  0  0  0
 11 14  1  0  0  0  0
 14 15  1  0  0  0  0
 14 16  1  0  0  0  0
 14 17  1  0  0  0  0
 17 18  2  0  0  0  0
 17 19  1  0  0  0  0
 19 20  1  0  0  0  0
 21 22  2  0  0  0  0
 21 23  1  0  0  0  0
 23 24  1  0  0  0  0
 23 25  1  0  0  0  0
 25 26  1  0  0  0  0
 25 27  1  0  0  0  0
 25 28  1  0  0  0  0
M  END
$$$$

  -OEChem-02102214123D

 28 27  0     1  0  0  0  0  0999 V2000
   -2.2858   -4.5358    0.5731 H   0  0  0  0  0  0  0  0  0  0  0  0
   -2.3891   -3.5754    0.0602 C   0  0  0  0  0  0  0  0  0  0  0  0
   -3.2994   -3.0842    0.4117 H   0  0  0  0  0  0  0  0  0  0  0  0
   -2.4729   -3.7588   -1.0139 H   0  0  0  0  0  0  0  0  0  0  0  0
   -1.1845   -2.6988    0.3454 C   0  0  0  0  0  0  0  0  0  0  0  0
   -0.3466   -3.0664    1.1485 O   0  0  0  0  0  0  0  0  0  0  0  0
   -1.0588   -1.4901   -0.3115 N   0  0  0  0  0  0  0  0  0  0  0  0
   -1.6739   -1.4062   -1.1186 H   0  0  0  0  0  0  0  0  0  0  0  0
    0.2002   -0.7235   -0.3773 C   0  0  1  0  0  0  0  0  0  0  0  0
    0.9636   -1.3826   -0.8069 H   0  0  0  0  0  0  0  0  0  0  0  0
    0.1555    0.5799   -1.2409 C   0  0  0  0  0  0  0  0  0  0  0  0
    0.7705    1.3535   -0.7656 H   0  0  0  0  0  0  0  0  0  0  0  0
    0.6804    0.3131   -2.1645 H   0  0  0  0  0  0  0  0  0  0  0  0
   -1.1676    1.2559   -1.7117 C   0  0  0  0  0  0  0  0  0  0  0  0
   -1.4396    1.9771   -0.9352 H   0  0  0  0  0  0  0  0  0  0  0  0
   -0.9570    1.8327   -2.6167 H   0  0  0  0  0  0  0  0  0  0  0  0
   -2.4221    0.4288   -1.9770 C   0  0  0  0  0  0  0  0  0  0  0  0
   -2.3364   -0.5628   -2.6829 O   0  0  0  0  0  0  0  0  0  0  0  0
   -3.5775    0.8379   -1.4041 O   0  0  0  0  0  0  0  0  0  0  0  0
   -4.2705    0.2373   -1.7185 H   0  0  0  0  0  0  0  0  0  0  0  0
    0.7279   -0.3199    1.0215 C   0  0  0  0  0  0  0  0  0  0  0  0
    1.9338   -0.2131    1.2052 O   0  0  0  0  0  0  0  0  0  0  0  0
   -0.1437    0.1939    1.9642 N   0  0  0  0  0  0  0  0  0  0  0  0
   -1.1263   -0.0077    1.8085 H   0  0  0  0  0  0  0  0  0  0  0  0
    0.2877    0.5915    3.2981 C   0  0  0  0  0  0  0  0  0  0  0  0
    1.0463    1.3789    3.2373 H   0  0  0  0  0  0  0  0  0  0  0  0
   -0.5610    0.9756    3.8718 H   0  0  0  0  0  0  0  0  0  0  0  0
    0.7111   -0.2649    3.8336 H   0  0  0  0  0  0  0  0  0  0  0  0
  1  2  1  0  0  0  0
  2  3  1  0  0  0  0
  2  4  1  0  0  0  0
  2  5  1  0  0  0  0
  5  6  2  0  0  0  0
  5  7  1  0  0  0  0
  7  8  1  0  0  0  0
  7  9  1  0  0  0  0
  9 10  1  0  0  0  0
  9 11  1  0  0  0  0
  9 21  1  0  0  0  0
 11 12  1  0  0  0  0
 11 13  1  0  0  0  0
 11 14  1  0  0  0  0
 14 15  1  0  0  0  0
 14 16  1  0  0  0  0
 14 17  1  0  0  0  0
 17 18  2  0  0  0  0
 17 19  1  0  0  0  0
 19 20  1  0  0  0  0
 21 22  2  0  0  0  0
 21 23  1  0  0  0  0
 23 24  1  0  0  0  0
 23 25  1  0  0  0  0
 25 26  1  0  0  0  0
 25 27  1  0  0  0  0
 25 28  1  0  0  0  0
M  END
$$$$

  -OEChem-02102214123D

 28 27  0     1  0  0  0  0  0999 V2000
   -1.8652   -4.6079    0.8574 H   0  0  0  0  0  0  0  0  0  0  0  0
   -2.0308   -3.7298    0.2264 C   0  0  0  0  0  0  0  0  0  0  0  0
   -2.9922   -3.2829    0.4900 H   0  0  0  0  0  0  0  0  0  0  0  0
   -2.0584   -4.0476   -0.8189 H   0  0  0  0  0  0  0  0  0  0  0  0
   -0.9162   -2.7218    0.4318 C   0  0  0  0  0  0  0  0  0  0  0  0
   -0.0148   -2.9670    1.2126 O   0  0  0  0  0  0  0  0  0  0  0  0
   -0.9412   -1.5351   -0.2746 N   0  0  0  0  0  0  0  0  0  0  0  0
   -1.6003   -1.5360   -1.0518 H   0  0  0  0  0  0  0  0  0  0  0  0
    0.2144   -0.6260   -0.3957 C   0  0  1  0  0  0  0  0  0  0  0  0
    1.0469   -1.2048   -0.8121 H   0  0  0  0  0  0  0  0  0  0  0  0
    0.0025    0.6300   -1.3048 C   0  0  0  0  0  0  0  0  0  0  0  0
    0.5361    1.4839   -0.8705 H   0  0  0  0  0  0  0  0  0  0  0  0
    0.5430    0.3890   -2.2264 H   0  0  0  0  0  0  0  0  0  0  0  0
   -1.3915    1.1448   -1.7828 C   0  0  0  0  0  0  0  0  0  0  0  0
   -1.6083    2.0463   -1.2018 H   0  0  0  0  0  0  0  0  0  0  0  0
   -1.3016    1.4631   -2.8256 H   0  0  0  0  0  0  0  0  0  0  0  0
   -2.6348    0.2685   -1.6785 C   0  0  0  0  0  0  0  0  0  0  0  0
   -2.7067   -0.7292   -2.3780 O   0  0  0  0  0  0  0  0  0  0  0  0
   -3.5921    0.6309   -0.7933 O   0  0  0  0  0  0  0  0  0  0  0  0
   -4.3175   -0.0042   -0.8945 H   0  0  0  0  0  0  0  0  0  0  0  0
    0.7031   -0.1063    0.9786 C   0  0  0  0  0  0  0  0  0  0  0  0
    1.8899    0.1452    1.1443 O   0  0  0  0  0  0  0  0  0  0  0  0
   -0.2164    0.3353    1.9123 N   0  0  0  0  0  0  0  0  0  0  0  0
   -1.1731    0.0280    1.7676 H   0  0  0  0  0  0  0  0  0  0  0  0
    0.1709    0.8325    3.2262 C   0  0  0  0  0  0  0  0  0  0  0  0
    0.8585    1.6795    3.1304 H   0  0  0  0  0  0  0  0  0  0  0  0
   -0.7117    1.1684    3.7786 H   0  0  0  0  0  0  0  0  0  0  0  0
    0.6639    0.0424    3.8023 H   0  0  0  0  0  0  0  0  0  0  0  0
  1  2  1  0  0  0  0
  2  3  1  0  0  0  0
  2  4  1  0  0  0  0
  2  5  1  0  0  0  0
  5  6  2  0  0  0  0
  5  7  1  0  0  0  0
  7  8  1  0  0  0  0
  7  9  1  0  0  0  0
  9 10  1  0  0  0  0
  9 11  1  0  0  0  0
  9 21  1  0  0  0  0
 11 12  1  0  0  0  0
 11 13  1  0  0  0  0
 11 14  1  0  0  0  0
 14 15  1  0  0  0  0
 14 16  1  0  0  0  0
 14 17  1  0  0  0  0
 17 18  2  0  0  0  0
 17 19  1  0  0  0  0
 19 20  1  0  0  0  0
 21 22  2  0  0  0  0
 21 23  1  0  0  0  0
 23 24  1  0  0  0  0
 23 25  1  0  0  0  0
 25 26  1  0  0  0  0
 25 27  1  0  0  0  0
 25 28  1  0  0  0  0
M  END
$$$$

  -OEChem-02102214123D

 28 27  0     1  0  0  0  0  0999 V2000
   -2.0458   -4.5691    0.0491 H   0  0  0  0  0  0  0  0  0  0  0  0
   -2.2488   -3.5449   -0.2767 C   0  0  0  0  0  0  0  0  0  0  0  0
   -3.0688   -3.1419    0.3226 H   0  0  0  0  0  0  0  0  0  0  0  0
   -2.5463   -3.5629   -1.3280 H   0  0  0  0  0  0  0  0  0  0  0  0
   -1.0106   -2.6864   -0.1025 C   0  0  0  0  0  0  0  0  0  0  0  0
    0.0095   -3.1783    0.3439 O   0  0  0  0  0  0  0  0  0  0  0  0
   -1.0549   -1.3555   -0.4694 N   0  0  0  0  0  0  0  0  0  0  0  0
   -1.8660   -1.0924   -1.0243 H   0  0  0  0  0  0  0  0  0  0  0  0
    0.1255   -0.4739   -0.5381 C   0  0  1  0  0  0  0  0  0  0  0  0
    0.8507   -0.9352   -1.2183 H   0  0  0  0  0  0  0  0  0  0  0  0
   -0.1477    0.9837   -1.0358 C   0  0  0  0  0  0  0  0  0  0  0  0
    0.4844    1.6740   -0.4639 H   0  0  0  0  0  0  0  0  0  0  0  0
    0.2454    1.0136   -2.0578 H   0  0  0  0  0  0  0  0  0  0  0  0
   -1.5688    1.6250   -1.1133 C   0  0  0  0  0  0  0  0  0  0  0  0
   -1.5530    2.5367   -0.5077 H   0  0  0  0  0  0  0  0  0  0  0  0
   -1.7383    1.9433   -2.1459 H   0  0  0  0  0  0  0  0  0  0  0  0
   -2.7991    0.8314   -0.6882 C   0  0  0  0  0  0  0  0  0  0  0  0
   -3.1716    0.9154    0.4686 O   0  0  0  0  0  0  0  0  0  0  0  0
   -3.3976    0.0371   -1.6083 O   0  0  0  0  0  0  0  0  0  0  0  0
   -4.2063   -0.2961   -1.1858 H   0  0  0  0  0  0  0  0  0  0  0  0
    0.8342   -0.3512    0.8329 C   0  0  0  0  0  0  0  0  0  0  0  0
    2.0483   -0.2009    0.8791 O   0  0  0  0  0  0  0  0  0  0  0  0
    0.0848   -0.1507    1.9777 N   0  0  0  0  0  0  0  0  0  0  0  0
   -0.9197   -0.2792    1.8929 H   0  0  0  0  0  0  0  0  0  0  0  0
    0.6736    0.0146    3.2997 C   0  0  0  0  0  0  0  0  0  0  0  0
    1.3547    0.8721    3.3120 H   0  0  0  0  0  0  0  0  0  0  0  0
   -0.1099    0.1866    4.0438 H   0  0  0  0  0  0  0  0  0  0  0  0
    1.2323   -0.8837    3.5831 H   0  0  0  0  0  0  0  0  0  0  0  0
  1  2  1  0  0  0  0
  2  3  1  0  0  0  0
  2  4  1  0  0  0  0
  2  5  1  0  0  0  0
  5  6  2  0  0  0  0
  5  7  1  0  0  0  0
  7  8  1  0  0  0  0
  7  9  1  0  0  0  0
  9 10  1  0  0  0  0
  9 11  1  0  0  0  0
  9 21  1  0  0  0  0
 11 12  1  0  0  0  0
 11 13  1  0  0  0  0
 11 14  1  0  0  0  0
 14 15  1  0  0  0  0
 14 16  1  0  0  0  0
 14 17  1  0  0  0  0
 17 18  2  0  0  0  0
 17 19  1  0  0  0  0
 19 20  1  0  0  0  0
 21 22  2  0  0  0  0
 21 23  1  0  0  0  0
 23 24  1  0  0  0  0
 23 25  1  0  0  0  0
 25 26  1  0  0  0  0
 25 27  1  0  0  0  0
 25 28  1  0  0  0  0
M  END
$$$$

  -OEChem-02102214123D

 28 27  0     1  0  0  0  0  0999 V2000
   -2.4298   -4.4223    0.4194 H   0  0  0  0  0  0  0  0  0  0  0  0
   -2.5058   -3.4249   -0.0231 C   0  0  0  0  0  0  0  0  0  0  0  0
   -3.3017   -2.8753    0.4847 H   0  0  0  0  0  0  0  0  0  0  0  0
   -2.7592   -3.5281   -1.0809 H   0  0  0  0  0  0  0  0  0  0  0  0
   -1.1894   -2.6861    0.1262 C   0  0  0  0  0  0  0  0  0  0  0  0
   -0.2527   -3.2257    0.6861 O   0  0  0  0  0  0  0  0  0  0  0  0
   -1.0636   -1.4148   -0.3989 N   0  0  0  0  0  0  0  0  0  0  0  0
   -1.8231   -1.1152   -1.0060 H   0  0  0  0  0  0  0  0  0  0  0  0
    0.2013   -0.6549   -0.4459 C   0  0  1  0  0  0  0  0  0  0  0  0
    0.9389   -1.2562   -0.9895 H   0  0  0  0  0  0  0  0  0  0  0  0
    0.1059    0.7443   -1.1376 C   0  0  0  0  0  0  0  0  0  0  0  0
    0.7187    1.4516   -0.5656 H   0  0  0  0  0  0  0  0  0  0  0  0
    0.6082    0.6428   -2.1054 H   0  0  0  0  0  0  0  0  0  0  0  0
   -1.2520    1.4558   -1.4184 C   0  0  0  0  0  0  0  0  0  0  0  0
   -1.1390    2.5208   -1.1937 H   0  0  0  0  0  0  0  0  0  0  0  0
   -1.4489    1.3822   -2.4920 H   0  0  0  0  0  0  0  0  0  0  0  0
   -2.5069    0.9598   -0.7071 C   0  0  0  0  0  0  0  0  0  0  0  0
   -2.6390    1.2161    0.4773 O   0  0  0  0  0  0  0  0  0  0  0  0
   -3.3812    0.1992   -1.4087 O   0  0  0  0  0  0  0  0  0  0  0  0
   -4.1372    0.0483   -0.8179 H   0  0  0  0  0  0  0  0  0  0  0  0
    0.7853   -0.4185    0.9689 C   0  0  0  0  0  0  0  0  0  0  0  0
    1.9985   -0.3875    1.1301 O   0  0  0  0  0  0  0  0  0  0  0  0
   -0.0439   -0.0064    1.9965 N   0  0  0  0  0  0  0  0  0  0  0  0
   -1.0346    0.0849    1.7823 H   0  0  0  0  0  0  0  0  0  0  0  0
    0.4376    0.3653    3.3198 C   0  0  0  0  0  0  0  0  0  0  0  0
    1.1140    1.2240    3.2552 H   0  0  0  0  0  0  0  0  0  0  0  0
   -0.4037    0.6340    3.9659 H   0  0  0  0  0  0  0  0  0  0  0  0
    0.9732   -0.4720    3.7797 H   0  0  0  0  0  0  0  0  0  0  0  0
  1  2  1  0  0  0  0
  2  3  1  0  0  0  0
  2  4  1  0  0  0  0
  2  5  1  0  0  0  0
  5  6  2  0  0  0  0
  5  7  1  0  0  0  0
  7  8  1  0  0  0  0
  7  9  1  0  0  0  0
  9 10  1  0  0  0  0
  9 11  1  0  0  0  0
  9 21  1  0  0  0  0
 11 12  1  0  0  0  0
 11 13  1  0  0  0  0
 11 14  1  0  0  0  0
 14 15  1  0  0  0  0
 14 16  1  0  0  0  0
 14 17  1  0  0  0  0
 17 18  2  0  0  0  0
 17 19  1  0  0  0  0
 19 20  1  0  0  0  0
 21 22  2  0  0  0  0
 21 23  1  0  0  0  0
 23 24  1  0  0  0  0
 23 25  1  0  0  0  0
 25 26  1  0  0  0  0
 25 27  1  0  0  0  0
 25 28  1  0  0  0  0
M  END
$$$$

  -OEChem-02102214123D

 28 27  0     1  0  0  0  0  0999 V2000
   -2.5616   -4.3426    0.3274 H   0  0  0  0  0  0  0  0  0  0  0  0
   -2.6089   -3.3242   -0.0686 C   0  0  0  0  0  0  0  0  0  0  0  0
   -3.3672   -2.7660    0.4853 H   0  0  0  0  0  0  0  0  0  0  0  0
   -2.8952   -3.3699   -1.1221 H   0  0  0  0  0  0  0  0  0  0  0  0
   -1.2594   -2.6465    0.0735 C   0  0  0  0  0  0  0  0  0  0  0  0
   -0.3361   -3.2378    0.6026 O   0  0  0  0  0  0  0  0  0  0  0  0
   -1.0867   -1.3693   -0.4221 N   0  0  0  0  0  0  0  0  0  0  0  0
   -1.8593   -0.9935   -0.9673 H   0  0  0  0  0  0  0  0  0  0  0  0
    0.2007   -0.6457   -0.4275 C   0  0  1  0  0  0  0  0  0  0  0  0
    0.9273   -1.2651   -0.9659 H   0  0  0  0  0  0  0  0  0  0  0  0
    0.1405    0.7426   -1.1370 C   0  0  0  0  0  0  0  0  0  0  0  0
    0.7229    1.4552   -0.5405 H   0  0  0  0  0  0  0  0  0  0  0  0
    0.6753    0.6435   -2.0875 H   0  0  0  0  0  0  0  0  0  0  0  0
   -1.2219    1.4239   -1.4471 C   0  0  0  0  0  0  0  0  0  0  0  0
   -1.0743    2.5066   -1.4958 H   0  0  0  0  0  0  0  0  0  0  0  0
   -1.5365    1.1014   -2.4441 H   0  0  0  0  0  0  0  0  0  0  0  0
   -2.3841    1.1402   -0.4976 C   0  0  0  0  0  0  0  0  0  0  0  0
   -2.2936    1.5035    0.6620 O   0  0  0  0  0  0  0  0  0  0  0  0
   -3.4332    0.4312   -0.9785 O   0  0  0  0  0  0  0  0  0  0  0  0
   -4.0878    0.4047   -0.2614 H   0  0  0  0  0  0  0  0  0  0  0  0
    0.7873   -0.4395    0.9914 C   0  0  0  0  0  0  0  0  0  0  0  0
    2.0004   -0.4641    1.1539 O   0  0  0  0  0  0  0  0  0  0  0  0
   -0.0229   -0.0150    2.0289 N   0  0  0  0  0  0  0  0  0  0  0  0
   -0.9875    0.2094    1.7927 H   0  0  0  0  0  0  0  0  0  0  0  0
    0.4893    0.3663    3.3381 C   0  0  0  0  0  0  0  0  0  0  0  0
    1.1449    1.2392    3.2540 H   0  0  0  0  0  0  0  0  0  0  0  0
   -0.3381    0.6152    4.0094 H   0  0  0  0  0  0  0  0  0  0  0  0
    1.0561   -0.4594    3.7813 H   0  0  0  0  0  0  0  0  0  0  0  0
  1  2  1  0  0  0  0
  2  3  1  0  0  0  0
  2  4  1  0  0  0  0
  2  5  1  0  0  0  0
  5  6  2  0  0  0  0
  5  7  1  0  0  0  0
  7  8  1  0  0  0  0
  7  9  1  0  0  0  0
  9 10  1  0  0  0  0
  9 11  1  0  0  0  0
  9 21  1  0  0  0  0
 11 12  1  0  0  0  0
 11 13  1  0  0  0  0
 11 14  1  0  0  0  0
 14 15  1  0  0  0  0
 14 16  1  0  0  0  0
 14 17  1  0  0  0  0
 17 18  2  0  0  0  0
 17 19  1  0  0  0  0
 19 20  1  0  0  0  0
 21 22  2  0  0  0  0
 21 23  1  0  0  0  0
 23 24  1  0  0  0  0
 23 25  1  0  0  0  0
 25 26  1  0  0  0  0
 25 27  1  0  0  0  0
 25 28  1  0  0  0  0
M  END
$$$$

  -OEChem-02102214123D

 28 27  0     1  0  0  0  0  0999 V2000
   -2.3997   -4.3351    0.5036 H   0  0  0  0  0  0  0  0  0  0  0  0
   -2.5036   -3.3088    0.1402 C   0  0  0  0  0  0  0  0  0  0  0  0
   -3.0730   -2.7324    0.8732 H   0  0  0  0  0  0  0  0  0  0  0  0
   -3.0486   -3.3246   -0.8066 H   0  0  0  0  0  0  0  0  0  0  0  0
   -1.1351   -2.6865   -0.0611 C   0  0  0  0  0  0  0  0  0  0  0  0
   -0.1314   -3.3446    0.1470 O   0  0  0  0  0  0  0  0  0  0  0  0
   -1.0388   -1.3752   -0.4824 N   0  0  0  0  0  0  0  0  0  0  0  0
   -1.9067   -0.8509   -0.4489 H   0  0  0  0  0  0  0  0  0  0  0  0
    0.2172   -0.6051   -0.4084 C   0  0  1  0  0  0  0  0  0  0  0  0
    0.9729   -1.1968   -0.9390 H   0  0  0  0  0  0  0  0  0  0  0  0
    0.1461    0.7628   -1.1441 C   0  0  0  0  0  0  0  0  0  0  0  0
    0.6492    1.5072   -0.5162 H   0  0  0  0  0  0  0  0  0  0  0  0
    0.7494    0.6738   -2.0539 H   0  0  0  0  0  0  0  0  0  0  0  0
   -1.2247    1.3669   -1.5615 C   0  0  0  0  0  0  0  0  0  0  0  0
   -1.0563    2.4012   -1.8747 H   0  0  0  0  0  0  0  0  0  0  0  0
   -1.5644    0.8172   -2.4441 H   0  0  0  0  0  0  0  0  0  0  0  0
   -2.3997    1.3726   -0.5794 C   0  0  0  0  0  0  0  0  0  0  0  0
   -2.2502    1.0203    0.5786 O   0  0  0  0  0  0  0  0  0  0  0  0
   -3.5892    1.7696   -1.0837 O   0  0  0  0  0  0  0  0  0  0  0  0
   -4.2226    1.7567   -0.3496 H   0  0  0  0  0  0  0  0  0  0  0  0
    0.7869   -0.4451    1.0224 C   0  0  0  0  0  0  0  0  0  0  0  0
    1.9985   -0.4294    1.1938 O   0  0  0  0  0  0  0  0  0  0  0  0
   -0.0396   -0.1070    2.0776 N   0  0  0  0  0  0  0  0  0  0  0  0
   -1.0072    0.1078    1.8411 H   0  0  0  0  0  0  0  0  0  0  0  0
    0.4562    0.2403    3.4028 C   0  0  0  0  0  0  0  0  0  0  0  0
    1.0480    1.1606    3.3618 H   0  0  0  0  0  0  0  0  0  0  0  0
   -0.3807    0.3936    4.0906 H   0  0  0  0  0  0  0  0  0  0  0  0
    1.0838   -0.5650    3.7993 H   0  0  0  0  0  0  0  0  0  0  0  0
  1  2  1  0  0  0  0
  2  3  1  0  0  0  0
  2  4  1  0  0  0  0
  2  5  1  0  0  0  0
  5  6  2  0  0  0  0
  5  7  1  0  0  0  0
  7  8  1  0  0  0  0
  7  9  1  0  0  0  0
  9 10  1  0  0  0  0
  9 11  1  0  0  0  0
  9 21  1  0  0  0  0
 11 12  1  0  0  0  0
 11 13  1  0  0  0  0
 11 14  1  0  0  0  0
 14 15  1  0  0  0  0
 14 16  1  0  0  0  0
 14 17  1  0  0  0  0
 17 18  2  0  0  0  0
 17 19  1  0  0  0  0
 19 20  1  0  0  0  0
 21 22  2  0  0  0  0
 21 23  1  0  0  0  0
 23 24  1  0  0  0  0
 23 25  1  0  0  0  0
 25 26  1  0  0  0  0
 25 27  1  0  0  0  0
 25 28  1  0  0  0  0
M  END
$$$$

  -OEChem-02102214123D

 28 27  0     1  0  0  0  0  0999 V2000
   -2.7343   -4.1385    0.3626 H   0  0  0  0  0  0  0  0  0  0  0  0
   -2.7205   -3.1316   -0.0641 C   0  0  0  0  0  0  0  0  0  0  0  0
   -3.3843   -2.4918    0.5221 H   0  0  0  0  0  0  0  0  0  0  0  0
   -3.0862   -3.1804   -1.0926 H   0  0  0  0  0  0  0  0  0  0  0  0
   -1.3098   -2.5750   -0.0420 C   0  0  0  0  0  0  0  0  0  0  0  0
   -0.3945   -3.2491    0.3942 O   0  0  0  0  0  0  0  0  0  0  0  0
   -1.0728   -1.2993   -0.5115 N   0  0  0  0  0  0  0  0  0  0  0  0
   -1.8918   -0.7600   -0.7867 H   0  0  0  0  0  0  0  0  0  0  0  0
    0.2337   -0.6142   -0.4275 C   0  0  1  0  0  0  0  0  0  0  0  0
    0.9703   -1.2611   -0.9186 H   0  0  0  0  0  0  0  0  0  0  0  0
    0.2472    0.7464   -1.1770 C   0  0  0  0  0  0  0  0  0  0  0  0
    0.7944    1.4862   -0.5800 H   0  0  0  0  0  0  0  0  0  0  0  0
    0.8207    0.6088   -2.0996 H   0  0  0  0  0  0  0  0  0  0  0  0
   -1.1235    1.3431   -1.5657 C   0  0  0  0  0  0  0  0  0  0  0  0
   -0.9611    2.2893   -2.0900 H   0  0  0  0  0  0  0  0  0  0  0  0
   -1.6333    0.6741   -2.2648 H   0  0  0  0  0  0  0  0  0  0  0  0
   -2.0319    1.6143   -0.3705 C   0  0  0  0  0  0  0  0  0  0  0  0
   -1.7384    2.5042    0.4054 O   0  0  0  0  0  0  0  0  0  0  0  0
   -3.1097    0.8085   -0.2114 O   0  0  0  0  0  0  0  0  0  0  0  0
   -3.5962    1.1698    0.5483 H   0  0  0  0  0  0  0  0  0  0  0  0
    0.7535   -0.4289    1.0177 C   0  0  0  0  0  0  0  0  0  0  0  0
    1.9572   -0.4492    1.2355 O   0  0  0  0  0  0  0  0  0  0  0  0
   -0.0980    0.0145    2.0133 N   0  0  0  0  0  0  0  0  0  0  0  0
   -1.0751    0.1293    1.7706 H   0  0  0  0  0  0  0  0  0  0  0  0
    0.3550    0.4042    3.3421 C   0  0  0  0  0  0  0  0  0  0  0  0
    1.0046    1.2836    3.2817 H   0  0  0  0  0  0  0  0  0  0  0  0
   -0.5015    0.6485    3.9773 H   0  0  0  0  0  0  0  0  0  0  0  0
    0.9110   -0.4140    3.8122 H   0  0  0  0  0  0  0  0  0  0  0  0
  1  2  1  0  0  0  0
  2  3  1  0  0  0  0
  2  4  1  0  0  0  0
  2  5  1  0  0  0  0
  5  6  2  0  0  0  0
  5  7  1  0  0  0  0
  7  8  1  0  0  0  0
  7  9  1  0  0  0  0
  9 10  1  0  0  0  0
  9 11  1  0  0  0  0
  9 21  1  0  0  0  0
 11 12  1  0  0  0  0
 11 13  1  0  0  0  0
 11 14  1  0  0  0  0
 14 15  1  0  0  0  0
 14 16  1  0  0  0  0
 14 17  1  0  0  0  0
 17 18  2  0  0  0  0
 17 19  1  0  0  0  0
 19 20  1  0  0  0  0
 21 22  2  0  0  0  0
 21 23  1  0  0  0  0
 23 24  1  0  0  0  0
 23 25  1  0  0  0  0
 25 26  1  0  0  0  0
 25 27  1  0  0  0  0
 25 28  1  0  0  0  0
M  END
$$$$

  -OEChem-02102214123D

 28 27  0     1  0  0  0  0  0999 V2000
   -2.3552   -4.3274    0.5461 H   0  0  0  0  0  0  0  0  0  0  0  0
   -2.4628   -3.3168    0.1419 C   0  0  0  0  0  0  0  0  0  0  0  0
   -3.0658   -2.7233    0.8333 H   0  0  0  0  0  0  0  0  0  0  0  0
   -2.9752   -3.3759   -0.8213 H   0  0  0  0  0  0  0  0  0  0  0  0
   -1.0989   -2.6779   -0.0355 C   0  0  0  0  0  0  0  0  0  0  0  0
   -0.0936   -3.2882    0.2822 O   0  0  0  0  0  0  0  0  0  0  0  0
   -1.0060   -1.4000   -0.5490 N   0  0  0  0  0  0  0  0  0  0  0  0
   -1.8871   -0.8958   -0.6196 H   0  0  0  0  0  0  0  0  0  0  0  0
    0.2305   -0.5952   -0.4924 C   0  0  1  0  0  0  0  0  0  0  0  0
    1.0273   -1.1755   -0.9727 H   0  0  0  0  0  0  0  0  0  0  0  0
    0.1095    0.7523   -1.2558 C   0  0  0  0  0  0  0  0  0  0  0  0
    0.6108    1.5494   -0.6936 H   0  0  0  0  0  0  0  0  0  0  0  0
    0.6665    0.6384   -2.1918 H   0  0  0  0  0  0  0  0  0  0  0  0
   -1.3179    1.2106   -1.6285 C   0  0  0  0  0  0  0  0  0  0  0  0
   -1.2385    2.0264   -2.3530 H   0  0  0  0  0  0  0  0  0  0  0  0
   -1.8813    0.4128   -2.1193 H   0  0  0  0  0  0  0  0  0  0  0  0
   -2.0815    1.7407   -0.4204 C   0  0  0  0  0  0  0  0  0  0  0  0
   -2.6277    0.9268    0.3098 O   0  0  0  0  0  0  0  0  0  0  0  0
   -2.1009    3.0760   -0.2080 O   0  0  0  0  0  0  0  0  0  0  0  0
   -2.6184    3.2233    0.5984 H   0  0  0  0  0  0  0  0  0  0  0  0
    0.7126   -0.3361    0.9538 C   0  0  0  0  0  0  0  0  0  0  0  0
    1.9082   -0.2352    1.1923 O   0  0  0  0  0  0  0  0  0  0  0  0
   -0.1971    0.0450    1.9240 N   0  0  0  0  0  0  0  0  0  0  0  0
   -1.1803    0.0525    1.6597 H   0  0  0  0  0  0  0  0  0  0  0  0
    0.1837    0.4434    3.2724 C   0  0  0  0  0  0  0  0  0  0  0  0
    0.7945    1.3518    3.2449 H   0  0  0  0  0  0  0  0  0  0  0  0
   -0.7080    0.6430    3.8739 H   0  0  0  0  0  0  0  0  0  0  0  0
    0.7572   -0.3531    3.7587 H   0  0  0  0  0  0  0  0  0  0  0  0
  1  2  1  0  0  0  0
  2  3  1  0  0  0  0
  2  4  1  0  0  0  0
  2  5  1  0  0  0  0
  5  6  2  0  0  0  0
  5  7  1  0  0  0  0
  7  8  1  0  0  0  0
  7  9  1  0  0  0  0
  9 10  1  0  0  0  0
  9 11  1  0  0  0  0
  9 21  1  0  0  0  0
 11 12  1  0  0  0  0
 11 13  1  0  0  0  0
 11 14  1  0  0  0  0
 14 15  1  0  0  0  0
 14 16  1  0  0  0  0
 14 17  1  0  0  0  0
 17 18  2  0  0  0  0
 17 19  1  0  0  0  0
 19 20  1  0  0  0  0
 21 22  2  0  0  0  0
 21 23  1  0  0  0  0
 23 24  1  0  0  0  0
 23 25  1  0  0  0  0
 25 26  1  0  0  0  0
 25 27  1  0  0  0  0
 25 28  1  0  0  0  0
M  END
$$$$

  -OEChem-02102214123D

 28 27  0     1  0  0  0  0  0999 V2000
   -2.3544   -4.3483    0.5329 H   0  0  0  0  0  0  0  0  0  0  0  0
   -2.4663   -3.3467    0.1077 C   0  0  0  0  0  0  0  0  0  0  0  0
   -3.0989   -2.7522    0.7713 H   0  0  0  0  0  0  0  0  0  0  0  0
   -2.9500   -3.4313   -0.8684 H   0  0  0  0  0  0  0  0  0  0  0  0
   -1.1073   -2.6895   -0.0419 C   0  0  0  0  0  0  0  0  0  0  0  0
   -0.1001   -3.2928    0.2825 O   0  0  0  0  0  0  0  0  0  0  0  0
   -1.0200   -1.4078   -0.5481 N   0  0  0  0  0  0  0  0  0  0  0  0
   -1.9024   -0.9182   -0.6593 H   0  0  0  0  0  0  0  0  0  0  0  0
    0.2129   -0.5974   -0.4903 C   0  0  1  0  0  0  0  0  0  0  0  0
    1.0107   -1.1706   -0.9775 H   0  0  0  0  0  0  0  0  0  0  0  0
    0.0893    0.7595   -1.2359 C   0  0  0  0  0  0  0  0  0  0  0  0
    0.6087    1.5502   -0.6808 H   0  0  0  0  0  0  0  0  0  0  0  0
    0.6346    0.6427   -2.1786 H   0  0  0  0  0  0  0  0  0  0  0  0
   -1.3396    1.2251   -1.6013 C   0  0  0  0  0  0  0  0  0  0  0  0
   -1.2657    1.8755   -2.4779 H   0  0  0  0  0  0  0  0  0  0  0  0
   -2.0037    0.4086   -1.8898 H   0  0  0  0  0  0  0  0  0  0  0  0
   -1.9479    2.0570   -0.4819 C   0  0  0  0  0  0  0  0  0  0  0  0
   -2.4312    1.4493    0.4612 O   0  0  0  0  0  0  0  0  0  0  0  0
   -1.9088    3.4055   -0.5732 O   0  0  0  0  0  0  0  0  0  0  0  0
   -2.3251    3.7489    0.2322 H   0  0  0  0  0  0  0  0  0  0  0  0
    0.7001   -0.3429    0.9556 C   0  0  0  0  0  0  0  0  0  0  0  0
    1.8980   -0.2649    1.1919 O   0  0  0  0  0  0  0  0  0  0  0  0
   -0.2020    0.0305    1.9361 N   0  0  0  0  0  0  0  0  0  0  0  0
   -1.1691    0.1620    1.6456 H   0  0  0  0  0  0  0  0  0  0  0  0
    0.1978    0.4571    3.2706 C   0  0  0  0  0  0  0  0  0  0  0  0
    0.7699    1.3892    3.2197 H   0  0  0  0  0  0  0  0  0  0  0  0
   -0.6855    0.6236    3.8945 H   0  0  0  0  0  0  0  0  0  0  0  0
    0.8162   -0.3105    3.7482 H   0  0  0  0  0  0  0  0  0  0  0  0
  1  2  1  0  0  0  0
  2  3  1  0  0  0  0
  2  4  1  0  0  0  0
  2  5  1  0  0  0  0
  5  6  2  0  0  0  0
  5  7  1  0  0  0  0
  7  8  1  0  0  0  0
  7  9  1  0  0  0  0
  9 10  1  0  0  0  0
  9 11  1  0  0  0  0
  9 21  1  0  0  0  0
 11 12  1  0  0  0  0
 11 13  1  0  0  0  0
 11 14  1  0  0  0  0
 14 15  1  0  0  0  0
 14 16  1  0  0  0  0
 14 17  1  0  0  0  0
 17 18  2  0  0  0  0
 17 19  1  0  0  0  0
 19 20  1  0  0  0  0
 21 22  2  0  0  0  0
 21 23  1  0  0  0  0
 23 24  1  0  0  0  0
 23 25  1  0  0  0  0
 25 26  1  0  0  0  0
 25 27  1  0  0  0  0
 25 28  1  0  0  0  0
M  END
$$$$

  -OEChem-02102214123D

 28 27  0     1  0  0  0  0  0999 V2000
   -2.3593   -4.3880    0.5241 H   0  0  0  0  0  0  0  0  0  0  0  0
   -2.4685   -3.4032    0.0612 C   0  0  0  0  0  0  0  0  0  0  0  0
   -3.1588   -2.8075    0.6631 H   0  0  0  0  0  0  0  0  0  0  0  0
   -2.8840   -3.5301   -0.9413 H   0  0  0  0  0  0  0  0  0  0  0  0
   -1.1200   -2.7130   -0.0198 C   0  0  0  0  0  0  0  0  0  0  0  0
   -0.1167   -3.2912    0.3570 O   0  0  0  0  0  0  0  0  0  0  0  0
   -1.0376   -1.4328   -0.5315 N   0  0  0  0  0  0  0  0  0  0  0  0
   -1.9173   -0.9808   -0.7532 H   0  0  0  0  0  0  0  0  0  0  0  0
    0.1903   -0.6130   -0.4949 C   0  0  1  0  0  0  0  0  0  0  0  0
    0.9858   -1.1782   -0.9949 H   0  0  0  0  0  0  0  0  0  0  0  0
    0.0514    0.7567   -1.2167 C   0  0  0  0  0  0  0  0  0  0  0  0
    0.5995    1.5337   -0.6688 H   0  0  0  0  0  0  0  0  0  0  0  0
    0.5746    0.6454   -2.1724 H   0  0  0  0  0  0  0  0  0  0  0  0
   -1.3779    1.2536   -1.5542 C   0  0  0  0  0  0  0  0  0  0  0  0
   -1.3568    1.6872   -2.5584 H   0  0  0  0  0  0  0  0  0  0  0  0
   -2.1352    0.4716   -1.5817 H   0  0  0  0  0  0  0  0  0  0  0  0
   -1.8012    2.3592   -0.5980 C   0  0  0  0  0  0  0  0  0  0  0  0
   -2.2058    2.0161    0.5014 O   0  0  0  0  0  0  0  0  0  0  0  0
   -1.6960    3.6468   -0.9975 O   0  0  0  0  0  0  0  0  0  0  0  0
   -1.9942    4.1891   -0.2510 H   0  0  0  0  0  0  0  0  0  0  0  0
    0.6931   -0.3482    0.9444 C   0  0  0  0  0  0  0  0  0  0  0  0
    1.8941   -0.2631    1.1635 O   0  0  0  0  0  0  0  0  0  0  0  0
   -0.1995    0.0241    1.9342 N   0  0  0  0  0  0  0  0  0  0  0  0
   -1.1612    0.1828    1.6445 H   0  0  0  0  0  0  0  0  0  0  0  0
    0.2226    0.5001    3.2449 C   0  0  0  0  0  0  0  0  0  0  0  0
    0.7829    1.4360    3.1505 H   0  0  0  0  0  0  0  0  0  0  0  0
   -0.6496    0.6790    3.8807 H   0  0  0  0  0  0  0  0  0  0  0  0
    0.8594   -0.2437    3.7357 H   0  0  0  0  0  0  0  0  0  0  0  0
  1  2  1  0  0  0  0
  2  3  1  0  0  0  0
  2  4  1  0  0  0  0
  2  5  1  0  0  0  0
  5  6  2  0  0  0  0
  5  7  1  0  0  0  0
  7  8  1  0  0  0  0
  7  9  1  0  0  0  0
  9 10  1  0  0  0  0
  9 11  1  0  0  0  0
  9 21  1  0  0  0  0
 11 12  1  0  0  0  0
 11 13  1  0  0  0  0
 11 14  1  0  0  0  0
 14 15  1  0  0  0  0
 14 16  1  0  0  0  0
 14 17  1  0  0  0  0
 17 18  2  0  0  0  0
 17 19  1  0  0  0  0
 19 20  1  0  0  0  0
 21 22  2  0  0  0  0
 21 23  1  0  0  0  0
 23 24  1  0  0  0  0
 23 25  1  0  0  0  0
 25 26  1  0  0  0  0
 25 27  1  0  0  0  0
 25 28  1  0  0  0  0
M  END
$$$$

  -OEChem-02102214123D

 28 27  0     1  0  0  0  0  0999 V2000
   -2.3683   -4.4304    0.4742 H   0  0  0  0  0  0  0  0  0  0  0  0
   -2.4722   -3.4572   -0.0143 C   0  0  0  0  0  0  0  0  0  0  0  0
   -3.2728   -2.9004    0.4788 H   0  0  0  0  0  0  0  0  0  0  0  0
   -2.7380   -3.6163   -1.0621 H   0  0  0  0  0  0  0  0  0  0  0  0
   -1.1698   -2.6855    0.0795 C   0  0  0  0  0  0  0  0  0  0  0  0
   -0.2008   -3.1932    0.6133 O   0  0  0  0  0  0  0  0  0  0  0  0
   -1.0901   -1.4145   -0.4551 N   0  0  0  0  0  0  0  0  0  0  0  0
   -1.8976   -1.0917   -0.9764 H   0  0  0  0  0  0  0  0  0  0  0  0
    0.1428   -0.6012   -0.4855 C   0  0  1  0  0  0  0  0  0  0  0  0
    0.9130   -1.1775   -1.0113 H   0  0  0  0  0  0  0  0  0  0  0  0
   -0.0243    0.7596   -1.2205 C   0  0  0  0  0  0  0  0  0  0  0  0
    0.5452    1.5335   -0.6906 H   0  0  0  0  0  0  0  0  0  0  0  0
    0.4677    0.6506   -2.1928 H   0  0  0  0  0  0  0  0  0  0  0  0
   -1.4633    1.2708   -1.5029 C   0  0  0  0  0  0  0  0  0  0  0  0
   -1.5904    1.4010   -2.5816 H   0  0  0  0  0  0  0  0  0  0  0  0
   -2.2464    0.5907   -1.1703 H   0  0  0  0  0  0  0  0  0  0  0  0
   -1.7001    2.6148   -0.8255 C   0  0  0  0  0  0  0  0  0  0  0  0
   -2.1209    2.6064    0.3189 O   0  0  0  0  0  0  0  0  0  0  0  0
   -1.4212    3.7421   -1.5183 O   0  0  0  0  0  0  0  0  0  0  0  0
   -1.6158    4.4807   -0.9208 H   0  0  0  0  0  0  0  0  0  0  0  0
    0.7113   -0.3129    0.9249 C   0  0  0  0  0  0  0  0  0  0  0  0
    1.9209   -0.2103    1.0826 O   0  0  0  0  0  0  0  0  0  0  0  0
   -0.1351    0.0814    1.9450 N   0  0  0  0  0  0  0  0  0  0  0  0
   -1.1304    0.0855    1.7455 H   0  0  0  0  0  0  0  0  0  0  0  0
    0.3315    0.5166    3.2543 C   0  0  0  0  0  0  0  0  0  0  0  0
    0.9656    1.4042    3.1593 H   0  0  0  0  0  0  0  0  0  0  0  0
   -0.5194    0.7662    3.8951 H   0  0  0  0  0  0  0  0  0  0  0  0
    0.9077   -0.2793    3.7380 H   0  0  0  0  0  0  0  0  0  0  0  0
  1  2  1  0  0  0  0
  2  3  1  0  0  0  0
  2  4  1  0  0  0  0
  2  5  1  0  0  0  0
  5  6  2  0  0  0  0
  5  7  1  0  0  0  0
  7  8  1  0  0  0  0
  7  9  1  0  0  0  0
  9 10  1  0  0  0  0
  9 11  1  0  0  0  0
  9 21  1  0  0  0  0
 11 12  1  0  0  0  0
 11 13  1  0  0  0  0
 11 14  1  0  0  0  0
 14 15  1  0  0  0  0
 14 16  1  0  0  0  0
 14 17  1  0  0  0  0
 17 18  2  0  0  0  0
 17 19  1  0  0  0  0
 19 20  1  0  0  0  0
 21 22  2  0  0  0  0
 21 23  1  0  0  0  0
 23 24  1  0  0  0  0
 23 25  1  0  0  0  0
 25 26  1  0  0  0  0
 25 27  1  0  0  0  0
 25 28  1  0  0  0  0
M  END
$$$$

  -OEChem-02102214123D

 28 27  0     1  0  0  0  0  0999 V2000
   -2.5198   -4.3215    0.3978 H   0  0  0  0  0  0  0  0  0  0  0  0
   -2.5313   -3.3762   -0.1525 C   0  0  0  0  0  0  0  0  0  0  0  0
   -3.3892   -2.7871    0.1800 H   0  0  0  0  0  0  0  0  0  0  0  0
   -2.6352   -3.5911   -1.2188 H   0  0  0  0  0  0  0  0  0  0  0  0
   -1.2462   -2.6106    0.0996 C   0  0  0  0  0  0  0  0  0  0  0  0
   -0.3794   -3.0947    0.8037 O   0  0  0  0  0  0  0  0  0  0  0  0
   -1.0697   -1.3671   -0.4754 N   0  0  0  0  0  0  0  0  0  0  0  0
   -1.7711   -1.0843   -1.1521 H   0  0  0  0  0  0  0  0  0  0  0  0
    0.1941   -0.6022   -0.4301 C   0  0  1  0  0  0  0  0  0  0  0  0
    0.9806   -1.2315   -0.8625 H   0  0  0  0  0  0  0  0  0  0  0  0
    0.1328    0.7159   -1.2536 C   0  0  0  0  0  0  0  0  0  0  0  0
    0.6483    1.5038   -0.6901 H   0  0  0  0  0  0  0  0  0  0  0  0
    0.7222    0.5698   -2.1650 H   0  0  0  0  0  0  0  0  0  0  0  0
   -1.2681    1.2280   -1.6810 C   0  0  0  0  0  0  0  0  0  0  0  0
   -1.4433    1.0031   -2.7375 H   0  0  0  0  0  0  0  0  0  0  0  0
   -2.0694    0.7659   -1.1030 H   0  0  0  0  0  0  0  0  0  0  0  0
   -1.3975    2.7271   -1.4380 C   0  0  0  0  0  0  0  0  0  0  0  0
   -1.1585    3.4885   -2.3582 O   0  0  0  0  0  0  0  0  0  0  0  0
   -1.7704    3.1333   -0.2023 O   0  0  0  0  0  0  0  0  0  0  0  0
   -1.7775    4.1028   -0.2327 H   0  0  0  0  0  0  0  0  0  0  0  0
    0.6637   -0.2692    1.0067 C   0  0  0  0  0  0  0  0  0  0  0  0
    1.8609   -0.1946    1.2494 O   0  0  0  0  0  0  0  0  0  0  0  0
   -0.2403    0.2031    1.9405 N   0  0  0  0  0  0  0  0  0  0  0  0
   -1.2239    0.1009    1.7138 H   0  0  0  0  0  0  0  0  0  0  0  0
    0.1406    0.5912    3.2925 C   0  0  0  0  0  0  0  0  0  0  0  0
    0.8805    1.3980    3.2654 H   0  0  0  0  0  0  0  0  0  0  0  0
   -0.7343    0.9451    3.8460 H   0  0  0  0  0  0  0  0  0  0  0  0
    0.5699   -0.2621    3.8281 H   0  0  0  0  0  0  0  0  0  0  0  0
  1  2  1  0  0  0  0
  2  3  1  0  0  0  0
  2  4  1  0  0  0  0
  2  5  1  0  0  0  0
  5  6  2  0  0  0  0
  5  7  1  0  0  0  0
  7  8  1  0  0  0  0
  7  9  1  0  0  0  0
  9 10  1  0  0  0  0
  9 11  1  0  0  0  0
  9 21  1  0  0  0  0
 11 12  1  0  0  0  0
 11 13  1  0  0  0  0
 11 14  1  0  0  0  0
 14 15  1  0  0  0  0
 14 16  1  0  0  0  0
 14 17  1  0  0  0  0
 17 18  2  0  0  0  0
 17 19  1  0  0  0  0
 19 20  1  0  0  0  0
 21 22  2  0  0  0  0
 21 23  1  0  0  0  0
 23 24  1  0  0  0  0
 23 25  1  0  0  0  0
 25 26  1  0  0  0  0
 25 27  1  0  0  0  0
 25 28  1  0  0  0  0
M  END
$$$$

  -OEChem-02102214123D

 28 27  0     1  0  0  0  0  0999 V2000
   -2.5461   -4.2875    0.3979 H   0  0  0  0  0  0  0  0  0  0  0  0
   -2.5598   -3.3272   -0.1257 C   0  0  0  0  0  0  0  0  0  0  0  0
   -3.3973   -2.7342    0.2492 H   0  0  0  0  0  0  0  0  0  0  0  0
   -2.7003   -3.5120   -1.1934 H   0  0  0  0  0  0  0  0  0  0  0  0
   -1.2553   -2.5892    0.1065 C   0  0  0  0  0  0  0  0  0  0  0  0
   -0.3879   -3.0929    0.7958 O   0  0  0  0  0  0  0  0  0  0  0  0
   -1.0648   -1.3439   -0.4597 N   0  0  0  0  0  0  0  0  0  0  0  0
   -1.7783   -1.0338   -1.1117 H   0  0  0  0  0  0  0  0  0  0  0  0
    0.2149   -0.6039   -0.4324 C   0  0  1  0  0  0  0  0  0  0  0  0
    0.9808   -1.2436   -0.8861 H   0  0  0  0  0  0  0  0  0  0  0  0
    0.1522    0.7148   -1.2516 C   0  0  0  0  0  0  0  0  0  0  0  0
    0.6707    1.4998   -0.6873 H   0  0  0  0  0  0  0  0  0  0  0  0
    0.7240    0.5777   -2.1758 H   0  0  0  0  0  0  0  0  0  0  0  0
   -1.2626    1.2184   -1.6330 C   0  0  0  0  0  0  0  0  0  0  0  0
   -1.5896    0.7610   -2.5706 H   0  0  0  0  0  0  0  0  0  0  0  0
   -1.9798    0.9506   -0.8531 H   0  0  0  0  0  0  0  0  0  0  0  0
   -1.3249    2.7400   -1.7523 C   0  0  0  0  0  0  0  0  0  0  0  0
   -0.4529    3.3186   -2.3770 O   0  0  0  0  0  0  0  0  0  0  0  0
   -2.3638    3.3714   -1.1585 O   0  0  0  0  0  0  0  0  0  0  0  0
   -2.2346    4.3163   -1.3358 H   0  0  0  0  0  0  0  0  0  0  0  0
    0.7190   -0.2942    0.9975 C   0  0  0  0  0  0  0  0  0  0  0  0
    1.9215   -0.2315    1.2154 O   0  0  0  0  0  0  0  0  0  0  0  0
   -0.1617    0.1857    1.9498 N   0  0  0  0  0  0  0  0  0  0  0  0
   -1.1468    0.0321    1.7632 H   0  0  0  0  0  0  0  0  0  0  0  0
    0.2520    0.5330    3.3036 C   0  0  0  0  0  0  0  0  0  0  0  0
    1.0111    1.3222    3.2819 H   0  0  0  0  0  0  0  0  0  0  0  0
   -0.6045    0.8963    3.8797 H   0  0  0  0  0  0  0  0  0  0  0  0
    0.6684   -0.3427    3.8129 H   0  0  0  0  0  0  0  0  0  0  0  0
  1  2  1  0  0  0  0
  2  3  1  0  0  0  0
  2  4  1  0  0  0  0
  2  5  1  0  0  0  0
  5  6  2  0  0  0  0
  5  7  1  0  0  0  0
  7  8  1  0  0  0  0
  7  9  1  0  0  0  0
  9 10  1  0  0  0  0
  9 11  1  0  0  0  0
  9 21  1  0  0  0  0
 11 12  1  0  0  0  0
 11 13  1  0  0  0  0
 11 14  1  0  0  0  0
 14 15  1  0  0  0  0
 14 16  1  0  0  0  0
 14 17  1  0  0  0  0
 17 18  2  0  0  0  0
 17 19  1  0  0  0  0
 19 20  1  0  0  0  0
 21 22  2  0  0  0  0
 21 23  1  0  0  0  0
 23 24  1  0  0  0  0
 23 25  1  0  0  0  0
 25 26  1  0  0  0  0
 25 27  1  0  0  0  0
 25 28  1  0  0  0  0
M  END
$$$$

  -OEChem-02102214123D

 28 27  0     1  0  0  0  0  0999 V2000
   -2.5664   -4.2684    0.4023 H   0  0  0  0  0  0  0  0  0  0  0  0
   -2.5735   -3.3082   -0.1214 C   0  0  0  0  0  0  0  0  0  0  0  0
   -3.4065   -2.7094    0.2544 H   0  0  0  0  0  0  0  0  0  0  0  0
   -2.7162   -3.4922   -1.1889 H   0  0  0  0  0  0  0  0  0  0  0  0
   -1.2631   -2.5796    0.1088 C   0  0  0  0  0  0  0  0  0  0  0  0
   -0.3967   -3.0910    0.7937 O   0  0  0  0  0  0  0  0  0  0  0  0
   -1.0656   -1.3341   -0.4547 N   0  0  0  0  0  0  0  0  0  0  0  0
   -1.7827   -1.0134   -1.0974 H   0  0  0  0  0  0  0  0  0  0  0  0
    0.2202   -0.6038   -0.4316 C   0  0  1  0  0  0  0  0  0  0  0  0
    0.9789   -1.2462   -0.8933 H   0  0  0  0  0  0  0  0  0  0  0  0
    0.1564    0.7163   -1.2459 C   0  0  0  0  0  0  0  0  0  0  0  0
    0.6758    1.5063   -0.6894 H   0  0  0  0  0  0  0  0  0  0  0  0
    0.7162    0.5753   -2.1771 H   0  0  0  0  0  0  0  0  0  0  0  0
   -1.2664    1.2060   -1.6041 C   0  0  0  0  0  0  0  0  0  0  0  0
   -1.6978    0.5749   -2.3855 H   0  0  0  0  0  0  0  0  0  0  0  0
   -1.9037    1.1432   -0.7173 H   0  0  0  0  0  0  0  0  0  0  0  0
   -1.3005    2.6595   -2.0752 C   0  0  0  0  0  0  0  0  0  0  0  0
   -0.3378    3.1258   -2.6598 O   0  0  0  0  0  0  0  0  0  0  0  0
   -2.4309    3.3580   -1.8233 O   0  0  0  0  0  0  0  0  0  0  0  0
   -2.2788    4.2452   -2.1845 H   0  0  0  0  0  0  0  0  0  0  0  0
    0.7374   -0.3002    0.9946 C   0  0  0  0  0  0  0  0  0  0  0  0
    1.9419   -0.2500    1.2043 O   0  0  0  0  0  0  0  0  0  0  0  0
   -0.1312    0.1849    1.9553 N   0  0  0  0  0  0  0  0  0  0  0  0
   -1.1190    0.0406    1.7763 H   0  0  0  0  0  0  0  0  0  0  0  0
    0.2975    0.5183    3.3078 C   0  0  0  0  0  0  0  0  0  0  0  0
    1.0574    1.3067    3.2853 H   0  0  0  0  0  0  0  0  0  0  0  0
   -0.5520    0.8761    3.8972 H   0  0  0  0  0  0  0  0  0  0  0  0
    0.7187   -0.3628    3.8035 H   0  0  0  0  0  0  0  0  0  0  0  0
  1  2  1  0  0  0  0
  2  3  1  0  0  0  0
  2  4  1  0  0  0  0
  2  5  1  0  0  0  0
  5  6  2  0  0  0  0
  5  7  1  0  0  0  0
  7  8  1  0  0  0  0
  7  9  1  0  0  0  0
  9 10  1  0  0  0  0
  9 11  1  0  0  0  0
  9 21  1  0  0  0  0
 11 12  1  0  0  0  0
 11 13  1  0  0  0  0
 11 14  1  0  0  0  0
 14 15  1  0  0  0  0
 14 16  1  0  0  0  0
 14 17  1  0  0  0  0
 17 18  2  0  0  0  0
 17 19  1  0  0  0  0
 19 20  1  0  0  0  0
 21 22  2  0  0  0  0
 21 23  1  0  0  0  0
 23 24  1  0  0  0  0
 23 25  1  0  0  0  0
 25 26  1  0  0  0  0
 25 27  1  0  0  0  0
 25 28  1  0  0  0  0
M  END
$$$$

  -OEChem-02102214123D

 28 27  0     1  0  0  0  0  0999 V2000
   -2.5879   -4.2538    0.3922 H   0  0  0  0  0  0  0  0  0  0  0  0
   -2.5867   -3.2929   -0.1303 C   0  0  0  0  0  0  0  0  0  0  0  0
   -3.4178   -2.6895    0.2424 H   0  0  0  0  0  0  0  0  0  0  0  0
   -2.7262   -3.4747   -1.1986 H   0  0  0  0  0  0  0  0  0  0  0  0
   -1.2731   -2.5722    0.1069 C   0  0  0  0  0  0  0  0  0  0  0  0
   -0.4121   -3.0895    0.7941 O   0  0  0  0  0  0  0  0  0  0  0  0
   -1.0678   -1.3268   -0.4540 N   0  0  0  0  0  0  0  0  0  0  0  0
   -1.7784   -1.0078   -1.1042 H   0  0  0  0  0  0  0  0  0  0  0  0
    0.2240   -0.6086   -0.4347 C   0  0  1  0  0  0  0  0  0  0  0  0
    0.9785   -1.2481   -0.9070 H   0  0  0  0  0  0  0  0  0  0  0  0
    0.1562    0.7187   -1.2306 C   0  0  0  0  0  0  0  0  0  0  0  0
    0.9056    1.4190   -0.8416 H   0  0  0  0  0  0  0  0  0  0  0  0
    0.4404    0.4976   -2.2654 H   0  0  0  0  0  0  0  0  0  0  0  0
   -1.2314    1.4038   -1.2503 C   0  0  0  0  0  0  0  0  0  0  0  0
   -1.9760    0.7435   -1.6997 H   0  0  0  0  0  0  0  0  0  0  0  0
   -1.5405    1.6188   -0.2237 H   0  0  0  0  0  0  0  0  0  0  0  0
   -1.2622    2.7115   -2.0428 C   0  0  0  0  0  0  0  0  0  0  0  0
   -0.3194    3.0223   -2.7507 O   0  0  0  0  0  0  0  0  0  0  0  0
   -2.3781    3.4645   -1.9164 O   0  0  0  0  0  0  0  0  0  0  0  0
   -2.2310    4.2490   -2.4675 H   0  0  0  0  0  0  0  0  0  0  0  0
    0.7518   -0.3133    0.9896 C   0  0  0  0  0  0  0  0  0  0  0  0
    1.9582   -0.2699    1.1903 O   0  0  0  0  0  0  0  0  0  0  0  0
   -0.1055    0.1771    1.9582 N   0  0  0  0  0  0  0  0  0  0  0  0
   -1.0948    0.0277    1.7919 H   0  0  0  0  0  0  0  0  0  0  0  0
    0.3374    0.5122    3.3060 C   0  0  0  0  0  0  0  0  0  0  0  0
    1.1068    1.2910    3.2744 H   0  0  0  0  0  0  0  0  0  0  0  0
   -0.5032    0.8839    3.8996 H   0  0  0  0  0  0  0  0  0  0  0  0
    0.7513   -0.3715    3.8032 H   0  0  0  0  0  0  0  0  0  0  0  0
  1  2  1  0  0  0  0
  2  3  1  0  0  0  0
  2  4  1  0  0  0  0
  2  5  1  0  0  0  0
  5  6  2  0  0  0  0
  5  7  1  0  0  0  0
  7  8  1  0  0  0  0
  7  9  1  0  0  0  0
  9 10  1  0  0  0  0
  9 11  1  0  0  0  0
  9 21  1  0  0  0  0
 11 12  1  0  0  0  0
 11 13  1  0  0  0  0
 11 14  1  0  0  0  0
 14 15  1  0  0  0  0
 14 16  1  0  0  0  0
 14 17  1  0  0  0  0
 17 18  2  0  0  0  0
 17 19  1  0  0  0  0
 19 20  1  0  0  0  0
 21 22  2  0  0  0  0
 21 23  1  0  0  0  0
 23 24  1  0  0  0  0
 23 25  1  0  0  0  0
 25 26  1  0  0  0  0
 25 27  1  0  0  0  0
 25 28  1  0  0  0  0
M  END
$$$$

  -OEChem-02102214123D

 28 27  0     1  0  0  0  0  0999 V2000
   -2.5590   -4.2818    0.3799 H   0  0  0  0  0  0  0  0  0  0  0  0
   -2.5920   -3.2953   -0.0916 C   0  0  0  0  0  0  0  0  0  0  0  0
   -3.4127   -2.7230    0.3471 H   0  0  0  0  0  0  0  0  0  0  0  0
   -2.7761   -3.4244   -1.1608 H   0  0  0  0  0  0  0  0  0  0  0  0
   -1.2782   -2.5689    0.1266 C   0  0  0  0  0  0  0  0  0  0  0  0
   -0.4052   -3.0844    0.7997 O   0  0  0  0  0  0  0  0  0  0  0  0
   -1.0870   -1.3210   -0.4343 N   0  0  0  0  0  0  0  0  0  0  0  0
   -1.8048   -1.0113   -1.0810 H   0  0  0  0  0  0  0  0  0  0  0  0
    0.2040   -0.6007   -0.4380 C   0  0  1  0  0  0  0  0  0  0  0  0
    0.9498   -1.2409   -0.9235 H   0  0  0  0  0  0  0  0  0  0  0  0
    0.1368    0.7334   -1.2242 C   0  0  0  0  0  0  0  0  0  0  0  0
    0.9082    1.4234   -0.8610 H   0  0  0  0  0  0  0  0  0  0  0  0
    0.3966    0.4933   -2.2611 H   0  0  0  0  0  0  0  0  0  0  0  0
   -1.2360    1.4537   -1.2358 C   0  0  0  0  0  0  0  0  0  0  0  0
   -2.0425    0.7500   -1.4457 H   0  0  0  0  0  0  0  0  0  0  0  0
   -1.4220    1.8934   -0.2522 H   0  0  0  0  0  0  0  0  0  0  0  0
   -1.3498    2.5498   -2.2971 C   0  0  0  0  0  0  0  0  0  0  0  0
   -0.3591    2.9278   -2.8989 O   0  0  0  0  0  0  0  0  0  0  0  0
   -2.5880    3.0467   -2.5169 O   0  0  0  0  0  0  0  0  0  0  0  0
   -2.4816    3.7249   -3.2021 H   0  0  0  0  0  0  0  0  0  0  0  0
    0.7545   -0.3125    0.9787 C   0  0  0  0  0  0  0  0  0  0  0  0
    1.9637   -0.2780    1.1633 O   0  0  0  0  0  0  0  0  0  0  0  0
   -0.0883    0.1711    1.9630 N   0  0  0  0  0  0  0  0  0  0  0  0
   -1.0795    0.0229    1.8062 H   0  0  0  0  0  0  0  0  0  0  0  0
    0.3714    0.4606    3.3157 C   0  0  0  0  0  0  0  0  0  0  0  0
    1.1645    1.2157    3.2985 H   0  0  0  0  0  0  0  0  0  0  0  0
   -0.4544    0.8438    3.9225 H   0  0  0  0  0  0  0  0  0  0  0  0
    0.7603   -0.4474    3.7887 H   0  0  0  0  0  0  0  0  0  0  0  0
  1  2  1  0  0  0  0
  2  3  1  0  0  0  0
  2  4  1  0  0  0  0
  2  5  1  0  0  0  0
  5  6  2  0  0  0  0
  5  7  1  0  0  0  0
  7  8  1  0  0  0  0
  7  9  1  0  0  0  0
  9 10  1  0  0  0  0
  9 11  1  0  0  0  0
  9 21  1  0  0  0  0
 11 12  1  0  0  0  0
 11 13  1  0  0  0  0
 11 14  1  0  0  0  0
 14 15  1  0  0  0  0
 14 16  1  0  0  0  0
 14 17  1  0  0  0  0
 17 18  2  0  0  0  0
 17 19  1  0  0  0  0
 19 20  1  0  0  0  0
 21 22  2  0  0  0  0
 21 23  1  0  0  0  0
 23 24  1  0  0  0  0
 23 25  1  0  0  0  0
 25 26  1  0  0  0  0
 25 27  1  0  0  0  0
 25 28  1  0  0  0  0
M  END
$$$$

  -OEChem-02102214123D

 28 27  0     1  0  0  0  0  0999 V2000
   -2.6328   -4.2232    0.4683 H   0  0  0  0  0  0  0  0  0  0  0  0
   -2.6289   -3.2772   -0.0808 C   0  0  0  0  0  0  0  0  0  0  0  0
   -3.4529   -2.6579    0.2814 H   0  0  0  0  0  0  0  0  0  0  0  0
   -2.7778   -3.4869   -1.1428 H   0  0  0  0  0  0  0  0  0  0  0  0
   -1.3084   -2.5597    0.1259 C   0  0  0  0  0  0  0  0  0  0  0  0
   -0.4258   -3.0891    0.7754 O   0  0  0  0  0  0  0  0  0  0  0  0
   -1.1214   -1.3056   -0.4223 N   0  0  0  0  0  0  0  0  0  0  0  0
   -1.8468   -0.9885   -1.0578 H   0  0  0  0  0  0  0  0  0  0  0  0
    0.1745   -0.5950   -0.4479 C   0  0  1  0  0  0  0  0  0  0  0  0
    0.9033   -1.2331   -0.9612 H   0  0  0  0  0  0  0  0  0  0  0  0
    0.1016    0.7563   -1.2060 C   0  0  0  0  0  0  0  0  0  0  0  0
    0.8966    1.4286   -0.8614 H   0  0  0  0  0  0  0  0  0  0  0  0
    0.3300    0.5231   -2.2519 H   0  0  0  0  0  0  0  0  0  0  0  0
   -1.2543    1.5102   -1.1805 C   0  0  0  0  0  0  0  0  0  0  0  0
   -2.1001    0.8264   -1.1108 H   0  0  0  0  0  0  0  0  0  0  0  0
   -1.2919    2.1612   -0.3026 H   0  0  0  0  0  0  0  0  0  0  0  0
   -1.4751    2.3483   -2.4378 C   0  0  0  0  0  0  0  0  0  0  0  0
   -0.5701    3.0553   -2.8452 O   0  0  0  0  0  0  0  0  0  0  0  0
   -2.6789    2.2492   -3.0474 O   0  0  0  0  0  0  0  0  0  0  0  0
   -2.6370    2.8466   -3.8108 H   0  0  0  0  0  0  0  0  0  0  0  0
    0.7602   -0.3317    0.9595 C   0  0  0  0  0  0  0  0  0  0  0  0
    1.9739   -0.3070    1.1151 O   0  0  0  0  0  0  0  0  0  0  0  0
   -0.0557    0.1439    1.9699 N   0  0  0  0  0  0  0  0  0  0  0  0
   -1.0522    0.0136    1.8330 H   0  0  0  0  0  0  0  0  0  0  0  0
    0.4384    0.4292    3.3109 C   0  0  0  0  0  0  0  0  0  0  0  0
    1.2108    1.2049    3.2776 H   0  0  0  0  0  0  0  0  0  0  0  0
   -0.3777    0.7832    3.9477 H   0  0  0  0  0  0  0  0  0  0  0  0
    0.8653   -0.4734    3.7611 H   0  0  0  0  0  0  0  0  0  0  0  0
  1  2  1  0  0  0  0
  2  3  1  0  0  0  0
  2  4  1  0  0  0  0
  2  5  1  0  0  0  0
  5  6  2  0  0  0  0
  5  7  1  0  0  0  0
  7  8  1  0  0  0  0
  7  9  1  0  0  0  0
  9 10  1  0  0  0  0
  9 11  1  0  0  0  0
  9 21  1  0  0  0  0
 11 12  1  0  0  0  0
 11 13  1  0  0  0  0
 11 14  1  0  0  0  0
 14 15  1  0  0  0  0
 14 16  1  0  0  0  0
 14 17  1  0  0  0  0
 17 18  2  0  0  0  0
 17 19  1  0  0  0  0
 19 20  1  0  0  0  0
 21 22  2  0  0  0  0
 21 23  1  0  0  0  0
 23 24  1  0  0  0  0
 23 25  1  0  0  0  0
 25 26  1  0  0  0  0
 25 27  1  0  0  0  0
 25 28  1  0  0  0  0
M  END
$$$$

  -OEChem-02102214123D

 28 27  0     1  0  0  0  0  0999 V2000
   -2.7074   -4.1849    0.4410 H   0  0  0  0  0  0  0  0  0  0  0  0
   -2.7021   -3.2230   -0.0797 C   0  0  0  0  0  0  0  0  0  0  0  0
   -3.5205   -2.6104    0.3058 H   0  0  0  0  0  0  0  0  0  0  0  0
   -2.8589   -3.4005   -1.1465 H   0  0  0  0  0  0  0  0  0  0  0  0
   -1.3768   -2.5183    0.1393 C   0  0  0  0  0  0  0  0  0  0  0  0
   -0.5035   -3.0578    0.7935 O   0  0  0  0  0  0  0  0  0  0  0  0
   -1.1729   -1.2658   -0.4059 N   0  0  0  0  0  0  0  0  0  0  0  0
   -1.8876   -0.9466   -1.0542 H   0  0  0  0  0  0  0  0  0  0  0  0
    0.1386   -0.5863   -0.4543 C   0  0  1  0  0  0  0  0  0  0  0  0
    0.8405   -1.2363   -0.9892 H   0  0  0  0  0  0  0  0  0  0  0  0
    0.0705    0.7698   -1.2033 C   0  0  0  0  0  0  0  0  0  0  0  0
    0.8823    1.4264   -0.8675 H   0  0  0  0  0  0  0  0  0  0  0  0
    0.2811    0.5430   -2.2543 H   0  0  0  0  0  0  0  0  0  0  0  0
   -1.2705    1.5486   -1.1396 C   0  0  0  0  0  0  0  0  0  0  0  0
   -2.0994    0.9466   -0.7678 H   0  0  0  0  0  0  0  0  0  0  0  0
   -1.1592    2.3864   -0.4444 H   0  0  0  0  0  0  0  0  0  0  0  0
   -1.6685    2.0825   -2.5093 C   0  0  0  0  0  0  0  0  0  0  0  0
   -1.3618    3.2216   -2.8107 O   0  0  0  0  0  0  0  0  0  0  0  0
   -2.3430    1.2430   -3.3291 O   0  0  0  0  0  0  0  0  0  0  0  0
   -2.5011    1.7452   -4.1445 H   0  0  0  0  0  0  0  0  0  0  0  0
    0.7642   -0.3431    0.9393 C   0  0  0  0  0  0  0  0  0  0  0  0
    1.9819   -0.3413    1.0618 O   0  0  0  0  0  0  0  0  0  0  0  0
   -0.0151    0.1471    1.9713 N   0  0  0  0  0  0  0  0  0  0  0  0
   -1.0168    0.0308    1.8609 H   0  0  0  0  0  0  0  0  0  0  0  0
    0.5181    0.4063    3.3029 C   0  0  0  0  0  0  0  0  0  0  0  0
    1.3231    1.1476    3.2571 H   0  0  0  0  0  0  0  0  0  0  0  0
   -0.2685    0.7939    3.9572 H   0  0  0  0  0  0  0  0  0  0  0  0
    0.9138   -0.5159    3.7417 H   0  0  0  0  0  0  0  0  0  0  0  0
  1  2  1  0  0  0  0
  2  3  1  0  0  0  0
  2  4  1  0  0  0  0
  2  5  1  0  0  0  0
  5  6  2  0  0  0  0
  5  7  1  0  0  0  0
  7  8  1  0  0  0  0
  7  9  1  0  0  0  0
  9 10  1  0  0  0  0
  9 11  1  0  0  0  0
  9 21  1  0  0  0  0
 11 12  1  0  0  0  0
 11 13  1  0  0  0  0
 11 14  1  0  0  0  0
 14 15  1  0  0  0  0
 14 16  1  0  0  0  0
 14 17  1  0  0  0  0
 17 18  2  0  0  0  0
 17 19  1  0  0  0  0
 19 20  1  0  0  0  0
 21 22  2  0  0  0  0
 21 23  1  0  0  0  0
 23 24  1  0  0  0  0
 23 25  1  0  0  0  0
 25 26  1  0  0  0  0
 25 27  1  0  0  0  0
 25 28  1  0  0  0  0
M  END
$$$$

  -OEChem-02102214123D

 28 27  0     1  0  0  0  0  0999 V2000
   -2.7851   -4.1125    0.4501 H   0  0  0  0  0  0  0  0  0  0  0  0
   -2.7386   -3.1705   -0.1036 C   0  0  0  0  0  0  0  0  0  0  0  0
   -3.5541   -2.5255    0.2315 H   0  0  0  0  0  0  0  0  0  0  0  0
   -2.8634   -3.3821   -1.1684 H   0  0  0  0  0  0  0  0  0  0  0  0
   -1.4048   -2.4894    0.1368 C   0  0  0  0  0  0  0  0  0  0  0  0
   -0.5572   -3.0372    0.8177 O   0  0  0  0  0  0  0  0  0  0  0  0
   -1.1649   -1.2468   -0.4158 N   0  0  0  0  0  0  0  0  0  0  0  0
   -1.8567   -0.9231   -1.0889 H   0  0  0  0  0  0  0  0  0  0  0  0
    0.1612   -0.5942   -0.4463 C   0  0  1  0  0  0  0  0  0  0  0  0
    0.8605   -1.2595   -0.9655 H   0  0  0  0  0  0  0  0  0  0  0  0
    0.1108    0.7510   -1.2132 C   0  0  0  0  0  0  0  0  0  0  0  0
    0.9113    1.4070   -0.8509 H   0  0  0  0  0  0  0  0  0  0  0  0
    0.3516    0.5337   -2.2598 H   0  0  0  0  0  0  0  0  0  0  0  0
   -1.2341    1.5231   -1.1606 C   0  0  0  0  0  0  0  0  0  0  0  0
   -1.9781    1.0501   -0.5181 H   0  0  0  0  0  0  0  0  0  0  0  0
   -1.0455    2.5101   -0.7267 H   0  0  0  0  0  0  0  0  0  0  0  0
   -1.8214    1.7200   -2.5510 C   0  0  0  0  0  0  0  0  0  0  0  0
   -1.6856    2.7918   -3.1124 O   0  0  0  0  0  0  0  0  0  0  0  0
   -2.4705    0.6621   -3.0929 O   0  0  0  0  0  0  0  0  0  0  0  0
   -2.7664    0.9605   -3.9682 H   0  0  0  0  0  0  0  0  0  0  0  0
    0.7688   -0.3488    0.9549 C   0  0  0  0  0  0  0  0  0  0  0  0
    1.9844   -0.3662    1.0966 O   0  0  0  0  0  0  0  0  0  0  0  0
   -0.0173    0.1677    1.9686 N   0  0  0  0  0  0  0  0  0  0  0  0
   -1.0188    0.0640    1.8446 H   0  0  0  0  0  0  0  0  0  0  0  0
    0.4988    0.4263    3.3069 C   0  0  0  0  0  0  0  0  0  0  0  0
    1.3058    1.1658    3.2707 H   0  0  0  0  0  0  0  0  0  0  0  0
   -0.2956    0.8153    3.9509 H   0  0  0  0  0  0  0  0  0  0  0  0
    0.8866   -0.4965    3.7514 H   0  0  0  0  0  0  0  0  0  0  0  0
  1  2  1  0  0  0  0
  2  3  1  0  0  0  0
  2  4  1  0  0  0  0
  2  5  1  0  0  0  0
  5  6  2  0  0  0  0
  5  7  1  0  0  0  0
  7  8  1  0  0  0  0
  7  9  1  0  0  0  0
  9 10  1  0  0  0  0
  9 11  1  0  0  0  0
  9 21  1  0  0  0  0
 11 12  1  0  0  0  0
 11 13  1  0  0  0  0
 11 14  1  0  0  0  0
 14 15  1  0  0  0  0
 14 16  1  0  0  0  0
 14 17  1  0  0  0  0
 17 18  2  0  0  0  0
 17 19  1  0  0  0  0
 19 20  1  0  0  0  0
 21 22  2  0  0  0  0
 21 23  1  0  0  0  0
 23 24  1  0  0  0  0
 23 25  1  0  0  0  0
 25 26  1  0  0  0  0
 25 27  1  0  0  0  0
 25 28  1  0  0  0  0
M  END
$$$$

  -OEChem-02102214123D

 28 27  0     1  0  0  0  0  0999 V2000
   -2.4733   -4.3259    0.4070 H   0  0  0  0  0  0  0  0  0  0  0  0
   -2.5038   -3.3737   -0.1302 C   0  0  0  0  0  0  0  0  0  0  0  0
   -3.3732   -2.8057    0.2090 H   0  0  0  0  0  0  0  0  0  0  0  0
   -2.6039   -3.5758   -1.1995 H   0  0  0  0  0  0  0  0  0  0  0  0
   -1.2340   -2.5862    0.1306 C   0  0  0  0  0  0  0  0  0  0  0  0
   -0.3527   -3.0647    0.8215 O   0  0  0  0  0  0  0  0  0  0  0  0
   -1.0909   -1.3252   -0.4120 N   0  0  0  0  0  0  0  0  0  0  0  0
   -1.8021   -1.0595   -1.0946 H   0  0  0  0  0  0  0  0  0  0  0  0
    0.1798   -0.5692   -0.4377 C   0  0  1  0  0  0  0  0  0  0  0  0
    0.9292   -1.1718   -0.9634 H   0  0  0  0  0  0  0  0  0  0  0  0
    0.0096    0.7677   -1.2012 C   0  0  0  0  0  0  0  0  0  0  0  0
    0.7378    1.4915   -0.8164 H   0  0  0  0  0  0  0  0  0  0  0  0
    0.2729    0.6007   -2.2517 H   0  0  0  0  0  0  0  0  0  0  0  0
   -1.4043    1.3935   -1.1252 C   0  0  0  0  0  0  0  0  0  0  0  0
   -1.9831    1.0195   -0.2771 H   0  0  0  0  0  0  0  0  0  0  0  0
   -1.2915    2.4701   -0.9665 H   0  0  0  0  0  0  0  0  0  0  0  0
   -2.1760    1.2074   -2.4236 C   0  0  0  0  0  0  0  0  0  0  0  0
   -2.6662    0.1069   -2.6234 O   0  0  0  0  0  0  0  0  0  0  0  0
   -2.2658    2.2438   -3.2878 O   0  0  0  0  0  0  0  0  0  0  0  0
   -2.7799    1.9251   -4.0455 H   0  0  0  0  0  0  0  0  0  0  0  0
    0.7678   -0.2863    0.9646 C   0  0  0  0  0  0  0  0  0  0  0  0
    1.9808   -0.1971    1.1025 O   0  0  0  0  0  0  0  0  0  0  0  0
   -0.0569    0.1590    1.9815 N   0  0  0  0  0  0  0  0  0  0  0  0
   -1.0437   -0.0455    1.8629 H   0  0  0  0  0  0  0  0  0  0  0  0
    0.4392    0.4489    3.3209 C   0  0  0  0  0  0  0  0  0  0  0  0
    1.1895    1.2458    3.2881 H   0  0  0  0  0  0  0  0  0  0  0  0
   -0.3813    0.7759    3.9665 H   0  0  0  0  0  0  0  0  0  0  0  0
    0.8938   -0.4448    3.7615 H   0  0  0  0  0  0  0  0  0  0  0  0
  1  2  1  0  0  0  0
  2  3  1  0  0  0  0
  2  4  1  0  0  0  0
  2  5  1  0  0  0  0
  5  6  2  0  0  0  0
  5  7  1  0  0  0  0
  7  8  1  0  0  0  0
  7  9  1  0  0  0  0
  9 10  1  0  0  0  0
  9 11  1  0  0  0  0
  9 21  1  0  0  0  0
 11 12  1  0  0  0  0
 11 13  1  0  0  0  0
 11 14  1  0  0  0  0
 14 15  1  0  0  0  0
 14 16  1  0  0  0  0
 14 17  1  0  0  0  0
 17 18  2  0  0  0  0
 17 19  1  0  0  0  0
 19 20  1  0  0  0  0
 21 22  2  0  0  0  0
 21 23  1  0  0  0  0
 23 24  1  0  0  0  0
 23 25  1  0  0  0  0
 25 26  1  0  0  0  0
 25 27  1  0  0  0  0
 25 28  1  0  0  0  0
M  END
$$$$

  -OEChem-02102214123D

 28 27  0     1  0  0  0  0  0999 V2000
   -2.4575   -4.3233    0.4557 H   0  0  0  0  0  0  0  0  0  0  0  0
   -2.5039   -3.3695   -0.0774 C   0  0  0  0  0  0  0  0  0  0  0  0
   -3.3388   -2.7853    0.3168 H   0  0  0  0  0  0  0  0  0  0  0  0
   -2.6761   -3.5668   -1.1382 H   0  0  0  0  0  0  0  0  0  0  0  0
   -1.2051   -2.6069    0.1010 C   0  0  0  0  0  0  0  0  0  0  0  0
   -0.2727   -3.1182    0.6946 O   0  0  0  0  0  0  0  0  0  0  0  0
   -1.0916   -1.3307   -0.4104 N   0  0  0  0  0  0  0  0  0  0  0  0
   -1.8812   -1.0050   -0.9684 H   0  0  0  0  0  0  0  0  0  0  0  0
    0.1603   -0.5479   -0.4467 C   0  0  1  0  0  0  0  0  0  0  0  0
    0.9086   -1.1348   -0.9914 H   0  0  0  0  0  0  0  0  0  0  0  0
   -0.0134    0.8028   -1.1889 C   0  0  0  0  0  0  0  0  0  0  0  0
    0.7152    1.5182   -0.7891 H   0  0  0  0  0  0  0  0  0  0  0  0
    0.2481    0.6563   -2.2427 H   0  0  0  0  0  0  0  0  0  0  0  0
   -1.4204    1.4374   -1.1117 C   0  0  0  0  0  0  0  0  0  0  0  0
   -1.8885    1.2317   -0.1449 H   0  0  0  0  0  0  0  0  0  0  0  0
   -1.3155    2.5235   -1.1895 H   0  0  0  0  0  0  0  0  0  0  0  0
   -2.3315    0.9874   -2.2495 C   0  0  0  0  0  0  0  0  0  0  0  0
   -3.0547    0.0221   -2.0600 O   0  0  0  0  0  0  0  0  0  0  0  0
   -2.2744    1.6661   -3.4177 O   0  0  0  0  0  0  0  0  0  0  0  0
   -2.9106    1.2422   -4.0141 H   0  0  0  0  0  0  0  0  0  0  0  0
    0.7678   -0.2912    0.9524 C   0  0  0  0  0  0  0  0  0  0  0  0
    1.9806   -0.1772    1.0714 O   0  0  0  0  0  0  0  0  0  0  0  0
   -0.0474    0.1083    1.9959 N   0  0  0  0  0  0  0  0  0  0  0  0
   -1.0333   -0.1074    1.8896 H   0  0  0  0  0  0  0  0  0  0  0  0
    0.4676    0.3868    3.3308 C   0  0  0  0  0  0  0  0  0  0  0  0
    1.1945    1.2052    3.2988 H   0  0  0  0  0  0  0  0  0  0  0  0
   -0.3486    0.6782    3.9988 H   0  0  0  0  0  0  0  0  0  0  0  0
    0.9563   -0.5015    3.7449 H   0  0  0  0  0  0  0  0  0  0  0  0
  1  2  1  0  0  0  0
  2  3  1  0  0  0  0
  2  4  1  0  0  0  0
  2  5  1  0  0  0  0
  5  6  2  0  0  0  0
  5  7  1  0  0  0  0
  7  8  1  0  0  0  0
  7  9  1  0  0  0  0
  9 10  1  0  0  0  0
  9 11  1  0  0  0  0
  9 21  1  0  0  0  0
 11 12  1  0  0  0  0
 11 13  1  0  0  0  0
 11 14  1  0  0  0  0
 14 15  1  0  0  0  0
 14 16  1  0  0  0  0
 14 17  1  0  0  0  0
 17 18  2  0  0  0  0
 17 19  1  0  0  0  0
 19 20  1  0  0  0  0
 21 22  2  0  0  0  0
 21 23  1  0  0  0  0
 23 24  1  0  0  0  0
 23 25  1  0  0  0  0
 25 26  1  0  0  0  0
 25 27  1  0  0  0  0
 25 28  1  0  0  0  0
M  END
$$$$

  -OEChem-02102214123D

 28 27  0     1  0  0  0  0  0999 V2000
   -2.4545   -4.3954    0.3702 H   0  0  0  0  0  0  0  0  0  0  0  0
   -2.5055   -3.4143   -0.1105 C   0  0  0  0  0  0  0  0  0  0  0  0
   -3.3943   -2.8908    0.2493 H   0  0  0  0  0  0  0  0  0  0  0  0
   -2.5865   -3.5567   -1.1909 H   0  0  0  0  0  0  0  0  0  0  0  0
   -1.2627   -2.6080    0.2149 C   0  0  0  0  0  0  0  0  0  0  0  0
   -0.4469   -3.0455    1.0060 O   0  0  0  0  0  0  0  0  0  0  0  0
   -1.0788   -1.3766   -0.3819 N   0  0  0  0  0  0  0  0  0  0  0  0
   -1.6974   -1.2018   -1.1730 H   0  0  0  0  0  0  0  0  0  0  0  0
    0.2107   -0.6592   -0.4026 C   0  0  1  0  0  0  0  0  0  0  0  0
    0.9550   -1.3117   -0.8727 H   0  0  0  0  0  0  0  0  0  0  0  0
    0.1470    0.6620   -1.2193 C   0  0  0  0  0  0  0  0  0  0  0  0
    0.9079    1.3501   -0.8329 H   0  0  0  0  0  0  0  0  0  0  0  0
    0.4388    0.4325   -2.2497 H   0  0  0  0  0  0  0  0  0  0  0  0
   -1.2099    1.4125   -1.2670 C   0  0  0  0  0  0  0  0  0  0  0  0
   -1.6010    1.5015   -0.2498 H   0  0  0  0  0  0  0  0  0  0  0  0
   -1.0162    2.4271   -1.6267 H   0  0  0  0  0  0  0  0  0  0  0  0
   -2.3151    0.8362   -2.1565 C   0  0  0  0  0  0  0  0  0  0  0  0
   -2.1466   -0.2191   -2.7467 O   0  0  0  0  0  0  0  0  0  0  0  0
   -3.4603    1.5511   -2.2281 O   0  0  0  0  0  0  0  0  0  0  0  0
   -4.0417    1.0776   -2.8429 H   0  0  0  0  0  0  0  0  0  0  0  0
    0.7600   -0.3331    1.0073 C   0  0  0  0  0  0  0  0  0  0  0  0
    1.9701   -0.2751    1.1839 O   0  0  0  0  0  0  0  0  0  0  0  0
   -0.0844    0.1777    1.9764 N   0  0  0  0  0  0  0  0  0  0  0  0
   -1.0714   -0.0109    1.8340 H   0  0  0  0  0  0  0  0  0  0  0  0
    0.3746    0.5072    3.3202 C   0  0  0  0  0  0  0  0  0  0  0  0
    1.1761    1.2526    3.2809 H   0  0  0  0  0  0  0  0  0  0  0  0
   -0.4486    0.9200    3.9108 H   0  0  0  0  0  0  0  0  0  0  0  0
    0.7515   -0.3884    3.8254 H   0  0  0  0  0  0  0  0  0  0  0  0
  1  2  1  0  0  0  0
  2  3  1  0  0  0  0
  2  4  1  0  0  0  0
  2  5  1  0  0  0  0
  5  6  2  0  0  0  0
  5  7  1  0  0  0  0
  7  8  1  0  0  0  0
  7  9  1  0  0  0  0
  9 10  1  0  0  0  0
  9 11  1  0  0  0  0
  9 21  1  0  0  0  0
 11 12  1  0  0  0  0
 11 13  1  0  0  0  0
 11 14  1  0  0  0  0
 14 15  1  0  0  0  0
 14 16  1  0  0  0  0
 14 17  1  0  0  0  0
 17 18  2  0  0  0  0
 17 19  1  0  0  0  0
 19 20  1  0  0  0  0
 21 22  2  0  0  0  0
 21 23  1  0  0  0  0
 23 24  1  0  0  0  0
 23 25  1  0  0  0  0
 25 26  1  0  0  0  0
 25 27  1  0  0  0  0
 25 28  1  0  0  0  0
M  END
$$$$

  -OEChem-02102214123D

 28 27  0     1  0  0  0  0  0999 V2000
   -2.4144   -4.4353    0.3997 H   0  0  0  0  0  0  0  0  0  0  0  0
   -2.4783   -3.4550   -0.0812 C   0  0  0  0  0  0  0  0  0  0  0  0
   -3.3700   -2.9403    0.2840 H   0  0  0  0  0  0  0  0  0  0  0  0
   -2.5648   -3.5988   -1.1610 H   0  0  0  0  0  0  0  0  0  0  0  0
   -1.2417   -2.6359    0.2356 C   0  0  0  0  0  0  0  0  0  0  0  0
   -0.4222   -3.0596    1.0304 O   0  0  0  0  0  0  0  0  0  0  0  0
   -1.0683   -1.4097   -0.3755 N   0  0  0  0  0  0  0  0  0  0  0  0
   -1.6845   -1.2544   -1.1723 H   0  0  0  0  0  0  0  0  0  0  0  0
    0.2139   -0.6807   -0.4007 C   0  0  1  0  0  0  0  0  0  0  0  0
    0.9658   -1.3343   -0.8574 H   0  0  0  0  0  0  0  0  0  0  0  0
    0.1651    0.6422   -1.2197 C   0  0  0  0  0  0  0  0  0  0  0  0
    0.9435    1.3192   -0.8483 H   0  0  0  0  0  0  0  0  0  0  0  0
    0.4482    0.3864   -2.2465 H   0  0  0  0  0  0  0  0  0  0  0  0
   -1.1672    1.4360   -1.3072 C   0  0  0  0  0  0  0  0  0  0  0  0
   -1.4364    1.7468   -0.2937 H   0  0  0  0  0  0  0  0  0  0  0  0
   -0.9839    2.3463   -1.8846 H   0  0  0  0  0  0  0  0  0  0  0  0
   -2.3946    0.7594   -1.9186 C   0  0  0  0  0  0  0  0  0  0  0  0
   -2.2545   -0.1999   -2.6605 O   0  0  0  0  0  0  0  0  0  0  0  0
   -3.6007    1.2779   -1.5943 O   0  0  0  0  0  0  0  0  0  0  0  0
   -4.2611    0.7740   -2.0944 H   0  0  0  0  0  0  0  0  0  0  0  0
    0.7478   -0.3372    1.0109 C   0  0  0  0  0  0  0  0  0  0  0  0
    1.9557   -0.2704    1.1999 O   0  0  0  0  0  0  0  0  0  0  0  0
   -0.1112    0.1737    1.9668 N   0  0  0  0  0  0  0  0  0  0  0  0
   -1.0956   -0.0204    1.8141 H   0  0  0  0  0  0  0  0  0  0  0  0
    0.3312    0.5164    3.3124 C   0  0  0  0  0  0  0  0  0  0  0  0
    1.1263    1.2686    3.2759 H   0  0  0  0  0  0  0  0  0  0  0  0
   -0.5015    0.9257    3.8922 H   0  0  0  0  0  0  0  0  0  0  0  0
    0.7110   -0.3727    3.8265 H   0  0  0  0  0  0  0  0  0  0  0  0
  1  2  1  0  0  0  0
  2  3  1  0  0  0  0
  2  4  1  0  0  0  0
  2  5  1  0  0  0  0
  5  6  2  0  0  0  0
  5  7  1  0  0  0  0
  7  8  1  0  0  0  0
  7  9  1  0  0  0  0
  9 10  1  0  0  0  0
  9 11  1  0  0  0  0
  9 21  1  0  0  0  0
 11 12  1  0  0  0  0
 11 13  1  0  0  0  0
 11 14  1  0  0  0  0
 14 15  1  0  0  0  0
 14 16  1  0  0  0  0
 14 17  1  0  0  0  0
 17 18  2  0  0  0  0
 17 19  1  0  0  0  0
 19 20  1  0  0  0  0
 21 22  2  0  0  0  0
 21 23  1  0  0  0  0
 23 24  1  0  0  0  0
 23 25  1  0  0  0  0
 25 26  1  0  0  0  0
 25 27  1  0  0  0  0
 25 28  1  0  0  0  0
M  END
$$$$

  -OEChem-02102214123D

 28 27  0     1  0  0  0  0  0999 V2000
   -2.3659   -4.4714    0.4778 H   0  0  0  0  0  0  0  0  0  0  0  0
   -2.4382   -3.5050   -0.0293 C   0  0  0  0  0  0  0  0  0  0  0  0
   -3.3324   -2.9871    0.3248 H   0  0  0  0  0  0  0  0  0  0  0  0
   -2.5271   -3.6786   -1.1046 H   0  0  0  0  0  0  0  0  0  0  0  0
   -1.2064   -2.6693    0.2618 C   0  0  0  0  0  0  0  0  0  0  0  0
   -0.3683   -3.0780    1.0445 O   0  0  0  0  0  0  0  0  0  0  0  0
   -1.0547   -1.4480   -0.3644 N   0  0  0  0  0  0  0  0  0  0  0  0
   -1.6895   -1.3018   -1.1486 H   0  0  0  0  0  0  0  0  0  0  0  0
    0.2136   -0.6962   -0.4047 C   0  0  1  0  0  0  0  0  0  0  0  0
    0.9752   -1.3433   -0.8547 H   0  0  0  0  0  0  0  0  0  0  0  0
    0.1562    0.6251   -1.2291 C   0  0  0  0  0  0  0  0  0  0  0  0
    0.9500    1.2986   -0.8848 H   0  0  0  0  0  0  0  0  0  0  0  0
    0.4216    0.3426   -2.2533 H   0  0  0  0  0  0  0  0  0  0  0  0
   -1.1603    1.4452   -1.3459 C   0  0  0  0  0  0  0  0  0  0  0  0
   -1.2913    1.9733   -0.3965 H   0  0  0  0  0  0  0  0  0  0  0  0
   -1.0246    2.2075   -2.1181 H   0  0  0  0  0  0  0  0  0  0  0  0
   -2.4778    0.7303   -1.6367 C   0  0  0  0  0  0  0  0  0  0  0  0
   -2.4961   -0.1702   -2.4609 O   0  0  0  0  0  0  0  0  0  0  0  0
   -3.5714    1.1352   -0.9511 O   0  0  0  0  0  0  0  0  0  0  0  0
   -4.3180    0.6188   -1.2915 H   0  0  0  0  0  0  0  0  0  0  0  0
    0.7410   -0.3284    1.0033 C   0  0  0  0  0  0  0  0  0  0  0  0
    1.9474   -0.2422    1.1933 O   0  0  0  0  0  0  0  0  0  0  0  0
   -0.1262    0.1768    1.9548 N   0  0  0  0  0  0  0  0  0  0  0  0
   -1.1106   -0.0133    1.7961 H   0  0  0  0  0  0  0  0  0  0  0  0
    0.3087    0.5460    3.2960 C   0  0  0  0  0  0  0  0  0  0  0  0
    1.0768    1.3254    3.2501 H   0  0  0  0  0  0  0  0  0  0  0  0
   -0.5359    0.9305    3.8757 H   0  0  0  0  0  0  0  0  0  0  0  0
    0.7217   -0.3246    3.8167 H   0  0  0  0  0  0  0  0  0  0  0  0
  1  2  1  0  0  0  0
  2  3  1  0  0  0  0
  2  4  1  0  0  0  0
  2  5  1  0  0  0  0
  5  6  2  0  0  0  0
  5  7  1  0  0  0  0
  7  8  1  0  0  0  0
  7  9  1  0  0  0  0
  9 10  1  0  0  0  0
  9 11  1  0  0  0  0
  9 21  1  0  0  0  0
 11 12  1  0  0  0  0
 11 13  1  0  0  0  0
 11 14  1  0  0  0  0
 14 15  1  0  0  0  0
 14 16  1  0  0  0  0
 14 17  1  0  0  0  0
 17 18  2  0  0  0  0
 17 19  1  0  0  0  0
 19 20  1  0  0  0  0
 21 22  2  0  0  0  0
 21 23  1  0  0  0  0
 23 24  1  0  0  0  0
 23 25  1  0  0  0  0
 25 26  1  0  0  0  0
 25 27  1  0  0  0  0
 25 28  1  0  0  0  0
M  END
$$$$

  -OEChem-02102214123D

 28 27  0     1  0  0  0  0  0999 V2000
   -2.0872   -4.5646    0.5350 H   0  0  0  0  0  0  0  0  0  0  0  0
   -2.2191   -3.6153    0.0079 C   0  0  0  0  0  0  0  0  0  0  0  0
   -3.1345   -3.1381    0.3650 H   0  0  0  0  0  0  0  0  0  0  0  0
   -2.3144   -3.8177   -1.0618 H   0  0  0  0  0  0  0  0  0  0  0  0
   -1.0298   -2.7085    0.2609 C   0  0  0  0  0  0  0  0  0  0  0  0
   -0.1438   -3.0680    1.0145 O   0  0  0  0  0  0  0  0  0  0  0  0
   -0.9685   -1.4807   -0.3682 N   0  0  0  0  0  0  0  0  0  0  0  0
   -1.6455   -1.3556   -1.1207 H   0  0  0  0  0  0  0  0  0  0  0  0
    0.2360   -0.6300   -0.4092 C   0  0  1  0  0  0  0  0  0  0  0  0
    1.0487   -1.2159   -0.8533 H   0  0  0  0  0  0  0  0  0  0  0  0
    0.0858    0.6866   -1.2308 C   0  0  0  0  0  0  0  0  0  0  0  0
    0.8423    1.4079   -0.8991 H   0  0  0  0  0  0  0  0  0  0  0  0
    0.3635    0.4087   -2.2530 H   0  0  0  0  0  0  0  0  0  0  0  0
   -1.2730    1.4353   -1.3680 C   0  0  0  0  0  0  0  0  0  0  0  0
   -1.3202    2.1556   -0.5456 H   0  0  0  0  0  0  0  0  0  0  0  0
   -1.2570    2.0169   -2.2941 H   0  0  0  0  0  0  0  0  0  0  0  0
   -2.5839    0.6574   -1.3303 C   0  0  0  0  0  0  0  0  0  0  0  0
   -2.7806   -0.1966   -2.1802 O   0  0  0  0  0  0  0  0  0  0  0  0
   -3.4548    0.9322   -0.3313 O   0  0  0  0  0  0  0  0  0  0  0  0
   -4.2378    0.3827   -0.4885 H   0  0  0  0  0  0  0  0  0  0  0  0
    0.7207   -0.2213    1.0027 C   0  0  0  0  0  0  0  0  0  0  0  0
    1.9148   -0.0443    1.2069 O   0  0  0  0  0  0  0  0  0  0  0  0
   -0.1938    0.2126    1.9450 N   0  0  0  0  0  0  0  0  0  0  0  0
   -1.1647   -0.0204    1.7615 H   0  0  0  0  0  0  0  0  0  0  0  0
    0.1905    0.6245    3.2889 C   0  0  0  0  0  0  0  0  0  0  0  0
    0.8808    1.4737    3.2472 H   0  0  0  0  0  0  0  0  0  0  0  0
   -0.6931    0.9270    3.8588 H   0  0  0  0  0  0  0  0  0  0  0  0
    0.6794   -0.2016    3.8164 H   0  0  0  0  0  0  0  0  0  0  0  0
  1  2  1  0  0  0  0
  2  3  1  0  0  0  0
  2  4  1  0  0  0  0
  2  5  1  0  0  0  0
  5  6  2  0  0  0  0
  5  7  1  0  0  0  0
  7  8  1  0  0  0  0
  7  9  1  0  0  0  0
  9 10  1  0  0  0  0
  9 11  1  0  0  0  0
  9 21  1  0  0  0  0
 11 12  1  0  0  0  0
 11 13  1  0  0  0  0
 11 14  1  0  0  0  0
 14 15  1  0  0  0  0
 14 16  1  0  0  0  0
 14 17  1  0  0  0  0
 17 18  2  0  0  0  0
 17 19  1  0  0  0  0
 19 20  1  0  0  0  0
 21 22  2  0  0  0  0
 21 23  1  0  0  0  0
 23 24  1  0  0  0  0
 23 25  1  0  0  0  0
 25 26  1  0  0  0  0
 25 27  1  0  0  0  0
 25 28  1  0  0  0  0
M  END
$$$$

  -OEChem-02102214123D

 28 27  0     1  0  0  0  0  0999 V2000
   -2.0843   -4.5215    0.1069 H   0  0  0  0  0  0  0  0  0  0  0  0
   -2.2662   -3.5038   -0.2502 C   0  0  0  0  0  0  0  0  0  0  0  0
   -3.0780   -3.0660    0.3353 H   0  0  0  0  0  0  0  0  0  0  0  0
   -2.5641   -3.5481   -1.3004 H   0  0  0  0  0  0  0  0  0  0  0  0
   -1.0099   -2.6670   -0.1012 C   0  0  0  0  0  0  0  0  0  0  0  0
    0.0026   -3.1702    0.3498 O   0  0  0  0  0  0  0  0  0  0  0  0
   -1.0255   -1.3445   -0.4993 N   0  0  0  0  0  0  0  0  0  0  0  0
   -1.8434   -1.0548   -1.0309 H   0  0  0  0  0  0  0  0  0  0  0  0
    0.1643   -0.4740   -0.5448 C   0  0  1  0  0  0  0  0  0  0  0  0
    0.9110   -0.9387   -1.1990 H   0  0  0  0  0  0  0  0  0  0  0  0
   -0.1070    0.9750   -1.0495 C   0  0  0  0  0  0  0  0  0  0  0  0
    0.6949    1.6345   -0.6959 H   0  0  0  0  0  0  0  0  0  0  0  0
    0.0139    0.9175   -2.1363 H   0  0  0  0  0  0  0  0  0  0  0  0
   -1.4684    1.7010   -0.8249 C   0  0  0  0  0  0  0  0  0  0  0  0
   -1.3066    2.4563   -0.0494 H   0  0  0  0  0  0  0  0  0  0  0  0
   -1.7238    2.2444   -1.7392 H   0  0  0  0  0  0  0  0  0  0  0  0
   -2.6969    0.9030   -0.4036 C   0  0  0  0  0  0  0  0  0  0  0  0
   -2.9639    0.8318    0.7837 O   0  0  0  0  0  0  0  0  0  0  0  0
   -3.4037    0.2652   -1.3669 O   0  0  0  0  0  0  0  0  0  0  0  0
   -4.1886   -0.0988   -0.9257 H   0  0  0  0  0  0  0  0  0  0  0  0
    0.8220   -0.3259    0.8484 C   0  0  0  0  0  0  0  0  0  0  0  0
    2.0358   -0.1938    0.9382 O   0  0  0  0  0  0  0  0  0  0  0  0
    0.0334   -0.0928    1.9610 N   0  0  0  0  0  0  0  0  0  0  0  0
   -0.9737   -0.1659    1.8359 H   0  0  0  0  0  0  0  0  0  0  0  0
    0.5729    0.1192    3.2972 C   0  0  0  0  0  0  0  0  0  0  0  0
    1.2605    0.9715    3.3029 H   0  0  0  0  0  0  0  0  0  0  0  0
   -0.2370    0.3248    4.0037 H   0  0  0  0  0  0  0  0  0  0  0  0
    1.1126   -0.7714    3.6361 H   0  0  0  0  0  0  0  0  0  0  0  0
  1  2  1  0  0  0  0
  2  3  1  0  0  0  0
  2  4  1  0  0  0  0
  2  5  1  0  0  0  0
  5  6  2  0  0  0  0
  5  7  1  0  0  0  0
  7  8  1  0  0  0  0
  7  9  1  0  0  0  0
  9 10  1  0  0  0  0
  9 11  1  0  0  0  0
  9 21  1  0  0  0  0
 11 12  1  0  0  0  0
 11 13  1  0  0  0  0
 11 14  1  0  0  0  0
 14 15  1  0  0  0  0
 14 16  1  0  0  0  0
 14 17  1  0  0  0  0
 17 18  2  0  0  0  0
 17 19  1  0  0  0  0
 19 20  1  0  0  0  0
 21 22  2  0  0  0  0
 21 23  1  0  0  0  0
 23 24  1  0  0  0  0
 23 25  1  0  0  0  0
 25 26  1  0  0  0  0
 25 27  1  0  0  0  0
 25 28  1  0  0  0  0
M  END
$$$$

  -OEChem-02102214123D

 28 27  0     1  0  0  0  0  0999 V2000
   -2.4518   -4.4002    0.3471 H   0  0  0  0  0  0  0  0  0  0  0  0
   -2.5243   -3.3901   -0.0662 C   0  0  0  0  0  0  0  0  0  0  0  0
   -3.3015   -2.8447    0.4737 H   0  0  0  0  0  0  0  0  0  0  0  0
   -2.8005   -3.4607   -1.1210 H   0  0  0  0  0  0  0  0  0  0  0  0
   -1.1954   -2.6729    0.0751 C   0  0  0  0  0  0  0  0  0  0  0  0
   -0.2551   -3.2377    0.6032 O   0  0  0  0  0  0  0  0  0  0  0  0
   -1.0601   -1.3905   -0.4190 N   0  0  0  0  0  0  0  0  0  0  0  0
   -1.8361   -1.0417   -0.9777 H   0  0  0  0  0  0  0  0  0  0  0  0
    0.2069   -0.6348   -0.4355 C   0  0  1  0  0  0  0  0  0  0  0  0
    0.9473   -1.2250   -0.9879 H   0  0  0  0  0  0  0  0  0  0  0  0
    0.1024    0.7648   -1.1101 C   0  0  0  0  0  0  0  0  0  0  0  0
    0.9126    1.3962   -0.7257 H   0  0  0  0  0  0  0  0  0  0  0  0
    0.3341    0.5987   -2.1673 H   0  0  0  0  0  0  0  0  0  0  0  0
   -1.2109    1.6061   -1.0874 C   0  0  0  0  0  0  0  0  0  0  0  0
   -0.9816    2.5712   -0.6252 H   0  0  0  0  0  0  0  0  0  0  0  0
   -1.4970    1.8177   -2.1218 H   0  0  0  0  0  0  0  0  0  0  0  0
   -2.4453    1.0546   -0.3808 C   0  0  0  0  0  0  0  0  0  0  0  0
   -2.5440    1.2073    0.8245 O   0  0  0  0  0  0  0  0  0  0  0  0
   -3.3498    0.3722   -1.1235 O   0  0  0  0  0  0  0  0  0  0  0  0
   -4.0911    0.1769   -0.5271 H   0  0  0  0  0  0  0  0  0  0  0  0
    0.7958   -0.4212    0.9809 C   0  0  0  0  0  0  0  0  0  0  0  0
    2.0103   -0.4028    1.1336 O   0  0  0  0  0  0  0  0  0  0  0  0
   -0.0183   -0.0231    2.0260 N   0  0  0  0  0  0  0  0  0  0  0  0
   -1.0074    0.1068    1.8205 H   0  0  0  0  0  0  0  0  0  0  0  0
    0.4855    0.3390    3.3436 C   0  0  0  0  0  0  0  0  0  0  0  0
    1.1648    1.1947    3.2733 H   0  0  0  0  0  0  0  0  0  0  0  0
   -0.3441    0.6083    4.0040 H   0  0  0  0  0  0  0  0  0  0  0  0
    1.0238   -0.5034    3.7904 H   0  0  0  0  0  0  0  0  0  0  0  0
  1  2  1  0  0  0  0
  2  3  1  0  0  0  0
  2  4  1  0  0  0  0
  2  5  1  0  0  0  0
  5  6  2  0  0  0  0
  5  7  1  0  0  0  0
  7  8  1  0  0  0  0
  7  9  1  0  0  0  0
  9 10  1  0  0  0  0
  9 11  1  0  0  0  0
  9 21  1  0  0  0  0
 11 12  1  0  0  0  0
 11 13  1  0  0  0  0
 11 14  1  0  0  0  0
 14 15  1  0  0  0  0
 14 16  1  0  0  0  0
 14 17  1  0  0  0  0
 17 18  2  0  0  0  0
 17 19  1  0  0  0  0
 19 20  1  0  0  0  0
 21 22  2  0  0  0  0
 21 23  1  0  0  0  0
 23 24  1  0  0  0  0
 23 25  1  0  0  0  0
 25 26  1  0  0  0  0
 25 27  1  0  0  0  0
 25 28  1  0  0  0  0
M  END
$$$$

  -OEChem-02102214123D

 28 27  0     1  0  0  0  0  0999 V2000
   -2.5633   -4.3288    0.2509 H   0  0  0  0  0  0  0  0  0  0  0  0
   -2.6120   -3.2985   -0.1130 C   0  0  0  0  0  0  0  0  0  0  0  0
   -3.3487   -2.7508    0.4791 H   0  0  0  0  0  0  0  0  0  0  0  0
   -2.9286   -3.3098   -1.1587 H   0  0  0  0  0  0  0  0  0  0  0  0
   -1.2527   -2.6371    0.0105 C   0  0  0  0  0  0  0  0  0  0  0  0
   -0.3173   -3.2545    0.4860 O   0  0  0  0  0  0  0  0  0  0  0  0
   -1.0850   -1.3403   -0.4316 N   0  0  0  0  0  0  0  0  0  0  0  0
   -1.8814   -0.9138   -0.9012 H   0  0  0  0  0  0  0  0  0  0  0  0
    0.1982   -0.6130   -0.4077 C   0  0  1  0  0  0  0  0  0  0  0  0
    0.9240   -1.2159   -0.9658 H   0  0  0  0  0  0  0  0  0  0  0  0
    0.1229    0.7765   -1.1016 C   0  0  0  0  0  0  0  0  0  0  0  0
    0.9042    1.4104   -0.6654 H   0  0  0  0  0  0  0  0  0  0  0  0
    0.4114    0.6238   -2.1471 H   0  0  0  0  0  0  0  0  0  0  0  0
   -1.1971    1.6034   -1.1173 C   0  0  0  0  0  0  0  0  0  0  0  0
   -0.9499    2.6539   -0.9369 H   0  0  0  0  0  0  0  0  0  0  0  0
   -1.6124    1.5491   -2.1278 H   0  0  0  0  0  0  0  0  0  0  0  0
   -2.3198    1.2164   -0.1575 C   0  0  0  0  0  0  0  0  0  0  0  0
   -2.2231    1.5279    1.0158 O   0  0  0  0  0  0  0  0  0  0  0  0
   -3.3591    0.5049   -0.6575 O   0  0  0  0  0  0  0  0  0  0  0  0
   -3.9964    0.4197    0.0707 H   0  0  0  0  0  0  0  0  0  0  0  0
    0.8090   -0.4485    1.0070 C   0  0  0  0  0  0  0  0  0  0  0  0
    2.0259   -0.4710    1.1391 O   0  0  0  0  0  0  0  0  0  0  0  0
    0.0289   -0.0634    2.0821 N   0  0  0  0  0  0  0  0  0  0  0  0
   -0.9395    0.1785    1.8821 H   0  0  0  0  0  0  0  0  0  0  0  0
    0.5822    0.2927    3.3819 C   0  0  0  0  0  0  0  0  0  0  0  0
    1.2272    1.1733    3.2962 H   0  0  0  0  0  0  0  0  0  0  0  0
   -0.2245    0.5192    4.0856 H   0  0  0  0  0  0  0  0  0  0  0  0
    1.1704   -0.5373    3.7875 H   0  0  0  0  0  0  0  0  0  0  0  0
  1  2  1  0  0  0  0
  2  3  1  0  0  0  0
  2  4  1  0  0  0  0
  2  5  1  0  0  0  0
  5  6  2  0  0  0  0
  5  7  1  0  0  0  0
  7  8  1  0  0  0  0
  7  9  1  0  0  0  0
  9 10  1  0  0  0  0
  9 11  1  0  0  0  0
  9 21  1  0  0  0  0
 11 12  1  0  0  0  0
 11 13  1  0  0  0  0
 11 14  1  0  0  0  0
 14 15  1  0  0  0  0
 14 16  1  0  0  0  0
 14 17  1  0  0  0  0
 17 18  2  0  0  0  0
 17 19  1  0  0  0  0
 19 20  1  0  0  0  0
 21 22  2  0  0  0  0
 21 23  1  0  0  0  0
 23 24  1  0  0  0  0
 23 25  1  0  0  0  0
 25 26  1  0  0  0  0
 25 27  1  0  0  0  0
 25 28  1  0  0  0  0
M  END
$$$$

  -OEChem-02102214123D

 28 27  0     1  0  0  0  0  0999 V2000
   -2.2067   -4.2123    1.0069 H   0  0  0  0  0  0  0  0  0  0  0  0
   -2.3236   -3.2633    0.4764 C   0  0  0  0  0  0  0  0  0  0  0  0
   -3.0208   -2.6317    1.0323 H   0  0  0  0  0  0  0  0  0  0  0  0
   -2.7358   -3.4625   -0.5158 H   0  0  0  0  0  0  0  0  0  0  0  0
   -0.9822   -2.5677    0.3475 C   0  0  0  0  0  0  0  0  0  0  0  0
    0.0271   -3.0960    0.7811 O   0  0  0  0  0  0  0  0  0  0  0  0
   -0.9164   -1.3175   -0.2298 N   0  0  0  0  0  0  0  0  0  0  0  0
   -1.8041   -0.8920   -0.4957 H   0  0  0  0  0  0  0  0  0  0  0  0
    0.3176   -0.5230   -0.3631 C   0  0  1  0  0  0  0  0  0  0  0  0
    1.0353   -1.1791   -0.8693 H   0  0  0  0  0  0  0  0  0  0  0  0
    0.1545    0.7117   -1.2953 C   0  0  0  0  0  0  0  0  0  0  0  0
    0.8881    1.4632   -0.9811 H   0  0  0  0  0  0  0  0  0  0  0  0
    0.4515    0.4008   -2.3023 H   0  0  0  0  0  0  0  0  0  0  0  0
   -1.2111    1.4348   -1.4299 C   0  0  0  0  0  0  0  0  0  0  0  0
   -1.0294    2.4762   -1.7106 H   0  0  0  0  0  0  0  0  0  0  0  0
   -1.7564    0.9736   -2.2589 H   0  0  0  0  0  0  0  0  0  0  0  0
   -2.1362    1.4221   -0.2182 C   0  0  0  0  0  0  0  0  0  0  0  0
   -3.0333    0.5935   -0.1742 O   0  0  0  0  0  0  0  0  0  0  0  0
   -1.9334    2.3606    0.7341 O   0  0  0  0  0  0  0  0  0  0  0  0
   -2.6212    2.2311    1.4034 H   0  0  0  0  0  0  0  0  0  0  0  0
    1.0505   -0.1462    0.9559 C   0  0  0  0  0  0  0  0  0  0  0  0
    2.2399    0.1262    0.9065 O   0  0  0  0  0  0  0  0  0  0  0  0
    0.4771    0.3321    2.1148 N   0  0  0  0  0  0  0  0  0  0  0  0
    1.1883    0.6664    2.7603 H   0  0  0  0  0  0  0  0  0  0  0  0
   -0.7369   -0.2112    2.7054 C   0  0  0  0  0  0  0  0  0  0  0  0
   -0.9633    0.3176    3.6363 H   0  0  0  0  0  0  0  0  0  0  0  0
   -1.5937   -0.0983    2.0389 H   0  0  0  0  0  0  0  0  0  0  0  0
   -0.6051   -1.2732    2.9370 H   0  0  0  0  0  0  0  0  0  0  0  0
  1  2  1  0  0  0  0
  2  3  1  0  0  0  0
  2  4  1  0  0  0  0
  2  5  1  0  0  0  0
  5  6  2  0  0  0  0
  5  7  1  0  0  0  0
  7  8  1  0  0  0  0
  7  9  1  0  0  0  0
  9 10  1  0  0  0  0
  9 11  1  0  0  0  0
  9 21  1  0  0  0  0
 11 12  1  0  0  0  0
 11 13  1  0  0  0  0
 11 14  1  0  0  0  0
 14 15  1  0  0  0  0
 14 16  1  0  0  0  0
 14 17  1  0  0  0  0
 17 18  2  0  0  0  0
 17 19  1  0  0  0  0
 19 20  1  0  0  0  0
 21 22  2  0  0  0  0
 21 23  1  0  0  0  0
 23 24  1  0  0  0  0
 23 25  1  0  0  0  0
 25 26  1  0  0  0  0
 25 27  1  0  0  0  0
 25 28  1  0  0  0  0
M  END
$$$$

  -OEChem-02102214123D

 28 27  0     1  0  0  0  0  0999 V2000
   -2.6581   -4.1837    0.4517 H   0  0  0  0  0  0  0  0  0  0  0  0
   -2.6699   -3.1695    0.0420 C   0  0  0  0  0  0  0  0  0  0  0  0
   -3.3279   -2.5495    0.6554 H   0  0  0  0  0  0  0  0  0  0  0  0
   -3.0609   -3.2070   -0.9777 H   0  0  0  0  0  0  0  0  0  0  0  0
   -1.2670   -2.5926    0.0372 C   0  0  0  0  0  0  0  0  0  0  0  0
   -0.3344   -3.2528    0.4582 O   0  0  0  0  0  0  0  0  0  0  0  0
   -1.0567   -1.3163   -0.4434 N   0  0  0  0  0  0  0  0  0  0  0  0
   -1.8901   -0.7821   -0.6821 H   0  0  0  0  0  0  0  0  0  0  0  0
    0.2372   -0.6104   -0.3717 C   0  0  1  0  0  0  0  0  0  0  0  0
    0.9784   -1.2626   -0.8489 H   0  0  0  0  0  0  0  0  0  0  0  0
    0.2207    0.7045   -1.1926 C   0  0  0  0  0  0  0  0  0  0  0  0
    0.9506    1.3939   -0.7517 H   0  0  0  0  0  0  0  0  0  0  0  0
    0.5793    0.4747   -2.2014 H   0  0  0  0  0  0  0  0  0  0  0  0
   -1.1277    1.4514   -1.3369 C   0  0  0  0  0  0  0  0  0  0  0  0
   -0.9366    2.4508   -1.7391 H   0  0  0  0  0  0  0  0  0  0  0  0
   -1.7417    0.9240   -2.0724 H   0  0  0  0  0  0  0  0  0  0  0  0
   -1.9469    1.5969   -0.0588 C   0  0  0  0  0  0  0  0  0  0  0  0
   -1.6062    2.4212    0.7682 O   0  0  0  0  0  0  0  0  0  0  0  0
   -3.0158    0.7784    0.0991 O   0  0  0  0  0  0  0  0  0  0  0  0
   -3.4571    1.0751    0.9127 H   0  0  0  0  0  0  0  0  0  0  0  0
    0.7887   -0.3912    1.0585 C   0  0  0  0  0  0  0  0  0  0  0  0
    1.9985   -0.4026    1.2413 O   0  0  0  0  0  0  0  0  0  0  0  0
   -0.0310    0.0534    2.0796 N   0  0  0  0  0  0  0  0  0  0  0  0
   -1.0044    0.2171    1.8514 H   0  0  0  0  0  0  0  0  0  0  0  0
    0.4739    0.5017    3.3711 C   0  0  0  0  0  0  0  0  0  0  0  0
    1.0900    1.3990    3.2500 H   0  0  0  0  0  0  0  0  0  0  0  0
   -0.3579    0.7391    4.0409 H   0  0  0  0  0  0  0  0  0  0  0  0
    1.0799   -0.2818    3.8386 H   0  0  0  0  0  0  0  0  0  0  0  0
  1  2  1  0  0  0  0
  2  3  1  0  0  0  0
  2  4  1  0  0  0  0
  2  5  1  0  0  0  0
  5  6  2  0  0  0  0
  5  7  1  0  0  0  0
  7  8  1  0  0  0  0
  7  9  1  0  0  0  0
  9 10  1  0  0  0  0
  9 11  1  0  0  0  0
  9 21  1  0  0  0  0
 11 12  1  0  0  0  0
 11 13  1  0  0  0  0
 11 14  1  0  0  0  0
 14 15  1  0  0  0  0
 14 16  1  0  0  0  0
 14 17  1  0  0  0  0
 17 18  2  0  0  0  0
 17 19  1  0  0  0  0
 19 20  1  0  0  0  0
 21 22  2  0  0  0  0
 21 23  1  0  0  0  0
 23 24  1  0  0  0  0
 23 25  1  0  0  0  0
 25 26  1  0  0  0  0
 25 27  1  0  0  0  0
 25 28  1  0  0  0  0
M  END
$$$$

  -OEChem-02102214123D

 28 27  0     1  0  0  0  0  0999 V2000
   -2.7323   -4.0641    0.4278 H   0  0  0  0  0  0  0  0  0  0  0  0
   -2.7138   -3.0688   -0.0255 C   0  0  0  0  0  0  0  0  0  0  0  0
   -3.3504   -2.4029    0.5619 H   0  0  0  0  0  0  0  0  0  0  0  0
   -3.1087   -3.1378   -1.0421 H   0  0  0  0  0  0  0  0  0  0  0  0
   -1.2938   -2.5370   -0.0581 C   0  0  0  0  0  0  0  0  0  0  0  0
   -0.3735   -3.2311    0.3344 O   0  0  0  0  0  0  0  0  0  0  0  0
   -1.0549   -1.2580   -0.5179 N   0  0  0  0  0  0  0  0  0  0  0  0
   -1.8774   -0.6825   -0.6813 H   0  0  0  0  0  0  0  0  0  0  0  0
    0.2520   -0.5808   -0.4136 C   0  0  1  0  0  0  0  0  0  0  0  0
    0.9921   -1.2361   -0.8883 H   0  0  0  0  0  0  0  0  0  0  0  0
    0.2755    0.7533   -1.2008 C   0  0  0  0  0  0  0  0  0  0  0  0
    1.0221    1.4195   -0.7518 H   0  0  0  0  0  0  0  0  0  0  0  0
    0.6230    0.5306   -2.2151 H   0  0  0  0  0  0  0  0  0  0  0  0
   -1.0629    1.5154   -1.3304 C   0  0  0  0  0  0  0  0  0  0  0  0
   -0.8904    2.4223   -1.9181 H   0  0  0  0  0  0  0  0  0  0  0  0
   -1.7832    0.9115   -1.8883 H   0  0  0  0  0  0  0  0  0  0  0  0
   -1.6845    1.9252    0.0001 C   0  0  0  0  0  0  0  0  0  0  0  0
   -1.3694    2.9953    0.4856 O   0  0  0  0  0  0  0  0  0  0  0  0
   -2.5828    1.0822    0.5674 O   0  0  0  0  0  0  0  0  0  0  0  0
   -2.9223    1.5626    1.3417 H   0  0  0  0  0  0  0  0  0  0  0  0
    0.7628   -0.4053    1.0355 C   0  0  0  0  0  0  0  0  0  0  0  0
    1.9652   -0.4153    1.2599 O   0  0  0  0  0  0  0  0  0  0  0  0
   -0.0942    0.0349    2.0264 N   0  0  0  0  0  0  0  0  0  0  0  0
   -1.0854    0.0265    1.8079 H   0  0  0  0  0  0  0  0  0  0  0  0
    0.3392    0.3462    3.3824 C   0  0  0  0  0  0  0  0  0  0  0  0
    1.0800    1.1527    3.3712 H   0  0  0  0  0  0  0  0  0  0  0  0
   -0.5125    0.6693    3.9885 H   0  0  0  0  0  0  0  0  0  0  0  0
    0.7860   -0.5359    3.8530 H   0  0  0  0  0  0  0  0  0  0  0  0
  1  2  1  0  0  0  0
  2  3  1  0  0  0  0
  2  4  1  0  0  0  0
  2  5  1  0  0  0  0
  5  6  2  0  0  0  0
  5  7  1  0  0  0  0
  7  8  1  0  0  0  0
  7  9  1  0  0  0  0
  9 10  1  0  0  0  0
  9 11  1  0  0  0  0
  9 21  1  0  0  0  0
 11 12  1  0  0  0  0
 11 13  1  0  0  0  0
 11 14  1  0  0  0  0
 14 15  1  0  0  0  0
 14 16  1  0  0  0  0
 14 17  1  0  0  0  0
 17 18  2  0  0  0  0
 17 19  1  0  0  0  0
 19 20  1  0  0  0  0
 21 22  2  0  0  0  0
 21 23  1  0  0  0  0
 23 24  1  0  0  0  0
 23 25  1  0  0  0  0
 25 26  1  0  0  0  0
 25 27  1  0  0  0  0
 25 28  1  0  0  0  0
M  END
$$$$

  -OEChem-02102214123D

 28 27  0     1  0  0  0  0  0999 V2000
   -2.7341   -4.1069    0.3752 H   0  0  0  0  0  0  0  0  0  0  0  0
   -2.7117   -3.1117   -0.0782 C   0  0  0  0  0  0  0  0  0  0  0  0
   -3.3983   -2.4611    0.4687 H   0  0  0  0  0  0  0  0  0  0  0  0
   -3.0425   -3.1912   -1.1165 H   0  0  0  0  0  0  0  0  0  0  0  0
   -1.3050   -2.5465   -0.0248 C   0  0  0  0  0  0  0  0  0  0  0  0
   -0.4002   -3.2091    0.4492 O   0  0  0  0  0  0  0  0  0  0  0  0
   -1.0585   -1.2778   -0.5101 N   0  0  0  0  0  0  0  0  0  0  0  0
   -1.8653   -0.7433   -0.8154 H   0  0  0  0  0  0  0  0  0  0  0  0
    0.2450   -0.5925   -0.4089 C   0  0  1  0  0  0  0  0  0  0  0  0
    0.9929   -1.2523   -0.8647 H   0  0  0  0  0  0  0  0  0  0  0  0
    0.2761    0.7366   -1.2057 C   0  0  0  0  0  0  0  0  0  0  0  0
    1.0326    1.4064   -0.7786 H   0  0  0  0  0  0  0  0  0  0  0  0
    0.6134    0.4925   -2.2186 H   0  0  0  0  0  0  0  0  0  0  0  0
   -1.0644    1.4932   -1.3453 C   0  0  0  0  0  0  0  0  0  0  0  0
   -0.9422    2.2601   -2.1163 H   0  0  0  0  0  0  0  0  0  0  0  0
   -1.8654    0.8366   -1.6899 H   0  0  0  0  0  0  0  0  0  0  0  0
   -1.4842    2.2008   -0.0630 C   0  0  0  0  0  0  0  0  0  0  0  0
   -1.0302    3.3048    0.1745 O   0  0  0  0  0  0  0  0  0  0  0  0
   -2.3609    1.5598    0.7479 O   0  0  0  0  0  0  0  0  0  0  0  0
   -2.5371    2.1849    1.4709 H   0  0  0  0  0  0  0  0  0  0  0  0
    0.7375   -0.3825    1.0421 C   0  0  0  0  0  0  0  0  0  0  0  0
    1.9367   -0.3977    1.2833 O   0  0  0  0  0  0  0  0  0  0  0  0
   -0.1298    0.0767    2.0153 N   0  0  0  0  0  0  0  0  0  0  0  0
   -1.1132    0.1336    1.7643 H   0  0  0  0  0  0  0  0  0  0  0  0
    0.2887    0.4200    3.3680 C   0  0  0  0  0  0  0  0  0  0  0  0
    1.0065    1.2468    3.3479 H   0  0  0  0  0  0  0  0  0  0  0  0
   -0.5748    0.7254    3.9663 H   0  0  0  0  0  0  0  0  0  0  0  0
    0.7582   -0.4425    3.8528 H   0  0  0  0  0  0  0  0  0  0  0  0
  1  2  1  0  0  0  0
  2  3  1  0  0  0  0
  2  4  1  0  0  0  0
  2  5  1  0  0  0  0
  5  6  2  0  0  0  0
  5  7  1  0  0  0  0
  7  8  1  0  0  0  0
  7  9  1  0  0  0  0
  9 10  1  0  0  0  0
  9 11  1  0  0  0  0
  9 21  1  0  0  0  0
 11 12  1  0  0  0  0
 11 13  1  0  0  0  0
 11 14  1  0  0  0  0
 14 15  1  0  0  0  0
 14 16  1  0  0  0  0
 14 17  1  0  0  0  0
 17 18  2  0  0  0  0
 17 19  1  0  0  0  0
 19 20  1  0  0  0  0
 21 22  2  0  0  0  0
 21 23  1  0  0  0  0
 23 24  1  0  0  0  0
 23 25  1  0  0  0  0
 25 26  1  0  0  0  0
 25 27  1  0  0  0  0
 25 28  1  0  0  0  0
M  END
$$$$

  -OEChem-02102214123D

 28 27  0     1  0  0  0  0  0999 V2000
   -2.7220   -4.1722    0.3478 H   0  0  0  0  0  0  0  0  0  0  0  0
   -2.6836   -3.2039   -0.1594 C   0  0  0  0  0  0  0  0  0  0  0  0
   -3.4615   -2.5593    0.2566 H   0  0  0  0  0  0  0  0  0  0  0  0
   -2.8751   -3.3571   -1.2242 H   0  0  0  0  0  0  0  0  0  0  0  0
   -1.3209   -2.5667    0.0362 C   0  0  0  0  0  0  0  0  0  0  0  0
   -0.4525   -3.1644    0.6449 O   0  0  0  0  0  0  0  0  0  0  0  0
   -1.0712   -1.3144   -0.4893 N   0  0  0  0  0  0  0  0  0  0  0  0
   -1.8108   -0.8981   -1.0443 H   0  0  0  0  0  0  0  0  0  0  0  0
    0.2297   -0.6210   -0.4067 C   0  0  1  0  0  0  0  0  0  0  0  0
    0.9855   -1.2785   -0.8524 H   0  0  0  0  0  0  0  0  0  0  0  0
    0.2450    0.7128   -1.1981 C   0  0  0  0  0  0  0  0  0  0  0  0
    1.0209    1.3782   -0.7990 H   0  0  0  0  0  0  0  0  0  0  0  0
    0.5550    0.4599   -2.2174 H   0  0  0  0  0  0  0  0  0  0  0  0
   -1.0970    1.4765   -1.3190 C   0  0  0  0  0  0  0  0  0  0  0  0
   -1.0706    2.0641   -2.2417 H   0  0  0  0  0  0  0  0  0  0  0  0
   -1.9607    0.8166   -1.4014 H   0  0  0  0  0  0  0  0  0  0  0  0
   -1.3027    2.4573   -0.1710 C   0  0  0  0  0  0  0  0  0  0  0  0
   -0.7340    3.5334   -0.2078 O   0  0  0  0  0  0  0  0  0  0  0  0
   -2.1210    2.0742    0.8379 O   0  0  0  0  0  0  0  0  0  0  0  0
   -2.1354    2.8251    1.4536 H   0  0  0  0  0  0  0  0  0  0  0  0
    0.7100   -0.3634    1.0414 C   0  0  0  0  0  0  0  0  0  0  0  0
    1.9077   -0.3754    1.2916 O   0  0  0  0  0  0  0  0  0  0  0  0
   -0.1650    0.1241    1.9944 N   0  0  0  0  0  0  0  0  0  0  0  0
   -1.1366    0.2348    1.7158 H   0  0  0  0  0  0  0  0  0  0  0  0
    0.2501    0.5439    3.3262 C   0  0  0  0  0  0  0  0  0  0  0  0
    0.9388    1.3928    3.2625 H   0  0  0  0  0  0  0  0  0  0  0  0
   -0.6202    0.8463    3.9161 H   0  0  0  0  0  0  0  0  0  0  0  0
    0.7516   -0.2784    3.8474 H   0  0  0  0  0  0  0  0  0  0  0  0
  1  2  1  0  0  0  0
  2  3  1  0  0  0  0
  2  4  1  0  0  0  0
  2  5  1  0  0  0  0
  5  6  2  0  0  0  0
  5  7  1  0  0  0  0
  7  8  1  0  0  0  0
  7  9  1  0  0  0  0
  9 10  1  0  0  0  0
  9 11  1  0  0  0  0
  9 21  1  0  0  0  0
 11 12  1  0  0  0  0
 11 13  1  0  0  0  0
 11 14  1  0  0  0  0
 14 15  1  0  0  0  0
 14 16  1  0  0  0  0
 14 17  1  0  0  0  0
 17 18  2  0  0  0  0
 17 19  1  0  0  0  0
 19 20  1  0  0  0  0
 21 22  2  0  0  0  0
 21 23  1  0  0  0  0
 23 24  1  0  0  0  0
 23 25  1  0  0  0  0
 25 26  1  0  0  0  0
 25 27  1  0  0  0  0
 25 28  1  0  0  0  0
M  END
$$$$

  -OEChem-02102214123D

 28 27  0     1  0  0  0  0  0999 V2000
   -2.4141   -4.3791    0.4297 H   0  0  0  0  0  0  0  0  0  0  0  0
   -2.4813   -3.4222   -0.0961 C   0  0  0  0  0  0  0  0  0  0  0  0
   -3.2922   -2.8368    0.3438 H   0  0  0  0  0  0  0  0  0  0  0  0
   -2.7061   -3.6139   -1.1481 H   0  0  0  0  0  0  0  0  0  0  0  0
   -1.1706   -2.6680    0.0247 C   0  0  0  0  0  0  0  0  0  0  0  0
   -0.2115   -3.1992    0.5538 O   0  0  0  0  0  0  0  0  0  0  0  0
   -1.0698   -1.3882   -0.4849 N   0  0  0  0  0  0  0  0  0  0  0  0
   -1.8713   -1.0385   -0.9986 H   0  0  0  0  0  0  0  0  0  0  0  0
    0.1685   -0.5839   -0.4701 C   0  0  1  0  0  0  0  0  0  0  0  0
    0.9486   -1.1495   -0.9927 H   0  0  0  0  0  0  0  0  0  0  0  0
    0.0032    0.7829   -1.1840 C   0  0  0  0  0  0  0  0  0  0  0  0
    0.7582    1.4913   -0.8206 H   0  0  0  0  0  0  0  0  0  0  0  0
    0.2413    0.6058   -2.2381 H   0  0  0  0  0  0  0  0  0  0  0  0
   -1.4060    1.4298   -1.1513 C   0  0  0  0  0  0  0  0  0  0  0  0
   -1.6216    1.8400   -2.1422 H   0  0  0  0  0  0  0  0  0  0  0  0
   -2.2074    0.7272   -0.9218 H   0  0  0  0  0  0  0  0  0  0  0  0
   -1.4544    2.5886   -0.1639 C   0  0  0  0  0  0  0  0  0  0  0  0
   -1.9746    2.3856    0.9205 O   0  0  0  0  0  0  0  0  0  0  0  0
   -0.9167    3.7733   -0.5331 O   0  0  0  0  0  0  0  0  0  0  0  0
   -1.0260    4.3681    0.2250 H   0  0  0  0  0  0  0  0  0  0  0  0
    0.7140   -0.3181    0.9537 C   0  0  0  0  0  0  0  0  0  0  0  0
    1.9222   -0.2304    1.1296 O   0  0  0  0  0  0  0  0  0  0  0  0
   -0.1403    0.0690    1.9703 N   0  0  0  0  0  0  0  0  0  0  0  0
   -1.1216    0.1791    1.7306 H   0  0  0  0  0  0  0  0  0  0  0  0
    0.3227    0.5454    3.2665 C   0  0  0  0  0  0  0  0  0  0  0  0
    0.8764    1.4831    3.1540 H   0  0  0  0  0  0  0  0  0  0  0  0
   -0.5291    0.7218    3.9299 H   0  0  0  0  0  0  0  0  0  0  0  0
    0.9770   -0.1969    3.7358 H   0  0  0  0  0  0  0  0  0  0  0  0
  1  2  1  0  0  0  0
  2  3  1  0  0  0  0
  2  4  1  0  0  0  0
  2  5  1  0  0  0  0
  5  6  2  0  0  0  0
  5  7  1  0  0  0  0
  7  8  1  0  0  0  0
  7  9  1  0  0  0  0
  9 10  1  0  0  0  0
  9 11  1  0  0  0  0
  9 21  1  0  0  0  0
 11 12  1  0  0  0  0
 11 13  1  0  0  0  0
 11 14  1  0  0  0  0
 14 15  1  0  0  0  0
 14 16  1  0  0  0  0
 14 17  1  0  0  0  0
 17 18  2  0  0  0  0
 17 19  1  0  0  0  0
 19 20  1  0  0  0  0
 21 22  2  0  0  0  0
 21 23  1  0  0  0  0
 23 24  1  0  0  0  0
 23 25  1  0  0  0  0
 25 26  1  0  0  0  0
 25 27  1  0  0  0  0
 25 28  1  0  0  0  0
M  END
$$$$

  -OEChem-02102214123D

 28 27  0     1  0  0  0  0  0999 V2000
   -2.6115   -4.2515    0.3712 H   0  0  0  0  0  0  0  0  0  0  0  0
   -2.5911   -3.3035   -0.1743 C   0  0  0  0  0  0  0  0  0  0  0  0
   -3.4258   -2.6856    0.1653 H   0  0  0  0  0  0  0  0  0  0  0  0
   -2.7077   -3.5096   -1.2409 H   0  0  0  0  0  0  0  0  0  0  0  0
   -1.2777   -2.5864    0.0755 C   0  0  0  0  0  0  0  0  0  0  0  0
   -0.4253   -3.1074    0.7708 O   0  0  0  0  0  0  0  0  0  0  0  0
   -1.0568   -1.3481   -0.4954 N   0  0  0  0  0  0  0  0  0  0  0  0
   -1.7515   -1.0301   -1.1635 H   0  0  0  0  0  0  0  0  0  0  0  0
    0.2262   -0.6186   -0.4266 C   0  0  1  0  0  0  0  0  0  0  0  0
    1.0078   -1.2548   -0.8576 H   0  0  0  0  0  0  0  0  0  0  0  0
    0.1854    0.7095   -1.2250 C   0  0  0  0  0  0  0  0  0  0  0  0
    0.9424    1.3964   -0.8254 H   0  0  0  0  0  0  0  0  0  0  0  0
    0.5020    0.4784   -2.2475 H   0  0  0  0  0  0  0  0  0  0  0  0
   -1.1885    1.4244   -1.3255 C   0  0  0  0  0  0  0  0  0  0  0  0
   -1.4789    1.5114   -2.3768 H   0  0  0  0  0  0  0  0  0  0  0  0
   -1.9850    0.8859   -0.8107 H   0  0  0  0  0  0  0  0  0  0  0  0
   -1.1224    2.8201   -0.7172 C   0  0  0  0  0  0  0  0  0  0  0  0
   -0.6983    3.7346   -1.4009 O   0  0  0  0  0  0  0  0  0  0  0  0
   -1.5325    2.9658    0.5641 O   0  0  0  0  0  0  0  0  0  0  0  0
   -1.3876    3.9002    0.7814 H   0  0  0  0  0  0  0  0  0  0  0  0
    0.6808   -0.2976    1.0174 C   0  0  0  0  0  0  0  0  0  0  0  0
    1.8749   -0.2687    1.2839 O   0  0  0  0  0  0  0  0  0  0  0  0
   -0.2234    0.2008    1.9372 N   0  0  0  0  0  0  0  0  0  0  0  0
   -1.2004    0.2135    1.6644 H   0  0  0  0  0  0  0  0  0  0  0  0
    0.1476    0.6264    3.2798 C   0  0  0  0  0  0  0  0  0  0  0  0
    0.8798    1.4395    3.2358 H   0  0  0  0  0  0  0  0  0  0  0  0
   -0.7339    0.9845    3.8201 H   0  0  0  0  0  0  0  0  0  0  0  0
    0.5815   -0.2096    3.8386 H   0  0  0  0  0  0  0  0  0  0  0  0
  1  2  1  0  0  0  0
  2  3  1  0  0  0  0
  2  4  1  0  0  0  0
  2  5  1  0  0  0  0
  5  6  2  0  0  0  0
  5  7  1  0  0  0  0
  7  8  1  0  0  0  0
  7  9  1  0  0  0  0
  9 10  1  0  0  0  0
  9 11  1  0  0  0  0
  9 21  1  0  0  0  0
 11 12  1  0  0  0  0
 11 13  1  0  0  0  0
 11 14  1  0  0  0  0
 14 15  1  0  0  0  0
 14 16  1  0  0  0  0
 14 17  1  0  0  0  0
 17 18  2  0  0  0  0
 17 19  1  0  0  0  0
 19 20  1  0  0  0  0
 21 22  2  0  0  0  0
 21 23  1  0  0  0  0
 23 24  1  0  0  0  0
 23 25  1  0  0  0  0
 25 26  1  0  0  0  0
 25 27  1  0  0  0  0
 25 28  1  0  0  0  0
M  END
$$$$

  -OEChem-02102214123D

 28 27  0     1  0  0  0  0  0999 V2000
   -2.5724   -4.2587    0.3755 H   0  0  0  0  0  0  0  0  0  0  0  0
   -2.5644   -3.3084   -0.1662 C   0  0  0  0  0  0  0  0  0  0  0  0
   -3.4066   -2.7025    0.1761 H   0  0  0  0  0  0  0  0  0  0  0  0
   -2.6789   -3.5122   -1.2337 H   0  0  0  0  0  0  0  0  0  0  0  0
   -1.2600   -2.5760    0.0862 C   0  0  0  0  0  0  0  0  0  0  0  0
   -0.4094   -3.0790    0.7966 O   0  0  0  0  0  0  0  0  0  0  0  0
   -1.0498   -1.3371   -0.4870 N   0  0  0  0  0  0  0  0  0  0  0  0
   -1.7462   -1.0277   -1.1577 H   0  0  0  0  0  0  0  0  0  0  0  0
    0.2308   -0.6013   -0.4312 C   0  0  1  0  0  0  0  0  0  0  0  0
    1.0116   -1.2342   -0.8686 H   0  0  0  0  0  0  0  0  0  0  0  0
    0.1654    0.7166   -1.2432 C   0  0  0  0  0  0  0  0  0  0  0  0
    0.8999    1.4195   -0.8301 H   0  0  0  0  0  0  0  0  0  0  0  0
    0.4912    0.5046   -2.2672 H   0  0  0  0  0  0  0  0  0  0  0  0
   -1.2269    1.3928   -1.3225 C   0  0  0  0  0  0  0  0  0  0  0  0
   -1.6817    1.2070   -2.2996 H   0  0  0  0  0  0  0  0  0  0  0  0
   -1.9020    1.0007   -0.5586 H   0  0  0  0  0  0  0  0  0  0  0  0
   -1.1294    2.8952   -1.0823 C   0  0  0  0  0  0  0  0  0  0  0  0
   -0.6065    3.5866   -1.9384 O   0  0  0  0  0  0  0  0  0  0  0  0
   -1.6234    3.3824    0.0792 O   0  0  0  0  0  0  0  0  0  0  0  0
   -1.4501    4.3365    0.0608 H   0  0  0  0  0  0  0  0  0  0  0  0
    0.7011   -0.2762    1.0069 C   0  0  0  0  0  0  0  0  0  0  0  0
    1.8987   -0.2226    1.2529 O   0  0  0  0  0  0  0  0  0  0  0  0
   -0.1959    0.2184    1.9361 N   0  0  0  0  0  0  0  0  0  0  0  0
   -1.1801    0.1096    1.7167 H   0  0  0  0  0  0  0  0  0  0  0  0
    0.1892    0.5904    3.2913 C   0  0  0  0  0  0  0  0  0  0  0  0
    0.9460    1.3817    3.2712 H   0  0  0  0  0  0  0  0  0  0  0  0
   -0.6798    0.9591    3.8443 H   0  0  0  0  0  0  0  0  0  0  0  0
    0.5987   -0.2749    3.8230 H   0  0  0  0  0  0  0  0  0  0  0  0
  1  2  1  0  0  0  0
  2  3  1  0  0  0  0
  2  4  1  0  0  0  0
  2  5  1  0  0  0  0
  5  6  2  0  0  0  0
  5  7  1  0  0  0  0
  7  8  1  0  0  0  0
  7  9  1  0  0  0  0
  9 10  1  0  0  0  0
  9 11  1  0  0  0  0
  9 21  1  0  0  0  0
 11 12  1  0  0  0  0
 11 13  1  0  0  0  0
 11 14  1  0  0  0  0
 14 15  1  0  0  0  0
 14 16  1  0  0  0  0
 14 17  1  0  0  0  0
 17 18  2  0  0  0  0
 17 19  1  0  0  0  0
 19 20  1  0  0  0  0
 21 22  2  0  0  0  0
 21 23  1  0  0  0  0
 23 24  1  0  0  0  0
 23 25  1  0  0  0  0
 25 26  1  0  0  0  0
 25 27  1  0  0  0  0
 25 28  1  0  0  0  0
M  END
$$$$

  -OEChem-02102214123D

 28 27  0     1  0  0  0  0  0999 V2000
   -2.5715   -4.2631    0.3499 H   0  0  0  0  0  0  0  0  0  0  0  0
   -2.5713   -3.2991   -0.1672 C   0  0  0  0  0  0  0  0  0  0  0  0
   -3.4104   -2.7034    0.1997 H   0  0  0  0  0  0  0  0  0  0  0  0
   -2.6976   -3.4759   -1.2381 H   0  0  0  0  0  0  0  0  0  0  0  0
   -1.2654   -2.5707    0.0883 C   0  0  0  0  0  0  0  0  0  0  0  0
   -0.4130   -3.0816    0.7909 O   0  0  0  0  0  0  0  0  0  0  0  0
   -1.0536   -1.3280   -0.4762 N   0  0  0  0  0  0  0  0  0  0  0  0
   -1.7571   -1.0057   -1.1333 H   0  0  0  0  0  0  0  0  0  0  0  0
    0.2337   -0.6026   -0.4293 C   0  0  1  0  0  0  0  0  0  0  0  0
    1.0035   -1.2396   -0.8801 H   0  0  0  0  0  0  0  0  0  0  0  0
    0.1654    0.7138   -1.2412 C   0  0  0  0  0  0  0  0  0  0  0  0
    0.8938    1.4190   -0.8217 H   0  0  0  0  0  0  0  0  0  0  0  0
    0.4867    0.5124   -2.2685 H   0  0  0  0  0  0  0  0  0  0  0  0
   -1.2318    1.3769   -1.2950 C   0  0  0  0  0  0  0  0  0  0  0  0
   -1.8136    0.9744   -2.1283 H   0  0  0  0  0  0  0  0  0  0  0  0
   -1.7759    1.1699   -0.3692 H   0  0  0  0  0  0  0  0  0  0  0  0
   -1.1476    2.8959   -1.4240 C   0  0  0  0  0  0  0  0  0  0  0  0
   -0.3975    3.3742   -2.2574 O   0  0  0  0  0  0  0  0  0  0  0  0
   -1.9271    3.6382   -0.6046 O   0  0  0  0  0  0  0  0  0  0  0  0
   -1.7333    4.5635   -0.8217 H   0  0  0  0  0  0  0  0  0  0  0  0
    0.7270   -0.2931    1.0045 C   0  0  0  0  0  0  0  0  0  0  0  0
    1.9284   -0.2403    1.2308 O   0  0  0  0  0  0  0  0  0  0  0  0
   -0.1541    0.2007    1.9494 N   0  0  0  0  0  0  0  0  0  0  0  0
   -1.1402    0.0583    1.7595 H   0  0  0  0  0  0  0  0  0  0  0  0
    0.2577    0.5651    3.2991 C   0  0  0  0  0  0  0  0  0  0  0  0
    1.0268    1.3443    3.2679 H   0  0  0  0  0  0  0  0  0  0  0  0
   -0.5963    0.9486    3.8652 H   0  0  0  0  0  0  0  0  0  0  0  0
    0.6612   -0.3068    3.8246 H   0  0  0  0  0  0  0  0  0  0  0  0
  1  2  1  0  0  0  0
  2  3  1  0  0  0  0
  2  4  1  0  0  0  0
  2  5  1  0  0  0  0
  5  6  2  0  0  0  0
  5  7  1  0  0  0  0
  7  8  1  0  0  0  0
  7  9  1  0  0  0  0
  9 10  1  0  0  0  0
  9 11  1  0  0  0  0
  9 21  1  0  0  0  0
 11 12  1  0  0  0  0
 11 13  1  0  0  0  0
 11 14  1  0  0  0  0
 14 15  1  0  0  0  0
 14 16  1  0  0  0  0
 14 17  1  0  0  0  0
 17 18  2  0  0  0  0
 17 19  1  0  0  0  0
 19 20  1  0  0  0  0
 21 22  2  0  0  0  0
 21 23  1  0  0  0  0
 23 24  1  0  0  0  0
 23 25  1  0  0  0  0
 25 26  1  0  0  0  0
 25 27  1  0  0  0  0
 25 28  1  0  0  0  0
M  END
$$$$

  -OEChem-02102214123D

 28 27  0     1  0  0  0  0  0999 V2000
   -2.5798   -4.2522    0.3656 H   0  0  0  0  0  0  0  0  0  0  0  0
   -2.5788   -3.2875   -0.1501 C   0  0  0  0  0  0  0  0  0  0  0  0
   -3.4113   -2.6878    0.2252 H   0  0  0  0  0  0  0  0  0  0  0  0
   -2.7159   -3.4619   -1.2201 H   0  0  0  0  0  0  0  0  0  0  0  0
   -1.2666   -2.5667    0.0944 C   0  0  0  0  0  0  0  0  0  0  0  0
   -0.4101   -3.0835    0.7876 O   0  0  0  0  0  0  0  0  0  0  0  0
   -1.0552   -1.3224   -0.4665 N   0  0  0  0  0  0  0  0  0  0  0  0
   -1.7649   -0.9948   -1.1139 H   0  0  0  0  0  0  0  0  0  0  0  0
    0.2349   -0.6015   -0.4303 C   0  0  1  0  0  0  0  0  0  0  0  0
    0.9976   -1.2402   -0.8903 H   0  0  0  0  0  0  0  0  0  0  0  0
    0.1647    0.7164   -1.2389 C   0  0  0  0  0  0  0  0  0  0  0  0
    0.8959    1.4246   -0.8297 H   0  0  0  0  0  0  0  0  0  0  0  0
    0.4720    0.5087   -2.2697 H   0  0  0  0  0  0  0  0  0  0  0  0
   -1.2327    1.3776   -1.2747 C   0  0  0  0  0  0  0  0  0  0  0  0
   -1.9036    0.8144   -1.9282 H   0  0  0  0  0  0  0  0  0  0  0  0
   -1.6569    1.3774   -0.2667 H   0  0  0  0  0  0  0  0  0  0  0  0
   -1.1976    2.8273   -1.7562 C   0  0  0  0  0  0  0  0  0  0  0  0
   -0.3437    3.1750   -2.5540 O   0  0  0  0  0  0  0  0  0  0  0  0
   -2.1500    3.6573   -1.2735 O   0  0  0  0  0  0  0  0  0  0  0  0
   -1.9755    4.5222   -1.6763 H   0  0  0  0  0  0  0  0  0  0  0  0
    0.7446   -0.2997    0.9992 C   0  0  0  0  0  0  0  0  0  0  0  0
    1.9483   -0.2523    1.2140 O   0  0  0  0  0  0  0  0  0  0  0  0
   -0.1258    0.1926    1.9548 N   0  0  0  0  0  0  0  0  0  0  0  0
   -1.1126    0.0380    1.7780 H   0  0  0  0  0  0  0  0  0  0  0  0
    0.2996    0.5324    3.3068 C   0  0  0  0  0  0  0  0  0  0  0  0
    1.0708    1.3097    3.2822 H   0  0  0  0  0  0  0  0  0  0  0  0
   -0.5481    0.9081    3.8876 H   0  0  0  0  0  0  0  0  0  0  0  0
    0.7053   -0.3502    3.8126 H   0  0  0  0  0  0  0  0  0  0  0  0
  1  2  1  0  0  0  0
  2  3  1  0  0  0  0
  2  4  1  0  0  0  0
  2  5  1  0  0  0  0
  5  6  2  0  0  0  0
  5  7  1  0  0  0  0
  7  8  1  0  0  0  0
  7  9  1  0  0  0  0
  9 10  1  0  0  0  0
  9 11  1  0  0  0  0
  9 21  1  0  0  0  0
 11 12  1  0  0  0  0
 11 13  1  0  0  0  0
 11 14  1  0  0  0  0
 14 15  1  0  0  0  0
 14 16  1  0  0  0  0
 14 17  1  0  0  0  0
 17 18  2  0  0  0  0
 17 19  1  0  0  0  0
 19 20  1  0  0  0  0
 21 22  2  0  0  0  0
 21 23  1  0  0  0  0
 23 24  1  0  0  0  0
 23 25  1  0  0  0  0
 25 26  1  0  0  0  0
 25 27  1  0  0  0  0
 25 28  1  0  0  0  0
M  END
$$$$

  -OEChem-02102214123D

 28 27  0     1  0  0  0  0  0999 V2000
   -2.5981   -4.2397    0.3478 H   0  0  0  0  0  0  0  0  0  0  0  0
   -2.5888   -3.2784   -0.1739 C   0  0  0  0  0  0  0  0  0  0  0  0
   -3.4313   -2.6793    0.1794 H   0  0  0  0  0  0  0  0  0  0  0  0
   -2.7018   -3.4602   -1.2454 H   0  0  0  0  0  0  0  0  0  0  0  0
   -1.2842   -2.5518    0.0941 C   0  0  0  0  0  0  0  0  0  0  0  0
   -0.4336   -3.0703    0.7935 O   0  0  0  0  0  0  0  0  0  0  0  0
   -1.0735   -1.3004   -0.4514 N   0  0  0  0  0  0  0  0  0  0  0  0
   -1.7712   -0.9788   -1.1149 H   0  0  0  0  0  0  0  0  0  0  0  0
    0.2210   -0.5900   -0.4142 C   0  0  1  0  0  0  0  0  0  0  0  0
    0.9716   -1.2332   -0.8877 H   0  0  0  0  0  0  0  0  0  0  0  0
    0.1526    0.7234   -1.2239 C   0  0  0  0  0  0  0  0  0  0  0  0
    1.0449    1.3240   -1.0097 H   0  0  0  0  0  0  0  0  0  0  0  0
    0.1901    0.4640   -2.2875 H   0  0  0  0  0  0  0  0  0  0  0  0
   -1.1155    1.5737   -0.9701 C   0  0  0  0  0  0  0  0  0  0  0  0
   -2.0139    1.0042   -1.2168 H   0  0  0  0  0  0  0  0  0  0  0  0
   -1.1651    1.8403    0.0887 H   0  0  0  0  0  0  0  0  0  0  0  0
   -1.1593    2.8688   -1.7823 C   0  0  0  0  0  0  0  0  0  0  0  0
   -0.4110    3.0181   -2.7335 O   0  0  0  0  0  0  0  0  0  0  0  0
   -2.0659    3.7949   -1.3960 O   0  0  0  0  0  0  0  0  0  0  0  0
   -1.9533    4.5438   -2.0018 H   0  0  0  0  0  0  0  0  0  0  0  0
    0.7558   -0.3073    1.0100 C   0  0  0  0  0  0  0  0  0  0  0  0
    1.9639   -0.2656    1.2008 O   0  0  0  0  0  0  0  0  0  0  0  0
   -0.0911    0.1803    1.9889 N   0  0  0  0  0  0  0  0  0  0  0  0
   -1.0819    0.0293    1.8318 H   0  0  0  0  0  0  0  0  0  0  0  0
    0.3645    0.5012    3.3358 C   0  0  0  0  0  0  0  0  0  0  0  0
    1.1372    1.2768    3.3046 H   0  0  0  0  0  0  0  0  0  0  0  0
   -0.4691    0.8714    3.9401 H   0  0  0  0  0  0  0  0  0  0  0  0
    0.7786   -0.3887    3.8215 H   0  0  0  0  0  0  0  0  0  0  0  0
  1  2  1  0  0  0  0
  2  3  1  0  0  0  0
  2  4  1  0  0  0  0
  2  5  1  0  0  0  0
  5  6  2  0  0  0  0
  5  7  1  0  0  0  0
  7  8  1  0  0  0  0
  7  9  1  0  0  0  0
  9 10  1  0  0  0  0
  9 11  1  0  0  0  0
  9 21  1  0  0  0  0
 11 12  1  0  0  0  0
 11 13  1  0  0  0  0
 11 14  1  0  0  0  0
 14 15  1  0  0  0  0
 14 16  1  0  0  0  0
 14 17  1  0  0  0  0
 17 18  2  0  0  0  0
 17 19  1  0  0  0  0
 19 20  1  0  0  0  0
 21 22  2  0  0  0  0
 21 23  1  0  0  0  0
 23 24  1  0  0  0  0
 23 25  1  0  0  0  0
 25 26  1  0  0  0  0
 25 27  1  0  0  0  0
 25 28  1  0  0  0  0
M  END
$$$$

  -OEChem-02102214123D

 28 27  0     1  0  0  0  0  0999 V2000
   -2.5910   -4.2491    0.3210 H   0  0  0  0  0  0  0  0  0  0  0  0
   -2.6074   -3.2586   -0.1430 C   0  0  0  0  0  0  0  0  0  0  0  0
   -3.4332   -2.6842    0.2833 H   0  0  0  0  0  0  0  0  0  0  0  0
   -2.7697   -3.3778   -1.2169 H   0  0  0  0  0  0  0  0  0  0  0  0
   -1.2932   -2.5435    0.1075 C   0  0  0  0  0  0  0  0  0  0  0  0
   -0.4387   -3.0685    0.7971 O   0  0  0  0  0  0  0  0  0  0  0  0
   -1.0797   -1.2943   -0.4419 N   0  0  0  0  0  0  0  0  0  0  0  0
   -1.7824   -0.9704   -1.0992 H   0  0  0  0  0  0  0  0  0  0  0  0
    0.2198   -0.5918   -0.4219 C   0  0  1  0  0  0  0  0  0  0  0  0
    0.9609   -1.2384   -0.9056 H   0  0  0  0  0  0  0  0  0  0  0  0
    0.1552    0.7307   -1.2187 C   0  0  0  0  0  0  0  0  0  0  0  0
    1.0610    1.3199   -1.0310 H   0  0  0  0  0  0  0  0  0  0  0  0
    0.1649    0.4623   -2.2808 H   0  0  0  0  0  0  0  0  0  0  0  0
   -1.0955    1.6051   -0.9475 C   0  0  0  0  0  0  0  0  0  0  0  0
   -2.0001    0.9951   -0.9408 H   0  0  0  0  0  0  0  0  0  0  0  0
   -1.0023    2.0708    0.0373 H   0  0  0  0  0  0  0  0  0  0  0  0
   -1.3205    2.7067   -1.9850 C   0  0  0  0  0  0  0  0  0  0  0  0
   -0.4675    2.9441   -2.8233 O   0  0  0  0  0  0  0  0  0  0  0  0
   -2.4973    3.3690   -1.9136 O   0  0  0  0  0  0  0  0  0  0  0  0
   -2.4712    4.0305   -2.6226 H   0  0  0  0  0  0  0  0  0  0  0  0
    0.7678   -0.3137    0.9978 C   0  0  0  0  0  0  0  0  0  0  0  0
    1.9769   -0.2909    1.1844 O   0  0  0  0  0  0  0  0  0  0  0  0
   -0.0703    0.1786    1.9820 N   0  0  0  0  0  0  0  0  0  0  0  0
   -1.0629    0.0402    1.8245 H   0  0  0  0  0  0  0  0  0  0  0  0
    0.3900    0.4607    3.3361 C   0  0  0  0  0  0  0  0  0  0  0  0
    1.1875    1.2110    3.3221 H   0  0  0  0  0  0  0  0  0  0  0  0
   -0.4341    0.8466    3.9435 H   0  0  0  0  0  0  0  0  0  0  0  0
    0.7728   -0.4509    3.8070 H   0  0  0  0  0  0  0  0  0  0  0  0
  1  2  1  0  0  0  0
  2  3  1  0  0  0  0
  2  4  1  0  0  0  0
  2  5  1  0  0  0  0
  5  6  2  0  0  0  0
  5  7  1  0  0  0  0
  7  8  1  0  0  0  0
  7  9  1  0  0  0  0
  9 10  1  0  0  0  0
  9 11  1  0  0  0  0
  9 21  1  0  0  0  0
 11 12  1  0  0  0  0
 11 13  1  0  0  0  0
 11 14  1  0  0  0  0
 14 15  1  0  0  0  0
 14 16  1  0  0  0  0
 14 17  1  0  0  0  0
 17 18  2  0  0  0  0
 17 19  1  0  0  0  0
 19 20  1  0  0  0  0
 21 22  2  0  0  0  0
 21 23  1  0  0  0  0
 23 24  1  0  0  0  0
 23 25  1  0  0  0  0
 25 26  1  0  0  0  0
 25 27  1  0  0  0  0
 25 28  1  0  0  0  0
M  END
$$$$

  -OEChem-02102214123D

 28 27  0     1  0  0  0  0  0999 V2000
   -2.6859   -4.1617    0.4203 H   0  0  0  0  0  0  0  0  0  0  0  0
   -2.6528   -3.2175   -0.1309 C   0  0  0  0  0  0  0  0  0  0  0  0
   -3.4707   -2.5809    0.2147 H   0  0  0  0  0  0  0  0  0  0  0  0
   -2.7862   -3.4272   -1.1949 H   0  0  0  0  0  0  0  0  0  0  0  0
   -1.3219   -2.5267    0.0978 C   0  0  0  0  0  0  0  0  0  0  0  0
   -0.4580   -3.0764    0.7558 O   0  0  0  0  0  0  0  0  0  0  0  0
   -1.1017   -1.2733   -0.4390 N   0  0  0  0  0  0  0  0  0  0  0  0
   -1.8176   -0.9251   -1.0696 H   0  0  0  0  0  0  0  0  0  0  0  0
    0.2058   -0.5849   -0.4325 C   0  0  1  0  0  0  0  0  0  0  0  0
    0.9323   -1.2298   -0.9401 H   0  0  0  0  0  0  0  0  0  0  0  0
    0.1403    0.7547   -1.1999 C   0  0  0  0  0  0  0  0  0  0  0  0
    1.0592    1.3289   -1.0305 H   0  0  0  0  0  0  0  0  0  0  0  0
    0.1213    0.5008   -2.2655 H   0  0  0  0  0  0  0  0  0  0  0  0
   -1.0897    1.6461   -0.8910 C   0  0  0  0  0  0  0  0  0  0  0  0
   -1.9573    1.0474   -0.6099 H   0  0  0  0  0  0  0  0  0  0  0  0
   -0.8607    2.2974   -0.0428 H   0  0  0  0  0  0  0  0  0  0  0  0
   -1.5027    2.5074   -2.0823 C   0  0  0  0  0  0  0  0  0  0  0  0
   -0.6427    3.0828   -2.7261 O   0  0  0  0  0  0  0  0  0  0  0  0
   -2.8222    2.5706   -2.3744 O   0  0  0  0  0  0  0  0  0  0  0  0
   -2.8932    3.1587   -3.1428 H   0  0  0  0  0  0  0  0  0  0  0  0
    0.7791   -0.3313    0.9815 C   0  0  0  0  0  0  0  0  0  0  0  0
    1.9913   -0.3222    1.1492 O   0  0  0  0  0  0  0  0  0  0  0  0
   -0.0389    0.1573    1.9843 N   0  0  0  0  0  0  0  0  0  0  0  0
   -1.0354    0.0343    1.8404 H   0  0  0  0  0  0  0  0  0  0  0  0
    0.4463    0.4288    3.3316 C   0  0  0  0  0  0  0  0  0  0  0  0
    1.2331    1.1903    3.3100 H   0  0  0  0  0  0  0  0  0  0  0  0
   -0.3697    0.7951    3.9618 H   0  0  0  0  0  0  0  0  0  0  0  0
    0.8520   -0.4831    3.7827 H   0  0  0  0  0  0  0  0  0  0  0  0
  1  2  1  0  0  0  0
  2  3  1  0  0  0  0
  2  4  1  0  0  0  0
  2  5  1  0  0  0  0
  5  6  2  0  0  0  0
  5  7  1  0  0  0  0
  7  8  1  0  0  0  0
  7  9  1  0  0  0  0
  9 10  1  0  0  0  0
  9 11  1  0  0  0  0
  9 21  1  0  0  0  0
 11 12  1  0  0  0  0
 11 13  1  0  0  0  0
 11 14  1  0  0  0  0
 14 15  1  0  0  0  0
 14 16  1  0  0  0  0
 14 17  1  0  0  0  0
 17 18  2  0  0  0  0
 17 19  1  0  0  0  0
 19 20  1  0  0  0  0
 21 22  2  0  0  0  0
 21 23  1  0  0  0  0
 23 24  1  0  0  0  0
 23 25  1  0  0  0  0
 25 26  1  0  0  0  0
 25 27  1  0  0  0  0
 25 28  1  0  0  0  0
M  END
$$$$

  -OEChem-02102214123D

 28 27  0     1  0  0  0  0  0999 V2000
   -2.7991   -4.0777    0.4399 H   0  0  0  0  0  0  0  0  0  0  0  0
   -2.7433   -3.1405   -0.1215 C   0  0  0  0  0  0  0  0  0  0  0  0
   -3.5488   -2.4822    0.2123 H   0  0  0  0  0  0  0  0  0  0  0  0
   -2.8760   -3.3584   -1.1839 H   0  0  0  0  0  0  0  0  0  0  0  0
   -1.3989   -2.4759    0.1061 C   0  0  0  0  0  0  0  0  0  0  0  0
   -0.5415   -3.0473    0.7543 O   0  0  0  0  0  0  0  0  0  0  0  0
   -1.1569   -1.2230   -0.4216 N   0  0  0  0  0  0  0  0  0  0  0  0
   -1.8684   -0.8562   -1.0493 H   0  0  0  0  0  0  0  0  0  0  0  0
    0.1690   -0.5711   -0.4359 C   0  0  1  0  0  0  0  0  0  0  0  0
    0.8657   -1.2269   -0.9707 H   0  0  0  0  0  0  0  0  0  0  0  0
    0.1030    0.7745   -1.1897 C   0  0  0  0  0  0  0  0  0  0  0  0
    1.0327    1.3335   -1.0301 H   0  0  0  0  0  0  0  0  0  0  0  0
    0.0645    0.5354   -2.2582 H   0  0  0  0  0  0  0  0  0  0  0  0
   -1.1054    1.6778   -0.8339 C   0  0  0  0  0  0  0  0  0  0  0  0
   -1.8757    1.1424   -0.2768 H   0  0  0  0  0  0  0  0  0  0  0  0
   -0.7624    2.4938   -0.1898 H   0  0  0  0  0  0  0  0  0  0  0  0
   -1.7528    2.2577   -2.0843 C   0  0  0  0  0  0  0  0  0  0  0  0
   -1.5398    3.4200   -2.3778 O   0  0  0  0  0  0  0  0  0  0  0  0
   -2.5408    1.4301   -2.8109 O   0  0  0  0  0  0  0  0  0  0  0  0
   -2.8554    1.9618   -3.5597 H   0  0  0  0  0  0  0  0  0  0  0  0
    0.7879   -0.3456    0.9631 C   0  0  0  0  0  0  0  0  0  0  0  0
    2.0046   -0.3658    1.0930 O   0  0  0  0  0  0  0  0  0  0  0  0
    0.0128    0.1562    1.9927 N   0  0  0  0  0  0  0  0  0  0  0  0
   -0.9903    0.0596    1.8786 H   0  0  0  0  0  0  0  0  0  0  0  0
    0.5456    0.4111    3.3250 C   0  0  0  0  0  0  0  0  0  0  0  0
    1.3438    1.1596    3.2819 H   0  0  0  0  0  0  0  0  0  0  0  0
   -0.2432    0.7879    3.9829 H   0  0  0  0  0  0  0  0  0  0  0  0
    0.9496   -0.5102    3.7581 H   0  0  0  0  0  0  0  0  0  0  0  0
  1  2  1  0  0  0  0
  2  3  1  0  0  0  0
  2  4  1  0  0  0  0
  2  5  1  0  0  0  0
  5  6  2  0  0  0  0
  5  7  1  0  0  0  0
  7  8  1  0  0  0  0
  7  9  1  0  0  0  0
  9 10  1  0  0  0  0
  9 11  1  0  0  0  0
  9 21  1  0  0  0  0
 11 12  1  0  0  0  0
 11 13  1  0  0  0  0
 11 14  1  0  0  0  0
 14 15  1  0  0  0  0
 14 16  1  0  0  0  0
 14 17  1  0  0  0  0
 17 18  2  0  0  0  0
 17 19  1  0  0  0  0
 19 20  1  0  0  0  0
 21 22  2  0  0  0  0
 21 23  1  0  0  0  0
 23 24  1  0  0  0  0
 23 25  1  0  0  0  0
 25 26  1  0  0  0  0
 25 27  1  0  0  0  0
 25 28  1  0  0  0  0
M  END
$$$$

  -OEChem-02102214123D

 28 27  0     1  0  0  0  0  0999 V2000
   -2.5081   -4.2816    0.3210 H   0  0  0  0  0  0  0  0  0  0  0  0
   -2.5223   -3.3166   -0.1937 C   0  0  0  0  0  0  0  0  0  0  0  0
   -3.3765   -2.7382    0.1662 H   0  0  0  0  0  0  0  0  0  0  0  0
   -2.6356   -3.4915   -1.2663 H   0  0  0  0  0  0  0  0  0  0  0  0
   -1.2337   -2.5626    0.0745 C   0  0  0  0  0  0  0  0  0  0  0  0
   -0.3596   -3.0710    0.7530 O   0  0  0  0  0  0  0  0  0  0  0  0
   -1.0671   -1.2928   -0.4393 N   0  0  0  0  0  0  0  0  0  0  0  0
   -1.7850   -0.9759   -1.0903 H   0  0  0  0  0  0  0  0  0  0  0  0
    0.2066   -0.5444   -0.4175 C   0  0  1  0  0  0  0  0  0  0  0  0
    0.9638   -1.1414   -0.9390 H   0  0  0  0  0  0  0  0  0  0  0  0
    0.0317    0.7832   -1.1823 C   0  0  0  0  0  0  0  0  0  0  0  0
    0.8956    1.4272   -0.9807 H   0  0  0  0  0  0  0  0  0  0  0  0
    0.0554    0.5604   -2.2550 H   0  0  0  0  0  0  0  0  0  0  0  0
   -1.2683    1.5538   -0.8391 C   0  0  0  0  0  0  0  0  0  0  0  0
   -1.8480    1.0689   -0.0507 H   0  0  0  0  0  0  0  0  0  0  0  0
   -0.9958    2.5425   -0.4583 H   0  0  0  0  0  0  0  0  0  0  0  0
   -2.1490    1.7430   -2.0656 C   0  0  0  0  0  0  0  0  0  0  0  0
   -2.7158    0.7516   -2.4979 O   0  0  0  0  0  0  0  0  0  0  0  0
   -2.2535    2.9738   -2.6158 O   0  0  0  0  0  0  0  0  0  0  0  0
   -2.8443    2.8821   -3.3791 H   0  0  0  0  0  0  0  0  0  0  0  0
    0.7777   -0.2799    0.9953 C   0  0  0  0  0  0  0  0  0  0  0  0
    1.9896   -0.1992    1.1466 O   0  0  0  0  0  0  0  0  0  0  0  0
   -0.0524    0.1577    2.0115 N   0  0  0  0  0  0  0  0  0  0  0  0
   -1.0395   -0.0384    1.8835 H   0  0  0  0  0  0  0  0  0  0  0  0
    0.4355    0.4240    3.3590 C   0  0  0  0  0  0  0  0  0  0  0  0
    1.1887    1.2188    3.3445 H   0  0  0  0  0  0  0  0  0  0  0  0
   -0.3883    0.7429    4.0044 H   0  0  0  0  0  0  0  0  0  0  0  0
    0.8846   -0.4781    3.7880 H   0  0  0  0  0  0  0  0  0  0  0  0
  1  2  1  0  0  0  0
  2  3  1  0  0  0  0
  2  4  1  0  0  0  0
  2  5  1  0  0  0  0
  5  6  2  0  0  0  0
  5  7  1  0  0  0  0
  7  8  1  0  0  0  0
  7  9  1  0  0  0  0
  9 10  1  0  0  0  0
  9 11  1  0  0  0  0
  9 21  1  0  0  0  0
 11 12  1  0  0  0  0
 11 13  1  0  0  0  0
 11 14  1  0  0  0  0
 14 15  1  0  0  0  0
 14 16  1  0  0  0  0
 14 17  1  0  0  0  0
 17 18  2  0  0  0  0
 17 19  1  0  0  0  0
 19 20  1  0  0  0  0
 21 22  2  0  0  0  0
 21 23  1  0  0  0  0
 23 24  1  0  0  0  0
 23 25  1  0  0  0  0
 25 26  1  0  0  0  0
 25 27  1  0  0  0  0
 25 28  1  0  0  0  0
M  END
$$$$

  -OEChem-02102214123D

 28 27  0     1  0  0  0  0  0999 V2000
   -2.5250   -4.2734    0.3212 H   0  0  0  0  0  0  0  0  0  0  0  0
   -2.5440   -3.2978   -0.1726 C   0  0  0  0  0  0  0  0  0  0  0  0
   -3.3781   -2.7163    0.2270 H   0  0  0  0  0  0  0  0  0  0  0  0
   -2.6945   -3.4478   -1.2445 H   0  0  0  0  0  0  0  0  0  0  0  0
   -1.2379   -2.5655    0.0681 C   0  0  0  0  0  0  0  0  0  0  0  0
   -0.3474   -3.0971    0.7068 O   0  0  0  0  0  0  0  0  0  0  0  0
   -1.0722   -1.2899   -0.4291 N   0  0  0  0  0  0  0  0  0  0  0  0
   -1.8190   -0.9429   -1.0334 H   0  0  0  0  0  0  0  0  0  0  0  0
    0.2003   -0.5422   -0.4144 C   0  0  1  0  0  0  0  0  0  0  0  0
    0.9494   -1.1401   -0.9459 H   0  0  0  0  0  0  0  0  0  0  0  0
    0.0333    0.7895   -1.1771 C   0  0  0  0  0  0  0  0  0  0  0  0
    0.8989    1.4248   -0.9559 H   0  0  0  0  0  0  0  0  0  0  0  0
    0.0637    0.5860   -2.2532 H   0  0  0  0  0  0  0  0  0  0  0  0
   -1.2596    1.5674   -0.8333 C   0  0  0  0  0  0  0  0  0  0  0  0
   -1.6904    1.2385    0.1155 H   0  0  0  0  0  0  0  0  0  0  0  0
   -1.0062    2.6251   -0.7149 H   0  0  0  0  0  0  0  0  0  0  0  0
   -2.3053    1.4604   -1.9374 C   0  0  0  0  0  0  0  0  0  0  0  0
   -2.8552    0.3808   -2.0931 O   0  0  0  0  0  0  0  0  0  0  0  0
   -2.5611    2.5520   -2.6934 O   0  0  0  0  0  0  0  0  0  0  0  0
   -3.2383    2.2888   -3.3353 H   0  0  0  0  0  0  0  0  0  0  0  0
    0.7879   -0.2971    0.9953 C   0  0  0  0  0  0  0  0  0  0  0  0
    2.0012   -0.2124    1.1331 O   0  0  0  0  0  0  0  0  0  0  0  0
   -0.0307    0.1261    2.0269 N   0  0  0  0  0  0  0  0  0  0  0  0
   -1.0186   -0.0749    1.9113 H   0  0  0  0  0  0  0  0  0  0  0  0
    0.4729    0.3990    3.3674 C   0  0  0  0  0  0  0  0  0  0  0  0
    1.2225    1.1968    3.3406 H   0  0  0  0  0  0  0  0  0  0  0  0
   -0.3443    0.7178    4.0212 H   0  0  0  0  0  0  0  0  0  0  0  0
    0.9305   -0.4997    3.7944 H   0  0  0  0  0  0  0  0  0  0  0  0
  1  2  1  0  0  0  0
  2  3  1  0  0  0  0
  2  4  1  0  0  0  0
  2  5  1  0  0  0  0
  5  6  2  0  0  0  0
  5  7  1  0  0  0  0
  7  8  1  0  0  0  0
  7  9  1  0  0  0  0
  9 10  1  0  0  0  0
  9 11  1  0  0  0  0
  9 21  1  0  0  0  0
 11 12  1  0  0  0  0
 11 13  1  0  0  0  0
 11 14  1  0  0  0  0
 14 15  1  0  0  0  0
 14 16  1  0  0  0  0
 14 17  1  0  0  0  0
 17 18  2  0  0  0  0
 17 19  1  0  0  0  0
 19 20  1  0  0  0  0
 21 22  2  0  0  0  0
 21 23  1  0  0  0  0
 23 24  1  0  0  0  0
 23 25  1  0  0  0  0
 25 26  1  0  0  0  0
 25 27  1  0  0  0  0
 25 28  1  0  0  0  0
M  END
$$$$

  -OEChem-02102214123D

 28 27  0     1  0  0  0  0  0999 V2000
   -2.5050   -4.3374    0.3109 H   0  0  0  0  0  0  0  0  0  0  0  0
   -2.5403   -3.3475   -0.1528 C   0  0  0  0  0  0  0  0  0  0  0  0
   -3.4014   -2.8032    0.2419 H   0  0  0  0  0  0  0  0  0  0  0  0
   -2.6584   -3.4694   -1.2323 H   0  0  0  0  0  0  0  0  0  0  0  0
   -1.2632   -2.5853    0.1455 C   0  0  0  0  0  0  0  0  0  0  0  0
   -0.4161   -3.0767    0.8696 O   0  0  0  0  0  0  0  0  0  0  0  0
   -1.0777   -1.3306   -0.3978 N   0  0  0  0  0  0  0  0  0  0  0  0
   -1.7598   -1.0555   -1.1057 H   0  0  0  0  0  0  0  0  0  0  0  0
    0.2061   -0.6061   -0.3953 C   0  0  1  0  0  0  0  0  0  0  0  0
    0.9488   -1.2427   -0.8896 H   0  0  0  0  0  0  0  0  0  0  0  0
    0.1088    0.7102   -1.2047 C   0  0  0  0  0  0  0  0  0  0  0  0
    0.9968    1.3115   -0.9776 H   0  0  0  0  0  0  0  0  0  0  0  0
    0.1613    0.4718   -2.2725 H   0  0  0  0  0  0  0  0  0  0  0  0
   -1.1501    1.5777   -0.9446 C   0  0  0  0  0  0  0  0  0  0  0  0
   -1.4537    1.5018    0.1018 H   0  0  0  0  0  0  0  0  0  0  0  0
   -0.8726    2.6212   -1.1201 H   0  0  0  0  0  0  0  0  0  0  0  0
   -2.3640    1.2904   -1.8325 C   0  0  0  0  0  0  0  0  0  0  0  0
   -2.5099    0.1850   -2.3310 O   0  0  0  0  0  0  0  0  0  0  0  0
   -3.2432    2.3035   -2.0026 O   0  0  0  0  0  0  0  0  0  0  0  0
   -3.9390    1.9673   -2.5880 H   0  0  0  0  0  0  0  0  0  0  0  0
    0.7771   -0.3244    1.0149 C   0  0  0  0  0  0  0  0  0  0  0  0
    1.9897   -0.2555    1.1684 O   0  0  0  0  0  0  0  0  0  0  0  0
   -0.0500    0.1472    2.0180 N   0  0  0  0  0  0  0  0  0  0  0  0
   -1.0373   -0.0525    1.8947 H   0  0  0  0  0  0  0  0  0  0  0  0
    0.4367    0.4479    3.3585 C   0  0  0  0  0  0  0  0  0  0  0  0
    1.2241    1.2081    3.3199 H   0  0  0  0  0  0  0  0  0  0  0  0
   -0.3785    0.8301    3.9802 H   0  0  0  0  0  0  0  0  0  0  0  0
    0.8413   -0.4542    3.8295 H   0  0  0  0  0  0  0  0  0  0  0  0
  1  2  1  0  0  0  0
  2  3  1  0  0  0  0
  2  4  1  0  0  0  0
  2  5  1  0  0  0  0
  5  6  2  0  0  0  0
  5  7  1  0  0  0  0
  7  8  1  0  0  0  0
  7  9  1  0  0  0  0
  9 10  1  0  0  0  0
  9 11  1  0  0  0  0
  9 21  1  0  0  0  0
 11 12  1  0  0  0  0
 11 13  1  0  0  0  0
 11 14  1  0  0  0  0
 14 15  1  0  0  0  0
 14 16  1  0  0  0  0
 14 17  1  0  0  0  0
 17 18  2  0  0  0  0
 17 19  1  0  0  0  0
 19 20  1  0  0  0  0
 21 22  2  0  0  0  0
 21 23  1  0  0  0  0
 23 24  1  0  0  0  0
 23 25  1  0  0  0  0
 25 26  1  0  0  0  0
 25 27  1  0  0  0  0
 25 28  1  0  0  0  0
M  END
$$$$

  -OEChem-02102214123D

 28 27  0     1  0  0  0  0  0999 V2000
   -2.5089   -4.3502    0.3277 H   0  0  0  0  0  0  0  0  0  0  0  0
   -2.5389   -3.3653   -0.1470 C   0  0  0  0  0  0  0  0  0  0  0  0
   -3.4090   -2.8200    0.2263 H   0  0  0  0  0  0  0  0  0  0  0  0
   -2.6369   -3.4990   -1.2271 H   0  0  0  0  0  0  0  0  0  0  0  0
   -1.2705   -2.5952    0.1670 C   0  0  0  0  0  0  0  0  0  0  0  0
   -0.4417   -3.0712    0.9216 O   0  0  0  0  0  0  0  0  0  0  0  0
   -1.0738   -1.3511   -0.3973 N   0  0  0  0  0  0  0  0  0  0  0  0
   -1.7268   -1.1078   -1.1425 H   0  0  0  0  0  0  0  0  0  0  0  0
    0.2149   -0.6350   -0.3920 C   0  0  1  0  0  0  0  0  0  0  0  0
    0.9584   -1.2855   -0.8665 H   0  0  0  0  0  0  0  0  0  0  0  0
    0.1512    0.6790   -1.2125 C   0  0  0  0  0  0  0  0  0  0  0  0
    1.0507    1.2638   -0.9873 H   0  0  0  0  0  0  0  0  0  0  0  0
    0.2063    0.4226   -2.2759 H   0  0  0  0  0  0  0  0  0  0  0  0
   -1.0876    1.5870   -0.9922 C   0  0  0  0  0  0  0  0  0  0  0  0
   -1.2457    1.7231    0.0805 H   0  0  0  0  0  0  0  0  0  0  0  0
   -0.8588    2.5719   -1.4085 H   0  0  0  0  0  0  0  0  0  0  0  0
   -2.4122    1.1436   -1.6185 C   0  0  0  0  0  0  0  0  0  0  0  0
   -2.4498    0.1756   -2.3621 O   0  0  0  0  0  0  0  0  0  0  0  0
   -3.5035    1.8733   -1.2952 O   0  0  0  0  0  0  0  0  0  0  0  0
   -4.2451    1.4924   -1.7901 H   0  0  0  0  0  0  0  0  0  0  0  0
    0.7671   -0.3342    1.0217 C   0  0  0  0  0  0  0  0  0  0  0  0
    1.9778   -0.2749    1.1931 O   0  0  0  0  0  0  0  0  0  0  0  0
   -0.0714    0.1594    2.0047 N   0  0  0  0  0  0  0  0  0  0  0  0
   -1.0598   -0.0253    1.8666 H   0  0  0  0  0  0  0  0  0  0  0  0
    0.3973    0.4773    3.3479 C   0  0  0  0  0  0  0  0  0  0  0  0
    1.1827    1.2397    3.3111 H   0  0  0  0  0  0  0  0  0  0  0  0
   -0.4270    0.8633    3.9548 H   0  0  0  0  0  0  0  0  0  0  0  0
    0.7990   -0.4182    3.8339 H   0  0  0  0  0  0  0  0  0  0  0  0
  1  2  1  0  0  0  0
  2  3  1  0  0  0  0
  2  4  1  0  0  0  0
  2  5  1  0  0  0  0
  5  6  2  0  0  0  0
  5  7  1  0  0  0  0
  7  8  1  0  0  0  0
  7  9  1  0  0  0  0
  9 10  1  0  0  0  0
  9 11  1  0  0  0  0
  9 21  1  0  0  0  0
 11 12  1  0  0  0  0
 11 13  1  0  0  0  0
 11 14  1  0  0  0  0
 14 15  1  0  0  0  0
 14 16  1  0  0  0  0
 14 17  1  0  0  0  0
 17 18  2  0  0  0  0
 17 19  1  0  0  0  0
 19 20  1  0  0  0  0
 21 22  2  0  0  0  0
 21 23  1  0  0  0  0
 23 24  1  0  0  0  0
 23 25  1  0  0  0  0
 25 26  1  0  0  0  0
 25 27  1  0  0  0  0
 25 28  1  0  0  0  0
M  END
$$$$

  -OEChem-02102214123D

 28 27  0     1  0  0  0  0  0999 V2000
   -2.4762   -4.3807    0.3460 H   0  0  0  0  0  0  0  0  0  0  0  0
   -2.5204   -3.3925   -0.1206 C   0  0  0  0  0  0  0  0  0  0  0  0
   -3.3863   -2.8547    0.2726 H   0  0  0  0  0  0  0  0  0  0  0  0
   -2.6377   -3.5190   -1.1996 H   0  0  0  0  0  0  0  0  0  0  0  0
   -1.2506   -2.6180    0.1761 C   0  0  0  0  0  0  0  0  0  0  0  0
   -0.4141   -3.0875    0.9259 O   0  0  0  0  0  0  0  0  0  0  0  0
   -1.0611   -1.3785   -0.4010 N   0  0  0  0  0  0  0  0  0  0  0  0
   -1.7204   -1.1428   -1.1430 H   0  0  0  0  0  0  0  0  0  0  0  0
    0.2215   -0.6516   -0.3995 C   0  0  1  0  0  0  0  0  0  0  0  0
    0.9723   -1.3001   -0.8651 H   0  0  0  0  0  0  0  0  0  0  0  0
    0.1680    0.6678   -1.2152 C   0  0  0  0  0  0  0  0  0  0  0  0
    1.0799    1.2398   -1.0079 H   0  0  0  0  0  0  0  0  0  0  0  0
    0.2058    0.3950   -2.2752 H   0  0  0  0  0  0  0  0  0  0  0  0
   -1.0528    1.6077   -1.0215 C   0  0  0  0  0  0  0  0  0  0  0  0
   -1.0611    1.9432    0.0190 H   0  0  0  0  0  0  0  0  0  0  0  0
   -0.9023    2.4956   -1.6416 H   0  0  0  0  0  0  0  0  0  0  0  0
   -2.4437    1.0631   -1.3453 C   0  0  0  0  0  0  0  0  0  0  0  0
   -2.5715    0.2175   -2.2172 O   0  0  0  0  0  0  0  0  0  0  0  0
   -3.4794    1.5544   -0.6276 O   0  0  0  0  0  0  0  0  0  0  0  0
   -4.2818    1.1436   -0.9846 H   0  0  0  0  0  0  0  0  0  0  0  0
    0.7565   -0.3359    1.0175 C   0  0  0  0  0  0  0  0  0  0  0  0
    1.9645   -0.2720    1.2054 O   0  0  0  0  0  0  0  0  0  0  0  0
   -0.0985    0.1580    1.9863 N   0  0  0  0  0  0  0  0  0  0  0  0
   -1.0864   -0.0136    1.8286 H   0  0  0  0  0  0  0  0  0  0  0  0
    0.3473    0.4872    3.3344 C   0  0  0  0  0  0  0  0  0  0  0  0
    1.1349    1.2477    3.3044 H   0  0  0  0  0  0  0  0  0  0  0  0
   -0.4867    0.8805    3.9234 H   0  0  0  0  0  0  0  0  0  0  0  0
    0.7386   -0.4044    3.8358 H   0  0  0  0  0  0  0  0  0  0  0  0
  1  2  1  0  0  0  0
  2  3  1  0  0  0  0
  2  4  1  0  0  0  0
  2  5  1  0  0  0  0
  5  6  2  0  0  0  0
  5  7  1  0  0  0  0
  7  8  1  0  0  0  0
  7  9  1  0  0  0  0
  9 10  1  0  0  0  0
  9 11  1  0  0  0  0
  9 21  1  0  0  0  0
 11 12  1  0  0  0  0
 11 13  1  0  0  0  0
 11 14  1  0  0  0  0
 14 15  1  0  0  0  0
 14 16  1  0  0  0  0
 14 17  1  0  0  0  0
 17 18  2  0  0  0  0
 17 19  1  0  0  0  0
 19 20  1  0  0  0  0
 21 22  2  0  0  0  0
 21 23  1  0  0  0  0
 23 24  1  0  0  0  0
 23 25  1  0  0  0  0
 25 26  1  0  0  0  0
 25 27  1  0  0  0  0
 25 28  1  0  0  0  0
M  END
$$$$

  -OEChem-02102214123D

 28 27  0     1  0  0  0  0  0999 V2000
   -2.1648   -4.4946    0.3654 H   0  0  0  0  0  0  0  0  0  0  0  0
   -2.2932   -3.5156   -0.1051 C   0  0  0  0  0  0  0  0  0  0  0  0
   -3.1683   -3.0273    0.3301 H   0  0  0  0  0  0  0  0  0  0  0  0
   -2.4588   -3.6595   -1.1755 H   0  0  0  0  0  0  0  0  0  0  0  0
   -1.0590   -2.6630    0.1189 C   0  0  0  0  0  0  0  0  0  0  0  0
   -0.1382   -3.0916    0.7904 O   0  0  0  0  0  0  0  0  0  0  0  0
   -0.9958   -1.4014   -0.4379 N   0  0  0  0  0  0  0  0  0  0  0  0
   -1.7315   -1.1824   -1.1102 H   0  0  0  0  0  0  0  0  0  0  0  0
    0.2193   -0.5667   -0.4732 C   0  0  1  0  0  0  0  0  0  0  0  0
    1.0033   -1.1340   -0.9876 H   0  0  0  0  0  0  0  0  0  0  0  0
    0.0273    0.7757   -1.2298 C   0  0  0  0  0  0  0  0  0  0  0  0
    0.9124    1.4015   -1.0661 H   0  0  0  0  0  0  0  0  0  0  0  0
    0.0157    0.5263   -2.2961 H   0  0  0  0  0  0  0  0  0  0  0  0
   -1.2383    1.6374   -0.9631 C   0  0  0  0  0  0  0  0  0  0  0  0
   -1.0949    2.1393   -0.0018 H   0  0  0  0  0  0  0  0  0  0  0  0
   -1.2923    2.4201   -1.7248 H   0  0  0  0  0  0  0  0  0  0  0  0
   -2.5983    0.9483   -0.9098 C   0  0  0  0  0  0  0  0  0  0  0  0
   -2.9184    0.2078   -1.8264 O   0  0  0  0  0  0  0  0  0  0  0  0
   -3.3744    1.1722    0.1758 O   0  0  0  0  0  0  0  0  0  0  0  0
   -4.2073    0.7009    0.0207 H   0  0  0  0  0  0  0  0  0  0  0  0
    0.7739   -0.2387    0.9331 C   0  0  0  0  0  0  0  0  0  0  0  0
    1.9781   -0.0834    1.0883 O   0  0  0  0  0  0  0  0  0  0  0  0
   -0.0894    0.1582    1.9385 N   0  0  0  0  0  0  0  0  0  0  0  0
   -1.0725   -0.0479    1.7910 H   0  0  0  0  0  0  0  0  0  0  0  0
    0.3631    0.5136    3.2771 C   0  0  0  0  0  0  0  0  0  0  0  0
    1.0812    1.3392    3.2330 H   0  0  0  0  0  0  0  0  0  0  0  0
   -0.4853    0.8291    3.8920 H   0  0  0  0  0  0  0  0  0  0  0  0
    0.8425   -0.3453    3.7585 H   0  0  0  0  0  0  0  0  0  0  0  0
  1  2  1  0  0  0  0
  2  3  1  0  0  0  0
  2  4  1  0  0  0  0
  2  5  1  0  0  0  0
  5  6  2  0  0  0  0
  5  7  1  0  0  0  0
  7  8  1  0  0  0  0
  7  9  1  0  0  0  0
  9 10  1  0  0  0  0
  9 11  1  0  0  0  0
  9 21  1  0  0  0  0
 11 12  1  0  0  0  0
 11 13  1  0  0  0  0
 11 14  1  0  0  0  0
 14 15  1  0  0  0  0
 14 16  1  0  0  0  0
 14 17  1  0  0  0  0
 17 18  2  0  0  0  0
 17 19  1  0  0  0  0
 19 20  1  0  0  0  0
 21 22  2  0  0  0  0
 21 23  1  0  0  0  0
 23 24  1  0  0  0  0
 23 25  1  0  0  0  0
 25 26  1  0  0  0  0
 25 27  1  0  0  0  0
 25 28  1  0  0  0  0
M  END
$$$$

  -OEChem-02102214123D

 28 27  0     1  0  0  0  0  0999 V2000
   -2.2236   -4.4367    0.1672 H   0  0  0  0  0  0  0  0  0  0  0  0
   -2.3461   -3.4236   -0.2264 C   0  0  0  0  0  0  0  0  0  0  0  0
   -3.1590   -2.9328    0.3137 H   0  0  0  0  0  0  0  0  0  0  0  0
   -2.6048   -3.4871   -1.2859 H   0  0  0  0  0  0  0  0  0  0  0  0
   -1.0606   -2.6380   -0.0518 C   0  0  0  0  0  0  0  0  0  0  0  0
   -0.0911   -3.1673    0.4601 O   0  0  0  0  0  0  0  0  0  0  0  0
   -0.9996   -1.3287   -0.4861 N   0  0  0  0  0  0  0  0  0  0  0  0
   -1.7891   -1.0013   -1.0385 H   0  0  0  0  0  0  0  0  0  0  0  0
    0.2200   -0.5000   -0.4638 C   0  0  1  0  0  0  0  0  0  0  0  0
    0.9920   -1.0099   -1.0513 H   0  0  0  0  0  0  0  0  0  0  0  0
    0.0122    0.9191   -1.0576 C   0  0  0  0  0  0  0  0  0  0  0  0
    0.9108    1.5180   -0.8674 H   0  0  0  0  0  0  0  0  0  0  0  0
   -0.0418    0.7800   -2.1423 H   0  0  0  0  0  0  0  0  0  0  0  0
   -1.2342    1.7634   -0.6649 C   0  0  0  0  0  0  0  0  0  0  0  0
   -0.9570    2.3689    0.2040 H   0  0  0  0  0  0  0  0  0  0  0  0
   -1.4509    2.4610   -1.4788 H   0  0  0  0  0  0  0  0  0  0  0  0
   -2.5290    1.0419   -0.3076 C   0  0  0  0  0  0  0  0  0  0  0  0
   -2.8375    0.9472    0.8682 O   0  0  0  0  0  0  0  0  0  0  0  0
   -3.2497    0.4940   -1.3149 O   0  0  0  0  0  0  0  0  0  0  0  0
   -4.0704    0.1690   -0.9104 H   0  0  0  0  0  0  0  0  0  0  0  0
    0.7953   -0.3162    0.9608 C   0  0  0  0  0  0  0  0  0  0  0  0
    2.0048   -0.2098    1.1166 O   0  0  0  0  0  0  0  0  0  0  0  0
   -0.0468   -0.0154    2.0168 N   0  0  0  0  0  0  0  0  0  0  0  0
   -1.0483   -0.0369    1.8347 H   0  0  0  0  0  0  0  0  0  0  0  0
    0.4252    0.2724    3.3641 C   0  0  0  0  0  0  0  0  0  0  0  0
    1.0765    1.1527    3.3623 H   0  0  0  0  0  0  0  0  0  0  0  0
   -0.4221    0.4703    4.0274 H   0  0  0  0  0  0  0  0  0  0  0  0
    0.9852   -0.5805    3.7620 H   0  0  0  0  0  0  0  0  0  0  0  0
  1  2  1  0  0  0  0
  2  3  1  0  0  0  0
  2  4  1  0  0  0  0
  2  5  1  0  0  0  0
  5  6  2  0  0  0  0
  5  7  1  0  0  0  0
  7  8  1  0  0  0  0
  7  9  1  0  0  0  0
  9 10  1  0  0  0  0
  9 11  1  0  0  0  0
  9 21  1  0  0  0  0
 11 12  1  0  0  0  0
 11 13  1  0  0  0  0
 11 14  1  0  0  0  0
 14 15  1  0  0  0  0
 14 16  1  0  0  0  0
 14 17  1  0  0  0  0
 17 18  2  0  0  0  0
 17 19  1  0  0  0  0
 19 20  1  0  0  0  0
 21 22  2  0  0  0  0
 21 23  1  0  0  0  0
 23 24  1  0  0  0  0
 23 25  1  0  0  0  0
 25 26  1  0  0  0  0
 25 27  1  0  0  0  0
 25 28  1  0  0  0  0
M  END
$$$$

  -OEChem-02102214123D

 28 27  0     1  0  0  0  0  0999 V2000
   -2.5357   -4.3522    0.1317 H   0  0  0  0  0  0  0  0  0  0  0  0
   -2.6024   -3.3022   -0.1676 C   0  0  0  0  0  0  0  0  0  0  0  0
   -3.3417   -2.8028    0.4627 H   0  0  0  0  0  0  0  0  0  0  0  0
   -2.9274   -3.2544   -1.2096 H   0  0  0  0  0  0  0  0  0  0  0  0
   -1.2517   -2.6294   -0.0129 C   0  0  0  0  0  0  0  0  0  0  0  0
   -0.3206   -3.2413    0.4779 O   0  0  0  0  0  0  0  0  0  0  0  0
   -1.0858   -1.3286   -0.4439 N   0  0  0  0  0  0  0  0  0  0  0  0
   -1.8686   -0.9115   -0.9444 H   0  0  0  0  0  0  0  0  0  0  0  0
    0.1957   -0.6004   -0.4164 C   0  0  1  0  0  0  0  0  0  0  0  0
    0.9196   -1.1892   -0.9918 H   0  0  0  0  0  0  0  0  0  0  0  0
    0.1062    0.8010   -1.0749 C   0  0  0  0  0  0  0  0  0  0  0  0
    1.0426    1.3376   -0.8816 H   0  0  0  0  0  0  0  0  0  0  0  0
    0.0769    0.6169   -2.1541 H   0  0  0  0  0  0  0  0  0  0  0  0
   -1.0814    1.7608   -0.7662 C   0  0  0  0  0  0  0  0  0  0  0  0
   -0.6996    2.5528   -0.1140 H   0  0  0  0  0  0  0  0  0  0  0  0
   -1.3888    2.2436   -1.6982 H   0  0  0  0  0  0  0  0  0  0  0  0
   -2.3322    1.2038   -0.0919 C   0  0  0  0  0  0  0  0  0  0  0  0
   -2.4362    1.2887    1.1193 O   0  0  0  0  0  0  0  0  0  0  0  0
   -3.2596    0.6079   -0.8798 O   0  0  0  0  0  0  0  0  0  0  0  0
   -4.0099    0.4046   -0.2975 H   0  0  0  0  0  0  0  0  0  0  0  0
    0.8132   -0.4449    0.9951 C   0  0  0  0  0  0  0  0  0  0  0  0
    2.0314   -0.4462    1.1172 O   0  0  0  0  0  0  0  0  0  0  0  0
    0.0369   -0.0691    2.0764 N   0  0  0  0  0  0  0  0  0  0  0  0
   -0.9546    0.0895    1.9059 H   0  0  0  0  0  0  0  0  0  0  0  0
    0.5876    0.2575    3.3847 C   0  0  0  0  0  0  0  0  0  0  0  0
    1.2433    1.1317    3.3172 H   0  0  0  0  0  0  0  0  0  0  0  0
   -0.2196    0.4820    4.0883 H   0  0  0  0  0  0  0  0  0  0  0  0
    1.1639   -0.5863    3.7787 H   0  0  0  0  0  0  0  0  0  0  0  0
  1  2  1  0  0  0  0
  2  3  1  0  0  0  0
  2  4  1  0  0  0  0
  2  5  1  0  0  0  0
  5  6  2  0  0  0  0
  5  7  1  0  0  0  0
  7  8  1  0  0  0  0
  7  9  1  0  0  0  0
  9 10  1  0  0  0  0
  9 11  1  0  0  0  0
  9 21  1  0  0  0  0
 11 12  1  0  0  0  0
 11 13  1  0  0  0  0
 11 14  1  0  0  0  0
 14 15  1  0  0  0  0
 14 16  1  0  0  0  0
 14 17  1  0  0  0  0
 17 18  2  0  0  0  0
 17 19  1  0  0  0  0
 19 20  1  0  0  0  0
 21 22  2  0  0  0  0
 21 23  1  0  0  0  0
 23 24  1  0  0  0  0
 23 25  1  0  0  0  0
 25 26  1  0  0  0  0
 25 27  1  0  0  0  0
 25 28  1  0  0  0  0
M  END
$$$$

  -OEChem-02102214123D

 28 27  0     1  0  0  0  0  0999 V2000
   -2.6084   -4.2930    0.0984 H   0  0  0  0  0  0  0  0  0  0  0  0
   -2.6507   -3.2387   -0.1895 C   0  0  0  0  0  0  0  0  0  0  0  0
   -3.3612   -2.7239    0.4613 H   0  0  0  0  0  0  0  0  0  0  0  0
   -2.9965   -3.1712   -1.2237 H   0  0  0  0  0  0  0  0  0  0  0  0
   -1.2779   -2.6071   -0.0596 C   0  0  0  0  0  0  0  0  0  0  0  0
   -0.3466   -3.2598    0.3751 O   0  0  0  0  0  0  0  0  0  0  0  0
   -1.0925   -1.2943   -0.4424 N   0  0  0  0  0  0  0  0  0  0  0  0
   -1.8978   -0.8130   -0.8397 H   0  0  0  0  0  0  0  0  0  0  0  0
    0.1958   -0.5823   -0.3718 C   0  0  1  0  0  0  0  0  0  0  0  0
    0.9151   -1.1836   -0.9404 H   0  0  0  0  0  0  0  0  0  0  0  0
    0.1369    0.8026   -1.0647 C   0  0  0  0  0  0  0  0  0  0  0  0
    1.0597    1.3408   -0.8180 H   0  0  0  0  0  0  0  0  0  0  0  0
    0.1758    0.6094   -2.1420 H   0  0  0  0  0  0  0  0  0  0  0  0
   -1.0623    1.7684   -0.8276 C   0  0  0  0  0  0  0  0  0  0  0  0
   -0.6630    2.7089   -0.4349 H   0  0  0  0  0  0  0  0  0  0  0  0
   -1.5105    2.0008   -1.7979 H   0  0  0  0  0  0  0  0  0  0  0  0
   -2.1932    1.3359    0.1025 C   0  0  0  0  0  0  0  0  0  0  0  0
   -2.1217    1.6053    1.2878 O   0  0  0  0  0  0  0  0  0  0  0  0
   -3.2323    0.6607   -0.4468 O   0  0  0  0  0  0  0  0  0  0  0  0
   -3.8847    0.5551    0.2652 H   0  0  0  0  0  0  0  0  0  0  0  0
    0.8230   -0.4652    1.0404 C   0  0  0  0  0  0  0  0  0  0  0  0
    2.0417   -0.5010    1.1504 O   0  0  0  0  0  0  0  0  0  0  0  0
    0.0716   -0.1106    2.1455 N   0  0  0  0  0  0  0  0  0  0  0  0
   -0.8986    0.1472    1.9800 H   0  0  0  0  0  0  0  0  0  0  0  0
    0.6600    0.1999    3.4418 C   0  0  0  0  0  0  0  0  0  0  0  0
    1.3038    1.0825    3.3687 H   0  0  0  0  0  0  0  0  0  0  0  0
   -0.1270    0.4032    4.1741 H   0  0  0  0  0  0  0  0  0  0  0  0
    1.2572   -0.6441    3.8032 H   0  0  0  0  0  0  0  0  0  0  0  0
  1  2  1  0  0  0  0
  2  3  1  0  0  0  0
  2  4  1  0  0  0  0
  2  5  1  0  0  0  0
  5  6  2  0  0  0  0
  5  7  1  0  0  0  0
  7  8  1  0  0  0  0
  7  9  1  0  0  0  0
  9 10  1  0  0  0  0
  9 11  1  0  0  0  0
  9 21  1  0  0  0  0
 11 12  1  0  0  0  0
 11 13  1  0  0  0  0
 11 14  1  0  0  0  0
 14 15  1  0  0  0  0
 14 16  1  0  0  0  0
 14 17  1  0  0  0  0
 17 18  2  0  0  0  0
 17 19  1  0  0  0  0
 19 20  1  0  0  0  0
 21 22  2  0  0  0  0
 21 23  1  0  0  0  0
 23 24  1  0  0  0  0
 23 25  1  0  0  0  0
 25 26  1  0  0  0  0
 25 27  1  0  0  0  0
 25 28  1  0  0  0  0
M  END
$$$$

  -OEChem-02102214123D

 28 27  0     1  0  0  0  0  0999 V2000
   -1.9446   -4.2880    1.0904 H   0  0  0  0  0  0  0  0  0  0  0  0
   -2.1295   -3.3702    0.5253 C   0  0  0  0  0  0  0  0  0  0  0  0
   -2.8610   -2.7646    1.0663 H   0  0  0  0  0  0  0  0  0  0  0  0
   -2.5386   -3.6340   -0.4529 H   0  0  0  0  0  0  0  0  0  0  0  0
   -0.8388   -2.5931    0.3522 C   0  0  0  0  0  0  0  0  0  0  0  0
    0.2168   -3.0590    0.7462 O   0  0  0  0  0  0  0  0  0  0  0  0
   -0.8696   -1.3336   -0.2078 N   0  0  0  0  0  0  0  0  0  0  0  0
   -1.7960   -0.9423   -0.3850 H   0  0  0  0  0  0  0  0  0  0  0  0
    0.2979   -0.4394   -0.2941 C   0  0  1  0  0  0  0  0  0  0  0  0
    1.0795   -1.0358   -0.7795 H   0  0  0  0  0  0  0  0  0  0  0  0
    0.0614    0.7609   -1.2487 C   0  0  0  0  0  0  0  0  0  0  0  0
    0.8879    1.4661   -1.1045 H   0  0  0  0  0  0  0  0  0  0  0  0
    0.1627    0.3809   -2.2710 H   0  0  0  0  0  0  0  0  0  0  0  0
   -1.2635    1.5681   -1.1968 C   0  0  0  0  0  0  0  0  0  0  0  0
   -1.0307    2.6314   -1.3026 H   0  0  0  0  0  0  0  0  0  0  0  0
   -1.8567    1.2925   -2.0747 H   0  0  0  0  0  0  0  0  0  0  0  0
   -2.1647    1.3920    0.0199 C   0  0  0  0  0  0  0  0  0  0  0  0
   -3.0404    0.5413   -0.0456 O   0  0  0  0  0  0  0  0  0  0  0  0
   -1.9537    2.1997    1.0916 O   0  0  0  0  0  0  0  0  0  0  0  0
   -1.1594    2.7302    0.9353 H   0  0  0  0  0  0  0  0  0  0  0  0
    0.9730   -0.0155    1.0410 C   0  0  0  0  0  0  0  0  0  0  0  0
    2.1112    0.4242    0.9980 O   0  0  0  0  0  0  0  0  0  0  0  0
    0.3415    0.4020    2.1918 N   0  0  0  0  0  0  0  0  0  0  0  0
    1.0118    0.7992    2.8456 H   0  0  0  0  0  0  0  0  0  0  0  0
   -0.7899   -0.3009    2.7832 C   0  0  0  0  0  0  0  0  0  0  0  0
   -1.0915    0.1987    3.7089 H   0  0  0  0  0  0  0  0  0  0  0  0
   -1.6541   -0.3135    2.1166 H   0  0  0  0  0  0  0  0  0  0  0  0
   -0.5137   -1.3332    3.0227 H   0  0  0  0  0  0  0  0  0  0  0  0
  1  2  1  0  0  0  0
  2  3  1  0  0  0  0
  2  4  1  0  0  0  0
  2  5  1  0  0  0  0
  5  6  2  0  0  0  0
  5  7  1  0  0  0  0
  7  8  1  0  0  0  0
  7  9  1  0  0  0  0
  9 10  1  0  0  0  0
  9 11  1  0  0  0  0
  9 21  1  0  0  0  0
 11 12  1  0  0  0  0
 11 13  1  0  0  0  0
 11 14  1  0  0  0  0
 14 15  1  0  0  0  0
 14 16  1  0  0  0  0
 14 17  1  0  0  0  0
 17 18  2  0  0  0  0
 17 19  1  0  0  0  0
 19 20  1  0  0  0  0
 21 22  2  0  0  0  0
 21 23  1  0  0  0  0
 23 24  1  0  0  0  0
 23 25  1  0  0  0  0
 25 26  1  0  0  0  0
 25 27  1  0  0  0  0
 25 28  1  0  0  0  0
M  END
$$$$

  -OEChem-02102214123D

 28 27  0     1  0  0  0  0  0999 V2000
   -2.8311   -4.2144    0.3352 H   0  0  0  0  0  0  0  0  0  0  0  0
   -2.7574   -3.2469   -0.1699 C   0  0  0  0  0  0  0  0  0  0  0  0
   -3.5955   -2.6209    0.1464 H   0  0  0  0  0  0  0  0  0  0  0  0
   -2.8189   -3.4095   -1.2487 H   0  0  0  0  0  0  0  0  0  0  0  0
   -1.4439   -2.5741    0.1807 C   0  0  0  0  0  0  0  0  0  0  0  0
   -0.6768   -3.1008    0.9654 O   0  0  0  0  0  0  0  0  0  0  0  0
   -1.1368   -1.3394   -0.3576 N   0  0  0  0  0  0  0  0  0  0  0  0
   -1.7680   -1.0131   -1.0846 H   0  0  0  0  0  0  0  0  0  0  0  0
    0.2001   -0.7116   -0.2723 C   0  0  1  0  0  0  0  0  0  0  0  0
    0.9130   -1.4367   -0.6828 H   0  0  0  0  0  0  0  0  0  0  0  0
    0.3474    0.5777   -1.1309 C   0  0  0  0  0  0  0  0  0  0  0  0
    1.3229    1.0344   -0.9101 H   0  0  0  0  0  0  0  0  0  0  0  0
    0.4157    0.2442   -2.1721 H   0  0  0  0  0  0  0  0  0  0  0  0
   -0.7839    1.6527   -1.1022 C   0  0  0  0  0  0  0  0  0  0  0  0
   -0.1944    2.1209   -0.3083 H   0  0  0  0  0  0  0  0  0  0  0  0
   -1.5410    0.8838   -1.2493 H   0  0  0  0  0  0  0  0  0  0  0  0
   -1.8806    2.2652   -0.2217 C   0  0  0  0  0  0  0  0  0  0  0  0
   -2.6826    2.9808   -0.7977 O   0  0  0  0  0  0  0  0  0  0  0  0
   -1.9421    1.9665    1.1094 O   0  0  0  0  0  0  0  0  0  0  0  0
   -1.1461    1.4677    1.3685 H   0  0  0  0  0  0  0  0  0  0  0  0
    0.6865   -0.4670    1.1746 C   0  0  0  0  0  0  0  0  0  0  0  0
    1.8860   -0.3481    1.3772 O   0  0  0  0  0  0  0  0  0  0  0  0
   -0.1914    0.0690    2.1010 N   0  0  0  0  0  0  0  0  0  0  0  0
   -1.1284   -0.3271    2.0369 H   0  0  0  0  0  0  0  0  0  0  0  0
    0.2584    0.4680    3.4323 C   0  0  0  0  0  0  0  0  0  0  0  0
    1.0206    1.2519    3.3649 H   0  0  0  0  0  0  0  0  0  0  0  0
   -0.5821    0.8584    4.0147 H   0  0  0  0  0  0  0  0  0  0  0  0
    0.6839   -0.3887    3.9662 H   0  0  0  0  0  0  0  0  0  0  0  0
  1  2  1  0  0  0  0
  2  3  1  0  0  0  0
  2  4  1  0  0  0  0
  2  5  1  0  0  0  0
  5  6  2  0  0  0  0
  5  7  1  0  0  0  0
  7  8  1  0  0  0  0
  7  9  1  0  0  0  0
  9 10  1  0  0  0  0
  9 11  1  0  0  0  0
  9 21  1  0  0  0  0
 11 12  1  0  0  0  0
 11 13  1  0  0  0  0
 11 14  1  0  0  0  0
 14 15  1  0  0  0  0
 14 16  1  0  0  0  0
 14 17  1  0  0  0  0
 17 18  2  0  0  0  0
 17 19  1  0  0  0  0
 19 20  1  0  0  0  0
 21 22  2  0  0  0  0
 21 23  1  0  0  0  0
 23 24  1  0  0  0  0
 23 25  1  0  0  0  0
 25 26  1  0  0  0  0
 25 27  1  0  0  0  0
 25 28  1  0  0  0  0
M  END
$$$$

  -OEChem-02102214123D

 28 27  0     1  0  0  0  0  0999 V2000
   -2.7223   -4.0785    0.2962 H   0  0  0  0  0  0  0  0  0  0  0  0
   -2.7137   -3.0538   -0.0863 C   0  0  0  0  0  0  0  0  0  0  0  0
   -3.3474   -2.4344    0.5529 H   0  0  0  0  0  0  0  0  0  0  0  0
   -3.1188   -3.0536   -1.1012 H   0  0  0  0  0  0  0  0  0  0  0  0
   -1.2969   -2.5128   -0.0952 C   0  0  0  0  0  0  0  0  0  0  0  0
   -0.3714   -3.2210    0.2582 O   0  0  0  0  0  0  0  0  0  0  0  0
   -1.0668   -1.2092   -0.4849 N   0  0  0  0  0  0  0  0  0  0  0  0
   -1.8905   -0.6283   -0.6203 H   0  0  0  0  0  0  0  0  0  0  0  0
    0.2405   -0.5379   -0.3735 C   0  0  1  0  0  0  0  0  0  0  0  0
    0.9600   -1.1889   -0.8848 H   0  0  0  0  0  0  0  0  0  0  0  0
    0.2493    0.7841   -1.1746 C   0  0  0  0  0  0  0  0  0  0  0  0
    1.1459    1.3437   -0.8827 H   0  0  0  0  0  0  0  0  0  0  0  0
    0.3632    0.5359   -2.2349 H   0  0  0  0  0  0  0  0  0  0  0  0
   -0.9723    1.7252   -1.0424 C   0  0  0  0  0  0  0  0  0  0  0  0
   -0.7164    2.6917   -1.4872 H   0  0  0  0  0  0  0  0  0  0  0  0
   -1.7939    1.3122   -1.6341 H   0  0  0  0  0  0  0  0  0  0  0  0
   -1.4998    1.9697    0.3662 C   0  0  0  0  0  0  0  0  0  0  0  0
   -1.0785    2.9278    0.9865 O   0  0  0  0  0  0  0  0  0  0  0  0
   -2.4541    1.1318    0.8432 O   0  0  0  0  0  0  0  0  0  0  0  0
   -2.7293    1.5225    1.6897 H   0  0  0  0  0  0  0  0  0  0  0  0
    0.8196   -0.4274    1.0573 C   0  0  0  0  0  0  0  0  0  0  0  0
    2.0324   -0.4463    1.2162 O   0  0  0  0  0  0  0  0  0  0  0  0
    0.0221   -0.0400    2.1166 N   0  0  0  0  0  0  0  0  0  0  0  0
   -0.9800   -0.0461    1.9565 H   0  0  0  0  0  0  0  0  0  0  0  0
    0.5324    0.2052    3.4593 C   0  0  0  0  0  0  0  0  0  0  0  0
    1.2653    1.0191    3.4467 H   0  0  0  0  0  0  0  0  0  0  0  0
   -0.2845    0.4876    4.1302 H   0  0  0  0  0  0  0  0  0  0  0  0
    1.0126   -0.6956    3.8562 H   0  0  0  0  0  0  0  0  0  0  0  0
  1  2  1  0  0  0  0
  2  3  1  0  0  0  0
  2  4  1  0  0  0  0
  2  5  1  0  0  0  0
  5  6  2  0  0  0  0
  5  7  1  0  0  0  0
  7  8  1  0  0  0  0
  7  9  1  0  0  0  0
  9 10  1  0  0  0  0
  9 11  1  0  0  0  0
  9 21  1  0  0  0  0
 11 12  1  0  0  0  0
 11 13  1  0  0  0  0
 11 14  1  0  0  0  0
 14 15  1  0  0  0  0
 14 16  1  0  0  0  0
 14 17  1  0  0  0  0
 17 18  2  0  0  0  0
 17 19  1  0  0  0  0
 19 20  1  0  0  0  0
 21 22  2  0  0  0  0
 21 23  1  0  0  0  0
 23 24  1  0  0  0  0
 23 25  1  0  0  0  0
 25 26  1  0  0  0  0
 25 27  1  0  0  0  0
 25 28  1  0  0  0  0
M  END
$$$$

  -OEChem-02102214123D

 28 27  0     1  0  0  0  0  0999 V2000
   -2.7281   -4.0973    0.3307 H   0  0  0  0  0  0  0  0  0  0  0  0
   -2.7073   -3.0912   -0.0981 C   0  0  0  0  0  0  0  0  0  0  0  0
   -3.4034   -2.4584    0.4575 H   0  0  0  0  0  0  0  0  0  0  0  0
   -3.0269   -3.1471   -1.1415 H   0  0  0  0  0  0  0  0  0  0  0  0
   -1.3047   -2.5191   -0.0166 C   0  0  0  0  0  0  0  0  0  0  0  0
   -0.3997   -3.1913    0.4434 O   0  0  0  0  0  0  0  0  0  0  0  0
   -1.0618   -1.2330   -0.4558 N   0  0  0  0  0  0  0  0  0  0  0  0
   -1.8635   -0.6974   -0.7735 H   0  0  0  0  0  0  0  0  0  0  0  0
    0.2446   -0.5563   -0.3547 C   0  0  1  0  0  0  0  0  0  0  0  0
    0.9718   -1.2256   -0.8300 H   0  0  0  0  0  0  0  0  0  0  0  0
    0.2657    0.7390   -1.1995 C   0  0  0  0  0  0  0  0  0  0  0  0
    1.1632    1.3101   -0.9339 H   0  0  0  0  0  0  0  0  0  0  0  0
    0.3730    0.4491   -2.2499 H   0  0  0  0  0  0  0  0  0  0  0  0
   -0.9637    1.6705   -1.0977 C   0  0  0  0  0  0  0  0  0  0  0  0
   -0.8030    2.5274   -1.7590 H   0  0  0  0  0  0  0  0  0  0  0  0
   -1.8525    1.1516   -1.4647 H   0  0  0  0  0  0  0  0  0  0  0  0
   -1.2548    2.2085    0.2968 C   0  0  0  0  0  0  0  0  0  0  0  0
   -0.6065    3.1547    0.7037 O   0  0  0  0  0  0  0  0  0  0  0  0
   -2.2475    1.6192    1.0071 O   0  0  0  0  0  0  0  0  0  0  0  0
   -2.3189    2.1456    1.8206 H   0  0  0  0  0  0  0  0  0  0  0  0
    0.7978   -0.3886    1.0812 C   0  0  0  0  0  0  0  0  0  0  0  0
    2.0071   -0.4149    1.2649 O   0  0  0  0  0  0  0  0  0  0  0  0
   -0.0166    0.0407    2.1115 N   0  0  0  0  0  0  0  0  0  0  0  0
   -1.0145    0.0710    1.9227 H   0  0  0  0  0  0  0  0  0  0  0  0
    0.4687    0.3234    3.4561 C   0  0  0  0  0  0  0  0  0  0  0  0
    1.2156    1.1241    3.4324 H   0  0  0  0  0  0  0  0  0  0  0  0
   -0.3577    0.6413    4.0986 H   0  0  0  0  0  0  0  0  0  0  0  0
    0.9242   -0.5712    3.8941 H   0  0  0  0  0  0  0  0  0  0  0  0
  1  2  1  0  0  0  0
  2  3  1  0  0  0  0
  2  4  1  0  0  0  0
  2  5  1  0  0  0  0
  5  6  2  0  0  0  0
  5  7  1  0  0  0  0
  7  8  1  0  0  0  0
  7  9  1  0  0  0  0
  9 10  1  0  0  0  0
  9 11  1  0  0  0  0
  9 21  1  0  0  0  0
 11 12  1  0  0  0  0
 11 13  1  0  0  0  0
 11 14  1  0  0  0  0
 14 15  1  0  0  0  0
 14 16  1  0  0  0  0
 14 17  1  0  0  0  0
 17 18  2  0  0  0  0
 17 19  1  0  0  0  0
 19 20  1  0  0  0  0
 21 22  2  0  0  0  0
 21 23  1  0  0  0  0
 23 24  1  0  0  0  0
 23 25  1  0  0  0  0
 25 26  1  0  0  0  0
 25 27  1  0  0  0  0
 25 28  1  0  0  0  0
M  END
$$$$

  -OEChem-02102214123D

 28 27  0     1  0  0  0  0  0999 V2000
   -2.7463   -4.1190    0.2918 H   0  0  0  0  0  0  0  0  0  0  0  0
   -2.7093   -3.1205   -0.1534 C   0  0  0  0  0  0  0  0  0  0  0  0
   -3.4621   -2.4927    0.3295 H   0  0  0  0  0  0  0  0  0  0  0  0
   -2.9394   -3.2019   -1.2184 H   0  0  0  0  0  0  0  0  0  0  0  0
   -1.3308   -2.5164    0.0358 C   0  0  0  0  0  0  0  0  0  0  0  0
   -0.4668   -3.1447    0.6194 O   0  0  0  0  0  0  0  0  0  0  0  0
   -1.0658   -1.2518   -0.4512 N   0  0  0  0  0  0  0  0  0  0  0  0
   -1.8075   -0.7968   -0.9730 H   0  0  0  0  0  0  0  0  0  0  0  0
    0.2462   -0.5834   -0.3596 C   0  0  1  0  0  0  0  0  0  0  0  0
    0.9792   -1.2604   -0.8143 H   0  0  0  0  0  0  0  0  0  0  0  0
    0.2697    0.7123   -1.2048 C   0  0  0  0  0  0  0  0  0  0  0  0
    1.1800    1.2772   -0.9703 H   0  0  0  0  0  0  0  0  0  0  0  0
    0.3481    0.4119   -2.2548 H   0  0  0  0  0  0  0  0  0  0  0  0
   -0.9599    1.6436   -1.0815 C   0  0  0  0  0  0  0  0  0  0  0  0
   -0.9251    2.3681   -1.9005 H   0  0  0  0  0  0  0  0  0  0  0  0
   -1.8903    1.0843   -1.1972 H   0  0  0  0  0  0  0  0  0  0  0  0
   -1.0069    2.4376    0.2181 C   0  0  0  0  0  0  0  0  0  0  0  0
   -0.1731    3.3047    0.4048 O   0  0  0  0  0  0  0  0  0  0  0  0
   -1.9922    2.1418    1.0992 O   0  0  0  0  0  0  0  0  0  0  0  0
   -1.8688    2.7634    1.8349 H   0  0  0  0  0  0  0  0  0  0  0  0
    0.7698   -0.3687    1.0807 C   0  0  0  0  0  0  0  0  0  0  0  0
    1.9734   -0.4168    1.2946 O   0  0  0  0  0  0  0  0  0  0  0  0
   -0.0615    0.1067    2.0773 N   0  0  0  0  0  0  0  0  0  0  0  0
   -1.0517    0.1740    1.8592 H   0  0  0  0  0  0  0  0  0  0  0  0
    0.3975    0.4133    3.4256 C   0  0  0  0  0  0  0  0  0  0  0  0
    1.1562    1.2028    3.4008 H   0  0  0  0  0  0  0  0  0  0  0  0
   -0.4389    0.7560    4.0421 H   0  0  0  0  0  0  0  0  0  0  0  0
    0.8308   -0.4775    3.8930 H   0  0  0  0  0  0  0  0  0  0  0  0
  1  2  1  0  0  0  0
  2  3  1  0  0  0  0
  2  4  1  0  0  0  0
  2  5  1  0  0  0  0
  5  6  2  0  0  0  0
  5  7  1  0  0  0  0
  7  8  1  0  0  0  0
  7  9  1  0  0  0  0
  9 10  1  0  0  0  0
  9 11  1  0  0  0  0
  9 21  1  0  0  0  0
 11 12  1  0  0  0  0
 11 13  1  0  0  0  0
 11 14  1  0  0  0  0
 14 15  1  0  0  0  0
 14 16  1  0  0  0  0
 14 17  1  0  0  0  0
 17 18  2  0  0  0  0
 17 19  1  0  0  0  0
 19 20  1  0  0  0  0
 21 22  2  0  0  0  0
 21 23  1  0  0  0  0
 23 24  1  0  0  0  0
 23 25  1  0  0  0  0
 25 26  1  0  0  0  0
 25 27  1  0  0  0  0
 25 28  1  0  0  0  0
M  END
$$$$

  -OEChem-02102214123D

 28 27  0     1  0  0  0  0  0999 V2000
   -2.7094   -4.1593    0.2953 H   0  0  0  0  0  0  0  0  0  0  0  0
   -2.6770   -3.1730   -0.1765 C   0  0  0  0  0  0  0  0  0  0  0  0
   -3.4704   -2.5541    0.2493 H   0  0  0  0  0  0  0  0  0  0  0  0
   -2.8499   -3.2912   -1.2488 H   0  0  0  0  0  0  0  0  0  0  0  0
   -1.3268   -2.5247    0.0641 C   0  0  0  0  0  0  0  0  0  0  0  0
   -0.4816   -3.1079    0.7179 O   0  0  0  0  0  0  0  0  0  0  0  0
   -1.0644   -1.2752   -0.4628 N   0  0  0  0  0  0  0  0  0  0  0  0
   -1.7710   -0.8842   -1.0774 H   0  0  0  0  0  0  0  0  0  0  0  0
    0.2451   -0.5987   -0.3801 C   0  0  1  0  0  0  0  0  0  0  0  0
    0.9894   -1.2696   -0.8247 H   0  0  0  0  0  0  0  0  0  0  0  0
    0.2525    0.7053   -1.2120 C   0  0  0  0  0  0  0  0  0  0  0  0
    1.1700    1.2689   -1.0027 H   0  0  0  0  0  0  0  0  0  0  0  0
    0.3052    0.4082   -2.2645 H   0  0  0  0  0  0  0  0  0  0  0  0
   -0.9861    1.6233   -1.0559 C   0  0  0  0  0  0  0  0  0  0  0  0
   -1.1165    2.1858   -1.9848 H   0  0  0  0  0  0  0  0  0  0  0  0
   -1.9037    1.0531   -0.9030 H   0  0  0  0  0  0  0  0  0  0  0  0
   -0.8352    2.6472    0.0645 C   0  0  0  0  0  0  0  0  0  0  0  0
    0.0339    3.4955   -0.0265 O   0  0  0  0  0  0  0  0  0  0  0  0
   -1.6963    2.5642    1.1058 O   0  0  0  0  0  0  0  0  0  0  0  0
   -1.4452    3.2860    1.7043 H   0  0  0  0  0  0  0  0  0  0  0  0
    0.7470   -0.3383    1.0601 C   0  0  0  0  0  0  0  0  0  0  0  0
    1.9470   -0.3789    1.2955 O   0  0  0  0  0  0  0  0  0  0  0  0
   -0.1031    0.1652    2.0271 N   0  0  0  0  0  0  0  0  0  0  0  0
   -1.0876    0.2369    1.7878 H   0  0  0  0  0  0  0  0  0  0  0  0
    0.3293    0.5046    3.3761 C   0  0  0  0  0  0  0  0  0  0  0  0
    1.0961    1.2859    3.3474 H   0  0  0  0  0  0  0  0  0  0  0  0
   -0.5171    0.8724    3.9637 H   0  0  0  0  0  0  0  0  0  0  0  0
    0.7426   -0.3770    3.8774 H   0  0  0  0  0  0  0  0  0  0  0  0
  1  2  1  0  0  0  0
  2  3  1  0  0  0  0
  2  4  1  0  0  0  0
  2  5  1  0  0  0  0
  5  6  2  0  0  0  0
  5  7  1  0  0  0  0
  7  8  1  0  0  0  0
  7  9  1  0  0  0  0
  9 10  1  0  0  0  0
  9 11  1  0  0  0  0
  9 21  1  0  0  0  0
 11 12  1  0  0  0  0
 11 13  1  0  0  0  0
 11 14  1  0  0  0  0
 14 15  1  0  0  0  0
 14 16  1  0  0  0  0
 14 17  1  0  0  0  0
 17 18  2  0  0  0  0
 17 19  1  0  0  0  0
 19 20  1  0  0  0  0
 21 22  2  0  0  0  0
 21 23  1  0  0  0  0
 23 24  1  0  0  0  0
 23 25  1  0  0  0  0
 25 26  1  0  0  0  0
 25 27  1  0  0  0  0
 25 28  1  0  0  0  0
M  END
$$$$

  -OEChem-02102214123D

 28 27  0     1  0  0  0  0  0999 V2000
   -2.6960   -4.1695    0.3385 H   0  0  0  0  0  0  0  0  0  0  0  0
   -2.6478   -3.2144   -0.1923 C   0  0  0  0  0  0  0  0  0  0  0  0
   -3.4603   -2.5749    0.1610 H   0  0  0  0  0  0  0  0  0  0  0  0
   -2.7758   -3.4004   -1.2613 H   0  0  0  0  0  0  0  0  0  0  0  0
   -1.3106   -2.5443    0.0618 C   0  0  0  0  0  0  0  0  0  0  0  0
   -0.4713   -3.1036    0.7433 O   0  0  0  0  0  0  0  0  0  0  0  0
   -1.0546   -1.3014   -0.4834 N   0  0  0  0  0  0  0  0  0  0  0  0
   -1.7485   -0.9386   -1.1294 H   0  0  0  0  0  0  0  0  0  0  0  0
    0.2477   -0.6105   -0.3970 C   0  0  1  0  0  0  0  0  0  0  0  0
    1.0071   -1.2682   -0.8352 H   0  0  0  0  0  0  0  0  0  0  0  0
    0.2336    0.7016   -1.2139 C   0  0  0  0  0  0  0  0  0  0  0  0
    1.1458    1.2728   -1.0025 H   0  0  0  0  0  0  0  0  0  0  0  0
    0.2869    0.4204   -2.2708 H   0  0  0  0  0  0  0  0  0  0  0  0
   -1.0209    1.5965   -1.0346 C   0  0  0  0  0  0  0  0  0  0  0  0
   -1.3409    1.9566   -2.0167 H   0  0  0  0  0  0  0  0  0  0  0  0
   -1.8624    1.0506   -0.6051 H   0  0  0  0  0  0  0  0  0  0  0  0
   -0.7409    2.8212   -0.1688 C   0  0  0  0  0  0  0  0  0  0  0  0
    0.0181    3.6756   -0.5908 O   0  0  0  0  0  0  0  0  0  0  0  0
   -1.3682    2.8995    1.0277 O   0  0  0  0  0  0  0  0  0  0  0  0
   -1.0550    3.7246    1.4310 H   0  0  0  0  0  0  0  0  0  0  0  0
    0.7277   -0.3219    1.0452 C   0  0  0  0  0  0  0  0  0  0  0  0
    1.9256   -0.3314    1.2948 O   0  0  0  0  0  0  0  0  0  0  0  0
   -0.1442    0.1893    1.9885 N   0  0  0  0  0  0  0  0  0  0  0  0
   -1.1247    0.2433    1.7330 H   0  0  0  0  0  0  0  0  0  0  0  0
    0.2658    0.5931    3.3267 C   0  0  0  0  0  0  0  0  0  0  0  0
    1.0154    1.3894    3.2735 H   0  0  0  0  0  0  0  0  0  0  0  0
   -0.5951    0.9661    3.8894 H   0  0  0  0  0  0  0  0  0  0  0  0
    0.6924   -0.2576    3.8686 H   0  0  0  0  0  0  0  0  0  0  0  0
  1  2  1  0  0  0  0
  2  3  1  0  0  0  0
  2  4  1  0  0  0  0
  2  5  1  0  0  0  0
  5  6  2  0  0  0  0
  5  7  1  0  0  0  0
  7  8  1  0  0  0  0
  7  9  1  0  0  0  0
  9 10  1  0  0  0  0
  9 11  1  0  0  0  0
  9 21  1  0  0  0  0
 11 12  1  0  0  0  0
 11 13  1  0  0  0  0
 11 14  1  0  0  0  0
 14 15  1  0  0  0  0
 14 16  1  0  0  0  0
 14 17  1  0  0  0  0
 17 18  2  0  0  0  0
 17 19  1  0  0  0  0
 19 20  1  0  0  0  0
 21 22  2  0  0  0  0
 21 23  1  0  0  0  0
 23 24  1  0  0  0  0
 23 25  1  0  0  0  0
 25 26  1  0  0  0  0
 25 27  1  0  0  0  0
 25 28  1  0  0  0  0
M  END
$$$$

  -OEChem-02102214123D

 28 27  0     1  0  0  0  0  0999 V2000
   -2.6585   -4.1937    0.3393 H   0  0  0  0  0  0  0  0  0  0  0  0
   -2.6161   -3.2461   -0.2054 C   0  0  0  0  0  0  0  0  0  0  0  0
   -3.4437   -2.6142    0.1253 H   0  0  0  0  0  0  0  0  0  0  0  0
   -2.7244   -3.4496   -1.2734 H   0  0  0  0  0  0  0  0  0  0  0  0
   -1.2931   -2.5525    0.0587 C   0  0  0  0  0  0  0  0  0  0  0  0
   -0.4534   -3.0920    0.7553 O   0  0  0  0  0  0  0  0  0  0  0  0
   -1.0491   -1.3107   -0.4944 N   0  0  0  0  0  0  0  0  0  0  0  0
   -1.7426   -0.9608   -1.1481 H   0  0  0  0  0  0  0  0  0  0  0  0
    0.2452   -0.6044   -0.4075 C   0  0  1  0  0  0  0  0  0  0  0  0
    1.0150   -1.2513   -0.8441 H   0  0  0  0  0  0  0  0  0  0  0  0
    0.2062    0.7062   -1.2226 C   0  0  0  0  0  0  0  0  0  0  0  0
    1.1041    1.2934   -0.9926 H   0  0  0  0  0  0  0  0  0  0  0  0
    0.2741    0.4447   -2.2836 H   0  0  0  0  0  0  0  0  0  0  0  0
   -1.0686    1.5661   -1.0248 C   0  0  0  0  0  0  0  0  0  0  0  0
   -1.5839    1.6831   -1.9825 H   0  0  0  0  0  0  0  0  0  0  0  0
   -1.7699    1.0968   -0.3320 H   0  0  0  0  0  0  0  0  0  0  0  0
   -0.7371    2.9518   -0.4814 C   0  0  0  0  0  0  0  0  0  0  0  0
   -0.1680    3.7427   -1.2131 O   0  0  0  0  0  0  0  0  0  0  0  0
   -1.0940    3.2301    0.7936 O   0  0  0  0  0  0  0  0  0  0  0  0
   -0.7770    4.1306    0.9649 H   0  0  0  0  0  0  0  0  0  0  0  0
    0.7178   -0.2990    1.0341 C   0  0  0  0  0  0  0  0  0  0  0  0
    1.9160   -0.2715    1.2808 O   0  0  0  0  0  0  0  0  0  0  0  0
   -0.1657    0.2094    1.9685 N   0  0  0  0  0  0  0  0  0  0  0  0
   -1.1517    0.1807    1.7337 H   0  0  0  0  0  0  0  0  0  0  0  0
    0.2347    0.6323    3.3038 C   0  0  0  0  0  0  0  0  0  0  0  0
    0.9753    1.4368    3.2447 H   0  0  0  0  0  0  0  0  0  0  0  0
   -0.6321    1.0024    3.8594 H   0  0  0  0  0  0  0  0  0  0  0  0
    0.6691   -0.2077    3.8560 H   0  0  0  0  0  0  0  0  0  0  0  0
  1  2  1  0  0  0  0
  2  3  1  0  0  0  0
  2  4  1  0  0  0  0
  2  5  1  0  0  0  0
  5  6  2  0  0  0  0
  5  7  1  0  0  0  0
  7  8  1  0  0  0  0
  7  9  1  0  0  0  0
  9 10  1  0  0  0  0
  9 11  1  0  0  0  0
  9 21  1  0  0  0  0
 11 12  1  0  0  0  0
 11 13  1  0  0  0  0
 11 14  1  0  0  0  0
 14 15  1  0  0  0  0
 14 16  1  0  0  0  0
 14 17  1  0  0  0  0
 17 18  2  0  0  0  0
 17 19  1  0  0  0  0
 19 20  1  0  0  0  0
 21 22  2  0  0  0  0
 21 23  1  0  0  0  0
 23 24  1  0  0  0  0
 23 25  1  0  0  0  0
 25 26  1  0  0  0  0
 25 27  1  0  0  0  0
 25 28  1  0  0  0  0
M  END
$$$$

  -OEChem-02102214123D

 28 27  0     1  0  0  0  0  0999 V2000
   -2.6133   -4.2260    0.2939 H   0  0  0  0  0  0  0  0  0  0  0  0
   -2.5939   -3.2581   -0.2153 C   0  0  0  0  0  0  0  0  0  0  0  0
   -3.4333   -2.6565    0.1414 H   0  0  0  0  0  0  0  0  0  0  0  0
   -2.7027   -3.4252   -1.2896 H   0  0  0  0  0  0  0  0  0  0  0  0
   -1.2854   -2.5454    0.0691 C   0  0  0  0  0  0  0  0  0  0  0  0
   -0.4513   -3.0687    0.7848 O   0  0  0  0  0  0  0  0  0  0  0  0
   -1.0511   -1.3008   -0.4813 N   0  0  0  0  0  0  0  0  0  0  0  0
   -1.7410   -0.9627   -1.1451 H   0  0  0  0  0  0  0  0  0  0  0  0
    0.2405   -0.5890   -0.4023 C   0  0  1  0  0  0  0  0  0  0  0  0
    1.0087   -1.2340   -0.8443 H   0  0  0  0  0  0  0  0  0  0  0  0
    0.1830    0.7117   -1.2307 C   0  0  0  0  0  0  0  0  0  0  0  0
    1.0665    1.3129   -0.9817 H   0  0  0  0  0  0  0  0  0  0  0  0
    0.2669    0.4612   -2.2934 H   0  0  0  0  0  0  0  0  0  0  0  0
   -1.1043    1.5480   -1.0248 C   0  0  0  0  0  0  0  0  0  0  0  0
   -1.7772    1.4150   -1.8762 H   0  0  0  0  0  0  0  0  0  0  0  0
   -1.6376    1.2218   -0.1290 H   0  0  0  0  0  0  0  0  0  0  0  0
   -0.8018    3.0335   -0.8541 C   0  0  0  0  0  0  0  0  0  0  0  0
   -0.2241    3.6168   -1.7550 O   0  0  0  0  0  0  0  0  0  0  0  0
   -1.1961    3.6297    0.2945 O   0  0  0  0  0  0  0  0  0  0  0  0
   -0.9007    4.5511    0.2290 H   0  0  0  0  0  0  0  0  0  0  0  0
    0.7302   -0.2833    1.0337 C   0  0  0  0  0  0  0  0  0  0  0  0
    1.9320   -0.2418    1.2607 O   0  0  0  0  0  0  0  0  0  0  0  0
   -0.1437    0.2197    1.9803 N   0  0  0  0  0  0  0  0  0  0  0  0
   -1.1325    0.1032    1.7876 H   0  0  0  0  0  0  0  0  0  0  0  0
    0.2727    0.5894    3.3269 C   0  0  0  0  0  0  0  0  0  0  0  0
    1.0434    1.3666    3.2900 H   0  0  0  0  0  0  0  0  0  0  0  0
   -0.5790    0.9772    3.8936 H   0  0  0  0  0  0  0  0  0  0  0  0
    0.6753   -0.2813    3.8550 H   0  0  0  0  0  0  0  0  0  0  0  0
  1  2  1  0  0  0  0
  2  3  1  0  0  0  0
  2  4  1  0  0  0  0
  2  5  1  0  0  0  0
  5  6  2  0  0  0  0
  5  7  1  0  0  0  0
  7  8  1  0  0  0  0
  7  9  1  0  0  0  0
  9 10  1  0  0  0  0
  9 11  1  0  0  0  0
  9 21  1  0  0  0  0
 11 12  1  0  0  0  0
 11 13  1  0  0  0  0
 11 14  1  0  0  0  0
 14 15  1  0  0  0  0
 14 16  1  0  0  0  0
 14 17  1  0  0  0  0
 17 18  2  0  0  0  0
 17 19  1  0  0  0  0
 19 20  1  0  0  0  0
 21 22  2  0  0  0  0
 21 23  1  0  0  0  0
 23 24  1  0  0  0  0
 23 25  1  0  0  0  0
 25 26  1  0  0  0  0
 25 27  1  0  0  0  0
 25 28  1  0  0  0  0
M  END
$$$$

  -OEChem-02102214123D

 28 27  0     1  0  0  0  0  0999 V2000
   -2.6024   -4.2250    0.2990 H   0  0  0  0  0  0  0  0  0  0  0  0
   -2.5905   -3.2519   -0.2004 C   0  0  0  0  0  0  0  0  0  0  0  0
   -3.4226   -2.6529    0.1774 H   0  0  0  0  0  0  0  0  0  0  0  0
   -2.7188   -3.4072   -1.2744 H   0  0  0  0  0  0  0  0  0  0  0  0
   -1.2763   -2.5438    0.0691 C   0  0  0  0  0  0  0  0  0  0  0  0
   -0.4349   -3.0710    0.7731 O   0  0  0  0  0  0  0  0  0  0  0  0
   -1.0496   -1.2939   -0.4722 N   0  0  0  0  0  0  0  0  0  0  0  0
   -1.7478   -0.9509   -1.1244 H   0  0  0  0  0  0  0  0  0  0  0  0
    0.2415   -0.5806   -0.4016 C   0  0  1  0  0  0  0  0  0  0  0  0
    1.0056   -1.2240   -0.8531 H   0  0  0  0  0  0  0  0  0  0  0  0
    0.1741    0.7178   -1.2330 C   0  0  0  0  0  0  0  0  0  0  0  0
    1.0507    1.3270   -0.9794 H   0  0  0  0  0  0  0  0  0  0  0  0
    0.2577    0.4722   -2.2969 H   0  0  0  0  0  0  0  0  0  0  0  0
   -1.1159    1.5445   -1.0169 C   0  0  0  0  0  0  0  0  0  0  0  0
   -1.8988    1.2081   -1.7013 H   0  0  0  0  0  0  0  0  0  0  0  0
   -1.4826    1.4035    0.0026 H   0  0  0  0  0  0  0  0  0  0  0  0
   -0.8944    3.0425   -1.2118 C   0  0  0  0  0  0  0  0  0  0  0  0
   -0.2214    3.4221   -2.1549 O   0  0  0  0  0  0  0  0  0  0  0  0
   -1.4806    3.8798   -0.3259 O   0  0  0  0  0  0  0  0  0  0  0  0
   -1.2266    4.7747   -0.5998 H   0  0  0  0  0  0  0  0  0  0  0  0
    0.7466   -0.2875    1.0319 C   0  0  0  0  0  0  0  0  0  0  0  0
    1.9506   -0.2457    1.2463 O   0  0  0  0  0  0  0  0  0  0  0  0
   -0.1173    0.2045    1.9936 N   0  0  0  0  0  0  0  0  0  0  0  0
   -1.1062    0.0634    1.8176 H   0  0  0  0  0  0  0  0  0  0  0  0
    0.3134    0.5351    3.3463 C   0  0  0  0  0  0  0  0  0  0  0  0
    1.0893    1.3077    3.3239 H   0  0  0  0  0  0  0  0  0  0  0  0
   -0.5306    0.9132    3.9307 H   0  0  0  0  0  0  0  0  0  0  0  0
    0.7142   -0.3523    3.8474 H   0  0  0  0  0  0  0  0  0  0  0  0
  1  2  1  0  0  0  0
  2  3  1  0  0  0  0
  2  4  1  0  0  0  0
  2  5  1  0  0  0  0
  5  6  2  0  0  0  0
  5  7  1  0  0  0  0
  7  8  1  0  0  0  0
  7  9  1  0  0  0  0
  9 10  1  0  0  0  0
  9 11  1  0  0  0  0
  9 21  1  0  0  0  0
 11 12  1  0  0  0  0
 11 13  1  0  0  0  0
 11 14  1  0  0  0  0
 14 15  1  0  0  0  0
 14 16  1  0  0  0  0
 14 17  1  0  0  0  0
 17 18  2  0  0  0  0
 17 19  1  0  0  0  0
 19 20  1  0  0  0  0
 21 22  2  0  0  0  0
 21 23  1  0  0  0  0
 23 24  1  0  0  0  0
 23 25  1  0  0  0  0
 25 26  1  0  0  0  0
 25 27  1  0  0  0  0
 25 28  1  0  0  0  0
M  END
$$$$

  -OEChem-02102214123D

 28 27  0     1  0  0  0  0  0999 V2000
   -2.5865   -4.2399    0.3053 H   0  0  0  0  0  0  0  0  0  0  0  0
   -2.5862   -3.2642   -0.1888 C   0  0  0  0  0  0  0  0  0  0  0  0
   -3.4237   -2.6764    0.1944 H   0  0  0  0  0  0  0  0  0  0  0  0
   -2.7157   -3.4156   -1.2632 H   0  0  0  0  0  0  0  0  0  0  0  0
   -1.2785   -2.5442    0.0812 C   0  0  0  0  0  0  0  0  0  0  0  0
   -0.4304   -3.0674    0.7802 O   0  0  0  0  0  0  0  0  0  0  0  0
   -1.0634   -1.2907   -0.4570 N   0  0  0  0  0  0  0  0  0  0  0  0
   -1.7636   -0.9564   -1.1115 H   0  0  0  0  0  0  0  0  0  0  0  0
    0.2279   -0.5765   -0.4021 C   0  0  1  0  0  0  0  0  0  0  0  0
    0.9849   -1.2200   -0.8652 H   0  0  0  0  0  0  0  0  0  0  0  0
    0.1589    0.7251   -1.2285 C   0  0  0  0  0  0  0  0  0  0  0  0
    1.0391    1.3337   -0.9875 H   0  0  0  0  0  0  0  0  0  0  0  0
    0.2270    0.4734   -2.2922 H   0  0  0  0  0  0  0  0  0  0  0  0
   -1.1232    1.5590   -0.9997 C   0  0  0  0  0  0  0  0  0  0  0  0
   -1.9795    1.0781   -1.4782 H   0  0  0  0  0  0  0  0  0  0  0  0
   -1.3298    1.6254    0.0711 H   0  0  0  0  0  0  0  0  0  0  0  0
   -1.0124    2.9871   -1.5326 C   0  0  0  0  0  0  0  0  0  0  0  0
   -0.2843    3.2188   -2.4830 O   0  0  0  0  0  0  0  0  0  0  0  0
   -1.7644    3.9304   -0.9215 O   0  0  0  0  0  0  0  0  0  0  0  0
   -1.5678    4.7625   -1.3791 H   0  0  0  0  0  0  0  0  0  0  0  0
    0.7514   -0.2930    1.0264 C   0  0  0  0  0  0  0  0  0  0  0  0
    1.9581   -0.2493    1.2248 O   0  0  0  0  0  0  0  0  0  0  0  0
   -0.1010    0.1910    2.0022 N   0  0  0  0  0  0  0  0  0  0  0  0
   -1.0904    0.0355    1.8413 H   0  0  0  0  0  0  0  0  0  0  0  0
    0.3478    0.5022    3.3536 C   0  0  0  0  0  0  0  0  0  0  0  0
    1.1254    1.2730    3.3314 H   0  0  0  0  0  0  0  0  0  0  0  0
   -0.4876    0.8742    3.9541 H   0  0  0  0  0  0  0  0  0  0  0  0
    0.7535   -0.3928    3.8370 H   0  0  0  0  0  0  0  0  0  0  0  0
  1  2  1  0  0  0  0
  2  3  1  0  0  0  0
  2  4  1  0  0  0  0
  2  5  1  0  0  0  0
  5  6  2  0  0  0  0
  5  7  1  0  0  0  0
  7  8  1  0  0  0  0
  7  9  1  0  0  0  0
  9 10  1  0  0  0  0
  9 11  1  0  0  0  0
  9 21  1  0  0  0  0
 11 12  1  0  0  0  0
 11 13  1  0  0  0  0
 11 14  1  0  0  0  0
 14 15  1  0  0  0  0
 14 16  1  0  0  0  0
 14 17  1  0  0  0  0
 17 18  2  0  0  0  0
 17 19  1  0  0  0  0
 19 20  1  0  0  0  0
 21 22  2  0  0  0  0
 21 23  1  0  0  0  0
 23 24  1  0  0  0  0
 23 25  1  0  0  0  0
 25 26  1  0  0  0  0
 25 27  1  0  0  0  0
 25 28  1  0  0  0  0
M  END
$$$$

  -OEChem-02102214123D

 28 27  0     1  0  0  0  0  0999 V2000
   -2.6133   -4.2179    0.2727 H   0  0  0  0  0  0  0  0  0  0  0  0
   -2.6037   -3.2366   -0.2105 C   0  0  0  0  0  0  0  0  0  0  0  0
   -3.4376   -2.6461    0.1765 H   0  0  0  0  0  0  0  0  0  0  0  0
   -2.7310   -3.3743   -1.2869 H   0  0  0  0  0  0  0  0  0  0  0  0
   -1.2912   -2.5299    0.0703 C   0  0  0  0  0  0  0  0  0  0  0  0
   -0.4442   -3.0712    0.7569 O   0  0  0  0  0  0  0  0  0  0  0  0
   -1.0713   -1.2669   -0.4429 N   0  0  0  0  0  0  0  0  0  0  0  0
   -1.7718   -0.9159   -1.0887 H   0  0  0  0  0  0  0  0  0  0  0  0
    0.2250   -0.5638   -0.3821 C   0  0  1  0  0  0  0  0  0  0  0  0
    0.9678   -1.2133   -0.8597 H   0  0  0  0  0  0  0  0  0  0  0  0
    0.1559    0.7309   -1.2159 C   0  0  0  0  0  0  0  0  0  0  0  0
    1.1379    1.2181   -1.1850 H   0  0  0  0  0  0  0  0  0  0  0  0
   -0.0376    0.4599   -2.2595 H   0  0  0  0  0  0  0  0  0  0  0  0
   -0.9202    1.7370   -0.7447 C   0  0  0  0  0  0  0  0  0  0  0  0
   -1.9090    1.2739   -0.7715 H   0  0  0  0  0  0  0  0  0  0  0  0
   -0.7159    2.0341    0.2867 H   0  0  0  0  0  0  0  0  0  0  0  0
   -0.9752    3.0147   -1.5829 C   0  0  0  0  0  0  0  0  0  0  0  0
   -0.4061    3.0626   -2.6607 O   0  0  0  0  0  0  0  0  0  0  0  0
   -1.6938    4.0413   -1.0745 O   0  0  0  0  0  0  0  0  0  0  0  0
   -1.6186    4.7620   -1.7188 H   0  0  0  0  0  0  0  0  0  0  0  0
    0.7708   -0.3089    1.0432 C   0  0  0  0  0  0  0  0  0  0  0  0
    1.9807   -0.2675    1.2219 O   0  0  0  0  0  0  0  0  0  0  0  0
   -0.0640    0.1634    2.0399 N   0  0  0  0  0  0  0  0  0  0  0  0
   -1.0568    0.0157    1.8918 H   0  0  0  0  0  0  0  0  0  0  0  0
    0.4065    0.4606    3.3871 C   0  0  0  0  0  0  0  0  0  0  0  0
    1.1837    1.2318    3.3608 H   0  0  0  0  0  0  0  0  0  0  0  0
   -0.4195    0.8266    4.0043 H   0  0  0  0  0  0  0  0  0  0  0  0
    0.8193   -0.4394    3.8551 H   0  0  0  0  0  0  0  0  0  0  0  0
  1  2  1  0  0  0  0
  2  3  1  0  0  0  0
  2  4  1  0  0  0  0
  2  5  1  0  0  0  0
  5  6  2  0  0  0  0
  5  7  1  0  0  0  0
  7  8  1  0  0  0  0
  7  9  1  0  0  0  0
  9 10  1  0  0  0  0
  9 11  1  0  0  0  0
  9 21  1  0  0  0  0
 11 12  1  0  0  0  0
 11 13  1  0  0  0  0
 11 14  1  0  0  0  0
 14 15  1  0  0  0  0
 14 16  1  0  0  0  0
 14 17  1  0  0  0  0
 17 18  2  0  0  0  0
 17 19  1  0  0  0  0
 19 20  1  0  0  0  0
 21 22  2  0  0  0  0
 21 23  1  0  0  0  0
 23 24  1  0  0  0  0
 23 25  1  0  0  0  0
 25 26  1  0  0  0  0
 25 27  1  0  0  0  0
 25 28  1  0  0  0  0
M  END
$$$$

  -OEChem-02102214123D

 28 27  0     1  0  0  0  0  0999 V2000
   -2.6200   -4.2148    0.2596 H   0  0  0  0  0  0  0  0  0  0  0  0
   -2.6241   -3.2170   -0.1887 C   0  0  0  0  0  0  0  0  0  0  0  0
   -3.4486   -2.6426    0.2402 H   0  0  0  0  0  0  0  0  0  0  0  0
   -2.7786   -3.3175   -1.2657 H   0  0  0  0  0  0  0  0  0  0  0  0
   -1.3057   -2.5180    0.0840 C   0  0  0  0  0  0  0  0  0  0  0  0
   -0.4633   -3.0597    0.7759 O   0  0  0  0  0  0  0  0  0  0  0  0
   -1.0751   -1.2620   -0.4422 N   0  0  0  0  0  0  0  0  0  0  0  0
   -1.7732   -0.9118   -1.0913 H   0  0  0  0  0  0  0  0  0  0  0  0
    0.2298   -0.5724   -0.3939 C   0  0  1  0  0  0  0  0  0  0  0  0
    0.9645   -1.2280   -0.8753 H   0  0  0  0  0  0  0  0  0  0  0  0
    0.1692    0.7295   -1.2174 C   0  0  0  0  0  0  0  0  0  0  0  0
    1.1560    1.2072   -1.2139 H   0  0  0  0  0  0  0  0  0  0  0  0
   -0.0508    0.4542   -2.2546 H   0  0  0  0  0  0  0  0  0  0  0  0
   -0.8890    1.7452   -0.7232 C   0  0  0  0  0  0  0  0  0  0  0  0
   -1.8285    1.2339   -0.5034 H   0  0  0  0  0  0  0  0  0  0  0  0
   -0.5394    2.2100    0.2028 H   0  0  0  0  0  0  0  0  0  0  0  0
   -1.2046    2.8579   -1.7243 C   0  0  0  0  0  0  0  0  0  0  0  0
   -0.5621    2.9556   -2.7563 O   0  0  0  0  0  0  0  0  0  0  0  0
   -2.2221    3.6877   -1.4006 O   0  0  0  0  0  0  0  0  0  0  0  0
   -2.2788    4.3315   -2.1237 H   0  0  0  0  0  0  0  0  0  0  0  0
    0.7811   -0.3128    1.0282 C   0  0  0  0  0  0  0  0  0  0  0  0
    1.9912   -0.2960    1.2095 O   0  0  0  0  0  0  0  0  0  0  0  0
   -0.0484    0.1768    2.0212 N   0  0  0  0  0  0  0  0  0  0  0  0
   -1.0425    0.0418    1.8702 H   0  0  0  0  0  0  0  0  0  0  0  0
    0.4226    0.4460    3.3742 C   0  0  0  0  0  0  0  0  0  0  0  0
    1.2221    1.1945    3.3608 H   0  0  0  0  0  0  0  0  0  0  0  0
   -0.3960    0.8287    3.9912 H   0  0  0  0  0  0  0  0  0  0  0  0
    0.8067   -0.4709    3.8342 H   0  0  0  0  0  0  0  0  0  0  0  0
  1  2  1  0  0  0  0
  2  3  1  0  0  0  0
  2  4  1  0  0  0  0
  2  5  1  0  0  0  0
  5  6  2  0  0  0  0
  5  7  1  0  0  0  0
  7  8  1  0  0  0  0
  7  9  1  0  0  0  0
  9 10  1  0  0  0  0
  9 11  1  0  0  0  0
  9 21  1  0  0  0  0
 11 12  1  0  0  0  0
 11 13  1  0  0  0  0
 11 14  1  0  0  0  0
 14 15  1  0  0  0  0
 14 16  1  0  0  0  0
 14 17  1  0  0  0  0
 17 18  2  0  0  0  0
 17 19  1  0  0  0  0
 19 20  1  0  0  0  0
 21 22  2  0  0  0  0
 21 23  1  0  0  0  0
 23 24  1  0  0  0  0
 23 25  1  0  0  0  0
 25 26  1  0  0  0  0
 25 27  1  0  0  0  0
 25 28  1  0  0  0  0
M  END
$$$$

  -OEChem-02102214123D

 28 27  0     1  0  0  0  0  0999 V2000
   -2.7132   -4.1371    0.3438 H   0  0  0  0  0  0  0  0  0  0  0  0
   -2.6636   -3.1834   -0.1895 C   0  0  0  0  0  0  0  0  0  0  0  0
   -3.4844   -2.5478    0.1511 H   0  0  0  0  0  0  0  0  0  0  0  0
   -2.7775   -3.3732   -1.2595 H   0  0  0  0  0  0  0  0  0  0  0  0
   -1.3331   -2.5056    0.0776 C   0  0  0  0  0  0  0  0  0  0  0  0
   -0.4910   -3.0652    0.7554 O   0  0  0  0  0  0  0  0  0  0  0  0
   -1.0882   -1.2506   -0.4439 N   0  0  0  0  0  0  0  0  0  0  0  0
   -1.7890   -0.8838   -1.0809 H   0  0  0  0  0  0  0  0  0  0  0  0
    0.2261   -0.5784   -0.4000 C   0  0  1  0  0  0  0  0  0  0  0  0
    0.9492   -1.2373   -0.8945 H   0  0  0  0  0  0  0  0  0  0  0  0
    0.1733    0.7354   -1.2037 C   0  0  0  0  0  0  0  0  0  0  0  0
    1.1652    1.2021   -1.2122 H   0  0  0  0  0  0  0  0  0  0  0  0
   -0.0642    0.4711   -2.2400 H   0  0  0  0  0  0  0  0  0  0  0  0
   -0.8663    1.7589   -0.6843 C   0  0  0  0  0  0  0  0  0  0  0  0
   -1.7101    1.2417   -0.2222 H   0  0  0  0  0  0  0  0  0  0  0  0
   -0.4079    2.3849    0.0867 H   0  0  0  0  0  0  0  0  0  0  0  0
   -1.4364    2.6596   -1.7795 C   0  0  0  0  0  0  0  0  0  0  0  0
   -0.7427    2.9577   -2.7367 O   0  0  0  0  0  0  0  0  0  0  0  0
   -2.7147    3.0749   -1.6279 O   0  0  0  0  0  0  0  0  0  0  0  0
   -2.9007    3.6411   -2.3933 H   0  0  0  0  0  0  0  0  0  0  0  0
    0.7924   -0.3307    1.0184 C   0  0  0  0  0  0  0  0  0  0  0  0
    2.0041   -0.3275    1.1891 O   0  0  0  0  0  0  0  0  0  0  0  0
   -0.0225    0.1669    2.0196 N   0  0  0  0  0  0  0  0  0  0  0  0
   -1.0202    0.0518    1.8765 H   0  0  0  0  0  0  0  0  0  0  0  0
    0.4641    0.4472    3.3648 C   0  0  0  0  0  0  0  0  0  0  0  0
    1.2524    1.2070    3.3367 H   0  0  0  0  0  0  0  0  0  0  0  0
   -0.3509    0.8204    3.9922 H   0  0  0  0  0  0  0  0  0  0  0  0
    0.8677   -0.4621    3.8229 H   0  0  0  0  0  0  0  0  0  0  0  0
  1  2  1  0  0  0  0
  2  3  1  0  0  0  0
  2  4  1  0  0  0  0
  2  5  1  0  0  0  0
  5  6  2  0  0  0  0
  5  7  1  0  0  0  0
  7  8  1  0  0  0  0
  7  9  1  0  0  0  0
  9 10  1  0  0  0  0
  9 11  1  0  0  0  0
  9 21  1  0  0  0  0
 11 12  1  0  0  0  0
 11 13  1  0  0  0  0
 11 14  1  0  0  0  0
 14 15  1  0  0  0  0
 14 16  1  0  0  0  0
 14 17  1  0  0  0  0
 17 18  2  0  0  0  0
 17 19  1  0  0  0  0
 19 20  1  0  0  0  0
 21 22  2  0  0  0  0
 21 23  1  0  0  0  0
 23 24  1  0  0  0  0
 23 25  1  0  0  0  0
 25 26  1  0  0  0  0
 25 27  1  0  0  0  0
 25 28  1  0  0  0  0
M  END
$$$$

  -OEChem-02102214123D

 28 27  0     1  0  0  0  0  0999 V2000
   -2.8333   -4.0357    0.3180 H   0  0  0  0  0  0  0  0  0  0  0  0
   -2.7808   -3.0510   -0.1553 C   0  0  0  0  0  0  0  0  0  0  0  0
   -3.5599   -2.4143    0.2706 H   0  0  0  0  0  0  0  0  0  0  0  0
   -2.9587   -3.1663   -1.2273 H   0  0  0  0  0  0  0  0  0  0  0  0
   -1.4159   -2.4321    0.0794 C   0  0  0  0  0  0  0  0  0  0  0  0
   -0.5732   -3.0372    0.7166 O   0  0  0  0  0  0  0  0  0  0  0  0
   -1.1399   -1.1751   -0.4195 N   0  0  0  0  0  0  0  0  0  0  0  0
   -1.8531   -0.7538   -1.0106 H   0  0  0  0  0  0  0  0  0  0  0  0
    0.1945   -0.5444   -0.3942 C   0  0  1  0  0  0  0  0  0  0  0  0
    0.8845   -1.2129   -0.9215 H   0  0  0  0  0  0  0  0  0  0  0  0
    0.1353    0.7752   -1.1836 C   0  0  0  0  0  0  0  0  0  0  0  0
    1.1324    1.2301   -1.2035 H   0  0  0  0  0  0  0  0  0  0  0  0
   -0.1217    0.5322   -2.2205 H   0  0  0  0  0  0  0  0  0  0  0  0
   -0.8752    1.8001   -0.6174 C   0  0  0  0  0  0  0  0  0  0  0  0
   -1.5669    1.3325    0.0866 H   0  0  0  0  0  0  0  0  0  0  0  0
   -0.3356    2.5796   -0.0703 H   0  0  0  0  0  0  0  0  0  0  0  0
   -1.7058    2.4297   -1.7271 C   0  0  0  0  0  0  0  0  0  0  0  0
   -1.4978    3.5878   -2.0401 O   0  0  0  0  0  0  0  0  0  0  0  0
   -2.6485    1.6504   -2.3096 O   0  0  0  0  0  0  0  0  0  0  0  0
   -3.0724    2.2133   -2.9774 H   0  0  0  0  0  0  0  0  0  0  0  0
    0.8131   -0.3398    1.0088 C   0  0  0  0  0  0  0  0  0  0  0  0
    2.0300   -0.3702    1.1353 O   0  0  0  0  0  0  0  0  0  0  0  0
    0.0485    0.1630    2.0460 N   0  0  0  0  0  0  0  0  0  0  0  0
   -0.9555    0.0625    1.9416 H   0  0  0  0  0  0  0  0  0  0  0  0
    0.5913    0.4060    3.3768 C   0  0  0  0  0  0  0  0  0  0  0  0
    1.4173    1.1235    3.3296 H   0  0  0  0  0  0  0  0  0  0  0  0
   -0.1826    0.8164    4.0323 H   0  0  0  0  0  0  0  0  0  0  0  0
    0.9605   -0.5274    3.8147 H   0  0  0  0  0  0  0  0  0  0  0  0
  1  2  1  0  0  0  0
  2  3  1  0  0  0  0
  2  4  1  0  0  0  0
  2  5  1  0  0  0  0
  5  6  2  0  0  0  0
  5  7  1  0  0  0  0
  7  8  1  0  0  0  0
  7  9  1  0  0  0  0
  9 10  1  0  0  0  0
  9 11  1  0  0  0  0
  9 21  1  0  0  0  0
 11 12  1  0  0  0  0
 11 13  1  0  0  0  0
 11 14  1  0  0  0  0
 14 15  1  0  0  0  0
 14 16  1  0  0  0  0
 14 17  1  0  0  0  0
 17 18  2  0  0  0  0
 17 19  1  0  0  0  0
 19 20  1  0  0  0  0
 21 22  2  0  0  0  0
 21 23  1  0  0  0  0
 23 24  1  0  0  0  0
 23 25  1  0  0  0  0
 25 26  1  0  0  0  0
 25 27  1  0  0  0  0
 25 28  1  0  0  0  0
M  END
$$$$

  -OEChem-02102214123D

 28 27  0     1  0  0  0  0  0999 V2000
   -2.5772   -4.2186    0.2350 H   0  0  0  0  0  0  0  0  0  0  0  0
   -2.5758   -3.2335   -0.2403 C   0  0  0  0  0  0  0  0  0  0  0  0
   -3.4006   -2.6445    0.1679 H   0  0  0  0  0  0  0  0  0  0  0  0
   -2.7253   -3.3610   -1.3153 H   0  0  0  0  0  0  0  0  0  0  0  0
   -1.2570   -2.5304    0.0184 C   0  0  0  0  0  0  0  0  0  0  0  0
   -0.3752   -3.0941    0.6413 O   0  0  0  0  0  0  0  0  0  0  0  0
   -1.0685   -1.2425   -0.4380 N   0  0  0  0  0  0  0  0  0  0  0  0
   -1.8154   -0.8450   -1.0078 H   0  0  0  0  0  0  0  0  0  0  0  0
    0.2108   -0.5108   -0.3712 C   0  0  1  0  0  0  0  0  0  0  0  0
    0.9578   -1.1157   -0.8978 H   0  0  0  0  0  0  0  0  0  0  0  0
    0.0523    0.8008   -1.1581 C   0  0  0  0  0  0  0  0  0  0  0  0
    1.0059    1.3402   -1.1270 H   0  0  0  0  0  0  0  0  0  0  0  0
   -0.1359    0.5587   -2.2103 H   0  0  0  0  0  0  0  0  0  0  0  0
   -1.0601    1.7246   -0.6072 C   0  0  0  0  0  0  0  0  0  0  0  0
   -1.5397    1.3043    0.2790 H   0  0  0  0  0  0  0  0  0  0  0  0
   -0.6177    2.6801   -0.3103 H   0  0  0  0  0  0  0  0  0  0  0  0
   -2.1335    1.9840   -1.6551 C   0  0  0  0  0  0  0  0  0  0  0  0
   -2.8124    1.0308   -2.0063 O   0  0  0  0  0  0  0  0  0  0  0  0
   -2.2766    3.2355   -2.1471 O   0  0  0  0  0  0  0  0  0  0  0  0
   -2.9956    3.1935   -2.7960 H   0  0  0  0  0  0  0  0  0  0  0  0
    0.7987   -0.2943    1.0436 C   0  0  0  0  0  0  0  0  0  0  0  0
    2.0131   -0.2199    1.1769 O   0  0  0  0  0  0  0  0  0  0  0  0
   -0.0075    0.1190    2.0891 N   0  0  0  0  0  0  0  0  0  0  0  0
   -0.9981   -0.0721    1.9807 H   0  0  0  0  0  0  0  0  0  0  0  0
    0.5106    0.3717    3.4283 C   0  0  0  0  0  0  0  0  0  0  0  0
    1.2579    1.1719    3.4061 H   0  0  0  0  0  0  0  0  0  0  0  0
   -0.2998    0.6774    4.0969 H   0  0  0  0  0  0  0  0  0  0  0  0
    0.9756   -0.5325    3.8354 H   0  0  0  0  0  0  0  0  0  0  0  0
  1  2  1  0  0  0  0
  2  3  1  0  0  0  0
  2  4  1  0  0  0  0
  2  5  1  0  0  0  0
  5  6  2  0  0  0  0
  5  7  1  0  0  0  0
  7  8  1  0  0  0  0
  7  9  1  0  0  0  0
  9 10  1  0  0  0  0
  9 11  1  0  0  0  0
  9 21  1  0  0  0  0
 11 12  1  0  0  0  0
 11 13  1  0  0  0  0
 11 14  1  0  0  0  0
 14 15  1  0  0  0  0
 14 16  1  0  0  0  0
 14 17  1  0  0  0  0
 17 18  2  0  0  0  0
 17 19  1  0  0  0  0
 19 20  1  0  0  0  0
 21 22  2  0  0  0  0
 21 23  1  0  0  0  0
 23 24  1  0  0  0  0
 23 25  1  0  0  0  0
 25 26  1  0  0  0  0
 25 27  1  0  0  0  0
 25 28  1  0  0  0  0
M  END
$$$$

  -OEChem-02102214123D

 28 27  0     1  0  0  0  0  0999 V2000
   -2.5761   -4.2284    0.2668 H   0  0  0  0  0  0  0  0  0  0  0  0
   -2.5877   -3.2338   -0.1880 C   0  0  0  0  0  0  0  0  0  0  0  0
   -3.3881   -2.6469    0.2689 H   0  0  0  0  0  0  0  0  0  0  0  0
   -2.7866   -3.3375   -1.2574 H   0  0  0  0  0  0  0  0  0  0  0  0
   -1.2528   -2.5458    0.0248 C   0  0  0  0  0  0  0  0  0  0  0  0
   -0.3515   -3.1240    0.6054 O   0  0  0  0  0  0  0  0  0  0  0  0
   -1.0727   -1.2539   -0.4224 N   0  0  0  0  0  0  0  0  0  0  0  0
   -1.8488   -0.8341   -0.9370 H   0  0  0  0  0  0  0  0  0  0  0  0
    0.2016   -0.5157   -0.3709 C   0  0  1  0  0  0  0  0  0  0  0  0
    0.9428   -1.1233   -0.9028 H   0  0  0  0  0  0  0  0  0  0  0  0
    0.0579    0.7999   -1.1614 C   0  0  0  0  0  0  0  0  0  0  0  0
    1.0205    1.3217   -1.1135 H   0  0  0  0  0  0  0  0  0  0  0  0
   -0.1209    0.5694   -2.2175 H   0  0  0  0  0  0  0  0  0  0  0  0
   -1.0394    1.7539   -0.6331 C   0  0  0  0  0  0  0  0  0  0  0  0
   -1.3334    1.5095    0.3886 H   0  0  0  0  0  0  0  0  0  0  0  0
   -0.6369    2.7712   -0.6154 H   0  0  0  0  0  0  0  0  0  0  0  0
   -2.2814    1.7543   -1.5190 C   0  0  0  0  0  0  0  0  0  0  0  0
   -2.8726    0.6969   -1.6799 O   0  0  0  0  0  0  0  0  0  0  0  0
   -2.6641    2.9222   -2.0833 O   0  0  0  0  0  0  0  0  0  0  0  0
   -3.4585    2.7281   -2.6038 H   0  0  0  0  0  0  0  0  0  0  0  0
    0.8023   -0.3122    1.0404 C   0  0  0  0  0  0  0  0  0  0  0  0
    2.0173   -0.2302    1.1634 O   0  0  0  0  0  0  0  0  0  0  0  0
    0.0038    0.0844    2.0982 N   0  0  0  0  0  0  0  0  0  0  0  0
   -0.9875   -0.1071    1.9956 H   0  0  0  0  0  0  0  0  0  0  0  0
    0.5327    0.3305    3.4345 C   0  0  0  0  0  0  0  0  0  0  0  0
    1.2843    1.1267    3.4094 H   0  0  0  0  0  0  0  0  0  0  0  0
   -0.2713    0.6391    4.1094 H   0  0  0  0  0  0  0  0  0  0  0  0
    0.9954   -0.5774    3.8358 H   0  0  0  0  0  0  0  0  0  0  0  0
  1  2  1  0  0  0  0
  2  3  1  0  0  0  0
  2  4  1  0  0  0  0
  2  5  1  0  0  0  0
  5  6  2  0  0  0  0
  5  7  1  0  0  0  0
  7  8  1  0  0  0  0
  7  9  1  0  0  0  0
  9 10  1  0  0  0  0
  9 11  1  0  0  0  0
  9 21  1  0  0  0  0
 11 12  1  0  0  0  0
 11 13  1  0  0  0  0
 11 14  1  0  0  0  0
 14 15  1  0  0  0  0
 14 16  1  0  0  0  0
 14 17  1  0  0  0  0
 17 18  2  0  0  0  0
 17 19  1  0  0  0  0
 19 20  1  0  0  0  0
 21 22  2  0  0  0  0
 21 23  1  0  0  0  0
 23 24  1  0  0  0  0
 23 25  1  0  0  0  0
 25 26  1  0  0  0  0
 25 27  1  0  0  0  0
 25 28  1  0  0  0  0
M  END
$$$$

  -OEChem-02102214123D

 28 27  0     1  0  0  0  0  0999 V2000
   -2.5510   -4.2880    0.2746 H   0  0  0  0  0  0  0  0  0  0  0  0
   -2.5745   -3.2872   -0.1657 C   0  0  0  0  0  0  0  0  0  0  0  0
   -3.4039   -2.7279    0.2735 H   0  0  0  0  0  0  0  0  0  0  0  0
   -2.7371   -3.3802   -1.2423 H   0  0  0  0  0  0  0  0  0  0  0  0
   -1.2652   -2.5689    0.0994 C   0  0  0  0  0  0  0  0  0  0  0  0
   -0.3953   -3.1093    0.7590 O   0  0  0  0  0  0  0  0  0  0  0  0
   -1.0734   -1.2957   -0.3952 N   0  0  0  0  0  0  0  0  0  0  0  0
   -1.8022   -0.9368   -1.0140 H   0  0  0  0  0  0  0  0  0  0  0  0
    0.2073   -0.5696   -0.3638 C   0  0  1  0  0  0  0  0  0  0  0  0
    0.9443   -1.2079   -0.8644 H   0  0  0  0  0  0  0  0  0  0  0  0
    0.1120    0.7294   -1.1959 C   0  0  0  0  0  0  0  0  0  0  0  0
    1.0918    1.2179   -1.1437 H   0  0  0  0  0  0  0  0  0  0  0  0
   -0.0530    0.4725   -2.2478 H   0  0  0  0  0  0  0  0  0  0  0  0
   -0.9570    1.7551   -0.7383 C   0  0  0  0  0  0  0  0  0  0  0  0
   -1.0594    1.7524    0.3477 H   0  0  0  0  0  0  0  0  0  0  0  0
   -0.5980    2.7499   -1.0177 H   0  0  0  0  0  0  0  0  0  0  0  0
   -2.3454    1.6005   -1.3648 C   0  0  0  0  0  0  0  0  0  0  0  0
   -2.6753    0.5404   -1.8748 O   0  0  0  0  0  0  0  0  0  0  0  0
   -3.1598    2.6778   -1.2993 O   0  0  0  0  0  0  0  0  0  0  0  0
   -3.9849    2.4247   -1.7409 H   0  0  0  0  0  0  0  0  0  0  0  0
    0.7922   -0.3270    1.0481 C   0  0  0  0  0  0  0  0  0  0  0  0
    2.0064   -0.2575    1.1875 O   0  0  0  0  0  0  0  0  0  0  0  0
   -0.0194    0.1121    2.0787 N   0  0  0  0  0  0  0  0  0  0  0  0
   -1.0099   -0.0762    1.9633 H   0  0  0  0  0  0  0  0  0  0  0  0
    0.4883    0.3754    3.4196 C   0  0  0  0  0  0  0  0  0  0  0  0
    1.2727    1.1392    3.3912 H   0  0  0  0  0  0  0  0  0  0  0  0
   -0.3178    0.7359    4.0657 H   0  0  0  0  0  0  0  0  0  0  0  0
    0.9037   -0.5387    3.8569 H   0  0  0  0  0  0  0  0  0  0  0  0
  1  2  1  0  0  0  0
  2  3  1  0  0  0  0
  2  4  1  0  0  0  0
  2  5  1  0  0  0  0
  5  6  2  0  0  0  0
  5  7  1  0  0  0  0
  7  8  1  0  0  0  0
  7  9  1  0  0  0  0
  9 10  1  0  0  0  0
  9 11  1  0  0  0  0
  9 21  1  0  0  0  0
 11 12  1  0  0  0  0
 11 13  1  0  0  0  0
 11 14  1  0  0  0  0
 14 15  1  0  0  0  0
 14 16  1  0  0  0  0
 14 17  1  0  0  0  0
 17 18  2  0  0  0  0
 17 19  1  0  0  0  0
 19 20  1  0  0  0  0
 21 22  2  0  0  0  0
 21 23  1  0  0  0  0
 23 24  1  0  0  0  0
 23 25  1  0  0  0  0
 25 26  1  0  0  0  0
 25 27  1  0  0  0  0
 25 28  1  0  0  0  0
M  END
$$$$

  -OEChem-02102214123D

 28 27  0     1  0  0  0  0  0999 V2000
   -2.5571   -4.2924    0.2884 H   0  0  0  0  0  0  0  0  0  0  0  0
   -2.5777   -3.2930   -0.1556 C   0  0  0  0  0  0  0  0  0  0  0  0
   -3.4108   -2.7324    0.2750 H   0  0  0  0  0  0  0  0  0  0  0  0
   -2.7311   -3.3902   -1.2331 H   0  0  0  0  0  0  0  0  0  0  0  0
   -1.2713   -2.5732    0.1193 C   0  0  0  0  0  0  0  0  0  0  0  0
   -0.4192   -3.0996    0.8121 O   0  0  0  0  0  0  0  0  0  0  0  0
   -1.0650   -1.3127   -0.4021 N   0  0  0  0  0  0  0  0  0  0  0  0
   -1.7690   -0.9801   -1.0624 H   0  0  0  0  0  0  0  0  0  0  0  0
    0.2221   -0.5966   -0.3703 C   0  0  1  0  0  0  0  0  0  0  0  0
    0.9612   -1.2480   -0.8508 H   0  0  0  0  0  0  0  0  0  0  0  0
    0.1544    0.6991   -1.2128 C   0  0  0  0  0  0  0  0  0  0  0  0
    1.1419    1.1719   -1.1660 H   0  0  0  0  0  0  0  0  0  0  0  0
   -0.0157    0.4304   -2.2610 H   0  0  0  0  0  0  0  0  0  0  0  0
   -0.8988    1.7524   -0.7814 C   0  0  0  0  0  0  0  0  0  0  0  0
   -0.8205    1.9360    0.2923 H   0  0  0  0  0  0  0  0  0  0  0  0
   -0.6529    2.6942   -1.2797 H   0  0  0  0  0  0  0  0  0  0  0  0
   -2.3601    1.4478   -1.1190 C   0  0  0  0  0  0  0  0  0  0  0  0
   -2.6380    0.5438   -1.8926 O   0  0  0  0  0  0  0  0  0  0  0  0
   -3.2910    2.2198   -0.5143 O   0  0  0  0  0  0  0  0  0  0  0  0
   -4.1518    1.9257   -0.8493 H   0  0  0  0  0  0  0  0  0  0  0  0
    0.7833   -0.3319    1.0468 C   0  0  0  0  0  0  0  0  0  0  0  0
    1.9951   -0.2736    1.2091 O   0  0  0  0  0  0  0  0  0  0  0  0
   -0.0449    0.1343    2.0519 N   0  0  0  0  0  0  0  0  0  0  0  0
   -1.0362   -0.0355    1.9164 H   0  0  0  0  0  0  0  0  0  0  0  0
    0.4370    0.4164    3.3985 C   0  0  0  0  0  0  0  0  0  0  0  0
    1.2269    1.1745    3.3737 H   0  0  0  0  0  0  0  0  0  0  0  0
   -0.3796    0.7925    4.0221 H   0  0  0  0  0  0  0  0  0  0  0  0
    0.8372   -0.4931    3.8592 H   0  0  0  0  0  0  0  0  0  0  0  0
  1  2  1  0  0  0  0
  2  3  1  0  0  0  0
  2  4  1  0  0  0  0
  2  5  1  0  0  0  0
  5  6  2  0  0  0  0
  5  7  1  0  0  0  0
  7  8  1  0  0  0  0
  7  9  1  0  0  0  0
  9 10  1  0  0  0  0
  9 11  1  0  0  0  0
  9 21  1  0  0  0  0
 11 12  1  0  0  0  0
 11 13  1  0  0  0  0
 11 14  1  0  0  0  0
 14 15  1  0  0  0  0
 14 16  1  0  0  0  0
 14 17  1  0  0  0  0
 17 18  2  0  0  0  0
 17 19  1  0  0  0  0
 19 20  1  0  0  0  0
 21 22  2  0  0  0  0
 21 23  1  0  0  0  0
 23 24  1  0  0  0  0
 23 25  1  0  0  0  0
 25 26  1  0  0  0  0
 25 27  1  0  0  0  0
 25 28  1  0  0  0  0
M  END
$$$$

  -OEChem-02102214123D

 28 27  0     1  0  0  0  0  0999 V2000
   -2.5685   -4.2893    0.3138 H   0  0  0  0  0  0  0  0  0  0  0  0
   -2.5805   -3.2966   -0.1451 C   0  0  0  0  0  0  0  0  0  0  0  0
   -3.4073   -2.7219    0.2786 H   0  0  0  0  0  0  0  0  0  0  0  0
   -2.7371   -3.4086   -1.2206 H   0  0  0  0  0  0  0  0  0  0  0  0
   -1.2666   -2.5856    0.1163 C   0  0  0  0  0  0  0  0  0  0  0  0
   -0.4158   -3.1128    0.8099 O   0  0  0  0  0  0  0  0  0  0  0  0
   -1.0515   -1.3335   -0.4221 N   0  0  0  0  0  0  0  0  0  0  0  0
   -1.7581   -0.9993   -1.0787 H   0  0  0  0  0  0  0  0  0  0  0  0
    0.2367   -0.6184   -0.3867 C   0  0  1  0  0  0  0  0  0  0  0  0
    0.9816   -1.2692   -0.8586 H   0  0  0  0  0  0  0  0  0  0  0  0
    0.1806    0.6887   -1.2144 C   0  0  0  0  0  0  0  0  0  0  0  0
    1.1742    1.1502   -1.1856 H   0  0  0  0  0  0  0  0  0  0  0  0
   -0.0143    0.4199   -2.2581 H   0  0  0  0  0  0  0  0  0  0  0  0
   -0.8587    1.7563   -0.7845 C   0  0  0  0  0  0  0  0  0  0  0  0
   -0.6158    2.0991    0.2250 H   0  0  0  0  0  0  0  0  0  0  0  0
   -0.7579    2.6223   -1.4442 H   0  0  0  0  0  0  0  0  0  0  0  0
   -2.3268    1.3347   -0.8069 C   0  0  0  0  0  0  0  0  0  0  0  0
   -2.7268    0.6136   -1.7080 O   0  0  0  0  0  0  0  0  0  0  0  0
   -3.1135    1.7710    0.2032 O   0  0  0  0  0  0  0  0  0  0  0  0
   -4.0086    1.4515    0.0112 H   0  0  0  0  0  0  0  0  0  0  0  0
    0.7736   -0.3368    1.0359 C   0  0  0  0  0  0  0  0  0  0  0  0
    1.9820   -0.2872    1.2237 O   0  0  0  0  0  0  0  0  0  0  0  0
   -0.0741    0.1441    2.0174 N   0  0  0  0  0  0  0  0  0  0  0  0
   -1.0674    0.0203    1.8495 H   0  0  0  0  0  0  0  0  0  0  0  0
    0.3771    0.4654    3.3652 C   0  0  0  0  0  0  0  0  0  0  0  0
    1.1588    1.2319    3.3362 H   0  0  0  0  0  0  0  0  0  0  0  0
   -0.4565    0.8476    3.9619 H   0  0  0  0  0  0  0  0  0  0  0  0
    0.7770   -0.4276    3.8573 H   0  0  0  0  0  0  0  0  0  0  0  0
  1  2  1  0  0  0  0
  2  3  1  0  0  0  0
  2  4  1  0  0  0  0
  2  5  1  0  0  0  0
  5  6  2  0  0  0  0
  5  7  1  0  0  0  0
  7  8  1  0  0  0  0
  7  9  1  0  0  0  0
  9 10  1  0  0  0  0
  9 11  1  0  0  0  0
  9 21  1  0  0  0  0
 11 12  1  0  0  0  0
 11 13  1  0  0  0  0
 11 14  1  0  0  0  0
 14 15  1  0  0  0  0
 14 16  1  0  0  0  0
 14 17  1  0  0  0  0
 17 18  2  0  0  0  0
 17 19  1  0  0  0  0
 19 20  1  0  0  0  0
 21 22  2  0  0  0  0
 21 23  1  0  0  0  0
 23 24  1  0  0  0  0
 23 25  1  0  0  0  0
 25 26  1  0  0  0  0
 25 27  1  0  0  0  0
 25 28  1  0  0  0  0
M  END
$$$$

  -OEChem-02102214123D

 28 27  0     1  0  0  0  0  0999 V2000
   -2.5866   -4.2821    0.3335 H   0  0  0  0  0  0  0  0  0  0  0  0
   -2.5881   -3.2955   -0.1386 C   0  0  0  0  0  0  0  0  0  0  0  0
   -3.3923   -2.6981    0.2967 H   0  0  0  0  0  0  0  0  0  0  0  0
   -2.7720   -3.4175   -1.2088 H   0  0  0  0  0  0  0  0  0  0  0  0
   -1.2540   -2.6091    0.0833 C   0  0  0  0  0  0  0  0  0  0  0  0
   -0.3866   -3.1601    0.7363 O   0  0  0  0  0  0  0  0  0  0  0  0
   -1.0356   -1.3569   -0.4536 N   0  0  0  0  0  0  0  0  0  0  0  0
   -1.7658   -0.9917   -1.0654 H   0  0  0  0  0  0  0  0  0  0  0  0
    0.2493   -0.6352   -0.3983 C   0  0  1  0  0  0  0  0  0  0  0  0
    1.0053   -1.2757   -0.8667 H   0  0  0  0  0  0  0  0  0  0  0  0
    0.1932    0.6881   -1.2006 C   0  0  0  0  0  0  0  0  0  0  0  0
    1.1879    1.1477   -1.1799 H   0  0  0  0  0  0  0  0  0  0  0  0
   -0.0133    0.4261   -2.2436 H   0  0  0  0  0  0  0  0  0  0  0  0
   -0.8469    1.7560   -0.7683 C   0  0  0  0  0  0  0  0  0  0  0  0
   -0.4728    2.2512    0.1330 H   0  0  0  0  0  0  0  0  0  0  0  0
   -0.9128    2.5211   -1.5470 H   0  0  0  0  0  0  0  0  0  0  0  0
   -2.2578    1.2585   -0.4705 C   0  0  0  0  0  0  0  0  0  0  0  0
   -2.8844    0.7201   -1.3689 O   0  0  0  0  0  0  0  0  0  0  0  0
   -2.7183    1.3723    0.7980 O   0  0  0  0  0  0  0  0  0  0  0  0
   -3.6326    1.0477    0.7854 H   0  0  0  0  0  0  0  0  0  0  0  0
    0.7618   -0.3481    1.0329 C   0  0  0  0  0  0  0  0  0  0  0  0
    1.9663   -0.3246    1.2485 O   0  0  0  0  0  0  0  0  0  0  0  0
   -0.0983    0.1326    2.0043 N   0  0  0  0  0  0  0  0  0  0  0  0
   -1.0868    0.1745    1.7706 H   0  0  0  0  0  0  0  0  0  0  0  0
    0.3340    0.5214    3.3398 C   0  0  0  0  0  0  0  0  0  0  0  0
    1.0874    1.3142    3.2843 H   0  0  0  0  0  0  0  0  0  0  0  0
   -0.5162    0.8939    3.9189 H   0  0  0  0  0  0  0  0  0  0  0  0
    0.7635   -0.3374    3.8664 H   0  0  0  0  0  0  0  0  0  0  0  0
  1  2  1  0  0  0  0
  2  3  1  0  0  0  0
  2  4  1  0  0  0  0
  2  5  1  0  0  0  0
  5  6  2  0  0  0  0
  5  7  1  0  0  0  0
  7  8  1  0  0  0  0
  7  9  1  0  0  0  0
  9 10  1  0  0  0  0
  9 11  1  0  0  0  0
  9 21  1  0  0  0  0
 11 12  1  0  0  0  0
 11 13  1  0  0  0  0
 11 14  1  0  0  0  0
 14 15  1  0  0  0  0
 14 16  1  0  0  0  0
 14 17  1  0  0  0  0
 17 18  2  0  0  0  0
 17 19  1  0  0  0  0
 19 20  1  0  0  0  0
 21 22  2  0  0  0  0
 21 23  1  0  0  0  0
 23 24  1  0  0  0  0
 23 25  1  0  0  0  0
 25 26  1  0  0  0  0
 25 27  1  0  0  0  0
 25 28  1  0  0  0  0
M  END
$$$$

  -OEChem-02102214123D

 28 27  0     1  0  0  0  0  0999 V2000
   -2.5401   -4.3364    0.2816 H   0  0  0  0  0  0  0  0  0  0  0  0
   -2.5583   -3.3369   -0.1619 C   0  0  0  0  0  0  0  0  0  0  0  0
   -3.3502   -2.7543    0.3145 H   0  0  0  0  0  0  0  0  0  0  0  0
   -2.7748   -3.4292   -1.2289 H   0  0  0  0  0  0  0  0  0  0  0  0
   -1.2194   -2.6523    0.0363 C   0  0  0  0  0  0  0  0  0  0  0  0
   -0.3213   -3.2253    0.6262 O   0  0  0  0  0  0  0  0  0  0  0  0
   -1.0302   -1.3756   -0.4502 N   0  0  0  0  0  0  0  0  0  0  0  0
   -1.8063   -0.9628   -0.9684 H   0  0  0  0  0  0  0  0  0  0  0  0
    0.2349   -0.6253   -0.3616 C   0  0  1  0  0  0  0  0  0  0  0  0
    0.9998   -1.2494   -0.8386 H   0  0  0  0  0  0  0  0  0  0  0  0
    0.1728    0.6957   -1.1653 C   0  0  0  0  0  0  0  0  0  0  0  0
    1.1606    1.1695   -1.1302 H   0  0  0  0  0  0  0  0  0  0  0  0
   -0.0039    0.4157   -2.2092 H   0  0  0  0  0  0  0  0  0  0  0  0
   -0.8935    1.7639   -0.7922 C   0  0  0  0  0  0  0  0  0  0  0  0
   -0.4456    2.4297   -0.0482 H   0  0  0  0  0  0  0  0  0  0  0  0
   -1.1100    2.3737   -1.6742 H   0  0  0  0  0  0  0  0  0  0  0  0
   -2.2168    1.2768   -0.2056 C   0  0  0  0  0  0  0  0  0  0  0  0
   -2.9834    0.6838   -0.9475 O   0  0  0  0  0  0  0  0  0  0  0  0
   -2.4709    1.4986    1.1054 O   0  0  0  0  0  0  0  0  0  0  0  0
   -3.3773    1.1885    1.2626 H   0  0  0  0  0  0  0  0  0  0  0  0
    0.7686   -0.3613    1.0670 C   0  0  0  0  0  0  0  0  0  0  0  0
    1.9776   -0.3315    1.2555 O   0  0  0  0  0  0  0  0  0  0  0  0
   -0.0669    0.0728    2.0793 N   0  0  0  0  0  0  0  0  0  0  0  0
   -1.0475    0.2050    1.8481 H   0  0  0  0  0  0  0  0  0  0  0  0
    0.4109    0.4874    3.3917 C   0  0  0  0  0  0  0  0  0  0  0  0
    1.0775    1.3514    3.3015 H   0  0  0  0  0  0  0  0  0  0  0  0
   -0.4328    0.7651    4.0307 H   0  0  0  0  0  0  0  0  0  0  0  0
    0.9564   -0.3302    3.8753 H   0  0  0  0  0  0  0  0  0  0  0  0
  1  2  1  0  0  0  0
  2  3  1  0  0  0  0
  2  4  1  0  0  0  0
  2  5  1  0  0  0  0
  5  6  2  0  0  0  0
  5  7  1  0  0  0  0
  7  8  1  0  0  0  0
  7  9  1  0  0  0  0
  9 10  1  0  0  0  0
  9 11  1  0  0  0  0
  9 21  1  0  0  0  0
 11 12  1  0  0  0  0
 11 13  1  0  0  0  0
 11 14  1  0  0  0  0
 14 15  1  0  0  0  0
 14 16  1  0  0  0  0
 14 17  1  0  0  0  0
 17 18  2  0  0  0  0
 17 19  1  0  0  0  0
 19 20  1  0  0  0  0
 21 22  2  0  0  0  0
 21 23  1  0  0  0  0
 23 24  1  0  0  0  0
 23 25  1  0  0  0  0
 25 26  1  0  0  0  0
 25 27  1  0  0  0  0
 25 28  1  0  0  0  0
M  END
$$$$

  -OEChem-02102214123D

 28 27  0     1  0  0  0  0  0999 V2000
   -2.4698   -4.3670    0.2942 H   0  0  0  0  0  0  0  0  0  0  0  0
   -2.5164   -3.3604   -0.1311 C   0  0  0  0  0  0  0  0  0  0  0  0
   -3.2759   -2.7860    0.4045 H   0  0  0  0  0  0  0  0  0  0  0  0
   -2.8015   -3.4352   -1.1833 H   0  0  0  0  0  0  0  0  0  0  0  0
   -1.1674   -2.6785   -0.0079 C   0  0  0  0  0  0  0  0  0  0  0  0
   -0.2253   -3.2712    0.4871 O   0  0  0  0  0  0  0  0  0  0  0  0
   -1.0171   -1.3799   -0.4478 N   0  0  0  0  0  0  0  0  0  0  0  0
   -1.8517   -0.9181   -0.8105 H   0  0  0  0  0  0  0  0  0  0  0  0
    0.2301   -0.6036   -0.3483 C   0  0  1  0  0  0  0  0  0  0  0  0
    0.9988   -1.2127   -0.8388 H   0  0  0  0  0  0  0  0  0  0  0  0
    0.1557    0.7107   -1.1599 C   0  0  0  0  0  0  0  0  0  0  0  0
    1.1381    1.1945   -1.1104 H   0  0  0  0  0  0  0  0  0  0  0  0
    0.0066    0.4169   -2.2045 H   0  0  0  0  0  0  0  0  0  0  0  0
   -0.9257    1.7812   -0.8336 C   0  0  0  0  0  0  0  0  0  0  0  0
   -0.4215    2.6045   -0.3183 H   0  0  0  0  0  0  0  0  0  0  0  0
   -1.3114    2.1888   -1.7726 H   0  0  0  0  0  0  0  0  0  0  0  0
   -2.1183    1.3922    0.0382 C   0  0  0  0  0  0  0  0  0  0  0  0
   -2.9717    0.6690   -0.4507 O   0  0  0  0  0  0  0  0  0  0  0  0
   -2.1959    1.8911    1.2933 O   0  0  0  0  0  0  0  0  0  0  0  0
   -3.0614    1.6268    1.6426 H   0  0  0  0  0  0  0  0  0  0  0  0
    0.7867   -0.3758    1.0774 C   0  0  0  0  0  0  0  0  0  0  0  0
    1.9978   -0.3051    1.2385 O   0  0  0  0  0  0  0  0  0  0  0  0
   -0.0360    0.0009    2.1217 N   0  0  0  0  0  0  0  0  0  0  0  0
   -1.0316    0.0478    1.9352 H   0  0  0  0  0  0  0  0  0  0  0  0
    0.4581    0.3861    3.4374 C   0  0  0  0  0  0  0  0  0  0  0  0
    1.1073    1.2647    3.3613 H   0  0  0  0  0  0  0  0  0  0  0  0
   -0.3783    0.6303    4.0993 H   0  0  0  0  0  0  0  0  0  0  0  0
    1.0271   -0.4347    3.8868 H   0  0  0  0  0  0  0  0  0  0  0  0
  1  2  1  0  0  0  0
  2  3  1  0  0  0  0
  2  4  1  0  0  0  0
  2  5  1  0  0  0  0
  5  6  2  0  0  0  0
  5  7  1  0  0  0  0
  7  8  1  0  0  0  0
  7  9  1  0  0  0  0
  9 10  1  0  0  0  0
  9 11  1  0  0  0  0
  9 21  1  0  0  0  0
 11 12  1  0  0  0  0
 11 13  1  0  0  0  0
 11 14  1  0  0  0  0
 14 15  1  0  0  0  0
 14 16  1  0  0  0  0
 14 17  1  0  0  0  0
 17 18  2  0  0  0  0
 17 19  1  0  0  0  0
 19 20  1  0  0  0  0
 21 22  2  0  0  0  0
 21 23  1  0  0  0  0
 23 24  1  0  0  0  0
 23 25  1  0  0  0  0
 25 26  1  0  0  0  0
 25 27  1  0  0  0  0
 25 28  1  0  0  0  0
M  END
$$$$

  -OEChem-02102214123D

 28 27  0     1  0  0  0  0  0999 V2000
   -1.6810   -4.3447    1.0879 H   0  0  0  0  0  0  0  0  0  0  0  0
   -1.8998   -3.4209    0.5448 C   0  0  0  0  0  0  0  0  0  0  0  0
   -2.6726   -2.8686    1.0849 H   0  0  0  0  0  0  0  0  0  0  0  0
   -2.2731   -3.6769   -0.4498 H   0  0  0  0  0  0  0  0  0  0  0  0
   -0.6462   -2.5758    0.4230 C   0  0  0  0  0  0  0  0  0  0  0  0
    0.4079   -2.9715    0.8904 O   0  0  0  0  0  0  0  0  0  0  0  0
   -0.7153   -1.3356   -0.1753 N   0  0  0  0  0  0  0  0  0  0  0  0
   -1.6492   -0.9905   -0.3990 H   0  0  0  0  0  0  0  0  0  0  0  0
    0.4028   -0.3806   -0.2391 C   0  0  1  0  0  0  0  0  0  0  0  0
    1.2329   -0.9552   -0.6663 H   0  0  0  0  0  0  0  0  0  0  0  0
    0.1420    0.7446   -1.2699 C   0  0  0  0  0  0  0  0  0  0  0  0
    1.0421    1.3691   -1.3068 H   0  0  0  0  0  0  0  0  0  0  0  0
    0.0628    0.2624   -2.2499 H   0  0  0  0  0  0  0  0  0  0  0  0
   -1.0806    1.6927   -1.1281 C   0  0  0  0  0  0  0  0  0  0  0  0
   -0.7034    2.7182   -1.0731 H   0  0  0  0  0  0  0  0  0  0  0  0
   -1.6769    1.6279   -2.0428 H   0  0  0  0  0  0  0  0  0  0  0  0
   -2.0302    1.4999    0.0485 C   0  0  0  0  0  0  0  0  0  0  0  0
   -2.8182    0.5661    0.0104 O   0  0  0  0  0  0  0  0  0  0  0  0
   -2.0001    2.4155    1.0440 O   0  0  0  0  0  0  0  0  0  0  0  0
   -2.6818    2.1554    1.6801 H   0  0  0  0  0  0  0  0  0  0  0  0
    1.0061    0.1304    1.0984 C   0  0  0  0  0  0  0  0  0  0  0  0
    2.1291    0.6094    1.0822 O   0  0  0  0  0  0  0  0  0  0  0  0
    0.3082    0.5528    2.2084 N   0  0  0  0  0  0  0  0  0  0  0  0
    0.9237    1.0501    2.8473 H   0  0  0  0  0  0  0  0  0  0  0  0
   -0.7462   -0.2427    2.8204 C   0  0  0  0  0  0  0  0  0  0  0  0
   -0.3735   -1.2418    3.0703 H   0  0  0  0  0  0  0  0  0  0  0  0
   -1.0835    0.2382    3.7437 H   0  0  0  0  0  0  0  0  0  0  0  0
   -1.6091   -0.3431    2.1597 H   0  0  0  0  0  0  0  0  0  0  0  0
  1  2  1  0  0  0  0
  2  3  1  0  0  0  0
  2  4  1  0  0  0  0
  2  5  1  0  0  0  0
  5  6  2  0  0  0  0
  5  7  1  0  0  0  0
  7  8  1  0  0  0  0
  7  9  1  0  0  0  0
  9 10  1  0  0  0  0
  9 11  1  0  0  0  0
  9 21  1  0  0  0  0
 11 12  1  0  0  0  0
 11 13  1  0  0  0  0
 11 14  1  0  0  0  0
 14 15  1  0  0  0  0
 14 16  1  0  0  0  0
 14 17  1  0  0  0  0
 17 18  2  0  0  0  0
 17 19  1  0  0  0  0
 19 20  1  0  0  0  0
 21 22  2  0  0  0  0
 21 23  1  0  0  0  0
 23 24  1  0  0  0  0
 23 25  1  0  0  0  0
 25 26  1  0  0  0  0
 25 27  1  0  0  0  0
 25 28  1  0  0  0  0
M  END
$$$$

  -OEChem-02102214123D

 28 27  0     1  0  0  0  0  0999 V2000
   -2.7222   -4.1737    0.3211 H   0  0  0  0  0  0  0  0  0  0  0  0
   -2.6349   -3.1787   -0.1245 C   0  0  0  0  0  0  0  0  0  0  0  0
   -3.3392   -2.5069    0.3721 H   0  0  0  0  0  0  0  0  0  0  0  0
   -2.8900   -3.2441   -1.1849 H   0  0  0  0  0  0  0  0  0  0  0  0
   -1.2196   -2.6576    0.0353 C   0  0  0  0  0  0  0  0  0  0  0  0
   -0.3767   -3.3385    0.5923 O   0  0  0  0  0  0  0  0  0  0  0  0
   -0.9021   -1.3972   -0.4269 N   0  0  0  0  0  0  0  0  0  0  0  0
   -1.6909   -0.8180   -0.7117 H   0  0  0  0  0  0  0  0  0  0  0  0
    0.3662   -0.7115   -0.1288 C   0  0  1  0  0  0  0  0  0  0  0  0
    1.1560   -1.4152   -0.4186 H   0  0  0  0  0  0  0  0  0  0  0  0
    0.5661    0.5081   -1.0578 C   0  0  0  0  0  0  0  0  0  0  0  0
    1.5417    0.9354   -0.7986 H   0  0  0  0  0  0  0  0  0  0  0  0
    0.6540    0.1332   -2.0831 H   0  0  0  0  0  0  0  0  0  0  0  0
   -0.4574    1.6789   -1.0715 C   0  0  0  0  0  0  0  0  0  0  0  0
    0.1008    2.6184   -1.1258 H   0  0  0  0  0  0  0  0  0  0  0  0
   -1.0377    1.6055   -1.9956 H   0  0  0  0  0  0  0  0  0  0  0  0
   -1.4680    1.7983    0.0651 C   0  0  0  0  0  0  0  0  0  0  0  0
   -2.3687    0.9756    0.1459 O   0  0  0  0  0  0  0  0  0  0  0  0
   -1.3275    2.8403    0.9163 O   0  0  0  0  0  0  0  0  0  0  0  0
   -2.0511    2.7803    1.5574 H   0  0  0  0  0  0  0  0  0  0  0  0
    0.6565   -0.4590    1.3703 C   0  0  0  0  0  0  0  0  0  0  0  0
    1.8160   -0.4405    1.7605 O   0  0  0  0  0  0  0  0  0  0  0  0
   -0.3260    0.0245    2.2139 N   0  0  0  0  0  0  0  0  0  0  0  0
   -1.2820   -0.0297    1.8715 H   0  0  0  0  0  0  0  0  0  0  0  0
   -0.0884    0.3508    3.6141 C   0  0  0  0  0  0  0  0  0  0  0  0
    0.6264    1.1763    3.6982 H   0  0  0  0  0  0  0  0  0  0  0  0
   -1.0228    0.6519    4.0969 H   0  0  0  0  0  0  0  0  0  0  0  0
    0.3129   -0.5181    4.1465 H   0  0  0  0  0  0  0  0  0  0  0  0
  1  2  1  0  0  0  0
  2  3  1  0  0  0  0
  2  4  1  0  0  0  0
  2  5  1  0  0  0  0
  5  6  2  0  0  0  0
  5  7  1  0  0  0  0
  7  8  1  0  0  0  0
  7  9  1  0  0  0  0
  9 10  1  0  0  0  0
  9 11  1  0  0  0  0
  9 21  1  0  0  0  0
 11 12  1  0  0  0  0
 11 13  1  0  0  0  0
 11 14  1  0  0  0  0
 14 15  1  0  0  0  0
 14 16  1  0  0  0  0
 14 17  1  0  0  0  0
 17 18  2  0  0  0  0
 17 19  1  0  0  0  0
 19 20  1  0  0  0  0
 21 22  2  0  0  0  0
 21 23  1  0  0  0  0
 23 24  1  0  0  0  0
 23 25  1  0  0  0  0
 25 26  1  0  0  0  0
 25 27  1  0  0  0  0
 25 28  1  0  0  0  0
M  END
$$$$

  -OEChem-02102214123D

 28 27  0     1  0  0  0  0  0999 V2000
   -2.5493   -4.1925    0.3557 H   0  0  0  0  0  0  0  0  0  0  0  0
   -2.5862   -3.1659   -0.0197 C   0  0  0  0  0  0  0  0  0  0  0  0
   -3.2503   -2.5811    0.6210 H   0  0  0  0  0  0  0  0  0  0  0  0
   -2.9870   -3.1773   -1.0361 H   0  0  0  0  0  0  0  0  0  0  0  0
   -1.1958   -2.5600   -0.0190 C   0  0  0  0  0  0  0  0  0  0  0  0
   -0.2418   -3.2246    0.3435 O   0  0  0  0  0  0  0  0  0  0  0  0
   -1.0221   -1.2472   -0.4071 N   0  0  0  0  0  0  0  0  0  0  0  0
   -1.8679   -0.7046   -0.5628 H   0  0  0  0  0  0  0  0  0  0  0  0
    0.2544   -0.5200   -0.3051 C   0  0  1  0  0  0  0  0  0  0  0  0
    0.9877   -1.1673   -0.8016 H   0  0  0  0  0  0  0  0  0  0  0  0
    0.2236    0.7487   -1.1854 C   0  0  0  0  0  0  0  0  0  0  0  0
    1.2060    1.2231   -1.0791 H   0  0  0  0  0  0  0  0  0  0  0  0
    0.1369    0.4381   -2.2320 H   0  0  0  0  0  0  0  0  0  0  0  0
   -0.8446    1.8395   -0.9210 C   0  0  0  0  0  0  0  0  0  0  0  0
   -0.4549    2.7982   -1.2773 H   0  0  0  0  0  0  0  0  0  0  0  0
   -1.7186    1.6065   -1.5354 H   0  0  0  0  0  0  0  0  0  0  0  0
   -1.3541    2.0254    0.5024 C   0  0  0  0  0  0  0  0  0  0  0  0
   -0.9106    2.9459    1.1635 O   0  0  0  0  0  0  0  0  0  0  0  0
   -2.3371    1.1980    0.9391 O   0  0  0  0  0  0  0  0  0  0  0  0
   -2.6020    1.5598    1.8014 H   0  0  0  0  0  0  0  0  0  0  0  0
    0.8629   -0.3716    1.1108 C   0  0  0  0  0  0  0  0  0  0  0  0
    2.0792   -0.3331    1.2359 O   0  0  0  0  0  0  0  0  0  0  0  0
    0.0811   -0.0143    2.1917 N   0  0  0  0  0  0  0  0  0  0  0  0
   -0.9237   -0.0669    2.0600 H   0  0  0  0  0  0  0  0  0  0  0  0
    0.6163    0.2624    3.5186 C   0  0  0  0  0  0  0  0  0  0  0  0
    1.3476    1.0765    3.4747 H   0  0  0  0  0  0  0  0  0  0  0  0
   -0.1882    0.5608    4.1970 H   0  0  0  0  0  0  0  0  0  0  0  0
    1.1043   -0.6289    3.9272 H   0  0  0  0  0  0  0  0  0  0  0  0
  1  2  1  0  0  0  0
  2  3  1  0  0  0  0
  2  4  1  0  0  0  0
  2  5  1  0  0  0  0
  5  6  2  0  0  0  0
  5  7  1  0  0  0  0
  7  8  1  0  0  0  0
  7  9  1  0  0  0  0
  9 10  1  0  0  0  0
  9 11  1  0  0  0  0
  9 21  1  0  0  0  0
 11 12  1  0  0  0  0
 11 13  1  0  0  0  0
 11 14  1  0  0  0  0
 14 15  1  0  0  0  0
 14 16  1  0  0  0  0
 14 17  1  0  0  0  0
 17 18  2  0  0  0  0
 17 19  1  0  0  0  0
 19 20  1  0  0  0  0
 21 22  2  0  0  0  0
 21 23  1  0  0  0  0
 23 24  1  0  0  0  0
 23 25  1  0  0  0  0
 25 26  1  0  0  0  0
 25 27  1  0  0  0  0
 25 28  1  0  0  0  0
M  END
$$$$

  -OEChem-02102214123D

 28 27  0     1  0  0  0  0  0999 V2000
   -2.8750   -4.0230    0.1810 H   0  0  0  0  0  0  0  0  0  0  0  0
   -2.8113   -2.9952   -0.1879 C   0  0  0  0  0  0  0  0  0  0  0  0
   -3.4899   -2.3696    0.3968 H   0  0  0  0  0  0  0  0  0  0  0  0
   -3.1204   -2.9784   -1.2357 H   0  0  0  0  0  0  0  0  0  0  0  0
   -1.3896   -2.4822   -0.0594 C   0  0  0  0  0  0  0  0  0  0  0  0
   -0.5171   -3.2107    0.3773 O   0  0  0  0  0  0  0  0  0  0  0  0
   -1.0929   -1.1849   -0.4263 N   0  0  0  0  0  0  0  0  0  0  0  0
   -1.8686   -0.6017   -0.7254 H   0  0  0  0  0  0  0  0  0  0  0  0
    0.2382   -0.5684   -0.2902 C   0  0  1  0  0  0  0  0  0  0  0  0
    0.9256   -1.2702   -0.7780 H   0  0  0  0  0  0  0  0  0  0  0  0
    0.3288    0.7056   -1.1601 C   0  0  0  0  0  0  0  0  0  0  0  0
    1.3436    1.1023   -1.0391 H   0  0  0  0  0  0  0  0  0  0  0  0
    0.2265    0.4116   -2.2100 H   0  0  0  0  0  0  0  0  0  0  0  0
   -0.6595    1.8649   -0.8905 C   0  0  0  0  0  0  0  0  0  0  0  0
   -0.3150    2.7480   -1.4374 H   0  0  0  0  0  0  0  0  0  0  0  0
   -1.6321    1.5921   -1.3084 H   0  0  0  0  0  0  0  0  0  0  0  0
   -0.8861    2.2662    0.5600 C   0  0  0  0  0  0  0  0  0  0  0  0
   -0.1138    3.0545    1.0732 O   0  0  0  0  0  0  0  0  0  0  0  0
   -1.9721    1.7601    1.1948 O   0  0  0  0  0  0  0  0  0  0  0  0
   -1.9789    2.1962    2.0630 H   0  0  0  0  0  0  0  0  0  0  0  0
    0.8228   -0.4893    1.1414 C   0  0  0  0  0  0  0  0  0  0  0  0
    2.0339   -0.5695    1.2943 O   0  0  0  0  0  0  0  0  0  0  0  0
    0.0518   -0.0812    2.2125 N   0  0  0  0  0  0  0  0  0  0  0  0
   -0.9469    0.0070    2.0492 H   0  0  0  0  0  0  0  0  0  0  0  0
    0.5845    0.1410    3.5505 C   0  0  0  0  0  0  0  0  0  0  0  0
    1.3135    0.9582    3.5405 H   0  0  0  0  0  0  0  0  0  0  0  0
   -0.2220    0.4049    4.2408 H   0  0  0  0  0  0  0  0  0  0  0  0
    1.0753   -0.7647    3.9222 H   0  0  0  0  0  0  0  0  0  0  0  0
  1  2  1  0  0  0  0
  2  3  1  0  0  0  0
  2  4  1  0  0  0  0
  2  5  1  0  0  0  0
  5  6  2  0  0  0  0
  5  7  1  0  0  0  0
  7  8  1  0  0  0  0
  7  9  1  0  0  0  0
  9 10  1  0  0  0  0
  9 11  1  0  0  0  0
  9 21  1  0  0  0  0
 11 12  1  0  0  0  0
 11 13  1  0  0  0  0
 11 14  1  0  0  0  0
 14 15  1  0  0  0  0
 14 16  1  0  0  0  0
 14 17  1  0  0  0  0
 17 18  2  0  0  0  0
 17 19  1  0  0  0  0
 19 20  1  0  0  0  0
 21 22  2  0  0  0  0
 21 23  1  0  0  0  0
 23 24  1  0  0  0  0
 23 25  1  0  0  0  0
 25 26  1  0  0  0  0
 25 27  1  0  0  0  0
 25 28  1  0  0  0  0
M  END
$$$$

  -OEChem-02102214123D

 28 27  0     1  0  0  0  0  0999 V2000
   -2.7764   -4.0920    0.2304 H   0  0  0  0  0  0  0  0  0  0  0  0
   -2.7336   -3.0750   -0.1701 C   0  0  0  0  0  0  0  0  0  0  0  0
   -3.4712   -2.4608    0.3516 H   0  0  0  0  0  0  0  0  0  0  0  0
   -2.9798   -3.1061   -1.2341 H   0  0  0  0  0  0  0  0  0  0  0  0
   -1.3447   -2.4969    0.0241 C   0  0  0  0  0  0  0  0  0  0  0  0
   -0.4795   -3.1622    0.5630 O   0  0  0  0  0  0  0  0  0  0  0  0
   -1.0700   -1.2143   -0.4073 N   0  0  0  0  0  0  0  0  0  0  0  0
   -1.8235   -0.7109   -0.8646 H   0  0  0  0  0  0  0  0  0  0  0  0
    0.2499   -0.5660   -0.3020 C   0  0  1  0  0  0  0  0  0  0  0  0
    0.9573   -1.2624   -0.7686 H   0  0  0  0  0  0  0  0  0  0  0  0
    0.2900    0.6922   -1.1995 C   0  0  0  0  0  0  0  0  0  0  0  0
    1.2967    1.1209   -1.1276 H   0  0  0  0  0  0  0  0  0  0  0  0
    0.1557    0.3700   -2.2371 H   0  0  0  0  0  0  0  0  0  0  0  0
   -0.7332    1.8157   -0.9131 C   0  0  0  0  0  0  0  0  0  0  0  0
   -0.5855    2.6148   -1.6453 H   0  0  0  0  0  0  0  0  0  0  0  0
   -1.7436    1.4277   -1.0634 H   0  0  0  0  0  0  0  0  0  0  0  0
   -0.6649    2.4440    0.4722 C   0  0  0  0  0  0  0  0  0  0  0  0
    0.3144    3.1051    0.7640 O   0  0  0  0  0  0  0  0  0  0  0  0
   -1.7175    2.2551    1.3035 O   0  0  0  0  0  0  0  0  0  0  0  0
   -1.4979    2.7563    2.1055 H   0  0  0  0  0  0  0  0  0  0  0  0
    0.8164   -0.4117    1.1308 C   0  0  0  0  0  0  0  0  0  0  0  0
    2.0248   -0.4886    1.3053 O   0  0  0  0  0  0  0  0  0  0  0  0
    0.0256    0.0314    2.1745 N   0  0  0  0  0  0  0  0  0  0  0  0
   -0.9714    0.1093    1.9968 H   0  0  0  0  0  0  0  0  0  0  0  0
    0.5350    0.2752    3.5178 C   0  0  0  0  0  0  0  0  0  0  0  0
    1.2978    1.0609    3.5008 H   0  0  0  0  0  0  0  0  0  0  0  0
   -0.2762    0.5943    4.1788 H   0  0  0  0  0  0  0  0  0  0  0  0
    0.9786   -0.6375    3.9296 H   0  0  0  0  0  0  0  0  0  0  0  0
  1  2  1  0  0  0  0
  2  3  1  0  0  0  0
  2  4  1  0  0  0  0
  2  5  1  0  0  0  0
  5  6  2  0  0  0  0
  5  7  1  0  0  0  0
  7  8  1  0  0  0  0
  7  9  1  0  0  0  0
  9 10  1  0  0  0  0
  9 11  1  0  0  0  0
  9 21  1  0  0  0  0
 11 12  1  0  0  0  0
 11 13  1  0  0  0  0
 11 14  1  0  0  0  0
 14 15  1  0  0  0  0
 14 16  1  0  0  0  0
 14 17  1  0  0  0  0
 17 18  2  0  0  0  0
 17 19  1  0  0  0  0
 19 20  1  0  0  0  0
 21 22  2  0  0  0  0
 21 23  1  0  0  0  0
 23 24  1  0  0  0  0
 23 25  1  0  0  0  0
 25 26  1  0  0  0  0
 25 27  1  0  0  0  0
 25 28  1  0  0  0  0
M  END
$$$$

  -OEChem-02102214123D

 28 27  0     1  0  0  0  0  0999 V2000
   -2.7481   -4.1068    0.2512 H   0  0  0  0  0  0  0  0  0  0  0  0
   -2.7049   -3.1023   -0.1794 C   0  0  0  0  0  0  0  0  0  0  0  0
   -3.4729   -2.4846    0.2920 H   0  0  0  0  0  0  0  0  0  0  0  0
   -2.9068   -3.1710   -1.2510 H   0  0  0  0  0  0  0  0  0  0  0  0
   -1.3350   -2.4941    0.0530 C   0  0  0  0  0  0  0  0  0  0  0  0
   -0.4881   -3.1203    0.6631 O   0  0  0  0  0  0  0  0  0  0  0  0
   -1.0579   -1.2290   -0.4263 N   0  0  0  0  0  0  0  0  0  0  0  0
   -1.7789   -0.7835   -0.9851 H   0  0  0  0  0  0  0  0  0  0  0  0
    0.2613   -0.5759   -0.3305 C   0  0  1  0  0  0  0  0  0  0  0  0
    0.9816   -1.2672   -0.7839 H   0  0  0  0  0  0  0  0  0  0  0  0
    0.2792    0.6887   -1.2177 C   0  0  0  0  0  0  0  0  0  0  0  0
    1.2845    1.1251   -1.1832 H   0  0  0  0  0  0  0  0  0  0  0  0
    0.1092    0.3703   -2.2513 H   0  0  0  0  0  0  0  0  0  0  0  0
   -0.7602    1.7839   -0.8794 C   0  0  0  0  0  0  0  0  0  0  0  0
   -0.8178    2.4790   -1.7219 H   0  0  0  0  0  0  0  0  0  0  0  0
   -1.7507    1.3379   -0.7638 H   0  0  0  0  0  0  0  0  0  0  0  0
   -0.4434    2.6118    0.3621 C   0  0  0  0  0  0  0  0  0  0  0  0
    0.6271    3.1881    0.4271 O   0  0  0  0  0  0  0  0  0  0  0  0
   -1.3919    2.6820    1.3254 O   0  0  0  0  0  0  0  0  0  0  0  0
   -1.0122    3.2500    2.0146 H   0  0  0  0  0  0  0  0  0  0  0  0
    0.8000   -0.3701    1.1055 C   0  0  0  0  0  0  0  0  0  0  0  0
    2.0030   -0.4520    1.3117 O   0  0  0  0  0  0  0  0  0  0  0  0
   -0.0146    0.1114    2.1135 N   0  0  0  0  0  0  0  0  0  0  0  0
   -1.0079    0.1752    1.9139 H   0  0  0  0  0  0  0  0  0  0  0  0
    0.4586    0.3695    3.4671 C   0  0  0  0  0  0  0  0  0  0  0  0
    1.2525    1.1239    3.4578 H   0  0  0  0  0  0  0  0  0  0  0  0
   -0.3611    0.7378    4.0910 H   0  0  0  0  0  0  0  0  0  0  0  0
    0.8512   -0.5491    3.9158 H   0  0  0  0  0  0  0  0  0  0  0  0
  1  2  1  0  0  0  0
  2  3  1  0  0  0  0
  2  4  1  0  0  0  0
  2  5  1  0  0  0  0
  5  6  2  0  0  0  0
  5  7  1  0  0  0  0
  7  8  1  0  0  0  0
  7  9  1  0  0  0  0
  9 10  1  0  0  0  0
  9 11  1  0  0  0  0
  9 21  1  0  0  0  0
 11 12  1  0  0  0  0
 11 13  1  0  0  0  0
 11 14  1  0  0  0  0
 14 15  1  0  0  0  0
 14 16  1  0  0  0  0
 14 17  1  0  0  0  0
 17 18  2  0  0  0  0
 17 19  1  0  0  0  0
 19 20  1  0  0  0  0
 21 22  2  0  0  0  0
 21 23  1  0  0  0  0
 23 24  1  0  0  0  0
 23 25  1  0  0  0  0
 25 26  1  0  0  0  0
 25 27  1  0  0  0  0
 25 28  1  0  0  0  0
M  END
$$$$

  -OEChem-02102214123D

 28 27  0     1  0  0  0  0  0999 V2000
   -2.7209   -4.1290    0.2651 H   0  0  0  0  0  0  0  0  0  0  0  0
   -2.6816   -3.1343   -0.1882 C   0  0  0  0  0  0  0  0  0  0  0  0
   -3.4705   -2.5178    0.2491 H   0  0  0  0  0  0  0  0  0  0  0  0
   -2.8558   -3.2316   -1.2625 H   0  0  0  0  0  0  0  0  0  0  0  0
   -1.3266   -2.5005    0.0638 C   0  0  0  0  0  0  0  0  0  0  0  0
   -0.4920   -3.0940    0.7216 O   0  0  0  0  0  0  0  0  0  0  0  0
   -1.0491   -1.2495   -0.4516 N   0  0  0  0  0  0  0  0  0  0  0  0
   -1.7507   -0.8430   -1.0625 H   0  0  0  0  0  0  0  0  0  0  0  0
    0.2670   -0.5878   -0.3593 C   0  0  1  0  0  0  0  0  0  0  0  0
    0.9999   -1.2717   -0.8033 H   0  0  0  0  0  0  0  0  0  0  0  0
    0.2688    0.6880   -1.2272 C   0  0  0  0  0  0  0  0  0  0  0  0
    1.2729    1.1286   -1.2138 H   0  0  0  0  0  0  0  0  0  0  0  0
    0.0763    0.3828   -2.2608 H   0  0  0  0  0  0  0  0  0  0  0  0
   -0.7847    1.7551   -0.8390 C   0  0  0  0  0  0  0  0  0  0  0  0
   -1.0579    2.3164   -1.7369 H   0  0  0  0  0  0  0  0  0  0  0  0
   -1.6964    1.2826   -0.4662 H   0  0  0  0  0  0  0  0  0  0  0  0
   -0.2942    2.7750    0.1870 C   0  0  0  0  0  0  0  0  0  0  0  0
    0.7468    3.3718   -0.0229 O   0  0  0  0  0  0  0  0  0  0  0  0
   -1.0726    2.9878    1.2732 O   0  0  0  0  0  0  0  0  0  0  0  0
   -0.6013    3.6524    1.7999 H   0  0  0  0  0  0  0  0  0  0  0  0
    0.7830   -0.3369    1.0772 C   0  0  0  0  0  0  0  0  0  0  0  0
    1.9845   -0.3875    1.3017 O   0  0  0  0  0  0  0  0  0  0  0  0
   -0.0544    0.1722    2.0525 N   0  0  0  0  0  0  0  0  0  0  0  0
   -1.0465    0.1958    1.8414 H   0  0  0  0  0  0  0  0  0  0  0  0
    0.3900    0.4727    3.4070 C   0  0  0  0  0  0  0  0  0  0  0  0
    1.1930    1.2172    3.3906 H   0  0  0  0  0  0  0  0  0  0  0  0
   -0.4392    0.8729    3.9979 H   0  0  0  0  0  0  0  0  0  0  0  0
    0.7602   -0.4341    3.8969 H   0  0  0  0  0  0  0  0  0  0  0  0
  1  2  1  0  0  0  0
  2  3  1  0  0  0  0
  2  4  1  0  0  0  0
  2  5  1  0  0  0  0
  5  6  2  0  0  0  0
  5  7  1  0  0  0  0
  7  8  1  0  0  0  0
  7  9  1  0  0  0  0
  9 10  1  0  0  0  0
  9 11  1  0  0  0  0
  9 21  1  0  0  0  0
 11 12  1  0  0  0  0
 11 13  1  0  0  0  0
 11 14  1  0  0  0  0
 14 15  1  0  0  0  0
 14 16  1  0  0  0  0
 14 17  1  0  0  0  0
 17 18  2  0  0  0  0
 17 19  1  0  0  0  0
 19 20  1  0  0  0  0
 21 22  2  0  0  0  0
 21 23  1  0  0  0  0
 23 24  1  0  0  0  0
 23 25  1  0  0  0  0
 25 26  1  0  0  0  0
 25 27  1  0  0  0  0
 25 28  1  0  0  0  0
M  END
$$$$

  -OEChem-02102214123D

 28 27  0     1  0  0  0  0  0999 V2000
   -2.7139   -4.1418    0.2938 H   0  0  0  0  0  0  0  0  0  0  0  0
   -2.6615   -3.1736   -0.2126 C   0  0  0  0  0  0  0  0  0  0  0  0
   -3.4703   -2.5392    0.1576 H   0  0  0  0  0  0  0  0  0  0  0  0
   -2.7917   -3.3318   -1.2858 H   0  0  0  0  0  0  0  0  0  0  0  0
   -1.3206   -2.5171    0.0558 C   0  0  0  0  0  0  0  0  0  0  0  0
   -0.4901   -3.0889    0.7378 O   0  0  0  0  0  0  0  0  0  0  0  0
   -1.0502   -1.2702   -0.4730 N   0  0  0  0  0  0  0  0  0  0  0  0
   -1.7438   -0.8835   -1.1055 H   0  0  0  0  0  0  0  0  0  0  0  0
    0.2589   -0.5957   -0.3741 C   0  0  1  0  0  0  0  0  0  0  0  0
    1.0041   -1.2691   -0.8136 H   0  0  0  0  0  0  0  0  0  0  0  0
    0.2492    0.6889   -1.2262 C   0  0  0  0  0  0  0  0  0  0  0  0
    1.2493    1.1380   -1.2016 H   0  0  0  0  0  0  0  0  0  0  0  0
    0.0633    0.4010   -2.2660 H   0  0  0  0  0  0  0  0  0  0  0  0
   -0.8202    1.7305   -0.8115 C   0  0  0  0  0  0  0  0  0  0  0  0
   -1.3036    2.1179   -1.7127 H   0  0  0  0  0  0  0  0  0  0  0  0
   -1.6014    1.2738   -0.1995 H   0  0  0  0  0  0  0  0  0  0  0  0
   -0.2361    2.9267   -0.0626 C   0  0  0  0  0  0  0  0  0  0  0  0
    0.6202    3.5997   -0.6095 O   0  0  0  0  0  0  0  0  0  0  0  0
   -0.7266    3.1961    1.1692 O   0  0  0  0  0  0  0  0  0  0  0  0
   -0.2271    3.9652    1.4852 H   0  0  0  0  0  0  0  0  0  0  0  0
    0.7591   -0.3205    1.0640 C   0  0  0  0  0  0  0  0  0  0  0  0
    1.9611   -0.3266    1.2917 O   0  0  0  0  0  0  0  0  0  0  0  0
   -0.0947    0.1945    2.0217 N   0  0  0  0  0  0  0  0  0  0  0  0
   -1.0855    0.1903    1.8056 H   0  0  0  0  0  0  0  0  0  0  0  0
    0.3385    0.5777    3.3588 C   0  0  0  0  0  0  0  0  0  0  0  0
    1.1096    1.3532    3.3040 H   0  0  0  0  0  0  0  0  0  0  0  0
   -0.5062    0.9722    3.9311 H   0  0  0  0  0  0  0  0  0  0  0  0
    0.7459   -0.2882    3.8911 H   0  0  0  0  0  0  0  0  0  0  0  0
  1  2  1  0  0  0  0
  2  3  1  0  0  0  0
  2  4  1  0  0  0  0
  2  5  1  0  0  0  0
  5  6  2  0  0  0  0
  5  7  1  0  0  0  0
  7  8  1  0  0  0  0
  7  9  1  0  0  0  0
  9 10  1  0  0  0  0
  9 11  1  0  0  0  0
  9 21  1  0  0  0  0
 11 12  1  0  0  0  0
 11 13  1  0  0  0  0
 11 14  1  0  0  0  0
 14 15  1  0  0  0  0
 14 16  1  0  0  0  0
 14 17  1  0  0  0  0
 17 18  2  0  0  0  0
 17 19  1  0  0  0  0
 19 20  1  0  0  0  0
 21 22  2  0  0  0  0
 21 23  1  0  0  0  0
 23 24  1  0  0  0  0
 23 25  1  0  0  0  0
 25 26  1  0  0  0  0
 25 27  1  0  0  0  0
 25 28  1  0  0  0  0
M  END
$$$$

  -OEChem-02102214123D

 28 27  0     1  0  0  0  0  0999 V2000
   -2.6772   -4.1739    0.2714 H   0  0  0  0  0  0  0  0  0  0  0  0
   -2.6320   -3.2079   -0.2399 C   0  0  0  0  0  0  0  0  0  0  0  0
   -3.4550   -2.5835    0.1156 H   0  0  0  0  0  0  0  0  0  0  0  0
   -2.7452   -3.3738   -1.3140 H   0  0  0  0  0  0  0  0  0  0  0  0
   -1.3050   -2.5297    0.0435 C   0  0  0  0  0  0  0  0  0  0  0  0
   -0.4727   -3.0863    0.7357 O   0  0  0  0  0  0  0  0  0  0  0  0
   -1.0513   -1.2773   -0.4793 N   0  0  0  0  0  0  0  0  0  0  0  0
   -1.7467   -0.8994   -1.1154 H   0  0  0  0  0  0  0  0  0  0  0  0
    0.2456   -0.5823   -0.3697 C   0  0  1  0  0  0  0  0  0  0  0  0
    1.0030   -1.2439   -0.8060 H   0  0  0  0  0  0  0  0  0  0  0  0
    0.2185    0.6993   -1.2238 C   0  0  0  0  0  0  0  0  0  0  0  0
    1.2085    1.1686   -1.1693 H   0  0  0  0  0  0  0  0  0  0  0  0
    0.0624    0.4201   -2.2711 H   0  0  0  0  0  0  0  0  0  0  0  0
   -0.8760    1.7138   -0.8115 C   0  0  0  0  0  0  0  0  0  0  0  0
   -1.5489    1.8827   -1.6566 H   0  0  0  0  0  0  0  0  0  0  0  0
   -1.4848    1.3300    0.0097 H   0  0  0  0  0  0  0  0  0  0  0  0
   -0.2913    3.0603   -0.3968 C   0  0  0  0  0  0  0  0  0  0  0  0
    0.3024    3.7196   -1.2326 O   0  0  0  0  0  0  0  0  0  0  0  0
   -0.4691    3.4562    0.8843 O   0  0  0  0  0  0  0  0  0  0  0  0
   -0.0071    4.3050    0.9645 H   0  0  0  0  0  0  0  0  0  0  0  0
    0.7428   -0.2979    1.0685 C   0  0  0  0  0  0  0  0  0  0  0  0
    1.9464   -0.2680    1.2876 O   0  0  0  0  0  0  0  0  0  0  0  0
   -0.1168    0.2038    2.0286 N   0  0  0  0  0  0  0  0  0  0  0  0
   -1.1095    0.1386    1.8332 H   0  0  0  0  0  0  0  0  0  0  0  0
    0.3179    0.6100    3.3586 C   0  0  0  0  0  0  0  0  0  0  0  0
    1.0483    1.4231    3.2906 H   0  0  0  0  0  0  0  0  0  0  0  0
   -0.5361    0.9625    3.9445 H   0  0  0  0  0  0  0  0  0  0  0  0
    0.7767   -0.2335    3.8852 H   0  0  0  0  0  0  0  0  0  0  0  0
  1  2  1  0  0  0  0
  2  3  1  0  0  0  0
  2  4  1  0  0  0  0
  2  5  1  0  0  0  0
  5  6  2  0  0  0  0
  5  7  1  0  0  0  0
  7  8  1  0  0  0  0
  7  9  1  0  0  0  0
  9 10  1  0  0  0  0
  9 11  1  0  0  0  0
  9 21  1  0  0  0  0
 11 12  1  0  0  0  0
 11 13  1  0  0  0  0
 11 14  1  0  0  0  0
 14 15  1  0  0  0  0
 14 16  1  0  0  0  0
 14 17  1  0  0  0  0
 17 18  2  0  0  0  0
 17 19  1  0  0  0  0
 19 20  1  0  0  0  0
 21 22  2  0  0  0  0
 21 23  1  0  0  0  0
 23 24  1  0  0  0  0
 23 25  1  0  0  0  0
 25 26  1  0  0  0  0
 25 27  1  0  0  0  0
 25 28  1  0  0  0  0
M  END
$$$$

  -OEChem-02102214123D

 28 27  0     1  0  0  0  0  0999 V2000
   -2.6126   -4.2241    0.2250 H   0  0  0  0  0  0  0  0  0  0  0  0
   -2.5997   -3.2404   -0.2530 C   0  0  0  0  0  0  0  0  0  0  0  0
   -3.4404   -2.6545    0.1259 H   0  0  0  0  0  0  0  0  0  0  0  0
   -2.7129   -3.3737   -1.3315 H   0  0  0  0  0  0  0  0  0  0  0  0
   -1.2928   -2.5315    0.0492 C   0  0  0  0  0  0  0  0  0  0  0  0
   -0.4548   -3.0723    0.7474 O   0  0  0  0  0  0  0  0  0  0  0  0
   -1.0632   -1.2692   -0.4610 N   0  0  0  0  0  0  0  0  0  0  0  0
   -1.7598   -0.9050   -1.1037 H   0  0  0  0  0  0  0  0  0  0  0  0
    0.2251   -0.5581   -0.3576 C   0  0  1  0  0  0  0  0  0  0  0  0
    0.9838   -1.2126   -0.8023 H   0  0  0  0  0  0  0  0  0  0  0  0
    0.1810    0.7170   -1.2211 C   0  0  0  0  0  0  0  0  0  0  0  0
    1.1638    1.1980   -1.1428 H   0  0  0  0  0  0  0  0  0  0  0  0
    0.0483    0.4419   -2.2725 H   0  0  0  0  0  0  0  0  0  0  0  0
   -0.9234    1.7239   -0.8202 C   0  0  0  0  0  0  0  0  0  0  0  0
   -1.7495    1.6672   -1.5339 H   0  0  0  0  0  0  0  0  0  0  0  0
   -1.3321    1.4846    0.1628 H   0  0  0  0  0  0  0  0  0  0  0  0
   -0.4102    3.1602   -0.7763 C   0  0  0  0  0  0  0  0  0  0  0  0
    0.0911    3.6302   -1.7832 O   0  0  0  0  0  0  0  0  0  0  0  0
   -0.5443    3.8429    0.3837 O   0  0  0  0  0  0  0  0  0  0  0  0
   -0.1429    4.7117    0.2282 H   0  0  0  0  0  0  0  0  0  0  0  0
    0.7397   -0.2828    1.0768 C   0  0  0  0  0  0  0  0  0  0  0  0
    1.9464   -0.2329    1.2740 O   0  0  0  0  0  0  0  0  0  0  0  0
   -0.1099    0.1959    2.0578 N   0  0  0  0  0  0  0  0  0  0  0  0
   -1.1022    0.0602    1.8978 H   0  0  0  0  0  0  0  0  0  0  0  0
    0.3441    0.5529    3.3961 C   0  0  0  0  0  0  0  0  0  0  0  0
    1.1068    1.3372    3.3454 H   0  0  0  0  0  0  0  0  0  0  0  0
   -0.4932    0.9265    3.9931 H   0  0  0  0  0  0  0  0  0  0  0  0
    0.7700   -0.3206    3.9011 H   0  0  0  0  0  0  0  0  0  0  0  0
  1  2  1  0  0  0  0
  2  3  1  0  0  0  0
  2  4  1  0  0  0  0
  2  5  1  0  0  0  0
  5  6  2  0  0  0  0
  5  7  1  0  0  0  0
  7  8  1  0  0  0  0
  7  9  1  0  0  0  0
  9 10  1  0  0  0  0
  9 11  1  0  0  0  0
  9 21  1  0  0  0  0
 11 12  1  0  0  0  0
 11 13  1  0  0  0  0
 11 14  1  0  0  0  0
 14 15  1  0  0  0  0
 14 16  1  0  0  0  0
 14 17  1  0  0  0  0
 17 18  2  0  0  0  0
 17 19  1  0  0  0  0
 19 20  1  0  0  0  0
 21 22  2  0  0  0  0
 21 23  1  0  0  0  0
 23 24  1  0  0  0  0
 23 25  1  0  0  0  0
 25 26  1  0  0  0  0
 25 27  1  0  0  0  0
 25 28  1  0  0  0  0
M  END
$$$$

  -OEChem-02102214123D

 28 27  0     1  0  0  0  0  0999 V2000
   -2.5995   -4.2252    0.2282 H   0  0  0  0  0  0  0  0  0  0  0  0
   -2.5935   -3.2360   -0.2385 C   0  0  0  0  0  0  0  0  0  0  0  0
   -3.4271   -2.6540    0.1616 H   0  0  0  0  0  0  0  0  0  0  0  0
   -2.7249   -3.3563   -1.3164 H   0  0  0  0  0  0  0  0  0  0  0  0
   -1.2812   -2.5309    0.0492 C   0  0  0  0  0  0  0  0  0  0  0  0
   -0.4336   -3.0770    0.7312 O   0  0  0  0  0  0  0  0  0  0  0  0
   -1.0617   -1.2623   -0.4495 N   0  0  0  0  0  0  0  0  0  0  0  0
   -1.7673   -0.8944   -1.0800 H   0  0  0  0  0  0  0  0  0  0  0  0
    0.2247   -0.5468   -0.3561 C   0  0  1  0  0  0  0  0  0  0  0  0
    0.9815   -1.1954   -0.8126 H   0  0  0  0  0  0  0  0  0  0  0  0
    0.1641    0.7287   -1.2190 C   0  0  0  0  0  0  0  0  0  0  0  0
    1.1423    1.2183   -1.1375 H   0  0  0  0  0  0  0  0  0  0  0  0
    0.0315    0.4578   -2.2718 H   0  0  0  0  0  0  0  0  0  0  0  0
   -0.9406    1.7319   -0.8106 C   0  0  0  0  0  0  0  0  0  0  0  0
   -1.8750    1.4873   -1.3219 H   0  0  0  0  0  0  0  0  0  0  0  0
   -1.1300    1.6730    0.2618 H   0  0  0  0  0  0  0  0  0  0  0  0
   -0.5664    3.1800   -1.1192 C   0  0  0  0  0  0  0  0  0  0  0  0
   -0.0199    3.4347   -2.1791 O   0  0  0  0  0  0  0  0  0  0  0  0
   -0.8870    4.1176   -0.1985 O   0  0  0  0  0  0  0  0  0  0  0  0
   -0.5707    4.9612   -0.5570 H   0  0  0  0  0  0  0  0  0  0  0  0
    0.7532   -0.2877    1.0763 C   0  0  0  0  0  0  0  0  0  0  0  0
    1.9614   -0.2396    1.2641 O   0  0  0  0  0  0  0  0  0  0  0  0
   -0.0883    0.1743    2.0722 N   0  0  0  0  0  0  0  0  0  0  0  0
   -1.0805    0.0277    1.9200 H   0  0  0  0  0  0  0  0  0  0  0  0
    0.3758    0.4816    3.4195 C   0  0  0  0  0  0  0  0  0  0  0  0
    1.1433    1.2623    3.3920 H   0  0  0  0  0  0  0  0  0  0  0  0
   -0.4557    0.8392    4.0341 H   0  0  0  0  0  0  0  0  0  0  0  0
    0.7990   -0.4116    3.8911 H   0  0  0  0  0  0  0  0  0  0  0  0
  1  2  1  0  0  0  0
  2  3  1  0  0  0  0
  2  4  1  0  0  0  0
  2  5  1  0  0  0  0
  5  6  2  0  0  0  0
  5  7  1  0  0  0  0
  7  8  1  0  0  0  0
  7  9  1  0  0  0  0
  9 10  1  0  0  0  0
  9 11  1  0  0  0  0
  9 21  1  0  0  0  0
 11 12  1  0  0  0  0
 11 13  1  0  0  0  0
 11 14  1  0  0  0  0
 14 15  1  0  0  0  0
 14 16  1  0  0  0  0
 14 17  1  0  0  0  0
 17 18  2  0  0  0  0
 17 19  1  0  0  0  0
 19 20  1  0  0  0  0
 21 22  2  0  0  0  0
 21 23  1  0  0  0  0
 23 24  1  0  0  0  0
 23 25  1  0  0  0  0
 25 26  1  0  0  0  0
 25 27  1  0  0  0  0
 25 28  1  0  0  0  0
M  END
$$$$

  -OEChem-02102214123D

 28 27  0     1  0  0  0  0  0999 V2000
   -2.5887   -4.2341    0.2426 H   0  0  0  0  0  0  0  0  0  0  0  0
   -2.5889   -3.2472   -0.2291 C   0  0  0  0  0  0  0  0  0  0  0  0
   -3.4290   -2.6697    0.1640 H   0  0  0  0  0  0  0  0  0  0  0  0
   -2.7138   -3.3742   -1.3071 H   0  0  0  0  0  0  0  0  0  0  0  0
   -1.2836   -2.5309    0.0614 C   0  0  0  0  0  0  0  0  0  0  0  0
   -0.4331   -3.0711    0.7446 O   0  0  0  0  0  0  0  0  0  0  0  0
   -1.0717   -1.2621   -0.4411 N   0  0  0  0  0  0  0  0  0  0  0  0
   -1.7745   -0.9081   -1.0829 H   0  0  0  0  0  0  0  0  0  0  0  0
    0.2179   -0.5491   -0.3661 C   0  0  1  0  0  0  0  0  0  0  0  0
    0.9680   -1.1960   -0.8358 H   0  0  0  0  0  0  0  0  0  0  0  0
    0.1477    0.7350   -1.2160 C   0  0  0  0  0  0  0  0  0  0  0  0
    1.1264    1.2263   -1.1567 H   0  0  0  0  0  0  0  0  0  0  0  0
   -0.0133    0.4650   -2.2654 H   0  0  0  0  0  0  0  0  0  0  0  0
   -0.9444    1.7378   -0.7775 C   0  0  0  0  0  0  0  0  0  0  0  0
   -1.9338    1.3625   -1.0489 H   0  0  0  0  0  0  0  0  0  0  0  0
   -0.9202    1.8630    0.3064 H   0  0  0  0  0  0  0  0  0  0  0  0
   -0.7586    3.1267   -1.3875 C   0  0  0  0  0  0  0  0  0  0  0  0
   -0.2319    3.2343   -2.4823 O   0  0  0  0  0  0  0  0  0  0  0  0
   -1.2210    4.1796   -0.6754 O   0  0  0  0  0  0  0  0  0  0  0  0
   -1.0139    4.9673   -1.2016 H   0  0  0  0  0  0  0  0  0  0  0  0
    0.7586   -0.2965    1.0624 C   0  0  0  0  0  0  0  0  0  0  0  0
    1.9681   -0.2491    1.2423 O   0  0  0  0  0  0  0  0  0  0  0  0
   -0.0780    0.1637    2.0635 N   0  0  0  0  0  0  0  0  0  0  0  0
   -1.0706    0.0147    1.9158 H   0  0  0  0  0  0  0  0  0  0  0  0
    0.3929    0.4650    3.4099 C   0  0  0  0  0  0  0  0  0  0  0  0
    1.1610    1.2452    3.3818 H   0  0  0  0  0  0  0  0  0  0  0  0
   -0.4351    0.8208    4.0303 H   0  0  0  0  0  0  0  0  0  0  0  0
    0.8176   -0.4304    3.8760 H   0  0  0  0  0  0  0  0  0  0  0  0
  1  2  1  0  0  0  0
  2  3  1  0  0  0  0
  2  4  1  0  0  0  0
  2  5  1  0  0  0  0
  5  6  2  0  0  0  0
  5  7  1  0  0  0  0
  7  8  1  0  0  0  0
  7  9  1  0  0  0  0
  9 10  1  0  0  0  0
  9 11  1  0  0  0  0
  9 21  1  0  0  0  0
 11 12  1  0  0  0  0
 11 13  1  0  0  0  0
 11 14  1  0  0  0  0
 14 15  1  0  0  0  0
 14 16  1  0  0  0  0
 14 17  1  0  0  0  0
 17 18  2  0  0  0  0
 17 19  1  0  0  0  0
 19 20  1  0  0  0  0
 21 22  2  0  0  0  0
 21 23  1  0  0  0  0
 23 24  1  0  0  0  0
 23 25  1  0  0  0  0
 25 26  1  0  0  0  0
 25 27  1  0  0  0  0
 25 28  1  0  0  0  0
M  END
$$$$

  -OEChem-02102214123D

 28 27  0     1  0  0  0  0  0999 V2000
   -2.6201   -4.2042    0.2237 H   0  0  0  0  0  0  0  0  0  0  0  0
   -2.6129   -3.2088   -0.2296 C   0  0  0  0  0  0  0  0  0  0  0  0
   -3.4379   -2.6265    0.1875 H   0  0  0  0  0  0  0  0  0  0  0  0
   -2.7567   -3.3136   -1.3076 H   0  0  0  0  0  0  0  0  0  0  0  0
   -1.2929   -2.5167    0.0527 C   0  0  0  0  0  0  0  0  0  0  0  0
   -0.4411   -3.0791    0.7160 O   0  0  0  0  0  0  0  0  0  0  0  0
   -1.0691   -1.2442   -0.4350 N   0  0  0  0  0  0  0  0  0  0  0  0
   -1.7793   -0.8658   -1.0546 H   0  0  0  0  0  0  0  0  0  0  0  0
    0.2278   -0.5451   -0.3588 C   0  0  1  0  0  0  0  0  0  0  0  0
    0.9633   -1.2008   -0.8394 H   0  0  0  0  0  0  0  0  0  0  0  0
    0.1609    0.7363   -1.2131 C   0  0  0  0  0  0  0  0  0  0  0  0
    1.1859    1.0890   -1.3764 H   0  0  0  0  0  0  0  0  0  0  0  0
   -0.2553    0.4877   -2.1954 H   0  0  0  0  0  0  0  0  0  0  0  0
   -0.6531    1.8854   -0.5767 C   0  0  0  0  0  0  0  0  0  0  0  0
   -1.6756    1.5534   -0.3815 H   0  0  0  0  0  0  0  0  0  0  0  0
   -0.2025    2.1697    0.3777 H   0  0  0  0  0  0  0  0  0  0  0  0
   -0.7116    3.1489   -1.4361 C   0  0  0  0  0  0  0  0  0  0  0  0
   -0.3439    3.1130   -2.5987 O   0  0  0  0  0  0  0  0  0  0  0  0
   -1.2040    4.2615   -0.8458 O   0  0  0  0  0  0  0  0  0  0  0  0
   -1.1614    4.9595   -1.5175 H   0  0  0  0  0  0  0  0  0  0  0  0
    0.7809   -0.3141    1.0681 C   0  0  0  0  0  0  0  0  0  0  0  0
    1.9915   -0.2754    1.2413 O   0  0  0  0  0  0  0  0  0  0  0  0
   -0.0487    0.1432    2.0767 N   0  0  0  0  0  0  0  0  0  0  0  0
   -1.0428    0.0038    1.9302 H   0  0  0  0  0  0  0  0  0  0  0  0
    0.4292    0.4215    3.4254 C   0  0  0  0  0  0  0  0  0  0  0  0
    1.2070    1.1922    3.4055 H   0  0  0  0  0  0  0  0  0  0  0  0
   -0.3931    0.7793    4.0522 H   0  0  0  0  0  0  0  0  0  0  0  0
    0.8438   -0.4850    3.8791 H   0  0  0  0  0  0  0  0  0  0  0  0
  1  2  1  0  0  0  0
  2  3  1  0  0  0  0
  2  4  1  0  0  0  0
  2  5  1  0  0  0  0
  5  6  2  0  0  0  0
  5  7  1  0  0  0  0
  7  8  1  0  0  0  0
  7  9  1  0  0  0  0
  9 10  1  0  0  0  0
  9 11  1  0  0  0  0
  9 21  1  0  0  0  0
 11 12  1  0  0  0  0
 11 13  1  0  0  0  0
 11 14  1  0  0  0  0
 14 15  1  0  0  0  0
 14 16  1  0  0  0  0
 14 17  1  0  0  0  0
 17 18  2  0  0  0  0
 17 19  1  0  0  0  0
 19 20  1  0  0  0  0
 21 22  2  0  0  0  0
 21 23  1  0  0  0  0
 23 24  1  0  0  0  0
 23 25  1  0  0  0  0
 25 26  1  0  0  0  0
 25 27  1  0  0  0  0
 25 28  1  0  0  0  0
M  END
$$$$

  -OEChem-02102214123D

 28 27  0     1  0  0  0  0  0999 V2000
   -2.6344   -4.1961    0.2147 H   0  0  0  0  0  0  0  0  0  0  0  0
   -2.6328   -3.1911   -0.2167 C   0  0  0  0  0  0  0  0  0  0  0  0
   -3.4540   -2.6192    0.2219 H   0  0  0  0  0  0  0  0  0  0  0  0
   -2.7876   -3.2730   -1.2952 H   0  0  0  0  0  0  0  0  0  0  0  0
   -1.3107   -2.5039    0.0673 C   0  0  0  0  0  0  0  0  0  0  0  0
   -0.4699   -3.0616    0.7484 O   0  0  0  0  0  0  0  0  0  0  0  0
   -1.0741   -1.2394   -0.4345 N   0  0  0  0  0  0  0  0  0  0  0  0
   -1.7755   -0.8671   -1.0676 H   0  0  0  0  0  0  0  0  0  0  0  0
    0.2315   -0.5547   -0.3679 C   0  0  1  0  0  0  0  0  0  0  0  0
    0.9591   -1.2181   -0.8498 H   0  0  0  0  0  0  0  0  0  0  0  0
    0.1737    0.7299   -1.2179 C   0  0  0  0  0  0  0  0  0  0  0  0
    1.1959    1.0779   -1.4066 H   0  0  0  0  0  0  0  0  0  0  0  0
   -0.2656    0.4781   -2.1894 H   0  0  0  0  0  0  0  0  0  0  0  0
   -0.6235    1.8795   -0.5605 C   0  0  0  0  0  0  0  0  0  0  0  0
   -1.5538    1.4872   -0.1425 H   0  0  0  0  0  0  0  0  0  0  0  0
   -0.0404    2.3049    0.2615 H   0  0  0  0  0  0  0  0  0  0  0  0
   -0.9959    3.0140   -1.5167 C   0  0  0  0  0  0  0  0  0  0  0  0
   -0.6025    2.9973   -2.6712 O   0  0  0  0  0  0  0  0  0  0  0  0
   -1.7792    3.9942   -1.0128 O   0  0  0  0  0  0  0  0  0  0  0  0
   -1.9061    4.6292   -1.7347 H   0  0  0  0  0  0  0  0  0  0  0  0
    0.7909   -0.3154    1.0550 C   0  0  0  0  0  0  0  0  0  0  0  0
    2.0023   -0.2978    1.2274 O   0  0  0  0  0  0  0  0  0  0  0  0
   -0.0310    0.1624    2.0603 N   0  0  0  0  0  0  0  0  0  0  0  0
   -1.0267    0.0345    1.9143 H   0  0  0  0  0  0  0  0  0  0  0  0
    0.4495    0.4198    3.4122 C   0  0  0  0  0  0  0  0  0  0  0  0
    1.2442    1.1732    3.4002 H   0  0  0  0  0  0  0  0  0  0  0  0
   -0.3663    0.7907    4.0400 H   0  0  0  0  0  0  0  0  0  0  0  0
    0.8427   -0.4995    3.8594 H   0  0  0  0  0  0  0  0  0  0  0  0
  1  2  1  0  0  0  0
  2  3  1  0  0  0  0
  2  4  1  0  0  0  0
  2  5  1  0  0  0  0
  5  6  2  0  0  0  0
  5  7  1  0  0  0  0
  7  8  1  0  0  0  0
  7  9  1  0  0  0  0
  9 10  1  0  0  0  0
  9 11  1  0  0  0  0
  9 21  1  0  0  0  0
 11 12  1  0  0  0  0
 11 13  1  0  0  0  0
 11 14  1  0  0  0  0
 14 15  1  0  0  0  0
 14 16  1  0  0  0  0
 14 17  1  0  0  0  0
 17 18  2  0  0  0  0
 17 19  1  0  0  0  0
 19 20  1  0  0  0  0
 21 22  2  0  0  0  0
 21 23  1  0  0  0  0
 23 24  1  0  0  0  0
 23 25  1  0  0  0  0
 25 26  1  0  0  0  0
 25 27  1  0  0  0  0
 25 28  1  0  0  0  0
M  END
$$$$

  -OEChem-02102214123D

 28 27  0     1  0  0  0  0  0999 V2000
   -2.6621   -4.1889    0.2197 H   0  0  0  0  0  0  0  0  0  0  0  0
   -2.6490   -3.1895   -0.2244 C   0  0  0  0  0  0  0  0  0  0  0  0
   -3.4728   -2.6075    0.1956 H   0  0  0  0  0  0  0  0  0  0  0  0
   -2.7899   -3.2838   -1.3038 H   0  0  0  0  0  0  0  0  0  0  0  0
   -1.3269   -2.5058    0.0681 C   0  0  0  0  0  0  0  0  0  0  0  0
   -0.4900   -3.0658    0.7522 O   0  0  0  0  0  0  0  0  0  0  0  0
   -1.0846   -1.2422   -0.4330 N   0  0  0  0  0  0  0  0  0  0  0  0
   -1.7812   -0.8692   -1.0712 H   0  0  0  0  0  0  0  0  0  0  0  0
    0.2240   -0.5638   -0.3641 C   0  0  1  0  0  0  0  0  0  0  0  0
    0.9462   -1.2331   -0.8459 H   0  0  0  0  0  0  0  0  0  0  0  0
    0.1783    0.7206   -1.2136 C   0  0  0  0  0  0  0  0  0  0  0  0
    1.2011    1.0646   -1.4045 H   0  0  0  0  0  0  0  0  0  0  0  0
   -0.2584    0.4607   -2.1839 H   0  0  0  0  0  0  0  0  0  0  0  0
   -0.6156    1.8752   -0.5558 C   0  0  0  0  0  0  0  0  0  0  0  0
   -1.4129    1.4597    0.0654 H   0  0  0  0  0  0  0  0  0  0  0  0
    0.0484    2.4473    0.0989 H   0  0  0  0  0  0  0  0  0  0  0  0
   -1.2907    2.8345   -1.5377 C   0  0  0  0  0  0  0  0  0  0  0  0
   -0.9999    2.8067   -2.7218 O   0  0  0  0  0  0  0  0  0  0  0  0
   -2.2084    3.6811   -1.0180 O   0  0  0  0  0  0  0  0  0  0  0  0
   -2.5174    4.2256   -1.7586 H   0  0  0  0  0  0  0  0  0  0  0  0
    0.7919   -0.3225    1.0553 C   0  0  0  0  0  0  0  0  0  0  0  0
    2.0047   -0.3042    1.2172 O   0  0  0  0  0  0  0  0  0  0  0  0
   -0.0194    0.1621    2.0658 N   0  0  0  0  0  0  0  0  0  0  0  0
   -1.0168    0.0337    1.9319 H   0  0  0  0  0  0  0  0  0  0  0  0
    0.4763    0.4402    3.4080 C   0  0  0  0  0  0  0  0  0  0  0  0
    1.2673    1.1971    3.3759 H   0  0  0  0  0  0  0  0  0  0  0  0
   -0.3334    0.8161    4.0406 H   0  0  0  0  0  0  0  0  0  0  0  0
    0.8793   -0.4711    3.8627 H   0  0  0  0  0  0  0  0  0  0  0  0
  1  2  1  0  0  0  0
  2  3  1  0  0  0  0
  2  4  1  0  0  0  0
  2  5  1  0  0  0  0
  5  6  2  0  0  0  0
  5  7  1  0  0  0  0
  7  8  1  0  0  0  0
  7  9  1  0  0  0  0
  9 10  1  0  0  0  0
  9 11  1  0  0  0  0
  9 21  1  0  0  0  0
 11 12  1  0  0  0  0
 11 13  1  0  0  0  0
 11 14  1  0  0  0  0
 14 15  1  0  0  0  0
 14 16  1  0  0  0  0
 14 17  1  0  0  0  0
 17 18  2  0  0  0  0
 17 19  1  0  0  0  0
 19 20  1  0  0  0  0
 21 22  2  0  0  0  0
 21 23  1  0  0  0  0
 23 24  1  0  0  0  0
 23 25  1  0  0  0  0
 25 26  1  0  0  0  0
 25 27  1  0  0  0  0
 25 28  1  0  0  0  0
M  END
$$$$

  -OEChem-02102214123D

 28 27  0     1  0  0  0  0  0999 V2000
   -2.5671   -4.2129    0.2197 H   0  0  0  0  0  0  0  0  0  0  0  0
   -2.5657   -3.2310   -0.2621 C   0  0  0  0  0  0  0  0  0  0  0  0
   -3.3909   -2.6404    0.1431 H   0  0  0  0  0  0  0  0  0  0  0  0
   -2.7152   -3.3657   -1.3361 H   0  0  0  0  0  0  0  0  0  0  0  0
   -1.2461   -2.5271   -0.0077 C   0  0  0  0  0  0  0  0  0  0  0  0
   -0.3533   -3.1017    0.5886 O   0  0  0  0  0  0  0  0  0  0  0  0
   -1.0683   -1.2268   -0.4347 N   0  0  0  0  0  0  0  0  0  0  0  0
   -1.8286   -0.8097   -0.9676 H   0  0  0  0  0  0  0  0  0  0  0  0
    0.2041   -0.4871   -0.3448 C   0  0  1  0  0  0  0  0  0  0  0  0
    0.9503   -1.0960   -0.8684 H   0  0  0  0  0  0  0  0  0  0  0  0
    0.0695    0.8187   -1.1475 C   0  0  0  0  0  0  0  0  0  0  0  0
    1.0711    1.2290   -1.3198 H   0  0  0  0  0  0  0  0  0  0  0  0
   -0.3450    0.5774   -2.1328 H   0  0  0  0  0  0  0  0  0  0  0  0
   -0.7839    1.9002   -0.4476 C   0  0  0  0  0  0  0  0  0  0  0  0
   -1.3757    1.4700    0.3630 H   0  0  0  0  0  0  0  0  0  0  0  0
   -0.1300    2.6609   -0.0106 H   0  0  0  0  0  0  0  0  0  0  0  0
   -1.7644    2.5530   -1.4133 C   0  0  0  0  0  0  0  0  0  0  0  0
   -2.6668    1.8623   -1.8598 O   0  0  0  0  0  0  0  0  0  0  0  0
   -1.5819    3.8538   -1.7353 O   0  0  0  0  0  0  0  0  0  0  0  0
   -2.2894    4.0815   -2.3574 H   0  0  0  0  0  0  0  0  0  0  0  0
    0.7904   -0.2941    1.0745 C   0  0  0  0  0  0  0  0  0  0  0  0
    2.0041   -0.2150    1.2102 O   0  0  0  0  0  0  0  0  0  0  0  0
   -0.0189    0.0909    2.1284 N   0  0  0  0  0  0  0  0  0  0  0  0
   -1.0098   -0.0951    2.0134 H   0  0  0  0  0  0  0  0  0  0  0  0
    0.4964    0.3196    3.4726 C   0  0  0  0  0  0  0  0  0  0  0  0
    1.2380    1.1254    3.4671 H   0  0  0  0  0  0  0  0  0  0  0  0
   -0.3167    0.6060    4.1463 H   0  0  0  0  0  0  0  0  0  0  0  0
    0.9674   -0.5896    3.8612 H   0  0  0  0  0  0  0  0  0  0  0  0
  1  2  1  0  0  0  0
  2  3  1  0  0  0  0
  2  4  1  0  0  0  0
  2  5  1  0  0  0  0
  5  6  2  0  0  0  0
  5  7  1  0  0  0  0
  7  8  1  0  0  0  0
  7  9  1  0  0  0  0
  9 10  1  0  0  0  0
  9 11  1  0  0  0  0
  9 21  1  0  0  0  0
 11 12  1  0  0  0  0
 11 13  1  0  0  0  0
 11 14  1  0  0  0  0
 14 15  1  0  0  0  0
 14 16  1  0  0  0  0
 14 17  1  0  0  0  0
 17 18  2  0  0  0  0
 17 19  1  0  0  0  0
 19 20  1  0  0  0  0
 21 22  2  0  0  0  0
 21 23  1  0  0  0  0
 23 24  1  0  0  0  0
 23 25  1  0  0  0  0
 25 26  1  0  0  0  0
 25 27  1  0  0  0  0
 25 28  1  0  0  0  0
M  END
$$$$

  -OEChem-02102214123D

 28 27  0     1  0  0  0  0  0999 V2000
   -2.5974   -4.1877    0.1817 H   0  0  0  0  0  0  0  0  0  0  0  0
   -2.6028   -3.1795   -0.2423 C   0  0  0  0  0  0  0  0  0  0  0  0
   -3.3938   -2.5995    0.2393 H   0  0  0  0  0  0  0  0  0  0  0  0
   -2.8108   -3.2488   -1.3128 H   0  0  0  0  0  0  0  0  0  0  0  0
   -1.2595   -2.5116   -0.0186 C   0  0  0  0  0  0  0  0  0  0  0  0
   -0.3589   -3.1187    0.5324 O   0  0  0  0  0  0  0  0  0  0  0  0
   -1.0689   -1.2060   -0.4207 N   0  0  0  0  0  0  0  0  0  0  0  0
   -1.8495   -0.7460   -0.8881 H   0  0  0  0  0  0  0  0  0  0  0  0
    0.2094   -0.4787   -0.3278 C   0  0  1  0  0  0  0  0  0  0  0  0
    0.9462   -1.0916   -0.8604 H   0  0  0  0  0  0  0  0  0  0  0  0
    0.0722    0.8210   -1.1395 C   0  0  0  0  0  0  0  0  0  0  0  0
    1.0795    1.2249   -1.2904 H   0  0  0  0  0  0  0  0  0  0  0  0
   -0.3187    0.5837   -2.1355 H   0  0  0  0  0  0  0  0  0  0  0  0
   -0.7802    1.9158   -0.4567 C   0  0  0  0  0  0  0  0  0  0  0  0
   -1.1506    1.5995    0.5185 H   0  0  0  0  0  0  0  0  0  0  0  0
   -0.1657    2.8071   -0.2983 H   0  0  0  0  0  0  0  0  0  0  0  0
   -1.9856    2.2868   -1.3109 C   0  0  0  0  0  0  0  0  0  0  0  0
   -2.7952    1.4046   -1.5552 O   0  0  0  0  0  0  0  0  0  0  0  0
   -2.0980    3.5579   -1.7587 O   0  0  0  0  0  0  0  0  0  0  0  0
   -2.9154    3.5925   -2.2786 H   0  0  0  0  0  0  0  0  0  0  0  0
    0.8143   -0.3135    1.0875 C   0  0  0  0  0  0  0  0  0  0  0  0
    2.0302   -0.2446    1.2086 O   0  0  0  0  0  0  0  0  0  0  0  0
    0.0240    0.0595    2.1599 N   0  0  0  0  0  0  0  0  0  0  0  0
   -0.9713   -0.1074    2.0538 H   0  0  0  0  0  0  0  0  0  0  0  0
    0.5593    0.2658    3.4999 C   0  0  0  0  0  0  0  0  0  0  0  0
    1.3056    1.0672    3.4958 H   0  0  0  0  0  0  0  0  0  0  0  0
   -0.2428    0.5465    4.1890 H   0  0  0  0  0  0  0  0  0  0  0  0
    1.0299   -0.6515    3.8689 H   0  0  0  0  0  0  0  0  0  0  0  0
  1  2  1  0  0  0  0
  2  3  1  0  0  0  0
  2  4  1  0  0  0  0
  2  5  1  0  0  0  0
  5  6  2  0  0  0  0
  5  7  1  0  0  0  0
  7  8  1  0  0  0  0
  7  9  1  0  0  0  0
  9 10  1  0  0  0  0
  9 11  1  0  0  0  0
  9 21  1  0  0  0  0
 11 12  1  0  0  0  0
 11 13  1  0  0  0  0
 11 14  1  0  0  0  0
 14 15  1  0  0  0  0
 14 16  1  0  0  0  0
 14 17  1  0  0  0  0
 17 18  2  0  0  0  0
 17 19  1  0  0  0  0
 19 20  1  0  0  0  0
 21 22  2  0  0  0  0
 21 23  1  0  0  0  0
 23 24  1  0  0  0  0
 23 25  1  0  0  0  0
 25 26  1  0  0  0  0
 25 27  1  0  0  0  0
 25 28  1  0  0  0  0
M  END
$$$$

  -OEChem-02102214123D

 28 27  0     1  0  0  0  0  0999 V2000
   -2.6075   -4.1744    0.2397 H   0  0  0  0  0  0  0  0  0  0  0  0
   -2.6166   -3.1631   -0.1767 C   0  0  0  0  0  0  0  0  0  0  0  0
   -3.3722   -2.5731    0.3475 H   0  0  0  0  0  0  0  0  0  0  0  0
   -2.8793   -3.2204   -1.2357 H   0  0  0  0  0  0  0  0  0  0  0  0
   -1.2524   -2.5200   -0.0166 C   0  0  0  0  0  0  0  0  0  0  0  0
   -0.3345   -3.1467    0.4820 O   0  0  0  0  0  0  0  0  0  0  0  0
   -1.0622   -1.2137   -0.4153 N   0  0  0  0  0  0  0  0  0  0  0  0
   -1.8683   -0.7246   -0.8078 H   0  0  0  0  0  0  0  0  0  0  0  0
    0.2152   -0.4858   -0.3338 C   0  0  1  0  0  0  0  0  0  0  0  0
    0.9471   -1.1031   -0.8680 H   0  0  0  0  0  0  0  0  0  0  0  0
    0.0886    0.8141   -1.1520 C   0  0  0  0  0  0  0  0  0  0  0  0
    1.1047    1.2019   -1.2858 H   0  0  0  0  0  0  0  0  0  0  0  0
   -0.2915    0.5865   -2.1544 H   0  0  0  0  0  0  0  0  0  0  0  0
   -0.7509    1.9325   -0.4912 C   0  0  0  0  0  0  0  0  0  0  0  0
   -0.8756    1.7857    0.5808 H   0  0  0  0  0  0  0  0  0  0  0  0
   -0.2242    2.8825   -0.6214 H   0  0  0  0  0  0  0  0  0  0  0  0
   -2.1267    2.0676   -1.1369 C   0  0  0  0  0  0  0  0  0  0  0  0
   -2.8160    1.0626   -1.2385 O   0  0  0  0  0  0  0  0  0  0  0  0
   -2.5168    3.2914   -1.5601 O   0  0  0  0  0  0  0  0  0  0  0  0
   -3.4044    3.1825   -1.9339 H   0  0  0  0  0  0  0  0  0  0  0  0
    0.8216   -0.3320    1.0816 C   0  0  0  0  0  0  0  0  0  0  0  0
    2.0374   -0.2644    1.2036 O   0  0  0  0  0  0  0  0  0  0  0  0
    0.0310    0.0324    2.1572 N   0  0  0  0  0  0  0  0  0  0  0  0
   -0.9654   -0.1255    2.0471 H   0  0  0  0  0  0  0  0  0  0  0  0
    0.5653    0.2223    3.5002 C   0  0  0  0  0  0  0  0  0  0  0  0
    1.3140    1.0217    3.5060 H   0  0  0  0  0  0  0  0  0  0  0  0
   -0.2365    0.4976    4.1918 H   0  0  0  0  0  0  0  0  0  0  0  0
    1.0329   -0.7007    3.8592 H   0  0  0  0  0  0  0  0  0  0  0  0
  1  2  1  0  0  0  0
  2  3  1  0  0  0  0
  2  4  1  0  0  0  0
  2  5  1  0  0  0  0
  5  6  2  0  0  0  0
  5  7  1  0  0  0  0
  7  8  1  0  0  0  0
  7  9  1  0  0  0  0
  9 10  1  0  0  0  0
  9 11  1  0  0  0  0
  9 21  1  0  0  0  0
 11 12  1  0  0  0  0
 11 13  1  0  0  0  0
 11 14  1  0  0  0  0
 14 15  1  0  0  0  0
 14 16  1  0  0  0  0
 14 17  1  0  0  0  0
 17 18  2  0  0  0  0
 17 19  1  0  0  0  0
 19 20  1  0  0  0  0
 21 22  2  0  0  0  0
 21 23  1  0  0  0  0
 23 24  1  0  0  0  0
 23 25  1  0  0  0  0
 25 26  1  0  0  0  0
 25 27  1  0  0  0  0
 25 28  1  0  0  0  0
M  END
$$$$

  -OEChem-02102214123D

 28 27  0     1  0  0  0  0  0999 V2000
   -2.5901   -4.2236    0.2933 H   0  0  0  0  0  0  0  0  0  0  0  0
   -2.6000   -3.2198   -0.1408 C   0  0  0  0  0  0  0  0  0  0  0  0
   -3.3681   -2.6262    0.3605 H   0  0  0  0  0  0  0  0  0  0  0  0
   -2.8453   -3.2980   -1.2028 H   0  0  0  0  0  0  0  0  0  0  0  0
   -1.2432   -2.5637    0.0295 C   0  0  0  0  0  0  0  0  0  0  0  0
   -0.3330   -3.1708    0.5650 O   0  0  0  0  0  0  0  0  0  0  0  0
   -1.0498   -1.2708   -0.4098 N   0  0  0  0  0  0  0  0  0  0  0  0
   -1.8465   -0.8044   -0.8466 H   0  0  0  0  0  0  0  0  0  0  0  0
    0.2262   -0.5401   -0.3488 C   0  0  1  0  0  0  0  0  0  0  0  0
    0.9603   -1.1717   -0.8623 H   0  0  0  0  0  0  0  0  0  0  0  0
    0.1260    0.7573   -1.1831 C   0  0  0  0  0  0  0  0  0  0  0  0
    1.1515    1.1199   -1.3159 H   0  0  0  0  0  0  0  0  0  0  0  0
   -0.2552    0.5239   -2.1832 H   0  0  0  0  0  0  0  0  0  0  0  0
   -0.6908    1.9182   -0.5617 C   0  0  0  0  0  0  0  0  0  0  0  0
   -0.5738    1.9577    0.5215 H   0  0  0  0  0  0  0  0  0  0  0  0
   -0.2776    2.8531   -0.9514 H   0  0  0  0  0  0  0  0  0  0  0  0
   -2.1817    1.9245   -0.9070 C   0  0  0  0  0  0  0  0  0  0  0  0
   -2.7382    0.8859   -1.2312 O   0  0  0  0  0  0  0  0  0  0  0  0
   -2.8212    3.1124   -0.8129 O   0  0  0  0  0  0  0  0  0  0  0  0
   -3.7433    2.9488   -1.0632 H   0  0  0  0  0  0  0  0  0  0  0  0
    0.8130   -0.3501    1.0695 C   0  0  0  0  0  0  0  0  0  0  0  0
    2.0266   -0.2785    1.2105 O   0  0  0  0  0  0  0  0  0  0  0  0
    0.0004    0.0431    2.1181 N   0  0  0  0  0  0  0  0  0  0  0  0
   -0.9936   -0.1174    1.9915 H   0  0  0  0  0  0  0  0  0  0  0  0
    0.5081    0.2757    3.4645 C   0  0  0  0  0  0  0  0  0  0  0  0
    1.2656    1.0668    3.4579 H   0  0  0  0  0  0  0  0  0  0  0  0
   -0.3052    0.5847    4.1282 H   0  0  0  0  0  0  0  0  0  0  0  0
    0.9579   -0.6385    3.8664 H   0  0  0  0  0  0  0  0  0  0  0  0
  1  2  1  0  0  0  0
  2  3  1  0  0  0  0
  2  4  1  0  0  0  0
  2  5  1  0  0  0  0
  5  6  2  0  0  0  0
  5  7  1  0  0  0  0
  7  8  1  0  0  0  0
  7  9  1  0  0  0  0
  9 10  1  0  0  0  0
  9 11  1  0  0  0  0
  9 21  1  0  0  0  0
 11 12  1  0  0  0  0
 11 13  1  0  0  0  0
 11 14  1  0  0  0  0
 14 15  1  0  0  0  0
 14 16  1  0  0  0  0
 14 17  1  0  0  0  0
 17 18  2  0  0  0  0
 17 19  1  0  0  0  0
 19 20  1  0  0  0  0
 21 22  2  0  0  0  0
 21 23  1  0  0  0  0
 23 24  1  0  0  0  0
 23 25  1  0  0  0  0
 25 26  1  0  0  0  0
 25 27  1  0  0  0  0
 25 28  1  0  0  0  0
M  END
$$$$

  -OEChem-02102214123D

 28 27  0     1  0  0  0  0  0999 V2000
   -2.6050   -4.2296    0.2892 H   0  0  0  0  0  0  0  0  0  0  0  0
   -2.6066   -3.2266   -0.1469 C   0  0  0  0  0  0  0  0  0  0  0  0
   -3.3931   -2.6362    0.3290 H   0  0  0  0  0  0  0  0  0  0  0  0
   -2.8182   -3.3082   -1.2158 H   0  0  0  0  0  0  0  0  0  0  0  0
   -1.2589   -2.5636    0.0643 C   0  0  0  0  0  0  0  0  0  0  0  0
   -0.3780   -3.1483    0.6690 O   0  0  0  0  0  0  0  0  0  0  0  0
   -1.0428   -1.2883   -0.4145 N   0  0  0  0  0  0  0  0  0  0  0  0
   -1.8077   -0.8531   -0.9326 H   0  0  0  0  0  0  0  0  0  0  0  0
    0.2426   -0.5724   -0.3567 C   0  0  1  0  0  0  0  0  0  0  0  0
    0.9778   -1.2218   -0.8458 H   0  0  0  0  0  0  0  0  0  0  0  0
    0.1675    0.7143   -1.2103 C   0  0  0  0  0  0  0  0  0  0  0  0
    1.1967    1.0617   -1.3533 H   0  0  0  0  0  0  0  0  0  0  0  0
   -0.2230    0.4697   -2.2040 H   0  0  0  0  0  0  0  0  0  0  0  0
   -0.6361    1.8937   -0.6081 C   0  0  0  0  0  0  0  0  0  0  0  0
   -0.3190    2.0836    0.4193 H   0  0  0  0  0  0  0  0  0  0  0  0
   -0.3898    2.7925   -1.1799 H   0  0  0  0  0  0  0  0  0  0  0  0
   -2.1599    1.7567   -0.6420 C   0  0  0  0  0  0  0  0  0  0  0  0
   -2.6848    0.8733   -1.3036 O   0  0  0  0  0  0  0  0  0  0  0  0
   -2.8608    2.6493    0.0930 O   0  0  0  0  0  0  0  0  0  0  0  0
   -3.7981    2.4504   -0.0532 H   0  0  0  0  0  0  0  0  0  0  0  0
    0.8053   -0.3463    1.0656 C   0  0  0  0  0  0  0  0  0  0  0  0
    2.0167   -0.2850    1.2276 O   0  0  0  0  0  0  0  0  0  0  0  0
   -0.0235    0.0905    2.0839 N   0  0  0  0  0  0  0  0  0  0  0  0
   -1.0158   -0.0695    1.9445 H   0  0  0  0  0  0  0  0  0  0  0  0
    0.4593    0.3551    3.4336 C   0  0  0  0  0  0  0  0  0  0  0  0
    1.2359    1.1272    3.4197 H   0  0  0  0  0  0  0  0  0  0  0  0
   -0.3607    0.7049    4.0678 H   0  0  0  0  0  0  0  0  0  0  0  0
    0.8768   -0.5561    3.8748 H   0  0  0  0  0  0  0  0  0  0  0  0
  1  2  1  0  0  0  0
  2  3  1  0  0  0  0
  2  4  1  0  0  0  0
  2  5  1  0  0  0  0
  5  6  2  0  0  0  0
  5  7  1  0  0  0  0
  7  8  1  0  0  0  0
  7  9  1  0  0  0  0
  9 10  1  0  0  0  0
  9 11  1  0  0  0  0
  9 21  1  0  0  0  0
 11 12  1  0  0  0  0
 11 13  1  0  0  0  0
 11 14  1  0  0  0  0
 14 15  1  0  0  0  0
 14 16  1  0  0  0  0
 14 17  1  0  0  0  0
 17 18  2  0  0  0  0
 17 19  1  0  0  0  0
 19 20  1  0  0  0  0
 21 22  2  0  0  0  0
 21 23  1  0  0  0  0
 23 24  1  0  0  0  0
 23 25  1  0  0  0  0
 25 26  1  0  0  0  0
 25 27  1  0  0  0  0
 25 28  1  0  0  0  0
M  END
$$$$

  -OEChem-02102214123D

 28 27  0     1  0  0  0  0  0999 V2000
   -2.6522   -4.1972    0.2991 H   0  0  0  0  0  0  0  0  0  0  0  0
   -2.6347   -3.2024   -0.1548 C   0  0  0  0  0  0  0  0  0  0  0  0
   -3.4146   -2.5913    0.3053 H   0  0  0  0  0  0  0  0  0  0  0  0
   -2.8403   -3.2997   -1.2234 H   0  0  0  0  0  0  0  0  0  0  0  0
   -1.2781   -2.5575    0.0543 C   0  0  0  0  0  0  0  0  0  0  0  0
   -0.4080   -3.1506    0.6660 O   0  0  0  0  0  0  0  0  0  0  0  0
   -1.0394   -1.2925   -0.4413 N   0  0  0  0  0  0  0  0  0  0  0  0
   -1.7930   -0.8536   -0.9715 H   0  0  0  0  0  0  0  0  0  0  0  0
    0.2553   -0.5926   -0.3657 C   0  0  1  0  0  0  0  0  0  0  0  0
    0.9930   -1.2504   -0.8401 H   0  0  0  0  0  0  0  0  0  0  0  0
    0.2022    0.6987   -1.2138 C   0  0  0  0  0  0  0  0  0  0  0  0
    1.2326    1.0378   -1.3685 H   0  0  0  0  0  0  0  0  0  0  0  0
   -0.2056    0.4576   -2.2014 H   0  0  0  0  0  0  0  0  0  0  0  0
   -0.5955    1.8777   -0.6065 C   0  0  0  0  0  0  0  0  0  0  0  0
   -0.1218    2.1969    0.3260 H   0  0  0  0  0  0  0  0  0  0  0  0
   -0.5436    2.7268   -1.2932 H   0  0  0  0  0  0  0  0  0  0  0  0
   -2.0712    1.5866   -0.3384 C   0  0  0  0  0  0  0  0  0  0  0  0
   -2.7155    0.9714   -1.1739 O   0  0  0  0  0  0  0  0  0  0  0  0
   -2.5835    1.9931    0.8458 O   0  0  0  0  0  0  0  0  0  0  0  0
   -3.5273    1.7708    0.8272 H   0  0  0  0  0  0  0  0  0  0  0  0
    0.7942   -0.3487    1.0639 C   0  0  0  0  0  0  0  0  0  0  0  0
    2.0030   -0.3214    1.2524 O   0  0  0  0  0  0  0  0  0  0  0  0
   -0.0429    0.1186    2.0618 N   0  0  0  0  0  0  0  0  0  0  0  0
   -1.0406    0.0846    1.8784 H   0  0  0  0  0  0  0  0  0  0  0  0
    0.4199    0.4571    3.4012 C   0  0  0  0  0  0  0  0  0  0  0  0
    1.1735    1.2504    3.3571 H   0  0  0  0  0  0  0  0  0  0  0  0
   -0.4160    0.8098    4.0127 H   0  0  0  0  0  0  0  0  0  0  0  0
    0.8598   -0.4206    3.8865 H   0  0  0  0  0  0  0  0  0  0  0  0
  1  2  1  0  0  0  0
  2  3  1  0  0  0  0
  2  4  1  0  0  0  0
  2  5  1  0  0  0  0
  5  6  2  0  0  0  0
  5  7  1  0  0  0  0
  7  8  1  0  0  0  0
  7  9  1  0  0  0  0
  9 10  1  0  0  0  0
  9 11  1  0  0  0  0
  9 21  1  0  0  0  0
 11 12  1  0  0  0  0
 11 13  1  0  0  0  0
 11 14  1  0  0  0  0
 14 15  1  0  0  0  0
 14 16  1  0  0  0  0
 14 17  1  0  0  0  0
 17 18  2  0  0  0  0
 17 19  1  0  0  0  0
 19 20  1  0  0  0  0
 21 22  2  0  0  0  0
 21 23  1  0  0  0  0
 23 24  1  0  0  0  0
 23 25  1  0  0  0  0
 25 26  1  0  0  0  0
 25 27  1  0  0  0  0
 25 28  1  0  0  0  0
M  END
$$$$

  -OEChem-02102214123D

 28 27  0     1  0  0  0  0  0999 V2000
   -2.6316   -4.2382    0.2714 H   0  0  0  0  0  0  0  0  0  0  0  0
   -2.6244   -3.2355   -0.1654 C   0  0  0  0  0  0  0  0  0  0  0  0
   -3.3817   -2.6277    0.3351 H   0  0  0  0  0  0  0  0  0  0  0  0
   -2.8719   -3.3126   -1.2268 H   0  0  0  0  0  0  0  0  0  0  0  0
   -1.2563   -2.6026    0.0030 C   0  0  0  0  0  0  0  0  0  0  0  0
   -0.3608   -3.2197    0.5515 O   0  0  0  0  0  0  0  0  0  0  0  0
   -1.0364   -1.3205   -0.4554 N   0  0  0  0  0  0  0  0  0  0  0  0
   -1.8238   -0.8446   -0.8969 H   0  0  0  0  0  0  0  0  0  0  0  0
    0.2437   -0.6005   -0.3427 C   0  0  1  0  0  0  0  0  0  0  0  0
    0.9910   -1.2472   -0.8176 H   0  0  0  0  0  0  0  0  0  0  0  0
    0.2080    0.6979   -1.1799 C   0  0  0  0  0  0  0  0  0  0  0  0
    1.2396    1.0398   -1.3203 H   0  0  0  0  0  0  0  0  0  0  0  0
   -0.1826    0.4487   -2.1724 H   0  0  0  0  0  0  0  0  0  0  0  0
   -0.6132    1.8838   -0.6141 C   0  0  0  0  0  0  0  0  0  0  0  0
   -0.0413    2.3406    0.1996 H   0  0  0  0  0  0  0  0  0  0  0  0
   -0.7290    2.6441   -1.3914 H   0  0  0  0  0  0  0  0  0  0  0  0
   -1.9976    1.5320   -0.0704 C   0  0  0  0  0  0  0  0  0  0  0  0
   -2.7770    0.9529   -0.8104 O   0  0  0  0  0  0  0  0  0  0  0  0
   -2.2903    1.8576    1.2101 O   0  0  0  0  0  0  0  0  0  0  0  0
   -3.2232    1.6271    1.3446 H   0  0  0  0  0  0  0  0  0  0  0  0
    0.7884   -0.3686    1.0875 C   0  0  0  0  0  0  0  0  0  0  0  0
    1.9988   -0.3492    1.2668 O   0  0  0  0  0  0  0  0  0  0  0  0
   -0.0335    0.0678    2.1106 N   0  0  0  0  0  0  0  0  0  0  0  0
   -1.0208    0.1776    1.9017 H   0  0  0  0  0  0  0  0  0  0  0  0
    0.4588    0.4650    3.4233 C   0  0  0  0  0  0  0  0  0  0  0  0
    1.1593    1.3020    3.3337 H   0  0  0  0  0  0  0  0  0  0  0  0
   -0.3737    0.7779    4.0606 H   0  0  0  0  0  0  0  0  0  0  0  0
    0.9708   -0.3727    3.9087 H   0  0  0  0  0  0  0  0  0  0  0  0
  1  2  1  0  0  0  0
  2  3  1  0  0  0  0
  2  4  1  0  0  0  0
  2  5  1  0  0  0  0
  5  6  2  0  0  0  0
  5  7  1  0  0  0  0
  7  8  1  0  0  0  0
  7  9  1  0  0  0  0
  9 10  1  0  0  0  0
  9 11  1  0  0  0  0
  9 21  1  0  0  0  0
 11 12  1  0  0  0  0
 11 13  1  0  0  0  0
 11 14  1  0  0  0  0
 14 15  1  0  0  0  0
 14 16  1  0  0  0  0
 14 17  1  0  0  0  0
 17 18  2  0  0  0  0
 17 19  1  0  0  0  0
 19 20  1  0  0  0  0
 21 22  2  0  0  0  0
 21 23  1  0  0  0  0
 23 24  1  0  0  0  0
 23 25  1  0  0  0  0
 25 26  1  0  0  0  0
 25 27  1  0  0  0  0
 25 28  1  0  0  0  0
M  END
$$$$

  -OEChem-02102214123D

 28 27  0     1  0  0  0  0  0999 V2000
   -2.5043   -4.2980    0.3366 H   0  0  0  0  0  0  0  0  0  0  0  0
   -2.5420   -3.2939   -0.0954 C   0  0  0  0  0  0  0  0  0  0  0  0
   -3.2671   -2.6970    0.4629 H   0  0  0  0  0  0  0  0  0  0  0  0
   -2.8671   -3.3699   -1.1358 H   0  0  0  0  0  0  0  0  0  0  0  0
   -1.1726   -2.6456   -0.0281 C   0  0  0  0  0  0  0  0  0  0  0  0
   -0.2255   -3.2624    0.4265 O   0  0  0  0  0  0  0  0  0  0  0  0
   -1.0105   -1.3451   -0.4573 N   0  0  0  0  0  0  0  0  0  0  0  0
   -1.8565   -0.8404   -0.7248 H   0  0  0  0  0  0  0  0  0  0  0  0
    0.2442   -0.5824   -0.3539 C   0  0  1  0  0  0  0  0  0  0  0  0
    1.0013   -1.2066   -0.8433 H   0  0  0  0  0  0  0  0  0  0  0  0
    0.1910    0.7204   -1.1847 C   0  0  0  0  0  0  0  0  0  0  0  0
    1.2207    1.0643   -1.3342 H   0  0  0  0  0  0  0  0  0  0  0  0
   -0.1976    0.4522   -2.1727 H   0  0  0  0  0  0  0  0  0  0  0  0
   -0.6364    1.9289   -0.6677 C   0  0  0  0  0  0  0  0  0  0  0  0
    0.0343    2.5371   -0.0526 H   0  0  0  0  0  0  0  0  0  0  0  0
   -0.9338    2.5468   -1.5194 H   0  0  0  0  0  0  0  0  0  0  0  0
   -1.8770    1.6586    0.1829 C   0  0  0  0  0  0  0  0  0  0  0  0
   -2.7161    0.8740   -0.2317 O   0  0  0  0  0  0  0  0  0  0  0  0
   -2.0102    2.3472    1.3399 O   0  0  0  0  0  0  0  0  0  0  0  0
   -2.8773    2.1143    1.7044 H   0  0  0  0  0  0  0  0  0  0  0  0
    0.7993   -0.3766    1.0741 C   0  0  0  0  0  0  0  0  0  0  0  0
    2.0079   -0.2745    1.2356 O   0  0  0  0  0  0  0  0  0  0  0  0
   -0.0370   -0.0047    2.1101 N   0  0  0  0  0  0  0  0  0  0  0  0
   -1.0292   -0.1579    1.9665 H   0  0  0  0  0  0  0  0  0  0  0  0
    0.4432    0.2929    3.4538 C   0  0  0  0  0  0  0  0  0  0  0  0
    1.1703    1.1117    3.4289 H   0  0  0  0  0  0  0  0  0  0  0  0
   -0.3902    0.5938    4.0958 H   0  0  0  0  0  0  0  0  0  0  0  0
    0.9209   -0.5895    3.8928 H   0  0  0  0  0  0  0  0  0  0  0  0
  1  2  1  0  0  0  0
  2  3  1  0  0  0  0
  2  4  1  0  0  0  0
  2  5  1  0  0  0  0
  5  6  2  0  0  0  0
  5  7  1  0  0  0  0
  7  8  1  0  0  0  0
  7  9  1  0  0  0  0
  9 10  1  0  0  0  0
  9 11  1  0  0  0  0
  9 21  1  0  0  0  0
 11 12  1  0  0  0  0
 11 13  1  0  0  0  0
 11 14  1  0  0  0  0
 14 15  1  0  0  0  0
 14 16  1  0  0  0  0
 14 17  1  0  0  0  0
 17 18  2  0  0  0  0
 17 19  1  0  0  0  0
 19 20  1  0  0  0  0
 21 22  2  0  0  0  0
 21 23  1  0  0  0  0
 23 24  1  0  0  0  0
 23 25  1  0  0  0  0
 25 26  1  0  0  0  0
 25 27  1  0  0  0  0
 25 28  1  0  0  0  0
M  END
$$$$

  -OEChem-02102214123D

 28 27  0     1  0  0  0  0  0999 V2000
   -2.0800   -4.2616    1.0162 H   0  0  0  0  0  0  0  0  0  0  0  0
   -2.2306   -3.3088    0.5009 C   0  0  0  0  0  0  0  0  0  0  0  0
   -2.9237   -2.6980    1.0846 H   0  0  0  0  0  0  0  0  0  0  0  0
   -2.6676   -3.5039   -0.4813 H   0  0  0  0  0  0  0  0  0  0  0  0
   -0.9072   -2.5854    0.3423 C   0  0  0  0  0  0  0  0  0  0  0  0
    0.1284   -3.1096    0.7163 O   0  0  0  0  0  0  0  0  0  0  0  0
   -0.8854   -1.3086   -0.1767 N   0  0  0  0  0  0  0  0  0  0  0  0
   -1.7915   -0.8517   -0.2937 H   0  0  0  0  0  0  0  0  0  0  0  0
    0.3133   -0.4570   -0.2231 C   0  0  1  0  0  0  0  0  0  0  0  0
    1.0656   -1.1001   -0.6950 H   0  0  0  0  0  0  0  0  0  0  0  0
    0.1510    0.7037   -1.2321 C   0  0  0  0  0  0  0  0  0  0  0  0
    1.1510    1.0869   -1.4652 H   0  0  0  0  0  0  0  0  0  0  0  0
   -0.2375    0.2662   -2.1582 H   0  0  0  0  0  0  0  0  0  0  0  0
   -0.7486    1.9154   -0.8782 C   0  0  0  0  0  0  0  0  0  0  0  0
   -0.0933    2.7611   -0.6522 H   0  0  0  0  0  0  0  0  0  0  0  0
   -1.3292    2.1950   -1.7624 H   0  0  0  0  0  0  0  0  0  0  0  0
   -1.7157    1.7560    0.2901 C   0  0  0  0  0  0  0  0  0  0  0  0
   -2.6402    0.9686    0.1433 O   0  0  0  0  0  0  0  0  0  0  0  0
   -1.5247    2.5217    1.3972 O   0  0  0  0  0  0  0  0  0  0  0  0
   -0.6942    3.0089    1.3017 H   0  0  0  0  0  0  0  0  0  0  0  0
    1.0197   -0.0781    1.1073 C   0  0  0  0  0  0  0  0  0  0  0  0
    2.1641    0.3432    1.0483 O   0  0  0  0  0  0  0  0  0  0  0  0
    0.4188    0.3415    2.2728 N   0  0  0  0  0  0  0  0  0  0  0  0
    1.1083    0.7012    2.9280 H   0  0  0  0  0  0  0  0  0  0  0  0
   -0.7326   -0.3354    2.8562 C   0  0  0  0  0  0  0  0  0  0  0  0
   -0.9948    0.1353    3.8086 H   0  0  0  0  0  0  0  0  0  0  0  0
   -1.6076   -0.2793    2.2055 H   0  0  0  0  0  0  0  0  0  0  0  0
   -0.5004   -1.3887    3.0455 H   0  0  0  0  0  0  0  0  0  0  0  0
  1  2  1  0  0  0  0
  2  3  1  0  0  0  0
  2  4  1  0  0  0  0
  2  5  1  0  0  0  0
  5  6  2  0  0  0  0
  5  7  1  0  0  0  0
  7  8  1  0  0  0  0
  7  9  1  0  0  0  0
  9 10  1  0  0  0  0
  9 11  1  0  0  0  0
  9 21  1  0  0  0  0
 11 12  1  0  0  0  0
 11 13  1  0  0  0  0
 11 14  1  0  0  0  0
 14 15  1  0  0  0  0
 14 16  1  0  0  0  0
 14 17  1  0  0  0  0
 17 18  2  0  0  0  0
 17 19  1  0  0  0  0
 19 20  1  0  0  0  0
 21 22  2  0  0  0  0
 21 23  1  0  0  0  0
 23 24  1  0  0  0  0
 23 25  1  0  0  0  0
 25 26  1  0  0  0  0
 25 27  1  0  0  0  0
 25 28  1  0  0  0  0
M  END
$$$$

  -OEChem-02102214123D

 28 27  0     1  0  0  0  0  0999 V2000
   -2.2633   -4.4405    0.3693 H   0  0  0  0  0  0  0  0  0  0  0  0
   -2.3179   -3.4350   -0.0576 C   0  0  0  0  0  0  0  0  0  0  0  0
   -3.0765   -2.8638    0.4832 H   0  0  0  0  0  0  0  0  0  0  0  0
   -2.6099   -3.5132   -1.1075 H   0  0  0  0  0  0  0  0  0  0  0  0
   -0.9716   -2.7458    0.0547 C   0  0  0  0  0  0  0  0  0  0  0  0
   -0.0257   -3.3293    0.5546 O   0  0  0  0  0  0  0  0  0  0  0  0
   -0.8309   -1.4473   -0.3904 N   0  0  0  0  0  0  0  0  0  0  0  0
   -1.6998   -0.9624   -0.6145 H   0  0  0  0  0  0  0  0  0  0  0  0
    0.3423   -0.6097   -0.0937 C   0  0  1  0  0  0  0  0  0  0  0  0
    1.1979   -1.2309   -0.3856 H   0  0  0  0  0  0  0  0  0  0  0  0
    0.4248    0.5935   -1.0627 C   0  0  0  0  0  0  0  0  0  0  0  0
    1.4478    0.9807   -0.9935 H   0  0  0  0  0  0  0  0  0  0  0  0
    0.3102    0.2038   -2.0800 H   0  0  0  0  0  0  0  0  0  0  0  0
   -0.5357    1.8050   -0.9072 C   0  0  0  0  0  0  0  0  0  0  0  0
    0.0728    2.7062   -0.7909 H   0  0  0  0  0  0  0  0  0  0  0  0
   -1.0922    1.9228   -1.8420 H   0  0  0  0  0  0  0  0  0  0  0  0
   -1.5609    1.7730    0.2213 C   0  0  0  0  0  0  0  0  0  0  0  0
   -2.4297    0.9134    0.1714 O   0  0  0  0  0  0  0  0  0  0  0  0
   -1.4482    2.6934    1.2154 O   0  0  0  0  0  0  0  0  0  0  0  0
   -0.6520    3.2236    1.0698 H   0  0  0  0  0  0  0  0  0  0  0  0
    0.6394   -0.3330    1.4006 C   0  0  0  0  0  0  0  0  0  0  0  0
    1.7964   -0.1272    1.7420 O   0  0  0  0  0  0  0  0  0  0  0  0
   -0.3652    0.0148    2.2840 N   0  0  0  0  0  0  0  0  0  0  0  0
   -1.3241   -0.0516    1.9474 H   0  0  0  0  0  0  0  0  0  0  0  0
   -0.1273    0.4514    3.6538 C   0  0  0  0  0  0  0  0  0  0  0  0
    0.4928    1.3536    3.6680 H   0  0  0  0  0  0  0  0  0  0  0  0
   -1.0771    0.6786    4.1474 H   0  0  0  0  0  0  0  0  0  0  0  0
    0.3802   -0.3349    4.2224 H   0  0  0  0  0  0  0  0  0  0  0  0
  1  2  1  0  0  0  0
  2  3  1  0  0  0  0
  2  4  1  0  0  0  0
  2  5  1  0  0  0  0
  5  6  2  0  0  0  0
  5  7  1  0  0  0  0
  7  8  1  0  0  0  0
  7  9  1  0  0  0  0
  9 10  1  0  0  0  0
  9 11  1  0  0  0  0
  9 21  1  0  0  0  0
 11 12  1  0  0  0  0
 11 13  1  0  0  0  0
 11 14  1  0  0  0  0
 14 15  1  0  0  0  0
 14 16  1  0  0  0  0
 14 17  1  0  0  0  0
 17 18  2  0  0  0  0
 17 19  1  0  0  0  0
 19 20  1  0  0  0  0
 21 22  2  0  0  0  0
 21 23  1  0  0  0  0
 23 24  1  0  0  0  0
 23 25  1  0  0  0  0
 25 26  1  0  0  0  0
 25 27  1  0  0  0  0
 25 28  1  0  0  0  0
M  END
$$$$

  -OEChem-02102214123D

 28 27  0     1  0  0  0  0  0999 V2000
   -2.5474   -4.3197    0.2364 H   0  0  0  0  0  0  0  0  0  0  0  0
   -2.5991   -3.2742   -0.0803 C   0  0  0  0  0  0  0  0  0  0  0  0
   -3.2528   -2.7307    0.6064 H   0  0  0  0  0  0  0  0  0  0  0  0
   -3.0221   -3.2319   -1.0868 H   0  0  0  0  0  0  0  0  0  0  0  0
   -1.2129   -2.6582   -0.0746 C   0  0  0  0  0  0  0  0  0  0  0  0
   -0.2470   -3.3326    0.2375 O   0  0  0  0  0  0  0  0  0  0  0  0
   -1.0537   -1.3282   -0.4089 N   0  0  0  0  0  0  0  0  0  0  0  0
   -1.9115   -0.7867   -0.4940 H   0  0  0  0  0  0  0  0  0  0  0  0
    0.1982   -0.5825   -0.2016 C   0  0  1  0  0  0  0  0  0  0  0  0
    0.9617   -1.2310   -0.6490 H   0  0  0  0  0  0  0  0  0  0  0  0
    0.2523    0.6708   -1.1075 C   0  0  0  0  0  0  0  0  0  0  0  0
    1.2988    0.9966   -1.1083 H   0  0  0  0  0  0  0  0  0  0  0  0
    0.0228    0.3616   -2.1329 H   0  0  0  0  0  0  0  0  0  0  0  0
   -0.6069    1.9176   -0.7737 C   0  0  0  0  0  0  0  0  0  0  0  0
   -0.0090    2.8151   -0.9552 H   0  0  0  0  0  0  0  0  0  0  0  0
   -1.4400    1.9506   -1.4827 H   0  0  0  0  0  0  0  0  0  0  0  0
   -1.2147    2.0050    0.6180 C   0  0  0  0  0  0  0  0  0  0  0  0
   -2.2030    1.3172    0.8351 O   0  0  0  0  0  0  0  0  0  0  0  0
   -0.6226    2.8163    1.5335 O   0  0  0  0  0  0  0  0  0  0  0  0
    0.1853    3.1897    1.1537 H   0  0  0  0  0  0  0  0  0  0  0  0
    0.7238   -0.4681    1.2521 C   0  0  0  0  0  0  0  0  0  0  0  0
    1.9298   -0.3516    1.4267 O   0  0  0  0  0  0  0  0  0  0  0  0
   -0.1128   -0.1626    2.3094 N   0  0  0  0  0  0  0  0  0  0  0  0
   -1.1019   -0.0440    2.0949 H   0  0  0  0  0  0  0  0  0  0  0  0
    0.3617    0.1994    3.6389 C   0  0  0  0  0  0  0  0  0  0  0  0
    0.9209    1.1400    3.6038 H   0  0  0  0  0  0  0  0  0  0  0  0
   -0.4857    0.3249    4.3196 H   0  0  0  0  0  0  0  0  0  0  0  0
    1.0127   -0.5847    4.0400 H   0  0  0  0  0  0  0  0  0  0  0  0
  1  2  1  0  0  0  0
  2  3  1  0  0  0  0
  2  4  1  0  0  0  0
  2  5  1  0  0  0  0
  5  6  2  0  0  0  0
  5  7  1  0  0  0  0
  7  8  1  0  0  0  0
  7  9  1  0  0  0  0
  9 10  1  0  0  0  0
  9 11  1  0  0  0  0
  9 21  1  0  0  0  0
 11 12  1  0  0  0  0
 11 13  1  0  0  0  0
 11 14  1  0  0  0  0
 14 15  1  0  0  0  0
 14 16  1  0  0  0  0
 14 17  1  0  0  0  0
 17 18  2  0  0  0  0
 17 19  1  0  0  0  0
 19 20  1  0  0  0  0
 21 22  2  0  0  0  0
 21 23  1  0  0  0  0
 23 24  1  0  0  0  0
 23 25  1  0  0  0  0
 25 26  1  0  0  0  0
 25 27  1  0  0  0  0
 25 28  1  0  0  0  0
M  END
$$$$

  -OEChem-02102214123D

 28 27  0     1  0  0  0  0  0999 V2000
   -2.9822   -3.9706    0.1748 H   0  0  0  0  0  0  0  0  0  0  0  0
   -2.8779   -2.9443   -0.1885 C   0  0  0  0  0  0  0  0  0  0  0  0
   -3.5474   -2.2990    0.3850 H   0  0  0  0  0  0  0  0  0  0  0  0
   -3.1650   -2.9134   -1.2422 H   0  0  0  0  0  0  0  0  0  0  0  0
   -1.4433   -2.4783   -0.0296 C   0  0  0  0  0  0  0  0  0  0  0  0
   -0.6035   -3.2363    0.4208 O   0  0  0  0  0  0  0  0  0  0  0  0
   -1.0998   -1.1883   -0.3816 N   0  0  0  0  0  0  0  0  0  0  0  0
   -1.8514   -0.5797   -0.6924 H   0  0  0  0  0  0  0  0  0  0  0  0
    0.2460   -0.6127   -0.2196 C   0  0  1  0  0  0  0  0  0  0  0  0
    0.9063   -1.3579   -0.6798 H   0  0  0  0  0  0  0  0  0  0  0  0
    0.4156    0.6137   -1.1473 C   0  0  0  0  0  0  0  0  0  0  0  0
    1.4931    0.8138   -1.1767 H   0  0  0  0  0  0  0  0  0  0  0  0
    0.1238    0.3251   -2.1627 H   0  0  0  0  0  0  0  0  0  0  0  0
   -0.2662    1.9635   -0.8113 C   0  0  0  0  0  0  0  0  0  0  0  0
    0.3123    2.7689   -1.2742 H   0  0  0  0  0  0  0  0  0  0  0  0
   -1.2489    1.9665   -1.2906 H   0  0  0  0  0  0  0  0  0  0  0  0
   -0.4976    2.3234    0.6489 C   0  0  0  0  0  0  0  0  0  0  0  0
    0.3473    2.9803    1.2288 O   0  0  0  0  0  0  0  0  0  0  0  0
   -1.6732    1.9497    1.2125 O   0  0  0  0  0  0  0  0  0  0  0  0
   -1.6599    2.3455    2.0992 H   0  0  0  0  0  0  0  0  0  0  0  0
    0.8221   -0.5542    1.2167 C   0  0  0  0  0  0  0  0  0  0  0  0
    2.0291   -0.6739    1.3765 O   0  0  0  0  0  0  0  0  0  0  0  0
    0.0583   -0.1286    2.2864 N   0  0  0  0  0  0  0  0  0  0  0  0
   -0.9345    0.0009    2.1172 H   0  0  0  0  0  0  0  0  0  0  0  0
    0.5941    0.0753    3.6263 C   0  0  0  0  0  0  0  0  0  0  0  0
    1.3462    0.8715    3.6186 H   0  0  0  0  0  0  0  0  0  0  0  0
   -0.2054    0.3601    4.3165 H   0  0  0  0  0  0  0  0  0  0  0  0
    1.0588   -0.8448    3.9964 H   0  0  0  0  0  0  0  0  0  0  0  0
  1  2  1  0  0  0  0
  2  3  1  0  0  0  0
  2  4  1  0  0  0  0
  2  5  1  0  0  0  0
  5  6  2  0  0  0  0
  5  7  1  0  0  0  0
  7  8  1  0  0  0  0
  7  9  1  0  0  0  0
  9 10  1  0  0  0  0
  9 11  1  0  0  0  0
  9 21  1  0  0  0  0
 11 12  1  0  0  0  0
 11 13  1  0  0  0  0
 11 14  1  0  0  0  0
 14 15  1  0  0  0  0
 14 16  1  0  0  0  0
 14 17  1  0  0  0  0
 17 18  2  0  0  0  0
 17 19  1  0  0  0  0
 19 20  1  0  0  0  0
 21 22  2  0  0  0  0
 21 23  1  0  0  0  0
 23 24  1  0  0  0  0
 23 25  1  0  0  0  0
 25 26  1  0  0  0  0
 25 27  1  0  0  0  0
 25 28  1  0  0  0  0
M  END
$$$$

  -OEChem-02102214123D

 28 27  0     1  0  0  0  0  0999 V2000
   -2.8724   -4.0271    0.1689 H   0  0  0  0  0  0  0  0  0  0  0  0
   -2.7990   -3.0018   -0.2048 C   0  0  0  0  0  0  0  0  0  0  0  0
   -3.5109   -2.3777    0.3404 H   0  0  0  0  0  0  0  0  0  0  0  0
   -3.0563   -2.9959   -1.2666 H   0  0  0  0  0  0  0  0  0  0  0  0
   -1.3894   -2.4764   -0.0096 C   0  0  0  0  0  0  0  0  0  0  0  0
   -0.5373   -3.1915    0.4851 O   0  0  0  0  0  0  0  0  0  0  0  0
   -1.0814   -1.1843   -0.3868 N   0  0  0  0  0  0  0  0  0  0  0  0
   -1.8297   -0.6323   -0.7943 H   0  0  0  0  0  0  0  0  0  0  0  0
    0.2538   -0.5744   -0.2569 C   0  0  1  0  0  0  0  0  0  0  0  0
    0.9312   -1.2962   -0.7295 H   0  0  0  0  0  0  0  0  0  0  0  0
    0.3456    0.6629   -1.1821 C   0  0  0  0  0  0  0  0  0  0  0  0
    1.4121    0.9049   -1.2602 H   0  0  0  0  0  0  0  0  0  0  0  0
    0.0147    0.3721   -2.1846 H   0  0  0  0  0  0  0  0  0  0  0  0
   -0.3761    1.9760   -0.7951 C   0  0  0  0  0  0  0  0  0  0  0  0
   -0.0195    2.7751   -1.4516 H   0  0  0  0  0  0  0  0  0  0  0  0
   -1.4422    1.8476   -0.9997 H   0  0  0  0  0  0  0  0  0  0  0  0
   -0.2496    2.4625    0.6411 C   0  0  0  0  0  0  0  0  0  0  0  0
    0.8092    2.9437    0.9997 O   0  0  0  0  0  0  0  0  0  0  0  0
   -1.3429    2.3771    1.4365 O   0  0  0  0  0  0  0  0  0  0  0  0
   -1.0687    2.7692    2.2811 H   0  0  0  0  0  0  0  0  0  0  0  0
    0.8365   -0.4887    1.1754 C   0  0  0  0  0  0  0  0  0  0  0  0
    2.0422   -0.6173    1.3369 O   0  0  0  0  0  0  0  0  0  0  0  0
    0.0687   -0.0682    2.2454 N   0  0  0  0  0  0  0  0  0  0  0  0
   -0.9268    0.0480    2.0821 H   0  0  0  0  0  0  0  0  0  0  0  0
    0.5971    0.0913    3.5941 C   0  0  0  0  0  0  0  0  0  0  0  0
    1.3851    0.8519    3.6079 H   0  0  0  0  0  0  0  0  0  0  0  0
   -0.1972    0.4025    4.2788 H   0  0  0  0  0  0  0  0  0  0  0  0
    1.0144   -0.8549    3.9553 H   0  0  0  0  0  0  0  0  0  0  0  0
  1  2  1  0  0  0  0
  2  3  1  0  0  0  0
  2  4  1  0  0  0  0
  2  5  1  0  0  0  0
  5  6  2  0  0  0  0
  5  7  1  0  0  0  0
  7  8  1  0  0  0  0
  7  9  1  0  0  0  0
  9 10  1  0  0  0  0
  9 11  1  0  0  0  0
  9 21  1  0  0  0  0
 11 12  1  0  0  0  0
 11 13  1  0  0  0  0
 11 14  1  0  0  0  0
 14 15  1  0  0  0  0
 14 16  1  0  0  0  0
 14 17  1  0  0  0  0
 17 18  2  0  0  0  0
 17 19  1  0  0  0  0
 19 20  1  0  0  0  0
 21 22  2  0  0  0  0
 21 23  1  0  0  0  0
 23 24  1  0  0  0  0
 23 25  1  0  0  0  0
 25 26  1  0  0  0  0
 25 27  1  0  0  0  0
 25 28  1  0  0  0  0
M  END
$$$$

  -OEChem-02102214123D

 28 27  0     1  0  0  0  0  0999 V2000
   -2.7834   -4.0771    0.2220 H   0  0  0  0  0  0  0  0  0  0  0  0
   -2.7312   -3.0604   -0.1783 C   0  0  0  0  0  0  0  0  0  0  0  0
   -3.4792   -2.4449    0.3272 H   0  0  0  0  0  0  0  0  0  0  0  0
   -2.9553   -3.0927   -1.2472 H   0  0  0  0  0  0  0  0  0  0  0  0
   -1.3462   -2.4832    0.0440 C   0  0  0  0  0  0  0  0  0  0  0  0
   -0.4964   -3.1461    0.6097 O   0  0  0  0  0  0  0  0  0  0  0  0
   -1.0589   -1.2044   -0.3916 N   0  0  0  0  0  0  0  0  0  0  0  0
   -1.7932   -0.7150   -0.8935 H   0  0  0  0  0  0  0  0  0  0  0  0
    0.2683   -0.5691   -0.2899 C   0  0  1  0  0  0  0  0  0  0  0  0
    0.9648   -1.2791   -0.7521 H   0  0  0  0  0  0  0  0  0  0  0  0
    0.3023    0.6682   -1.2190 C   0  0  0  0  0  0  0  0  0  0  0  0
    1.3561    0.9411   -1.3493 H   0  0  0  0  0  0  0  0  0  0  0  0
   -0.0699    0.3689   -2.2042 H   0  0  0  0  0  0  0  0  0  0  0  0
   -0.4517    1.9458   -0.7812 C   0  0  0  0  0  0  0  0  0  0  0  0
   -0.3439    2.7001   -1.5659 H   0  0  0  0  0  0  0  0  0  0  0  0
   -1.5166    1.7127   -0.7019 H   0  0  0  0  0  0  0  0  0  0  0  0
   -0.0102    2.5866    0.5293 C   0  0  0  0  0  0  0  0  0  0  0  0
    1.1527    2.9263    0.6482 O   0  0  0  0  0  0  0  0  0  0  0  0
   -0.9508    2.7852    1.4823 O   0  0  0  0  0  0  0  0  0  0  0  0
   -0.4796    3.2070    2.2182 H   0  0  0  0  0  0  0  0  0  0  0  0
    0.8336   -0.4189    1.1432 C   0  0  0  0  0  0  0  0  0  0  0  0
    2.0367   -0.5370    1.3292 O   0  0  0  0  0  0  0  0  0  0  0  0
    0.0427    0.0345    2.1832 N   0  0  0  0  0  0  0  0  0  0  0  0
   -0.9549    0.0994    2.0084 H   0  0  0  0  0  0  0  0  0  0  0  0
    0.5394    0.2056    3.5423 C   0  0  0  0  0  0  0  0  0  0  0  0
    1.3581    0.9328    3.5622 H   0  0  0  0  0  0  0  0  0  0  0  0
   -0.2601    0.5679    4.1955 H   0  0  0  0  0  0  0  0  0  0  0  0
    0.9061   -0.7475    3.9374 H   0  0  0  0  0  0  0  0  0  0  0  0
  1  2  1  0  0  0  0
  2  3  1  0  0  0  0
  2  4  1  0  0  0  0
  2  5  1  0  0  0  0
  5  6  2  0  0  0  0
  5  7  1  0  0  0  0
  7  8  1  0  0  0  0
  7  9  1  0  0  0  0
  9 10  1  0  0  0  0
  9 11  1  0  0  0  0
  9 21  1  0  0  0  0
 11 12  1  0  0  0  0
 11 13  1  0  0  0  0
 11 14  1  0  0  0  0
 14 15  1  0  0  0  0
 14 16  1  0  0  0  0
 14 17  1  0  0  0  0
 17 18  2  0  0  0  0
 17 19  1  0  0  0  0
 19 20  1  0  0  0  0
 21 22  2  0  0  0  0
 21 23  1  0  0  0  0
 23 24  1  0  0  0  0
 23 25  1  0  0  0  0
 25 26  1  0  0  0  0
 25 27  1  0  0  0  0
 25 28  1  0  0  0  0
M  END
$$$$

  -OEChem-02102214123D

 28 27  0     1  0  0  0  0  0999 V2000
   -2.7445   -4.0976    0.2485 H   0  0  0  0  0  0  0  0  0  0  0  0
   -2.6992   -3.0919   -0.1796 C   0  0  0  0  0  0  0  0  0  0  0  0
   -3.4713   -2.4761    0.2875 H   0  0  0  0  0  0  0  0  0  0  0  0
   -2.8931   -3.1588   -1.2529 H   0  0  0  0  0  0  0  0  0  0  0  0
   -1.3313   -2.4832    0.0648 C   0  0  0  0  0  0  0  0  0  0  0  0
   -0.4932   -3.1065    0.6896 O   0  0  0  0  0  0  0  0  0  0  0  0
   -1.0460   -1.2207   -0.4178 N   0  0  0  0  0  0  0  0  0  0  0  0
   -1.7598   -0.7773   -0.9875 H   0  0  0  0  0  0  0  0  0  0  0  0
    0.2785   -0.5768   -0.3255 C   0  0  1  0  0  0  0  0  0  0  0  0
    0.9895   -1.2785   -0.7776 H   0  0  0  0  0  0  0  0  0  0  0  0
    0.2868    0.6704   -1.2390 C   0  0  0  0  0  0  0  0  0  0  0  0
    1.3308    0.9575   -1.4116 H   0  0  0  0  0  0  0  0  0  0  0  0
   -0.1232    0.3836   -2.2127 H   0  0  0  0  0  0  0  0  0  0  0  0
   -0.4858    1.9096   -0.7283 C   0  0  0  0  0  0  0  0  0  0  0  0
   -0.6293    2.5997   -1.5643 H   0  0  0  0  0  0  0  0  0  0  0  0
   -1.4776    1.6025   -0.3866 H   0  0  0  0  0  0  0  0  0  0  0  0
    0.1965    2.6972    0.3887 C   0  0  0  0  0  0  0  0  0  0  0  0
    1.3724    2.9899    0.2693 O   0  0  0  0  0  0  0  0  0  0  0  0
   -0.5637    3.0709    1.4440 O   0  0  0  0  0  0  0  0  0  0  0  0
    0.0393    3.5478    2.0357 H   0  0  0  0  0  0  0  0  0  0  0  0
    0.8180   -0.3734    1.1103 C   0  0  0  0  0  0  0  0  0  0  0  0
    2.0190   -0.4640    1.3222 O   0  0  0  0  0  0  0  0  0  0  0  0
   -0.0001    0.1154    2.1123 N   0  0  0  0  0  0  0  0  0  0  0  0
   -0.9958    0.1379    1.9195 H   0  0  0  0  0  0  0  0  0  0  0  0
    0.4630    0.3407    3.4753 C   0  0  0  0  0  0  0  0  0  0  0  0
    1.2930    1.0550    3.4846 H   0  0  0  0  0  0  0  0  0  0  0  0
   -0.3475    0.7460    4.0882 H   0  0  0  0  0  0  0  0  0  0  0  0
    0.8025   -0.5992    3.9235 H   0  0  0  0  0  0  0  0  0  0  0  0
  1  2  1  0  0  0  0
  2  3  1  0  0  0  0
  2  4  1  0  0  0  0
  2  5  1  0  0  0  0
  5  6  2  0  0  0  0
  5  7  1  0  0  0  0
  7  8  1  0  0  0  0
  7  9  1  0  0  0  0
  9 10  1  0  0  0  0
  9 11  1  0  0  0  0
  9 21  1  0  0  0  0
 11 12  1  0  0  0  0
 11 13  1  0  0  0  0
 11 14  1  0  0  0  0
 14 15  1  0  0  0  0
 14 16  1  0  0  0  0
 14 17  1  0  0  0  0
 17 18  2  0  0  0  0
 17 19  1  0  0  0  0
 19 20  1  0  0  0  0
 21 22  2  0  0  0  0
 21 23  1  0  0  0  0
 23 24  1  0  0  0  0
 23 25  1  0  0  0  0
 25 26  1  0  0  0  0
 25 27  1  0  0  0  0
 25 28  1  0  0  0  0
M  END
$$$$

  -OEChem-02102214123D

 28 27  0     1  0  0  0  0  0999 V2000
   -2.7123   -4.1222    0.2581 H   0  0  0  0  0  0  0  0  0  0  0  0
   -2.6758   -3.1232   -0.1857 C   0  0  0  0  0  0  0  0  0  0  0  0
   -3.4628   -2.5113    0.2616 H   0  0  0  0  0  0  0  0  0  0  0  0
   -2.8549   -3.2098   -1.2600 H   0  0  0  0  0  0  0  0  0  0  0  0
   -1.3198   -2.4914    0.0659 C   0  0  0  0  0  0  0  0  0  0  0  0
   -0.4854   -3.0863    0.7227 O   0  0  0  0  0  0  0  0  0  0  0  0
   -1.0421   -1.2382   -0.4438 N   0  0  0  0  0  0  0  0  0  0  0  0
   -1.7490   -0.8216   -1.0418 H   0  0  0  0  0  0  0  0  0  0  0  0
    0.2745   -0.5787   -0.3501 C   0  0  1  0  0  0  0  0  0  0  0  0
    0.9994   -1.2731   -0.7910 H   0  0  0  0  0  0  0  0  0  0  0  0
    0.2763    0.6749   -1.2498 C   0  0  0  0  0  0  0  0  0  0  0  0
    1.3153    0.9700   -1.4359 H   0  0  0  0  0  0  0  0  0  0  0  0
   -0.1453    0.3986   -2.2215 H   0  0  0  0  0  0  0  0  0  0  0  0
   -0.5155    1.8819   -0.6929 C   0  0  0  0  0  0  0  0  0  0  0  0
   -0.8934    2.4698   -1.5339 H   0  0  0  0  0  0  0  0  0  0  0  0
   -1.3832    1.5345   -0.1263 H   0  0  0  0  0  0  0  0  0  0  0  0
    0.3094    2.8326    0.1757 C   0  0  0  0  0  0  0  0  0  0  0  0
    1.3831    3.2314   -0.2402 O   0  0  0  0  0  0  0  0  0  0  0  0
   -0.2265    3.2238    1.3545 O   0  0  0  0  0  0  0  0  0  0  0  0
    0.4396    3.8009    1.7595 H   0  0  0  0  0  0  0  0  0  0  0  0
    0.7959   -0.3340    1.0860 C   0  0  0  0  0  0  0  0  0  0  0  0
    1.9990   -0.3682    1.3038 O   0  0  0  0  0  0  0  0  0  0  0  0
   -0.0415    0.1715    2.0634 N   0  0  0  0  0  0  0  0  0  0  0  0
   -1.0363    0.1458    1.8684 H   0  0  0  0  0  0  0  0  0  0  0  0
    0.4035    0.4617    3.4202 C   0  0  0  0  0  0  0  0  0  0  0  0
    1.2221    1.1889    3.4091 H   0  0  0  0  0  0  0  0  0  0  0  0
   -0.4197    0.8806    4.0065 H   0  0  0  0  0  0  0  0  0  0  0  0
    0.7517   -0.4531    3.9112 H   0  0  0  0  0  0  0  0  0  0  0  0
  1  2  1  0  0  0  0
  2  3  1  0  0  0  0
  2  4  1  0  0  0  0
  2  5  1  0  0  0  0
  5  6  2  0  0  0  0
  5  7  1  0  0  0  0
  7  8  1  0  0  0  0
  7  9  1  0  0  0  0
  9 10  1  0  0  0  0
  9 11  1  0  0  0  0
  9 21  1  0  0  0  0
 11 12  1  0  0  0  0
 11 13  1  0  0  0  0
 11 14  1  0  0  0  0
 14 15  1  0  0  0  0
 14 16  1  0  0  0  0
 14 17  1  0  0  0  0
 17 18  2  0  0  0  0
 17 19  1  0  0  0  0
 19 20  1  0  0  0  0
 21 22  2  0  0  0  0
 21 23  1  0  0  0  0
 23 24  1  0  0  0  0
 23 25  1  0  0  0  0
 25 26  1  0  0  0  0
 25 27  1  0  0  0  0
 25 28  1  0  0  0  0
M  END
$$$$

  -OEChem-02102214123D

 28 27  0     1  0  0  0  0  0999 V2000
   -2.6956   -4.1540    0.2524 H   0  0  0  0  0  0  0  0  0  0  0  0
   -2.6545   -3.1726   -0.2289 C   0  0  0  0  0  0  0  0  0  0  0  0
   -3.4664   -2.5552    0.1625 H   0  0  0  0  0  0  0  0  0  0  0  0
   -2.7901   -3.3041   -1.3050 H   0  0  0  0  0  0  0  0  0  0  0  0
   -1.3180   -2.5112    0.0492 C   0  0  0  0  0  0  0  0  0  0  0  0
   -0.4836   -3.0866    0.7234 O   0  0  0  0  0  0  0  0  0  0  0  0
   -1.0570   -1.2533   -0.4573 N   0  0  0  0  0  0  0  0  0  0  0  0
   -1.7601   -0.8530   -1.0708 H   0  0  0  0  0  0  0  0  0  0  0  0
    0.2473   -0.5728   -0.3485 C   0  0  1  0  0  0  0  0  0  0  0  0
    0.9847   -1.2567   -0.7848 H   0  0  0  0  0  0  0  0  0  0  0  0
    0.2498    0.6858   -1.2389 C   0  0  0  0  0  0  0  0  0  0  0  0
    1.2903    0.9926   -1.3983 H   0  0  0  0  0  0  0  0  0  0  0  0
   -0.1492    0.4175   -2.2223 H   0  0  0  0  0  0  0  0  0  0  0  0
   -0.5657    1.8737   -0.6750 C   0  0  0  0  0  0  0  0  0  0  0  0
   -1.1517    2.3146   -1.4862 H   0  0  0  0  0  0  0  0  0  0  0  0
   -1.2772    1.5376    0.0824 H   0  0  0  0  0  0  0  0  0  0  0  0
    0.3113    2.9853   -0.1012 C   0  0  0  0  0  0  0  0  0  0  0  0
    1.1173    3.5304   -0.8357 O   0  0  0  0  0  0  0  0  0  0  0  0
    0.1279    3.3278    1.1944 O   0  0  0  0  0  0  0  0  0  0  0  0
    0.7896    4.0118    1.3799 H   0  0  0  0  0  0  0  0  0  0  0  0
    0.7647   -0.3124    1.0869 C   0  0  0  0  0  0  0  0  0  0  0  0
    1.9711   -0.2915    1.2904 O   0  0  0  0  0  0  0  0  0  0  0  0
   -0.0787    0.1840    2.0639 N   0  0  0  0  0  0  0  0  0  0  0  0
   -1.0743    0.1228    1.8823 H   0  0  0  0  0  0  0  0  0  0  0  0
    0.3761    0.5677    3.3939 C   0  0  0  0  0  0  0  0  0  0  0  0
    1.1415    1.3481    3.3266 H   0  0  0  0  0  0  0  0  0  0  0  0
   -0.4602    0.9567    3.9824 H   0  0  0  0  0  0  0  0  0  0  0  0
    0.7985   -0.2967    3.9170 H   0  0  0  0  0  0  0  0  0  0  0  0
  1  2  1  0  0  0  0
  2  3  1  0  0  0  0
  2  4  1  0  0  0  0
  2  5  1  0  0  0  0
  5  6  2  0  0  0  0
  5  7  1  0  0  0  0
  7  8  1  0  0  0  0
  7  9  1  0  0  0  0
  9 10  1  0  0  0  0
  9 11  1  0  0  0  0
  9 21  1  0  0  0  0
 11 12  1  0  0  0  0
 11 13  1  0  0  0  0
 11 14  1  0  0  0  0
 14 15  1  0  0  0  0
 14 16  1  0  0  0  0
 14 17  1  0  0  0  0
 17 18  2  0  0  0  0
 17 19  1  0  0  0  0
 19 20  1  0  0  0  0
 21 22  2  0  0  0  0
 21 23  1  0  0  0  0
 23 24  1  0  0  0  0
 23 25  1  0  0  0  0
 25 26  1  0  0  0  0
 25 27  1  0  0  0  0
 25 28  1  0  0  0  0
M  END
$$$$

  -OEChem-02102214123D

 28 27  0     1  0  0  0  0  0999 V2000
   -2.6293   -4.2116    0.1982 H   0  0  0  0  0  0  0  0  0  0  0  0
   -2.6160   -3.2186   -0.2604 C   0  0  0  0  0  0  0  0  0  0  0  0
   -3.4499   -2.6360    0.1381 H   0  0  0  0  0  0  0  0  0  0  0  0
   -2.7390   -3.3297   -1.3404 H   0  0  0  0  0  0  0  0  0  0  0  0
   -1.3029   -2.5224    0.0430 C   0  0  0  0  0  0  0  0  0  0  0  0
   -0.4639   -3.0786    0.7276 O   0  0  0  0  0  0  0  0  0  0  0  0
   -1.0692   -1.2534   -0.4487 N   0  0  0  0  0  0  0  0  0  0  0  0
   -1.7740   -0.8677   -1.0696 H   0  0  0  0  0  0  0  0  0  0  0  0
    0.2205   -0.5479   -0.3325 C   0  0  1  0  0  0  0  0  0  0  0  0
    0.9675   -1.2205   -0.7703 H   0  0  0  0  0  0  0  0  0  0  0  0
    0.2109    0.7075   -1.2269 C   0  0  0  0  0  0  0  0  0  0  0  0
    1.2518    1.0289   -1.3538 H   0  0  0  0  0  0  0  0  0  0  0  0
   -0.1543    0.4371   -2.2230 H   0  0  0  0  0  0  0  0  0  0  0  0
   -0.6288    1.8878   -0.6822 C   0  0  0  0  0  0  0  0  0  0  0  0
   -1.4083    2.1351   -1.4082 H   0  0  0  0  0  0  0  0  0  0  0  0
   -1.1389    1.6238    0.2450 H   0  0  0  0  0  0  0  0  0  0  0  0
    0.2075    3.1431   -0.4518 C   0  0  0  0  0  0  0  0  0  0  0  0
    0.7489    3.6659   -1.4111 O   0  0  0  0  0  0  0  0  0  0  0  0
    0.2991    3.6159    0.8121 O   0  0  0  0  0  0  0  0  0  0  0  0
    0.8922    4.3812    0.7667 H   0  0  0  0  0  0  0  0  0  0  0  0
    0.7452   -0.2882    1.1015 C   0  0  0  0  0  0  0  0  0  0  0  0
    1.9535   -0.2377    1.2886 O   0  0  0  0  0  0  0  0  0  0  0  0
   -0.0959    0.1826    2.0934 N   0  0  0  0  0  0  0  0  0  0  0  0
   -1.0905    0.0609    1.9377 H   0  0  0  0  0  0  0  0  0  0  0  0
    0.3698    0.5592    3.4219 C   0  0  0  0  0  0  0  0  0  0  0  0
    1.1212    1.3532    3.3532 H   0  0  0  0  0  0  0  0  0  0  0  0
   -0.4650    0.9282    4.0252 H   0  0  0  0  0  0  0  0  0  0  0  0
    0.8132   -0.3035    3.9303 H   0  0  0  0  0  0  0  0  0  0  0  0
  1  2  1  0  0  0  0
  2  3  1  0  0  0  0
  2  4  1  0  0  0  0
  2  5  1  0  0  0  0
  5  6  2  0  0  0  0
  5  7  1  0  0  0  0
  7  8  1  0  0  0  0
  7  9  1  0  0  0  0
  9 10  1  0  0  0  0
  9 11  1  0  0  0  0
  9 21  1  0  0  0  0
 11 12  1  0  0  0  0
 11 13  1  0  0  0  0
 11 14  1  0  0  0  0
 14 15  1  0  0  0  0
 14 16  1  0  0  0  0
 14 17  1  0  0  0  0
 17 18  2  0  0  0  0
 17 19  1  0  0  0  0
 19 20  1  0  0  0  0
 21 22  2  0  0  0  0
 21 23  1  0  0  0  0
 23 24  1  0  0  0  0
 23 25  1  0  0  0  0
 25 26  1  0  0  0  0
 25 27  1  0  0  0  0
 25 28  1  0  0  0  0
M  END
$$$$

  -OEChem-02102214123D

 28 27  0     1  0  0  0  0  0999 V2000
   -2.5934   -4.2297    0.1766 H   0  0  0  0  0  0  0  0  0  0  0  0
   -2.5951   -3.2279   -0.2624 C   0  0  0  0  0  0  0  0  0  0  0  0
   -3.4275   -2.6602    0.1603 H   0  0  0  0  0  0  0  0  0  0  0  0
   -2.7339   -3.3189   -1.3424 H   0  0  0  0  0  0  0  0  0  0  0  0
   -1.2835   -2.5263    0.0351 C   0  0  0  0  0  0  0  0  0  0  0  0
   -0.4310   -3.0857    0.7002 O   0  0  0  0  0  0  0  0  0  0  0  0
   -1.0686   -1.2462   -0.4358 N   0  0  0  0  0  0  0  0  0  0  0  0
   -1.7871   -0.8543   -1.0368 H   0  0  0  0  0  0  0  0  0  0  0  0
    0.2128   -0.5262   -0.3208 C   0  0  1  0  0  0  0  0  0  0  0  0
    0.9637   -1.1875   -0.7692 H   0  0  0  0  0  0  0  0  0  0  0  0
    0.1808    0.7288   -1.2166 C   0  0  0  0  0  0  0  0  0  0  0  0
    1.2209    1.0622   -1.3161 H   0  0  0  0  0  0  0  0  0  0  0  0
   -0.1591    0.4606   -2.2224 H   0  0  0  0  0  0  0  0  0  0  0  0
   -0.6701    1.9079   -0.6848 C   0  0  0  0  0  0  0  0  0  0  0  0
   -1.6118    1.9562   -1.2375 H   0  0  0  0  0  0  0  0  0  0  0  0
   -0.9260    1.7691    0.3651 H   0  0  0  0  0  0  0  0  0  0  0  0
    0.0420    3.2523   -0.8134 C   0  0  0  0  0  0  0  0  0  0  0  0
    0.5030    3.5673   -1.8975 O   0  0  0  0  0  0  0  0  0  0  0  0
    0.1101    4.0369    0.2862 O   0  0  0  0  0  0  0  0  0  0  0  0
    0.6091    4.8244    0.0204 H   0  0  0  0  0  0  0  0  0  0  0  0
    0.7471   -0.2860    1.1130 C   0  0  0  0  0  0  0  0  0  0  0  0
    1.9563   -0.2279    1.2915 O   0  0  0  0  0  0  0  0  0  0  0  0
   -0.0896    0.1552    2.1225 N   0  0  0  0  0  0  0  0  0  0  0  0
   -1.0829    0.0098    1.9767 H   0  0  0  0  0  0  0  0  0  0  0  0
    0.3853    0.4687    3.4644 C   0  0  0  0  0  0  0  0  0  0  0  0
    1.1411    1.2606    3.4286 H   0  0  0  0  0  0  0  0  0  0  0  0
   -0.4439    0.8144    4.0886 H   0  0  0  0  0  0  0  0  0  0  0  0
    0.8263   -0.4185    3.9311 H   0  0  0  0  0  0  0  0  0  0  0  0
  1  2  1  0  0  0  0
  2  3  1  0  0  0  0
  2  4  1  0  0  0  0
  2  5  1  0  0  0  0
  5  6  2  0  0  0  0
  5  7  1  0  0  0  0
  7  8  1  0  0  0  0
  7  9  1  0  0  0  0
  9 10  1  0  0  0  0
  9 11  1  0  0  0  0
  9 21  1  0  0  0  0
 11 12  1  0  0  0  0
 11 13  1  0  0  0  0
 11 14  1  0  0  0  0
 14 15  1  0  0  0  0
 14 16  1  0  0  0  0
 14 17  1  0  0  0  0
 17 18  2  0  0  0  0
 17 19  1  0  0  0  0
 19 20  1  0  0  0  0
 21 22  2  0  0  0  0
 21 23  1  0  0  0  0
 23 24  1  0  0  0  0
 23 25  1  0  0  0  0
 25 26  1  0  0  0  0
 25 27  1  0  0  0  0
 25 28  1  0  0  0  0
M  END
$$$$

  -OEChem-02102214123D

 28 27  0     1  0  0  0  0  0999 V2000
   -2.5706   -4.2422    0.1716 H   0  0  0  0  0  0  0  0  0  0  0  0
   -2.5831   -3.2373   -0.2602 C   0  0  0  0  0  0  0  0  0  0  0  0
   -3.4220   -2.6822    0.1657 H   0  0  0  0  0  0  0  0  0  0  0  0
   -2.7205   -3.3220   -1.3408 H   0  0  0  0  0  0  0  0  0  0  0  0
   -1.2794   -2.5237    0.0429 C   0  0  0  0  0  0  0  0  0  0  0  0
   -0.4217   -3.0792    0.7044 O   0  0  0  0  0  0  0  0  0  0  0  0
   -1.0757   -1.2398   -0.4231 N   0  0  0  0  0  0  0  0  0  0  0  0
   -1.7929   -0.8588   -1.0326 H   0  0  0  0  0  0  0  0  0  0  0  0
    0.2065   -0.5180   -0.3238 C   0  0  1  0  0  0  0  0  0  0  0  0
    0.9538   -1.1714   -0.7893 H   0  0  0  0  0  0  0  0  0  0  0  0
    0.1514    0.7453   -1.2076 C   0  0  0  0  0  0  0  0  0  0  0  0
    1.1875    1.0887   -1.3140 H   0  0  0  0  0  0  0  0  0  0  0  0
   -0.2007    0.4865   -2.2119 H   0  0  0  0  0  0  0  0  0  0  0  0
   -0.6917    1.9177   -0.6519 C   0  0  0  0  0  0  0  0  0  0  0  0
   -1.7343    1.8067   -0.9595 H   0  0  0  0  0  0  0  0  0  0  0  0
   -0.6712    1.9249    0.4377 H   0  0  0  0  0  0  0  0  0  0  0  0
   -0.1739    3.2821   -1.1036 C   0  0  0  0  0  0  0  0  0  0  0  0
    0.2079    3.4162   -2.2542 O   0  0  0  0  0  0  0  0  0  0  0  0
   -0.1884    4.2877   -0.1989 O   0  0  0  0  0  0  0  0  0  0  0  0
    0.1820    5.0597   -0.6535 H   0  0  0  0  0  0  0  0  0  0  0  0
    0.7535   -0.2922    1.1073 C   0  0  0  0  0  0  0  0  0  0  0  0
    1.9637   -0.2322    1.2778 O   0  0  0  0  0  0  0  0  0  0  0  0
   -0.0789    0.1368    2.1257 N   0  0  0  0  0  0  0  0  0  0  0  0
   -1.0716   -0.0163    1.9829 H   0  0  0  0  0  0  0  0  0  0  0  0
    0.4003    0.4228    3.4724 C   0  0  0  0  0  0  0  0  0  0  0  0
    1.1568    1.2144    3.4505 H   0  0  0  0  0  0  0  0  0  0  0  0
   -0.4269    0.7567    4.1059 H   0  0  0  0  0  0  0  0  0  0  0  0
    0.8417   -0.4740    3.9199 H   0  0  0  0  0  0  0  0  0  0  0  0
  1  2  1  0  0  0  0
  2  3  1  0  0  0  0
  2  4  1  0  0  0  0
  2  5  1  0  0  0  0
  5  6  2  0  0  0  0
  5  7  1  0  0  0  0
  7  8  1  0  0  0  0
  7  9  1  0  0  0  0
  9 10  1  0  0  0  0
  9 11  1  0  0  0  0
  9 21  1  0  0  0  0
 11 12  1  0  0  0  0
 11 13  1  0  0  0  0
 11 14  1  0  0  0  0
 14 15  1  0  0  0  0
 14 16  1  0  0  0  0
 14 17  1  0  0  0  0
 17 18  2  0  0  0  0
 17 19  1  0  0  0  0
 19 20  1  0  0  0  0
 21 22  2  0  0  0  0
 21 23  1  0  0  0  0
 23 24  1  0  0  0  0
 23 25  1  0  0  0  0
 25 26  1  0  0  0  0
 25 27  1  0  0  0  0
 25 28  1  0  0  0  0
M  END
$$$$

  -OEChem-02102214123D

 28 27  0     1  0  0  0  0  0999 V2000
   -2.5908   -4.2221    0.2062 H   0  0  0  0  0  0  0  0  0  0  0  0
   -2.5911   -3.2261   -0.2459 C   0  0  0  0  0  0  0  0  0  0  0  0
   -3.4238   -2.6525    0.1681 H   0  0  0  0  0  0  0  0  0  0  0  0
   -2.7288   -3.3311   -1.3248 H   0  0  0  0  0  0  0  0  0  0  0  0
   -1.2792   -2.5218    0.0437 C   0  0  0  0  0  0  0  0  0  0  0  0
   -0.4207   -3.0809    0.7011 O   0  0  0  0  0  0  0  0  0  0  0  0
   -1.0708   -1.2408   -0.4277 N   0  0  0  0  0  0  0  0  0  0  0  0
   -1.7879   -0.8601   -1.0377 H   0  0  0  0  0  0  0  0  0  0  0  0
    0.2157   -0.5249   -0.3388 C   0  0  1  0  0  0  0  0  0  0  0  0
    0.9597   -1.1747   -0.8144 H   0  0  0  0  0  0  0  0  0  0  0  0
    0.1466    0.7478   -1.2073 C   0  0  0  0  0  0  0  0  0  0  0  0
    1.1761    1.1016   -1.3387 H   0  0  0  0  0  0  0  0  0  0  0  0
   -0.2336    0.4942   -2.2027 H   0  0  0  0  0  0  0  0  0  0  0  0
   -0.6872    1.9058   -0.6133 C   0  0  0  0  0  0  0  0  0  0  0  0
   -1.7521    1.6673   -0.6658 H   0  0  0  0  0  0  0  0  0  0  0  0
   -0.4277    2.0547    0.4363 H   0  0  0  0  0  0  0  0  0  0  0  0
   -0.4374    3.2419   -1.3121 C   0  0  0  0  0  0  0  0  0  0  0  0
   -0.1065    3.2515   -2.4862 O   0  0  0  0  0  0  0  0  0  0  0  0
   -0.6254    4.3640   -0.5810 O   0  0  0  0  0  0  0  0  0  0  0  0
   -0.4153    5.1041   -1.1708 H   0  0  0  0  0  0  0  0  0  0  0  0
    0.7657   -0.3007    1.0910 C   0  0  0  0  0  0  0  0  0  0  0  0
    1.9762   -0.2454    1.2613 O   0  0  0  0  0  0  0  0  0  0  0  0
   -0.0658    0.1339    2.1081 N   0  0  0  0  0  0  0  0  0  0  0  0
   -1.0586   -0.0190    1.9654 H   0  0  0  0  0  0  0  0  0  0  0  0
    0.4148    0.4076    3.4570 C   0  0  0  0  0  0  0  0  0  0  0  0
    1.1760    1.1950    3.4408 H   0  0  0  0  0  0  0  0  0  0  0  0
   -0.4105    0.7412    4.0930 H   0  0  0  0  0  0  0  0  0  0  0  0
    0.8516   -0.4949    3.8979 H   0  0  0  0  0  0  0  0  0  0  0  0
  1  2  1  0  0  0  0
  2  3  1  0  0  0  0
  2  4  1  0  0  0  0
  2  5  1  0  0  0  0
  5  6  2  0  0  0  0
  5  7  1  0  0  0  0
  7  8  1  0  0  0  0
  7  9  1  0  0  0  0
  9 10  1  0  0  0  0
  9 11  1  0  0  0  0
  9 21  1  0  0  0  0
 11 12  1  0  0  0  0
 11 13  1  0  0  0  0
 11 14  1  0  0  0  0
 14 15  1  0  0  0  0
 14 16  1  0  0  0  0
 14 17  1  0  0  0  0
 17 18  2  0  0  0  0
 17 19  1  0  0  0  0
 19 20  1  0  0  0  0
 21 22  2  0  0  0  0
 21 23  1  0  0  0  0
 23 24  1  0  0  0  0
 23 25  1  0  0  0  0
 25 26  1  0  0  0  0
 25 27  1  0  0  0  0
 25 28  1  0  0  0  0
M  END
$$$$

  -OEChem-02102214123D

 28 27  0     1  0  0  0  0  0999 V2000
   -2.6215   -4.2035    0.1930 H   0  0  0  0  0  0  0  0  0  0  0  0
   -2.6167   -3.2014   -0.2457 C   0  0  0  0  0  0  0  0  0  0  0  0
   -3.4418   -2.6264    0.1815 H   0  0  0  0  0  0  0  0  0  0  0  0
   -2.7623   -3.2906   -1.3251 H   0  0  0  0  0  0  0  0  0  0  0  0
   -1.2973   -2.5117    0.0454 C   0  0  0  0  0  0  0  0  0  0  0  0
   -0.4477   -3.0790    0.7074 O   0  0  0  0  0  0  0  0  0  0  0  0
   -1.0727   -1.2341   -0.4282 N   0  0  0  0  0  0  0  0  0  0  0  0
   -1.7840   -0.8477   -1.0416 H   0  0  0  0  0  0  0  0  0  0  0  0
    0.2254   -0.5376   -0.3452 C   0  0  1  0  0  0  0  0  0  0  0  0
    0.9544   -1.1986   -0.8288 H   0  0  0  0  0  0  0  0  0  0  0  0
    0.1622    0.7412   -1.2094 C   0  0  0  0  0  0  0  0  0  0  0  0
    1.1757    0.9442   -1.5747 H   0  0  0  0  0  0  0  0  0  0  0  0
   -0.4638    0.5570   -2.0891 H   0  0  0  0  0  0  0  0  0  0  0  0
   -0.3290    2.0039   -0.4660 C   0  0  0  0  0  0  0  0  0  0  0  0
   -1.3265    1.8264   -0.0568 H   0  0  0  0  0  0  0  0  0  0  0  0
    0.3436    2.2267    0.3671 H   0  0  0  0  0  0  0  0  0  0  0  0
   -0.3837    3.2551   -1.3439 C   0  0  0  0  0  0  0  0  0  0  0  0
   -0.2591    3.1560   -2.5537 O   0  0  0  0  0  0  0  0  0  0  0  0
   -0.5969    4.4317   -0.7121 O   0  0  0  0  0  0  0  0  0  0  0  0
   -0.5958    5.1098   -1.4050 H   0  0  0  0  0  0  0  0  0  0  0  0
    0.7831   -0.3222    1.0823 C   0  0  0  0  0  0  0  0  0  0  0  0
    1.9944   -0.2831    1.2515 O   0  0  0  0  0  0  0  0  0  0  0  0
   -0.0438    0.1259    2.0973 N   0  0  0  0  0  0  0  0  0  0  0  0
   -1.0389   -0.0079    1.9518 H   0  0  0  0  0  0  0  0  0  0  0  0
    0.4383    0.3991    3.4455 C   0  0  0  0  0  0  0  0  0  0  0  0
    1.2094    1.1766    3.4267 H   0  0  0  0  0  0  0  0  0  0  0  0
   -0.3836    0.7459    4.0790 H   0  0  0  0  0  0  0  0  0  0  0  0
    0.8630   -0.5070    3.8905 H   0  0  0  0  0  0  0  0  0  0  0  0
  1  2  1  0  0  0  0
  2  3  1  0  0  0  0
  2  4  1  0  0  0  0
  2  5  1  0  0  0  0
  5  6  2  0  0  0  0
  5  7  1  0  0  0  0
  7  8  1  0  0  0  0
  7  9  1  0  0  0  0
  9 10  1  0  0  0  0
  9 11  1  0  0  0  0
  9 21  1  0  0  0  0
 11 12  1  0  0  0  0
 11 13  1  0  0  0  0
 11 14  1  0  0  0  0
 14 15  1  0  0  0  0
 14 16  1  0  0  0  0
 14 17  1  0  0  0  0
 17 18  2  0  0  0  0
 17 19  1  0  0  0  0
 19 20  1  0  0  0  0
 21 22  2  0  0  0  0
 21 23  1  0  0  0  0
 23 24  1  0  0  0  0
 23 25  1  0  0  0  0
 25 26  1  0  0  0  0
 25 27  1  0  0  0  0
 25 28  1  0  0  0  0
M  END
$$$$

  -OEChem-02102214123D

 28 27  0     1  0  0  0  0  0999 V2000
   -2.6385   -4.1928    0.1917 H   0  0  0  0  0  0  0  0  0  0  0  0
   -2.6360   -3.1842   -0.2314 C   0  0  0  0  0  0  0  0  0  0  0  0
   -3.4538   -2.6136    0.2150 H   0  0  0  0  0  0  0  0  0  0  0  0
   -2.7959   -3.2560   -1.3099 H   0  0  0  0  0  0  0  0  0  0  0  0
   -1.3108   -2.5031    0.0531 C   0  0  0  0  0  0  0  0  0  0  0  0
   -0.4634   -3.0740    0.7148 O   0  0  0  0  0  0  0  0  0  0  0  0
   -1.0786   -1.2289   -0.4257 N   0  0  0  0  0  0  0  0  0  0  0  0
   -1.7903   -0.8379   -1.0359 H   0  0  0  0  0  0  0  0  0  0  0  0
    0.2245   -0.5410   -0.3491 C   0  0  1  0  0  0  0  0  0  0  0  0
    0.9465   -1.2098   -0.8319 H   0  0  0  0  0  0  0  0  0  0  0  0
    0.1748    0.7358   -1.2161 C   0  0  0  0  0  0  0  0  0  0  0  0
    1.1815    0.9355   -1.6007 H   0  0  0  0  0  0  0  0  0  0  0  0
   -0.4669    0.5467   -2.0834 H   0  0  0  0  0  0  0  0  0  0  0  0
   -0.3047    1.9963   -0.4620 C   0  0  0  0  0  0  0  0  0  0  0  0
   -1.1828    1.7458    0.1384 H   0  0  0  0  0  0  0  0  0  0  0  0
    0.4815    2.3386    0.2177 H   0  0  0  0  0  0  0  0  0  0  0  0
   -0.6983    3.1626   -1.3695 C   0  0  0  0  0  0  0  0  0  0  0  0
   -0.5593    3.0729   -2.5784 O   0  0  0  0  0  0  0  0  0  0  0  0
   -1.2095    4.2557   -0.7595 O   0  0  0  0  0  0  0  0  0  0  0  0
   -1.3896    4.8944   -1.4662 H   0  0  0  0  0  0  0  0  0  0  0  0
    0.7911   -0.3222    1.0749 C   0  0  0  0  0  0  0  0  0  0  0  0
    2.0036   -0.2940    1.2383 O   0  0  0  0  0  0  0  0  0  0  0  0
   -0.0267    0.1362    2.0926 N   0  0  0  0  0  0  0  0  0  0  0  0
   -1.0226    0.0015    1.9536 H   0  0  0  0  0  0  0  0  0  0  0  0
    0.4631    0.3908    3.4416 C   0  0  0  0  0  0  0  0  0  0  0  0
    1.2460    1.1565    3.4274 H   0  0  0  0  0  0  0  0  0  0  0  0
   -0.3520    0.7446    4.0799 H   0  0  0  0  0  0  0  0  0  0  0  0
    0.8746   -0.5257    3.8777 H   0  0  0  0  0  0  0  0  0  0  0  0
  1  2  1  0  0  0  0
  2  3  1  0  0  0  0
  2  4  1  0  0  0  0
  2  5  1  0  0  0  0
  5  6  2  0  0  0  0
  5  7  1  0  0  0  0
  7  8  1  0  0  0  0
  7  9  1  0  0  0  0
  9 10  1  0  0  0  0
  9 11  1  0  0  0  0
  9 21  1  0  0  0  0
 11 12  1  0  0  0  0
 11 13  1  0  0  0  0
 11 14  1  0  0  0  0
 14 15  1  0  0  0  0
 14 16  1  0  0  0  0
 14 17  1  0  0  0  0
 17 18  2  0  0  0  0
 17 19  1  0  0  0  0
 19 20  1  0  0  0  0
 21 22  2  0  0  0  0
 21 23  1  0  0  0  0
 23 24  1  0  0  0  0
 23 25  1  0  0  0  0
 25 26  1  0  0  0  0
 25 27  1  0  0  0  0
 25 28  1  0  0  0  0
M  END
$$$$

  -OEChem-02102214123D

 28 27  0     1  0  0  0  0  0999 V2000
   -2.6438   -4.1942    0.1983 H   0  0  0  0  0  0  0  0  0  0  0  0
   -2.6445   -3.1838   -0.2205 C   0  0  0  0  0  0  0  0  0  0  0  0
   -3.4560   -2.6139    0.2382 H   0  0  0  0  0  0  0  0  0  0  0  0
   -2.8170   -3.2511   -1.2974 H   0  0  0  0  0  0  0  0  0  0  0  0
   -1.3149   -2.5059    0.0509 C   0  0  0  0  0  0  0  0  0  0  0  0
   -0.4593   -3.0820    0.6974 O   0  0  0  0  0  0  0  0  0  0  0  0
   -1.0890   -1.2269   -0.4178 N   0  0  0  0  0  0  0  0  0  0  0  0
   -1.8082   -0.8291   -1.0148 H   0  0  0  0  0  0  0  0  0  0  0  0
    0.2121   -0.5355   -0.3404 C   0  0  1  0  0  0  0  0  0  0  0  0
    0.9309   -1.2075   -0.8242 H   0  0  0  0  0  0  0  0  0  0  0  0
    0.1756    0.7374   -1.2139 C   0  0  0  0  0  0  0  0  0  0  0  0
    1.1836    0.9321   -1.5969 H   0  0  0  0  0  0  0  0  0  0  0  0
   -0.4585    0.5331   -2.0828 H   0  0  0  0  0  0  0  0  0  0  0  0
   -0.3062    2.0087   -0.4745 C   0  0  0  0  0  0  0  0  0  0  0  0
   -1.0300    1.7257    0.2925 H   0  0  0  0  0  0  0  0  0  0  0  0
    0.5410    2.4862    0.0267 H   0  0  0  0  0  0  0  0  0  0  0  0
   -1.0180    3.0387   -1.3539 C   0  0  0  0  0  0  0  0  0  0  0  0
   -1.0052    2.9247   -2.5684 O   0  0  0  0  0  0  0  0  0  0  0  0
   -1.6489    4.0466   -0.7094 O   0  0  0  0  0  0  0  0  0  0  0  0
   -2.0240    4.6122   -1.4018 H   0  0  0  0  0  0  0  0  0  0  0  0
    0.7912   -0.3232    1.0801 C   0  0  0  0  0  0  0  0  0  0  0  0
    2.0053   -0.2934    1.2308 O   0  0  0  0  0  0  0  0  0  0  0  0
   -0.0146    0.1256    2.1115 N   0  0  0  0  0  0  0  0  0  0  0  0
   -1.0119   -0.0101    1.9839 H   0  0  0  0  0  0  0  0  0  0  0  0
    0.4905    0.3685    3.4572 C   0  0  0  0  0  0  0  0  0  0  0  0
    1.2747    1.1328    3.4414 H   0  0  0  0  0  0  0  0  0  0  0  0
   -0.3171    0.7182    4.1073 H   0  0  0  0  0  0  0  0  0  0  0  0
    0.9048   -0.5522    3.8814 H   0  0  0  0  0  0  0  0  0  0  0  0
  1  2  1  0  0  0  0
  2  3  1  0  0  0  0
  2  4  1  0  0  0  0
  2  5  1  0  0  0  0
  5  6  2  0  0  0  0
  5  7  1  0  0  0  0
  7  8  1  0  0  0  0
  7  9  1  0  0  0  0
  9 10  1  0  0  0  0
  9 11  1  0  0  0  0
  9 21  1  0  0  0  0
 11 12  1  0  0  0  0
 11 13  1  0  0  0  0
 11 14  1  0  0  0  0
 14 15  1  0  0  0  0
 14 16  1  0  0  0  0
 14 17  1  0  0  0  0
 17 18  2  0  0  0  0
 17 19  1  0  0  0  0
 19 20  1  0  0  0  0
 21 22  2  0  0  0  0
 21 23  1  0  0  0  0
 23 24  1  0  0  0  0
 23 25  1  0  0  0  0
 25 26  1  0  0  0  0
 25 27  1  0  0  0  0
 25 28  1  0  0  0  0
M  END
$$$$

  -OEChem-02102214123D

 28 27  0     1  0  0  0  0  0999 V2000
   -2.5540   -4.2144    0.1484 H   0  0  0  0  0  0  0  0  0  0  0  0
   -2.5778   -3.2002   -0.2606 C   0  0  0  0  0  0  0  0  0  0  0  0
   -3.3751   -2.6404    0.2339 H   0  0  0  0  0  0  0  0  0  0  0  0
   -2.7909   -3.2578   -1.3307 H   0  0  0  0  0  0  0  0  0  0  0  0
   -1.2432   -2.5158   -0.0341 C   0  0  0  0  0  0  0  0  0  0  0  0
   -0.3318   -3.1199    0.5019 O   0  0  0  0  0  0  0  0  0  0  0  0
   -1.0712   -1.2007   -0.4166 N   0  0  0  0  0  0  0  0  0  0  0  0
   -1.8581   -0.7437   -0.8716 H   0  0  0  0  0  0  0  0  0  0  0  0
    0.1987   -0.4605   -0.3080 C   0  0  1  0  0  0  0  0  0  0  0  0
    0.9367   -1.0777   -0.8340 H   0  0  0  0  0  0  0  0  0  0  0  0
    0.0952    0.8406   -1.1301 C   0  0  0  0  0  0  0  0  0  0  0  0
    1.0992    1.0941   -1.4885 H   0  0  0  0  0  0  0  0  0  0  0  0
   -0.5108    0.6459   -2.0219 H   0  0  0  0  0  0  0  0  0  0  0  0
   -0.4438    2.0665   -0.3584 C   0  0  0  0  0  0  0  0  0  0  0  0
   -0.9369    1.7655    0.5664 H   0  0  0  0  0  0  0  0  0  0  0  0
    0.3842    2.7299   -0.0903 H   0  0  0  0  0  0  0  0  0  0  0  0
   -1.4829    2.8317   -1.1697 C   0  0  0  0  0  0  0  0  0  0  0  0
   -2.5221    2.2574   -1.4550 O   0  0  0  0  0  0  0  0  0  0  0  0
   -1.2002    4.1018   -1.5391 O   0  0  0  0  0  0  0  0  0  0  0  0
   -1.9690    4.4159   -2.0390 H   0  0  0  0  0  0  0  0  0  0  0  0
    0.7936   -0.3135    1.1140 C   0  0  0  0  0  0  0  0  0  0  0  0
    2.0080   -0.2397    1.2459 O   0  0  0  0  0  0  0  0  0  0  0  0
   -0.0086    0.0322    2.1873 N   0  0  0  0  0  0  0  0  0  0  0  0
   -1.0028   -0.1323    2.0682 H   0  0  0  0  0  0  0  0  0  0  0  0
    0.5140    0.2112    3.5364 C   0  0  0  0  0  0  0  0  0  0  0  0
    1.2554    1.0170    3.5574 H   0  0  0  0  0  0  0  0  0  0  0  0
   -0.2957    0.4713    4.2247 H   0  0  0  0  0  0  0  0  0  0  0  0
    0.9871   -0.7116    3.8886 H   0  0  0  0  0  0  0  0  0  0  0  0
  1  2  1  0  0  0  0
  2  3  1  0  0  0  0
  2  4  1  0  0  0  0
  2  5  1  0  0  0  0
  5  6  2  0  0  0  0
  5  7  1  0  0  0  0
  7  8  1  0  0  0  0
  7  9  1  0  0  0  0
  9 10  1  0  0  0  0
  9 11  1  0  0  0  0
  9 21  1  0  0  0  0
 11 12  1  0  0  0  0
 11 13  1  0  0  0  0
 11 14  1  0  0  0  0
 14 15  1  0  0  0  0
 14 16  1  0  0  0  0
 14 17  1  0  0  0  0
 17 18  2  0  0  0  0
 17 19  1  0  0  0  0
 19 20  1  0  0  0  0
 21 22  2  0  0  0  0
 21 23  1  0  0  0  0
 23 24  1  0  0  0  0
 23 25  1  0  0  0  0
 25 26  1  0  0  0  0
 25 27  1  0  0  0  0
 25 28  1  0  0  0  0
M  END
$$$$

  -OEChem-02102214123D

 28 27  0     1  0  0  0  0  0999 V2000
   -2.6018   -4.1667    0.1674 H   0  0  0  0  0  0  0  0  0  0  0  0
   -2.6140   -3.1440   -0.2202 C   0  0  0  0  0  0  0  0  0  0  0  0
   -3.3682   -2.5703    0.3238 H   0  0  0  0  0  0  0  0  0  0  0  0
   -2.8813   -3.1723   -1.2793 H   0  0  0  0  0  0  0  0  0  0  0  0
   -1.2496   -2.5041   -0.0476 C   0  0  0  0  0  0  0  0  0  0  0  0
   -0.3303   -3.1445    0.4300 O   0  0  0  0  0  0  0  0  0  0  0  0
   -1.0605   -1.1867   -0.4111 N   0  0  0  0  0  0  0  0  0  0  0  0
   -1.8653   -0.6870   -0.7854 H   0  0  0  0  0  0  0  0  0  0  0  0
    0.2178   -0.4628   -0.3027 C   0  0  1  0  0  0  0  0  0  0  0  0
    0.9466   -1.0824   -0.8387 H   0  0  0  0  0  0  0  0  0  0  0  0
    0.1076    0.8367   -1.1270 C   0  0  0  0  0  0  0  0  0  0  0  0
    1.1201    1.0821   -1.4666 H   0  0  0  0  0  0  0  0  0  0  0  0
   -0.4777    0.6472   -2.0338 H   0  0  0  0  0  0  0  0  0  0  0  0
   -0.4230    2.0778   -0.3706 C   0  0  0  0  0  0  0  0  0  0  0  0
   -0.6352    1.8719    0.6772 H   0  0  0  0  0  0  0  0  0  0  0  0
    0.3371    2.8646   -0.3962 H   0  0  0  0  0  0  0  0  0  0  0  0
   -1.7024    2.6088   -1.0069 C   0  0  0  0  0  0  0  0  0  0  0  0
   -2.6461    1.8398   -1.1153 O   0  0  0  0  0  0  0  0  0  0  0  0
   -1.7298    3.8961   -1.4212 O   0  0  0  0  0  0  0  0  0  0  0  0
   -2.6139    4.0444   -1.7896 H   0  0  0  0  0  0  0  0  0  0  0  0
    0.8210   -0.3458    1.1181 C   0  0  0  0  0  0  0  0  0  0  0  0
    2.0365   -0.2881    1.2473 O   0  0  0  0  0  0  0  0  0  0  0  0
    0.0264   -0.0083    2.1996 N   0  0  0  0  0  0  0  0  0  0  0  0
   -0.9720   -0.1441    2.0780 H   0  0  0  0  0  0  0  0  0  0  0  0
    0.5531    0.1538    3.5490 C   0  0  0  0  0  0  0  0  0  0  0  0
    1.2929    0.9608    3.5777 H   0  0  0  0  0  0  0  0  0  0  0  0
   -0.2551    0.4029    4.2431 H   0  0  0  0  0  0  0  0  0  0  0  0
    1.0289   -0.7726    3.8880 H   0  0  0  0  0  0  0  0  0  0  0  0
  1  2  1  0  0  0  0
  2  3  1  0  0  0  0
  2  4  1  0  0  0  0
  2  5  1  0  0  0  0
  5  6  2  0  0  0  0
  5  7  1  0  0  0  0
  7  8  1  0  0  0  0
  7  9  1  0  0  0  0
  9 10  1  0  0  0  0
  9 11  1  0  0  0  0
  9 21  1  0  0  0  0
 11 12  1  0  0  0  0
 11 13  1  0  0  0  0
 11 14  1  0  0  0  0
 14 15  1  0  0  0  0
 14 16  1  0  0  0  0
 14 17  1  0  0  0  0
 17 18  2  0  0  0  0
 17 19  1  0  0  0  0
 19 20  1  0  0  0  0
 21 22  2  0  0  0  0
 21 23  1  0  0  0  0
 23 24  1  0  0  0  0
 23 25  1  0  0  0  0
 25 26  1  0  0  0  0
 25 27  1  0  0  0  0
 25 28  1  0  0  0  0
M  END
$$$$

  -OEChem-02102214123D

 28 27  0     1  0  0  0  0  0999 V2000
   -2.6402   -4.1262    0.2268 H   0  0  0  0  0  0  0  0  0  0  0  0
   -2.6362   -3.1069   -0.1697 C   0  0  0  0  0  0  0  0  0  0  0  0
   -3.3559   -2.5072    0.3927 H   0  0  0  0  0  0  0  0  0  0  0  0
   -2.9381   -3.1362   -1.2195 H   0  0  0  0  0  0  0  0  0  0  0  0
   -1.2496   -2.5043   -0.0485 C   0  0  0  0  0  0  0  0  0  0  0  0
   -0.3284   -3.1709    0.3883 O   0  0  0  0  0  0  0  0  0  0  0  0
   -1.0406   -1.1930   -0.4213 N   0  0  0  0  0  0  0  0  0  0  0  0
   -1.8578   -0.6563   -0.7126 H   0  0  0  0  0  0  0  0  0  0  0  0
    0.2467   -0.4853   -0.3190 C   0  0  1  0  0  0  0  0  0  0  0  0
    0.9709   -1.1110   -0.8539 H   0  0  0  0  0  0  0  0  0  0  0  0
    0.1333    0.8145   -1.1442 C   0  0  0  0  0  0  0  0  0  0  0  0
    1.1507    1.0505   -1.4757 H   0  0  0  0  0  0  0  0  0  0  0  0
   -0.4500    0.6372   -2.0549 H   0  0  0  0  0  0  0  0  0  0  0  0
   -0.3820    2.0630   -0.3906 C   0  0  0  0  0  0  0  0  0  0  0  0
   -0.2910    1.9841    0.6913 H   0  0  0  0  0  0  0  0  0  0  0  0
    0.2293    2.9192   -0.6912 H   0  0  0  0  0  0  0  0  0  0  0  0
   -1.8282    2.3806   -0.7593 C   0  0  0  0  0  0  0  0  0  0  0  0
   -2.6384    1.4641   -0.7559 O   0  0  0  0  0  0  0  0  0  0  0  0
   -2.1428    3.6594   -1.0673 O   0  0  0  0  0  0  0  0  0  0  0  0
   -3.0912    3.6675   -1.2670 H   0  0  0  0  0  0  0  0  0  0  0  0
    0.8392   -0.3727    1.1056 C   0  0  0  0  0  0  0  0  0  0  0  0
    2.0537   -0.3318    1.2485 O   0  0  0  0  0  0  0  0  0  0  0  0
    0.0354   -0.0198    2.1754 N   0  0  0  0  0  0  0  0  0  0  0  0
   -0.9649   -0.1239    2.0376 H   0  0  0  0  0  0  0  0  0  0  0  0
    0.5467    0.1470    3.5300 C   0  0  0  0  0  0  0  0  0  0  0  0
    1.2993    0.9420    3.5601 H   0  0  0  0  0  0  0  0  0  0  0  0
   -0.2661    0.4161    4.2112 H   0  0  0  0  0  0  0  0  0  0  0  0
    1.0033   -0.7836    3.8835 H   0  0  0  0  0  0  0  0  0  0  0  0
  1  2  1  0  0  0  0
  2  3  1  0  0  0  0
  2  4  1  0  0  0  0
  2  5  1  0  0  0  0
  5  6  2  0  0  0  0
  5  7  1  0  0  0  0
  7  8  1  0  0  0  0
  7  9  1  0  0  0  0
  9 10  1  0  0  0  0
  9 11  1  0  0  0  0
  9 21  1  0  0  0  0
 11 12  1  0  0  0  0
 11 13  1  0  0  0  0
 11 14  1  0  0  0  0
 14 15  1  0  0  0  0
 14 16  1  0  0  0  0
 14 17  1  0  0  0  0
 17 18  2  0  0  0  0
 17 19  1  0  0  0  0
 19 20  1  0  0  0  0
 21 22  2  0  0  0  0
 21 23  1  0  0  0  0
 23 24  1  0  0  0  0
 23 25  1  0  0  0  0
 25 26  1  0  0  0  0
 25 27  1  0  0  0  0
 25 28  1  0  0  0  0
M  END
$$$$

  -OEChem-02102214123D

 28 27  0     1  0  0  0  0  0999 V2000
   -2.6090   -4.1345    0.3342 H   0  0  0  0  0  0  0  0  0  0  0  0
   -2.6174   -3.1220   -0.0793 C   0  0  0  0  0  0  0  0  0  0  0  0
   -3.2898   -2.5030    0.5194 H   0  0  0  0  0  0  0  0  0  0  0  0
   -2.9888   -3.1634   -1.1060 H   0  0  0  0  0  0  0  0  0  0  0  0
   -1.2176   -2.5384   -0.0595 C   0  0  0  0  0  0  0  0  0  0  0  0
   -0.2802   -3.2124    0.3289 O   0  0  0  0  0  0  0  0  0  0  0  0
   -1.0154   -1.2336   -0.4582 N   0  0  0  0  0  0  0  0  0  0  0  0
   -1.8488   -0.6794   -0.6593 H   0  0  0  0  0  0  0  0  0  0  0  0
    0.2689   -0.5202   -0.3629 C   0  0  1  0  0  0  0  0  0  0  0  0
    1.0006   -1.1444   -0.8892 H   0  0  0  0  0  0  0  0  0  0  0  0
    0.1670    0.7915   -1.1763 C   0  0  0  0  0  0  0  0  0  0  0  0
    1.1849    1.0190   -1.5117 H   0  0  0  0  0  0  0  0  0  0  0  0
   -0.4294    0.6301   -2.0811 H   0  0  0  0  0  0  0  0  0  0  0  0
   -0.3348    2.0433   -0.4172 C   0  0  0  0  0  0  0  0  0  0  0  0
    0.0125    2.0733    0.6162 H   0  0  0  0  0  0  0  0  0  0  0  0
    0.0967    2.9201   -0.9092 H   0  0  0  0  0  0  0  0  0  0  0  0
   -1.8530    2.2145   -0.4617 C   0  0  0  0  0  0  0  0  0  0  0  0
   -2.5668    1.2225   -0.4178 O   0  0  0  0  0  0  0  0  0  0  0  0
   -2.3333    3.4766   -0.5386 O   0  0  0  0  0  0  0  0  0  0  0  0
   -3.2996    3.4030   -0.5544 H   0  0  0  0  0  0  0  0  0  0  0  0
    0.8327   -0.3905    1.0707 C   0  0  0  0  0  0  0  0  0  0  0  0
    2.0431   -0.3464    1.2433 O   0  0  0  0  0  0  0  0  0  0  0  0
   -0.0005   -0.0249    2.1136 N   0  0  0  0  0  0  0  0  0  0  0  0
   -0.9974   -0.1179    1.9453 H   0  0  0  0  0  0  0  0  0  0  0  0
    0.4722    0.1609    3.4797 C   0  0  0  0  0  0  0  0  0  0  0  0
    1.2153    0.9643    3.5223 H   0  0  0  0  0  0  0  0  0  0  0  0
   -0.3615    0.4277    4.1359 H   0  0  0  0  0  0  0  0  0  0  0  0
    0.9286   -0.7611    3.8553 H   0  0  0  0  0  0  0  0  0  0  0  0
  1  2  1  0  0  0  0
  2  3  1  0  0  0  0
  2  4  1  0  0  0  0
  2  5  1  0  0  0  0
  5  6  2  0  0  0  0
  5  7  1  0  0  0  0
  7  8  1  0  0  0  0
  7  9  1  0  0  0  0
  9 10  1  0  0  0  0
  9 11  1  0  0  0  0
  9 21  1  0  0  0  0
 11 12  1  0  0  0  0
 11 13  1  0  0  0  0
 11 14  1  0  0  0  0
 14 15  1  0  0  0  0
 14 16  1  0  0  0  0
 14 17  1  0  0  0  0
 17 18  2  0  0  0  0
 17 19  1  0  0  0  0
 19 20  1  0  0  0  0
 21 22  2  0  0  0  0
 21 23  1  0  0  0  0
 23 24  1  0  0  0  0
 23 25  1  0  0  0  0
 25 26  1  0  0  0  0
 25 27  1  0  0  0  0
 25 28  1  0  0  0  0
M  END
$$$$

  -OEChem-02102214123D

 28 27  0     1  0  0  0  0  0999 V2000
   -2.5995   -4.1761    0.3510 H   0  0  0  0  0  0  0  0  0  0  0  0
   -2.6050   -3.1698   -0.0771 C   0  0  0  0  0  0  0  0  0  0  0  0
   -3.2976   -2.5477    0.4946 H   0  0  0  0  0  0  0  0  0  0  0  0
   -2.9488   -3.2301   -1.1125 H   0  0  0  0  0  0  0  0  0  0  0  0
   -1.2109   -2.5744   -0.0292 C   0  0  0  0  0  0  0  0  0  0  0  0
   -0.2825   -3.2269    0.4139 O   0  0  0  0  0  0  0  0  0  0  0  0
   -1.0031   -1.2837   -0.4686 N   0  0  0  0  0  0  0  0  0  0  0  0
   -1.8309   -0.7429   -0.7222 H   0  0  0  0  0  0  0  0  0  0  0  0
    0.2790   -0.5658   -0.3802 C   0  0  1  0  0  0  0  0  0  0  0  0
    1.0184   -1.2004   -0.8827 H   0  0  0  0  0  0  0  0  0  0  0  0
    0.1957    0.7406   -1.2068 C   0  0  0  0  0  0  0  0  0  0  0  0
    1.2129    0.9562   -1.5517 H   0  0  0  0  0  0  0  0  0  0  0  0
   -0.4112    0.5732   -2.1032 H   0  0  0  0  0  0  0  0  0  0  0  0
   -0.2999    2.0074   -0.4657 C   0  0  0  0  0  0  0  0  0  0  0  0
    0.2481    2.1470    0.4695 H   0  0  0  0  0  0  0  0  0  0  0  0
   -0.0632    2.8706   -1.0940 H   0  0  0  0  0  0  0  0  0  0  0  0
   -1.8020    2.0734   -0.1799 C   0  0  0  0  0  0  0  0  0  0  0  0
   -2.5239    1.1218   -0.4394 O   0  0  0  0  0  0  0  0  0  0  0  0
   -2.2577    3.2224    0.3682 O   0  0  0  0  0  0  0  0  0  0  0  0
   -3.2149    3.1159    0.4761 H   0  0  0  0  0  0  0  0  0  0  0  0
    0.8195   -0.3891    1.0567 C   0  0  0  0  0  0  0  0  0  0  0  0
    2.0265   -0.3255    1.2461 O   0  0  0  0  0  0  0  0  0  0  0  0
   -0.0346    0.0099    2.0699 N   0  0  0  0  0  0  0  0  0  0  0  0
   -1.0261   -0.1174    1.8937 H   0  0  0  0  0  0  0  0  0  0  0  0
    0.4142    0.2530    3.4349 C   0  0  0  0  0  0  0  0  0  0  0  0
    1.1540    1.0603    3.4572 H   0  0  0  0  0  0  0  0  0  0  0  0
   -0.4312    0.5439    4.0655 H   0  0  0  0  0  0  0  0  0  0  0  0
    0.8669   -0.6514    3.8552 H   0  0  0  0  0  0  0  0  0  0  0  0
  1  2  1  0  0  0  0
  2  3  1  0  0  0  0
  2  4  1  0  0  0  0
  2  5  1  0  0  0  0
  5  6  2  0  0  0  0
  5  7  1  0  0  0  0
  7  8  1  0  0  0  0
  7  9  1  0  0  0  0
  9 10  1  0  0  0  0
  9 11  1  0  0  0  0
  9 21  1  0  0  0  0
 11 12  1  0  0  0  0
 11 13  1  0  0  0  0
 11 14  1  0  0  0  0
 14 15  1  0  0  0  0
 14 16  1  0  0  0  0
 14 17  1  0  0  0  0
 17 18  2  0  0  0  0
 17 19  1  0  0  0  0
 19 20  1  0  0  0  0
 21 22  2  0  0  0  0
 21 23  1  0  0  0  0
 23 24  1  0  0  0  0
 23 25  1  0  0  0  0
 25 26  1  0  0  0  0
 25 27  1  0  0  0  0
 25 28  1  0  0  0  0
M  END
$$$$

  -OEChem-02102214123D

 28 27  0     1  0  0  0  0  0999 V2000
   -2.6099   -4.1811    0.3497 H   0  0  0  0  0  0  0  0  0  0  0  0
   -2.6070   -3.1809   -0.0927 C   0  0  0  0  0  0  0  0  0  0  0  0
   -3.3097   -2.5504    0.4574 H   0  0  0  0  0  0  0  0  0  0  0  0
   -2.9319   -3.2551   -1.1333 H   0  0  0  0  0  0  0  0  0  0  0  0
   -1.2138   -2.5854   -0.0282 C   0  0  0  0  0  0  0  0  0  0  0  0
   -0.2927   -3.2319    0.4379 O   0  0  0  0  0  0  0  0  0  0  0  0
   -1.0018   -1.2973   -0.4723 N   0  0  0  0  0  0  0  0  0  0  0  0
   -1.8268   -0.7611   -0.7441 H   0  0  0  0  0  0  0  0  0  0  0  0
    0.2776   -0.5762   -0.3720 C   0  0  1  0  0  0  0  0  0  0  0  0
    1.0207   -1.2182   -0.8595 H   0  0  0  0  0  0  0  0  0  0  0  0
    0.2167    0.7214   -1.2134 C   0  0  0  0  0  0  0  0  0  0  0  0
    1.2346    0.9304   -1.5603 H   0  0  0  0  0  0  0  0  0  0  0  0
   -0.3913    0.5419   -2.1067 H   0  0  0  0  0  0  0  0  0  0  0  0
   -0.2888    1.9985   -0.4981 C   0  0  0  0  0  0  0  0  0  0  0  0
    0.3970    2.2454    0.3180 H   0  0  0  0  0  0  0  0  0  0  0  0
   -0.2513    2.8306   -1.2063 H   0  0  0  0  0  0  0  0  0  0  0  0
   -1.7082    1.9418    0.0717 C   0  0  0  0  0  0  0  0  0  0  0  0
   -2.5029    1.1134   -0.3477 O   0  0  0  0  0  0  0  0  0  0  0  0
   -2.0157    2.8469    1.0283 O   0  0  0  0  0  0  0  0  0  0  0  0
   -2.9470    2.7048    1.2550 H   0  0  0  0  0  0  0  0  0  0  0  0
    0.8148   -0.3806    1.0640 C   0  0  0  0  0  0  0  0  0  0  0  0
    2.0218   -0.3070    1.2504 O   0  0  0  0  0  0  0  0  0  0  0  0
   -0.0380    0.0278    2.0739 N   0  0  0  0  0  0  0  0  0  0  0  0
   -1.0283   -0.1193    1.9083 H   0  0  0  0  0  0  0  0  0  0  0  0
    0.4155    0.3051    3.4311 C   0  0  0  0  0  0  0  0  0  0  0  0
    1.1797    1.0895    3.4282 H   0  0  0  0  0  0  0  0  0  0  0  0
   -0.4217    0.6446    4.0483 H   0  0  0  0  0  0  0  0  0  0  0  0
    0.8397   -0.5973    3.8839 H   0  0  0  0  0  0  0  0  0  0  0  0
  1  2  1  0  0  0  0
  2  3  1  0  0  0  0
  2  4  1  0  0  0  0
  2  5  1  0  0  0  0
  5  6  2  0  0  0  0
  5  7  1  0  0  0  0
  7  8  1  0  0  0  0
  7  9  1  0  0  0  0
  9 10  1  0  0  0  0
  9 11  1  0  0  0  0
  9 21  1  0  0  0  0
 11 12  1  0  0  0  0
 11 13  1  0  0  0  0
 11 14  1  0  0  0  0
 14 15  1  0  0  0  0
 14 16  1  0  0  0  0
 14 17  1  0  0  0  0
 17 18  2  0  0  0  0
 17 19  1  0  0  0  0
 19 20  1  0  0  0  0
 21 22  2  0  0  0  0
 21 23  1  0  0  0  0
 23 24  1  0  0  0  0
 23 25  1  0  0  0  0
 25 26  1  0  0  0  0
 25 27  1  0  0  0  0
 25 28  1  0  0  0  0
M  END
$$$$

  -OEChem-02102214123D

 28 27  0     1  0  0  0  0  0999 V2000
   -2.5530   -4.2344    0.3377 H   0  0  0  0  0  0  0  0  0  0  0  0
   -2.5781   -3.2238   -0.0798 C   0  0  0  0  0  0  0  0  0  0  0  0
   -3.2625   -2.6144    0.5149 H   0  0  0  0  0  0  0  0  0  0  0  0
   -2.9464   -3.2763   -1.1073 H   0  0  0  0  0  0  0  0  0  0  0  0
   -1.1887   -2.6160   -0.0596 C   0  0  0  0  0  0  0  0  0  0  0  0
   -0.2427   -3.2678    0.3458 O   0  0  0  0  0  0  0  0  0  0  0  0
   -1.0057   -1.3142   -0.4773 N   0  0  0  0  0  0  0  0  0  0  0  0
   -1.8495   -0.7690   -0.6555 H   0  0  0  0  0  0  0  0  0  0  0  0
    0.2635   -0.5774   -0.3611 C   0  0  1  0  0  0  0  0  0  0  0  0
    1.0094   -1.2147   -0.8508 H   0  0  0  0  0  0  0  0  0  0  0  0
    0.2240    0.7218   -1.2011 C   0  0  0  0  0  0  0  0  0  0  0  0
    1.2445    0.9211   -1.5462 H   0  0  0  0  0  0  0  0  0  0  0  0
   -0.3801    0.5311   -2.0945 H   0  0  0  0  0  0  0  0  0  0  0  0
   -0.2914    2.0211   -0.5302 C   0  0  0  0  0  0  0  0  0  0  0  0
    0.4997    2.3879    0.1314 H   0  0  0  0  0  0  0  0  0  0  0  0
   -0.4434    2.7807   -1.3016 H   0  0  0  0  0  0  0  0  0  0  0  0
   -1.5681    1.9360    0.3089 C   0  0  0  0  0  0  0  0  0  0  0  0
   -2.4102    1.0888    0.0509 O   0  0  0  0  0  0  0  0  0  0  0  0
   -1.7106    2.8476    1.2980 O   0  0  0  0  0  0  0  0  0  0  0  0
   -2.5763    2.6869    1.7020 H   0  0  0  0  0  0  0  0  0  0  0  0
    0.8090   -0.4010    1.0744 C   0  0  0  0  0  0  0  0  0  0  0  0
    2.0167   -0.3184    1.2527 O   0  0  0  0  0  0  0  0  0  0  0  0
   -0.0366   -0.0252    2.1021 N   0  0  0  0  0  0  0  0  0  0  0  0
   -1.0303   -0.1507    1.9355 H   0  0  0  0  0  0  0  0  0  0  0  0
    0.4258    0.2478    3.4567 C   0  0  0  0  0  0  0  0  0  0  0  0
    1.1440    1.0746    3.4573 H   0  0  0  0  0  0  0  0  0  0  0  0
   -0.4176    0.5244    4.0963 H   0  0  0  0  0  0  0  0  0  0  0  0
    0.9088   -0.6386    3.8814 H   0  0  0  0  0  0  0  0  0  0  0  0
  1  2  1  0  0  0  0
  2  3  1  0  0  0  0
  2  4  1  0  0  0  0
  2  5  1  0  0  0  0
  5  6  2  0  0  0  0
  5  7  1  0  0  0  0
  7  8  1  0  0  0  0
  7  9  1  0  0  0  0
  9 10  1  0  0  0  0
  9 11  1  0  0  0  0
  9 21  1  0  0  0  0
 11 12  1  0  0  0  0
 11 13  1  0  0  0  0
 11 14  1  0  0  0  0
 14 15  1  0  0  0  0
 14 16  1  0  0  0  0
 14 17  1  0  0  0  0
 17 18  2  0  0  0  0
 17 19  1  0  0  0  0
 19 20  1  0  0  0  0
 21 22  2  0  0  0  0
 21 23  1  0  0  0  0
 23 24  1  0  0  0  0
 23 25  1  0  0  0  0
 25 26  1  0  0  0  0
 25 27  1  0  0  0  0
 25 28  1  0  0  0  0
M  END
$$$$

  -OEChem-02102214123D

 28 27  0     1  0  0  0  0  0999 V2000
   -2.2894   -4.1688    0.8417 H   0  0  0  0  0  0  0  0  0  0  0  0
   -2.3846   -3.1552    0.4424 C   0  0  0  0  0  0  0  0  0  0  0  0
   -2.9898   -2.5598    1.1302 H   0  0  0  0  0  0  0  0  0  0  0  0
   -2.8879   -3.2046   -0.5262 H   0  0  0  0  0  0  0  0  0  0  0  0
   -1.0142   -2.5267    0.2802 C   0  0  0  0  0  0  0  0  0  0  0  0
   -0.0171   -3.1342    0.6306 O   0  0  0  0  0  0  0  0  0  0  0  0
   -0.9064   -1.2426   -0.2098 N   0  0  0  0  0  0  0  0  0  0  0  0
   -1.7747   -0.7157   -0.3038 H   0  0  0  0  0  0  0  0  0  0  0  0
    0.3488   -0.4765   -0.2565 C   0  0  1  0  0  0  0  0  0  0  0  0
    1.0423   -1.1669   -0.7510 H   0  0  0  0  0  0  0  0  0  0  0  0
    0.2484    0.6995   -1.2568 C   0  0  0  0  0  0  0  0  0  0  0  0
    1.2443    0.8607   -1.6843 H   0  0  0  0  0  0  0  0  0  0  0  0
   -0.3985    0.3791   -2.0803 H   0  0  0  0  0  0  0  0  0  0  0  0
   -0.2622    2.0713   -0.7531 C   0  0  0  0  0  0  0  0  0  0  0  0
    0.6079    2.6379   -0.4067 H   0  0  0  0  0  0  0  0  0  0  0  0
   -0.6967    2.6265   -1.5884 H   0  0  0  0  0  0  0  0  0  0  0  0
   -1.2638    2.0580    0.3979 C   0  0  0  0  0  0  0  0  0  0  0  0
   -2.2312    1.3142    0.3172 O   0  0  0  0  0  0  0  0  0  0  0  0
   -1.0689    2.9244    1.4191 O   0  0  0  0  0  0  0  0  0  0  0  0
   -1.8074    2.7955    2.0315 H   0  0  0  0  0  0  0  0  0  0  0  0
    1.1068   -0.1742    1.0646 C   0  0  0  0  0  0  0  0  0  0  0  0
    2.2881    0.1264    0.9975 O   0  0  0  0  0  0  0  0  0  0  0  0
    0.5532    0.2638    2.2473 N   0  0  0  0  0  0  0  0  0  0  0  0
    1.2754    0.5910    2.8844 H   0  0  0  0  0  0  0  0  0  0  0  0
   -0.6061   -0.3769    2.8516 C   0  0  0  0  0  0  0  0  0  0  0  0
   -0.8022    0.0634    3.8339 H   0  0  0  0  0  0  0  0  0  0  0  0
   -1.5014   -0.2463    2.2401 H   0  0  0  0  0  0  0  0  0  0  0  0
   -0.4225   -1.4482    2.9862 H   0  0  0  0  0  0  0  0  0  0  0  0
  1  2  1  0  0  0  0
  2  3  1  0  0  0  0
  2  4  1  0  0  0  0
  2  5  1  0  0  0  0
  5  6  2  0  0  0  0
  5  7  1  0  0  0  0
  7  8  1  0  0  0  0
  7  9  1  0  0  0  0
  9 10  1  0  0  0  0
  9 11  1  0  0  0  0
  9 21  1  0  0  0  0
 11 12  1  0  0  0  0
 11 13  1  0  0  0  0
 11 14  1  0  0  0  0
 14 15  1  0  0  0  0
 14 16  1  0  0  0  0
 14 17  1  0  0  0  0
 17 18  2  0  0  0  0
 17 19  1  0  0  0  0
 19 20  1  0  0  0  0
 21 22  2  0  0  0  0
 21 23  1  0  0  0  0
 23 24  1  0  0  0  0
 23 25  1  0  0  0  0
 25 26  1  0  0  0  0
 25 27  1  0  0  0  0
 25 28  1  0  0  0  0
M  END
$$$$

  -OEChem-02102214123D

 28 27  0     1  0  0  0  0  0999 V2000
   -2.6447   -4.2758    0.2229 H   0  0  0  0  0  0  0  0  0  0  0  0
   -2.5901   -3.2614   -0.1823 C   0  0  0  0  0  0  0  0  0  0  0  0
   -3.3234   -2.6364    0.3330 H   0  0  0  0  0  0  0  0  0  0  0  0
   -2.8329   -3.2944   -1.2471 H   0  0  0  0  0  0  0  0  0  0  0  0
   -1.1969   -2.6947    0.0133 C   0  0  0  0  0  0  0  0  0  0  0  0
   -0.3318   -3.3692    0.5441 O   0  0  0  0  0  0  0  0  0  0  0  0
   -0.9201   -1.4074   -0.3995 N   0  0  0  0  0  0  0  0  0  0  0  0
   -1.7249   -0.8435   -0.6696 H   0  0  0  0  0  0  0  0  0  0  0  0
    0.3169   -0.6867   -0.0581 C   0  0  1  0  0  0  0  0  0  0  0  0
    1.1068   -1.3985   -0.3275 H   0  0  0  0  0  0  0  0  0  0  0  0
    0.5647    0.4866   -1.0390 C   0  0  0  0  0  0  0  0  0  0  0  0
    1.6504    0.6001   -1.1367 H   0  0  0  0  0  0  0  0  0  0  0  0
    0.1983    0.1728   -2.0224 H   0  0  0  0  0  0  0  0  0  0  0  0
   -0.0135    1.8966   -0.7447 C   0  0  0  0  0  0  0  0  0  0  0  0
    0.8183    2.5319   -0.4281 H   0  0  0  0  0  0  0  0  0  0  0  0
   -0.4017    2.3215   -1.6750 H   0  0  0  0  0  0  0  0  0  0  0  0
   -1.1052    2.0066    0.3155 C   0  0  0  0  0  0  0  0  0  0  0  0
   -2.0877    1.2875    0.1919 O   0  0  0  0  0  0  0  0  0  0  0  0
   -0.9266    2.8945    1.3295 O   0  0  0  0  0  0  0  0  0  0  0  0
   -0.0555    3.3064    1.2416 H   0  0  0  0  0  0  0  0  0  0  0  0
    0.6128   -0.4571    1.4446 C   0  0  0  0  0  0  0  0  0  0  0  0
    1.7781   -0.3566    1.8056 O   0  0  0  0  0  0  0  0  0  0  0  0
   -0.3703   -0.0290    2.3170 N   0  0  0  0  0  0  0  0  0  0  0  0
   -1.3164    0.0436    1.9470 H   0  0  0  0  0  0  0  0  0  0  0  0
   -0.1122    0.4020    3.6850 C   0  0  0  0  0  0  0  0  0  0  0  0
    0.5477    1.2756    3.6949 H   0  0  0  0  0  0  0  0  0  0  0  0
   -1.0508    0.6725    4.1784 H   0  0  0  0  0  0  0  0  0  0  0  0
    0.3597   -0.4038    4.2571 H   0  0  0  0  0  0  0  0  0  0  0  0
  1  2  1  0  0  0  0
  2  3  1  0  0  0  0
  2  4  1  0  0  0  0
  2  5  1  0  0  0  0
  5  6  2  0  0  0  0
  5  7  1  0  0  0  0
  7  8  1  0  0  0  0
  7  9  1  0  0  0  0
  9 10  1  0  0  0  0
  9 11  1  0  0  0  0
  9 21  1  0  0  0  0
 11 12  1  0  0  0  0
 11 13  1  0  0  0  0
 11 14  1  0  0  0  0
 14 15  1  0  0  0  0
 14 16  1  0  0  0  0
 14 17  1  0  0  0  0
 17 18  2  0  0  0  0
 17 19  1  0  0  0  0
 19 20  1  0  0  0  0
 21 22  2  0  0  0  0
 21 23  1  0  0  0  0
 23 24  1  0  0  0  0
 23 25  1  0  0  0  0
 25 26  1  0  0  0  0
 25 27  1  0  0  0  0
 25 28  1  0  0  0  0
M  END
$$$$

  -OEChem-02102214123D

 28 27  0     1  0  0  0  0  0999 V2000
   -2.4817   -4.3686    0.2905 H   0  0  0  0  0  0  0  0  0  0  0  0
   -2.5541   -3.3265   -0.0335 C   0  0  0  0  0  0  0  0  0  0  0  0
   -3.2210   -2.7924    0.6477 H   0  0  0  0  0  0  0  0  0  0  0  0
   -2.9750   -3.2995   -1.0415 H   0  0  0  0  0  0  0  0  0  0  0  0
   -1.1808   -2.6821   -0.0280 C   0  0  0  0  0  0  0  0  0  0  0  0
   -0.2022   -3.3353    0.2891 O   0  0  0  0  0  0  0  0  0  0  0  0
   -1.0490   -1.3502   -0.3674 N   0  0  0  0  0  0  0  0  0  0  0  0
   -1.9155   -0.8273   -0.4721 H   0  0  0  0  0  0  0  0  0  0  0  0
    0.1915   -0.5789   -0.1870 C   0  0  1  0  0  0  0  0  0  0  0  0
    0.9508   -1.2340   -0.6321 H   0  0  0  0  0  0  0  0  0  0  0  0
    0.2327    0.6439   -1.1389 C   0  0  0  0  0  0  0  0  0  0  0  0
    1.2908    0.8158   -1.3668 H   0  0  0  0  0  0  0  0  0  0  0  0
   -0.2397    0.3517   -2.0830 H   0  0  0  0  0  0  0  0  0  0  0  0
   -0.3513    2.0166   -0.7129 C   0  0  0  0  0  0  0  0  0  0  0  0
    0.4413    2.7660   -0.7914 H   0  0  0  0  0  0  0  0  0  0  0  0
   -1.1220    2.3013   -1.4356 H   0  0  0  0  0  0  0  0  0  0  0  0
   -0.9735    2.1246    0.6714 C   0  0  0  0  0  0  0  0  0  0  0  0
   -2.0180    1.5147    0.8566 O   0  0  0  0  0  0  0  0  0  0  0  0
   -0.3405    2.8751    1.6117 O   0  0  0  0  0  0  0  0  0  0  0  0
    0.5069    3.1804    1.2579 H   0  0  0  0  0  0  0  0  0  0  0  0
    0.7464   -0.4471    1.2539 C   0  0  0  0  0  0  0  0  0  0  0  0
    1.9534   -0.3049    1.4015 O   0  0  0  0  0  0  0  0  0  0  0  0
   -0.0744   -0.1540    2.3272 N   0  0  0  0  0  0  0  0  0  0  0  0
   -1.0642   -0.0238    2.1245 H   0  0  0  0  0  0  0  0  0  0  0  0
    0.4229    0.2198    3.6453 C   0  0  0  0  0  0  0  0  0  0  0  0
    0.9748    1.1639    3.5945 H   0  0  0  0  0  0  0  0  0  0  0  0
   -0.4119    0.3434    4.3418 H   0  0  0  0  0  0  0  0  0  0  0  0
    1.0872   -0.5572    4.0381 H   0  0  0  0  0  0  0  0  0  0  0  0
  1  2  1  0  0  0  0
  2  3  1  0  0  0  0
  2  4  1  0  0  0  0
  2  5  1  0  0  0  0
  5  6  2  0  0  0  0
  5  7  1  0  0  0  0
  7  8  1  0  0  0  0
  7  9  1  0  0  0  0
  9 10  1  0  0  0  0
  9 11  1  0  0  0  0
  9 21  1  0  0  0  0
 11 12  1  0  0  0  0
 11 13  1  0  0  0  0
 11 14  1  0  0  0  0
 14 15  1  0  0  0  0
 14 16  1  0  0  0  0
 14 17  1  0  0  0  0
 17 18  2  0  0  0  0
 17 19  1  0  0  0  0
 19 20  1  0  0  0  0
 21 22  2  0  0  0  0
 21 23  1  0  0  0  0
 23 24  1  0  0  0  0
 23 25  1  0  0  0  0
 25 26  1  0  0  0  0
 25 27  1  0  0  0  0
 25 28  1  0  0  0  0
M  END
$$$$

  -OEChem-02102214123D

 28 27  0     1  0  0  0  0  0999 V2000
   -3.0890   -3.9201    0.2226 H   0  0  0  0  0  0  0  0  0  0  0  0
   -2.9552   -2.8996   -0.1479 C   0  0  0  0  0  0  0  0  0  0  0  0
   -3.6153   -2.2333    0.4124 H   0  0  0  0  0  0  0  0  0  0  0  0
   -3.2297   -2.8712   -1.2052 H   0  0  0  0  0  0  0  0  0  0  0  0
   -1.5114   -2.4675    0.0237 C   0  0  0  0  0  0  0  0  0  0  0  0
   -0.6956   -3.2441    0.4864 O   0  0  0  0  0  0  0  0  0  0  0  0
   -1.1311   -1.1896   -0.3360 N   0  0  0  0  0  0  0  0  0  0  0  0
   -1.8621   -0.5667   -0.6669 H   0  0  0  0  0  0  0  0  0  0  0  0
    0.2324   -0.6521   -0.1853 C   0  0  1  0  0  0  0  0  0  0  0  0
    0.8561   -1.4373   -0.6309 H   0  0  0  0  0  0  0  0  0  0  0  0
    0.4550    0.5323   -1.1607 C   0  0  0  0  0  0  0  0  0  0  0  0
    1.5291    0.5176   -1.3797 H   0  0  0  0  0  0  0  0  0  0  0  0
   -0.0521    0.3064   -2.1045 H   0  0  0  0  0  0  0  0  0  0  0  0
    0.1367    2.0017   -0.7770 C   0  0  0  0  0  0  0  0  0  0  0  0
    0.9346    2.6405   -1.1688 H   0  0  0  0  0  0  0  0  0  0  0  0
   -0.7784    2.2881   -1.3024 H   0  0  0  0  0  0  0  0  0  0  0  0
   -0.0829    2.3639    0.6843 C   0  0  0  0  0  0  0  0  0  0  0  0
    0.8236    2.8963    1.2983 O   0  0  0  0  0  0  0  0  0  0  0  0
   -1.3162    2.1515    1.2056 O   0  0  0  0  0  0  0  0  0  0  0  0
   -1.2719    2.5214    2.1020 H   0  0  0  0  0  0  0  0  0  0  0  0
    0.8205   -0.6032    1.2464 C   0  0  0  0  0  0  0  0  0  0  0  0
    2.0240   -0.7599    1.3990 O   0  0  0  0  0  0  0  0  0  0  0  0
    0.0747   -0.1501    2.3182 N   0  0  0  0  0  0  0  0  0  0  0  0
   -0.9153    0.0048    2.1548 H   0  0  0  0  0  0  0  0  0  0  0  0
    0.6233    0.0428    3.6548 C   0  0  0  0  0  0  0  0  0  0  0  0
    1.4131    0.8015    3.6374 H   0  0  0  0  0  0  0  0  0  0  0  0
   -0.1598    0.3746    4.3428 H   0  0  0  0  0  0  0  0  0  0  0  0
    1.0433   -0.8946    4.0350 H   0  0  0  0  0  0  0  0  0  0  0  0
  1  2  1  0  0  0  0
  2  3  1  0  0  0  0
  2  4  1  0  0  0  0
  2  5  1  0  0  0  0
  5  6  2  0  0  0  0
  5  7  1  0  0  0  0
  7  8  1  0  0  0  0
  7  9  1  0  0  0  0
  9 10  1  0  0  0  0
  9 11  1  0  0  0  0
  9 21  1  0  0  0  0
 11 12  1  0  0  0  0
 11 13  1  0  0  0  0
 11 14  1  0  0  0  0
 14 15  1  0  0  0  0
 14 16  1  0  0  0  0
 14 17  1  0  0  0  0
 17 18  2  0  0  0  0
 17 19  1  0  0  0  0
 19 20  1  0  0  0  0
 21 22  2  0  0  0  0
 21 23  1  0  0  0  0
 23 24  1  0  0  0  0
 23 25  1  0  0  0  0
 25 26  1  0  0  0  0
 25 27  1  0  0  0  0
 25 28  1  0  0  0  0
M  END
$$$$

  -OEChem-02102214123D

 28 27  0     1  0  0  0  0  0999 V2000
   -3.1209   -3.8575    0.0597 H   0  0  0  0  0  0  0  0  0  0  0  0
   -2.9748   -2.8260   -0.2740 C   0  0  0  0  0  0  0  0  0  0  0  0
   -3.6451   -2.1754    0.2925 H   0  0  0  0  0  0  0  0  0  0  0  0
   -3.2249   -2.7621   -1.3358 H   0  0  0  0  0  0  0  0  0  0  0  0
   -1.5336   -2.4061   -0.0543 C   0  0  0  0  0  0  0  0  0  0  0  0
   -0.7361   -3.1954    0.4177 O   0  0  0  0  0  0  0  0  0  0  0  0
   -1.1349   -1.1262   -0.3864 N   0  0  0  0  0  0  0  0  0  0  0  0
   -1.8440   -0.5073   -0.7677 H   0  0  0  0  0  0  0  0  0  0  0  0
    0.2384   -0.6129   -0.2318 C   0  0  1  0  0  0  0  0  0  0  0  0
    0.8571   -1.3821   -0.7108 H   0  0  0  0  0  0  0  0  0  0  0  0
    0.4360    0.6147   -1.1606 C   0  0  0  0  0  0  0  0  0  0  0  0
    1.5058    0.6129   -1.4000 H   0  0  0  0  0  0  0  0  0  0  0  0
   -0.0906    0.4332   -2.1034 H   0  0  0  0  0  0  0  0  0  0  0  0
    0.1295    2.0633   -0.7007 C   0  0  0  0  0  0  0  0  0  0  0  0
    0.7443    2.7508   -1.2895 H   0  0  0  0  0  0  0  0  0  0  0  0
   -0.9121    2.2748   -0.9578 H   0  0  0  0  0  0  0  0  0  0  0  0
    0.2926    2.4298    0.7670 C   0  0  0  0  0  0  0  0  0  0  0  0
    1.4057    2.6989    1.1790 O   0  0  0  0  0  0  0  0  0  0  0  0
   -0.8262    2.5019    1.5275 O   0  0  0  0  0  0  0  0  0  0  0  0
   -0.5147    2.7840    2.4022 H   0  0  0  0  0  0  0  0  0  0  0  0
    0.8191   -0.6138    1.2034 C   0  0  0  0  0  0  0  0  0  0  0  0
    2.0106   -0.8379    1.3657 O   0  0  0  0  0  0  0  0  0  0  0  0
    0.0746   -0.1770    2.2836 N   0  0  0  0  0  0  0  0  0  0  0  0
   -0.9099    0.0086    2.1202 H   0  0  0  0  0  0  0  0  0  0  0  0
    0.6020   -0.1109    3.6408 C   0  0  0  0  0  0  0  0  0  0  0  0
    1.4591    0.5697    3.6849 H   0  0  0  0  0  0  0  0  0  0  0  0
   -0.1653    0.2543    4.3297 H   0  0  0  0  0  0  0  0  0  0  0  0
    0.9233   -1.1034    3.9740 H   0  0  0  0  0  0  0  0  0  0  0  0
  1  2  1  0  0  0  0
  2  3  1  0  0  0  0
  2  4  1  0  0  0  0
  2  5  1  0  0  0  0
  5  6  2  0  0  0  0
  5  7  1  0  0  0  0
  7  8  1  0  0  0  0
  7  9  1  0  0  0  0
  9 10  1  0  0  0  0
  9 11  1  0  0  0  0
  9 21  1  0  0  0  0
 11 12  1  0  0  0  0
 11 13  1  0  0  0  0
 11 14  1  0  0  0  0
 14 15  1  0  0  0  0
 14 16  1  0  0  0  0
 14 17  1  0  0  0  0
 17 18  2  0  0  0  0
 17 19  1  0  0  0  0
 19 20  1  0  0  0  0
 21 22  2  0  0  0  0
 21 23  1  0  0  0  0
 23 24  1  0  0  0  0
 23 25  1  0  0  0  0
 25 26  1  0  0  0  0
 25 27  1  0  0  0  0
 25 28  1  0  0  0  0
M  END
$$$$

  -OEChem-02102214123D

 28 27  0     1  0  0  0  0  0999 V2000
   -2.8315   -4.0362    0.2213 H   0  0  0  0  0  0  0  0  0  0  0  0
   -2.7617   -3.0174   -0.1707 C   0  0  0  0  0  0  0  0  0  0  0  0
   -3.4825   -2.3883    0.3569 H   0  0  0  0  0  0  0  0  0  0  0  0
   -3.0094   -3.0329   -1.2347 H   0  0  0  0  0  0  0  0  0  0  0  0
   -1.3577   -2.4784    0.0274 C   0  0  0  0  0  0  0  0  0  0  0  0
   -0.5095   -3.1754    0.5528 O   0  0  0  0  0  0  0  0  0  0  0  0
   -1.0526   -1.1942   -0.3799 N   0  0  0  0  0  0  0  0  0  0  0  0
   -1.7931   -0.6680   -0.8331 H   0  0  0  0  0  0  0  0  0  0  0  0
    0.2850   -0.5812   -0.2741 C   0  0  1  0  0  0  0  0  0  0  0  0
    0.9626   -1.3039   -0.7446 H   0  0  0  0  0  0  0  0  0  0  0  0
    0.3338    0.6504   -1.2186 C   0  0  0  0  0  0  0  0  0  0  0  0
    1.3837    0.7420   -1.5204 H   0  0  0  0  0  0  0  0  0  0  0  0
   -0.2308    0.4214   -2.1284 H   0  0  0  0  0  0  0  0  0  0  0  0
   -0.0781    2.0615   -0.7288 C   0  0  0  0  0  0  0  0  0  0  0  0
    0.2313    2.7938   -1.4802 H   0  0  0  0  0  0  0  0  0  0  0  0
   -1.1699    2.0923   -0.6833 H   0  0  0  0  0  0  0  0  0  0  0  0
    0.4392    2.5406    0.6214 C   0  0  0  0  0  0  0  0  0  0  0  0
    1.6380    2.7003    0.7562 O   0  0  0  0  0  0  0  0  0  0  0  0
   -0.4687    2.8253    1.5844 O   0  0  0  0  0  0  0  0  0  0  0  0
    0.0563    3.1191    2.3455 H   0  0  0  0  0  0  0  0  0  0  0  0
    0.8540   -0.4782    1.1615 C   0  0  0  0  0  0  0  0  0  0  0  0
    2.0500   -0.6471    1.3520 O   0  0  0  0  0  0  0  0  0  0  0  0
    0.0668   -0.0398    2.2109 N   0  0  0  0  0  0  0  0  0  0  0  0
   -0.9276    0.0514    2.0313 H   0  0  0  0  0  0  0  0  0  0  0  0
    0.5517    0.0506    3.5820 C   0  0  0  0  0  0  0  0  0  0  0  0
    1.4133    0.7241    3.6402 H   0  0  0  0  0  0  0  0  0  0  0  0
   -0.2343    0.4376    4.2373 H   0  0  0  0  0  0  0  0  0  0  0  0
    0.8526   -0.9375    3.9459 H   0  0  0  0  0  0  0  0  0  0  0  0
  1  2  1  0  0  0  0
  2  3  1  0  0  0  0
  2  4  1  0  0  0  0
  2  5  1  0  0  0  0
  5  6  2  0  0  0  0
  5  7  1  0  0  0  0
  7  8  1  0  0  0  0
  7  9  1  0  0  0  0
  9 10  1  0  0  0  0
  9 11  1  0  0  0  0
  9 21  1  0  0  0  0
 11 12  1  0  0  0  0
 11 13  1  0  0  0  0
 11 14  1  0  0  0  0
 14 15  1  0  0  0  0
 14 16  1  0  0  0  0
 14 17  1  0  0  0  0
 17 18  2  0  0  0  0
 17 19  1  0  0  0  0
 19 20  1  0  0  0  0
 21 22  2  0  0  0  0
 21 23  1  0  0  0  0
 23 24  1  0  0  0  0
 23 25  1  0  0  0  0
 25 26  1  0  0  0  0
 25 27  1  0  0  0  0
 25 28  1  0  0  0  0
M  END
$$$$

  -OEChem-02102214123D

 28 27  0     1  0  0  0  0  0999 V2000
   -2.7805   -4.0571    0.2695 H   0  0  0  0  0  0  0  0  0  0  0  0
   -2.7200   -3.0484   -0.1494 C   0  0  0  0  0  0  0  0  0  0  0  0
   -3.4630   -2.4179    0.3445 H   0  0  0  0  0  0  0  0  0  0  0  0
   -2.9442   -3.0981   -1.2177 H   0  0  0  0  0  0  0  0  0  0  0  0
   -1.3304   -2.4786    0.0636 C   0  0  0  0  0  0  0  0  0  0  0  0
   -0.4882   -3.1365    0.6457 O   0  0  0  0  0  0  0  0  0  0  0  0
   -1.0322   -1.2110   -0.3974 N   0  0  0  0  0  0  0  0  0  0  0  0
   -1.7604   -0.7301   -0.9161 H   0  0  0  0  0  0  0  0  0  0  0  0
    0.3007   -0.5830   -0.3085 C   0  0  1  0  0  0  0  0  0  0  0  0
    0.9970   -1.2963   -0.7656 H   0  0  0  0  0  0  0  0  0  0  0  0
    0.3086    0.6523   -1.2478 C   0  0  0  0  0  0  0  0  0  0  0  0
    1.3409    0.7682   -1.5984 H   0  0  0  0  0  0  0  0  0  0  0  0
   -0.2951    0.4274   -2.1330 H   0  0  0  0  0  0  0  0  0  0  0  0
   -0.1244    2.0320   -0.6950 C   0  0  0  0  0  0  0  0  0  0  0  0
   -0.0841    2.7624   -1.5078 H   0  0  0  0  0  0  0  0  0  0  0  0
   -1.1665    1.9629   -0.3718 H   0  0  0  0  0  0  0  0  0  0  0  0
    0.6911    2.5971    0.4649 C   0  0  0  0  0  0  0  0  0  0  0  0
    1.8999    2.6692    0.3399 O   0  0  0  0  0  0  0  0  0  0  0  0
    0.0216    3.0524    1.5489 O   0  0  0  0  0  0  0  0  0  0  0  0
    0.7094    3.3644    2.1577 H   0  0  0  0  0  0  0  0  0  0  0  0
    0.8416   -0.4205    1.1321 C   0  0  0  0  0  0  0  0  0  0  0  0
    2.0357   -0.5610    1.3547 O   0  0  0  0  0  0  0  0  0  0  0  0
    0.0243    0.0539    2.1421 N   0  0  0  0  0  0  0  0  0  0  0  0
   -0.9690    0.0952    1.9415 H   0  0  0  0  0  0  0  0  0  0  0  0
    0.4716    0.1917    3.5220 C   0  0  0  0  0  0  0  0  0  0  0  0
    1.3363    0.8613    3.5800 H   0  0  0  0  0  0  0  0  0  0  0  0
   -0.3291    0.6095    4.1395 H   0  0  0  0  0  0  0  0  0  0  0  0
    0.7545   -0.7842    3.9307 H   0  0  0  0  0  0  0  0  0  0  0  0
  1  2  1  0  0  0  0
  2  3  1  0  0  0  0
  2  4  1  0  0  0  0
  2  5  1  0  0  0  0
  5  6  2  0  0  0  0
  5  7  1  0  0  0  0
  7  8  1  0  0  0  0
  7  9  1  0  0  0  0
  9 10  1  0  0  0  0
  9 11  1  0  0  0  0
  9 21  1  0  0  0  0
 11 12  1  0  0  0  0
 11 13  1  0  0  0  0
 11 14  1  0  0  0  0
 14 15  1  0  0  0  0
 14 16  1  0  0  0  0
 14 17  1  0  0  0  0
 17 18  2  0  0  0  0
 17 19  1  0  0  0  0
 19 20  1  0  0  0  0
 21 22  2  0  0  0  0
 21 23  1  0  0  0  0
 23 24  1  0  0  0  0
 23 25  1  0  0  0  0
 25 26  1  0  0  0  0
 25 27  1  0  0  0  0
 25 28  1  0  0  0  0
M  END
$$$$

  -OEChem-02102214123D

 28 27  0     1  0  0  0  0  0999 V2000
   -2.7259   -4.0931    0.2877 H   0  0  0  0  0  0  0  0  0  0  0  0
   -2.6834   -3.0907   -0.1483 C   0  0  0  0  0  0  0  0  0  0  0  0
   -3.4487   -2.4696    0.3230 H   0  0  0  0  0  0  0  0  0  0  0  0
   -2.8899   -3.1650   -1.2186 H   0  0  0  0  0  0  0  0  0  0  0  0
   -1.3116   -2.4836    0.0753 C   0  0  0  0  0  0  0  0  0  0  0  0
   -0.4688   -3.1028    0.6977 O   0  0  0  0  0  0  0  0  0  0  0  0
   -1.0293   -1.2261   -0.4219 N   0  0  0  0  0  0  0  0  0  0  0  0
   -1.7507   -0.7845   -0.9832 H   0  0  0  0  0  0  0  0  0  0  0  0
    0.2942   -0.5772   -0.3409 C   0  0  1  0  0  0  0  0  0  0  0  0
    1.0064   -1.2811   -0.7875 H   0  0  0  0  0  0  0  0  0  0  0  0
    0.2886    0.6649   -1.2673 C   0  0  0  0  0  0  0  0  0  0  0  0
    1.3064    0.7960   -1.6533 H   0  0  0  0  0  0  0  0  0  0  0  0
   -0.3441    0.4540   -2.1355 H   0  0  0  0  0  0  0  0  0  0  0  0
   -0.1624    2.0067   -0.6435 C   0  0  0  0  0  0  0  0  0  0  0  0
   -0.3775    2.7138   -1.4491 H   0  0  0  0  0  0  0  0  0  0  0  0
   -1.0913    1.8531   -0.0882 H   0  0  0  0  0  0  0  0  0  0  0  0
    0.8622    2.6721    0.2765 C   0  0  0  0  0  0  0  0  0  0  0  0
    2.0090    2.7897   -0.1177 O   0  0  0  0  0  0  0  0  0  0  0  0
    0.4271    3.1531    1.4634 O   0  0  0  0  0  0  0  0  0  0  0  0
    1.2181    3.5080    1.8982 H   0  0  0  0  0  0  0  0  0  0  0  0
    0.8176   -0.3659    1.0998 C   0  0  0  0  0  0  0  0  0  0  0  0
    2.0172   -0.4303    1.3283 O   0  0  0  0  0  0  0  0  0  0  0  0
   -0.0226    0.1263    2.0821 N   0  0  0  0  0  0  0  0  0  0  0  0
   -1.0160    0.1015    1.8799 H   0  0  0  0  0  0  0  0  0  0  0  0
    0.4103    0.3540    3.4550 C   0  0  0  0  0  0  0  0  0  0  0  0
    1.2483    1.0582    3.4815 H   0  0  0  0  0  0  0  0  0  0  0  0
   -0.4095    0.7739    4.0456 H   0  0  0  0  0  0  0  0  0  0  0  0
    0.7267   -0.5873    3.9166 H   0  0  0  0  0  0  0  0  0  0  0  0
  1  2  1  0  0  0  0
  2  3  1  0  0  0  0
  2  4  1  0  0  0  0
  2  5  1  0  0  0  0
  5  6  2  0  0  0  0
  5  7  1  0  0  0  0
  7  8  1  0  0  0  0
  7  9  1  0  0  0  0
  9 10  1  0  0  0  0
  9 11  1  0  0  0  0
  9 21  1  0  0  0  0
 11 12  1  0  0  0  0
 11 13  1  0  0  0  0
 11 14  1  0  0  0  0
 14 15  1  0  0  0  0
 14 16  1  0  0  0  0
 14 17  1  0  0  0  0
 17 18  2  0  0  0  0
 17 19  1  0  0  0  0
 19 20  1  0  0  0  0
 21 22  2  0  0  0  0
 21 23  1  0  0  0  0
 23 24  1  0  0  0  0
 23 25  1  0  0  0  0
 25 26  1  0  0  0  0
 25 27  1  0  0  0  0
 25 28  1  0  0  0  0
M  END
$$$$

  -OEChem-02102214123D

 28 27  0     1  0  0  0  0  0999 V2000
   -2.6855   -4.1397    0.2559 H   0  0  0  0  0  0  0  0  0  0  0  0
   -2.6594   -3.1382   -0.1830 C   0  0  0  0  0  0  0  0  0  0  0  0
   -3.4521   -2.5361    0.2675 H   0  0  0  0  0  0  0  0  0  0  0  0
   -2.8387   -3.2217   -1.2576 H   0  0  0  0  0  0  0  0  0  0  0  0
   -1.3098   -2.4936    0.0700 C   0  0  0  0  0  0  0  0  0  0  0  0
   -0.4693   -3.0808    0.7261 O   0  0  0  0  0  0  0  0  0  0  0  0
   -1.0457   -1.2358   -0.4354 N   0  0  0  0  0  0  0  0  0  0  0  0
   -1.7601   -0.8224   -1.0267 H   0  0  0  0  0  0  0  0  0  0  0  0
    0.2644   -0.5631   -0.3438 C   0  0  1  0  0  0  0  0  0  0  0  0
    0.9884   -1.2631   -0.7777 H   0  0  0  0  0  0  0  0  0  0  0  0
    0.2718    0.6744   -1.2708 C   0  0  0  0  0  0  0  0  0  0  0  0
    1.2906    0.8107   -1.6511 H   0  0  0  0  0  0  0  0  0  0  0  0
   -0.3546    0.4631   -2.1433 H   0  0  0  0  0  0  0  0  0  0  0  0
   -0.2071    1.9944   -0.6235 C   0  0  0  0  0  0  0  0  0  0  0  0
   -0.6427    2.6270   -1.4016 H   0  0  0  0  0  0  0  0  0  0  0  0
   -0.9957    1.7987    0.1071 H   0  0  0  0  0  0  0  0  0  0  0  0
    0.9152    2.8046    0.0270 C   0  0  0  0  0  0  0  0  0  0  0  0
    1.8959    3.0861   -0.6404 O   0  0  0  0  0  0  0  0  0  0  0  0
    0.7424    3.2050    1.3070 O   0  0  0  0  0  0  0  0  0  0  0  0
    1.5675    3.6522    1.5505 H   0  0  0  0  0  0  0  0  0  0  0  0
    0.7889   -0.3181    1.0921 C   0  0  0  0  0  0  0  0  0  0  0  0
    1.9948   -0.3138    1.2984 O   0  0  0  0  0  0  0  0  0  0  0  0
   -0.0531    0.1745    2.0725 N   0  0  0  0  0  0  0  0  0  0  0  0
   -1.0480    0.1000    1.8919 H   0  0  0  0  0  0  0  0  0  0  0  0
    0.3959    0.4804    3.4249 C   0  0  0  0  0  0  0  0  0  0  0  0
    1.2012    1.2221    3.4042 H   0  0  0  0  0  0  0  0  0  0  0  0
   -0.4304    0.8884    4.0146 H   0  0  0  0  0  0  0  0  0  0  0  0
    0.7639   -0.4252    3.9186 H   0  0  0  0  0  0  0  0  0  0  0  0
  1  2  1  0  0  0  0
  2  3  1  0  0  0  0
  2  4  1  0  0  0  0
  2  5  1  0  0  0  0
  5  6  2  0  0  0  0
  5  7  1  0  0  0  0
  7  8  1  0  0  0  0
  7  9  1  0  0  0  0
  9 10  1  0  0  0  0
  9 11  1  0  0  0  0
  9 21  1  0  0  0  0
 11 12  1  0  0  0  0
 11 13  1  0  0  0  0
 11 14  1  0  0  0  0
 14 15  1  0  0  0  0
 14 16  1  0  0  0  0
 14 17  1  0  0  0  0
 17 18  2  0  0  0  0
 17 19  1  0  0  0  0
 19 20  1  0  0  0  0
 21 22  2  0  0  0  0
 21 23  1  0  0  0  0
 23 24  1  0  0  0  0
 23 25  1  0  0  0  0
 25 26  1  0  0  0  0
 25 27  1  0  0  0  0
 25 28  1  0  0  0  0
M  END
$$$$

  -OEChem-02102214123D

 28 27  0     1  0  0  0  0  0999 V2000
   -2.6605   -4.1810    0.2249 H   0  0  0  0  0  0  0  0  0  0  0  0
   -2.6377   -3.1895   -0.2361 C   0  0  0  0  0  0  0  0  0  0  0  0
   -3.4543   -2.5919    0.1754 H   0  0  0  0  0  0  0  0  0  0  0  0
   -2.7818   -3.3007   -1.3134 H   0  0  0  0  0  0  0  0  0  0  0  0
   -1.3075   -2.5159    0.0429 C   0  0  0  0  0  0  0  0  0  0  0  0
   -0.4617   -3.0904    0.7035 O   0  0  0  0  0  0  0  0  0  0  0  0
   -1.0660   -1.2459   -0.4429 N   0  0  0  0  0  0  0  0  0  0  0  0
   -1.7853   -0.8368   -1.0312 H   0  0  0  0  0  0  0  0  0  0  0  0
    0.2293   -0.5493   -0.3303 C   0  0  1  0  0  0  0  0  0  0  0  0
    0.9628   -1.2404   -0.7624 H   0  0  0  0  0  0  0  0  0  0  0  0
    0.2454    0.6899   -1.2531 C   0  0  0  0  0  0  0  0  0  0  0  0
    1.2750    0.8371   -1.5998 H   0  0  0  0  0  0  0  0  0  0  0  0
   -0.3513    0.4763   -2.1456 H   0  0  0  0  0  0  0  0  0  0  0  0
   -0.2652    2.0006   -0.6086 C   0  0  0  0  0  0  0  0  0  0  0  0
   -0.9110    2.5122   -1.3275 H   0  0  0  0  0  0  0  0  0  0  0  0
   -0.8788    1.8032    0.2720 H   0  0  0  0  0  0  0  0  0  0  0  0
    0.8599    2.9712   -0.2567 C   0  0  0  0  0  0  0  0  0  0  0  0
    1.5689    3.3942   -1.1545 O   0  0  0  0  0  0  0  0  0  0  0  0
    0.9991    3.3273    1.0406 O   0  0  0  0  0  0  0  0  0  0  0  0
    1.7858    3.8923    1.0764 H   0  0  0  0  0  0  0  0  0  0  0  0
    0.7623   -0.3011    1.1022 C   0  0  0  0  0  0  0  0  0  0  0  0
    1.9717   -0.2536    1.2837 O   0  0  0  0  0  0  0  0  0  0  0  0
   -0.0744    0.1694    2.0980 N   0  0  0  0  0  0  0  0  0  0  0  0
   -1.0709    0.0661    1.9413 H   0  0  0  0  0  0  0  0  0  0  0  0
    0.3989    0.5592    3.4199 C   0  0  0  0  0  0  0  0  0  0  0  0
    1.1343    1.3671    3.3397 H   0  0  0  0  0  0  0  0  0  0  0  0
   -0.4357    0.9137    4.0323 H   0  0  0  0  0  0  0  0  0  0  0  0
    0.8651   -0.2928    3.9258 H   0  0  0  0  0  0  0  0  0  0  0  0
  1  2  1  0  0  0  0
  2  3  1  0  0  0  0
  2  4  1  0  0  0  0
  2  5  1  0  0  0  0
  5  6  2  0  0  0  0
  5  7  1  0  0  0  0
  7  8  1  0  0  0  0
  7  9  1  0  0  0  0
  9 10  1  0  0  0  0
  9 11  1  0  0  0  0
  9 21  1  0  0  0  0
 11 12  1  0  0  0  0
 11 13  1  0  0  0  0
 11 14  1  0  0  0  0
 14 15  1  0  0  0  0
 14 16  1  0  0  0  0
 14 17  1  0  0  0  0
 17 18  2  0  0  0  0
 17 19  1  0  0  0  0
 19 20  1  0  0  0  0
 21 22  2  0  0  0  0
 21 23  1  0  0  0  0
 23 24  1  0  0  0  0
 23 25  1  0  0  0  0
 25 26  1  0  0  0  0
 25 27  1  0  0  0  0
 25 28  1  0  0  0  0
M  END
$$$$

  -OEChem-02102214123D

 28 27  0     1  0  0  0  0  0999 V2000
   -2.6042   -4.2198    0.1809 H   0  0  0  0  0  0  0  0  0  0  0  0
   -2.6039   -3.2175   -0.2575 C   0  0  0  0  0  0  0  0  0  0  0  0
   -3.4331   -2.6480    0.1689 H   0  0  0  0  0  0  0  0  0  0  0  0
   -2.7475   -3.3071   -1.3370 H   0  0  0  0  0  0  0  0  0  0  0  0
   -1.2882   -2.5211    0.0348 C   0  0  0  0  0  0  0  0  0  0  0  0
   -0.4325   -3.0885    0.6890 O   0  0  0  0  0  0  0  0  0  0  0  0
   -1.0708   -1.2391   -0.4303 N   0  0  0  0  0  0  0  0  0  0  0  0
   -1.7954   -0.8367   -1.0169 H   0  0  0  0  0  0  0  0  0  0  0  0
    0.2122   -0.5218   -0.3108 C   0  0  1  0  0  0  0  0  0  0  0  0
    0.9541   -1.2004   -0.7485 H   0  0  0  0  0  0  0  0  0  0  0  0
    0.2119    0.7171   -1.2347 C   0  0  0  0  0  0  0  0  0  0  0  0
    1.2505    0.8738   -1.5491 H   0  0  0  0  0  0  0  0  0  0  0  0
   -0.3529    0.4945   -2.1457 H   0  0  0  0  0  0  0  0  0  0  0  0
   -0.3207    2.0332   -0.6145 C   0  0  0  0  0  0  0  0  0  0  0  0
   -1.1750    2.3798   -1.2021 H   0  0  0  0  0  0  0  0  0  0  0  0
   -0.6858    1.8868    0.4013 H   0  0  0  0  0  0  0  0  0  0  0  0
    0.7200    3.1497   -0.6088 C   0  0  0  0  0  0  0  0  0  0  0  0
    1.2019    3.5032   -1.6721 O   0  0  0  0  0  0  0  0  0  0  0  0
    1.0456    3.7008    0.5826 O   0  0  0  0  0  0  0  0  0  0  0  0
    1.7398    4.3505    0.3946 H   0  0  0  0  0  0  0  0  0  0  0  0
    0.7487   -0.2869    1.1229 C   0  0  0  0  0  0  0  0  0  0  0  0
    1.9581   -0.2259    1.2992 O   0  0  0  0  0  0  0  0  0  0  0  0
   -0.0889    0.1525    2.1326 N   0  0  0  0  0  0  0  0  0  0  0  0
   -1.0830    0.0153    1.9856 H   0  0  0  0  0  0  0  0  0  0  0  0
    0.3868    0.4921    3.4678 C   0  0  0  0  0  0  0  0  0  0  0  0
    1.1256    1.2992    3.4172 H   0  0  0  0  0  0  0  0  0  0  0  0
   -0.4459    0.8278    4.0930 H   0  0  0  0  0  0  0  0  0  0  0  0
    0.8493   -0.3798    3.9423 H   0  0  0  0  0  0  0  0  0  0  0  0
  1  2  1  0  0  0  0
  2  3  1  0  0  0  0
  2  4  1  0  0  0  0
  2  5  1  0  0  0  0
  5  6  2  0  0  0  0
  5  7  1  0  0  0  0
  7  8  1  0  0  0  0
  7  9  1  0  0  0  0
  9 10  1  0  0  0  0
  9 11  1  0  0  0  0
  9 21  1  0  0  0  0
 11 12  1  0  0  0  0
 11 13  1  0  0  0  0
 11 14  1  0  0  0  0
 14 15  1  0  0  0  0
 14 16  1  0  0  0  0
 14 17  1  0  0  0  0
 17 18  2  0  0  0  0
 17 19  1  0  0  0  0
 19 20  1  0  0  0  0
 21 22  2  0  0  0  0
 21 23  1  0  0  0  0
 23 24  1  0  0  0  0
 23 25  1  0  0  0  0
 25 26  1  0  0  0  0
 25 27  1  0  0  0  0
 25 28  1  0  0  0  0
M  END
$$$$

  -OEChem-02102214123D

 28 27  0     1  0  0  0  0  0999 V2000
   -2.5703   -4.2337    0.1538 H   0  0  0  0  0  0  0  0  0  0  0  0
   -2.5836   -3.2225   -0.2633 C   0  0  0  0  0  0  0  0  0  0  0  0
   -3.4153   -2.6703    0.1808 H   0  0  0  0  0  0  0  0  0  0  0  0
   -2.7343   -3.2908   -1.3433 H   0  0  0  0  0  0  0  0  0  0  0  0
   -1.2732   -2.5187    0.0344 C   0  0  0  0  0  0  0  0  0  0  0  0
   -0.4119   -3.0853    0.6818 O   0  0  0  0  0  0  0  0  0  0  0  0
   -1.0691   -1.2296   -0.4165 N   0  0  0  0  0  0  0  0  0  0  0  0
   -1.7975   -0.8300   -1.0003 H   0  0  0  0  0  0  0  0  0  0  0  0
    0.2095   -0.5039   -0.3015 C   0  0  1  0  0  0  0  0  0  0  0  0
    0.9545   -1.1701   -0.7534 H   0  0  0  0  0  0  0  0  0  0  0  0
    0.1803    0.7425   -1.2166 C   0  0  0  0  0  0  0  0  0  0  0  0
    1.2226    0.9125   -1.5119 H   0  0  0  0  0  0  0  0  0  0  0  0
   -0.3691    0.5233   -2.1379 H   0  0  0  0  0  0  0  0  0  0  0  0
   -0.3578    2.0568   -0.5954 C   0  0  0  0  0  0  0  0  0  0  0  0
   -1.3738    2.2400   -0.9541 H   0  0  0  0  0  0  0  0  0  0  0  0
   -0.4116    1.9931    0.4902 H   0  0  0  0  0  0  0  0  0  0  0  0
    0.5090    3.2695   -0.9286 C   0  0  0  0  0  0  0  0  0  0  0  0
    0.8369    3.4533   -2.0891 O   0  0  0  0  0  0  0  0  0  0  0  0
    0.8535    4.0949    0.0862 O   0  0  0  0  0  0  0  0  0  0  0  0
    1.4133    4.7817   -0.3067 H   0  0  0  0  0  0  0  0  0  0  0  0
    0.7498   -0.2885    1.1335 C   0  0  0  0  0  0  0  0  0  0  0  0
    1.9590   -0.2253    1.3094 O   0  0  0  0  0  0  0  0  0  0  0  0
   -0.0891    0.1282    2.1519 N   0  0  0  0  0  0  0  0  0  0  0  0
   -1.0815   -0.0192    2.0021 H   0  0  0  0  0  0  0  0  0  0  0  0
    0.3843    0.4066    3.5020 C   0  0  0  0  0  0  0  0  0  0  0  0
    1.1346    1.2044    3.4884 H   0  0  0  0  0  0  0  0  0  0  0  0
   -0.4474    0.7283    4.1358 H   0  0  0  0  0  0  0  0  0  0  0  0
    0.8319   -0.4906    3.9429 H   0  0  0  0  0  0  0  0  0  0  0  0
  1  2  1  0  0  0  0
  2  3  1  0  0  0  0
  2  4  1  0  0  0  0
  2  5  1  0  0  0  0
  5  6  2  0  0  0  0
  5  7  1  0  0  0  0
  7  8  1  0  0  0  0
  7  9  1  0  0  0  0
  9 10  1  0  0  0  0
  9 11  1  0  0  0  0
  9 21  1  0  0  0  0
 11 12  1  0  0  0  0
 11 13  1  0  0  0  0
 11 14  1  0  0  0  0
 14 15  1  0  0  0  0
 14 16  1  0  0  0  0
 14 17  1  0  0  0  0
 17 18  2  0  0  0  0
 17 19  1  0  0  0  0
 19 20  1  0  0  0  0
 21 22  2  0  0  0  0
 21 23  1  0  0  0  0
 23 24  1  0  0  0  0
 23 25  1  0  0  0  0
 25 26  1  0  0  0  0
 25 27  1  0  0  0  0
 25 28  1  0  0  0  0
M  END
$$$$

  -OEChem-02102214123D

 28 27  0     1  0  0  0  0  0999 V2000
   -2.5710   -4.2276    0.1620 H   0  0  0  0  0  0  0  0  0  0  0  0
   -2.5833   -3.2169   -0.2560 C   0  0  0  0  0  0  0  0  0  0  0  0
   -3.4101   -2.6613    0.1926 H   0  0  0  0  0  0  0  0  0  0  0  0
   -2.7404   -3.2859   -1.3352 H   0  0  0  0  0  0  0  0  0  0  0  0
   -1.2689   -2.5173    0.0333 C   0  0  0  0  0  0  0  0  0  0  0  0
   -0.4040   -3.0880    0.6722 O   0  0  0  0  0  0  0  0  0  0  0  0
   -1.0649   -1.2277   -0.4169 N   0  0  0  0  0  0  0  0  0  0  0  0
   -1.7944   -0.8282   -0.9996 H   0  0  0  0  0  0  0  0  0  0  0  0
    0.2180   -0.5071   -0.3137 C   0  0  1  0  0  0  0  0  0  0  0  0
    0.9603   -1.1632   -0.7838 H   0  0  0  0  0  0  0  0  0  0  0  0
    0.1602    0.7557   -1.2048 C   0  0  0  0  0  0  0  0  0  0  0  0
    1.1957    0.9424   -1.5133 H   0  0  0  0  0  0  0  0  0  0  0  0
   -0.4067    0.5530   -2.1193 H   0  0  0  0  0  0  0  0  0  0  0  0
   -0.3656    2.0540   -0.5437 C   0  0  0  0  0  0  0  0  0  0  0  0
   -1.4546    2.0993   -0.6221 H   0  0  0  0  0  0  0  0  0  0  0  0
   -0.1105    2.0796    0.5159 H   0  0  0  0  0  0  0  0  0  0  0  0
    0.2417    3.3190   -1.1495 C   0  0  0  0  0  0  0  0  0  0  0  0
    0.4599    3.3548   -2.3493 O   0  0  0  0  0  0  0  0  0  0  0  0
    0.4797    4.3576   -0.3161 O   0  0  0  0  0  0  0  0  0  0  0  0
    0.8653    5.0573   -0.8650 H   0  0  0  0  0  0  0  0  0  0  0  0
    0.7622   -0.3042    1.1212 C   0  0  0  0  0  0  0  0  0  0  0  0
    1.9714   -0.2461    1.2986 O   0  0  0  0  0  0  0  0  0  0  0  0
   -0.0783    0.1097    2.1398 N   0  0  0  0  0  0  0  0  0  0  0  0
   -1.0706   -0.0328    1.9847 H   0  0  0  0  0  0  0  0  0  0  0  0
    0.3908    0.3712    3.4948 C   0  0  0  0  0  0  0  0  0  0  0  0
    1.1482    1.1623    3.4928 H   0  0  0  0  0  0  0  0  0  0  0  0
   -0.4411    0.6939    4.1280 H   0  0  0  0  0  0  0  0  0  0  0  0
    0.8286   -0.5340    3.9288 H   0  0  0  0  0  0  0  0  0  0  0  0
  1  2  1  0  0  0  0
  2  3  1  0  0  0  0
  2  4  1  0  0  0  0
  2  5  1  0  0  0  0
  5  6  2  0  0  0  0
  5  7  1  0  0  0  0
  7  8  1  0  0  0  0
  7  9  1  0  0  0  0
  9 10  1  0  0  0  0
  9 11  1  0  0  0  0
  9 21  1  0  0  0  0
 11 12  1  0  0  0  0
 11 13  1  0  0  0  0
 11 14  1  0  0  0  0
 14 15  1  0  0  0  0
 14 16  1  0  0  0  0
 14 17  1  0  0  0  0
 17 18  2  0  0  0  0
 17 19  1  0  0  0  0
 19 20  1  0  0  0  0
 21 22  2  0  0  0  0
 21 23  1  0  0  0  0
 23 24  1  0  0  0  0
 23 25  1  0  0  0  0
 25 26  1  0  0  0  0
 25 27  1  0  0  0  0
 25 28  1  0  0  0  0
M  END
$$$$

  -OEChem-02102214123D

 28 27  0     1  0  0  0  0  0999 V2000
   -2.5874   -4.2215    0.1684 H   0  0  0  0  0  0  0  0  0  0  0  0
   -2.5953   -3.2124   -0.2536 C   0  0  0  0  0  0  0  0  0  0  0  0
   -3.4253   -2.6541    0.1856 H   0  0  0  0  0  0  0  0  0  0  0  0
   -2.7437   -3.2858   -1.3336 H   0  0  0  0  0  0  0  0  0  0  0  0
   -1.2823   -2.5129    0.0433 C   0  0  0  0  0  0  0  0  0  0  0  0
   -0.4254   -3.0804    0.6957 O   0  0  0  0  0  0  0  0  0  0  0  0
   -1.0690   -1.2291   -0.4190 N   0  0  0  0  0  0  0  0  0  0  0  0
   -1.7865   -0.8407   -1.0238 H   0  0  0  0  0  0  0  0  0  0  0  0
    0.2224   -0.5208   -0.3302 C   0  0  1  0  0  0  0  0  0  0  0  0
    0.9577   -1.1768   -0.8111 H   0  0  0  0  0  0  0  0  0  0  0  0
    0.1524    0.7531   -1.2030 C   0  0  0  0  0  0  0  0  0  0  0  0
    1.1754    0.9512   -1.5442 H   0  0  0  0  0  0  0  0  0  0  0  0
   -0.4489    0.5633   -2.0983 H   0  0  0  0  0  0  0  0  0  0  0  0
   -0.3532    2.0317   -0.4942 C   0  0  0  0  0  0  0  0  0  0  0  0
   -1.4269    1.9569   -0.3056 H   0  0  0  0  0  0  0  0  0  0  0  0
    0.1501    2.1523    0.4676 H   0  0  0  0  0  0  0  0  0  0  0  0
   -0.0655    3.3108   -1.2814 C   0  0  0  0  0  0  0  0  0  0  0  0
    0.0802    3.2514   -2.4914 O   0  0  0  0  0  0  0  0  0  0  0  0
   -0.0150    4.4669   -0.5809 O   0  0  0  0  0  0  0  0  0  0  0  0
    0.1829    5.1615   -1.2276 H   0  0  0  0  0  0  0  0  0  0  0  0
    0.7741   -0.3144    1.1007 C   0  0  0  0  0  0  0  0  0  0  0  0
    1.9844   -0.2659    1.2745 O   0  0  0  0  0  0  0  0  0  0  0  0
   -0.0609    0.1155    2.1170 N   0  0  0  0  0  0  0  0  0  0  0  0
   -1.0545   -0.0223    1.9649 H   0  0  0  0  0  0  0  0  0  0  0  0
    0.4131    0.3783    3.4702 C   0  0  0  0  0  0  0  0  0  0  0  0
    1.1788    1.1615    3.4633 H   0  0  0  0  0  0  0  0  0  0  0  0
   -0.4145    0.7126    4.1030 H   0  0  0  0  0  0  0  0  0  0  0  0
    0.8420   -0.5294    3.9081 H   0  0  0  0  0  0  0  0  0  0  0  0
  1  2  1  0  0  0  0
  2  3  1  0  0  0  0
  2  4  1  0  0  0  0
  2  5  1  0  0  0  0
  5  6  2  0  0  0  0
  5  7  1  0  0  0  0
  7  8  1  0  0  0  0
  7  9  1  0  0  0  0
  9 10  1  0  0  0  0
  9 11  1  0  0  0  0
  9 21  1  0  0  0  0
 11 12  1  0  0  0  0
 11 13  1  0  0  0  0
 11 14  1  0  0  0  0
 14 15  1  0  0  0  0
 14 16  1  0  0  0  0
 14 17  1  0  0  0  0
 17 18  2  0  0  0  0
 17 19  1  0  0  0  0
 19 20  1  0  0  0  0
 21 22  2  0  0  0  0
 21 23  1  0  0  0  0
 23 24  1  0  0  0  0
 23 25  1  0  0  0  0
 25 26  1  0  0  0  0
 25 27  1  0  0  0  0
 25 28  1  0  0  0  0
M  END
$$$$

  -OEChem-02102214123D

 28 27  0     1  0  0  0  0  0999 V2000
   -2.6233   -4.1928    0.1996 H   0  0  0  0  0  0  0  0  0  0  0  0
   -2.6185   -3.1885   -0.2336 C   0  0  0  0  0  0  0  0  0  0  0  0
   -3.4340   -2.6113    0.2086 H   0  0  0  0  0  0  0  0  0  0  0  0
   -2.7805   -3.2709   -1.3111 H   0  0  0  0  0  0  0  0  0  0  0  0
   -1.2904   -2.5087    0.0408 C   0  0  0  0  0  0  0  0  0  0  0  0
   -0.4323   -3.0873    0.6819 O   0  0  0  0  0  0  0  0  0  0  0  0
   -1.0653   -1.2297   -0.4292 N   0  0  0  0  0  0  0  0  0  0  0  0
   -1.7871   -0.8313   -1.0224 H   0  0  0  0  0  0  0  0  0  0  0  0
    0.2335   -0.5329   -0.3473 C   0  0  1  0  0  0  0  0  0  0  0  0
    0.9623   -1.1954   -0.8289 H   0  0  0  0  0  0  0  0  0  0  0  0
    0.1724    0.7485   -1.2158 C   0  0  0  0  0  0  0  0  0  0  0  0
    1.1030    0.7997   -1.7923 H   0  0  0  0  0  0  0  0  0  0  0  0
   -0.6447    0.6660   -1.9404 H   0  0  0  0  0  0  0  0  0  0  0  0
    0.0405    2.0747   -0.4324 C   0  0  0  0  0  0  0  0  0  0  0  0
   -0.8651    2.0519    0.1788 H   0  0  0  0  0  0  0  0  0  0  0  0
    0.8979    2.1957    0.2365 H   0  0  0  0  0  0  0  0  0  0  0  0
   -0.0175    3.3168   -1.3226 C   0  0  0  0  0  0  0  0  0  0  0  0
   -0.1168    3.1955   -2.5330 O   0  0  0  0  0  0  0  0  0  0  0  0
    0.0257    4.5146   -0.6964 O   0  0  0  0  0  0  0  0  0  0  0  0
   -0.0077    5.1832   -1.3975 H   0  0  0  0  0  0  0  0  0  0  0  0
    0.7840   -0.3270    1.0850 C   0  0  0  0  0  0  0  0  0  0  0  0
    1.9942   -0.2943    1.2643 O   0  0  0  0  0  0  0  0  0  0  0  0
   -0.0507    0.1152    2.0961 N   0  0  0  0  0  0  0  0  0  0  0  0
   -1.0449   -0.0130    1.9398 H   0  0  0  0  0  0  0  0  0  0  0  0
    0.4198    0.3735    3.4513 C   0  0  0  0  0  0  0  0  0  0  0  0
    1.1963    1.1460    3.4474 H   0  0  0  0  0  0  0  0  0  0  0  0
   -0.4060    0.7202    4.0798 H   0  0  0  0  0  0  0  0  0  0  0  0
    0.8336   -0.5397    3.8920 H   0  0  0  0  0  0  0  0  0  0  0  0
  1  2  1  0  0  0  0
  2  3  1  0  0  0  0
  2  4  1  0  0  0  0
  2  5  1  0  0  0  0
  5  6  2  0  0  0  0
  5  7  1  0  0  0  0
  7  8  1  0  0  0  0
  7  9  1  0  0  0  0
  9 10  1  0  0  0  0
  9 11  1  0  0  0  0
  9 21  1  0  0  0  0
 11 12  1  0  0  0  0
 11 13  1  0  0  0  0
 11 14  1  0  0  0  0
 14 15  1  0  0  0  0
 14 16  1  0  0  0  0
 14 17  1  0  0  0  0
 17 18  2  0  0  0  0
 17 19  1  0  0  0  0
 19 20  1  0  0  0  0
 21 22  2  0  0  0  0
 21 23  1  0  0  0  0
 23 24  1  0  0  0  0
 23 25  1  0  0  0  0
 25 26  1  0  0  0  0
 25 27  1  0  0  0  0
 25 28  1  0  0  0  0
M  END
$$$$

  -OEChem-02102214123D

 28 27  0     1  0  0  0  0  0999 V2000
   -2.6362   -4.1915    0.1873 H   0  0  0  0  0  0  0  0  0  0  0  0
   -2.6359   -3.1802   -0.2295 C   0  0  0  0  0  0  0  0  0  0  0  0
   -3.4481   -2.6107    0.2285 H   0  0  0  0  0  0  0  0  0  0  0  0
   -2.8064   -3.2456   -1.3068 H   0  0  0  0  0  0  0  0  0  0  0  0
   -1.3062   -2.5034    0.0454 C   0  0  0  0  0  0  0  0  0  0  0  0
   -0.4480   -3.0855    0.6832 O   0  0  0  0  0  0  0  0  0  0  0  0
   -1.0808   -1.2223   -0.4185 N   0  0  0  0  0  0  0  0  0  0  0  0
   -1.8039   -0.8206   -1.0079 H   0  0  0  0  0  0  0  0  0  0  0  0
    0.2203   -0.5292   -0.3406 C   0  0  1  0  0  0  0  0  0  0  0  0
    0.9409   -1.1996   -0.8240 H   0  0  0  0  0  0  0  0  0  0  0  0
    0.1795    0.7478   -1.2165 C   0  0  0  0  0  0  0  0  0  0  0  0
    1.1036    0.7928   -1.8036 H   0  0  0  0  0  0  0  0  0  0  0  0
   -0.6451    0.6609   -1.9320 H   0  0  0  0  0  0  0  0  0  0  0  0
    0.0565    2.0766   -0.4360 C   0  0  0  0  0  0  0  0  0  0  0  0
   -0.7146    1.9762    0.3314 H   0  0  0  0  0  0  0  0  0  0  0  0
    1.0041    2.2999    0.0643 H   0  0  0  0  0  0  0  0  0  0  0  0
   -0.3387    3.2782   -1.2960 C   0  0  0  0  0  0  0  0  0  0  0  0
   -0.4379    3.1586   -2.5065 O   0  0  0  0  0  0  0  0  0  0  0  0
   -0.5733    4.4387   -0.6424 O   0  0  0  0  0  0  0  0  0  0  0  0
   -0.7910    5.0900   -1.3264 H   0  0  0  0  0  0  0  0  0  0  0  0
    0.7875   -0.3292    1.0868 C   0  0  0  0  0  0  0  0  0  0  0  0
    1.9998   -0.3037    1.2518 O   0  0  0  0  0  0  0  0  0  0  0  0
   -0.0316    0.1108    2.1117 N   0  0  0  0  0  0  0  0  0  0  0  0
   -1.0278   -0.0165    1.9683 H   0  0  0  0  0  0  0  0  0  0  0  0
    0.4562    0.3520    3.4640 C   0  0  0  0  0  0  0  0  0  0  0  0
    1.2337    1.1233    3.4601 H   0  0  0  0  0  0  0  0  0  0  0  0
   -0.3616    0.6919    4.1064 H   0  0  0  0  0  0  0  0  0  0  0  0
    0.8738   -0.5666    3.8894 H   0  0  0  0  0  0  0  0  0  0  0  0
  1  2  1  0  0  0  0
  2  3  1  0  0  0  0
  2  4  1  0  0  0  0
  2  5  1  0  0  0  0
  5  6  2  0  0  0  0
  5  7  1  0  0  0  0
  7  8  1  0  0  0  0
  7  9  1  0  0  0  0
  9 10  1  0  0  0  0
  9 11  1  0  0  0  0
  9 21  1  0  0  0  0
 11 12  1  0  0  0  0
 11 13  1  0  0  0  0
 11 14  1  0  0  0  0
 14 15  1  0  0  0  0
 14 16  1  0  0  0  0
 14 17  1  0  0  0  0
 17 18  2  0  0  0  0
 17 19  1  0  0  0  0
 19 20  1  0  0  0  0
 21 22  2  0  0  0  0
 21 23  1  0  0  0  0
 23 24  1  0  0  0  0
 23 25  1  0  0  0  0
 25 26  1  0  0  0  0
 25 27  1  0  0  0  0
 25 28  1  0  0  0  0
M  END
$$$$

  -OEChem-02102214123D

 28 27  0     1  0  0  0  0  0999 V2000
   -2.6485   -4.1915    0.1831 H   0  0  0  0  0  0  0  0  0  0  0  0
   -2.6496   -3.1789   -0.2307 C   0  0  0  0  0  0  0  0  0  0  0  0
   -3.4601   -2.6110    0.2320 H   0  0  0  0  0  0  0  0  0  0  0  0
   -2.8237   -3.2405   -1.3076 H   0  0  0  0  0  0  0  0  0  0  0  0
   -1.3191   -2.5034    0.0422 C   0  0  0  0  0  0  0  0  0  0  0  0
   -0.4541   -3.0933    0.6633 O   0  0  0  0  0  0  0  0  0  0  0  0
   -1.0992   -1.2146   -0.4026 N   0  0  0  0  0  0  0  0  0  0  0  0
   -1.8282   -0.8029   -0.9779 H   0  0  0  0  0  0  0  0  0  0  0  0
    0.2022   -0.5229   -0.3232 C   0  0  1  0  0  0  0  0  0  0  0  0
    0.9146   -1.1989   -0.8108 H   0  0  0  0  0  0  0  0  0  0  0  0
    0.1808    0.7505   -1.2059 C   0  0  0  0  0  0  0  0  0  0  0  0
    1.1075    0.7851   -1.7895 H   0  0  0  0  0  0  0  0  0  0  0  0
   -0.6379    0.6514   -1.9259 H   0  0  0  0  0  0  0  0  0  0  0  0
    0.0604    2.0947   -0.4454 C   0  0  0  0  0  0  0  0  0  0  0  0
   -0.5327    1.9509    0.4589 H   0  0  0  0  0  0  0  0  0  0  0  0
    1.0538    2.4383   -0.1416 H   0  0  0  0  0  0  0  0  0  0  0  0
   -0.6499    3.2074   -1.2194 C   0  0  0  0  0  0  0  0  0  0  0  0
   -0.8264    3.1002   -2.4220 O   0  0  0  0  0  0  0  0  0  0  0  0
   -1.0566    4.2801   -0.5024 O   0  0  0  0  0  0  0  0  0  0  0  0
   -1.4583    4.8899   -1.1400 H   0  0  0  0  0  0  0  0  0  0  0  0
    0.7879   -0.3423    1.0992 C   0  0  0  0  0  0  0  0  0  0  0  0
    2.0027   -0.3099    1.2447 O   0  0  0  0  0  0  0  0  0  0  0  0
   -0.0151    0.0823    2.1433 N   0  0  0  0  0  0  0  0  0  0  0  0
   -1.0139   -0.0447    2.0169 H   0  0  0  0  0  0  0  0  0  0  0  0
    0.4970    0.3244    3.4863 C   0  0  0  0  0  0  0  0  0  0  0  0
    1.2686    1.1015    3.4684 H   0  0  0  0  0  0  0  0  0  0  0  0
   -0.3103    0.6574    4.1454 H   0  0  0  0  0  0  0  0  0  0  0  0
    0.9297   -0.5923    3.9008 H   0  0  0  0  0  0  0  0  0  0  0  0
  1  2  1  0  0  0  0
  2  3  1  0  0  0  0
  2  4  1  0  0  0  0
  2  5  1  0  0  0  0
  5  6  2  0  0  0  0
  5  7  1  0  0  0  0
  7  8  1  0  0  0  0
  7  9  1  0  0  0  0
  9 10  1  0  0  0  0
  9 11  1  0  0  0  0
  9 21  1  0  0  0  0
 11 12  1  0  0  0  0
 11 13  1  0  0  0  0
 11 14  1  0  0  0  0
 14 15  1  0  0  0  0
 14 16  1  0  0  0  0
 14 17  1  0  0  0  0
 17 18  2  0  0  0  0
 17 19  1  0  0  0  0
 19 20  1  0  0  0  0
 21 22  2  0  0  0  0
 21 23  1  0  0  0  0
 23 24  1  0  0  0  0
 23 25  1  0  0  0  0
 25 26  1  0  0  0  0
 25 27  1  0  0  0  0
 25 28  1  0  0  0  0
M  END
$$$$

  -OEChem-02102214123D

 28 27  0     1  0  0  0  0  0999 V2000
   -2.5968   -4.1749    0.1446 H   0  0  0  0  0  0  0  0  0  0  0  0
   -2.6001   -3.1617   -0.2676 C   0  0  0  0  0  0  0  0  0  0  0  0
   -3.3832   -2.5834    0.2284 H   0  0  0  0  0  0  0  0  0  0  0  0
   -2.8189   -3.2179   -1.3367 H   0  0  0  0  0  0  0  0  0  0  0  0
   -1.2500   -2.5056   -0.0494 C   0  0  0  0  0  0  0  0  0  0  0  0
   -0.3395   -3.1369    0.4557 O   0  0  0  0  0  0  0  0  0  0  0  0
   -1.0632   -1.1863   -0.4097 N   0  0  0  0  0  0  0  0  0  0  0  0
   -1.8548   -0.7046   -0.8283 H   0  0  0  0  0  0  0  0  0  0  0  0
    0.2140   -0.4596   -0.2893 C   0  0  1  0  0  0  0  0  0  0  0  0
    0.9462   -1.0858   -0.8127 H   0  0  0  0  0  0  0  0  0  0  0  0
    0.1378    0.8461   -1.1183 C   0  0  0  0  0  0  0  0  0  0  0  0
    1.0757    0.9373   -1.6775 H   0  0  0  0  0  0  0  0  0  0  0  0
   -0.6524    0.7426   -1.8695 H   0  0  0  0  0  0  0  0  0  0  0  0
   -0.0395    2.1637   -0.3252 C   0  0  0  0  0  0  0  0  0  0  0  0
   -0.3671    1.9805    0.6977 H   0  0  0  0  0  0  0  0  0  0  0  0
    0.9176    2.6911   -0.2712 H   0  0  0  0  0  0  0  0  0  0  0  0
   -1.0943    3.0678   -0.9538 C   0  0  0  0  0  0  0  0  0  0  0  0
   -2.2346    2.6423   -1.0525 O   0  0  0  0  0  0  0  0  0  0  0  0
   -0.7110    4.2928   -1.3800 O   0  0  0  0  0  0  0  0  0  0  0  0
   -1.5047    4.7137   -1.7435 H   0  0  0  0  0  0  0  0  0  0  0  0
    0.7979   -0.3494    1.1404 C   0  0  0  0  0  0  0  0  0  0  0  0
    2.0115   -0.2941    1.2879 O   0  0  0  0  0  0  0  0  0  0  0  0
   -0.0130   -0.0178    2.2118 N   0  0  0  0  0  0  0  0  0  0  0  0
   -1.0105   -0.1433    2.0741 H   0  0  0  0  0  0  0  0  0  0  0  0
    0.4953    0.1387    3.5690 C   0  0  0  0  0  0  0  0  0  0  0  0
    1.2223    0.9565    3.6140 H   0  0  0  0  0  0  0  0  0  0  0  0
   -0.3241    0.3678    4.2568 H   0  0  0  0  0  0  0  0  0  0  0  0
    0.9821   -0.7836    3.9037 H   0  0  0  0  0  0  0  0  0  0  0  0
  1  2  1  0  0  0  0
  2  3  1  0  0  0  0
  2  4  1  0  0  0  0
  2  5  1  0  0  0  0
  5  6  2  0  0  0  0
  5  7  1  0  0  0  0
  7  8  1  0  0  0  0
  7  9  1  0  0  0  0
  9 10  1  0  0  0  0
  9 11  1  0  0  0  0
  9 21  1  0  0  0  0
 11 12  1  0  0  0  0
 11 13  1  0  0  0  0
 11 14  1  0  0  0  0
 14 15  1  0  0  0  0
 14 16  1  0  0  0  0
 14 17  1  0  0  0  0
 17 18  2  0  0  0  0
 17 19  1  0  0  0  0
 19 20  1  0  0  0  0
 21 22  2  0  0  0  0
 21 23  1  0  0  0  0
 23 24  1  0  0  0  0
 23 25  1  0  0  0  0
 25 26  1  0  0  0  0
 25 27  1  0  0  0  0
 25 28  1  0  0  0  0
M  END
$$$$

  -OEChem-02102214123D

 28 27  0     1  0  0  0  0  0999 V2000
   -2.6294   -4.1397    0.1606 H   0  0  0  0  0  0  0  0  0  0  0  0
   -2.6289   -3.1123   -0.2142 C   0  0  0  0  0  0  0  0  0  0  0  0
   -3.3598   -2.5308    0.3526 H   0  0  0  0  0  0  0  0  0  0  0  0
   -2.9185   -3.1222   -1.2677 H   0  0  0  0  0  0  0  0  0  0  0  0
   -1.2486   -2.5020   -0.0624 C   0  0  0  0  0  0  0  0  0  0  0  0
   -0.3324   -3.1677    0.3854 O   0  0  0  0  0  0  0  0  0  0  0  0
   -1.0400   -1.1855   -0.4198 N   0  0  0  0  0  0  0  0  0  0  0  0
   -1.8471   -0.6617   -0.7508 H   0  0  0  0  0  0  0  0  0  0  0  0
    0.2483   -0.4792   -0.3013 C   0  0  1  0  0  0  0  0  0  0  0  0
    0.9743   -1.1074   -0.8313 H   0  0  0  0  0  0  0  0  0  0  0  0
    0.1601    0.8311   -1.1228 C   0  0  0  0  0  0  0  0  0  0  0  0
    1.1064    0.9143   -1.6688 H   0  0  0  0  0  0  0  0  0  0  0  0
   -0.6160    0.7360   -1.8903 H   0  0  0  0  0  0  0  0  0  0  0  0
   -0.0031    2.1580   -0.3381 C   0  0  0  0  0  0  0  0  0  0  0  0
    0.0009    2.0230    0.7419 H   0  0  0  0  0  0  0  0  0  0  0  0
    0.8424    2.8112   -0.5746 H   0  0  0  0  0  0  0  0  0  0  0  0
   -1.2915    2.8815   -0.7163 C   0  0  0  0  0  0  0  0  0  0  0  0
   -2.3402    2.2570   -0.6578 O   0  0  0  0  0  0  0  0  0  0  0  0
   -1.2096    4.1760   -1.0999 O   0  0  0  0  0  0  0  0  0  0  0  0
   -2.1160    4.4599   -1.2932 H   0  0  0  0  0  0  0  0  0  0  0  0
    0.8245   -0.3886    1.1322 C   0  0  0  0  0  0  0  0  0  0  0  0
    2.0372   -0.3577    1.2920 O   0  0  0  0  0  0  0  0  0  0  0  0
    0.0075   -0.0494    2.1969 N   0  0  0  0  0  0  0  0  0  0  0  0
   -0.9924   -0.1288    2.0417 H   0  0  0  0  0  0  0  0  0  0  0  0
    0.5020    0.1032    3.5595 C   0  0  0  0  0  0  0  0  0  0  0  0
    1.2478    0.9035    3.6090 H   0  0  0  0  0  0  0  0  0  0  0  0
   -0.3204    0.3571    4.2350 H   0  0  0  0  0  0  0  0  0  0  0  0
    0.9615   -0.8285    3.9062 H   0  0  0  0  0  0  0  0  0  0  0  0
  1  2  1  0  0  0  0
  2  3  1  0  0  0  0
  2  4  1  0  0  0  0
  2  5  1  0  0  0  0
  5  6  2  0  0  0  0
  5  7  1  0  0  0  0
  7  8  1  0  0  0  0
  7  9  1  0  0  0  0
  9 10  1  0  0  0  0
  9 11  1  0  0  0  0
  9 21  1  0  0  0  0
 11 12  1  0  0  0  0
 11 13  1  0  0  0  0
 11 14  1  0  0  0  0
 14 15  1  0  0  0  0
 14 16  1  0  0  0  0
 14 17  1  0  0  0  0
 17 18  2  0  0  0  0
 17 19  1  0  0  0  0
 19 20  1  0  0  0  0
 21 22  2  0  0  0  0
 21 23  1  0  0  0  0
 23 24  1  0  0  0  0
 23 25  1  0  0  0  0
 25 26  1  0  0  0  0
 25 27  1  0  0  0  0
 25 28  1  0  0  0  0
M  END
$$$$

  -OEChem-02102214123D

 28 27  0     1  0  0  0  0  0999 V2000
   -2.6583   -4.0867    0.2493 H   0  0  0  0  0  0  0  0  0  0  0  0
   -2.6448   -3.0632   -0.1359 C   0  0  0  0  0  0  0  0  0  0  0  0
   -3.3164   -2.4504    0.4701 H   0  0  0  0  0  0  0  0  0  0  0  0
   -3.0014   -3.0710   -1.1687 H   0  0  0  0  0  0  0  0  0  0  0  0
   -1.2365   -2.5027   -0.0799 C   0  0  0  0  0  0  0  0  0  0  0  0
   -0.3162   -3.2006    0.3066 O   0  0  0  0  0  0  0  0  0  0  0  0
   -1.0064   -1.1955   -0.4569 N   0  0  0  0  0  0  0  0  0  0  0  0
   -1.8234   -0.6308   -0.6806 H   0  0  0  0  0  0  0  0  0  0  0  0
    0.2930   -0.5105   -0.3396 C   0  0  1  0  0  0  0  0  0  0  0  0
    1.0185   -1.1407   -0.8675 H   0  0  0  0  0  0  0  0  0  0  0  0
    0.1935    0.8052   -1.1506 C   0  0  0  0  0  0  0  0  0  0  0  0
    1.1425    0.8883   -1.6919 H   0  0  0  0  0  0  0  0  0  0  0  0
   -0.5822    0.7280   -1.9208 H   0  0  0  0  0  0  0  0  0  0  0  0
    0.0453    2.1221   -0.3493 C   0  0  0  0  0  0  0  0  0  0  0  0
    0.3704    2.0476    0.6879 H   0  0  0  0  0  0  0  0  0  0  0  0
    0.6904    2.8726   -0.8155 H   0  0  0  0  0  0  0  0  0  0  0  0
   -1.3832    2.6545   -0.4085 C   0  0  0  0  0  0  0  0  0  0  0  0
   -2.3013    1.8635   -0.2422 O   0  0  0  0  0  0  0  0  0  0  0  0
   -1.5633    3.9753   -0.6385 O   0  0  0  0  0  0  0  0  0  0  0  0
   -2.5207    4.1257   -0.6326 H   0  0  0  0  0  0  0  0  0  0  0  0
    0.8427   -0.4182    1.1033 C   0  0  0  0  0  0  0  0  0  0  0  0
    2.0511   -0.4195    1.2942 O   0  0  0  0  0  0  0  0  0  0  0  0
    0.0053   -0.0520    2.1429 N   0  0  0  0  0  0  0  0  0  0  0  0
   -0.9914   -0.0630    1.9503 H   0  0  0  0  0  0  0  0  0  0  0  0
    0.4630    0.1149    3.5165 C   0  0  0  0  0  0  0  0  0  0  0  0
    1.2117    0.9118    3.5769 H   0  0  0  0  0  0  0  0  0  0  0  0
   -0.3764    0.3803    4.1664 H   0  0  0  0  0  0  0  0  0  0  0  0
    0.9078   -0.8150    3.8867 H   0  0  0  0  0  0  0  0  0  0  0  0
  1  2  1  0  0  0  0
  2  3  1  0  0  0  0
  2  4  1  0  0  0  0
  2  5  1  0  0  0  0
  5  6  2  0  0  0  0
  5  7  1  0  0  0  0
  7  8  1  0  0  0  0
  7  9  1  0  0  0  0
  9 10  1  0  0  0  0
  9 11  1  0  0  0  0
  9 21  1  0  0  0  0
 11 12  1  0  0  0  0
 11 13  1  0  0  0  0
 11 14  1  0  0  0  0
 14 15  1  0  0  0  0
 14 16  1  0  0  0  0
 14 17  1  0  0  0  0
 17 18  2  0  0  0  0
 17 19  1  0  0  0  0
 19 20  1  0  0  0  0
 21 22  2  0  0  0  0
 21 23  1  0  0  0  0
 23 24  1  0  0  0  0
 23 25  1  0  0  0  0
 25 26  1  0  0  0  0
 25 27  1  0  0  0  0
 25 28  1  0  0  0  0
M  END
$$$$

  -OEChem-02102214123D

 28 27  0     1  0  0  0  0  0999 V2000
   -2.6509   -4.0671    0.3373 H   0  0  0  0  0  0  0  0  0  0  0  0
   -2.6403   -3.0501   -0.0651 C   0  0  0  0  0  0  0  0  0  0  0  0
   -3.2569   -2.4130    0.5734 H   0  0  0  0  0  0  0  0  0  0  0  0
   -3.0640   -3.0654   -1.0721 H   0  0  0  0  0  0  0  0  0  0  0  0
   -1.2193   -2.5215   -0.1108 C   0  0  0  0  0  0  0  0  0  0  0  0
   -0.2903   -3.2416    0.2090 O   0  0  0  0  0  0  0  0  0  0  0  0
   -0.9872   -1.2199   -0.5067 N   0  0  0  0  0  0  0  0  0  0  0  0
   -1.8096   -0.6293   -0.6162 H   0  0  0  0  0  0  0  0  0  0  0  0
    0.3176   -0.5461   -0.3850 C   0  0  1  0  0  0  0  0  0  0  0  0
    1.0478   -1.1751   -0.9079 H   0  0  0  0  0  0  0  0  0  0  0  0
    0.2247    0.7834   -1.1769 C   0  0  0  0  0  0  0  0  0  0  0  0
    1.1673    0.8703   -1.7283 H   0  0  0  0  0  0  0  0  0  0  0  0
   -0.5669    0.7324   -1.9328 H   0  0  0  0  0  0  0  0  0  0  0  0
    0.0909    2.0799   -0.3441 C   0  0  0  0  0  0  0  0  0  0  0  0
    0.6612    2.0535    0.5862 H   0  0  0  0  0  0  0  0  0  0  0  0
    0.5125    2.8983   -0.9350 H   0  0  0  0  0  0  0  0  0  0  0  0
   -1.3678    2.4372   -0.0655 C   0  0  0  0  0  0  0  0  0  0  0  0
   -2.1517    1.5366    0.2041 O   0  0  0  0  0  0  0  0  0  0  0  0
   -1.7189    3.7420   -0.1271 O   0  0  0  0  0  0  0  0  0  0  0  0
   -2.6640    3.7835    0.0835 H   0  0  0  0  0  0  0  0  0  0  0  0
    0.8391   -0.4481    1.0675 C   0  0  0  0  0  0  0  0  0  0  0  0
    2.0415   -0.4805    1.2909 O   0  0  0  0  0  0  0  0  0  0  0  0
   -0.0189   -0.0626    2.0827 N   0  0  0  0  0  0  0  0  0  0  0  0
   -1.0004    0.0432    1.8400 H   0  0  0  0  0  0  0  0  0  0  0  0
    0.4088    0.1617    3.4571 C   0  0  0  0  0  0  0  0  0  0  0  0
    1.1294    0.9847    3.5053 H   0  0  0  0  0  0  0  0  0  0  0  0
   -0.4508    0.4168    4.0841 H   0  0  0  0  0  0  0  0  0  0  0  0
    0.8774   -0.7411    3.8633 H   0  0  0  0  0  0  0  0  0  0  0  0
  1  2  1  0  0  0  0
  2  3  1  0  0  0  0
  2  4  1  0  0  0  0
  2  5  1  0  0  0  0
  5  6  2  0  0  0  0
  5  7  1  0  0  0  0
  7  8  1  0  0  0  0
  7  9  1  0  0  0  0
  9 10  1  0  0  0  0
  9 11  1  0  0  0  0
  9 21  1  0  0  0  0
 11 12  1  0  0  0  0
 11 13  1  0  0  0  0
 11 14  1  0  0  0  0
 14 15  1  0  0  0  0
 14 16  1  0  0  0  0
 14 17  1  0  0  0  0
 17 18  2  0  0  0  0
 17 19  1  0  0  0  0
 19 20  1  0  0  0  0
 21 22  2  0  0  0  0
 21 23  1  0  0  0  0
 23 24  1  0  0  0  0
 23 25  1  0  0  0  0
 25 26  1  0  0  0  0
 25 27  1  0  0  0  0
 25 28  1  0  0  0  0
M  END
$$$$

  -OEChem-02102214123D

 28 27  0     1  0  0  0  0  0999 V2000
   -2.6296   -4.1171    0.3414 H   0  0  0  0  0  0  0  0  0  0  0  0
   -2.6280   -3.0985   -0.0573 C   0  0  0  0  0  0  0  0  0  0  0  0
   -3.2498   -2.4688    0.5837 H   0  0  0  0  0  0  0  0  0  0  0  0
   -3.0516   -3.1140   -1.0645 H   0  0  0  0  0  0  0  0  0  0  0  0
   -1.2119   -2.5572   -0.1007 C   0  0  0  0  0  0  0  0  0  0  0  0
   -0.2788   -3.2626    0.2394 O   0  0  0  0  0  0  0  0  0  0  0  0
   -0.9895   -1.2589   -0.5119 N   0  0  0  0  0  0  0  0  0  0  0  0
   -1.8165   -0.6749   -0.6259 H   0  0  0  0  0  0  0  0  0  0  0  0
    0.3065   -0.5703   -0.3861 C   0  0  1  0  0  0  0  0  0  0  0  0
    1.0427   -1.2082   -0.8893 H   0  0  0  0  0  0  0  0  0  0  0  0
    0.2403    0.7464   -1.2026 C   0  0  0  0  0  0  0  0  0  0  0  0
    1.1865    0.8210   -1.7493 H   0  0  0  0  0  0  0  0  0  0  0  0
   -0.5509    0.6861   -1.9580 H   0  0  0  0  0  0  0  0  0  0  0  0
    0.0938    2.0587   -0.3962 C   0  0  0  0  0  0  0  0  0  0  0  0
    0.8308    2.1081    0.4100 H   0  0  0  0  0  0  0  0  0  0  0  0
    0.3129    2.8919   -1.0700 H   0  0  0  0  0  0  0  0  0  0  0  0
   -1.3044    2.3017    0.1784 C   0  0  0  0  0  0  0  0  0  0  0  0
   -2.1066    1.3800    0.2476 O   0  0  0  0  0  0  0  0  0  0  0  0
   -1.5792    3.5592    0.5930 O   0  0  0  0  0  0  0  0  0  0  0  0
   -2.4898    3.5481    0.9241 H   0  0  0  0  0  0  0  0  0  0  0  0
    0.8269   -0.4392    1.0644 C   0  0  0  0  0  0  0  0  0  0  0  0
    2.0304   -0.4438    1.2838 O   0  0  0  0  0  0  0  0  0  0  0  0
   -0.0311   -0.0452    2.0756 N   0  0  0  0  0  0  0  0  0  0  0  0
   -1.0181    0.0193    1.8401 H   0  0  0  0  0  0  0  0  0  0  0  0
    0.3991    0.2085    3.4442 C   0  0  0  0  0  0  0  0  0  0  0  0
    1.1113    1.0397    3.4738 H   0  0  0  0  0  0  0  0  0  0  0  0
   -0.4605    0.4664    4.0700 H   0  0  0  0  0  0  0  0  0  0  0  0
    0.8786   -0.6818    3.8649 H   0  0  0  0  0  0  0  0  0  0  0  0
  1  2  1  0  0  0  0
  2  3  1  0  0  0  0
  2  4  1  0  0  0  0
  2  5  1  0  0  0  0
  5  6  2  0  0  0  0
  5  7  1  0  0  0  0
  7  8  1  0  0  0  0
  7  9  1  0  0  0  0
  9 10  1  0  0  0  0
  9 11  1  0  0  0  0
  9 21  1  0  0  0  0
 11 12  1  0  0  0  0
 11 13  1  0  0  0  0
 11 14  1  0  0  0  0
 14 15  1  0  0  0  0
 14 16  1  0  0  0  0
 14 17  1  0  0  0  0
 17 18  2  0  0  0  0
 17 19  1  0  0  0  0
 19 20  1  0  0  0  0
 21 22  2  0  0  0  0
 21 23  1  0  0  0  0
 23 24  1  0  0  0  0
 23 25  1  0  0  0  0
 25 26  1  0  0  0  0
 25 27  1  0  0  0  0
 25 28  1  0  0  0  0
M  END
$$$$

  -OEChem-02102214123D

 28 27  0     1  0  0  0  0  0999 V2000
   -2.6198   -4.1616    0.3169 H   0  0  0  0  0  0  0  0  0  0  0  0
   -2.6233   -3.1466   -0.0907 C   0  0  0  0  0  0  0  0  0  0  0  0
   -3.2801   -2.5240    0.5213 H   0  0  0  0  0  0  0  0  0  0  0  0
   -3.0097   -3.1787   -1.1122 H   0  0  0  0  0  0  0  0  0  0  0  0
   -1.2168   -2.5788   -0.0886 C   0  0  0  0  0  0  0  0  0  0  0  0
   -0.2815   -3.2679    0.2778 O   0  0  0  0  0  0  0  0  0  0  0  0
   -1.0052   -1.2762   -0.4911 N   0  0  0  0  0  0  0  0  0  0  0  0
   -1.8370   -0.7039   -0.6268 H   0  0  0  0  0  0  0  0  0  0  0  0
    0.2820   -0.5729   -0.3585 C   0  0  1  0  0  0  0  0  0  0  0  0
    1.0176   -1.2226   -0.8479 H   0  0  0  0  0  0  0  0  0  0  0  0
    0.2504    0.7235   -1.2082 C   0  0  0  0  0  0  0  0  0  0  0  0
    1.2028    0.7786   -1.7466 H   0  0  0  0  0  0  0  0  0  0  0  0
   -0.5344    0.6430   -1.9680 H   0  0  0  0  0  0  0  0  0  0  0  0
    0.0869    2.0637   -0.4532 C   0  0  0  0  0  0  0  0  0  0  0  0
    0.9418    2.2041    0.2152 H   0  0  0  0  0  0  0  0  0  0  0  0
    0.1118    2.8793   -1.1809 H   0  0  0  0  0  0  0  0  0  0  0  0
   -1.1930    2.2149    0.3740 C   0  0  0  0  0  0  0  0  0  0  0  0
   -2.0760    1.3709    0.2999 O   0  0  0  0  0  0  0  0  0  0  0  0
   -1.2814    3.3161    1.1541 O   0  0  0  0  0  0  0  0  0  0  0  0
   -2.1439    3.2758    1.5934 H   0  0  0  0  0  0  0  0  0  0  0  0
    0.8210   -0.4291    1.0845 C   0  0  0  0  0  0  0  0  0  0  0  0
    2.0286   -0.4017    1.2791 O   0  0  0  0  0  0  0  0  0  0  0  0
   -0.0207   -0.0448    2.1122 N   0  0  0  0  0  0  0  0  0  0  0  0
   -1.0162   -0.0345    1.9069 H   0  0  0  0  0  0  0  0  0  0  0  0
    0.4350    0.2241    3.4699 C   0  0  0  0  0  0  0  0  0  0  0  0
    1.1495    1.0540    3.4772 H   0  0  0  0  0  0  0  0  0  0  0  0
   -0.4125    0.4927    4.1076 H   0  0  0  0  0  0  0  0  0  0  0  0
    0.9196   -0.6626    3.8925 H   0  0  0  0  0  0  0  0  0  0  0  0
  1  2  1  0  0  0  0
  2  3  1  0  0  0  0
  2  4  1  0  0  0  0
  2  5  1  0  0  0  0
  5  6  2  0  0  0  0
  5  7  1  0  0  0  0
  7  8  1  0  0  0  0
  7  9  1  0  0  0  0
  9 10  1  0  0  0  0
  9 11  1  0  0  0  0
  9 21  1  0  0  0  0
 11 12  1  0  0  0  0
 11 13  1  0  0  0  0
 11 14  1  0  0  0  0
 14 15  1  0  0  0  0
 14 16  1  0  0  0  0
 14 17  1  0  0  0  0
 17 18  2  0  0  0  0
 17 19  1  0  0  0  0
 19 20  1  0  0  0  0
 21 22  2  0  0  0  0
 21 23  1  0  0  0  0
 23 24  1  0  0  0  0
 23 25  1  0  0  0  0
 25 26  1  0  0  0  0
 25 27  1  0  0  0  0
 25 28  1  0  0  0  0
M  END
$$$$

  -OEChem-02102214123D

 28 27  0     1  0  0  0  0  0999 V2000
   -2.4982   -4.2692    0.2848 H   0  0  0  0  0  0  0  0  0  0  0  0
   -2.5432   -3.2439   -0.0934 C   0  0  0  0  0  0  0  0  0  0  0  0
   -3.2191   -2.6649    0.5402 H   0  0  0  0  0  0  0  0  0  0  0  0
   -2.9351   -3.2617   -1.1133 H   0  0  0  0  0  0  0  0  0  0  0  0
   -1.1597   -2.6221   -0.0828 C   0  0  0  0  0  0  0  0  0  0  0  0
   -0.1971   -3.2816    0.2674 O   0  0  0  0  0  0  0  0  0  0  0  0
   -1.0016   -1.3032   -0.4560 N   0  0  0  0  0  0  0  0  0  0  0  0
   -1.8551   -0.7627   -0.5826 H   0  0  0  0  0  0  0  0  0  0  0  0
    0.2583   -0.5529   -0.3213 C   0  0  1  0  0  0  0  0  0  0  0  0
    1.0030   -1.1937   -0.8088 H   0  0  0  0  0  0  0  0  0  0  0  0
    0.2237    0.7199   -1.2065 C   0  0  0  0  0  0  0  0  0  0  0  0
    1.1799    0.7753   -1.7383 H   0  0  0  0  0  0  0  0  0  0  0  0
   -0.5510    0.5915   -1.9698 H   0  0  0  0  0  0  0  0  0  0  0  0
    0.0096    2.0928   -0.5252 C   0  0  0  0  0  0  0  0  0  0  0  0
    0.9455    2.3712   -0.0304 H   0  0  0  0  0  0  0  0  0  0  0  0
   -0.1890    2.8467   -1.2916 H   0  0  0  0  0  0  0  0  0  0  0  0
   -1.0960    2.1733    0.5289 C   0  0  0  0  0  0  0  0  0  0  0  0
   -2.0275    1.3805    0.4877 O   0  0  0  0  0  0  0  0  0  0  0  0
   -0.9972    3.1590    1.4498 O   0  0  0  0  0  0  0  0  0  0  0  0
   -1.7787    3.0868    2.0175 H   0  0  0  0  0  0  0  0  0  0  0  0
    0.8308   -0.4069    1.1093 C   0  0  0  0  0  0  0  0  0  0  0  0
    2.0421   -0.3283    1.2636 O   0  0  0  0  0  0  0  0  0  0  0  0
    0.0137   -0.0738    2.1738 N   0  0  0  0  0  0  0  0  0  0  0  0
   -0.9880   -0.0754    1.9997 H   0  0  0  0  0  0  0  0  0  0  0  0
    0.5110    0.2352    3.5083 C   0  0  0  0  0  0  0  0  0  0  0  0
    1.1248    1.1420    3.4873 H   0  0  0  0  0  0  0  0  0  0  0  0
   -0.3243    0.3977    4.1960 H   0  0  0  0  0  0  0  0  0  0  0  0
    1.1178   -0.5922    3.8912 H   0  0  0  0  0  0  0  0  0  0  0  0
  1  2  1  0  0  0  0
  2  3  1  0  0  0  0
  2  4  1  0  0  0  0
  2  5  1  0  0  0  0
  5  6  2  0  0  0  0
  5  7  1  0  0  0  0
  7  8  1  0  0  0  0
  7  9  1  0  0  0  0
  9 10  1  0  0  0  0
  9 11  1  0  0  0  0
  9 21  1  0  0  0  0
 11 12  1  0  0  0  0
 11 13  1  0  0  0  0
 11 14  1  0  0  0  0
 14 15  1  0  0  0  0
 14 16  1  0  0  0  0
 14 17  1  0  0  0  0
 17 18  2  0  0  0  0
 17 19  1  0  0  0  0
 19 20  1  0  0  0  0
 21 22  2  0  0  0  0
 21 23  1  0  0  0  0
 23 24  1  0  0  0  0
 23 25  1  0  0  0  0
 25 26  1  0  0  0  0
 25 27  1  0  0  0  0
 25 28  1  0  0  0  0
M  END
$$$$

  -OEChem-02102214123D

 28 27  0     1  0  0  0  0  0999 V2000
   -2.8792   -4.1099    0.1138 H   0  0  0  0  0  0  0  0  0  0  0  0
   -2.8175   -3.0736   -0.2303 C   0  0  0  0  0  0  0  0  0  0  0  0
   -3.4740   -2.4582    0.3893 H   0  0  0  0  0  0  0  0  0  0  0  0
   -3.1565   -3.0264   -1.2680 H   0  0  0  0  0  0  0  0  0  0  0  0
   -1.3887   -2.5739   -0.1300 C   0  0  0  0  0  0  0  0  0  0  0  0
   -0.5050   -3.3245    0.2451 O   0  0  0  0  0  0  0  0  0  0  0  0
   -1.0985   -1.2635   -0.4529 N   0  0  0  0  0  0  0  0  0  0  0  0
   -1.8966   -0.6508   -0.6076 H   0  0  0  0  0  0  0  0  0  0  0  0
    0.2051   -0.6256   -0.2053 C   0  0  1  0  0  0  0  0  0  0  0  0
    0.9172   -1.3451   -0.6279 H   0  0  0  0  0  0  0  0  0  0  0  0
    0.4006    0.6168   -1.1155 C   0  0  0  0  0  0  0  0  0  0  0  0
    1.4043    0.5512   -1.5498 H   0  0  0  0  0  0  0  0  0  0  0  0
   -0.3030    0.5323   -1.9505 H   0  0  0  0  0  0  0  0  0  0  0  0
    0.2602    2.0409   -0.5233 C   0  0  0  0  0  0  0  0  0  0  0  0
    1.2500    2.3457   -0.1716 H   0  0  0  0  0  0  0  0  0  0  0  0
   -0.0308    2.7352   -1.3168 H   0  0  0  0  0  0  0  0  0  0  0  0
   -0.7103    2.2031    0.6436 C   0  0  0  0  0  0  0  0  0  0  0  0
   -1.7987    1.6493    0.5579 O   0  0  0  0  0  0  0  0  0  0  0  0
   -0.3105    2.9516    1.7057 O   0  0  0  0  0  0  0  0  0  0  0  0
    0.6045    3.2337    1.5660 H   0  0  0  0  0  0  0  0  0  0  0  0
    0.6875   -0.5581    1.2651 C   0  0  0  0  0  0  0  0  0  0  0  0
    1.8910   -0.5355    1.4888 O   0  0  0  0  0  0  0  0  0  0  0  0
   -0.1654   -0.1828    2.2864 N   0  0  0  0  0  0  0  0  0  0  0  0
   -1.1324    0.0069    2.0299 H   0  0  0  0  0  0  0  0  0  0  0  0
    0.2756    0.1204    3.6419 C   0  0  0  0  0  0  0  0  0  0  0  0
    0.9632    0.9723    3.6411 H   0  0  0  0  0  0  0  0  0  0  0  0
   -0.5841    0.3703    4.2710 H   0  0  0  0  0  0  0  0  0  0  0  0
    0.7849   -0.7441    4.0803 H   0  0  0  0  0  0  0  0  0  0  0  0
  1  2  1  0  0  0  0
  2  3  1  0  0  0  0
  2  4  1  0  0  0  0
  2  5  1  0  0  0  0
  5  6  2  0  0  0  0
  5  7  1  0  0  0  0
  7  8  1  0  0  0  0
  7  9  1  0  0  0  0
  9 10  1  0  0  0  0
  9 11  1  0  0  0  0
  9 21  1  0  0  0  0
 11 12  1  0  0  0  0
 11 13  1  0  0  0  0
 11 14  1  0  0  0  0
 14 15  1  0  0  0  0
 14 16  1  0  0  0  0
 14 17  1  0  0  0  0
 17 18  2  0  0  0  0
 17 19  1  0  0  0  0
 19 20  1  0  0  0  0
 21 22  2  0  0  0  0
 21 23  1  0  0  0  0
 23 24  1  0  0  0  0
 23 25  1  0  0  0  0
 25 26  1  0  0  0  0
 25 27  1  0  0  0  0
 25 28  1  0  0  0  0
M  END
$$$$

  -OEChem-02102214123D

 28 27  0     1  0  0  0  0  0999 V2000
   -2.4203   -4.3569    0.2095 H   0  0  0  0  0  0  0  0  0  0  0  0
   -2.4984   -3.3144   -0.1118 C   0  0  0  0  0  0  0  0  0  0  0  0
   -3.1912   -2.7930    0.5530 H   0  0  0  0  0  0  0  0  0  0  0  0
   -2.8910   -3.2890   -1.1311 H   0  0  0  0  0  0  0  0  0  0  0  0
   -1.1350   -2.6512   -0.0665 C   0  0  0  0  0  0  0  0  0  0  0  0
   -0.1566   -3.2952    0.2683 O   0  0  0  0  0  0  0  0  0  0  0  0
   -1.0133   -1.3147   -0.3918 N   0  0  0  0  0  0  0  0  0  0  0  0
   -1.8780   -0.8043   -0.5505 H   0  0  0  0  0  0  0  0  0  0  0  0
    0.2290   -0.5359   -0.2452 C   0  0  1  0  0  0  0  0  0  0  0  0
    0.9744   -1.1870   -0.7183 H   0  0  0  0  0  0  0  0  0  0  0  0
    0.2302    0.6919   -1.1990 C   0  0  0  0  0  0  0  0  0  0  0  0
    1.2113    0.7099   -1.6871 H   0  0  0  0  0  0  0  0  0  0  0  0
   -0.4990    0.4952   -1.9918 H   0  0  0  0  0  0  0  0  0  0  0  0
   -0.0219    2.1333   -0.6828 C   0  0  0  0  0  0  0  0  0  0  0  0
    0.9417    2.6520   -0.6744 H   0  0  0  0  0  0  0  0  0  0  0  0
   -0.6600    2.6622   -1.3960 H   0  0  0  0  0  0  0  0  0  0  0  0
   -0.6215    2.3066    0.7054 C   0  0  0  0  0  0  0  0  0  0  0  0
   -1.6870    1.7537    0.9404 O   0  0  0  0  0  0  0  0  0  0  0  0
    0.0284    3.0953    1.5919 O   0  0  0  0  0  0  0  0  0  0  0  0
   -0.4969    3.0881    2.4052 H   0  0  0  0  0  0  0  0  0  0  0  0
    0.8284   -0.4197    1.1792 C   0  0  0  0  0  0  0  0  0  0  0  0
    2.0432   -0.3569    1.3121 O   0  0  0  0  0  0  0  0  0  0  0  0
    0.0377   -0.1452    2.2799 N   0  0  0  0  0  0  0  0  0  0  0  0
   -0.9620   -0.0539    2.1149 H   0  0  0  0  0  0  0  0  0  0  0  0
    0.5680    0.0919    3.6161 C   0  0  0  0  0  0  0  0  0  0  0  0
    1.2074    0.9808    3.6226 H   0  0  0  0  0  0  0  0  0  0  0  0
   -0.2499    0.2459    4.3262 H   0  0  0  0  0  0  0  0  0  0  0  0
    1.1575   -0.7684    3.9505 H   0  0  0  0  0  0  0  0  0  0  0  0
  1  2  1  0  0  0  0
  2  3  1  0  0  0  0
  2  4  1  0  0  0  0
  2  5  1  0  0  0  0
  5  6  2  0  0  0  0
  5  7  1  0  0  0  0
  7  8  1  0  0  0  0
  7  9  1  0  0  0  0
  9 10  1  0  0  0  0
  9 11  1  0  0  0  0
  9 21  1  0  0  0  0
 11 12  1  0  0  0  0
 11 13  1  0  0  0  0
 11 14  1  0  0  0  0
 14 15  1  0  0  0  0
 14 16  1  0  0  0  0
 14 17  1  0  0  0  0
 17 18  2  0  0  0  0
 17 19  1  0  0  0  0
 19 20  1  0  0  0  0
 21 22  2  0  0  0  0
 21 23  1  0  0  0  0
 23 24  1  0  0  0  0
 23 25  1  0  0  0  0
 25 26  1  0  0  0  0
 25 27  1  0  0  0  0
 25 28  1  0  0  0  0
M  END
$$$$

  -OEChem-02102214123D

 28 27  0     1  0  0  0  0  0999 V2000
   -3.0718   -3.9314    0.2683 H   0  0  0  0  0  0  0  0  0  0  0  0
   -2.9413   -2.9140   -0.1116 C   0  0  0  0  0  0  0  0  0  0  0  0
   -3.6046   -2.2449    0.4416 H   0  0  0  0  0  0  0  0  0  0  0  0
   -3.2142   -2.8962   -1.1695 H   0  0  0  0  0  0  0  0  0  0  0  0
   -1.4994   -2.4749    0.0589 C   0  0  0  0  0  0  0  0  0  0  0  0
   -0.6836   -3.2408    0.5387 O   0  0  0  0  0  0  0  0  0  0  0  0
   -1.1219   -1.2004   -0.3160 N   0  0  0  0  0  0  0  0  0  0  0  0
   -1.8515   -0.5893   -0.6708 H   0  0  0  0  0  0  0  0  0  0  0  0
    0.2418   -0.6571   -0.1771 C   0  0  1  0  0  0  0  0  0  0  0  0
    0.8618   -1.4539   -0.6071 H   0  0  0  0  0  0  0  0  0  0  0  0
    0.4671    0.5071   -1.1840 C   0  0  0  0  0  0  0  0  0  0  0  0
    1.4546    0.3216   -1.6220 H   0  0  0  0  0  0  0  0  0  0  0  0
   -0.2494    0.3929   -2.0041 H   0  0  0  0  0  0  0  0  0  0  0  0
    0.4813    2.0058   -0.7730 C   0  0  0  0  0  0  0  0  0  0  0  0
    1.4414    2.4307   -1.0837 H   0  0  0  0  0  0  0  0  0  0  0  0
   -0.2901    2.5204   -1.3522 H   0  0  0  0  0  0  0  0  0  0  0  0
    0.2629    2.3924    0.6829 C   0  0  0  0  0  0  0  0  0  0  0  0
    1.1985    2.8370    1.3228 O   0  0  0  0  0  0  0  0  0  0  0  0
   -1.0017    2.3134    1.1643 O   0  0  0  0  0  0  0  0  0  0  0  0
   -0.9443    2.6681    2.0657 H   0  0  0  0  0  0  0  0  0  0  0  0
    0.8277   -0.5948    1.2544 C   0  0  0  0  0  0  0  0  0  0  0  0
    2.0299   -0.7556    1.4134 O   0  0  0  0  0  0  0  0  0  0  0  0
    0.0761   -0.1333    2.3190 N   0  0  0  0  0  0  0  0  0  0  0  0
   -0.9152    0.0080    2.1529 H   0  0  0  0  0  0  0  0  0  0  0  0
    0.6145    0.0478    3.6612 C   0  0  0  0  0  0  0  0  0  0  0  0
    1.4351    0.7732    3.6489 H   0  0  0  0  0  0  0  0  0  0  0  0
   -0.1631    0.4181    4.3355 H   0  0  0  0  0  0  0  0  0  0  0  0
    0.9903   -0.9030    4.0540 H   0  0  0  0  0  0  0  0  0  0  0  0
  1  2  1  0  0  0  0
  2  3  1  0  0  0  0
  2  4  1  0  0  0  0
  2  5  1  0  0  0  0
  5  6  2  0  0  0  0
  5  7  1  0  0  0  0
  7  8  1  0  0  0  0
  7  9  1  0  0  0  0
  9 10  1  0  0  0  0
  9 11  1  0  0  0  0
  9 21  1  0  0  0  0
 11 12  1  0  0  0  0
 11 13  1  0  0  0  0
 11 14  1  0  0  0  0
 14 15  1  0  0  0  0
 14 16  1  0  0  0  0
 14 17  1  0  0  0  0
 17 18  2  0  0  0  0
 17 19  1  0  0  0  0
 19 20  1  0  0  0  0
 21 22  2  0  0  0  0
 21 23  1  0  0  0  0
 23 24  1  0  0  0  0
 23 25  1  0  0  0  0
 25 26  1  0  0  0  0
 25 27  1  0  0  0  0
 25 28  1  0  0  0  0
M  END
$$$$

  -OEChem-02102214123D

 28 27  0     1  0  0  0  0  0999 V2000
   -3.0428   -3.8929   -0.0039 H   0  0  0  0  0  0  0  0  0  0  0  0
   -2.9264   -2.8476   -0.3045 C   0  0  0  0  0  0  0  0  0  0  0  0
   -3.5900   -2.2306    0.3059 H   0  0  0  0  0  0  0  0  0  0  0  0
   -3.2111   -2.7513   -1.3549 H   0  0  0  0  0  0  0  0  0  0  0  0
   -1.4868   -2.4084   -0.1145 C   0  0  0  0  0  0  0  0  0  0  0  0
   -0.6609   -3.2013    0.2987 O   0  0  0  0  0  0  0  0  0  0  0  0
   -1.1226   -1.1074   -0.4026 N   0  0  0  0  0  0  0  0  0  0  0  0
   -1.8551   -0.4871   -0.7341 H   0  0  0  0  0  0  0  0  0  0  0  0
    0.2446   -0.5713   -0.2621 C   0  0  1  0  0  0  0  0  0  0  0  0
    0.8642   -1.3121   -0.7831 H   0  0  0  0  0  0  0  0  0  0  0  0
    0.3940    0.6951   -1.1559 C   0  0  0  0  0  0  0  0  0  0  0  0
    1.3740    0.5745   -1.6320 H   0  0  0  0  0  0  0  0  0  0  0  0
   -0.3397    0.6446   -1.9672 H   0  0  0  0  0  0  0  0  0  0  0  0
    0.4084    2.1505   -0.6106 C   0  0  0  0  0  0  0  0  0  0  0  0
    1.1707    2.7142   -1.1575 H   0  0  0  0  0  0  0  0  0  0  0  0
   -0.5542    2.6019   -0.8661 H   0  0  0  0  0  0  0  0  0  0  0  0
    0.6163    2.4153    0.8737 C   0  0  0  0  0  0  0  0  0  0  0  0
    1.7496    2.5836    1.2841 O   0  0  0  0  0  0  0  0  0  0  0  0
   -0.4873    2.5374    1.6496 O   0  0  0  0  0  0  0  0  0  0  0  0
   -0.1465    2.7381    2.5355 H   0  0  0  0  0  0  0  0  0  0  0  0
    0.8502   -0.6261    1.1610 C   0  0  0  0  0  0  0  0  0  0  0  0
    2.0439   -0.8538    1.2977 O   0  0  0  0  0  0  0  0  0  0  0  0
    0.1131   -0.2521    2.2697 N   0  0  0  0  0  0  0  0  0  0  0  0
   -0.8763   -0.0774    2.1268 H   0  0  0  0  0  0  0  0  0  0  0  0
    0.6486   -0.2723    3.6251 C   0  0  0  0  0  0  0  0  0  0  0  0
    1.5210    0.3857    3.7017 H   0  0  0  0  0  0  0  0  0  0  0  0
   -0.1074    0.0718    4.3371 H   0  0  0  0  0  0  0  0  0  0  0  0
    0.9489   -1.2887    3.9011 H   0  0  0  0  0  0  0  0  0  0  0  0
  1  2  1  0  0  0  0
  2  3  1  0  0  0  0
  2  4  1  0  0  0  0
  2  5  1  0  0  0  0
  5  6  2  0  0  0  0
  5  7  1  0  0  0  0
  7  8  1  0  0  0  0
  7  9  1  0  0  0  0
  9 10  1  0  0  0  0
  9 11  1  0  0  0  0
  9 21  1  0  0  0  0
 11 12  1  0  0  0  0
 11 13  1  0  0  0  0
 11 14  1  0  0  0  0
 14 15  1  0  0  0  0
 14 16  1  0  0  0  0
 14 17  1  0  0  0  0
 17 18  2  0  0  0  0
 17 19  1  0  0  0  0
 19 20  1  0  0  0  0
 21 22  2  0  0  0  0
 21 23  1  0  0  0  0
 23 24  1  0  0  0  0
 23 25  1  0  0  0  0
 25 26  1  0  0  0  0
 25 27  1  0  0  0  0
 25 28  1  0  0  0  0
M  END
$$$$

  -OEChem-02102214123D

 28 27  0     1  0  0  0  0  0999 V2000
   -2.8847   -3.9973    0.2048 H   0  0  0  0  0  0  0  0  0  0  0  0
   -2.7940   -2.9770   -0.1790 C   0  0  0  0  0  0  0  0  0  0  0  0
   -3.4954   -2.3357    0.3599 H   0  0  0  0  0  0  0  0  0  0  0  0
   -3.0510   -2.9775   -1.2410 H   0  0  0  0  0  0  0  0  0  0  0  0
   -1.3755   -2.4739    0.0113 C   0  0  0  0  0  0  0  0  0  0  0  0
   -0.5372   -3.2001    0.5122 O   0  0  0  0  0  0  0  0  0  0  0  0
   -1.0447   -1.1917   -0.3827 N   0  0  0  0  0  0  0  0  0  0  0  0
   -1.7817   -0.6385   -0.8087 H   0  0  0  0  0  0  0  0  0  0  0  0
    0.3044   -0.6032   -0.2702 C   0  0  1  0  0  0  0  0  0  0  0  0
    0.9700   -1.3373   -0.7410 H   0  0  0  0  0  0  0  0  0  0  0  0
    0.3681    0.6330   -1.2169 C   0  0  0  0  0  0  0  0  0  0  0  0
    1.3467    0.5473   -1.7036 H   0  0  0  0  0  0  0  0  0  0  0  0
   -0.3748    0.5166   -2.0127 H   0  0  0  0  0  0  0  0  0  0  0  0
    0.3175    2.1039   -0.7219 C   0  0  0  0  0  0  0  0  0  0  0  0
    0.8190    2.7353   -1.4614 H   0  0  0  0  0  0  0  0  0  0  0  0
   -0.7336    2.4054   -0.7128 H   0  0  0  0  0  0  0  0  0  0  0  0
    0.8757    2.4643    0.6483 C   0  0  0  0  0  0  0  0  0  0  0  0
    2.0841    2.5026    0.7853 O   0  0  0  0  0  0  0  0  0  0  0  0
   -0.0008    2.8057    1.6216 O   0  0  0  0  0  0  0  0  0  0  0  0
    0.5499    3.0077    2.3942 H   0  0  0  0  0  0  0  0  0  0  0  0
    0.8593   -0.5308    1.1728 C   0  0  0  0  0  0  0  0  0  0  0  0
    2.0443   -0.7491    1.3805 O   0  0  0  0  0  0  0  0  0  0  0  0
    0.0677   -0.0912    2.2186 N   0  0  0  0  0  0  0  0  0  0  0  0
   -0.9191    0.0387    2.0232 H   0  0  0  0  0  0  0  0  0  0  0  0
    0.5288   -0.0569    3.6008 C   0  0  0  0  0  0  0  0  0  0  0  0
    1.4248    0.5666    3.6919 H   0  0  0  0  0  0  0  0  0  0  0  0
   -0.2478    0.3592    4.2493 H   0  0  0  0  0  0  0  0  0  0  0  0
    0.7674   -1.0678    3.9480 H   0  0  0  0  0  0  0  0  0  0  0  0
  1  2  1  0  0  0  0
  2  3  1  0  0  0  0
  2  4  1  0  0  0  0
  2  5  1  0  0  0  0
  5  6  2  0  0  0  0
  5  7  1  0  0  0  0
  7  8  1  0  0  0  0
  7  9  1  0  0  0  0
  9 10  1  0  0  0  0
  9 11  1  0  0  0  0
  9 21  1  0  0  0  0
 11 12  1  0  0  0  0
 11 13  1  0  0  0  0
 11 14  1  0  0  0  0
 14 15  1  0  0  0  0
 14 16  1  0  0  0  0
 14 17  1  0  0  0  0
 17 18  2  0  0  0  0
 17 19  1  0  0  0  0
 19 20  1  0  0  0  0
 21 22  2  0  0  0  0
 21 23  1  0  0  0  0
 23 24  1  0  0  0  0
 23 25  1  0  0  0  0
 25 26  1  0  0  0  0
 25 27  1  0  0  0  0
 25 28  1  0  0  0  0
M  END
$$$$

  -OEChem-02102214123D

 28 27  0     1  0  0  0  0  0999 V2000
   -2.8115   -4.0229    0.2807 H   0  0  0  0  0  0  0  0  0  0  0  0
   -2.7352   -3.0137   -0.1345 C   0  0  0  0  0  0  0  0  0  0  0  0
   -3.4535   -2.3687    0.3769 H   0  0  0  0  0  0  0  0  0  0  0  0
   -2.9814   -3.0529   -1.1984 H   0  0  0  0  0  0  0  0  0  0  0  0
   -1.3283   -2.4776    0.0532 C   0  0  0  0  0  0  0  0  0  0  0  0
   -0.4861   -3.1648    0.6001 O   0  0  0  0  0  0  0  0  0  0  0  0
   -1.0147   -1.2094   -0.3967 N   0  0  0  0  0  0  0  0  0  0  0  0
   -1.7496   -0.7024   -0.8797 H   0  0  0  0  0  0  0  0  0  0  0  0
    0.3277   -0.5977   -0.3157 C   0  0  1  0  0  0  0  0  0  0  0  0
    1.0161   -1.3117   -0.7840 H   0  0  0  0  0  0  0  0  0  0  0  0
    0.3213    0.6515   -1.2484 C   0  0  0  0  0  0  0  0  0  0  0  0
    1.2724    0.6034   -1.7912 H   0  0  0  0  0  0  0  0  0  0  0  0
   -0.4638    0.5378   -2.0029 H   0  0  0  0  0  0  0  0  0  0  0  0
    0.2518    2.0986   -0.6945 C   0  0  0  0  0  0  0  0  0  0  0  0
    0.4675    2.7960   -1.5088 H   0  0  0  0  0  0  0  0  0  0  0  0
   -0.7780    2.2840   -0.3774 H   0  0  0  0  0  0  0  0  0  0  0  0
    1.1531    2.4663    0.4795 C   0  0  0  0  0  0  0  0  0  0  0  0
    2.3572    2.3951    0.3151 O   0  0  0  0  0  0  0  0  0  0  0  0
    0.5768    2.9299    1.6123 O   0  0  0  0  0  0  0  0  0  0  0  0
    1.3145    3.0923    2.2209 H   0  0  0  0  0  0  0  0  0  0  0  0
    0.8575   -0.4701    1.1327 C   0  0  0  0  0  0  0  0  0  0  0  0
    2.0408   -0.6592    1.3748 O   0  0  0  0  0  0  0  0  0  0  0  0
    0.0336   -0.0029    2.1408 N   0  0  0  0  0  0  0  0  0  0  0  0
   -0.9535    0.0706    1.9209 H   0  0  0  0  0  0  0  0  0  0  0  0
    0.4519    0.0652    3.5350 C   0  0  0  0  0  0  0  0  0  0  0  0
    1.3506    0.6826    3.6376 H   0  0  0  0  0  0  0  0  0  0  0  0
   -0.3400    0.5077    4.1466 H   0  0  0  0  0  0  0  0  0  0  0  0
    0.6689   -0.9379    3.9169 H   0  0  0  0  0  0  0  0  0  0  0  0
  1  2  1  0  0  0  0
  2  3  1  0  0  0  0
  2  4  1  0  0  0  0
  2  5  1  0  0  0  0
  5  6  2  0  0  0  0
  5  7  1  0  0  0  0
  7  8  1  0  0  0  0
  7  9  1  0  0  0  0
  9 10  1  0  0  0  0
  9 11  1  0  0  0  0
  9 21  1  0  0  0  0
 11 12  1  0  0  0  0
 11 13  1  0  0  0  0
 11 14  1  0  0  0  0
 14 15  1  0  0  0  0
 14 16  1  0  0  0  0
 14 17  1  0  0  0  0
 17 18  2  0  0  0  0
 17 19  1  0  0  0  0
 19 20  1  0  0  0  0
 21 22  2  0  0  0  0
 21 23  1  0  0  0  0
 23 24  1  0  0  0  0
 23 25  1  0  0  0  0
 25 26  1  0  0  0  0
 25 27  1  0  0  0  0
 25 28  1  0  0  0  0
M  END
$$$$

  -OEChem-02102214123D

 28 27  0     1  0  0  0  0  0999 V2000
   -2.7527   -4.0511    0.3419 H   0  0  0  0  0  0  0  0  0  0  0  0
   -2.6943   -3.0535   -0.1028 C   0  0  0  0  0  0  0  0  0  0  0  0
   -3.4365   -2.4113    0.3770 H   0  0  0  0  0  0  0  0  0  0  0  0
   -2.9220   -3.1308   -1.1685 H   0  0  0  0  0  0  0  0  0  0  0  0
   -1.3043   -2.4777    0.0913 C   0  0  0  0  0  0  0  0  0  0  0  0
   -0.4630   -3.1176    0.6944 O   0  0  0  0  0  0  0  0  0  0  0  0
   -1.0061   -1.2252   -0.4104 N   0  0  0  0  0  0  0  0  0  0  0  0
   -1.7319   -0.7689   -0.9542 H   0  0  0  0  0  0  0  0  0  0  0  0
    0.3278   -0.5925   -0.3441 C   0  0  1  0  0  0  0  0  0  0  0  0
    1.0352   -1.2998   -0.7935 H   0  0  0  0  0  0  0  0  0  0  0  0
    0.3007    0.6535   -1.2778 C   0  0  0  0  0  0  0  0  0  0  0  0
    1.2298    0.6231   -1.8588 H   0  0  0  0  0  0  0  0  0  0  0  0
   -0.5137    0.5468   -2.0012 H   0  0  0  0  0  0  0  0  0  0  0  0
    0.2193    2.0733   -0.6647 C   0  0  0  0  0  0  0  0  0  0  0  0
    0.1800    2.8070   -1.4746 H   0  0  0  0  0  0  0  0  0  0  0  0
   -0.7144    2.1589   -0.1020 H   0  0  0  0  0  0  0  0  0  0  0  0
    1.3695    2.4695    0.2596 C   0  0  0  0  0  0  0  0  0  0  0  0
    2.5051    2.3756   -0.1715 O   0  0  0  0  0  0  0  0  0  0  0  0
    1.0702    2.9659    1.4814 O   0  0  0  0  0  0  0  0  0  0  0  0
    1.9275    3.1144    1.9102 H   0  0  0  0  0  0  0  0  0  0  0  0
    0.8337   -0.4009    1.1064 C   0  0  0  0  0  0  0  0  0  0  0  0
    2.0222   -0.5226    1.3674 O   0  0  0  0  0  0  0  0  0  0  0  0
   -0.0178    0.0952    2.0772 N   0  0  0  0  0  0  0  0  0  0  0  0
   -1.0056    0.0985    1.8487 H   0  0  0  0  0  0  0  0  0  0  0  0
    0.3808    0.2542    3.4700 C   0  0  0  0  0  0  0  0  0  0  0  0
    1.2487    0.9170    3.5488 H   0  0  0  0  0  0  0  0  0  0  0  0
   -0.4374    0.6905    4.0506 H   0  0  0  0  0  0  0  0  0  0  0  0
    0.6392   -0.7167    3.9057 H   0  0  0  0  0  0  0  0  0  0  0  0
  1  2  1  0  0  0  0
  2  3  1  0  0  0  0
  2  4  1  0  0  0  0
  2  5  1  0  0  0  0
  5  6  2  0  0  0  0
  5  7  1  0  0  0  0
  7  8  1  0  0  0  0
  7  9  1  0  0  0  0
  9 10  1  0  0  0  0
  9 11  1  0  0  0  0
  9 21  1  0  0  0  0
 11 12  1  0  0  0  0
 11 13  1  0  0  0  0
 11 14  1  0  0  0  0
 14 15  1  0  0  0  0
 14 16  1  0  0  0  0
 14 17  1  0  0  0  0
 17 18  2  0  0  0  0
 17 19  1  0  0  0  0
 19 20  1  0  0  0  0
 21 22  2  0  0  0  0
 21 23  1  0  0  0  0
 23 24  1  0  0  0  0
 23 25  1  0  0  0  0
 25 26  1  0  0  0  0
 25 27  1  0  0  0  0
 25 28  1  0  0  0  0
M  END
$$$$

  -OEChem-02102214123D

 28 27  0     1  0  0  0  0  0999 V2000
   -2.6943   -4.1027    0.3238 H   0  0  0  0  0  0  0  0  0  0  0  0
   -2.6606   -3.1053   -0.1243 C   0  0  0  0  0  0  0  0  0  0  0  0
   -3.4273   -2.4837    0.3441 H   0  0  0  0  0  0  0  0  0  0  0  0
   -2.8728   -3.1938   -1.1924 H   0  0  0  0  0  0  0  0  0  0  0  0
   -1.2914   -2.4866    0.0842 C   0  0  0  0  0  0  0  0  0  0  0  0
   -0.4430   -3.0905    0.7140 O   0  0  0  0  0  0  0  0  0  0  0  0
   -1.0198   -1.2339   -0.4312 N   0  0  0  0  0  0  0  0  0  0  0  0
   -1.7468   -0.8059   -0.9958 H   0  0  0  0  0  0  0  0  0  0  0  0
    0.2987   -0.5721   -0.3609 C   0  0  1  0  0  0  0  0  0  0  0  0
    1.0196   -1.2726   -0.7993 H   0  0  0  0  0  0  0  0  0  0  0  0
    0.2800    0.6698   -1.2949 C   0  0  0  0  0  0  0  0  0  0  0  0
    1.1998    0.6513   -1.8905 H   0  0  0  0  0  0  0  0  0  0  0  0
   -0.5448    0.5709   -2.0075 H   0  0  0  0  0  0  0  0  0  0  0  0
    0.1751    2.0594   -0.6236 C   0  0  0  0  0  0  0  0  0  0  0  0
   -0.0898    2.7989   -1.3840 H   0  0  0  0  0  0  0  0  0  0  0  0
   -0.6297    2.0543    0.1160 H   0  0  0  0  0  0  0  0  0  0  0  0
    1.4687    2.5374    0.0380 C   0  0  0  0  0  0  0  0  0  0  0  0
    2.4982    2.5150   -0.6146 O   0  0  0  0  0  0  0  0  0  0  0  0
    1.3966    2.9983    1.3071 O   0  0  0  0  0  0  0  0  0  0  0  0
    2.3143    3.1742    1.5666 H   0  0  0  0  0  0  0  0  0  0  0  0
    0.8100   -0.3412    1.0823 C   0  0  0  0  0  0  0  0  0  0  0  0
    2.0093   -0.3852    1.3199 O   0  0  0  0  0  0  0  0  0  0  0  0
   -0.0448    0.1546    2.0502 N   0  0  0  0  0  0  0  0  0  0  0  0
   -1.0359    0.1017    1.8435 H   0  0  0  0  0  0  0  0  0  0  0  0
    0.3753    0.4099    3.4220 C   0  0  0  0  0  0  0  0  0  0  0  0
    1.1951    1.1353    3.4448 H   0  0  0  0  0  0  0  0  0  0  0  0
   -0.4573    0.8157    4.0044 H   0  0  0  0  0  0  0  0  0  0  0  0
    0.7133   -0.5176    3.8960 H   0  0  0  0  0  0  0  0  0  0  0  0
  1  2  1  0  0  0  0
  2  3  1  0  0  0  0
  2  4  1  0  0  0  0
  2  5  1  0  0  0  0
  5  6  2  0  0  0  0
  5  7  1  0  0  0  0
  7  8  1  0  0  0  0
  7  9  1  0  0  0  0
  9 10  1  0  0  0  0
  9 11  1  0  0  0  0
  9 21  1  0  0  0  0
 11 12  1  0  0  0  0
 11 13  1  0  0  0  0
 11 14  1  0  0  0  0
 14 15  1  0  0  0  0
 14 16  1  0  0  0  0
 14 17  1  0  0  0  0
 17 18  2  0  0  0  0
 17 19  1  0  0  0  0
 19 20  1  0  0  0  0
 21 22  2  0  0  0  0
 21 23  1  0  0  0  0
 23 24  1  0  0  0  0
 23 25  1  0  0  0  0
 25 26  1  0  0  0  0
 25 27  1  0  0  0  0
 25 28  1  0  0  0  0
M  END
$$$$

  -OEChem-02102214123D

 28 27  0     1  0  0  0  0  0999 V2000
   -2.6659   -4.1568    0.2644 H   0  0  0  0  0  0  0  0  0  0  0  0
   -2.6448   -3.1605   -0.1866 C   0  0  0  0  0  0  0  0  0  0  0  0
   -3.4441   -2.5592    0.2527 H   0  0  0  0  0  0  0  0  0  0  0  0
   -2.8184   -3.2584   -1.2610 H   0  0  0  0  0  0  0  0  0  0  0  0
   -1.3008   -2.5032    0.0650 C   0  0  0  0  0  0  0  0  0  0  0  0
   -0.4518   -3.0845    0.7153 O   0  0  0  0  0  0  0  0  0  0  0  0
   -1.0513   -1.2408   -0.4366 N   0  0  0  0  0  0  0  0  0  0  0  0
   -1.7739   -0.8316   -1.0207 H   0  0  0  0  0  0  0  0  0  0  0  0
    0.2533   -0.5561   -0.3487 C   0  0  1  0  0  0  0  0  0  0  0  0
    0.9787   -1.2565   -0.7799 H   0  0  0  0  0  0  0  0  0  0  0  0
    0.2600    0.6768   -1.2897 C   0  0  0  0  0  0  0  0  0  0  0  0
    1.1880    0.6562   -1.8720 H   0  0  0  0  0  0  0  0  0  0  0  0
   -0.5537    0.5737   -2.0143 H   0  0  0  0  0  0  0  0  0  0  0  0
    0.1261    2.0573   -0.6036 C   0  0  0  0  0  0  0  0  0  0  0  0
   -0.3463    2.7481   -1.3072 H   0  0  0  0  0  0  0  0  0  0  0  0
   -0.5303    2.0027    0.2673 H   0  0  0  0  0  0  0  0  0  0  0  0
    1.4669    2.6803   -0.2150 C   0  0  0  0  0  0  0  0  0  0  0  0
    2.3311    2.7973   -1.0677 O   0  0  0  0  0  0  0  0  0  0  0  0
    1.6140    3.0969    1.0632 O   0  0  0  0  0  0  0  0  0  0  0  0
    2.5376    3.3808    1.1395 H   0  0  0  0  0  0  0  0  0  0  0  0
    0.7862   -0.3104    1.0847 C   0  0  0  0  0  0  0  0  0  0  0  0
    1.9941   -0.2960    1.2809 O   0  0  0  0  0  0  0  0  0  0  0  0
   -0.0532    0.1722    2.0727 N   0  0  0  0  0  0  0  0  0  0  0  0
   -1.0491    0.0829    1.9041 H   0  0  0  0  0  0  0  0  0  0  0  0
    0.4097    0.5190    3.4103 C   0  0  0  0  0  0  0  0  0  0  0  0
    1.1766    1.2993    3.3601 H   0  0  0  0  0  0  0  0  0  0  0  0
   -0.4223    0.8940    4.0137 H   0  0  0  0  0  0  0  0  0  0  0  0
    0.8326   -0.3600    3.9083 H   0  0  0  0  0  0  0  0  0  0  0  0
  1  2  1  0  0  0  0
  2  3  1  0  0  0  0
  2  4  1  0  0  0  0
  2  5  1  0  0  0  0
  5  6  2  0  0  0  0
  5  7  1  0  0  0  0
  7  8  1  0  0  0  0
  7  9  1  0  0  0  0
  9 10  1  0  0  0  0
  9 11  1  0  0  0  0
  9 21  1  0  0  0  0
 11 12  1  0  0  0  0
 11 13  1  0  0  0  0
 11 14  1  0  0  0  0
 14 15  1  0  0  0  0
 14 16  1  0  0  0  0
 14 17  1  0  0  0  0
 17 18  2  0  0  0  0
 17 19  1  0  0  0  0
 19 20  1  0  0  0  0
 21 22  2  0  0  0  0
 21 23  1  0  0  0  0
 23 24  1  0  0  0  0
 23 25  1  0  0  0  0
 25 26  1  0  0  0  0
 25 27  1  0  0  0  0
 25 28  1  0  0  0  0
M  END
$$$$

  -OEChem-02102214123D

 28 27  0     1  0  0  0  0  0999 V2000
   -2.6243   -4.1948    0.2186 H   0  0  0  0  0  0  0  0  0  0  0  0
   -2.6187   -3.1926   -0.2197 C   0  0  0  0  0  0  0  0  0  0  0  0
   -3.4335   -2.6121    0.2196 H   0  0  0  0  0  0  0  0  0  0  0  0
   -2.7801   -3.2801   -1.2969 H   0  0  0  0  0  0  0  0  0  0  0  0
   -1.2904   -2.5123    0.0525 C   0  0  0  0  0  0  0  0  0  0  0  0
   -0.4360   -3.0842    0.7041 O   0  0  0  0  0  0  0  0  0  0  0  0
   -1.0617   -1.2384   -0.4293 N   0  0  0  0  0  0  0  0  0  0  0  0
   -1.7912   -0.8307   -1.0060 H   0  0  0  0  0  0  0  0  0  0  0  0
    0.2292   -0.5313   -0.3261 C   0  0  1  0  0  0  0  0  0  0  0  0
    0.9627   -1.2259   -0.7526 H   0  0  0  0  0  0  0  0  0  0  0  0
    0.2419    0.6930   -1.2765 C   0  0  0  0  0  0  0  0  0  0  0  0
    1.1883    0.6721   -1.8286 H   0  0  0  0  0  0  0  0  0  0  0  0
   -0.5458    0.5708   -2.0263 H   0  0  0  0  0  0  0  0  0  0  0  0
    0.0763    2.0837   -0.6133 C   0  0  0  0  0  0  0  0  0  0  0  0
   -0.6128    2.6740   -1.2233 H   0  0  0  0  0  0  0  0  0  0  0  0
   -0.3768    2.0150    0.3759 H   0  0  0  0  0  0  0  0  0  0  0  0
    1.3777    2.8795   -0.5349 C   0  0  0  0  0  0  0  0  0  0  0  0
    2.0093    3.0782   -1.5597 O   0  0  0  0  0  0  0  0  0  0  0  0
    1.7491    3.3496    0.6775 O   0  0  0  0  0  0  0  0  0  0  0  0
    2.6112    3.7721    0.5455 H   0  0  0  0  0  0  0  0  0  0  0  0
    0.7660   -0.2889    1.1061 C   0  0  0  0  0  0  0  0  0  0  0  0
    1.9754   -0.2476    1.2886 O   0  0  0  0  0  0  0  0  0  0  0  0
   -0.0723    0.1678    2.1075 N   0  0  0  0  0  0  0  0  0  0  0  0
   -1.0673    0.0448    1.9541 H   0  0  0  0  0  0  0  0  0  0  0  0
    0.4007    0.5008    3.4452 C   0  0  0  0  0  0  0  0  0  0  0  0
    1.1572    1.2914    3.3976 H   0  0  0  0  0  0  0  0  0  0  0  0
   -0.4290    0.8564    4.0632 H   0  0  0  0  0  0  0  0  0  0  0  0
    0.8407   -0.3796    3.9254 H   0  0  0  0  0  0  0  0  0  0  0  0
  1  2  1  0  0  0  0
  2  3  1  0  0  0  0
  2  4  1  0  0  0  0
  2  5  1  0  0  0  0
  5  6  2  0  0  0  0
  5  7  1  0  0  0  0
  7  8  1  0  0  0  0
  7  9  1  0  0  0  0
  9 10  1  0  0  0  0
  9 11  1  0  0  0  0
  9 21  1  0  0  0  0
 11 12  1  0  0  0  0
 11 13  1  0  0  0  0
 11 14  1  0  0  0  0
 14 15  1  0  0  0  0
 14 16  1  0  0  0  0
 14 17  1  0  0  0  0
 17 18  2  0  0  0  0
 17 19  1  0  0  0  0
 19 20  1  0  0  0  0
 21 22  2  0  0  0  0
 21 23  1  0  0  0  0
 23 24  1  0  0  0  0
 23 25  1  0  0  0  0
 25 26  1  0  0  0  0
 25 27  1  0  0  0  0
 25 28  1  0  0  0  0
M  END
$$$$

  -OEChem-02102214123D

 28 27  0     1  0  0  0  0  0999 V2000
   -2.5874   -4.2124    0.1880 H   0  0  0  0  0  0  0  0  0  0  0  0
   -2.5925   -3.2049   -0.2379 C   0  0  0  0  0  0  0  0  0  0  0  0
   -3.4146   -2.6392    0.2069 H   0  0  0  0  0  0  0  0  0  0  0  0
   -2.7516   -3.2813   -1.3162 H   0  0  0  0  0  0  0  0  0  0  0  0
   -1.2726   -2.5130    0.0447 C   0  0  0  0  0  0  0  0  0  0  0  0
   -0.4126   -3.0837    0.6901 O   0  0  0  0  0  0  0  0  0  0  0  0
   -1.0583   -1.2297   -0.4184 N   0  0  0  0  0  0  0  0  0  0  0  0
   -1.7880   -0.8270   -0.9983 H   0  0  0  0  0  0  0  0  0  0  0  0
    0.2257   -0.5105   -0.3090 C   0  0  1  0  0  0  0  0  0  0  0  0
    0.9664   -1.1918   -0.7452 H   0  0  0  0  0  0  0  0  0  0  0  0
    0.2146    0.7238   -1.2490 C   0  0  0  0  0  0  0  0  0  0  0  0
    1.1751    0.7121   -1.7766 H   0  0  0  0  0  0  0  0  0  0  0  0
   -0.5520    0.5942   -2.0195 H   0  0  0  0  0  0  0  0  0  0  0  0
    0.0336    2.1218   -0.5981 C   0  0  0  0  0  0  0  0  0  0  0  0
   -0.8655    2.5875   -1.0102 H   0  0  0  0  0  0  0  0  0  0  0  0
   -0.1199    2.0589    0.4780 H   0  0  0  0  0  0  0  0  0  0  0  0
    1.2045    3.0683   -0.8578 C   0  0  0  0  0  0  0  0  0  0  0  0
    1.5839    3.2320   -2.0058 O   0  0  0  0  0  0  0  0  0  0  0  0
    1.7453    3.7037    0.2065 O   0  0  0  0  0  0  0  0  0  0  0  0
    2.4833    4.2266   -0.1411 H   0  0  0  0  0  0  0  0  0  0  0  0
    0.7570   -0.2891    1.1285 C   0  0  0  0  0  0  0  0  0  0  0  0
    1.9650   -0.2376    1.3160 O   0  0  0  0  0  0  0  0  0  0  0  0
   -0.0900    0.1405    2.1352 N   0  0  0  0  0  0  0  0  0  0  0  0
   -1.0820    0.0012    1.9754 H   0  0  0  0  0  0  0  0  0  0  0  0
    0.3720    0.4277    3.4877 C   0  0  0  0  0  0  0  0  0  0  0  0
    1.1266    1.2214    3.4745 H   0  0  0  0  0  0  0  0  0  0  0  0
   -0.4637    0.7587    4.1115 H   0  0  0  0  0  0  0  0  0  0  0  0
    0.8110   -0.4677    3.9404 H   0  0  0  0  0  0  0  0  0  0  0  0
  1  2  1  0  0  0  0
  2  3  1  0  0  0  0
  2  4  1  0  0  0  0
  2  5  1  0  0  0  0
  5  6  2  0  0  0  0
  5  7  1  0  0  0  0
  7  8  1  0  0  0  0
  7  9  1  0  0  0  0
  9 10  1  0  0  0  0
  9 11  1  0  0  0  0
  9 21  1  0  0  0  0
 11 12  1  0  0  0  0
 11 13  1  0  0  0  0
 11 14  1  0  0  0  0
 14 15  1  0  0  0  0
 14 16  1  0  0  0  0
 14 17  1  0  0  0  0
 17 18  2  0  0  0  0
 17 19  1  0  0  0  0
 19 20  1  0  0  0  0
 21 22  2  0  0  0  0
 21 23  1  0  0  0  0
 23 24  1  0  0  0  0
 23 25  1  0  0  0  0
 25 26  1  0  0  0  0
 25 27  1  0  0  0  0
 25 28  1  0  0  0  0
M  END
$$$$

  -OEChem-02102214123D

 28 27  0     1  0  0  0  0  0999 V2000
   -2.5652   -4.2184    0.1668 H   0  0  0  0  0  0  0  0  0  0  0  0
   -2.5764   -3.2071   -0.2499 C   0  0  0  0  0  0  0  0  0  0  0  0
   -3.4020   -2.6507    0.1998 H   0  0  0  0  0  0  0  0  0  0  0  0
   -2.7343   -3.2743   -1.3290 H   0  0  0  0  0  0  0  0  0  0  0  0
   -1.2605   -2.5101    0.0397 C   0  0  0  0  0  0  0  0  0  0  0  0
   -0.3979   -3.0826    0.6799 O   0  0  0  0  0  0  0  0  0  0  0  0
   -1.0521   -1.2222   -0.4137 N   0  0  0  0  0  0  0  0  0  0  0  0
   -1.7819   -0.8208   -0.9946 H   0  0  0  0  0  0  0  0  0  0  0  0
    0.2315   -0.5020   -0.3060 C   0  0  1  0  0  0  0  0  0  0  0  0
    0.9748   -1.1674   -0.7616 H   0  0  0  0  0  0  0  0  0  0  0  0
    0.1847    0.7522   -1.2191 C   0  0  0  0  0  0  0  0  0  0  0  0
    1.1519    0.7622   -1.7348 H   0  0  0  0  0  0  0  0  0  0  0  0
   -0.5731    0.6302   -1.9998 H   0  0  0  0  0  0  0  0  0  0  0  0
    0.0032    2.1411   -0.5473 C   0  0  0  0  0  0  0  0  0  0  0  0
   -1.0292    2.4768   -0.6743 H   0  0  0  0  0  0  0  0  0  0  0  0
    0.1952    2.0994    0.5242 H   0  0  0  0  0  0  0  0  0  0  0  0
    0.9454    3.2056   -1.1089 C   0  0  0  0  0  0  0  0  0  0  0  0
    1.0832    3.2877   -2.3186 O   0  0  0  0  0  0  0  0  0  0  0  0
    1.5612    4.0283   -0.2293 O   0  0  0  0  0  0  0  0  0  0  0  0
    2.1211    4.6154   -0.7593 H   0  0  0  0  0  0  0  0  0  0  0  0
    0.7600   -0.2991    1.1346 C   0  0  0  0  0  0  0  0  0  0  0  0
    1.9671   -0.2480    1.3281 O   0  0  0  0  0  0  0  0  0  0  0  0
   -0.0940    0.1169    2.1412 N   0  0  0  0  0  0  0  0  0  0  0  0
   -1.0843   -0.0249    1.9730 H   0  0  0  0  0  0  0  0  0  0  0  0
    0.3579    0.3733    3.5032 C   0  0  0  0  0  0  0  0  0  0  0  0
    1.1156    1.1641    3.5138 H   0  0  0  0  0  0  0  0  0  0  0  0
   -0.4818    0.6939    4.1270 H   0  0  0  0  0  0  0  0  0  0  0  0
    0.7898   -0.5337    3.9395 H   0  0  0  0  0  0  0  0  0  0  0  0
  1  2  1  0  0  0  0
  2  3  1  0  0  0  0
  2  4  1  0  0  0  0
  2  5  1  0  0  0  0
  5  6  2  0  0  0  0
  5  7  1  0  0  0  0
  7  8  1  0  0  0  0
  7  9  1  0  0  0  0
  9 10  1  0  0  0  0
  9 11  1  0  0  0  0
  9 21  1  0  0  0  0
 11 12  1  0  0  0  0
 11 13  1  0  0  0  0
 11 14  1  0  0  0  0
 14 15  1  0  0  0  0
 14 16  1  0  0  0  0
 14 17  1  0  0  0  0
 17 18  2  0  0  0  0
 17 19  1  0  0  0  0
 19 20  1  0  0  0  0
 21 22  2  0  0  0  0
 21 23  1  0  0  0  0
 23 24  1  0  0  0  0
 23 25  1  0  0  0  0
 25 26  1  0  0  0  0
 25 27  1  0  0  0  0
 25 28  1  0  0  0  0
M  END
$$$$

  -OEChem-02102214123D

 28 27  0     1  0  0  0  0  0999 V2000
   -2.5759   -4.2107    0.1725 H   0  0  0  0  0  0  0  0  0  0  0  0
   -2.5838   -3.1999   -0.2457 C   0  0  0  0  0  0  0  0  0  0  0  0
   -3.4053   -2.6390    0.2059 H   0  0  0  0  0  0  0  0  0  0  0  0
   -2.7460   -3.2684   -1.3241 H   0  0  0  0  0  0  0  0  0  0  0  0
   -1.2635   -2.5085    0.0379 C   0  0  0  0  0  0  0  0  0  0  0  0
   -0.3994   -3.0858    0.6719 O   0  0  0  0  0  0  0  0  0  0  0  0
   -1.0500   -1.2224   -0.4185 N   0  0  0  0  0  0  0  0  0  0  0  0
   -1.7781   -0.8207   -1.0014 H   0  0  0  0  0  0  0  0  0  0  0  0
    0.2396   -0.5107   -0.3207 C   0  0  1  0  0  0  0  0  0  0  0  0
    0.9798   -1.1676   -0.7930 H   0  0  0  0  0  0  0  0  0  0  0  0
    0.1698    0.7616   -1.2059 C   0  0  0  0  0  0  0  0  0  0  0  0
    1.1275    0.7921   -1.7384 H   0  0  0  0  0  0  0  0  0  0  0  0
   -0.6061    0.6590   -1.9717 H   0  0  0  0  0  0  0  0  0  0  0  0
    0.0055    2.1277   -0.4892 C   0  0  0  0  0  0  0  0  0  0  0  0
   -1.0538    2.3365   -0.3200 H   0  0  0  0  0  0  0  0  0  0  0  0
    0.4996    2.1192    0.4837 H   0  0  0  0  0  0  0  0  0  0  0  0
    0.6415    3.2876   -1.2565 C   0  0  0  0  0  0  0  0  0  0  0  0
    0.6469    3.2606   -2.4766 O   0  0  0  0  0  0  0  0  0  0  0  0
    1.1456    4.3123   -0.5315 O   0  0  0  0  0  0  0  0  0  0  0  0
    1.5103    4.9397   -1.1738 H   0  0  0  0  0  0  0  0  0  0  0  0
    0.7716   -0.3147    1.1189 C   0  0  0  0  0  0  0  0  0  0  0  0
    1.9788   -0.2721    1.3139 O   0  0  0  0  0  0  0  0  0  0  0  0
   -0.0818    0.1061    2.1234 N   0  0  0  0  0  0  0  0  0  0  0  0
   -1.0729   -0.0222    1.9494 H   0  0  0  0  0  0  0  0  0  0  0  0
    0.3671    0.3527    3.4878 C   0  0  0  0  0  0  0  0  0  0  0  0
    1.1343    1.1342    3.5035 H   0  0  0  0  0  0  0  0  0  0  0  0
   -0.4713    0.6817    4.1089 H   0  0  0  0  0  0  0  0  0  0  0  0
    0.7857   -0.5608    3.9233 H   0  0  0  0  0  0  0  0  0  0  0  0
  1  2  1  0  0  0  0
  2  3  1  0  0  0  0
  2  4  1  0  0  0  0
  2  5  1  0  0  0  0
  5  6  2  0  0  0  0
  5  7  1  0  0  0  0
  7  8  1  0  0  0  0
  7  9  1  0  0  0  0
  9 10  1  0  0  0  0
  9 11  1  0  0  0  0
  9 21  1  0  0  0  0
 11 12  1  0  0  0  0
 11 13  1  0  0  0  0
 11 14  1  0  0  0  0
 14 15  1  0  0  0  0
 14 16  1  0  0  0  0
 14 17  1  0  0  0  0
 17 18  2  0  0  0  0
 17 19  1  0  0  0  0
 19 20  1  0  0  0  0
 21 22  2  0  0  0  0
 21 23  1  0  0  0  0
 23 24  1  0  0  0  0
 23 25  1  0  0  0  0
 25 26  1  0  0  0  0
 25 27  1  0  0  0  0
 25 28  1  0  0  0  0
M  END
$$$$

  -OEChem-02102214123D

 28 27  0     1  0  0  0  0  0999 V2000
   -2.6055   -4.1928    0.2025 H   0  0  0  0  0  0  0  0  0  0  0  0
   -2.6011   -3.1893   -0.2329 C   0  0  0  0  0  0  0  0  0  0  0  0
   -3.4121   -2.6090    0.2133 H   0  0  0  0  0  0  0  0  0  0  0  0
   -2.7696   -3.2733   -1.3093 H   0  0  0  0  0  0  0  0  0  0  0  0
   -1.2700   -2.5120    0.0324 C   0  0  0  0  0  0  0  0  0  0  0  0
   -0.4069   -3.0943    0.6631 O   0  0  0  0  0  0  0  0  0  0  0  0
   -1.0490   -1.2301   -0.4317 N   0  0  0  0  0  0  0  0  0  0  0  0
   -1.7782   -0.8242   -1.0104 H   0  0  0  0  0  0  0  0  0  0  0  0
    0.2453   -0.5260   -0.3415 C   0  0  1  0  0  0  0  0  0  0  0  0
    0.9822   -1.1813   -0.8211 H   0  0  0  0  0  0  0  0  0  0  0  0
    0.1700    0.7559   -1.2104 C   0  0  0  0  0  0  0  0  0  0  0  0
    1.1133    0.8046   -1.7668 H   0  0  0  0  0  0  0  0  0  0  0  0
   -0.6288    0.6677   -1.9544 H   0  0  0  0  0  0  0  0  0  0  0  0
    0.0215    2.0957   -0.4490 C   0  0  0  0  0  0  0  0  0  0  0  0
   -0.9856    2.1792   -0.0330 H   0  0  0  0  0  0  0  0  0  0  0  0
    0.7335    2.1406    0.3792 H   0  0  0  0  0  0  0  0  0  0  0  0
    0.3113    3.3218   -1.3155 C   0  0  0  0  0  0  0  0  0  0  0  0
    0.2337    3.2330   -2.5303 O   0  0  0  0  0  0  0  0  0  0  0  0
    0.6177    4.4707   -0.6708 O   0  0  0  0  0  0  0  0  0  0  0  0
    0.7745    5.1313   -1.3625 H   0  0  0  0  0  0  0  0  0  0  0  0
    0.7813   -0.3259    1.0964 C   0  0  0  0  0  0  0  0  0  0  0  0
    1.9892   -0.2909    1.2895 O   0  0  0  0  0  0  0  0  0  0  0  0
   -0.0674    0.1059    2.1003 N   0  0  0  0  0  0  0  0  0  0  0  0
   -1.0595   -0.0181    1.9295 H   0  0  0  0  0  0  0  0  0  0  0  0
    0.3859    0.3645    3.4612 C   0  0  0  0  0  0  0  0  0  0  0  0
    1.1608    1.1384    3.4674 H   0  0  0  0  0  0  0  0  0  0  0  0
   -0.4483    0.7096    4.0794 H   0  0  0  0  0  0  0  0  0  0  0  0
    0.7960   -0.5479    3.9068 H   0  0  0  0  0  0  0  0  0  0  0  0
  1  2  1  0  0  0  0
  2  3  1  0  0  0  0
  2  4  1  0  0  0  0
  2  5  1  0  0  0  0
  5  6  2  0  0  0  0
  5  7  1  0  0  0  0
  7  8  1  0  0  0  0
  7  9  1  0  0  0  0
  9 10  1  0  0  0  0
  9 11  1  0  0  0  0
  9 21  1  0  0  0  0
 11 12  1  0  0  0  0
 11 13  1  0  0  0  0
 11 14  1  0  0  0  0
 14 15  1  0  0  0  0
 14 16  1  0  0  0  0
 14 17  1  0  0  0  0
 17 18  2  0  0  0  0
 17 19  1  0  0  0  0
 19 20  1  0  0  0  0
 21 22  2  0  0  0  0
 21 23  1  0  0  0  0
 23 24  1  0  0  0  0
 23 25  1  0  0  0  0
 25 26  1  0  0  0  0
 25 27  1  0  0  0  0
 25 28  1  0  0  0  0
M  END
$$$$

  -OEChem-02102214123D

 28 27  0     1  0  0  0  0  0999 V2000
   -2.6292   -4.1727    0.2212 H   0  0  0  0  0  0  0  0  0  0  0  0
   -2.6171   -3.1717   -0.2197 C   0  0  0  0  0  0  0  0  0  0  0  0
   -3.4256   -2.5837    0.2211 H   0  0  0  0  0  0  0  0  0  0  0  0
   -2.7834   -3.2606   -1.2960 H   0  0  0  0  0  0  0  0  0  0  0  0
   -1.2826   -2.5009    0.0454 C   0  0  0  0  0  0  0  0  0  0  0  0
   -0.4269   -3.0830    0.6861 O   0  0  0  0  0  0  0  0  0  0  0  0
   -1.0503   -1.2261   -0.4330 N   0  0  0  0  0  0  0  0  0  0  0  0
   -1.7717   -0.8282   -1.0272 H   0  0  0  0  0  0  0  0  0  0  0  0
    0.2520   -0.5335   -0.3569 C   0  0  1  0  0  0  0  0  0  0  0  0
    0.9869   -1.1932   -0.8329 H   0  0  0  0  0  0  0  0  0  0  0  0
    0.1839    0.7529   -1.2245 C   0  0  0  0  0  0  0  0  0  0  0  0
    0.9457    0.6654   -2.0074 H   0  0  0  0  0  0  0  0  0  0  0  0
   -0.7853    0.8060   -1.7313 H   0  0  0  0  0  0  0  0  0  0  0  0
    0.4231    2.0858   -0.4775 C   0  0  0  0  0  0  0  0  0  0  0  0
   -0.3198    2.2037    0.3154 H   0  0  0  0  0  0  0  0  0  0  0  0
    1.4147    2.0752   -0.0148 H   0  0  0  0  0  0  0  0  0  0  0  0
    0.3455    3.3217   -1.3749 C   0  0  0  0  0  0  0  0  0  0  0  0
   -0.0085    3.2093   -2.5378 O   0  0  0  0  0  0  0  0  0  0  0  0
    0.6656    4.5063   -0.8064 O   0  0  0  0  0  0  0  0  0  0  0  0
    0.5725    5.1718   -1.5047 H   0  0  0  0  0  0  0  0  0  0  0  0
    0.7862   -0.3299    1.0827 C   0  0  0  0  0  0  0  0  0  0  0  0
    1.9936   -0.3257    1.2840 O   0  0  0  0  0  0  0  0  0  0  0  0
   -0.0588    0.1167    2.0833 N   0  0  0  0  0  0  0  0  0  0  0  0
   -1.0522    0.0063    1.9089 H   0  0  0  0  0  0  0  0  0  0  0  0
    0.3929    0.3554    3.4486 C   0  0  0  0  0  0  0  0  0  0  0  0
    1.1822    1.1146    3.4645 H   0  0  0  0  0  0  0  0  0  0  0  0
   -0.4378    0.7109    4.0656 H   0  0  0  0  0  0  0  0  0  0  0  0
    0.7839   -0.5679    3.8894 H   0  0  0  0  0  0  0  0  0  0  0  0
  1  2  1  0  0  0  0
  2  3  1  0  0  0  0
  2  4  1  0  0  0  0
  2  5  1  0  0  0  0
  5  6  2  0  0  0  0
  5  7  1  0  0  0  0
  7  8  1  0  0  0  0
  7  9  1  0  0  0  0
  9 10  1  0  0  0  0
  9 11  1  0  0  0  0
  9 21  1  0  0  0  0
 11 12  1  0  0  0  0
 11 13  1  0  0  0  0
 11 14  1  0  0  0  0
 14 15  1  0  0  0  0
 14 16  1  0  0  0  0
 14 17  1  0  0  0  0
 17 18  2  0  0  0  0
 17 19  1  0  0  0  0
 19 20  1  0  0  0  0
 21 22  2  0  0  0  0
 21 23  1  0  0  0  0
 23 24  1  0  0  0  0
 23 25  1  0  0  0  0
 25 26  1  0  0  0  0
 25 27  1  0  0  0  0
 25 28  1  0  0  0  0
M  END
$$$$

  -OEChem-02102214123D

 28 27  0     1  0  0  0  0  0999 V2000
   -2.6378   -4.1714    0.2062 H   0  0  0  0  0  0  0  0  0  0  0  0
   -2.6342   -3.1597   -0.2095 C   0  0  0  0  0  0  0  0  0  0  0  0
   -3.4338   -2.5832    0.2618 H   0  0  0  0  0  0  0  0  0  0  0  0
   -2.8220   -3.2223   -1.2840 H   0  0  0  0  0  0  0  0  0  0  0  0
   -1.2944   -2.4956    0.0463 C   0  0  0  0  0  0  0  0  0  0  0  0
   -0.4350   -3.0846    0.6759 O   0  0  0  0  0  0  0  0  0  0  0  0
   -1.0639   -1.2164   -0.4210 N   0  0  0  0  0  0  0  0  0  0  0  0
   -1.7891   -0.8110   -1.0053 H   0  0  0  0  0  0  0  0  0  0  0  0
    0.2400   -0.5268   -0.3475 C   0  0  1  0  0  0  0  0  0  0  0  0
    0.9667   -1.1945   -0.8253 H   0  0  0  0  0  0  0  0  0  0  0  0
    0.1949    0.7550   -1.2237 C   0  0  0  0  0  0  0  0  0  0  0  0
    0.9491    0.6607   -2.0130 H   0  0  0  0  0  0  0  0  0  0  0  0
   -0.7787    0.8042   -1.7224 H   0  0  0  0  0  0  0  0  0  0  0  0
    0.4419    2.0937   -0.4872 C   0  0  0  0  0  0  0  0  0  0  0  0
   -0.1480    2.1242    0.4312 H   0  0  0  0  0  0  0  0  0  0  0  0
    1.4978    2.1729   -0.2115 H   0  0  0  0  0  0  0  0  0  0  0  0
    0.0423    3.3337   -1.2894 C   0  0  0  0  0  0  0  0  0  0  0  0
   -0.3086    3.2218   -2.4532 O   0  0  0  0  0  0  0  0  0  0  0  0
    0.0943    4.5190   -0.6403 O   0  0  0  0  0  0  0  0  0  0  0  0
   -0.1714    5.1897   -1.2875 H   0  0  0  0  0  0  0  0  0  0  0  0
    0.7889   -0.3366    1.0884 C   0  0  0  0  0  0  0  0  0  0  0  0
    1.9985   -0.3278    1.2752 O   0  0  0  0  0  0  0  0  0  0  0  0
   -0.0449    0.1016    2.1020 N   0  0  0  0  0  0  0  0  0  0  0  0
   -1.0394   -0.0142    1.9382 H   0  0  0  0  0  0  0  0  0  0  0  0
    0.4206    0.3182    3.4662 C   0  0  0  0  0  0  0  0  0  0  0  0
    1.2053    1.0819    3.4872 H   0  0  0  0  0  0  0  0  0  0  0  0
   -0.4054    0.6565    4.0988 H   0  0  0  0  0  0  0  0  0  0  0  0
    0.8217   -0.6107    3.8852 H   0  0  0  0  0  0  0  0  0  0  0  0
  1  2  1  0  0  0  0
  2  3  1  0  0  0  0
  2  4  1  0  0  0  0
  2  5  1  0  0  0  0
  5  6  2  0  0  0  0
  5  7  1  0  0  0  0
  7  8  1  0  0  0  0
  7  9  1  0  0  0  0
  9 10  1  0  0  0  0
  9 11  1  0  0  0  0
  9 21  1  0  0  0  0
 11 12  1  0  0  0  0
 11 13  1  0  0  0  0
 11 14  1  0  0  0  0
 14 15  1  0  0  0  0
 14 16  1  0  0  0  0
 14 17  1  0  0  0  0
 17 18  2  0  0  0  0
 17 19  1  0  0  0  0
 19 20  1  0  0  0  0
 21 22  2  0  0  0  0
 21 23  1  0  0  0  0
 23 24  1  0  0  0  0
 23 25  1  0  0  0  0
 25 26  1  0  0  0  0
 25 27  1  0  0  0  0
 25 28  1  0  0  0  0
M  END
$$$$

  -OEChem-02102214123D

 28 27  0     1  0  0  0  0  0999 V2000
   -2.6734   -4.1566    0.1995 H   0  0  0  0  0  0  0  0  0  0  0  0
   -2.6577   -3.1479   -0.2231 C   0  0  0  0  0  0  0  0  0  0  0  0
   -3.4616   -2.5639    0.2313 H   0  0  0  0  0  0  0  0  0  0  0  0
   -2.8286   -3.2163   -1.3001 H   0  0  0  0  0  0  0  0  0  0  0  0
   -1.3182   -2.4897    0.0488 C   0  0  0  0  0  0  0  0  0  0  0  0
   -0.4592   -3.0913    0.6670 O   0  0  0  0  0  0  0  0  0  0  0  0
   -1.0830   -1.2048   -0.3999 N   0  0  0  0  0  0  0  0  0  0  0  0
   -1.8085   -0.7877   -0.9754 H   0  0  0  0  0  0  0  0  0  0  0  0
    0.2265   -0.5253   -0.3264 C   0  0  1  0  0  0  0  0  0  0  0  0
    0.9409   -1.2022   -0.8098 H   0  0  0  0  0  0  0  0  0  0  0  0
    0.2022    0.7540   -1.2093 C   0  0  0  0  0  0  0  0  0  0  0  0
    0.9520    0.6463   -2.0006 H   0  0  0  0  0  0  0  0  0  0  0  0
   -0.7707    0.7985   -1.7095 H   0  0  0  0  0  0  0  0  0  0  0  0
    0.4590    2.1075   -0.4966 C   0  0  0  0  0  0  0  0  0  0  0  0
    0.0760    2.0757    0.5239 H   0  0  0  0  0  0  0  0  0  0  0  0
    1.5350    2.2968   -0.4394 H   0  0  0  0  0  0  0  0  0  0  0  0
   -0.2392    3.3031   -1.1479 C   0  0  0  0  0  0  0  0  0  0  0  0
   -0.5893    3.2403   -2.3154 O   0  0  0  0  0  0  0  0  0  0  0  0
   -0.4356    4.3934   -0.3717 O   0  0  0  0  0  0  0  0  0  0  0  0
   -0.8618    5.0526   -0.9402 H   0  0  0  0  0  0  0  0  0  0  0  0
    0.7958   -0.3582    1.1044 C   0  0  0  0  0  0  0  0  0  0  0  0
    2.0084   -0.3450    1.2704 O   0  0  0  0  0  0  0  0  0  0  0  0
   -0.0204    0.0713    2.1363 N   0  0  0  0  0  0  0  0  0  0  0  0
   -1.0181   -0.0424    1.9910 H   0  0  0  0  0  0  0  0  0  0  0  0
    0.4710    0.2963    3.4901 C   0  0  0  0  0  0  0  0  0  0  0  0
    1.2510    1.0652    3.4924 H   0  0  0  0  0  0  0  0  0  0  0  0
   -0.3439    0.6325    4.1382 H   0  0  0  0  0  0  0  0  0  0  0  0
    0.8869   -0.6284    3.9042 H   0  0  0  0  0  0  0  0  0  0  0  0
  1  2  1  0  0  0  0
  2  3  1  0  0  0  0
  2  4  1  0  0  0  0
  2  5  1  0  0  0  0
  5  6  2  0  0  0  0
  5  7  1  0  0  0  0
  7  8  1  0  0  0  0
  7  9  1  0  0  0  0
  9 10  1  0  0  0  0
  9 11  1  0  0  0  0
  9 21  1  0  0  0  0
 11 12  1  0  0  0  0
 11 13  1  0  0  0  0
 11 14  1  0  0  0  0
 14 15  1  0  0  0  0
 14 16  1  0  0  0  0
 14 17  1  0  0  0  0
 17 18  2  0  0  0  0
 17 19  1  0  0  0  0
 19 20  1  0  0  0  0
 21 22  2  0  0  0  0
 21 23  1  0  0  0  0
 23 24  1  0  0  0  0
 23 25  1  0  0  0  0
 25 26  1  0  0  0  0
 25 27  1  0  0  0  0
 25 28  1  0  0  0  0
M  END
$$$$

  -OEChem-02102214123D

 28 27  0     1  0  0  0  0  0999 V2000
   -2.6488   -4.1704    0.2070 H   0  0  0  0  0  0  0  0  0  0  0  0
   -2.6431   -3.1533   -0.1954 C   0  0  0  0  0  0  0  0  0  0  0  0
   -3.4289   -2.5761    0.2976 H   0  0  0  0  0  0  0  0  0  0  0  0
   -2.8503   -3.1991   -1.2673 H   0  0  0  0  0  0  0  0  0  0  0  0
   -1.2929   -2.5047    0.0442 C   0  0  0  0  0  0  0  0  0  0  0  0
   -0.4193   -3.1173    0.6304 O   0  0  0  0  0  0  0  0  0  0  0  0
   -1.0645   -1.2156   -0.3959 N   0  0  0  0  0  0  0  0  0  0  0  0
   -1.8114   -0.7762   -0.9265 H   0  0  0  0  0  0  0  0  0  0  0  0
    0.2398   -0.5267   -0.3205 C   0  0  1  0  0  0  0  0  0  0  0  0
    0.9601   -1.1955   -0.8065 H   0  0  0  0  0  0  0  0  0  0  0  0
    0.1955    0.7520   -1.2066 C   0  0  0  0  0  0  0  0  0  0  0  0
    0.9586    0.6459   -1.9852 H   0  0  0  0  0  0  0  0  0  0  0  0
   -0.7642    0.7590   -1.7308 H   0  0  0  0  0  0  0  0  0  0  0  0
    0.4340    2.1297   -0.5196 C   0  0  0  0  0  0  0  0  0  0  0  0
    0.3454    2.0523    0.5630 H   0  0  0  0  0  0  0  0  0  0  0  0
    1.4563    2.4571   -0.7292 H   0  0  0  0  0  0  0  0  0  0  0  0
   -0.5316    3.2490   -0.9230 C   0  0  0  0  0  0  0  0  0  0  0  0
   -1.2582    3.1210   -1.8953 O   0  0  0  0  0  0  0  0  0  0  0  0
   -0.5191    4.3590   -0.1502 O   0  0  0  0  0  0  0  0  0  0  0  0
   -1.1603    4.9685   -0.5460 H   0  0  0  0  0  0  0  0  0  0  0  0
    0.8003   -0.3695    1.1140 C   0  0  0  0  0  0  0  0  0  0  0  0
    2.0112   -0.3570    1.2905 O   0  0  0  0  0  0  0  0  0  0  0  0
   -0.0273    0.0448    2.1430 N   0  0  0  0  0  0  0  0  0  0  0  0
   -1.0236   -0.0603    1.9827 H   0  0  0  0  0  0  0  0  0  0  0  0
    0.4479    0.2402    3.5071 C   0  0  0  0  0  0  0  0  0  0  0  0
    1.2236    1.0129    3.5367 H   0  0  0  0  0  0  0  0  0  0  0  0
   -0.3765    0.5550    4.1540 H   0  0  0  0  0  0  0  0  0  0  0  0
    0.8645   -0.6917    3.9035 H   0  0  0  0  0  0  0  0  0  0  0  0
  1  2  1  0  0  0  0
  2  3  1  0  0  0  0
  2  4  1  0  0  0  0
  2  5  1  0  0  0  0
  5  6  2  0  0  0  0
  5  7  1  0  0  0  0
  7  8  1  0  0  0  0
  7  9  1  0  0  0  0
  9 10  1  0  0  0  0
  9 11  1  0  0  0  0
  9 21  1  0  0  0  0
 11 12  1  0  0  0  0
 11 13  1  0  0  0  0
 11 14  1  0  0  0  0
 14 15  1  0  0  0  0
 14 16  1  0  0  0  0
 14 17  1  0  0  0  0
 17 18  2  0  0  0  0
 17 19  1  0  0  0  0
 19 20  1  0  0  0  0
 21 22  2  0  0  0  0
 21 23  1  0  0  0  0
 23 24  1  0  0  0  0
 23 25  1  0  0  0  0
 25 26  1  0  0  0  0
 25 27  1  0  0  0  0
 25 28  1  0  0  0  0
M  END
$$$$

  -OEChem-02102214123D

 28 27  0     1  0  0  0  0  0999 V2000
   -2.6683   -4.0973    0.1930 H   0  0  0  0  0  0  0  0  0  0  0  0
   -2.6441   -3.0748   -0.1945 C   0  0  0  0  0  0  0  0  0  0  0  0
   -3.3496   -2.4662    0.3758 H   0  0  0  0  0  0  0  0  0  0  0  0
   -2.9496   -3.0892   -1.2435 H   0  0  0  0  0  0  0  0  0  0  0  0
   -1.2443   -2.5035   -0.0705 C   0  0  0  0  0  0  0  0  0  0  0  0
   -0.3414   -3.1927    0.3678 O   0  0  0  0  0  0  0  0  0  0  0  0
   -1.0014   -1.1996   -0.4538 N   0  0  0  0  0  0  0  0  0  0  0  0
   -1.7994   -0.6577   -0.7740 H   0  0  0  0  0  0  0  0  0  0  0  0
    0.3034   -0.5214   -0.3309 C   0  0  1  0  0  0  0  0  0  0  0  0
    1.0359   -1.1528   -0.8474 H   0  0  0  0  0  0  0  0  0  0  0  0
    0.2221    0.8080   -1.1329 C   0  0  0  0  0  0  0  0  0  0  0  0
    1.0075    0.7545   -1.8947 H   0  0  0  0  0  0  0  0  0  0  0  0
   -0.7200    0.8488   -1.6899 H   0  0  0  0  0  0  0  0  0  0  0  0
    0.4436    2.1438   -0.3705 C   0  0  0  0  0  0  0  0  0  0  0  0
    0.6969    2.0153    0.6810 H   0  0  0  0  0  0  0  0  0  0  0  0
    1.2918    2.6632   -0.8271 H   0  0  0  0  0  0  0  0  0  0  0  0
   -0.7740    3.0592   -0.4561 C   0  0  0  0  0  0  0  0  0  0  0  0
   -1.8661    2.5974   -0.1613 O   0  0  0  0  0  0  0  0  0  0  0  0
   -0.5846    4.3367   -0.8584 O   0  0  0  0  0  0  0  0  0  0  0  0
   -1.4572    4.7582   -0.8400 H   0  0  0  0  0  0  0  0  0  0  0  0
    0.8267   -0.4330    1.1224 C   0  0  0  0  0  0  0  0  0  0  0  0
    2.0309   -0.4583    1.3386 O   0  0  0  0  0  0  0  0  0  0  0  0
   -0.0271   -0.0584    2.1451 N   0  0  0  0  0  0  0  0  0  0  0  0
   -1.0180   -0.0279    1.9275 H   0  0  0  0  0  0  0  0  0  0  0  0
    0.4067    0.1239    3.5242 C   0  0  0  0  0  0  0  0  0  0  0  0
    1.1588    0.9173    3.5875 H   0  0  0  0  0  0  0  0  0  0  0  0
   -0.4427    0.4025    4.1550 H   0  0  0  0  0  0  0  0  0  0  0  0
    0.8393   -0.8036    3.9143 H   0  0  0  0  0  0  0  0  0  0  0  0
  1  2  1  0  0  0  0
  2  3  1  0  0  0  0
  2  4  1  0  0  0  0
  2  5  1  0  0  0  0
  5  6  2  0  0  0  0
  5  7  1  0  0  0  0
  7  8  1  0  0  0  0
  7  9  1  0  0  0  0
  9 10  1  0  0  0  0
  9 11  1  0  0  0  0
  9 21  1  0  0  0  0
 11 12  1  0  0  0  0
 11 13  1  0  0  0  0
 11 14  1  0  0  0  0
 14 15  1  0  0  0  0
 14 16  1  0  0  0  0
 14 17  1  0  0  0  0
 17 18  2  0  0  0  0
 17 19  1  0  0  0  0
 19 20  1  0  0  0  0
 21 22  2  0  0  0  0
 21 23  1  0  0  0  0
 23 24  1  0  0  0  0
 23 25  1  0  0  0  0
 25 26  1  0  0  0  0
 25 27  1  0  0  0  0
 25 28  1  0  0  0  0
M  END
$$$$

  -OEChem-02102214123D

 28 27  0     1  0  0  0  0  0999 V2000
   -2.6897   -4.0575    0.2688 H   0  0  0  0  0  0  0  0  0  0  0  0
   -2.6588   -3.0375   -0.1248 C   0  0  0  0  0  0  0  0  0  0  0  0
   -3.2978   -2.4028    0.4938 H   0  0  0  0  0  0  0  0  0  0  0  0
   -3.0419   -3.0435   -1.1479 H   0  0  0  0  0  0  0  0  0  0  0  0
   -1.2347   -2.5157   -0.1084 C   0  0  0  0  0  0  0  0  0  0  0  0
   -0.3250   -3.2409    0.2520 O   0  0  0  0  0  0  0  0  0  0  0  0
   -0.9760   -1.2196   -0.5081 N   0  0  0  0  0  0  0  0  0  0  0  0
   -1.7832   -0.6374   -0.7138 H   0  0  0  0  0  0  0  0  0  0  0  0
    0.3391   -0.5641   -0.3759 C   0  0  1  0  0  0  0  0  0  0  0  0
    1.0745   -1.1940   -0.8900 H   0  0  0  0  0  0  0  0  0  0  0  0
    0.2529    0.7781   -1.1544 C   0  0  0  0  0  0  0  0  0  0  0  0
    1.0437    0.7325   -1.9111 H   0  0  0  0  0  0  0  0  0  0  0  0
   -0.6866    0.8444   -1.7144 H   0  0  0  0  0  0  0  0  0  0  0  0
    0.4892    2.0878   -0.3580 C   0  0  0  0  0  0  0  0  0  0  0  0
    1.0386    1.9514    0.5744 H   0  0  0  0  0  0  0  0  0  0  0  0
    1.1089    2.7449   -0.9753 H   0  0  0  0  0  0  0  0  0  0  0  0
   -0.8185    2.8276   -0.0920 C   0  0  0  0  0  0  0  0  0  0  0  0
   -1.7755    2.1803    0.3093 O   0  0  0  0  0  0  0  0  0  0  0  0
   -0.8548    4.1613   -0.3144 O   0  0  0  0  0  0  0  0  0  0  0  0
   -1.7498    4.4524   -0.0828 H   0  0  0  0  0  0  0  0  0  0  0  0
    0.8284   -0.4761    1.0893 C   0  0  0  0  0  0  0  0  0  0  0  0
    2.0229   -0.5546    1.3431 O   0  0  0  0  0  0  0  0  0  0  0  0
   -0.0441   -0.0758    2.0865 N   0  0  0  0  0  0  0  0  0  0  0  0
   -0.9984    0.1337    1.8070 H   0  0  0  0  0  0  0  0  0  0  0  0
    0.3701    0.1818    3.4594 C   0  0  0  0  0  0  0  0  0  0  0  0
    1.0843    1.0109    3.4950 H   0  0  0  0  0  0  0  0  0  0  0  0
   -0.4966    0.4434    4.0736 H   0  0  0  0  0  0  0  0  0  0  0  0
    0.8414   -0.7084    3.8894 H   0  0  0  0  0  0  0  0  0  0  0  0
  1  2  1  0  0  0  0
  2  3  1  0  0  0  0
  2  4  1  0  0  0  0
  2  5  1  0  0  0  0
  5  6  2  0  0  0  0
  5  7  1  0  0  0  0
  7  8  1  0  0  0  0
  7  9  1  0  0  0  0
  9 10  1  0  0  0  0
  9 11  1  0  0  0  0
  9 21  1  0  0  0  0
 11 12  1  0  0  0  0
 11 13  1  0  0  0  0
 11 14  1  0  0  0  0
 14 15  1  0  0  0  0
 14 16  1  0  0  0  0
 14 17  1  0  0  0  0
 17 18  2  0  0  0  0
 17 19  1  0  0  0  0
 19 20  1  0  0  0  0
 21 22  2  0  0  0  0
 21 23  1  0  0  0  0
 23 24  1  0  0  0  0
 23 25  1  0  0  0  0
 25 26  1  0  0  0  0
 25 27  1  0  0  0  0
 25 28  1  0  0  0  0
M  END
$$$$

  -OEChem-02102214123D

 28 27  0     1  0  0  0  0  0999 V2000
   -2.6829   -4.0781    0.2925 H   0  0  0  0  0  0  0  0  0  0  0  0
   -2.6586   -3.0565   -0.0975 C   0  0  0  0  0  0  0  0  0  0  0  0
   -3.2851   -2.4237    0.5356 H   0  0  0  0  0  0  0  0  0  0  0  0
   -3.0606   -3.0582   -1.1134 H   0  0  0  0  0  0  0  0  0  0  0  0
   -1.2341   -2.5356   -0.1060 C   0  0  0  0  0  0  0  0  0  0  0  0
   -0.3198   -3.2595    0.2454 O   0  0  0  0  0  0  0  0  0  0  0  0
   -0.9806   -1.2426   -0.5187 N   0  0  0  0  0  0  0  0  0  0  0  0
   -1.7928   -0.6545   -0.6860 H   0  0  0  0  0  0  0  0  0  0  0  0
    0.3315   -0.5832   -0.3851 C   0  0  1  0  0  0  0  0  0  0  0  0
    1.0678   -1.2234   -0.8852 H   0  0  0  0  0  0  0  0  0  0  0  0
    0.2620    0.7453   -1.1879 C   0  0  0  0  0  0  0  0  0  0  0  0
    1.0605    0.6885   -1.9355 H   0  0  0  0  0  0  0  0  0  0  0  0
   -0.6745    0.8144   -1.7525 H   0  0  0  0  0  0  0  0  0  0  0  0
    0.4936    2.0549   -0.3961 C   0  0  0  0  0  0  0  0  0  0  0  0
    1.2408    1.9446    0.3933 H   0  0  0  0  0  0  0  0  0  0  0  0
    0.8947    2.7966   -1.0927 H   0  0  0  0  0  0  0  0  0  0  0  0
   -0.7991    2.6396    0.1750 C   0  0  0  0  0  0  0  0  0  0  0  0
   -1.7264    1.8882    0.4465 O   0  0  0  0  0  0  0  0  0  0  0  0
   -0.8455    3.9786    0.3577 O   0  0  0  0  0  0  0  0  0  0  0  0
   -1.7179    4.1749    0.7313 H   0  0  0  0  0  0  0  0  0  0  0  0
    0.8222   -0.4737    1.0791 C   0  0  0  0  0  0  0  0  0  0  0  0
    2.0172   -0.5498    1.3318 O   0  0  0  0  0  0  0  0  0  0  0  0
   -0.0463   -0.0634    2.0750 N   0  0  0  0  0  0  0  0  0  0  0  0
   -0.9923    0.1747    1.7860 H   0  0  0  0  0  0  0  0  0  0  0  0
    0.3751    0.2256    3.4394 C   0  0  0  0  0  0  0  0  0  0  0  0
    1.0639    1.0766    3.4560 H   0  0  0  0  0  0  0  0  0  0  0  0
   -0.4927    0.4677    4.0602 H   0  0  0  0  0  0  0  0  0  0  0  0
    0.8786   -0.6437    3.8758 H   0  0  0  0  0  0  0  0  0  0  0  0
  1  2  1  0  0  0  0
  2  3  1  0  0  0  0
  2  4  1  0  0  0  0
  2  5  1  0  0  0  0
  5  6  2  0  0  0  0
  5  7  1  0  0  0  0
  7  8  1  0  0  0  0
  7  9  1  0  0  0  0
  9 10  1  0  0  0  0
  9 11  1  0  0  0  0
  9 21  1  0  0  0  0
 11 12  1  0  0  0  0
 11 13  1  0  0  0  0
 11 14  1  0  0  0  0
 14 15  1  0  0  0  0
 14 16  1  0  0  0  0
 14 17  1  0  0  0  0
 17 18  2  0  0  0  0
 17 19  1  0  0  0  0
 19 20  1  0  0  0  0
 21 22  2  0  0  0  0
 21 23  1  0  0  0  0
 23 24  1  0  0  0  0
 23 25  1  0  0  0  0
 25 26  1  0  0  0  0
 25 27  1  0  0  0  0
 25 28  1  0  0  0  0
M  END
$$$$

  -OEChem-02102214123D

 28 27  0     1  0  0  0  0  0999 V2000
   -2.6684   -4.1225    0.2723 H   0  0  0  0  0  0  0  0  0  0  0  0
   -2.6550   -3.0963   -0.1057 C   0  0  0  0  0  0  0  0  0  0  0  0
   -3.2974   -2.4799    0.5276 H   0  0  0  0  0  0  0  0  0  0  0  0
   -3.0468   -3.0926   -1.1256 H   0  0  0  0  0  0  0  0  0  0  0  0
   -1.2380   -2.5550   -0.0929 C   0  0  0  0  0  0  0  0  0  0  0  0
   -0.3196   -3.2629    0.2802 O   0  0  0  0  0  0  0  0  0  0  0  0
   -0.9963   -1.2595   -0.5037 N   0  0  0  0  0  0  0  0  0  0  0  0
   -1.8126   -0.6815   -0.6869 H   0  0  0  0  0  0  0  0  0  0  0  0
    0.3065   -0.5841   -0.3668 C   0  0  1  0  0  0  0  0  0  0  0  0
    1.0426   -1.2377   -0.8499 H   0  0  0  0  0  0  0  0  0  0  0  0
    0.2696    0.7187   -1.2122 C   0  0  0  0  0  0  0  0  0  0  0  0
    1.0787    0.6397   -1.9463 H   0  0  0  0  0  0  0  0  0  0  0  0
   -0.6611    0.7762   -1.7871 H   0  0  0  0  0  0  0  0  0  0  0  0
    0.4833    2.0491   -0.4544 C   0  0  0  0  0  0  0  0  0  0  0  0
    1.3623    1.9874    0.1938 H   0  0  0  0  0  0  0  0  0  0  0  0
    0.6868    2.8331   -1.1891 H   0  0  0  0  0  0  0  0  0  0  0  0
   -0.7237    2.5048    0.3706 C   0  0  0  0  0  0  0  0  0  0  0  0
   -1.7168    1.7926    0.4453 O   0  0  0  0  0  0  0  0  0  0  0  0
   -0.6213    3.7057    0.9837 O   0  0  0  0  0  0  0  0  0  0  0  0
   -1.4563    3.8468    1.4543 H   0  0  0  0  0  0  0  0  0  0  0  0
    0.8162   -0.4555    1.0899 C   0  0  0  0  0  0  0  0  0  0  0  0
    2.0175   -0.4984    1.3196 O   0  0  0  0  0  0  0  0  0  0  0  0
   -0.0367   -0.0512    2.1008 N   0  0  0  0  0  0  0  0  0  0  0  0
   -1.0026    0.1305    1.8389 H   0  0  0  0  0  0  0  0  0  0  0  0
    0.4055    0.2464    3.4567 C   0  0  0  0  0  0  0  0  0  0  0  0
    1.0752    1.1127    3.4595 H   0  0  0  0  0  0  0  0  0  0  0  0
   -0.4544    0.4688    4.0956 H   0  0  0  0  0  0  0  0  0  0  0  0
    0.9376   -0.6115    3.8816 H   0  0  0  0  0  0  0  0  0  0  0  0
  1  2  1  0  0  0  0
  2  3  1  0  0  0  0
  2  4  1  0  0  0  0
  2  5  1  0  0  0  0
  5  6  2  0  0  0  0
  5  7  1  0  0  0  0
  7  8  1  0  0  0  0
  7  9  1  0  0  0  0
  9 10  1  0  0  0  0
  9 11  1  0  0  0  0
  9 21  1  0  0  0  0
 11 12  1  0  0  0  0
 11 13  1  0  0  0  0
 11 14  1  0  0  0  0
 14 15  1  0  0  0  0
 14 16  1  0  0  0  0
 14 17  1  0  0  0  0
 17 18  2  0  0  0  0
 17 19  1  0  0  0  0
 19 20  1  0  0  0  0
 21 22  2  0  0  0  0
 21 23  1  0  0  0  0
 23 24  1  0  0  0  0
 23 25  1  0  0  0  0
 25 26  1  0  0  0  0
 25 27  1  0  0  0  0
 25 28  1  0  0  0  0
M  END
$$$$

  -OEChem-02102214123D

 28 27  0     1  0  0  0  0  0999 V2000
   -2.6560   -4.1679    0.2216 H   0  0  0  0  0  0  0  0  0  0  0  0
   -2.6521   -3.1348   -0.1373 C   0  0  0  0  0  0  0  0  0  0  0  0
   -3.3141   -2.5397    0.4962 H   0  0  0  0  0  0  0  0  0  0  0  0
   -3.0278   -3.1182   -1.1633 H   0  0  0  0  0  0  0  0  0  0  0  0
   -1.2442   -2.5722   -0.0920 C   0  0  0  0  0  0  0  0  0  0  0  0
   -0.3211   -3.2705    0.2875 O   0  0  0  0  0  0  0  0  0  0  0  0
   -1.0174   -1.2660   -0.4769 N   0  0  0  0  0  0  0  0  0  0  0  0
   -1.8388   -0.6989   -0.6704 H   0  0  0  0  0  0  0  0  0  0  0  0
    0.2765   -0.5759   -0.3321 C   0  0  1  0  0  0  0  0  0  0  0  0
    1.0076   -1.2421   -0.8058 H   0  0  0  0  0  0  0  0  0  0  0  0
    0.2819    0.7037   -1.2138 C   0  0  0  0  0  0  0  0  0  0  0  0
    1.0980    0.5967   -1.9364 H   0  0  0  0  0  0  0  0  0  0  0  0
   -0.6440    0.7482   -1.7972 H   0  0  0  0  0  0  0  0  0  0  0  0
    0.4776    2.0658   -0.5105 C   0  0  0  0  0  0  0  0  0  0  0  0
    1.4542    2.0726   -0.0166 H   0  0  0  0  0  0  0  0  0  0  0  0
    0.4899    2.8568   -1.2649 H   0  0  0  0  0  0  0  0  0  0  0  0
   -0.5847    2.4241    0.5306 C   0  0  0  0  0  0  0  0  0  0  0  0
   -1.6452    1.8130    0.5463 O   0  0  0  0  0  0  0  0  0  0  0  0
   -0.2948    3.4360    1.3797 O   0  0  0  0  0  0  0  0  0  0  0  0
   -1.0662    3.5419    1.9558 H   0  0  0  0  0  0  0  0  0  0  0  0
    0.8120   -0.4563    1.1163 C   0  0  0  0  0  0  0  0  0  0  0  0
    2.0194   -0.4656    1.3149 O   0  0  0  0  0  0  0  0  0  0  0  0
   -0.0216   -0.0790    2.1531 N   0  0  0  0  0  0  0  0  0  0  0  0
   -0.9995    0.0745    1.9199 H   0  0  0  0  0  0  0  0  0  0  0  0
    0.4495    0.2226    3.4985 C   0  0  0  0  0  0  0  0  0  0  0  0
    1.1004    1.1031    3.4874 H   0  0  0  0  0  0  0  0  0  0  0  0
   -0.3981    0.4238    4.1605 H   0  0  0  0  0  0  0  0  0  0  0  0
    1.0102   -0.6255    3.9056 H   0  0  0  0  0  0  0  0  0  0  0  0
  1  2  1  0  0  0  0
  2  3  1  0  0  0  0
  2  4  1  0  0  0  0
  2  5  1  0  0  0  0
  5  6  2  0  0  0  0
  5  7  1  0  0  0  0
  7  8  1  0  0  0  0
  7  9  1  0  0  0  0
  9 10  1  0  0  0  0
  9 11  1  0  0  0  0
  9 21  1  0  0  0  0
 11 12  1  0  0  0  0
 11 13  1  0  0  0  0
 11 14  1  0  0  0  0
 14 15  1  0  0  0  0
 14 16  1  0  0  0  0
 14 17  1  0  0  0  0
 17 18  2  0  0  0  0
 17 19  1  0  0  0  0
 19 20  1  0  0  0  0
 21 22  2  0  0  0  0
 21 23  1  0  0  0  0
 23 24  1  0  0  0  0
 23 25  1  0  0  0  0
 25 26  1  0  0  0  0
 25 27  1  0  0  0  0
 25 28  1  0  0  0  0
M  END
$$$$

  -OEChem-02102214123D

 28 27  0     1  0  0  0  0  0999 V2000
   -2.6850   -4.1719    0.1177 H   0  0  0  0  0  0  0  0  0  0  0  0
   -2.6830   -3.1267   -0.2048 C   0  0  0  0  0  0  0  0  0  0  0  0
   -3.3496   -2.5568    0.4467 H   0  0  0  0  0  0  0  0  0  0  0  0
   -3.0536   -3.0747   -1.2313 H   0  0  0  0  0  0  0  0  0  0  0  0
   -1.2771   -2.5618   -0.1330 C   0  0  0  0  0  0  0  0  0  0  0  0
   -0.3542   -3.2708    0.2262 O   0  0  0  0  0  0  0  0  0  0  0  0
   -1.0528   -1.2403   -0.4636 N   0  0  0  0  0  0  0  0  0  0  0  0
   -1.8730   -0.6717   -0.6558 H   0  0  0  0  0  0  0  0  0  0  0  0
    0.2416   -0.5548   -0.3015 C   0  0  1  0  0  0  0  0  0  0  0  0
    0.9584   -1.2320   -0.7819 H   0  0  0  0  0  0  0  0  0  0  0  0
    0.2972    0.7152   -1.1982 C   0  0  0  0  0  0  0  0  0  0  0  0
    1.1181    0.5793   -1.9108 H   0  0  0  0  0  0  0  0  0  0  0  0
   -0.6224    0.7583   -1.7908 H   0  0  0  0  0  0  0  0  0  0  0  0
    0.4918    2.1053   -0.5478 C   0  0  0  0  0  0  0  0  0  0  0  0
    1.5395    2.1872   -0.2413 H   0  0  0  0  0  0  0  0  0  0  0  0
    0.3087    2.8837   -1.2932 H   0  0  0  0  0  0  0  0  0  0  0  0
   -0.3603    2.4044    0.6835 C   0  0  0  0  0  0  0  0  0  0  0  0
   -1.4810    1.9180    0.7549 O   0  0  0  0  0  0  0  0  0  0  0  0
    0.1563    3.2342    1.6184 O   0  0  0  0  0  0  0  0  0  0  0  0
   -0.5163    3.3229    2.3094 H   0  0  0  0  0  0  0  0  0  0  0  0
    0.8058   -0.4867    1.1397 C   0  0  0  0  0  0  0  0  0  0  0  0
    2.0177   -0.5030    1.3093 O   0  0  0  0  0  0  0  0  0  0  0  0
    0.0001   -0.1524    2.2126 N   0  0  0  0  0  0  0  0  0  0  0  0
   -0.9833    0.0114    2.0126 H   0  0  0  0  0  0  0  0  0  0  0  0
    0.5067    0.0824    3.5584 C   0  0  0  0  0  0  0  0  0  0  0  0
    1.1754    0.9495    3.5698 H   0  0  0  0  0  0  0  0  0  0  0  0
   -0.3218    0.2722    4.2473 H   0  0  0  0  0  0  0  0  0  0  0  0
    1.0588   -0.7930    3.9168 H   0  0  0  0  0  0  0  0  0  0  0  0
  1  2  1  0  0  0  0
  2  3  1  0  0  0  0
  2  4  1  0  0  0  0
  2  5  1  0  0  0  0
  5  6  2  0  0  0  0
  5  7  1  0  0  0  0
  7  8  1  0  0  0  0
  7  9  1  0  0  0  0
  9 10  1  0  0  0  0
  9 11  1  0  0  0  0
  9 21  1  0  0  0  0
 11 12  1  0  0  0  0
 11 13  1  0  0  0  0
 11 14  1  0  0  0  0
 14 15  1  0  0  0  0
 14 16  1  0  0  0  0
 14 17  1  0  0  0  0
 17 18  2  0  0  0  0
 17 19  1  0  0  0  0
 19 20  1  0  0  0  0
 21 22  2  0  0  0  0
 21 23  1  0  0  0  0
 23 24  1  0  0  0  0
 23 25  1  0  0  0  0
 25 26  1  0  0  0  0
 25 27  1  0  0  0  0
 25 28  1  0  0  0  0
M  END
$$$$

  -OEChem-02102214123D

 28 27  0     1  0  0  0  0  0999 V2000
   -2.4984   -4.2927    0.1562 H   0  0  0  0  0  0  0  0  0  0  0  0
   -2.5518   -3.2484   -0.1644 C   0  0  0  0  0  0  0  0  0  0  0  0
   -3.2429   -2.7149    0.4925 H   0  0  0  0  0  0  0  0  0  0  0  0
   -2.9311   -3.2138   -1.1885 H   0  0  0  0  0  0  0  0  0  0  0  0
   -1.1764   -2.6119   -0.1000 C   0  0  0  0  0  0  0  0  0  0  0  0
   -0.2137   -3.2759    0.2404 O   0  0  0  0  0  0  0  0  0  0  0  0
   -1.0273   -1.2764   -0.4175 N   0  0  0  0  0  0  0  0  0  0  0  0
   -1.8782   -0.7543   -0.6066 H   0  0  0  0  0  0  0  0  0  0  0  0
    0.2327   -0.5243   -0.2771 C   0  0  1  0  0  0  0  0  0  0  0  0
    0.9686   -1.1771   -0.7629 H   0  0  0  0  0  0  0  0  0  0  0  0
    0.2305    0.7242   -1.2099 C   0  0  0  0  0  0  0  0  0  0  0  0
    1.0465    0.5960   -1.9296 H   0  0  0  0  0  0  0  0  0  0  0  0
   -0.6958    0.6970   -1.7927 H   0  0  0  0  0  0  0  0  0  0  0  0
    0.3562    2.1630   -0.6481 C   0  0  0  0  0  0  0  0  0  0  0  0
    1.4233    2.4015   -0.6005 H   0  0  0  0  0  0  0  0  0  0  0  0
   -0.0997    2.8673   -1.3493 H   0  0  0  0  0  0  0  0  0  0  0  0
   -0.2087    2.4314    0.7410 C   0  0  0  0  0  0  0  0  0  0  0  0
   -1.3450    2.0468    0.9797 O   0  0  0  0  0  0  0  0  0  0  0  0
    0.5507    3.1241    1.6202 O   0  0  0  0  0  0  0  0  0  0  0  0
    0.0308    3.1972    2.4335 H   0  0  0  0  0  0  0  0  0  0  0  0
    0.8293   -0.4420    1.1509 C   0  0  0  0  0  0  0  0  0  0  0  0
    2.0445   -0.4249    1.2920 O   0  0  0  0  0  0  0  0  0  0  0  0
    0.0395   -0.1641    2.2517 N   0  0  0  0  0  0  0  0  0  0  0  0
   -0.9516   -0.0164    2.0800 H   0  0  0  0  0  0  0  0  0  0  0  0
    0.5690    0.0246    3.5961 C   0  0  0  0  0  0  0  0  0  0  0  0
    1.2334    0.8943    3.6280 H   0  0  0  0  0  0  0  0  0  0  0  0
   -0.2480    0.1834    4.3064 H   0  0  0  0  0  0  0  0  0  0  0  0
    1.1324   -0.8602    3.9111 H   0  0  0  0  0  0  0  0  0  0  0  0
  1  2  1  0  0  0  0
  2  3  1  0  0  0  0
  2  4  1  0  0  0  0
  2  5  1  0  0  0  0
  5  6  2  0  0  0  0
  5  7  1  0  0  0  0
  7  8  1  0  0  0  0
  7  9  1  0  0  0  0
  9 10  1  0  0  0  0
  9 11  1  0  0  0  0
  9 21  1  0  0  0  0
 11 12  1  0  0  0  0
 11 13  1  0  0  0  0
 11 14  1  0  0  0  0
 14 15  1  0  0  0  0
 14 16  1  0  0  0  0
 14 17  1  0  0  0  0
 17 18  2  0  0  0  0
 17 19  1  0  0  0  0
 19 20  1  0  0  0  0
 21 22  2  0  0  0  0
 21 23  1  0  0  0  0
 23 24  1  0  0  0  0
 23 25  1  0  0  0  0
 25 26  1  0  0  0  0
 25 27  1  0  0  0  0
 25 28  1  0  0  0  0
M  END
$$$$

  -OEChem-02102214123D

 28 27  0     1  0  0  0  0  0999 V2000
   -2.9530   -3.9943    0.1841 H   0  0  0  0  0  0  0  0  0  0  0  0
   -2.8521   -2.9634   -0.1671 C   0  0  0  0  0  0  0  0  0  0  0  0
   -3.5370   -2.3299    0.4014 H   0  0  0  0  0  0  0  0  0  0  0  0
   -3.1224   -2.9252   -1.2250 H   0  0  0  0  0  0  0  0  0  0  0  0
   -1.4243   -2.4862    0.0203 C   0  0  0  0  0  0  0  0  0  0  0  0
   -0.5917   -3.2342    0.4992 O   0  0  0  0  0  0  0  0  0  0  0  0
   -1.0786   -1.2002   -0.3463 N   0  0  0  0  0  0  0  0  0  0  0  0
   -1.8210   -0.6112   -0.7115 H   0  0  0  0  0  0  0  0  0  0  0  0
    0.2720   -0.6227   -0.2037 C   0  0  1  0  0  0  0  0  0  0  0  0
    0.9211   -1.3925   -0.6396 H   0  0  0  0  0  0  0  0  0  0  0  0
    0.4573    0.5698   -1.1927 C   0  0  0  0  0  0  0  0  0  0  0  0
    1.2644    0.2844   -1.8769 H   0  0  0  0  0  0  0  0  0  0  0  0
   -0.4466    0.6266   -1.8074 H   0  0  0  0  0  0  0  0  0  0  0  0
    0.7700    2.0246   -0.7441 C   0  0  0  0  0  0  0  0  0  0  0  0
    1.8225    2.2165   -0.9771 H   0  0  0  0  0  0  0  0  0  0  0  0
    0.1807    2.7108   -1.3581 H   0  0  0  0  0  0  0  0  0  0  0  0
    0.5667    2.4235    0.7116 C   0  0  0  0  0  0  0  0  0  0  0  0
    1.5230    2.7987    1.3657 O   0  0  0  0  0  0  0  0  0  0  0  0
   -0.7081    2.4470    1.1709 O   0  0  0  0  0  0  0  0  0  0  0  0
   -0.6367    2.7825    2.0782 H   0  0  0  0  0  0  0  0  0  0  0  0
    0.8378   -0.5632    1.2356 C   0  0  0  0  0  0  0  0  0  0  0  0
    2.0393   -0.7098    1.4111 O   0  0  0  0  0  0  0  0  0  0  0  0
    0.0615   -0.1313    2.2954 N   0  0  0  0  0  0  0  0  0  0  0  0
   -0.9305   -0.0109    2.1191 H   0  0  0  0  0  0  0  0  0  0  0  0
    0.5747    0.0168    3.6516 C   0  0  0  0  0  0  0  0  0  0  0  0
    1.3882    0.7502    3.6747 H   0  0  0  0  0  0  0  0  0  0  0  0
   -0.2182    0.3589    4.3230 H   0  0  0  0  0  0  0  0  0  0  0  0
    0.9544   -0.9410    4.0228 H   0  0  0  0  0  0  0  0  0  0  0  0
  1  2  1  0  0  0  0
  2  3  1  0  0  0  0
  2  4  1  0  0  0  0
  2  5  1  0  0  0  0
  5  6  2  0  0  0  0
  5  7  1  0  0  0  0
  7  8  1  0  0  0  0
  7  9  1  0  0  0  0
  9 10  1  0  0  0  0
  9 11  1  0  0  0  0
  9 21  1  0  0  0  0
 11 12  1  0  0  0  0
 11 13  1  0  0  0  0
 11 14  1  0  0  0  0
 14 15  1  0  0  0  0
 14 16  1  0  0  0  0
 14 17  1  0  0  0  0
 17 18  2  0  0  0  0
 17 19  1  0  0  0  0
 19 20  1  0  0  0  0
 21 22  2  0  0  0  0
 21 23  1  0  0  0  0
 23 24  1  0  0  0  0
 23 25  1  0  0  0  0
 25 26  1  0  0  0  0
 25 27  1  0  0  0  0
 25 28  1  0  0  0  0
M  END
$$$$

  -OEChem-02102214123D

 28 27  0     1  0  0  0  0  0999 V2000
   -3.0207   -3.8867    0.0024 H   0  0  0  0  0  0  0  0  0  0  0  0
   -2.9043   -2.8444   -0.3083 C   0  0  0  0  0  0  0  0  0  0  0  0
   -3.5620   -2.2208    0.3017 H   0  0  0  0  0  0  0  0  0  0  0  0
   -3.1970   -2.7562   -1.3572 H   0  0  0  0  0  0  0  0  0  0  0  0
   -1.4623   -2.4071   -0.1346 C   0  0  0  0  0  0  0  0  0  0  0  0
   -0.6308   -3.2029    0.2614 O   0  0  0  0  0  0  0  0  0  0  0  0
   -1.1027   -1.1044   -0.4211 N   0  0  0  0  0  0  0  0  0  0  0  0
   -1.8416   -0.4832   -0.7357 H   0  0  0  0  0  0  0  0  0  0  0  0
    0.2647   -0.5639   -0.2861 C   0  0  1  0  0  0  0  0  0  0  0  0
    0.8940   -1.2926   -0.8124 H   0  0  0  0  0  0  0  0  0  0  0  0
    0.3926    0.7227   -1.1632 C   0  0  0  0  0  0  0  0  0  0  0  0
    1.1820    0.4956   -1.8887 H   0  0  0  0  0  0  0  0  0  0  0  0
   -0.5249    0.8258   -1.7515 H   0  0  0  0  0  0  0  0  0  0  0  0
    0.7380    2.1413   -0.6221 C   0  0  0  0  0  0  0  0  0  0  0  0
    1.6316    2.4903   -1.1495 H   0  0  0  0  0  0  0  0  0  0  0  0
   -0.0738    2.8145   -0.9113 H   0  0  0  0  0  0  0  0  0  0  0  0
    0.9810    2.3723    0.8630 C   0  0  0  0  0  0  0  0  0  0  0  0
    2.1256    2.4586    1.2680 O   0  0  0  0  0  0  0  0  0  0  0  0
   -0.1067    2.5773    1.6433 O   0  0  0  0  0  0  0  0  0  0  0  0
    0.2512    2.7347    2.5311 H   0  0  0  0  0  0  0  0  0  0  0  0
    0.8545   -0.6314    1.1430 C   0  0  0  0  0  0  0  0  0  0  0  0
    2.0424   -0.8778    1.2944 O   0  0  0  0  0  0  0  0  0  0  0  0
    0.1047   -0.2661    2.2462 N   0  0  0  0  0  0  0  0  0  0  0  0
   -0.8818   -0.0854    2.0929 H   0  0  0  0  0  0  0  0  0  0  0  0
    0.6191   -0.3218    3.6087 C   0  0  0  0  0  0  0  0  0  0  0  0
    1.4998    0.3212    3.7113 H   0  0  0  0  0  0  0  0  0  0  0  0
   -0.1421    0.0187    4.3168 H   0  0  0  0  0  0  0  0  0  0  0  0
    0.9008   -1.3479    3.8683 H   0  0  0  0  0  0  0  0  0  0  0  0
  1  2  1  0  0  0  0
  2  3  1  0  0  0  0
  2  4  1  0  0  0  0
  2  5  1  0  0  0  0
  5  6  2  0  0  0  0
  5  7  1  0  0  0  0
  7  8  1  0  0  0  0
  7  9  1  0  0  0  0
  9 10  1  0  0  0  0
  9 11  1  0  0  0  0
  9 21  1  0  0  0  0
 11 12  1  0  0  0  0
 11 13  1  0  0  0  0
 11 14  1  0  0  0  0
 14 15  1  0  0  0  0
 14 16  1  0  0  0  0
 14 17  1  0  0  0  0
 17 18  2  0  0  0  0
 17 19  1  0  0  0  0
 19 20  1  0  0  0  0
 21 22  2  0  0  0  0
 21 23  1  0  0  0  0
 23 24  1  0  0  0  0
 23 25  1  0  0  0  0
 25 26  1  0  0  0  0
 25 27  1  0  0  0  0
 25 28  1  0  0  0  0
M  END
$$$$

  -OEChem-02102214123D

 28 27  0     1  0  0  0  0  0999 V2000
   -3.1239   -3.7845    0.1606 H   0  0  0  0  0  0  0  0  0  0  0  0
   -2.9828   -2.7578   -0.1894 C   0  0  0  0  0  0  0  0  0  0  0  0
   -3.6061   -2.0931    0.4135 H   0  0  0  0  0  0  0  0  0  0  0  0
   -3.2981   -2.6966   -1.2338 H   0  0  0  0  0  0  0  0  0  0  0  0
   -1.5238   -2.3610   -0.0642 C   0  0  0  0  0  0  0  0  0  0  0  0
   -0.7083   -3.1713    0.3347 O   0  0  0  0  0  0  0  0  0  0  0  0
   -1.1308   -1.0815   -0.4077 N   0  0  0  0  0  0  0  0  0  0  0  0
   -1.8544   -0.4588   -0.7528 H   0  0  0  0  0  0  0  0  0  0  0  0
    0.2593   -0.5841   -0.3438 C   0  0  1  0  0  0  0  0  0  0  0  0
    0.8636   -1.3148   -0.8955 H   0  0  0  0  0  0  0  0  0  0  0  0
    0.3306    0.7257   -1.1950 C   0  0  0  0  0  0  0  0  0  0  0  0
    1.0816    0.5045   -1.9618 H   0  0  0  0  0  0  0  0  0  0  0  0
   -0.6122    0.8513   -1.7372 H   0  0  0  0  0  0  0  0  0  0  0  0
    0.7338    2.1283   -0.6540 C   0  0  0  0  0  0  0  0  0  0  0  0
    1.3657    2.6152   -1.4032 H   0  0  0  0  0  0  0  0  0  0  0  0
   -0.1819    2.7226   -0.5880 H   0  0  0  0  0  0  0  0  0  0  0  0
    1.4260    2.2800    0.6942 C   0  0  0  0  0  0  0  0  0  0  0  0
    2.6359    2.1554    0.7365 O   0  0  0  0  0  0  0  0  0  0  0  0
    0.6727    2.6490    1.7561 O   0  0  0  0  0  0  0  0  0  0  0  0
    1.2954    2.6987    2.4982 H   0  0  0  0  0  0  0  0  0  0  0  0
    0.8612   -0.6441    1.0808 C   0  0  0  0  0  0  0  0  0  0  0  0
    2.0273   -0.9743    1.2402 O   0  0  0  0  0  0  0  0  0  0  0  0
    0.1303   -0.2217    2.1765 N   0  0  0  0  0  0  0  0  0  0  0  0
   -0.8478   -0.0067    2.0169 H   0  0  0  0  0  0  0  0  0  0  0  0
    0.6162   -0.3404    3.5455 C   0  0  0  0  0  0  0  0  0  0  0  0
    1.5621    0.1981    3.6658 H   0  0  0  0  0  0  0  0  0  0  0  0
   -0.1121    0.0824    4.2441 H   0  0  0  0  0  0  0  0  0  0  0  0
    0.7760   -1.3927    3.8033 H   0  0  0  0  0  0  0  0  0  0  0  0
  1  2  1  0  0  0  0
  2  3  1  0  0  0  0
  2  4  1  0  0  0  0
  2  5  1  0  0  0  0
  5  6  2  0  0  0  0
  5  7  1  0  0  0  0
  7  8  1  0  0  0  0
  7  9  1  0  0  0  0
  9 10  1  0  0  0  0
  9 11  1  0  0  0  0
  9 21  1  0  0  0  0
 11 12  1  0  0  0  0
 11 13  1  0  0  0  0
 11 14  1  0  0  0  0
 14 15  1  0  0  0  0
 14 16  1  0  0  0  0
 14 17  1  0  0  0  0
 17 18  2  0  0  0  0
 17 19  1  0  0  0  0
 19 20  1  0  0  0  0
 21 22  2  0  0  0  0
 21 23  1  0  0  0  0
 23 24  1  0  0  0  0
 23 25  1  0  0  0  0
 25 26  1  0  0  0  0
 25 27  1  0  0  0  0
 25 28  1  0  0  0  0
M  END
$$$$

  -OEChem-02102214123D

 28 27  0     1  0  0  0  0  0999 V2000
   -2.6904   -4.0904    0.2953 H   0  0  0  0  0  0  0  0  0  0  0  0
   -2.6465   -3.0744   -0.1078 C   0  0  0  0  0  0  0  0  0  0  0  0
   -3.3597   -2.4502    0.4355 H   0  0  0  0  0  0  0  0  0  0  0  0
   -2.9261   -3.1038   -1.1636 H   0  0  0  0  0  0  0  0  0  0  0  0
   -1.2445   -2.5149    0.0436 C   0  0  0  0  0  0  0  0  0  0  0  0
   -0.3758   -3.1930    0.5593 O   0  0  0  0  0  0  0  0  0  0  0  0
   -0.9651   -1.2390   -0.4084 N   0  0  0  0  0  0  0  0  0  0  0  0
   -1.7222   -0.7451   -0.8700 H   0  0  0  0  0  0  0  0  0  0  0  0
    0.3660   -0.5967   -0.3489 C   0  0  1  0  0  0  0  0  0  0  0  0
    1.0774   -1.2751   -0.8351 H   0  0  0  0  0  0  0  0  0  0  0  0
    0.2876    0.6831   -1.2454 C   0  0  0  0  0  0  0  0  0  0  0  0
    1.0616    0.5281   -2.0055 H   0  0  0  0  0  0  0  0  0  0  0  0
   -0.6632    0.6923   -1.7878 H   0  0  0  0  0  0  0  0  0  0  0  0
    0.5318    2.1283   -0.7279 C   0  0  0  0  0  0  0  0  0  0  0  0
    0.8623    2.7488   -1.5662 H   0  0  0  0  0  0  0  0  0  0  0  0
   -0.4347    2.5244   -0.4039 H   0  0  0  0  0  0  0  0  0  0  0  0
    1.4957    2.3590    0.4303 C   0  0  0  0  0  0  0  0  0  0  0  0
    2.6855    2.2310    0.2059 O   0  0  0  0  0  0  0  0  0  0  0  0
    0.9962    2.7789    1.6151 O   0  0  0  0  0  0  0  0  0  0  0  0
    1.7653    2.8384    2.2035 H   0  0  0  0  0  0  0  0  0  0  0  0
    0.8762   -0.4808    1.1085 C   0  0  0  0  0  0  0  0  0  0  0  0
    2.0544   -0.6740    1.3718 O   0  0  0  0  0  0  0  0  0  0  0  0
    0.0286   -0.0447    2.1114 N   0  0  0  0  0  0  0  0  0  0  0  0
   -0.9544    0.0251    1.8737 H   0  0  0  0  0  0  0  0  0  0  0  0
    0.4172   -0.0129    3.5156 C   0  0  0  0  0  0  0  0  0  0  0  0
    1.3171    0.5956    3.6521 H   0  0  0  0  0  0  0  0  0  0  0  0
   -0.3848    0.4201    4.1208 H   0  0  0  0  0  0  0  0  0  0  0  0
    0.6200   -1.0262    3.8778 H   0  0  0  0  0  0  0  0  0  0  0  0
  1  2  1  0  0  0  0
  2  3  1  0  0  0  0
  2  4  1  0  0  0  0
  2  5  1  0  0  0  0
  5  6  2  0  0  0  0
  5  7  1  0  0  0  0
  7  8  1  0  0  0  0
  7  9  1  0  0  0  0
  9 10  1  0  0  0  0
  9 11  1  0  0  0  0
  9 21  1  0  0  0  0
 11 12  1  0  0  0  0
 11 13  1  0  0  0  0
 11 14  1  0  0  0  0
 14 15  1  0  0  0  0
 14 16  1  0  0  0  0
 14 17  1  0  0  0  0
 17 18  2  0  0  0  0
 17 19  1  0  0  0  0
 19 20  1  0  0  0  0
 21 22  2  0  0  0  0
 21 23  1  0  0  0  0
 23 24  1  0  0  0  0
 23 25  1  0  0  0  0
 25 26  1  0  0  0  0
 25 27  1  0  0  0  0
 25 28  1  0  0  0  0
M  END
$$$$

  -OEChem-02102214123D

 28 27  0     1  0  0  0  0  0999 V2000
   -2.7738   -4.0117    0.3996 H   0  0  0  0  0  0  0  0  0  0  0  0
   -2.7008   -3.0194   -0.0548 C   0  0  0  0  0  0  0  0  0  0  0  0
   -3.4154   -2.3545    0.4363 H   0  0  0  0  0  0  0  0  0  0  0  0
   -2.9544   -3.1000   -1.1144 H   0  0  0  0  0  0  0  0  0  0  0  0
   -1.2929   -2.4770    0.1024 C   0  0  0  0  0  0  0  0  0  0  0  0
   -0.4517   -3.1379    0.6821 O   0  0  0  0  0  0  0  0  0  0  0  0
   -0.9783   -1.2343   -0.4141 N   0  0  0  0  0  0  0  0  0  0  0  0
   -1.7084   -0.7645   -0.9399 H   0  0  0  0  0  0  0  0  0  0  0  0
    0.3660   -0.6182   -0.3677 C   0  0  1  0  0  0  0  0  0  0  0  0
    1.0774   -1.3169   -0.8241 H   0  0  0  0  0  0  0  0  0  0  0  0
    0.3040    0.6493   -1.2809 C   0  0  0  0  0  0  0  0  0  0  0  0
    1.0544    0.4811   -2.0618 H   0  0  0  0  0  0  0  0  0  0  0  0
   -0.6619    0.6885   -1.7942 H   0  0  0  0  0  0  0  0  0  0  0  0
    0.5870    2.0709   -0.7291 C   0  0  0  0  0  0  0  0  0  0  0  0
    0.6929    2.7646   -1.5680 H   0  0  0  0  0  0  0  0  0  0  0  0
   -0.2863    2.3902   -0.1536 H   0  0  0  0  0  0  0  0  0  0  0  0
    1.8067    2.2342    0.1734 C   0  0  0  0  0  0  0  0  0  0  0  0
    2.8970    1.9730   -0.3036 O   0  0  0  0  0  0  0  0  0  0  0  0
    1.6285    2.7079    1.4274 O   0  0  0  0  0  0  0  0  0  0  0  0
    2.5057    2.6631    1.8395 H   0  0  0  0  0  0  0  0  0  0  0  0
    0.8471   -0.4374    1.0941 C   0  0  0  0  0  0  0  0  0  0  0  0
    2.0178   -0.6257    1.3946 O   0  0  0  0  0  0  0  0  0  0  0  0
   -0.0172    0.0700    2.0482 N   0  0  0  0  0  0  0  0  0  0  0  0
   -0.9954    0.1191    1.7874 H   0  0  0  0  0  0  0  0  0  0  0  0
    0.3422    0.1903    3.4554 C   0  0  0  0  0  0  0  0  0  0  0  0
    1.2100    0.8469    3.5755 H   0  0  0  0  0  0  0  0  0  0  0  0
   -0.4908    0.6143    4.0241 H   0  0  0  0  0  0  0  0  0  0  0  0
    0.5845   -0.7930    3.8725 H   0  0  0  0  0  0  0  0  0  0  0  0
  1  2  1  0  0  0  0
  2  3  1  0  0  0  0
  2  4  1  0  0  0  0
  2  5  1  0  0  0  0
  5  6  2  0  0  0  0
  5  7  1  0  0  0  0
  7  8  1  0  0  0  0
  7  9  1  0  0  0  0
  9 10  1  0  0  0  0
  9 11  1  0  0  0  0
  9 21  1  0  0  0  0
 11 12  1  0  0  0  0
 11 13  1  0  0  0  0
 11 14  1  0  0  0  0
 14 15  1  0  0  0  0
 14 16  1  0  0  0  0
 14 17  1  0  0  0  0
 17 18  2  0  0  0  0
 17 19  1  0  0  0  0
 19 20  1  0  0  0  0
 21 22  2  0  0  0  0
 21 23  1  0  0  0  0
 23 24  1  0  0  0  0
 23 25  1  0  0  0  0
 25 26  1  0  0  0  0
 25 27  1  0  0  0  0
 25 28  1  0  0  0  0
M  END
$$$$

  -OEChem-02102214123D

 28 27  0     1  0  0  0  0  0999 V2000
   -2.7181   -4.0661    0.3726 H   0  0  0  0  0  0  0  0  0  0  0  0
   -2.6659   -3.0768   -0.0911 C   0  0  0  0  0  0  0  0  0  0  0  0
   -3.4209   -2.4337    0.3674 H   0  0  0  0  0  0  0  0  0  0  0  0
   -2.8799   -3.1776   -1.1578 H   0  0  0  0  0  0  0  0  0  0  0  0
   -1.2852   -2.4808    0.1081 C   0  0  0  0  0  0  0  0  0  0  0  0
   -0.4470   -3.0949    0.7412 O   0  0  0  0  0  0  0  0  0  0  0  0
   -0.9930   -1.2409   -0.4275 N   0  0  0  0  0  0  0  0  0  0  0  0
   -1.7088   -0.8231   -1.0137 H   0  0  0  0  0  0  0  0  0  0  0  0
    0.3392   -0.6007   -0.3793 C   0  0  1  0  0  0  0  0  0  0  0  0
    1.0628   -1.2922   -0.8272 H   0  0  0  0  0  0  0  0  0  0  0  0
    0.2732    0.6624   -1.2939 C   0  0  0  0  0  0  0  0  0  0  0  0
    1.0079    0.5134   -2.0935 H   0  0  0  0  0  0  0  0  0  0  0  0
   -0.7048    0.7103   -1.7830 H   0  0  0  0  0  0  0  0  0  0  0  0
    0.5459    2.0567   -0.6779 C   0  0  0  0  0  0  0  0  0  0  0  0
    0.4333    2.8190   -1.4536 H   0  0  0  0  0  0  0  0  0  0  0  0
   -0.2048    2.2614    0.0903 H   0  0  0  0  0  0  0  0  0  0  0  0
    1.9315    2.2267   -0.0567 C   0  0  0  0  0  0  0  0  0  0  0  0
    2.9028    1.9388   -0.7354 O   0  0  0  0  0  0  0  0  0  0  0  0
    2.0111    2.7132    1.2026 O   0  0  0  0  0  0  0  0  0  0  0  0
    2.9475    2.6394    1.4446 H   0  0  0  0  0  0  0  0  0  0  0  0
    0.8287   -0.3761    1.0741 C   0  0  0  0  0  0  0  0  0  0  0  0
    2.0122   -0.5064    1.3569 O   0  0  0  0  0  0  0  0  0  0  0  0
   -0.0358    0.1389    2.0234 N   0  0  0  0  0  0  0  0  0  0  0  0
   -1.0214    0.1321    1.7861 H   0  0  0  0  0  0  0  0  0  0  0  0
    0.3555    0.3710    3.4076 C   0  0  0  0  0  0  0  0  0  0  0  0
    1.1866    1.0822    3.4570 H   0  0  0  0  0  0  0  0  0  0  0  0
   -0.4839    0.7843    3.9746 H   0  0  0  0  0  0  0  0  0  0  0  0
    0.6662   -0.5672    3.8793 H   0  0  0  0  0  0  0  0  0  0  0  0
  1  2  1  0  0  0  0
  2  3  1  0  0  0  0
  2  4  1  0  0  0  0
  2  5  1  0  0  0  0
  5  6  2  0  0  0  0
  5  7  1  0  0  0  0
  7  8  1  0  0  0  0
  7  9  1  0  0  0  0
  9 10  1  0  0  0  0
  9 11  1  0  0  0  0
  9 21  1  0  0  0  0
 11 12  1  0  0  0  0
 11 13  1  0  0  0  0
 11 14  1  0  0  0  0
 14 15  1  0  0  0  0
 14 16  1  0  0  0  0
 14 17  1  0  0  0  0
 17 18  2  0  0  0  0
 17 19  1  0  0  0  0
 19 20  1  0  0  0  0
 21 22  2  0  0  0  0
 21 23  1  0  0  0  0
 23 24  1  0  0  0  0
 23 25  1  0  0  0  0
 25 26  1  0  0  0  0
 25 27  1  0  0  0  0
 25 28  1  0  0  0  0
M  END
$$$$

  -OEChem-02102214123D

 28 27  0     1  0  0  0  0  0999 V2000
   -2.6677   -4.1262    0.3288 H   0  0  0  0  0  0  0  0  0  0  0  0
   -2.6413   -3.1354   -0.1339 C   0  0  0  0  0  0  0  0  0  0  0  0
   -3.4247   -2.5182    0.3122 H   0  0  0  0  0  0  0  0  0  0  0  0
   -2.8346   -3.2436   -1.2038 H   0  0  0  0  0  0  0  0  0  0  0  0
   -1.2847   -2.4936    0.0873 C   0  0  0  0  0  0  0  0  0  0  0  0
   -0.4360   -3.0803    0.7328 O   0  0  0  0  0  0  0  0  0  0  0  0
   -1.0237   -1.2431   -0.4393 N   0  0  0  0  0  0  0  0  0  0  0  0
   -1.7426   -0.8438   -1.0346 H   0  0  0  0  0  0  0  0  0  0  0  0
    0.2932   -0.5748   -0.3813 C   0  0  1  0  0  0  0  0  0  0  0  0
    1.0223   -1.2643   -0.8232 H   0  0  0  0  0  0  0  0  0  0  0  0
    0.2499    0.6779   -1.3054 C   0  0  0  0  0  0  0  0  0  0  0  0
    0.9820    0.5323   -2.1076 H   0  0  0  0  0  0  0  0  0  0  0  0
   -0.7283    0.7291   -1.7928 H   0  0  0  0  0  0  0  0  0  0  0  0
    0.5052    2.0550   -0.6467 C   0  0  0  0  0  0  0  0  0  0  0  0
    0.1979    2.8389   -1.3442 H   0  0  0  0  0  0  0  0  0  0  0  0
   -0.1095    2.1688    0.2495 H   0  0  0  0  0  0  0  0  0  0  0  0
    1.9713    2.3167   -0.2991 C   0  0  0  0  0  0  0  0  0  0  0  0
    2.8268    2.0675   -1.1323 O   0  0  0  0  0  0  0  0  0  0  0  0
    2.2398    2.8386    0.9193 O   0  0  0  0  0  0  0  0  0  0  0  0
    3.2064    2.8328    0.9949 H   0  0  0  0  0  0  0  0  0  0  0  0
    0.8087   -0.3332    1.0599 C   0  0  0  0  0  0  0  0  0  0  0  0
    2.0078   -0.3926    1.2976 O   0  0  0  0  0  0  0  0  0  0  0  0
   -0.0424    0.1659    2.0295 N   0  0  0  0  0  0  0  0  0  0  0  0
   -1.0353    0.1114    1.8303 H   0  0  0  0  0  0  0  0  0  0  0  0
    0.3926    0.4687    3.3869 C   0  0  0  0  0  0  0  0  0  0  0  0
    1.1942    1.2151    3.3744 H   0  0  0  0  0  0  0  0  0  0  0  0
   -0.4407    0.8696    3.9714 H   0  0  0  0  0  0  0  0  0  0  0  0
    0.7613   -0.4364    3.8810 H   0  0  0  0  0  0  0  0  0  0  0  0
  1  2  1  0  0  0  0
  2  3  1  0  0  0  0
  2  4  1  0  0  0  0
  2  5  1  0  0  0  0
  5  6  2  0  0  0  0
  5  7  1  0  0  0  0
  7  8  1  0  0  0  0
  7  9  1  0  0  0  0
  9 10  1  0  0  0  0
  9 11  1  0  0  0  0
  9 21  1  0  0  0  0
 11 12  1  0  0  0  0
 11 13  1  0  0  0  0
 11 14  1  0  0  0  0
 14 15  1  0  0  0  0
 14 16  1  0  0  0  0
 14 17  1  0  0  0  0
 17 18  2  0  0  0  0
 17 19  1  0  0  0  0
 19 20  1  0  0  0  0
 21 22  2  0  0  0  0
 21 23  1  0  0  0  0
 23 24  1  0  0  0  0
 23 25  1  0  0  0  0
 25 26  1  0  0  0  0
 25 27  1  0  0  0  0
 25 28  1  0  0  0  0
M  END
$$$$

  -OEChem-02102214123D

 28 27  0     1  0  0  0  0  0999 V2000
   -2.6380   -4.1672    0.2858 H   0  0  0  0  0  0  0  0  0  0  0  0
   -2.6259   -3.1743   -0.1731 C   0  0  0  0  0  0  0  0  0  0  0  0
   -3.4337   -2.5778    0.2577 H   0  0  0  0  0  0  0  0  0  0  0  0
   -2.7933   -3.2831   -1.2474 H   0  0  0  0  0  0  0  0  0  0  0  0
   -1.2904   -2.5005    0.0790 C   0  0  0  0  0  0  0  0  0  0  0  0
   -0.4397   -3.0680    0.7391 O   0  0  0  0  0  0  0  0  0  0  0  0
   -1.0514   -1.2398   -0.4327 N   0  0  0  0  0  0  0  0  0  0  0  0
   -1.7697   -0.8543   -1.0380 H   0  0  0  0  0  0  0  0  0  0  0  0
    0.2542   -0.5517   -0.3664 C   0  0  1  0  0  0  0  0  0  0  0  0
    0.9842   -1.2443   -0.8021 H   0  0  0  0  0  0  0  0  0  0  0  0
    0.2364    0.6874   -1.3058 C   0  0  0  0  0  0  0  0  0  0  0  0
    0.9727    0.5285   -2.1012 H   0  0  0  0  0  0  0  0  0  0  0  0
   -0.7370    0.7331   -1.8037 H   0  0  0  0  0  0  0  0  0  0  0  0
    0.4740    2.0697   -0.6458 C   0  0  0  0  0  0  0  0  0  0  0  0
   -0.0307    2.8270   -1.2518 H   0  0  0  0  0  0  0  0  0  0  0  0
    0.0260    2.1252    0.3478 H   0  0  0  0  0  0  0  0  0  0  0  0
    1.9443    2.4853   -0.5822 C   0  0  0  0  0  0  0  0  0  0  0  0
    2.6548    2.3200   -1.5603 O   0  0  0  0  0  0  0  0  0  0  0  0
    2.3738    3.0546    0.5670 O   0  0  0  0  0  0  0  0  0  0  0  0
    3.3281    3.1812    0.4565 H   0  0  0  0  0  0  0  0  0  0  0  0
    0.7888   -0.3078    1.0667 C   0  0  0  0  0  0  0  0  0  0  0  0
    1.9963   -0.3017    1.2660 O   0  0  0  0  0  0  0  0  0  0  0  0
   -0.0526    0.1720    2.0547 N   0  0  0  0  0  0  0  0  0  0  0  0
   -1.0473    0.0658    1.8879 H   0  0  0  0  0  0  0  0  0  0  0  0
    0.4079    0.4875    3.4007 C   0  0  0  0  0  0  0  0  0  0  0  0
    1.1884    1.2553    3.3683 H   0  0  0  0  0  0  0  0  0  0  0  0
   -0.4213    0.8661    4.0056 H   0  0  0  0  0  0  0  0  0  0  0  0
    0.8129   -0.4070    3.8856 H   0  0  0  0  0  0  0  0  0  0  0  0
  1  2  1  0  0  0  0
  2  3  1  0  0  0  0
  2  4  1  0  0  0  0
  2  5  1  0  0  0  0
  5  6  2  0  0  0  0
  5  7  1  0  0  0  0
  7  8  1  0  0  0  0
  7  9  1  0  0  0  0
  9 10  1  0  0  0  0
  9 11  1  0  0  0  0
  9 21  1  0  0  0  0
 11 12  1  0  0  0  0
 11 13  1  0  0  0  0
 11 14  1  0  0  0  0
 14 15  1  0  0  0  0
 14 16  1  0  0  0  0
 14 17  1  0  0  0  0
 17 18  2  0  0  0  0
 17 19  1  0  0  0  0
 19 20  1  0  0  0  0
 21 22  2  0  0  0  0
 21 23  1  0  0  0  0
 23 24  1  0  0  0  0
 23 25  1  0  0  0  0
 25 26  1  0  0  0  0
 25 27  1  0  0  0  0
 25 28  1  0  0  0  0
M  END
$$$$

  -OEChem-02102214123D

 28 27  0     1  0  0  0  0  0999 V2000
   -2.6190   -4.1697    0.2988 H   0  0  0  0  0  0  0  0  0  0  0  0
   -2.6027   -3.1891   -0.1857 C   0  0  0  0  0  0  0  0  0  0  0  0
   -3.4149   -2.5828    0.2221 H   0  0  0  0  0  0  0  0  0  0  0  0
   -2.7601   -3.3253   -1.2583 H   0  0  0  0  0  0  0  0  0  0  0  0
   -1.2695   -2.5088    0.0611 C   0  0  0  0  0  0  0  0  0  0  0  0
   -0.4061   -3.0805    0.7009 O   0  0  0  0  0  0  0  0  0  0  0  0
   -1.0461   -1.2374   -0.4309 N   0  0  0  0  0  0  0  0  0  0  0  0
   -1.7787   -0.8392   -1.0103 H   0  0  0  0  0  0  0  0  0  0  0  0
    0.2487   -0.5313   -0.3503 C   0  0  1  0  0  0  0  0  0  0  0  0
    0.9878   -1.2141   -0.7861 H   0  0  0  0  0  0  0  0  0  0  0  0
    0.2261    0.7085   -1.2892 C   0  0  0  0  0  0  0  0  0  0  0  0
    0.9799    0.5477   -2.0674 H   0  0  0  0  0  0  0  0  0  0  0  0
   -0.7362    0.7355   -1.8096 H   0  0  0  0  0  0  0  0  0  0  0  0
    0.4363    2.1062   -0.6438 C   0  0  0  0  0  0  0  0  0  0  0  0
   -0.2799    2.7988   -1.0939 H   0  0  0  0  0  0  0  0  0  0  0  0
    0.2253    2.1102    0.4256 H   0  0  0  0  0  0  0  0  0  0  0  0
    1.8221    2.7024   -0.8906 C   0  0  0  0  0  0  0  0  0  0  0  0
    2.2864    2.6835   -2.0191 O   0  0  0  0  0  0  0  0  0  0  0  0
    2.4529    3.2607    0.1673 O   0  0  0  0  0  0  0  0  0  0  0  0
    3.3223    3.5389   -0.1571 H   0  0  0  0  0  0  0  0  0  0  0  0
    0.7756   -0.3000    1.0869 C   0  0  0  0  0  0  0  0  0  0  0  0
    1.9825   -0.2707    1.2870 O   0  0  0  0  0  0  0  0  0  0  0  0
   -0.0765    0.1530    2.0787 N   0  0  0  0  0  0  0  0  0  0  0  0
   -1.0692    0.0363    1.9059 H   0  0  0  0  0  0  0  0  0  0  0  0
    0.3747    0.4525    3.4319 C   0  0  0  0  0  0  0  0  0  0  0  0
    1.1346    1.2411    3.4163 H   0  0  0  0  0  0  0  0  0  0  0  0
   -0.4647    0.7957    4.0441 H   0  0  0  0  0  0  0  0  0  0  0  0
    0.8041   -0.4407    3.8980 H   0  0  0  0  0  0  0  0  0  0  0  0
  1  2  1  0  0  0  0
  2  3  1  0  0  0  0
  2  4  1  0  0  0  0
  2  5  1  0  0  0  0
  5  6  2  0  0  0  0
  5  7  1  0  0  0  0
  7  8  1  0  0  0  0
  7  9  1  0  0  0  0
  9 10  1  0  0  0  0
  9 11  1  0  0  0  0
  9 21  1  0  0  0  0
 11 12  1  0  0  0  0
 11 13  1  0  0  0  0
 11 14  1  0  0  0  0
 14 15  1  0  0  0  0
 14 16  1  0  0  0  0
 14 17  1  0  0  0  0
 17 18  2  0  0  0  0
 17 19  1  0  0  0  0
 19 20  1  0  0  0  0
 21 22  2  0  0  0  0
 21 23  1  0  0  0  0
 23 24  1  0  0  0  0
 23 25  1  0  0  0  0
 25 26  1  0  0  0  0
 25 27  1  0  0  0  0
 25 28  1  0  0  0  0
M  END
$$$$

  -OEChem-02102214123D

 28 27  0     1  0  0  0  0  0999 V2000
   -2.5805   -4.1923    0.2311 H   0  0  0  0  0  0  0  0  0  0  0  0
   -2.5752   -3.1951   -0.2185 C   0  0  0  0  0  0  0  0  0  0  0  0
   -3.3986   -2.6148    0.2044 H   0  0  0  0  0  0  0  0  0  0  0  0
   -2.7237   -3.2962   -1.2963 H   0  0  0  0  0  0  0  0  0  0  0  0
   -1.2537   -2.5043    0.0609 C   0  0  0  0  0  0  0  0  0  0  0  0
   -0.3964   -3.0742    0.7104 O   0  0  0  0  0  0  0  0  0  0  0  0
   -1.0333   -1.2278   -0.4190 N   0  0  0  0  0  0  0  0  0  0  0  0
   -1.7570   -0.8373   -1.0146 H   0  0  0  0  0  0  0  0  0  0  0  0
    0.2581   -0.5164   -0.3281 C   0  0  1  0  0  0  0  0  0  0  0  0
    1.0055   -1.1845   -0.7728 H   0  0  0  0  0  0  0  0  0  0  0  0
    0.2052    0.7375   -1.2495 C   0  0  0  0  0  0  0  0  0  0  0  0
    0.9803    0.5882   -2.0094 H   0  0  0  0  0  0  0  0  0  0  0  0
   -0.7443    0.7515   -1.7936 H   0  0  0  0  0  0  0  0  0  0  0  0
    0.3983    2.1438   -0.6104 C   0  0  0  0  0  0  0  0  0  0  0  0
   -0.4958    2.7433   -0.8009 H   0  0  0  0  0  0  0  0  0  0  0  0
    0.5136    2.1012    0.4720 H   0  0  0  0  0  0  0  0  0  0  0  0
    1.5970    2.9079   -1.1726 C   0  0  0  0  0  0  0  0  0  0  0  0
    1.7379    2.9732   -2.3831 O   0  0  0  0  0  0  0  0  0  0  0  0
    2.4290    3.5072   -0.2908 O   0  0  0  0  0  0  0  0  0  0  0  0
    3.1302    3.9168   -0.8192 H   0  0  0  0  0  0  0  0  0  0  0  0
    0.7706   -0.3002    1.1164 C   0  0  0  0  0  0  0  0  0  0  0  0
    1.9750   -0.2736    1.3304 O   0  0  0  0  0  0  0  0  0  0  0  0
   -0.0939    0.1378    2.1043 N   0  0  0  0  0  0  0  0  0  0  0  0
   -1.0835    0.0140    1.9189 H   0  0  0  0  0  0  0  0  0  0  0  0
    0.3396    0.4042    3.4704 C   0  0  0  0  0  0  0  0  0  0  0  0
    1.1099    1.1828    3.4833 H   0  0  0  0  0  0  0  0  0  0  0  0
   -0.5048    0.7467    4.0759 H   0  0  0  0  0  0  0  0  0  0  0  0
    0.7495   -0.5037    3.9256 H   0  0  0  0  0  0  0  0  0  0  0  0
  1  2  1  0  0  0  0
  2  3  1  0  0  0  0
  2  4  1  0  0  0  0
  2  5  1  0  0  0  0
  5  6  2  0  0  0  0
  5  7  1  0  0  0  0
  7  8  1  0  0  0  0
  7  9  1  0  0  0  0
  9 10  1  0  0  0  0
  9 11  1  0  0  0  0
  9 21  1  0  0  0  0
 11 12  1  0  0  0  0
 11 13  1  0  0  0  0
 11 14  1  0  0  0  0
 14 15  1  0  0  0  0
 14 16  1  0  0  0  0
 14 17  1  0  0  0  0
 17 18  2  0  0  0  0
 17 19  1  0  0  0  0
 19 20  1  0  0  0  0
 21 22  2  0  0  0  0
 21 23  1  0  0  0  0
 23 24  1  0  0  0  0
 23 25  1  0  0  0  0
 25 26  1  0  0  0  0
 25 27  1  0  0  0  0
 25 28  1  0  0  0  0
M  END
$$$$

  -OEChem-02102214123D

 28 27  0     1  0  0  0  0  0999 V2000
   -2.5685   -4.1938    0.2010 H   0  0  0  0  0  0  0  0  0  0  0  0
   -2.5668   -3.1900   -0.2335 C   0  0  0  0  0  0  0  0  0  0  0  0
   -3.3910   -2.6184    0.1995 H   0  0  0  0  0  0  0  0  0  0  0  0
   -2.7167   -3.2750   -1.3125 H   0  0  0  0  0  0  0  0  0  0  0  0
   -1.2469   -2.4999    0.0544 C   0  0  0  0  0  0  0  0  0  0  0  0
   -0.3920   -3.0733    0.7039 O   0  0  0  0  0  0  0  0  0  0  0  0
   -1.0241   -1.2217   -0.4203 N   0  0  0  0  0  0  0  0  0  0  0  0
   -1.7439   -0.8315   -1.0208 H   0  0  0  0  0  0  0  0  0  0  0  0
    0.2692   -0.5136   -0.3274 C   0  0  1  0  0  0  0  0  0  0  0  0
    1.0187   -1.1687   -0.7870 H   0  0  0  0  0  0  0  0  0  0  0  0
    0.1873    0.7606   -1.2184 C   0  0  0  0  0  0  0  0  0  0  0  0
    0.9763    0.6351   -1.9686 H   0  0  0  0  0  0  0  0  0  0  0  0
   -0.7554    0.7794   -1.7743 H   0  0  0  0  0  0  0  0  0  0  0  0
    0.3816    2.1536   -0.5528 C   0  0  0  0  0  0  0  0  0  0  0  0
   -0.5892    2.6393   -0.4251 H   0  0  0  0  0  0  0  0  0  0  0  0
    0.8308    2.0732    0.4374 H   0  0  0  0  0  0  0  0  0  0  0  0
    1.3029    3.0748   -1.3525 C   0  0  0  0  0  0  0  0  0  0  0  0
    1.1735    3.1266   -2.5650 O   0  0  0  0  0  0  0  0  0  0  0  0
    2.2049    3.8127   -0.6661 O   0  0  0  0  0  0  0  0  0  0  0  0
    2.7004    4.3161   -1.3293 H   0  0  0  0  0  0  0  0  0  0  0  0
    0.7750   -0.3093    1.1206 C   0  0  0  0  0  0  0  0  0  0  0  0
    1.9779   -0.2952    1.3449 O   0  0  0  0  0  0  0  0  0  0  0  0
   -0.0959    0.1245    2.1043 N   0  0  0  0  0  0  0  0  0  0  0  0
   -1.0845    0.0131    1.9059 H   0  0  0  0  0  0  0  0  0  0  0  0
    0.3247    0.3665    3.4786 C   0  0  0  0  0  0  0  0  0  0  0  0
    1.1043    1.1352    3.5108 H   0  0  0  0  0  0  0  0  0  0  0  0
   -0.5224    0.7106    4.0795 H   0  0  0  0  0  0  0  0  0  0  0  0
    0.7181   -0.5529    3.9252 H   0  0  0  0  0  0  0  0  0  0  0  0
  1  2  1  0  0  0  0
  2  3  1  0  0  0  0
  2  4  1  0  0  0  0
  2  5  1  0  0  0  0
  5  6  2  0  0  0  0
  5  7  1  0  0  0  0
  7  8  1  0  0  0  0
  7  9  1  0  0  0  0
  9 10  1  0  0  0  0
  9 11  1  0  0  0  0
  9 21  1  0  0  0  0
 11 12  1  0  0  0  0
 11 13  1  0  0  0  0
 11 14  1  0  0  0  0
 14 15  1  0  0  0  0
 14 16  1  0  0  0  0
 14 17  1  0  0  0  0
 17 18  2  0  0  0  0
 17 19  1  0  0  0  0
 19 20  1  0  0  0  0
 21 22  2  0  0  0  0
 21 23  1  0  0  0  0
 23 24  1  0  0  0  0
 23 25  1  0  0  0  0
 25 26  1  0  0  0  0
 25 27  1  0  0  0  0
 25 28  1  0  0  0  0
M  END
$$$$

  -OEChem-02102214123D

 28 27  0     1  0  0  0  0  0999 V2000
   -2.5914   -4.1774    0.2139 H   0  0  0  0  0  0  0  0  0  0  0  0
   -2.5822   -3.1753   -0.2245 C   0  0  0  0  0  0  0  0  0  0  0  0
   -3.3950   -2.5922    0.2146 H   0  0  0  0  0  0  0  0  0  0  0  0
   -2.7437   -3.2625   -1.3016 H   0  0  0  0  0  0  0  0  0  0  0  0
   -1.2516   -2.4996    0.0474 C   0  0  0  0  0  0  0  0  0  0  0  0
   -0.3960   -3.0812    0.6887 O   0  0  0  0  0  0  0  0  0  0  0  0
   -1.0213   -1.2242   -0.4309 N   0  0  0  0  0  0  0  0  0  0  0  0
   -1.7424   -0.8276   -1.0258 H   0  0  0  0  0  0  0  0  0  0  0  0
    0.2764   -0.5240   -0.3430 C   0  0  1  0  0  0  0  0  0  0  0  0
    1.0238   -1.1750   -0.8121 H   0  0  0  0  0  0  0  0  0  0  0  0
    0.1832    0.7621   -1.2135 C   0  0  0  0  0  0  0  0  0  0  0  0
    0.9682    0.6567   -1.9712 H   0  0  0  0  0  0  0  0  0  0  0  0
   -0.7665    0.7958   -1.7574 H   0  0  0  0  0  0  0  0  0  0  0  0
    0.3927    2.1303   -0.5106 C   0  0  0  0  0  0  0  0  0  0  0  0
   -0.5531    2.4885   -0.0963 H   0  0  0  0  0  0  0  0  0  0  0  0
    1.1020    2.0383    0.3145 H   0  0  0  0  0  0  0  0  0  0  0  0
    0.9878    3.1961   -1.4316 C   0  0  0  0  0  0  0  0  0  0  0  0
    0.7302    3.1634   -2.6243 O   0  0  0  0  0  0  0  0  0  0  0  0
    1.7563    4.1519   -0.8613 O   0  0  0  0  0  0  0  0  0  0  0  0
    2.0467    4.7290   -1.5834 H   0  0  0  0  0  0  0  0  0  0  0  0
    0.7822   -0.3216    1.1056 C   0  0  0  0  0  0  0  0  0  0  0  0
    1.9846   -0.3244    1.3338 O   0  0  0  0  0  0  0  0  0  0  0  0
   -0.0858    0.1189    2.0886 N   0  0  0  0  0  0  0  0  0  0  0  0
   -1.0751    0.0199    1.8875 H   0  0  0  0  0  0  0  0  0  0  0  0
    0.3342    0.3503    3.4650 C   0  0  0  0  0  0  0  0  0  0  0  0
    1.1230    1.1092    3.5026 H   0  0  0  0  0  0  0  0  0  0  0  0
   -0.5102    0.7025    4.0650 H   0  0  0  0  0  0  0  0  0  0  0  0
    0.7151   -0.5756    3.9091 H   0  0  0  0  0  0  0  0  0  0  0  0
  1  2  1  0  0  0  0
  2  3  1  0  0  0  0
  2  4  1  0  0  0  0
  2  5  1  0  0  0  0
  5  6  2  0  0  0  0
  5  7  1  0  0  0  0
  7  8  1  0  0  0  0
  7  9  1  0  0  0  0
  9 10  1  0  0  0  0
  9 11  1  0  0  0  0
  9 21  1  0  0  0  0
 11 12  1  0  0  0  0
 11 13  1  0  0  0  0
 11 14  1  0  0  0  0
 14 15  1  0  0  0  0
 14 16  1  0  0  0  0
 14 17  1  0  0  0  0
 17 18  2  0  0  0  0
 17 19  1  0  0  0  0
 19 20  1  0  0  0  0
 21 22  2  0  0  0  0
 21 23  1  0  0  0  0
 23 24  1  0  0  0  0
 23 25  1  0  0  0  0
 25 26  1  0  0  0  0
 25 27  1  0  0  0  0
 25 28  1  0  0  0  0
M  END
$$$$

  -OEChem-02102214123D

 28 27  0     1  0  0  0  0  0999 V2000
   -2.6101   -4.1728    0.2250 H   0  0  0  0  0  0  0  0  0  0  0  0
   -2.5985   -3.1738   -0.2204 C   0  0  0  0  0  0  0  0  0  0  0  0
   -3.4090   -2.5851    0.2158 H   0  0  0  0  0  0  0  0  0  0  0  0
   -2.7620   -3.2682   -1.2966 H   0  0  0  0  0  0  0  0  0  0  0  0
   -1.2653   -2.5005    0.0456 C   0  0  0  0  0  0  0  0  0  0  0  0
   -0.4098   -3.0812    0.6877 O   0  0  0  0  0  0  0  0  0  0  0  0
   -1.0325   -1.2272   -0.4371 N   0  0  0  0  0  0  0  0  0  0  0  0
   -1.7525   -0.8317   -1.0343 H   0  0  0  0  0  0  0  0  0  0  0  0
    0.2682   -0.5315   -0.3562 C   0  0  1  0  0  0  0  0  0  0  0  0
    1.0107   -1.1844   -0.8303 H   0  0  0  0  0  0  0  0  0  0  0  0
    0.1800    0.7582   -1.2186 C   0  0  0  0  0  0  0  0  0  0  0  0
    0.9523    0.6688   -1.9911 H   0  0  0  0  0  0  0  0  0  0  0  0
   -0.7811    0.8049   -1.7412 H   0  0  0  0  0  0  0  0  0  0  0  0
    0.4066    2.1018   -0.4830 C   0  0  0  0  0  0  0  0  0  0  0  0
   -0.4530    2.3313    0.1519 H   0  0  0  0  0  0  0  0  0  0  0  0
    1.2905    2.0327    0.1570 H   0  0  0  0  0  0  0  0  0  0  0  0
    0.6615    3.2774   -1.4270 C   0  0  0  0  0  0  0  0  0  0  0  0
    0.3187    3.1972   -2.5958 O   0  0  0  0  0  0  0  0  0  0  0  0
    1.2426    4.3769   -0.8956 O   0  0  0  0  0  0  0  0  0  0  0  0
    1.3321    5.0106   -1.6232 H   0  0  0  0  0  0  0  0  0  0  0  0
    0.7853   -0.3246    1.0888 C   0  0  0  0  0  0  0  0  0  0  0  0
    1.9895   -0.3300    1.3080 O   0  0  0  0  0  0  0  0  0  0  0  0
   -0.0735    0.1230    2.0770 N   0  0  0  0  0  0  0  0  0  0  0  0
   -1.0644    0.0181    1.8868 H   0  0  0  0  0  0  0  0  0  0  0  0
    0.3590    0.3584    3.4488 C   0  0  0  0  0  0  0  0  0  0  0  0
    1.1521    1.1133    3.4770 H   0  0  0  0  0  0  0  0  0  0  0  0
   -0.4785    0.7177    4.0542 H   0  0  0  0  0  0  0  0  0  0  0  0
    0.7386   -0.5676    3.8936 H   0  0  0  0  0  0  0  0  0  0  0  0
  1  2  1  0  0  0  0
  2  3  1  0  0  0  0
  2  4  1  0  0  0  0
  2  5  1  0  0  0  0
  5  6  2  0  0  0  0
  5  7  1  0  0  0  0
  7  8  1  0  0  0  0
  7  9  1  0  0  0  0
  9 10  1  0  0  0  0
  9 11  1  0  0  0  0
  9 21  1  0  0  0  0
 11 12  1  0  0  0  0
 11 13  1  0  0  0  0
 11 14  1  0  0  0  0
 14 15  1  0  0  0  0
 14 16  1  0  0  0  0
 14 17  1  0  0  0  0
 17 18  2  0  0  0  0
 17 19  1  0  0  0  0
 19 20  1  0  0  0  0
 21 22  2  0  0  0  0
 21 23  1  0  0  0  0
 23 24  1  0  0  0  0
 23 25  1  0  0  0  0
 25 26  1  0  0  0  0
 25 27  1  0  0  0  0
 25 28  1  0  0  0  0
M  END
$$$$

  -OEChem-02102214123D

 28 27  0     1  0  0  0  0  0999 V2000
   -2.6355   -4.1492    0.2559 H   0  0  0  0  0  0  0  0  0  0  0  0
   -2.6151   -3.1550   -0.1997 C   0  0  0  0  0  0  0  0  0  0  0  0
   -3.4181   -2.5537    0.2331 H   0  0  0  0  0  0  0  0  0  0  0  0
   -2.7836   -3.2584   -1.2743 H   0  0  0  0  0  0  0  0  0  0  0  0
   -1.2747   -2.4921    0.0554 C   0  0  0  0  0  0  0  0  0  0  0  0
   -0.4251   -3.0733    0.7050 O   0  0  0  0  0  0  0  0  0  0  0  0
   -1.0304   -1.2276   -0.4446 N   0  0  0  0  0  0  0  0  0  0  0  0
   -1.7415   -0.8417   -1.0589 H   0  0  0  0  0  0  0  0  0  0  0  0
    0.2783   -0.5450   -0.3787 C   0  0  1  0  0  0  0  0  0  0  0  0
    1.0223   -1.1974   -0.8503 H   0  0  0  0  0  0  0  0  0  0  0  0
    0.1924    0.7490   -1.2334 C   0  0  0  0  0  0  0  0  0  0  0  0
    0.7011    0.5605   -2.1853 H   0  0  0  0  0  0  0  0  0  0  0  0
   -0.8570    0.9586   -1.4668 H   0  0  0  0  0  0  0  0  0  0  0  0
    0.7896    2.0256   -0.5953 C   0  0  0  0  0  0  0  0  0  0  0  0
    0.2797    2.2490    0.3452 H   0  0  0  0  0  0  0  0  0  0  0  0
    1.8487    1.8609   -0.3743 H   0  0  0  0  0  0  0  0  0  0  0  0
    0.6786    3.2684   -1.4800 C   0  0  0  0  0  0  0  0  0  0  0  0
    0.0704    3.2103   -2.5371 O   0  0  0  0  0  0  0  0  0  0  0  0
    1.2666    4.3968   -1.0218 O   0  0  0  0  0  0  0  0  0  0  0  0
    1.1104    5.0739   -1.6973 H   0  0  0  0  0  0  0  0  0  0  0  0
    0.7915   -0.3325    1.0682 C   0  0  0  0  0  0  0  0  0  0  0  0
    1.9939   -0.3576    1.2962 O   0  0  0  0  0  0  0  0  0  0  0  0
   -0.0661    0.1324    2.0496 N   0  0  0  0  0  0  0  0  0  0  0  0
   -1.0574    0.0416    1.8540 H   0  0  0  0  0  0  0  0  0  0  0  0
    0.3616    0.3640    3.4238 C   0  0  0  0  0  0  0  0  0  0  0  0
    1.1674    1.1051    3.4545 H   0  0  0  0  0  0  0  0  0  0  0  0
   -0.4732    0.7395    4.0232 H   0  0  0  0  0  0  0  0  0  0  0  0
    0.7225   -0.5670    3.8736 H   0  0  0  0  0  0  0  0  0  0  0  0
  1  2  1  0  0  0  0
  2  3  1  0  0  0  0
  2  4  1  0  0  0  0
  2  5  1  0  0  0  0
  5  6  2  0  0  0  0
  5  7  1  0  0  0  0
  7  8  1  0  0  0  0
  7  9  1  0  0  0  0
  9 10  1  0  0  0  0
  9 11  1  0  0  0  0
  9 21  1  0  0  0  0
 11 12  1  0  0  0  0
 11 13  1  0  0  0  0
 11 14  1  0  0  0  0
 14 15  1  0  0  0  0
 14 16  1  0  0  0  0
 14 17  1  0  0  0  0
 17 18  2  0  0  0  0
 17 19  1  0  0  0  0
 19 20  1  0  0  0  0
 21 22  2  0  0  0  0
 21 23  1  0  0  0  0
 23 24  1  0  0  0  0
 23 25  1  0  0  0  0
 25 26  1  0  0  0  0
 25 27  1  0  0  0  0
 25 28  1  0  0  0  0
M  END
$$$$

  -OEChem-02102214123D

 28 27  0     1  0  0  0  0  0999 V2000
   -2.6522   -4.1420    0.2423 H   0  0  0  0  0  0  0  0  0  0  0  0
   -2.6343   -3.1369   -0.1890 C   0  0  0  0  0  0  0  0  0  0  0  0
   -3.4260   -2.5425    0.2732 H   0  0  0  0  0  0  0  0  0  0  0  0
   -2.8228   -3.2127   -1.2626 H   0  0  0  0  0  0  0  0  0  0  0  0
   -1.2855   -2.4874    0.0573 C   0  0  0  0  0  0  0  0  0  0  0  0
   -0.4344   -3.0795    0.6951 O   0  0  0  0  0  0  0  0  0  0  0  0
   -1.0367   -1.2200   -0.4332 N   0  0  0  0  0  0  0  0  0  0  0  0
   -1.7528   -0.8203   -1.0325 H   0  0  0  0  0  0  0  0  0  0  0  0
    0.2760   -0.5444   -0.3695 C   0  0  1  0  0  0  0  0  0  0  0  0
    1.0123   -1.2046   -0.8425 H   0  0  0  0  0  0  0  0  0  0  0  0
    0.2095    0.7476   -1.2316 C   0  0  0  0  0  0  0  0  0  0  0  0
    0.7027    0.5557   -2.1908 H   0  0  0  0  0  0  0  0  0  0  0  0
   -0.8431    0.9559   -1.4505 H   0  0  0  0  0  0  0  0  0  0  0  0
    0.8139    2.0323   -0.6106 C   0  0  0  0  0  0  0  0  0  0  0  0
    0.4776    2.1495    0.4216 H   0  0  0  0  0  0  0  0  0  0  0  0
    1.9053    1.9548   -0.5985 H   0  0  0  0  0  0  0  0  0  0  0  0
    0.4092    3.3213   -1.3295 C   0  0  0  0  0  0  0  0  0  0  0  0
   -0.2051    3.2647   -2.3831 O   0  0  0  0  0  0  0  0  0  0  0  0
    0.7609    4.4850   -0.7370 O   0  0  0  0  0  0  0  0  0  0  0  0
    0.4450    5.1899   -1.3224 H   0  0  0  0  0  0  0  0  0  0  0  0
    0.7979   -0.3472    1.0756 C   0  0  0  0  0  0  0  0  0  0  0  0
    2.0022   -0.3672    1.2941 O   0  0  0  0  0  0  0  0  0  0  0  0
   -0.0542    0.1128    2.0641 N   0  0  0  0  0  0  0  0  0  0  0  0
   -1.0462    0.0191    1.8736 H   0  0  0  0  0  0  0  0  0  0  0  0
    0.3790    0.3277    3.4389 C   0  0  0  0  0  0  0  0  0  0  0  0
    1.1789    1.0748    3.4771 H   0  0  0  0  0  0  0  0  0  0  0  0
   -0.4562    0.6870    4.0474 H   0  0  0  0  0  0  0  0  0  0  0  0
    0.7497   -0.6070    3.8730 H   0  0  0  0  0  0  0  0  0  0  0  0
  1  2  1  0  0  0  0
  2  3  1  0  0  0  0
  2  4  1  0  0  0  0
  2  5  1  0  0  0  0
  5  6  2  0  0  0  0
  5  7  1  0  0  0  0
  7  8  1  0  0  0  0
  7  9  1  0  0  0  0
  9 10  1  0  0  0  0
  9 11  1  0  0  0  0
  9 21  1  0  0  0  0
 11 12  1  0  0  0  0
 11 13  1  0  0  0  0
 11 14  1  0  0  0  0
 14 15  1  0  0  0  0
 14 16  1  0  0  0  0
 14 17  1  0  0  0  0
 17 18  2  0  0  0  0
 17 19  1  0  0  0  0
 19 20  1  0  0  0  0
 21 22  2  0  0  0  0
 21 23  1  0  0  0  0
 23 24  1  0  0  0  0
 23 25  1  0  0  0  0
 25 26  1  0  0  0  0
 25 27  1  0  0  0  0
 25 28  1  0  0  0  0
M  END
$$$$

  -OEChem-02102214123D

 28 27  0     1  0  0  0  0  0999 V2000
   -2.6869   -4.1207    0.2516 H   0  0  0  0  0  0  0  0  0  0  0  0
   -2.6550   -3.1213   -0.1918 C   0  0  0  0  0  0  0  0  0  0  0  0
   -3.4465   -2.5141    0.2536 H   0  0  0  0  0  0  0  0  0  0  0  0
   -2.8311   -3.2091   -1.2667 H   0  0  0  0  0  0  0  0  0  0  0  0
   -1.3032   -2.4814    0.0618 C   0  0  0  0  0  0  0  0  0  0  0  0
   -0.4545   -3.0864    0.6906 O   0  0  0  0  0  0  0  0  0  0  0  0
   -1.0454   -1.2120   -0.4192 N   0  0  0  0  0  0  0  0  0  0  0  0
   -1.7609   -0.8005   -1.0114 H   0  0  0  0  0  0  0  0  0  0  0  0
    0.2747   -0.5502   -0.3565 C   0  0  1  0  0  0  0  0  0  0  0  0
    1.0002   -1.2195   -0.8339 H   0  0  0  0  0  0  0  0  0  0  0  0
    0.2228    0.7424   -1.2231 C   0  0  0  0  0  0  0  0  0  0  0  0
    0.7026    0.5422   -2.1872 H   0  0  0  0  0  0  0  0  0  0  0  0
   -0.8317    0.9471   -1.4349 H   0  0  0  0  0  0  0  0  0  0  0  0
    0.8351    2.0411   -0.6279 C   0  0  0  0  0  0  0  0  0  0  0  0
    0.7261    2.0626    0.4570 H   0  0  0  0  0  0  0  0  0  0  0  0
    1.9059    2.0765   -0.8470 H   0  0  0  0  0  0  0  0  0  0  0  0
    0.1695    3.3284   -1.1195 C   0  0  0  0  0  0  0  0  0  0  0  0
   -0.4399    3.3291   -2.1773 O   0  0  0  0  0  0  0  0  0  0  0  0
    0.3002    4.4241   -0.3369 O   0  0  0  0  0  0  0  0  0  0  0  0
   -0.1555    5.1414   -0.8026 H   0  0  0  0  0  0  0  0  0  0  0  0
    0.8063   -0.3709    1.0869 C   0  0  0  0  0  0  0  0  0  0  0  0
    2.0122   -0.3977    1.2956 O   0  0  0  0  0  0  0  0  0  0  0  0
   -0.0352    0.0894    2.0845 N   0  0  0  0  0  0  0  0  0  0  0  0
   -1.0298    0.0094    1.9015 H   0  0  0  0  0  0  0  0  0  0  0  0
    0.4129    0.3103    3.4537 C   0  0  0  0  0  0  0  0  0  0  0  0
    1.2170    1.0535    3.4791 H   0  0  0  0  0  0  0  0  0  0  0  0
   -0.4142    0.6776    4.0686 H   0  0  0  0  0  0  0  0  0  0  0  0
    0.7831   -0.6236    3.8896 H   0  0  0  0  0  0  0  0  0  0  0  0
  1  2  1  0  0  0  0
  2  3  1  0  0  0  0
  2  4  1  0  0  0  0
  2  5  1  0  0  0  0
  5  6  2  0  0  0  0
  5  7  1  0  0  0  0
  7  8  1  0  0  0  0
  7  9  1  0  0  0  0
  9 10  1  0  0  0  0
  9 11  1  0  0  0  0
  9 21  1  0  0  0  0
 11 12  1  0  0  0  0
 11 13  1  0  0  0  0
 11 14  1  0  0  0  0
 14 15  1  0  0  0  0
 14 16  1  0  0  0  0
 14 17  1  0  0  0  0
 17 18  2  0  0  0  0
 17 19  1  0  0  0  0
 19 20  1  0  0  0  0
 21 22  2  0  0  0  0
 21 23  1  0  0  0  0
 23 24  1  0  0  0  0
 23 25  1  0  0  0  0
 25 26  1  0  0  0  0
 25 27  1  0  0  0  0
 25 28  1  0  0  0  0
M  END
$$$$

  -OEChem-02102214123D

 28 27  0     1  0  0  0  0  0999 V2000
   -2.7379   -4.0695    0.2943 H   0  0  0  0  0  0  0  0  0  0  0  0
   -2.6788   -3.0848   -0.1784 C   0  0  0  0  0  0  0  0  0  0  0  0
   -3.4638   -2.4483    0.2365 H   0  0  0  0  0  0  0  0  0  0  0  0
   -2.8418   -3.2014   -1.2526 H   0  0  0  0  0  0  0  0  0  0  0  0
   -1.3172   -2.4656    0.0749 C   0  0  0  0  0  0  0  0  0  0  0  0
   -0.4757   -3.0861    0.6980 O   0  0  0  0  0  0  0  0  0  0  0  0
   -1.0394   -1.2019   -0.4096 N   0  0  0  0  0  0  0  0  0  0  0  0
   -1.7520   -0.7777   -0.9958 H   0  0  0  0  0  0  0  0  0  0  0  0
    0.2922   -0.5621   -0.3543 C   0  0  1  0  0  0  0  0  0  0  0  0
    1.0073   -1.2383   -0.8373 H   0  0  0  0  0  0  0  0  0  0  0  0
    0.2400    0.7337   -1.2190 C   0  0  0  0  0  0  0  0  0  0  0  0
    0.7137    0.5224   -2.1837 H   0  0  0  0  0  0  0  0  0  0  0  0
   -0.8130    0.9404   -1.4365 H   0  0  0  0  0  0  0  0  0  0  0  0
    0.8663    2.0407   -0.6502 C   0  0  0  0  0  0  0  0  0  0  0  0
    1.0614    1.9759    0.4201 H   0  0  0  0  0  0  0  0  0  0  0  0
    1.8321    2.2160   -1.1322 H   0  0  0  0  0  0  0  0  0  0  0  0
   -0.0187    3.2708   -0.8503 C   0  0  0  0  0  0  0  0  0  0  0  0
   -0.5676    3.4345   -1.9278 O   0  0  0  0  0  0  0  0  0  0  0  0
   -0.1568    4.1213    0.1929 O   0  0  0  0  0  0  0  0  0  0  0  0
   -0.7258    4.8400   -0.1216 H   0  0  0  0  0  0  0  0  0  0  0  0
    0.8267   -0.3922    1.0887 C   0  0  0  0  0  0  0  0  0  0  0  0
    2.0312   -0.4485    1.2995 O   0  0  0  0  0  0  0  0  0  0  0  0
   -0.0068    0.0830    2.0855 N   0  0  0  0  0  0  0  0  0  0  0  0
   -1.0027    0.0414    1.8973 H   0  0  0  0  0  0  0  0  0  0  0  0
    0.4450    0.3162    3.4512 C   0  0  0  0  0  0  0  0  0  0  0  0
    1.2676    1.0393    3.4641 H   0  0  0  0  0  0  0  0  0  0  0  0
   -0.3729    0.7157    4.0583 H   0  0  0  0  0  0  0  0  0  0  0  0
    0.7907   -0.6191    3.9042 H   0  0  0  0  0  0  0  0  0  0  0  0
  1  2  1  0  0  0  0
  2  3  1  0  0  0  0
  2  4  1  0  0  0  0
  2  5  1  0  0  0  0
  5  6  2  0  0  0  0
  5  7  1  0  0  0  0
  7  8  1  0  0  0  0
  7  9  1  0  0  0  0
  9 10  1  0  0  0  0
  9 11  1  0  0  0  0
  9 21  1  0  0  0  0
 11 12  1  0  0  0  0
 11 13  1  0  0  0  0
 11 14  1  0  0  0  0
 14 15  1  0  0  0  0
 14 16  1  0  0  0  0
 14 17  1  0  0  0  0
 17 18  2  0  0  0  0
 17 19  1  0  0  0  0
 19 20  1  0  0  0  0
 21 22  2  0  0  0  0
 21 23  1  0  0  0  0
 23 24  1  0  0  0  0
 23 25  1  0  0  0  0
 25 26  1  0  0  0  0
 25 27  1  0  0  0  0
 25 28  1  0  0  0  0
M  END
$$$$

  -OEChem-02102214123D

 28 27  0     1  0  0  0  0  0999 V2000
   -2.7041   -4.0627    0.2254 H   0  0  0  0  0  0  0  0  0  0  0  0
   -2.6566   -3.0469   -0.1773 C   0  0  0  0  0  0  0  0  0  0  0  0
   -3.3384   -2.4110    0.3924 H   0  0  0  0  0  0  0  0  0  0  0  0
   -2.9745   -3.0681   -1.2225 H   0  0  0  0  0  0  0  0  0  0  0  0
   -1.2405   -2.5125   -0.0765 C   0  0  0  0  0  0  0  0  0  0  0  0
   -0.3548   -3.2193    0.3688 O   0  0  0  0  0  0  0  0  0  0  0  0
   -0.9622   -1.2274   -0.4994 N   0  0  0  0  0  0  0  0  0  0  0  0
   -1.7436   -0.6802   -0.8472 H   0  0  0  0  0  0  0  0  0  0  0  0
    0.3568   -0.5756   -0.3695 C   0  0  1  0  0  0  0  0  0  0  0  0
    1.1054   -1.2050   -0.8647 H   0  0  0  0  0  0  0  0  0  0  0  0
    0.2758    0.7697   -1.1484 C   0  0  0  0  0  0  0  0  0  0  0  0
    0.8158    0.6215   -2.0896 H   0  0  0  0  0  0  0  0  0  0  0  0
   -0.7636    0.9646   -1.4334 H   0  0  0  0  0  0  0  0  0  0  0  0
    0.8582    2.0464   -0.4769 C   0  0  0  0  0  0  0  0  0  0  0  0
    1.3443    1.8620    0.4811 H   0  0  0  0  0  0  0  0  0  0  0  0
    1.6350    2.4496   -1.1335 H   0  0  0  0  0  0  0  0  0  0  0  0
   -0.1967    3.1317   -0.2784 C   0  0  0  0  0  0  0  0  0  0  0  0
   -1.2478    2.8269    0.2650 O   0  0  0  0  0  0  0  0  0  0  0  0
    0.0834    4.3787   -0.7218 O   0  0  0  0  0  0  0  0  0  0  0  0
   -0.6859    4.9244   -0.4990 H   0  0  0  0  0  0  0  0  0  0  0  0
    0.8158   -0.4676    1.1052 C   0  0  0  0  0  0  0  0  0  0  0  0
    2.0022   -0.5742    1.3872 O   0  0  0  0  0  0  0  0  0  0  0  0
   -0.0704   -0.0460    2.0805 N   0  0  0  0  0  0  0  0  0  0  0  0
   -1.0224    0.1495    1.7873 H   0  0  0  0  0  0  0  0  0  0  0  0
    0.3183    0.2115    3.4609 C   0  0  0  0  0  0  0  0  0  0  0  0
    1.0613    1.0147    3.5060 H   0  0  0  0  0  0  0  0  0  0  0  0
   -0.5537    0.5115    4.0498 H   0  0  0  0  0  0  0  0  0  0  0  0
    0.7461   -0.6902    3.9119 H   0  0  0  0  0  0  0  0  0  0  0  0
  1  2  1  0  0  0  0
  2  3  1  0  0  0  0
  2  4  1  0  0  0  0
  2  5  1  0  0  0  0
  5  6  2  0  0  0  0
  5  7  1  0  0  0  0
  7  8  1  0  0  0  0
  7  9  1  0  0  0  0
  9 10  1  0  0  0  0
  9 11  1  0  0  0  0
  9 21  1  0  0  0  0
 11 12  1  0  0  0  0
 11 13  1  0  0  0  0
 11 14  1  0  0  0  0
 14 15  1  0  0  0  0
 14 16  1  0  0  0  0
 14 17  1  0  0  0  0
 17 18  2  0  0  0  0
 17 19  1  0  0  0  0
 19 20  1  0  0  0  0
 21 22  2  0  0  0  0
 21 23  1  0  0  0  0
 23 24  1  0  0  0  0
 23 25  1  0  0  0  0
 25 26  1  0  0  0  0
 25 27  1  0  0  0  0
 25 28  1  0  0  0  0
M  END
$$$$

  -OEChem-02102214123D

 28 27  0     1  0  0  0  0  0999 V2000
   -2.7162   -4.0538    0.2828 H   0  0  0  0  0  0  0  0  0  0  0  0
   -2.6676   -3.0424   -0.1309 C   0  0  0  0  0  0  0  0  0  0  0  0
   -3.3152   -2.3902    0.4598 H   0  0  0  0  0  0  0  0  0  0  0  0
   -3.0270   -3.0670   -1.1623 H   0  0  0  0  0  0  0  0  0  0  0  0
   -1.2399   -2.5312   -0.0919 C   0  0  0  0  0  0  0  0  0  0  0  0
   -0.3467   -3.2537    0.3119 O   0  0  0  0  0  0  0  0  0  0  0  0
   -0.9593   -1.2513   -0.5289 N   0  0  0  0  0  0  0  0  0  0  0  0
   -1.7533   -0.6783   -0.7976 H   0  0  0  0  0  0  0  0  0  0  0  0
    0.3609   -0.6051   -0.3938 C   0  0  1  0  0  0  0  0  0  0  0  0
    1.1118   -1.2382   -0.8808 H   0  0  0  0  0  0  0  0  0  0  0  0
    0.2800    0.7354   -1.1783 C   0  0  0  0  0  0  0  0  0  0  0  0
    0.8445    0.5812   -2.1041 H   0  0  0  0  0  0  0  0  0  0  0  0
   -0.7500    0.9386   -1.4908 H   0  0  0  0  0  0  0  0  0  0  0  0
    0.8639    1.9988   -0.4917 C   0  0  0  0  0  0  0  0  0  0  0  0
    1.5878    1.7721    0.2931 H   0  0  0  0  0  0  0  0  0  0  0  0
    1.4147    2.5609   -1.2515 H   0  0  0  0  0  0  0  0  0  0  0  0
   -0.2176    2.9341    0.0487 C   0  0  0  0  0  0  0  0  0  0  0  0
   -1.2292    2.4475    0.5341 O   0  0  0  0  0  0  0  0  0  0  0  0
    0.0040    4.2657   -0.0379 O   0  0  0  0  0  0  0  0  0  0  0  0
   -0.7671    4.6966    0.3611 H   0  0  0  0  0  0  0  0  0  0  0  0
    0.8089   -0.4823    1.0844 C   0  0  0  0  0  0  0  0  0  0  0  0
    1.9890   -0.6187    1.3800 O   0  0  0  0  0  0  0  0  0  0  0  0
   -0.0789   -0.0448    2.0514 N   0  0  0  0  0  0  0  0  0  0  0  0
   -0.9851    0.2772    1.7222 H   0  0  0  0  0  0  0  0  0  0  0  0
    0.3231    0.2648    3.4174 C   0  0  0  0  0  0  0  0  0  0  0  0
    1.0308    1.1002    3.4284 H   0  0  0  0  0  0  0  0  0  0  0  0
   -0.5506    0.5403    4.0155 H   0  0  0  0  0  0  0  0  0  0  0  0
    0.7978   -0.6055    3.8828 H   0  0  0  0  0  0  0  0  0  0  0  0
  1  2  1  0  0  0  0
  2  3  1  0  0  0  0
  2  4  1  0  0  0  0
  2  5  1  0  0  0  0
  5  6  2  0  0  0  0
  5  7  1  0  0  0  0
  7  8  1  0  0  0  0
  7  9  1  0  0  0  0
  9 10  1  0  0  0  0
  9 11  1  0  0  0  0
  9 21  1  0  0  0  0
 11 12  1  0  0  0  0
 11 13  1  0  0  0  0
 11 14  1  0  0  0  0
 14 15  1  0  0  0  0
 14 16  1  0  0  0  0
 14 17  1  0  0  0  0
 17 18  2  0  0  0  0
 17 19  1  0  0  0  0
 19 20  1  0  0  0  0
 21 22  2  0  0  0  0
 21 23  1  0  0  0  0
 23 24  1  0  0  0  0
 23 25  1  0  0  0  0
 25 26  1  0  0  0  0
 25 27  1  0  0  0  0
 25 28  1  0  0  0  0
M  END
$$$$

  -OEChem-02102214123D

 28 27  0     1  0  0  0  0  0999 V2000
   -2.6943   -4.0918    0.2975 H   0  0  0  0  0  0  0  0  0  0  0  0
   -2.6607   -3.0795   -0.1156 C   0  0  0  0  0  0  0  0  0  0  0  0
   -3.3161   -2.4370    0.4771 H   0  0  0  0  0  0  0  0  0  0  0  0
   -3.0222   -3.1086   -1.1463 H   0  0  0  0  0  0  0  0  0  0  0  0
   -1.2400   -2.5487   -0.0790 C   0  0  0  0  0  0  0  0  0  0  0  0
   -0.3376   -3.2566    0.3303 O   0  0  0  0  0  0  0  0  0  0  0  0
   -0.9757   -1.2675   -0.5215 N   0  0  0  0  0  0  0  0  0  0  0  0
   -1.7771   -0.7023   -0.7854 H   0  0  0  0  0  0  0  0  0  0  0  0
    0.3366   -0.6059   -0.3919 C   0  0  1  0  0  0  0  0  0  0  0  0
    1.0868   -1.2488   -0.8677 H   0  0  0  0  0  0  0  0  0  0  0  0
    0.2693    0.7120   -1.2136 C   0  0  0  0  0  0  0  0  0  0  0  0
    0.8500    0.5366   -2.1255 H   0  0  0  0  0  0  0  0  0  0  0  0
   -0.7556    0.9119   -1.5441 H   0  0  0  0  0  0  0  0  0  0  0  0
    0.8432    1.9842   -0.5418 C   0  0  0  0  0  0  0  0  0  0  0  0
    1.7197    1.7579    0.0709 H   0  0  0  0  0  0  0  0  0  0  0  0
    1.1876    2.6530   -1.3357 H   0  0  0  0  0  0  0  0  0  0  0  0
   -0.1769    2.7758    0.2816 C   0  0  0  0  0  0  0  0  0  0  0  0
   -1.2589    2.2750    0.5565 O   0  0  0  0  0  0  0  0  0  0  0  0
    0.1864    4.0200    0.6670 O   0  0  0  0  0  0  0  0  0  0  0  0
   -0.5559    4.3761    1.1778 H   0  0  0  0  0  0  0  0  0  0  0  0
    0.8036   -0.4631    1.0791 C   0  0  0  0  0  0  0  0  0  0  0  0
    1.9910   -0.5724    1.3561 O   0  0  0  0  0  0  0  0  0  0  0  0
   -0.0724   -0.0289    2.0576 N   0  0  0  0  0  0  0  0  0  0  0  0
   -0.9911    0.2713    1.7414 H   0  0  0  0  0  0  0  0  0  0  0  0
    0.3448    0.2913    3.4163 C   0  0  0  0  0  0  0  0  0  0  0  0
    1.0432    1.1344    3.4139 H   0  0  0  0  0  0  0  0  0  0  0  0
   -0.5235    0.5599    4.0252 H   0  0  0  0  0  0  0  0  0  0  0  0
    0.8355   -0.5718    3.8786 H   0  0  0  0  0  0  0  0  0  0  0  0
  1  2  1  0  0  0  0
  2  3  1  0  0  0  0
  2  4  1  0  0  0  0
  2  5  1  0  0  0  0
  5  6  2  0  0  0  0
  5  7  1  0  0  0  0
  7  8  1  0  0  0  0
  7  9  1  0  0  0  0
  9 10  1  0  0  0  0
  9 11  1  0  0  0  0
  9 21  1  0  0  0  0
 11 12  1  0  0  0  0
 11 13  1  0  0  0  0
 11 14  1  0  0  0  0
 14 15  1  0  0  0  0
 14 16  1  0  0  0  0
 14 17  1  0  0  0  0
 17 18  2  0  0  0  0
 17 19  1  0  0  0  0
 19 20  1  0  0  0  0
 21 22  2  0  0  0  0
 21 23  1  0  0  0  0
 23 24  1  0  0  0  0
 23 25  1  0  0  0  0
 25 26  1  0  0  0  0
 25 27  1  0  0  0  0
 25 28  1  0  0  0  0
M  END
$$$$

  -OEChem-02102214123D

 28 27  0     1  0  0  0  0  0999 V2000
   -2.6816   -4.1250    0.2771 H   0  0  0  0  0  0  0  0  0  0  0  0
   -2.6576   -3.1095   -0.1284 C   0  0  0  0  0  0  0  0  0  0  0  0
   -3.3312   -2.4814    0.4592 H   0  0  0  0  0  0  0  0  0  0  0  0
   -3.0038   -3.1362   -1.1643 H   0  0  0  0  0  0  0  0  0  0  0  0
   -1.2460   -2.5571   -0.0681 C   0  0  0  0  0  0  0  0  0  0  0  0
   -0.3395   -3.2513    0.3555 O   0  0  0  0  0  0  0  0  0  0  0  0
   -0.9958   -1.2691   -0.4989 N   0  0  0  0  0  0  0  0  0  0  0  0
   -1.8002   -0.7166   -0.7808 H   0  0  0  0  0  0  0  0  0  0  0  0
    0.3089   -0.5939   -0.3697 C   0  0  1  0  0  0  0  0  0  0  0  0
    1.0538   -1.2507   -0.8344 H   0  0  0  0  0  0  0  0  0  0  0  0
    0.2743    0.6986   -1.2329 C   0  0  0  0  0  0  0  0  0  0  0  0
    0.8639    0.4961   -2.1332 H   0  0  0  0  0  0  0  0  0  0  0  0
   -0.7473    0.8966   -1.5744 H   0  0  0  0  0  0  0  0  0  0  0  0
    0.8347    1.9907   -0.5935 C   0  0  0  0  0  0  0  0  0  0  0  0
    1.8123    1.7906   -0.1442 H   0  0  0  0  0  0  0  0  0  0  0  0
    0.9920    2.7293   -1.3840 H   0  0  0  0  0  0  0  0  0  0  0  0
   -0.0743    2.6380    0.4550 C   0  0  0  0  0  0  0  0  0  0  0  0
   -1.2244    2.2421    0.5892 O   0  0  0  0  0  0  0  0  0  0  0  0
    0.4529    3.6518    1.1777 O   0  0  0  0  0  0  0  0  0  0  0  0
   -0.2438    3.9488    1.7815 H   0  0  0  0  0  0  0  0  0  0  0  0
    0.8007   -0.4493    1.0929 C   0  0  0  0  0  0  0  0  0  0  0  0
    1.9974   -0.5204    1.3399 O   0  0  0  0  0  0  0  0  0  0  0  0
   -0.0577   -0.0309    2.0934 N   0  0  0  0  0  0  0  0  0  0  0  0
   -1.0011    0.2190    1.8084 H   0  0  0  0  0  0  0  0  0  0  0  0
    0.3833    0.2899    3.4446 C   0  0  0  0  0  0  0  0  0  0  0  0
    1.0758    1.1379    3.4310 H   0  0  0  0  0  0  0  0  0  0  0  0
   -0.4750    0.5515    4.0706 H   0  0  0  0  0  0  0  0  0  0  0  0
    0.8890   -0.5706    3.8955 H   0  0  0  0  0  0  0  0  0  0  0  0
  1  2  1  0  0  0  0
  2  3  1  0  0  0  0
  2  4  1  0  0  0  0
  2  5  1  0  0  0  0
  5  6  2  0  0  0  0
  5  7  1  0  0  0  0
  7  8  1  0  0  0  0
  7  9  1  0  0  0  0
  9 10  1  0  0  0  0
  9 11  1  0  0  0  0
  9 21  1  0  0  0  0
 11 12  1  0  0  0  0
 11 13  1  0  0  0  0
 11 14  1  0  0  0  0
 14 15  1  0  0  0  0
 14 16  1  0  0  0  0
 14 17  1  0  0  0  0
 17 18  2  0  0  0  0
 17 19  1  0  0  0  0
 19 20  1  0  0  0  0
 21 22  2  0  0  0  0
 21 23  1  0  0  0  0
 23 24  1  0  0  0  0
 23 25  1  0  0  0  0
 25 26  1  0  0  0  0
 25 27  1  0  0  0  0
 25 28  1  0  0  0  0
M  END
$$$$

  -OEChem-02102214123D

 28 27  0     1  0  0  0  0  0999 V2000
   -2.6718   -4.1572    0.2179 H   0  0  0  0  0  0  0  0  0  0  0  0
   -2.6574   -3.1312   -0.1606 C   0  0  0  0  0  0  0  0  0  0  0  0
   -3.3494   -2.5285    0.4323 H   0  0  0  0  0  0  0  0  0  0  0  0
   -2.9875   -3.1365   -1.2021 H   0  0  0  0  0  0  0  0  0  0  0  0
   -1.2554   -2.5602   -0.0644 C   0  0  0  0  0  0  0  0  0  0  0  0
   -0.3468   -3.2485    0.3643 O   0  0  0  0  0  0  0  0  0  0  0  0
   -1.0164   -1.2608   -0.4659 N   0  0  0  0  0  0  0  0  0  0  0  0
   -1.8220   -0.7153   -0.7574 H   0  0  0  0  0  0  0  0  0  0  0  0
    0.2824   -0.5761   -0.3281 C   0  0  1  0  0  0  0  0  0  0  0  0
    1.0197   -1.2489   -0.7825 H   0  0  0  0  0  0  0  0  0  0  0  0
    0.2927    0.6881   -1.2360 C   0  0  0  0  0  0  0  0  0  0  0  0
    0.8875    0.4487   -2.1239 H   0  0  0  0  0  0  0  0  0  0  0  0
   -0.7260    0.8807   -1.5886 H   0  0  0  0  0  0  0  0  0  0  0  0
    0.8337    2.0161   -0.6568 C   0  0  0  0  0  0  0  0  0  0  0  0
    1.8823    1.8722   -0.3777 H   0  0  0  0  0  0  0  0  0  0  0  0
    0.8059    2.7841   -1.4342 H   0  0  0  0  0  0  0  0  0  0  0  0
    0.0913    2.5564    0.5652 C   0  0  0  0  0  0  0  0  0  0  0  0
   -1.0917    2.2788    0.7077 O   0  0  0  0  0  0  0  0  0  0  0  0
    0.7775    3.3594    1.4098 O   0  0  0  0  0  0  0  0  0  0  0  0
    0.1578    3.6153    2.1084 H   0  0  0  0  0  0  0  0  0  0  0  0
    0.7990   -0.4497    1.1275 C   0  0  0  0  0  0  0  0  0  0  0  0
    2.0023   -0.5001    1.3449 O   0  0  0  0  0  0  0  0  0  0  0  0
   -0.0394   -0.0591    2.1559 N   0  0  0  0  0  0  0  0  0  0  0  0
   -1.0006    0.1566    1.9063 H   0  0  0  0  0  0  0  0  0  0  0  0
    0.4245    0.2139    3.5100 C   0  0  0  0  0  0  0  0  0  0  0  0
    1.1282    1.0531    3.5129 H   0  0  0  0  0  0  0  0  0  0  0  0
   -0.4214    0.4661    4.1566 H   0  0  0  0  0  0  0  0  0  0  0  0
    0.9254   -0.6667    3.9260 H   0  0  0  0  0  0  0  0  0  0  0  0
  1  2  1  0  0  0  0
  2  3  1  0  0  0  0
  2  4  1  0  0  0  0
  2  5  1  0  0  0  0
  5  6  2  0  0  0  0
  5  7  1  0  0  0  0
  7  8  1  0  0  0  0
  7  9  1  0  0  0  0
  9 10  1  0  0  0  0
  9 11  1  0  0  0  0
  9 21  1  0  0  0  0
 11 12  1  0  0  0  0
 11 13  1  0  0  0  0
 11 14  1  0  0  0  0
 14 15  1  0  0  0  0
 14 16  1  0  0  0  0
 14 17  1  0  0  0  0
 17 18  2  0  0  0  0
 17 19  1  0  0  0  0
 19 20  1  0  0  0  0
 21 22  2  0  0  0  0
 21 23  1  0  0  0  0
 23 24  1  0  0  0  0
 23 25  1  0  0  0  0
 25 26  1  0  0  0  0
 25 27  1  0  0  0  0
 25 28  1  0  0  0  0
M  END
$$$$

  -OEChem-02102214123D

 28 27  0     1  0  0  0  0  0999 V2000
   -2.6374   -4.1902    0.1532 H   0  0  0  0  0  0  0  0  0  0  0  0
   -2.6354   -3.1539   -0.1972 C   0  0  0  0  0  0  0  0  0  0  0  0
   -3.3352   -2.5761    0.4112 H   0  0  0  0  0  0  0  0  0  0  0  0
   -2.9646   -3.1344   -1.2389 H   0  0  0  0  0  0  0  0  0  0  0  0
   -1.2410   -2.5675   -0.0840 C   0  0  0  0  0  0  0  0  0  0  0  0
   -0.3235   -3.2555    0.3254 O   0  0  0  0  0  0  0  0  0  0  0  0
   -1.0201   -1.2541   -0.4492 N   0  0  0  0  0  0  0  0  0  0  0  0
   -1.8333   -0.7140   -0.7290 H   0  0  0  0  0  0  0  0  0  0  0  0
    0.2711   -0.5558   -0.3032 C   0  0  1  0  0  0  0  0  0  0  0  0
    1.0083   -1.2253   -0.7629 H   0  0  0  0  0  0  0  0  0  0  0  0
    0.2896    0.7003   -1.2271 C   0  0  0  0  0  0  0  0  0  0  0  0
    0.8725    0.4467   -2.1191 H   0  0  0  0  0  0  0  0  0  0  0  0
   -0.7358    0.8763   -1.5681 H   0  0  0  0  0  0  0  0  0  0  0  0
    0.8030    2.0665   -0.7099 C   0  0  0  0  0  0  0  0  0  0  0  0
    1.8948    2.0108   -0.6566 H   0  0  0  0  0  0  0  0  0  0  0  0
    0.5524    2.8455   -1.4350 H   0  0  0  0  0  0  0  0  0  0  0  0
    0.3128    2.5140    0.6626 C   0  0  0  0  0  0  0  0  0  0  0  0
   -0.8748    2.3753    0.9192 O   0  0  0  0  0  0  0  0  0  0  0  0
    1.2010    3.0899    1.5040 O   0  0  0  0  0  0  0  0  0  0  0  0
    0.7139    3.3005    2.3135 H   0  0  0  0  0  0  0  0  0  0  0  0
    0.8018   -0.4626    1.1498 C   0  0  0  0  0  0  0  0  0  0  0  0
    2.0074   -0.5137    1.3530 O   0  0  0  0  0  0  0  0  0  0  0  0
   -0.0272   -0.1131    2.2005 N   0  0  0  0  0  0  0  0  0  0  0  0
   -0.9937    0.1009    1.9725 H   0  0  0  0  0  0  0  0  0  0  0  0
    0.4468    0.0937    3.5627 C   0  0  0  0  0  0  0  0  0  0  0  0
    1.1807    0.9056    3.5946 H   0  0  0  0  0  0  0  0  0  0  0  0
   -0.3889    0.3538    4.2191 H   0  0  0  0  0  0  0  0  0  0  0  0
    0.9156   -0.8191    3.9454 H   0  0  0  0  0  0  0  0  0  0  0  0
  1  2  1  0  0  0  0
  2  3  1  0  0  0  0
  2  4  1  0  0  0  0
  2  5  1  0  0  0  0
  5  6  2  0  0  0  0
  5  7  1  0  0  0  0
  7  8  1  0  0  0  0
  7  9  1  0  0  0  0
  9 10  1  0  0  0  0
  9 11  1  0  0  0  0
  9 21  1  0  0  0  0
 11 12  1  0  0  0  0
 11 13  1  0  0  0  0
 11 14  1  0  0  0  0
 14 15  1  0  0  0  0
 14 16  1  0  0  0  0
 14 17  1  0  0  0  0
 17 18  2  0  0  0  0
 17 19  1  0  0  0  0
 19 20  1  0  0  0  0
 21 22  2  0  0  0  0
 21 23  1  0  0  0  0
 23 24  1  0  0  0  0
 23 25  1  0  0  0  0
 25 26  1  0  0  0  0
 25 27  1  0  0  0  0
 25 28  1  0  0  0  0
M  END
$$$$

  -OEChem-02102214123D

 28 27  0     1  0  0  0  0  0999 V2000
   -2.8110   -4.0817    0.0894 H   0  0  0  0  0  0  0  0  0  0  0  0
   -2.7437   -3.0471   -0.2591 C   0  0  0  0  0  0  0  0  0  0  0  0
   -3.4384   -2.4351    0.3209 H   0  0  0  0  0  0  0  0  0  0  0  0
   -3.0288   -3.0129   -1.3132 H   0  0  0  0  0  0  0  0  0  0  0  0
   -1.3276   -2.5308   -0.0873 C   0  0  0  0  0  0  0  0  0  0  0  0
   -0.4672   -3.2600    0.3715 O   0  0  0  0  0  0  0  0  0  0  0  0
   -1.0216   -1.2358   -0.4585 N   0  0  0  0  0  0  0  0  0  0  0  0
   -1.7882   -0.6646   -0.8007 H   0  0  0  0  0  0  0  0  0  0  0  0
    0.2977   -0.6029   -0.2615 C   0  0  1  0  0  0  0  0  0  0  0  0
    1.0235   -1.3142   -0.6744 H   0  0  0  0  0  0  0  0  0  0  0  0
    0.4161    0.6345   -1.2083 C   0  0  0  0  0  0  0  0  0  0  0  0
    1.0020    0.3241   -2.0804 H   0  0  0  0  0  0  0  0  0  0  0  0
   -0.5921    0.8456   -1.5790 H   0  0  0  0  0  0  0  0  0  0  0  0
    0.9660    2.0123   -0.7514 C   0  0  0  0  0  0  0  0  0  0  0  0
    2.0474    1.9973   -0.9180 H   0  0  0  0  0  0  0  0  0  0  0  0
    0.5563    2.7932   -1.3979 H   0  0  0  0  0  0  0  0  0  0  0  0
    0.7660    2.4404    0.6956 C   0  0  0  0  0  0  0  0  0  0  0  0
   -0.3833    2.5553    1.0943 O   0  0  0  0  0  0  0  0  0  0  0  0
    1.8559    2.7300    1.4417 O   0  0  0  0  0  0  0  0  0  0  0  0
    1.5323    2.9537    2.3260 H   0  0  0  0  0  0  0  0  0  0  0  0
    0.7480   -0.5248    1.2191 C   0  0  0  0  0  0  0  0  0  0  0  0
    1.9302   -0.6689    1.4993 O   0  0  0  0  0  0  0  0  0  0  0  0
   -0.1210   -0.1212    2.2169 N   0  0  0  0  0  0  0  0  0  0  0  0
   -1.0513    0.1669    1.9302 H   0  0  0  0  0  0  0  0  0  0  0  0
    0.2764    0.0465    3.6088 C   0  0  0  0  0  0  0  0  0  0  0  0
    1.0754    0.7902    3.6935 H   0  0  0  0  0  0  0  0  0  0  0  0
   -0.5753    0.3826    4.2077 H   0  0  0  0  0  0  0  0  0  0  0  0
    0.6348   -0.9036    4.0189 H   0  0  0  0  0  0  0  0  0  0  0  0
  1  2  1  0  0  0  0
  2  3  1  0  0  0  0
  2  4  1  0  0  0  0
  2  5  1  0  0  0  0
  5  6  2  0  0  0  0
  5  7  1  0  0  0  0
  7  8  1  0  0  0  0
  7  9  1  0  0  0  0
  9 10  1  0  0  0  0
  9 11  1  0  0  0  0
  9 21  1  0  0  0  0
 11 12  1  0  0  0  0
 11 13  1  0  0  0  0
 11 14  1  0  0  0  0
 14 15  1  0  0  0  0
 14 16  1  0  0  0  0
 14 17  1  0  0  0  0
 17 18  2  0  0  0  0
 17 19  1  0  0  0  0
 19 20  1  0  0  0  0
 21 22  2  0  0  0  0
 21 23  1  0  0  0  0
 23 24  1  0  0  0  0
 23 25  1  0  0  0  0
 25 26  1  0  0  0  0
 25 27  1  0  0  0  0
 25 28  1  0  0  0  0
M  END
$$$$

  -OEChem-02102214123D

 28 27  0     1  0  0  0  0  0999 V2000
   -3.0125   -3.8690    0.0816 H   0  0  0  0  0  0  0  0  0  0  0  0
   -2.8778   -2.8429   -0.2730 C   0  0  0  0  0  0  0  0  0  0  0  0
   -3.5443   -2.1862    0.2912 H   0  0  0  0  0  0  0  0  0  0  0  0
   -3.1429   -2.7999   -1.3322 H   0  0  0  0  0  0  0  0  0  0  0  0
   -1.4361   -2.4107   -0.0819 C   0  0  0  0  0  0  0  0  0  0  0  0
   -0.6255   -3.1923    0.3796 O   0  0  0  0  0  0  0  0  0  0  0  0
   -1.0533   -1.1311   -0.4359 N   0  0  0  0  0  0  0  0  0  0  0  0
   -1.7713   -0.5340   -0.8338 H   0  0  0  0  0  0  0  0  0  0  0  0
    0.3201   -0.5994   -0.3076 C   0  0  1  0  0  0  0  0  0  0  0  0
    0.9776   -1.3265   -0.7993 H   0  0  0  0  0  0  0  0  0  0  0  0
    0.4282    0.6894   -1.1878 C   0  0  0  0  0  0  0  0  0  0  0  0
    0.9160    0.3905   -2.1220 H   0  0  0  0  0  0  0  0  0  0  0  0
   -0.5941    0.9698   -1.4611 H   0  0  0  0  0  0  0  0  0  0  0  0
    1.0903    2.0268   -0.7427 C   0  0  0  0  0  0  0  0  0  0  0  0
    2.0474    2.0981   -1.2694 H   0  0  0  0  0  0  0  0  0  0  0  0
    0.4731    2.8532   -1.1063 H   0  0  0  0  0  0  0  0  0  0  0  0
    1.3916    2.3019    0.7255 C   0  0  0  0  0  0  0  0  0  0  0  0
    2.5496    2.3097    1.1017 O   0  0  0  0  0  0  0  0  0  0  0  0
    0.3468    2.6494    1.5129 O   0  0  0  0  0  0  0  0  0  0  0  0
    0.7369    2.8083    2.3864 H   0  0  0  0  0  0  0  0  0  0  0  0
    0.8398   -0.6114    1.1499 C   0  0  0  0  0  0  0  0  0  0  0  0
    2.0069   -0.8957    1.3765 O   0  0  0  0  0  0  0  0  0  0  0  0
    0.0415   -0.1814    2.1945 N   0  0  0  0  0  0  0  0  0  0  0  0
   -0.9321    0.0039    1.9792 H   0  0  0  0  0  0  0  0  0  0  0  0
    0.4669   -0.2261    3.5877 C   0  0  0  0  0  0  0  0  0  0  0  0
    1.3897    0.3476    3.7257 H   0  0  0  0  0  0  0  0  0  0  0  0
   -0.3051    0.2023    4.2337 H   0  0  0  0  0  0  0  0  0  0  0  0
    0.6467   -1.2607    3.8985 H   0  0  0  0  0  0  0  0  0  0  0  0
  1  2  1  0  0  0  0
  2  3  1  0  0  0  0
  2  4  1  0  0  0  0
  2  5  1  0  0  0  0
  5  6  2  0  0  0  0
  5  7  1  0  0  0  0
  7  8  1  0  0  0  0
  7  9  1  0  0  0  0
  9 10  1  0  0  0  0
  9 11  1  0  0  0  0
  9 21  1  0  0  0  0
 11 12  1  0  0  0  0
 11 13  1  0  0  0  0
 11 14  1  0  0  0  0
 14 15  1  0  0  0  0
 14 16  1  0  0  0  0
 14 17  1  0  0  0  0
 17 18  2  0  0  0  0
 17 19  1  0  0  0  0
 19 20  1  0  0  0  0
 21 22  2  0  0  0  0
 21 23  1  0  0  0  0
 23 24  1  0  0  0  0
 23 25  1  0  0  0  0
 25 26  1  0  0  0  0
 25 27  1  0  0  0  0
 25 28  1  0  0  0  0
M  END
$$$$

  -OEChem-02102214123D

 28 27  0     1  0  0  0  0  0999 V2000
   -3.0829   -3.8105    0.1528 H   0  0  0  0  0  0  0  0  0  0  0  0
   -2.9370   -2.7960   -0.2293 C   0  0  0  0  0  0  0  0  0  0  0  0
   -3.5718   -2.1128    0.3399 H   0  0  0  0  0  0  0  0  0  0  0  0
   -3.2331   -2.7702   -1.2806 H   0  0  0  0  0  0  0  0  0  0  0  0
   -1.4815   -2.3922   -0.0905 C   0  0  0  0  0  0  0  0  0  0  0  0
   -0.6676   -3.1950    0.3270 O   0  0  0  0  0  0  0  0  0  0  0  0
   -1.0866   -1.1198   -0.4580 N   0  0  0  0  0  0  0  0  0  0  0  0
   -1.8094   -0.5037   -0.8158 H   0  0  0  0  0  0  0  0  0  0  0  0
    0.2923   -0.6000   -0.3302 C   0  0  1  0  0  0  0  0  0  0  0  0
    0.9654   -1.3062   -0.8312 H   0  0  0  0  0  0  0  0  0  0  0  0
    0.3555    0.7286   -1.1597 C   0  0  0  0  0  0  0  0  0  0  0  0
    0.8435    0.4634   -2.1040 H   0  0  0  0  0  0  0  0  0  0  0  0
   -0.6703    1.0043   -1.4248 H   0  0  0  0  0  0  0  0  0  0  0  0
    1.0168    2.0588   -0.6853 C   0  0  0  0  0  0  0  0  0  0  0  0
    1.7847    2.3264   -1.4171 H   0  0  0  0  0  0  0  0  0  0  0  0
    0.2596    2.8477   -0.7300 H   0  0  0  0  0  0  0  0  0  0  0  0
    1.6767    2.1519    0.6830 C   0  0  0  0  0  0  0  0  0  0  0  0
    1.0181    2.5809    1.6166 O   0  0  0  0  0  0  0  0  0  0  0  0
    2.9790    1.8005    0.7717 O   0  0  0  0  0  0  0  0  0  0  0  0
    3.1961    1.7865    1.7160 H   0  0  0  0  0  0  0  0  0  0  0  0
    0.7555   -0.6223    1.1489 C   0  0  0  0  0  0  0  0  0  0  0  0
    1.9050   -0.9307    1.4341 O   0  0  0  0  0  0  0  0  0  0  0  0
   -0.0838   -0.1785    2.1552 N   0  0  0  0  0  0  0  0  0  0  0  0
   -1.0081    0.1371    1.8845 H   0  0  0  0  0  0  0  0  0  0  0  0
    0.3058   -0.1161    3.5580 C   0  0  0  0  0  0  0  0  0  0  0  0
    1.1582    0.5586    3.6897 H   0  0  0  0  0  0  0  0  0  0  0  0
   -0.5252    0.2551    4.1652 H   0  0  0  0  0  0  0  0  0  0  0  0
    0.5838   -1.1109    3.9219 H   0  0  0  0  0  0  0  0  0  0  0  0
  1  2  1  0  0  0  0
  2  3  1  0  0  0  0
  2  4  1  0  0  0  0
  2  5  1  0  0  0  0
  5  6  2  0  0  0  0
  5  7  1  0  0  0  0
  7  8  1  0  0  0  0
  7  9  1  0  0  0  0
  9 10  1  0  0  0  0
  9 11  1  0  0  0  0
  9 21  1  0  0  0  0
 11 12  1  0  0  0  0
 11 13  1  0  0  0  0
 11 14  1  0  0  0  0
 14 15  1  0  0  0  0
 14 16  1  0  0  0  0
 14 17  1  0  0  0  0
 17 18  2  0  0  0  0
 17 19  1  0  0  0  0
 19 20  1  0  0  0  0
 21 22  2  0  0  0  0
 21 23  1  0  0  0  0
 23 24  1  0  0  0  0
 23 25  1  0  0  0  0
 25 26  1  0  0  0  0
 25 27  1  0  0  0  0
 25 28  1  0  0  0  0
M  END
$$$$

  -OEChem-02102214123D

 28 27  0     1  0  0  0  0  0999 V2000
   -2.5994   -4.1617    0.3428 H   0  0  0  0  0  0  0  0  0  0  0  0
   -2.5700   -3.1522   -0.0776 C   0  0  0  0  0  0  0  0  0  0  0  0
   -3.2964   -2.5308    0.4512 H   0  0  0  0  0  0  0  0  0  0  0  0
   -2.8431   -3.2046   -1.1343 H   0  0  0  0  0  0  0  0  0  0  0  0
   -1.1783   -2.5666    0.0711 C   0  0  0  0  0  0  0  0  0  0  0  0
   -0.3005   -3.2218    0.6010 O   0  0  0  0  0  0  0  0  0  0  0  0
   -0.9141   -1.2984   -0.4117 N   0  0  0  0  0  0  0  0  0  0  0  0
   -1.6775   -0.8224   -0.8813 H   0  0  0  0  0  0  0  0  0  0  0  0
    0.3943   -0.6148   -0.3070 C   0  0  1  0  0  0  0  0  0  0  0  0
    1.1660   -1.2599   -0.7437 H   0  0  0  0  0  0  0  0  0  0  0  0
    0.2857    0.6638   -1.2083 C   0  0  0  0  0  0  0  0  0  0  0  0
    0.8369    0.4118   -2.1210 H   0  0  0  0  0  0  0  0  0  0  0  0
   -0.7572    0.7926   -1.5155 H   0  0  0  0  0  0  0  0  0  0  0  0
    0.7766    2.0836   -0.7934 C   0  0  0  0  0  0  0  0  0  0  0  0
    1.2689    2.5432   -1.6550 H   0  0  0  0  0  0  0  0  0  0  0  0
   -0.1085    2.6898   -0.5766 H   0  0  0  0  0  0  0  0  0  0  0  0
    1.7137    2.2337    0.3975 C   0  0  0  0  0  0  0  0  0  0  0  0
    1.2866    2.7400    1.4223 O   0  0  0  0  0  0  0  0  0  0  0  0
    2.9901    1.8215    0.2292 O   0  0  0  0  0  0  0  0  0  0  0  0
    3.3907    1.8207    1.1128 H   0  0  0  0  0  0  0  0  0  0  0  0
    0.7980   -0.4483    1.1812 C   0  0  0  0  0  0  0  0  0  0  0  0
    1.9568   -0.6231    1.5368 O   0  0  0  0  0  0  0  0  0  0  0  0
   -0.1296   -0.0099    2.1092 N   0  0  0  0  0  0  0  0  0  0  0  0
   -1.0812    0.1216    1.7872 H   0  0  0  0  0  0  0  0  0  0  0  0
    0.1801    0.1956    3.5182 C   0  0  0  0  0  0  0  0  0  0  0  0
    0.9929    0.9206    3.6312 H   0  0  0  0  0  0  0  0  0  0  0  0
   -0.6978    0.5787    4.0469 H   0  0  0  0  0  0  0  0  0  0  0  0
    0.4816   -0.7486    3.9838 H   0  0  0  0  0  0  0  0  0  0  0  0
  1  2  1  0  0  0  0
  2  3  1  0  0  0  0
  2  4  1  0  0  0  0
  2  5  1  0  0  0  0
  5  6  2  0  0  0  0
  5  7  1  0  0  0  0
  7  8  1  0  0  0  0
  7  9  1  0  0  0  0
  9 10  1  0  0  0  0
  9 11  1  0  0  0  0
  9 21  1  0  0  0  0
 11 12  1  0  0  0  0
 11 13  1  0  0  0  0
 11 14  1  0  0  0  0
 14 15  1  0  0  0  0
 14 16  1  0  0  0  0
 14 17  1  0  0  0  0
 17 18  2  0  0  0  0
 17 19  1  0  0  0  0
 19 20  1  0  0  0  0
 21 22  2  0  0  0  0
 21 23  1  0  0  0  0
 23 24  1  0  0  0  0
 23 25  1  0  0  0  0
 25 26  1  0  0  0  0
 25 27  1  0  0  0  0
 25 28  1  0  0  0  0
M  END
$$$$

  -OEChem-02102214123D

 28 27  0     1  0  0  0  0  0999 V2000
   -2.7800   -4.0033    0.4584 H   0  0  0  0  0  0  0  0  0  0  0  0
   -2.6999   -3.0148   -0.0033 C   0  0  0  0  0  0  0  0  0  0  0  0
   -3.4059   -2.3401    0.4867 H   0  0  0  0  0  0  0  0  0  0  0  0
   -2.9592   -3.0999   -1.0613 H   0  0  0  0  0  0  0  0  0  0  0  0
   -1.2865   -2.4836    0.1445 C   0  0  0  0  0  0  0  0  0  0  0  0
   -0.4541   -3.1415    0.7397 O   0  0  0  0  0  0  0  0  0  0  0  0
   -0.9594   -1.2574   -0.4040 N   0  0  0  0  0  0  0  0  0  0  0  0
   -1.6782   -0.8112   -0.9645 H   0  0  0  0  0  0  0  0  0  0  0  0
    0.3929   -0.6548   -0.3850 C   0  0  1  0  0  0  0  0  0  0  0  0
    1.1113   -1.3437   -0.8451 H   0  0  0  0  0  0  0  0  0  0  0  0
    0.2924    0.6265   -1.2788 C   0  0  0  0  0  0  0  0  0  0  0  0
    0.7715    0.3535   -2.2255 H   0  0  0  0  0  0  0  0  0  0  0  0
   -0.7578    0.8262   -1.5145 H   0  0  0  0  0  0  0  0  0  0  0  0
    0.9032    1.9947   -0.8667 C   0  0  0  0  0  0  0  0  0  0  0  0
    1.1175    2.5758   -1.7684 H   0  0  0  0  0  0  0  0  0  0  0  0
    0.1403    2.5437   -0.3074 H   0  0  0  0  0  0  0  0  0  0  0  0
    2.1550    1.9878    0.0033 C   0  0  0  0  0  0  0  0  0  0  0  0
    3.1857    1.5801   -0.5030 O   0  0  0  0  0  0  0  0  0  0  0  0
    2.0723    2.4644    1.2663 O   0  0  0  0  0  0  0  0  0  0  0  0
    2.9340    2.2645    1.6659 H   0  0  0  0  0  0  0  0  0  0  0  0
    0.8594   -0.4575    1.0813 C   0  0  0  0  0  0  0  0  0  0  0  0
    2.0130   -0.6972    1.4124 O   0  0  0  0  0  0  0  0  0  0  0  0
   -0.0096    0.0752    2.0172 N   0  0  0  0  0  0  0  0  0  0  0  0
   -0.9805    0.1531    1.7371 H   0  0  0  0  0  0  0  0  0  0  0  0
    0.3297    0.2025    3.4286 C   0  0  0  0  0  0  0  0  0  0  0  0
    1.1849    0.8737    3.5579 H   0  0  0  0  0  0  0  0  0  0  0  0
   -0.5176    0.6122    3.9862 H   0  0  0  0  0  0  0  0  0  0  0  0
    0.5827   -0.7759    3.8507 H   0  0  0  0  0  0  0  0  0  0  0  0
  1  2  1  0  0  0  0
  2  3  1  0  0  0  0
  2  4  1  0  0  0  0
  2  5  1  0  0  0  0
  5  6  2  0  0  0  0
  5  7  1  0  0  0  0
  7  8  1  0  0  0  0
  7  9  1  0  0  0  0
  9 10  1  0  0  0  0
  9 11  1  0  0  0  0
  9 21  1  0  0  0  0
 11 12  1  0  0  0  0
 11 13  1  0  0  0  0
 11 14  1  0  0  0  0
 14 15  1  0  0  0  0
 14 16  1  0  0  0  0
 14 17  1  0  0  0  0
 17 18  2  0  0  0  0
 17 19  1  0  0  0  0
 19 20  1  0  0  0  0
 21 22  2  0  0  0  0
 21 23  1  0  0  0  0
 23 24  1  0  0  0  0
 23 25  1  0  0  0  0
 25 26  1  0  0  0  0
 25 27  1  0  0  0  0
 25 28  1  0  0  0  0
M  END
$$$$

  -OEChem-02102214123D

 28 27  0     1  0  0  0  0  0999 V2000
   -2.7499   -4.0325    0.4100 H   0  0  0  0  0  0  0  0  0  0  0  0
   -2.6774   -3.0519   -0.0691 C   0  0  0  0  0  0  0  0  0  0  0  0
   -3.4286   -2.3907    0.3694 H   0  0  0  0  0  0  0  0  0  0  0  0
   -2.8801   -3.1676   -1.1365 H   0  0  0  0  0  0  0  0  0  0  0  0
   -1.2905   -2.4727    0.1369 C   0  0  0  0  0  0  0  0  0  0  0  0
   -0.4695   -3.0915    0.7873 O   0  0  0  0  0  0  0  0  0  0  0  0
   -0.9726   -1.2502   -0.4248 N   0  0  0  0  0  0  0  0  0  0  0  0
   -1.6712   -0.8477   -1.0415 H   0  0  0  0  0  0  0  0  0  0  0  0
    0.3733   -0.6350   -0.3960 C   0  0  1  0  0  0  0  0  0  0  0  0
    1.1015   -1.3175   -0.8499 H   0  0  0  0  0  0  0  0  0  0  0  0
    0.2707    0.6472   -1.2841 C   0  0  0  0  0  0  0  0  0  0  0  0
    0.7458    0.3982   -2.2394 H   0  0  0  0  0  0  0  0  0  0  0  0
   -0.7804    0.8583   -1.5049 H   0  0  0  0  0  0  0  0  0  0  0  0
    0.8871    1.9864   -0.8056 C   0  0  0  0  0  0  0  0  0  0  0  0
    0.9034    2.6951   -1.6381 H   0  0  0  0  0  0  0  0  0  0  0  0
    0.2383    2.4081   -0.0328 H   0  0  0  0  0  0  0  0  0  0  0  0
    2.2953    1.9008   -0.2242 C   0  0  0  0  0  0  0  0  0  0  0  0
    3.1604    1.3765   -0.9050 O   0  0  0  0  0  0  0  0  0  0  0  0
    2.5139    2.4232    1.0042 O   0  0  0  0  0  0  0  0  0  0  0  0
    3.4132    2.1468    1.2416 H   0  0  0  0  0  0  0  0  0  0  0  0
    0.8437   -0.4033    1.0645 C   0  0  0  0  0  0  0  0  0  0  0  0
    2.0038   -0.6185    1.3911 O   0  0  0  0  0  0  0  0  0  0  0  0
   -0.0249    0.1408    1.9935 N   0  0  0  0  0  0  0  0  0  0  0  0
   -1.0021    0.1829    1.7268 H   0  0  0  0  0  0  0  0  0  0  0  0
    0.3373    0.3441    3.3901 C   0  0  0  0  0  0  0  0  0  0  0  0
    1.1969    1.0186    3.4681 H   0  0  0  0  0  0  0  0  0  0  0  0
   -0.4994    0.7878    3.9379 H   0  0  0  0  0  0  0  0  0  0  0  0
    0.5948   -0.6108    3.8610 H   0  0  0  0  0  0  0  0  0  0  0  0
  1  2  1  0  0  0  0
  2  3  1  0  0  0  0
  2  4  1  0  0  0  0
  2  5  1  0  0  0  0
  5  6  2  0  0  0  0
  5  7  1  0  0  0  0
  7  8  1  0  0  0  0
  7  9  1  0  0  0  0
  9 10  1  0  0  0  0
  9 11  1  0  0  0  0
  9 21  1  0  0  0  0
 11 12  1  0  0  0  0
 11 13  1  0  0  0  0
 11 14  1  0  0  0  0
 14 15  1  0  0  0  0
 14 16  1  0  0  0  0
 14 17  1  0  0  0  0
 17 18  2  0  0  0  0
 17 19  1  0  0  0  0
 19 20  1  0  0  0  0
 21 22  2  0  0  0  0
 21 23  1  0  0  0  0
 23 24  1  0  0  0  0
 23 25  1  0  0  0  0
 25 26  1  0  0  0  0
 25 27  1  0  0  0  0
 25 28  1  0  0  0  0
M  END
$$$$

  -OEChem-02102214123D

 28 27  0     1  0  0  0  0  0999 V2000
   -2.6861   -4.0850    0.3835 H   0  0  0  0  0  0  0  0  0  0  0  0
   -2.6402   -3.1042   -0.0989 C   0  0  0  0  0  0  0  0  0  0  0  0
   -3.4188   -2.4667    0.3267 H   0  0  0  0  0  0  0  0  0  0  0  0
   -2.8247   -3.2313   -1.1684 H   0  0  0  0  0  0  0  0  0  0  0  0
   -1.2759   -2.4784    0.1226 C   0  0  0  0  0  0  0  0  0  0  0  0
   -0.4453   -3.0629    0.7926 O   0  0  0  0  0  0  0  0  0  0  0  0
   -0.9912   -1.2472   -0.4373 N   0  0  0  0  0  0  0  0  0  0  0  0
   -1.6915   -0.8718   -1.0691 H   0  0  0  0  0  0  0  0  0  0  0  0
    0.3391   -0.6012   -0.4068 C   0  0  1  0  0  0  0  0  0  0  0  0
    1.0757   -1.2746   -0.8609 H   0  0  0  0  0  0  0  0  0  0  0  0
    0.2363    0.6752   -1.2970 C   0  0  0  0  0  0  0  0  0  0  0  0
    0.7025    0.4451   -2.2615 H   0  0  0  0  0  0  0  0  0  0  0  0
   -0.8173    0.8895   -1.5020 H   0  0  0  0  0  0  0  0  0  0  0  0
    0.8493    1.9910   -0.7604 C   0  0  0  0  0  0  0  0  0  0  0  0
    0.6804    2.7881   -1.4893 H   0  0  0  0  0  0  0  0  0  0  0  0
    0.3395    2.2828    0.1618 H   0  0  0  0  0  0  0  0  0  0  0  0
    2.3513    1.9208   -0.4860 C   0  0  0  0  0  0  0  0  0  0  0  0
    3.0644    1.3452   -1.2913 O   0  0  0  0  0  0  0  0  0  0  0  0
    2.8140    2.5247    0.6321 O   0  0  0  0  0  0  0  0  0  0  0  0
    3.7484    2.2730    0.6927 H   0  0  0  0  0  0  0  0  0  0  0  0
    0.8301   -0.3503    1.0433 C   0  0  0  0  0  0  0  0  0  0  0  0
    2.0107   -0.4924    1.3334 O   0  0  0  0  0  0  0  0  0  0  0  0
   -0.0337    0.1779    1.9860 N   0  0  0  0  0  0  0  0  0  0  0  0
   -1.0200    0.1553    1.7515 H   0  0  0  0  0  0  0  0  0  0  0  0
    0.3579    0.4132    3.3698 C   0  0  0  0  0  0  0  0  0  0  0  0
    1.2021    1.1097    3.4157 H   0  0  0  0  0  0  0  0  0  0  0  0
   -0.4752    0.8458    3.9319 H   0  0  0  0  0  0  0  0  0  0  0  0
    0.6507   -0.5270    3.8489 H   0  0  0  0  0  0  0  0  0  0  0  0
  1  2  1  0  0  0  0
  2  3  1  0  0  0  0
  2  4  1  0  0  0  0
  2  5  1  0  0  0  0
  5  6  2  0  0  0  0
  5  7  1  0  0  0  0
  7  8  1  0  0  0  0
  7  9  1  0  0  0  0
  9 10  1  0  0  0  0
  9 11  1  0  0  0  0
  9 21  1  0  0  0  0
 11 12  1  0  0  0  0
 11 13  1  0  0  0  0
 11 14  1  0  0  0  0
 14 15  1  0  0  0  0
 14 16  1  0  0  0  0
 14 17  1  0  0  0  0
 17 18  2  0  0  0  0
 17 19  1  0  0  0  0
 19 20  1  0  0  0  0
 21 22  2  0  0  0  0
 21 23  1  0  0  0  0
 23 24  1  0  0  0  0
 23 25  1  0  0  0  0
 25 26  1  0  0  0  0
 25 27  1  0  0  0  0
 25 28  1  0  0  0  0
M  END
$$$$

  -OEChem-02102214123D

 28 27  0     1  0  0  0  0  0999 V2000
   -2.6473   -4.1327    0.3373 H   0  0  0  0  0  0  0  0  0  0  0  0
   -2.6234   -3.1459   -0.1337 C   0  0  0  0  0  0  0  0  0  0  0  0
   -3.4214   -2.5333    0.2926 H   0  0  0  0  0  0  0  0  0  0  0  0
   -2.7962   -3.2661   -1.2057 H   0  0  0  0  0  0  0  0  0  0  0  0
   -1.2780   -2.4870    0.1051 C   0  0  0  0  0  0  0  0  0  0  0  0
   -0.4380   -3.0545    0.7783 O   0  0  0  0  0  0  0  0  0  0  0  0
   -1.0207   -1.2432   -0.4394 N   0  0  0  0  0  0  0  0  0  0  0  0
   -1.7243   -0.8791   -1.0742 H   0  0  0  0  0  0  0  0  0  0  0  0
    0.2980   -0.5757   -0.4040 C   0  0  1  0  0  0  0  0  0  0  0  0
    1.0355   -1.2490   -0.8570 H   0  0  0  0  0  0  0  0  0  0  0  0
    0.2188    0.6927   -1.3031 C   0  0  0  0  0  0  0  0  0  0  0  0
    0.6730    0.4634   -2.2735 H   0  0  0  0  0  0  0  0  0  0  0  0
   -0.8348    0.9138   -1.5000 H   0  0  0  0  0  0  0  0  0  0  0  0
    0.8295    1.9975   -0.7352 C   0  0  0  0  0  0  0  0  0  0  0  0
    0.4887    2.8362   -1.3479 H   0  0  0  0  0  0  0  0  0  0  0  0
    0.4744    2.1869    0.2805 H   0  0  0  0  0  0  0  0  0  0  0  0
    2.3592    2.0266   -0.7549 C   0  0  0  0  0  0  0  0  0  0  0  0
    2.9575    1.4484   -1.6479 O   0  0  0  0  0  0  0  0  0  0  0  0
    2.9731    2.7316    0.2221 O   0  0  0  0  0  0  0  0  0  0  0  0
    3.9210    2.5679    0.1041 H   0  0  0  0  0  0  0  0  0  0  0  0
    0.8113   -0.3267    1.0376 C   0  0  0  0  0  0  0  0  0  0  0  0
    2.0097   -0.3793    1.2803 O   0  0  0  0  0  0  0  0  0  0  0  0
   -0.0444    0.1791    2.0002 N   0  0  0  0  0  0  0  0  0  0  0  0
   -1.0357    0.1075    1.7980 H   0  0  0  0  0  0  0  0  0  0  0  0
    0.3776    0.4446    3.3697 C   0  0  0  0  0  0  0  0  0  0  0  0
    1.1958    1.1726    3.3842 H   0  0  0  0  0  0  0  0  0  0  0  0
   -0.4551    0.8521    3.9507 H   0  0  0  0  0  0  0  0  0  0  0  0
    0.7185   -0.4788    3.8499 H   0  0  0  0  0  0  0  0  0  0  0  0
  1  2  1  0  0  0  0
  2  3  1  0  0  0  0
  2  4  1  0  0  0  0
  2  5  1  0  0  0  0
  5  6  2  0  0  0  0
  5  7  1  0  0  0  0
  7  8  1  0  0  0  0
  7  9  1  0  0  0  0
  9 10  1  0  0  0  0
  9 11  1  0  0  0  0
  9 21  1  0  0  0  0
 11 12  1  0  0  0  0
 11 13  1  0  0  0  0
 11 14  1  0  0  0  0
 14 15  1  0  0  0  0
 14 16  1  0  0  0  0
 14 17  1  0  0  0  0
 17 18  2  0  0  0  0
 17 19  1  0  0  0  0
 19 20  1  0  0  0  0
 21 22  2  0  0  0  0
 21 23  1  0  0  0  0
 23 24  1  0  0  0  0
 23 25  1  0  0  0  0
 25 26  1  0  0  0  0
 25 27  1  0  0  0  0
 25 28  1  0  0  0  0
M  END
$$$$

  -OEChem-02102214123D

 28 27  0     1  0  0  0  0  0999 V2000
   -2.6546   -4.1492    0.3049 H   0  0  0  0  0  0  0  0  0  0  0  0
   -2.6280   -3.1650   -0.1715 C   0  0  0  0  0  0  0  0  0  0  0  0
   -3.4414   -2.5575    0.2315 H   0  0  0  0  0  0  0  0  0  0  0  0
   -2.7742   -3.2922   -1.2468 H   0  0  0  0  0  0  0  0  0  0  0  0
   -1.2946   -2.4923    0.0953 C   0  0  0  0  0  0  0  0  0  0  0  0
   -0.4576   -3.0566    0.7751 O   0  0  0  0  0  0  0  0  0  0  0  0
   -1.0425   -1.2401   -0.4318 N   0  0  0  0  0  0  0  0  0  0  0  0
   -1.7414   -0.8765   -1.0722 H   0  0  0  0  0  0  0  0  0  0  0  0
    0.2744   -0.5697   -0.3870 C   0  0  1  0  0  0  0  0  0  0  0  0
    1.0086   -1.2467   -0.8395 H   0  0  0  0  0  0  0  0  0  0  0  0
    0.2166    0.6958   -1.2910 C   0  0  0  0  0  0  0  0  0  0  0  0
    0.6558    0.4561   -2.2651 H   0  0  0  0  0  0  0  0  0  0  0  0
   -0.8369    0.9211   -1.4836 H   0  0  0  0  0  0  0  0  0  0  0  0
    0.8247    2.0076   -0.7235 C   0  0  0  0  0  0  0  0  0  0  0  0
    0.3039    2.8473   -1.1911 H   0  0  0  0  0  0  0  0  0  0  0  0
    0.6591    2.1096    0.3503 H   0  0  0  0  0  0  0  0  0  0  0  0
    2.3107    2.2090   -1.0326 C   0  0  0  0  0  0  0  0  0  0  0  0
    2.8215    1.6350   -1.9809 O   0  0  0  0  0  0  0  0  0  0  0  0
    2.9839    3.0657   -0.2314 O   0  0  0  0  0  0  0  0  0  0  0  0
    3.9052    3.0341   -0.5301 H   0  0  0  0  0  0  0  0  0  0  0  0
    0.7980   -0.3346    1.0517 C   0  0  0  0  0  0  0  0  0  0  0  0
    2.0026   -0.3402    1.2682 O   0  0  0  0  0  0  0  0  0  0  0  0
   -0.0520    0.1579    2.0263 N   0  0  0  0  0  0  0  0  0  0  0  0
   -1.0445    0.0520    1.8454 H   0  0  0  0  0  0  0  0  0  0  0  0
    0.3891    0.4375    3.3871 C   0  0  0  0  0  0  0  0  0  0  0  0
    1.1928    1.1818    3.3845 H   0  0  0  0  0  0  0  0  0  0  0  0
   -0.4411    0.8304    3.9819 H   0  0  0  0  0  0  0  0  0  0  0  0
    0.7582   -0.4765    3.8643 H   0  0  0  0  0  0  0  0  0  0  0  0
  1  2  1  0  0  0  0
  2  3  1  0  0  0  0
  2  4  1  0  0  0  0
  2  5  1  0  0  0  0
  5  6  2  0  0  0  0
  5  7  1  0  0  0  0
  7  8  1  0  0  0  0
  7  9  1  0  0  0  0
  9 10  1  0  0  0  0
  9 11  1  0  0  0  0
  9 21  1  0  0  0  0
 11 12  1  0  0  0  0
 11 13  1  0  0  0  0
 11 14  1  0  0  0  0
 14 15  1  0  0  0  0
 14 16  1  0  0  0  0
 14 17  1  0  0  0  0
 17 18  2  0  0  0  0
 17 19  1  0  0  0  0
 19 20  1  0  0  0  0
 21 22  2  0  0  0  0
 21 23  1  0  0  0  0
 23 24  1  0  0  0  0
 23 25  1  0  0  0  0
 25 26  1  0  0  0  0
 25 27  1  0  0  0  0
 25 28  1  0  0  0  0
M  END
$$$$

  -OEChem-02102214123D

 28 27  0     1  0  0  0  0  0999 V2000
   -2.6718   -4.1385    0.2782 H   0  0  0  0  0  0  0  0  0  0  0  0
   -2.6391   -3.1471   -0.1830 C   0  0  0  0  0  0  0  0  0  0  0  0
   -3.4464   -2.5396    0.2328 H   0  0  0  0  0  0  0  0  0  0  0  0
   -2.7905   -3.2569   -1.2595 H   0  0  0  0  0  0  0  0  0  0  0  0
   -1.2989   -2.4900    0.0888 C   0  0  0  0  0  0  0  0  0  0  0  0
   -0.4663   -3.0697    0.7608 O   0  0  0  0  0  0  0  0  0  0  0  0
   -1.0348   -1.2355   -0.4269 N   0  0  0  0  0  0  0  0  0  0  0  0
   -1.7319   -0.8577   -1.0610 H   0  0  0  0  0  0  0  0  0  0  0  0
    0.2864   -0.5735   -0.3703 C   0  0  1  0  0  0  0  0  0  0  0  0
    1.0209   -1.2505   -0.8226 H   0  0  0  0  0  0  0  0  0  0  0  0
    0.2342    0.6970   -1.2702 C   0  0  0  0  0  0  0  0  0  0  0  0
    0.6642    0.4467   -2.2452 H   0  0  0  0  0  0  0  0  0  0  0  0
   -0.8192    0.9220   -1.4645 H   0  0  0  0  0  0  0  0  0  0  0  0
    0.8399    2.0212   -0.7144 C   0  0  0  0  0  0  0  0  0  0  0  0
    0.1502    2.8308   -0.9675 H   0  0  0  0  0  0  0  0  0  0  0  0
    0.9213    2.0274    0.3725 H   0  0  0  0  0  0  0  0  0  0  0  0
    2.1960    2.4257   -1.3021 C   0  0  0  0  0  0  0  0  0  0  0  0
    2.6905    1.7947   -2.2219 O   0  0  0  0  0  0  0  0  0  0  0  0
    2.7756    3.5211   -0.7605 O   0  0  0  0  0  0  0  0  0  0  0  0
    3.6255    3.6198   -1.2158 H   0  0  0  0  0  0  0  0  0  0  0  0
    0.7969   -0.3562    1.0759 C   0  0  0  0  0  0  0  0  0  0  0  0
    1.9986   -0.3767    1.3071 O   0  0  0  0  0  0  0  0  0  0  0  0
   -0.0599    0.1324    2.0465 N   0  0  0  0  0  0  0  0  0  0  0  0
   -1.0508    0.0417    1.8500 H   0  0  0  0  0  0  0  0  0  0  0  0
    0.3644    0.3789    3.4192 C   0  0  0  0  0  0  0  0  0  0  0  0
    1.1751    1.1149    3.4442 H   0  0  0  0  0  0  0  0  0  0  0  0
   -0.4705    0.7676    4.0098 H   0  0  0  0  0  0  0  0  0  0  0  0
    0.7168   -0.5488    3.8825 H   0  0  0  0  0  0  0  0  0  0  0  0
  1  2  1  0  0  0  0
  2  3  1  0  0  0  0
  2  4  1  0  0  0  0
  2  5  1  0  0  0  0
  5  6  2  0  0  0  0
  5  7  1  0  0  0  0
  7  8  1  0  0  0  0
  7  9  1  0  0  0  0
  9 10  1  0  0  0  0
  9 11  1  0  0  0  0
  9 21  1  0  0  0  0
 11 12  1  0  0  0  0
 11 13  1  0  0  0  0
 11 14  1  0  0  0  0
 14 15  1  0  0  0  0
 14 16  1  0  0  0  0
 14 17  1  0  0  0  0
 17 18  2  0  0  0  0
 17 19  1  0  0  0  0
 19 20  1  0  0  0  0
 21 22  2  0  0  0  0
 21 23  1  0  0  0  0
 23 24  1  0  0  0  0
 23 25  1  0  0  0  0
 25 26  1  0  0  0  0
 25 27  1  0  0  0  0
 25 28  1  0  0  0  0
M  END
$$$$

  -OEChem-02102214123D

 28 27  0     1  0  0  0  0  0999 V2000
   -2.5995   -4.1304    0.3315 H   0  0  0  0  0  0  0  0  0  0  0  0
   -2.5567   -3.1700   -0.1904 C   0  0  0  0  0  0  0  0  0  0  0  0
   -3.3803   -2.5437    0.1605 H   0  0  0  0  0  0  0  0  0  0  0  0
   -2.6720   -3.3472   -1.2625 H   0  0  0  0  0  0  0  0  0  0  0  0
   -1.2294   -2.4874    0.0821 C   0  0  0  0  0  0  0  0  0  0  0  0
   -0.3846   -3.0523    0.7516 O   0  0  0  0  0  0  0  0  0  0  0  0
   -0.9921   -1.2256   -0.4289 N   0  0  0  0  0  0  0  0  0  0  0  0
   -1.6964   -0.8605   -1.0627 H   0  0  0  0  0  0  0  0  0  0  0  0
    0.3090   -0.5270   -0.3565 C   0  0  1  0  0  0  0  0  0  0  0  0
    1.0696   -1.1752   -0.8077 H   0  0  0  0  0  0  0  0  0  0  0  0
    0.2034    0.7491   -1.2446 C   0  0  0  0  0  0  0  0  0  0  0  0
    0.6960    0.5106   -2.1935 H   0  0  0  0  0  0  0  0  0  0  0  0
   -0.8486    0.9264   -1.4892 H   0  0  0  0  0  0  0  0  0  0  0  0
    0.7516    2.1003   -0.6955 C   0  0  0  0  0  0  0  0  0  0  0  0
   -0.0657    2.8253   -0.6515 H   0  0  0  0  0  0  0  0  0  0  0  0
    1.1447    2.0163    0.3179 H   0  0  0  0  0  0  0  0  0  0  0  0
    1.8607    2.6971   -1.5619 C   0  0  0  0  0  0  0  0  0  0  0  0
    1.6980    2.7519   -2.7703 O   0  0  0  0  0  0  0  0  0  0  0  0
    2.9639    3.1661   -0.9362 O   0  0  0  0  0  0  0  0  0  0  0  0
    3.5525    3.4893   -1.6344 H   0  0  0  0  0  0  0  0  0  0  0  0
    0.7890   -0.3010    1.0981 C   0  0  0  0  0  0  0  0  0  0  0  0
    1.9851   -0.3317    1.3554 O   0  0  0  0  0  0  0  0  0  0  0  0
   -0.0941    0.1605    2.0579 N   0  0  0  0  0  0  0  0  0  0  0  0
   -1.0796    0.0701    1.8354 H   0  0  0  0  0  0  0  0  0  0  0  0
    0.2964    0.3725    3.4460 C   0  0  0  0  0  0  0  0  0  0  0  0
    1.0943    1.1200    3.5101 H   0  0  0  0  0  0  0  0  0  0  0  0
   -0.5571    0.7295    4.0301 H   0  0  0  0  0  0  0  0  0  0  0  0
    0.6538   -0.5634    3.8889 H   0  0  0  0  0  0  0  0  0  0  0  0
  1  2  1  0  0  0  0
  2  3  1  0  0  0  0
  2  4  1  0  0  0  0
  2  5  1  0  0  0  0
  5  6  2  0  0  0  0
  5  7  1  0  0  0  0
  7  8  1  0  0  0  0
  7  9  1  0  0  0  0
  9 10  1  0  0  0  0
  9 11  1  0  0  0  0
  9 21  1  0  0  0  0
 11 12  1  0  0  0  0
 11 13  1  0  0  0  0
 11 14  1  0  0  0  0
 14 15  1  0  0  0  0
 14 16  1  0  0  0  0
 14 17  1  0  0  0  0
 17 18  2  0  0  0  0
 17 19  1  0  0  0  0
 19 20  1  0  0  0  0
 21 22  2  0  0  0  0
 21 23  1  0  0  0  0
 23 24  1  0  0  0  0
 23 25  1  0  0  0  0
 25 26  1  0  0  0  0
 25 27  1  0  0  0  0
 25 28  1  0  0  0  0
M  END
$$$$

  -OEChem-02102214123D

 28 27  0     1  0  0  0  0  0999 V2000
   -2.5851   -4.1372    0.2873 H   0  0  0  0  0  0  0  0  0  0  0  0
   -2.5516   -3.1596   -0.2021 C   0  0  0  0  0  0  0  0  0  0  0  0
   -3.3668   -2.5447    0.1864 H   0  0  0  0  0  0  0  0  0  0  0  0
   -2.6887   -3.3002   -1.2770 H   0  0  0  0  0  0  0  0  0  0  0  0
   -1.2186   -2.4869    0.0669 C   0  0  0  0  0  0  0  0  0  0  0  0
   -0.3723   -3.0614    0.7263 O   0  0  0  0  0  0  0  0  0  0  0  0
   -0.9780   -1.2234   -0.4382 N   0  0  0  0  0  0  0  0  0  0  0  0
   -1.6871   -0.8468   -1.0600 H   0  0  0  0  0  0  0  0  0  0  0  0
    0.3225   -0.5249   -0.3599 C   0  0  1  0  0  0  0  0  0  0  0  0
    1.0874   -1.1614   -0.8201 H   0  0  0  0  0  0  0  0  0  0  0  0
    0.1968    0.7673   -1.2201 C   0  0  0  0  0  0  0  0  0  0  0  0
    0.7165    0.5505   -2.1601 H   0  0  0  0  0  0  0  0  0  0  0  0
   -0.8511    0.9440   -1.4834 H   0  0  0  0  0  0  0  0  0  0  0  0
    0.7445    2.1023   -0.6404 C   0  0  0  0  0  0  0  0  0  0  0  0
   -0.0809    2.7160   -0.2696 H   0  0  0  0  0  0  0  0  0  0  0  0
    1.4205    1.9289    0.1982 H   0  0  0  0  0  0  0  0  0  0  0  0
    1.5541    2.9020   -1.6613 C   0  0  0  0  0  0  0  0  0  0  0  0
    1.1123    3.0215   -2.7929 O   0  0  0  0  0  0  0  0  0  0  0  0
    2.7172    3.4580   -1.2518 O   0  0  0  0  0  0  0  0  0  0  0  0
    3.0858    3.9116   -2.0245 H   0  0  0  0  0  0  0  0  0  0  0  0
    0.7916   -0.3077    1.1003 C   0  0  0  0  0  0  0  0  0  0  0  0
    1.9842   -0.3530    1.3718 O   0  0  0  0  0  0  0  0  0  0  0  0
   -0.0994    0.1482    2.0553 N   0  0  0  0  0  0  0  0  0  0  0  0
   -1.0827    0.0601    1.8232 H   0  0  0  0  0  0  0  0  0  0  0  0
    0.2781    0.3523    3.4481 C   0  0  0  0  0  0  0  0  0  0  0  0
    1.0852    1.0887    3.5230 H   0  0  0  0  0  0  0  0  0  0  0  0
   -0.5773    0.7204    4.0225 H   0  0  0  0  0  0  0  0  0  0  0  0
    0.6180   -0.5889    3.8933 H   0  0  0  0  0  0  0  0  0  0  0  0
  1  2  1  0  0  0  0
  2  3  1  0  0  0  0
  2  4  1  0  0  0  0
  2  5  1  0  0  0  0
  5  6  2  0  0  0  0
  5  7  1  0  0  0  0
  7  8  1  0  0  0  0
  7  9  1  0  0  0  0
  9 10  1  0  0  0  0
  9 11  1  0  0  0  0
  9 21  1  0  0  0  0
 11 12  1  0  0  0  0
 11 13  1  0  0  0  0
 11 14  1  0  0  0  0
 14 15  1  0  0  0  0
 14 16  1  0  0  0  0
 14 17  1  0  0  0  0
 17 18  2  0  0  0  0
 17 19  1  0  0  0  0
 19 20  1  0  0  0  0
 21 22  2  0  0  0  0
 21 23  1  0  0  0  0
 23 24  1  0  0  0  0
 23 25  1  0  0  0  0
 25 26  1  0  0  0  0
 25 27  1  0  0  0  0
 25 28  1  0  0  0  0
M  END
$$$$

  -OEChem-02102214123D

 28 27  0     1  0  0  0  0  0999 V2000
   -2.5966   -4.1482    0.2612 H   0  0  0  0  0  0  0  0  0  0  0  0
   -2.5715   -3.1605   -0.2083 C   0  0  0  0  0  0  0  0  0  0  0  0
   -3.3867   -2.5571    0.1979 H   0  0  0  0  0  0  0  0  0  0  0  0
   -2.7154   -3.2803   -1.2848 H   0  0  0  0  0  0  0  0  0  0  0  0
   -1.2401   -2.4870    0.0655 C   0  0  0  0  0  0  0  0  0  0  0  0
   -0.3958   -3.0616    0.7274 O   0  0  0  0  0  0  0  0  0  0  0  0
   -0.9950   -1.2263   -0.4440 N   0  0  0  0  0  0  0  0  0  0  0  0
   -1.7011   -0.8506   -1.0699 H   0  0  0  0  0  0  0  0  0  0  0  0
    0.3105   -0.5372   -0.3726 C   0  0  1  0  0  0  0  0  0  0  0  0
    1.0687   -1.1757   -0.8407 H   0  0  0  0  0  0  0  0  0  0  0  0
    0.1867    0.7618   -1.2192 C   0  0  0  0  0  0  0  0  0  0  0  0
    0.7079    0.5600   -2.1619 H   0  0  0  0  0  0  0  0  0  0  0  0
   -0.8605    0.9544   -1.4750 H   0  0  0  0  0  0  0  0  0  0  0  0
    0.7580    2.0673   -0.6065 C   0  0  0  0  0  0  0  0  0  0  0  0
    0.0097    2.5478    0.0293 H   0  0  0  0  0  0  0  0  0  0  0  0
    1.6295    1.8453    0.0141 H   0  0  0  0  0  0  0  0  0  0  0  0
    1.2558    3.0578   -1.6592 C   0  0  0  0  0  0  0  0  0  0  0  0
    0.6950    3.1045   -2.7425 O   0  0  0  0  0  0  0  0  0  0  0  0
    2.2918    3.8589   -1.3212 O   0  0  0  0  0  0  0  0  0  0  0  0
    2.4696    4.4103   -2.0978 H   0  0  0  0  0  0  0  0  0  0  0  0
    0.7924   -0.3173    1.0838 C   0  0  0  0  0  0  0  0  0  0  0  0
    1.9863   -0.3756    1.3479 O   0  0  0  0  0  0  0  0  0  0  0  0
   -0.0873    0.1490    2.0444 N   0  0  0  0  0  0  0  0  0  0  0  0
   -1.0736    0.0766    1.8188 H   0  0  0  0  0  0  0  0  0  0  0  0
    0.3040    0.3654    3.4316 C   0  0  0  0  0  0  0  0  0  0  0  0
    1.1208    1.0926    3.4905 H   0  0  0  0  0  0  0  0  0  0  0  0
   -0.5417    0.7511    4.0086 H   0  0  0  0  0  0  0  0  0  0  0  0
    0.6361   -0.5742    3.8856 H   0  0  0  0  0  0  0  0  0  0  0  0
  1  2  1  0  0  0  0
  2  3  1  0  0  0  0
  2  4  1  0  0  0  0
  2  5  1  0  0  0  0
  5  6  2  0  0  0  0
  5  7  1  0  0  0  0
  7  8  1  0  0  0  0
  7  9  1  0  0  0  0
  9 10  1  0  0  0  0
  9 11  1  0  0  0  0
  9 21  1  0  0  0  0
 11 12  1  0  0  0  0
 11 13  1  0  0  0  0
 11 14  1  0  0  0  0
 14 15  1  0  0  0  0
 14 16  1  0  0  0  0
 14 17  1  0  0  0  0
 17 18  2  0  0  0  0
 17 19  1  0  0  0  0
 19 20  1  0  0  0  0
 21 22  2  0  0  0  0
 21 23  1  0  0  0  0
 23 24  1  0  0  0  0
 23 25  1  0  0  0  0
 25 26  1  0  0  0  0
 25 27  1  0  0  0  0
 25 28  1  0  0  0  0
M  END
$$$$

  -OEChem-02102214123D

 28 27  0     1  0  0  0  0  0999 V2000
   -2.6165   -4.1473    0.2734 H   0  0  0  0  0  0  0  0  0  0  0  0
   -2.5938   -3.1596   -0.1961 C   0  0  0  0  0  0  0  0  0  0  0  0
   -3.4001   -2.5528    0.2229 H   0  0  0  0  0  0  0  0  0  0  0  0
   -2.7546   -3.2783   -1.2704 H   0  0  0  0  0  0  0  0  0  0  0  0
   -1.2552   -2.4927    0.0579 C   0  0  0  0  0  0  0  0  0  0  0  0
   -0.4058   -3.0697    0.7113 O   0  0  0  0  0  0  0  0  0  0  0  0
   -1.0112   -1.2315   -0.4513 N   0  0  0  0  0  0  0  0  0  0  0  0
   -1.7222   -0.8498   -1.0679 H   0  0  0  0  0  0  0  0  0  0  0  0
    0.2959   -0.5452   -0.3847 C   0  0  1  0  0  0  0  0  0  0  0  0
    1.0475   -1.1888   -0.8565 H   0  0  0  0  0  0  0  0  0  0  0  0
    0.1864    0.7546   -1.2291 C   0  0  0  0  0  0  0  0  0  0  0  0
    0.7028    0.5654   -2.1769 H   0  0  0  0  0  0  0  0  0  0  0  0
   -0.8614    0.9593   -1.4723 H   0  0  0  0  0  0  0  0  0  0  0  0
    0.7746    2.0373   -0.5929 C   0  0  0  0  0  0  0  0  0  0  0  0
    0.1356    2.3811    0.2246 H   0  0  0  0  0  0  0  0  0  0  0  0
    1.7644    1.8208   -0.1799 H   0  0  0  0  0  0  0  0  0  0  0  0
    0.9633    3.1816   -1.5894 C   0  0  0  0  0  0  0  0  0  0  0  0
    0.3541    3.1657   -2.6472 O   0  0  0  0  0  0  0  0  0  0  0  0
    1.7962    4.1831   -1.2254 O   0  0  0  0  0  0  0  0  0  0  0  0
    1.7967    4.8125   -1.9621 H   0  0  0  0  0  0  0  0  0  0  0  0
    0.7920   -0.3249    1.0669 C   0  0  0  0  0  0  0  0  0  0  0  0
    1.9896   -0.3696    1.3158 O   0  0  0  0  0  0  0  0  0  0  0  0
   -0.0782    0.1435    2.0352 N   0  0  0  0  0  0  0  0  0  0  0  0
   -1.0668    0.0652    1.8217 H   0  0  0  0  0  0  0  0  0  0  0  0
    0.3284    0.3732    3.4158 C   0  0  0  0  0  0  0  0  0  0  0  0
    1.1414    1.1058    3.4593 H   0  0  0  0  0  0  0  0  0  0  0  0
   -0.5127    0.7586    3.9997 H   0  0  0  0  0  0  0  0  0  0  0  0
    0.6715   -0.5608    3.8734 H   0  0  0  0  0  0  0  0  0  0  0  0
  1  2  1  0  0  0  0
  2  3  1  0  0  0  0
  2  4  1  0  0  0  0
  2  5  1  0  0  0  0
  5  6  2  0  0  0  0
  5  7  1  0  0  0  0
  7  8  1  0  0  0  0
  7  9  1  0  0  0  0
  9 10  1  0  0  0  0
  9 11  1  0  0  0  0
  9 21  1  0  0  0  0
 11 12  1  0  0  0  0
 11 13  1  0  0  0  0
 11 14  1  0  0  0  0
 14 15  1  0  0  0  0
 14 16  1  0  0  0  0
 14 17  1  0  0  0  0
 17 18  2  0  0  0  0
 17 19  1  0  0  0  0
 19 20  1  0  0  0  0
 21 22  2  0  0  0  0
 21 23  1  0  0  0  0
 23 24  1  0  0  0  0
 23 25  1  0  0  0  0
 25 26  1  0  0  0  0
 25 27  1  0  0  0  0
 25 28  1  0  0  0  0
M  END
$$$$

  -OEChem-02102214123D

 28 27  0     1  0  0  0  0  0999 V2000
   -2.6466   -4.1318    0.2774 H   0  0  0  0  0  0  0  0  0  0  0  0
   -2.6154   -3.1445   -0.1924 C   0  0  0  0  0  0  0  0  0  0  0  0
   -3.4192   -2.5320    0.2231 H   0  0  0  0  0  0  0  0  0  0  0  0
   -2.7727   -3.2630   -1.2671 H   0  0  0  0  0  0  0  0  0  0  0  0
   -1.2731   -2.4866    0.0657 C   0  0  0  0  0  0  0  0  0  0  0  0
   -0.4328   -3.0651    0.7295 O   0  0  0  0  0  0  0  0  0  0  0  0
   -1.0134   -1.2343   -0.4570 N   0  0  0  0  0  0  0  0  0  0  0  0
   -1.7163   -0.8542   -1.0842 H   0  0  0  0  0  0  0  0  0  0  0  0
    0.3020   -0.5642   -0.3994 C   0  0  1  0  0  0  0  0  0  0  0  0
    1.0507   -1.2102   -0.8727 H   0  0  0  0  0  0  0  0  0  0  0  0
    0.1917    0.7361   -1.2362 C   0  0  0  0  0  0  0  0  0  0  0  0
    0.4115    0.4940   -2.2819 H   0  0  0  0  0  0  0  0  0  0  0  0
   -0.8421    1.0962   -1.1943 H   0  0  0  0  0  0  0  0  0  0  0  0
    1.0976    1.9042   -0.7801 C   0  0  0  0  0  0  0  0  0  0  0  0
    0.8631    2.1867    0.2496 H   0  0  0  0  0  0  0  0  0  0  0  0
    2.1432    1.5830   -0.8092 H   0  0  0  0  0  0  0  0  0  0  0  0
    0.9556    3.1643   -1.6354 C   0  0  0  0  0  0  0  0  0  0  0  0
    0.1119    3.2085   -2.5171 O   0  0  0  0  0  0  0  0  0  0  0  0
    1.7908    4.1900   -1.3542 O   0  0  0  0  0  0  0  0  0  0  0  0
    1.5720    4.8939   -1.9831 H   0  0  0  0  0  0  0  0  0  0  0  0
    0.8024   -0.3346    1.0490 C   0  0  0  0  0  0  0  0  0  0  0  0
    2.0008   -0.3793    1.2949 O   0  0  0  0  0  0  0  0  0  0  0  0
   -0.0624    0.1551    2.0115 N   0  0  0  0  0  0  0  0  0  0  0  0
   -1.0518    0.0804    1.8005 H   0  0  0  0  0  0  0  0  0  0  0  0
    0.3473    0.3988    3.3889 C   0  0  0  0  0  0  0  0  0  0  0  0
    1.1637    1.1282    3.4234 H   0  0  0  0  0  0  0  0  0  0  0  0
   -0.4915    0.7946    3.9691 H   0  0  0  0  0  0  0  0  0  0  0  0
    0.6864   -0.5316    3.8566 H   0  0  0  0  0  0  0  0  0  0  0  0
  1  2  1  0  0  0  0
  2  3  1  0  0  0  0
  2  4  1  0  0  0  0
  2  5  1  0  0  0  0
  5  6  2  0  0  0  0
  5  7  1  0  0  0  0
  7  8  1  0  0  0  0
  7  9  1  0  0  0  0
  9 10  1  0  0  0  0
  9 11  1  0  0  0  0
  9 21  1  0  0  0  0
 11 12  1  0  0  0  0
 11 13  1  0  0  0  0
 11 14  1  0  0  0  0
 14 15  1  0  0  0  0
 14 16  1  0  0  0  0
 14 17  1  0  0  0  0
 17 18  2  0  0  0  0
 17 19  1  0  0  0  0
 19 20  1  0  0  0  0
 21 22  2  0  0  0  0
 21 23  1  0  0  0  0
 23 24  1  0  0  0  0
 23 25  1  0  0  0  0
 25 26  1  0  0  0  0
 25 27  1  0  0  0  0
 25 28  1  0  0  0  0
M  END
$$$$

  -OEChem-02102214123D

 28 27  0     1  0  0  0  0  0999 V2000
   -2.6668   -4.1157    0.2601 H   0  0  0  0  0  0  0  0  0  0  0  0
   -2.6359   -3.1141   -0.1787 C   0  0  0  0  0  0  0  0  0  0  0  0
   -3.4212   -2.5062    0.2769 H   0  0  0  0  0  0  0  0  0  0  0  0
   -2.8228   -3.1960   -1.2523 H   0  0  0  0  0  0  0  0  0  0  0  0
   -1.2801   -2.4790    0.0665 C   0  0  0  0  0  0  0  0  0  0  0  0
   -0.4423   -3.0717    0.7209 O   0  0  0  0  0  0  0  0  0  0  0  0
   -1.0092   -1.2262   -0.4489 N   0  0  0  0  0  0  0  0  0  0  0  0
   -1.7142   -0.8306   -1.0640 H   0  0  0  0  0  0  0  0  0  0  0  0
    0.3109   -0.5654   -0.3875 C   0  0  1  0  0  0  0  0  0  0  0  0
    1.0542   -1.2202   -0.8564 H   0  0  0  0  0  0  0  0  0  0  0  0
    0.2177    0.7288   -1.2383 C   0  0  0  0  0  0  0  0  0  0  0  0
    0.4232    0.4828   -2.2857 H   0  0  0  0  0  0  0  0  0  0  0  0
   -0.8171    1.0847   -1.1847 H   0  0  0  0  0  0  0  0  0  0  0  0
    1.1213    1.9114   -0.8056 C   0  0  0  0  0  0  0  0  0  0  0  0
    1.0611    2.0665    0.2739 H   0  0  0  0  0  0  0  0  0  0  0  0
    2.1629    1.6836   -1.0493 H   0  0  0  0  0  0  0  0  0  0  0  0
    0.7354    3.2498   -1.4392 C   0  0  0  0  0  0  0  0  0  0  0  0
   -0.1115    3.2860   -2.3180 O   0  0  0  0  0  0  0  0  0  0  0  0
    1.3736    4.3490   -0.9777 O   0  0  0  0  0  0  0  0  0  0  0  0
    1.0218    5.0960   -1.4849 H   0  0  0  0  0  0  0  0  0  0  0  0
    0.8104   -0.3480    1.0622 C   0  0  0  0  0  0  0  0  0  0  0  0
    2.0086   -0.3986    1.3078 O   0  0  0  0  0  0  0  0  0  0  0  0
   -0.0520    0.1418    2.0266 N   0  0  0  0  0  0  0  0  0  0  0  0
   -1.0414    0.0714    1.8142 H   0  0  0  0  0  0  0  0  0  0  0  0
    0.3553    0.3541    3.4099 C   0  0  0  0  0  0  0  0  0  0  0  0
    1.1703    1.0837    3.4625 H   0  0  0  0  0  0  0  0  0  0  0  0
   -0.4850    0.7341    3.9984 H   0  0  0  0  0  0  0  0  0  0  0  0
    0.6957   -0.5865    3.8560 H   0  0  0  0  0  0  0  0  0  0  0  0
  1  2  1  0  0  0  0
  2  3  1  0  0  0  0
  2  4  1  0  0  0  0
  2  5  1  0  0  0  0
  5  6  2  0  0  0  0
  5  7  1  0  0  0  0
  7  8  1  0  0  0  0
  7  9  1  0  0  0  0
  9 10  1  0  0  0  0
  9 11  1  0  0  0  0
  9 21  1  0  0  0  0
 11 12  1  0  0  0  0
 11 13  1  0  0  0  0
 11 14  1  0  0  0  0
 14 15  1  0  0  0  0
 14 16  1  0  0  0  0
 14 17  1  0  0  0  0
 17 18  2  0  0  0  0
 17 19  1  0  0  0  0
 19 20  1  0  0  0  0
 21 22  2  0  0  0  0
 21 23  1  0  0  0  0
 23 24  1  0  0  0  0
 23 25  1  0  0  0  0
 25 26  1  0  0  0  0
 25 27  1  0  0  0  0
 25 28  1  0  0  0  0
M  END
$$$$

  -OEChem-02102214123D

 28 27  0     1  0  0  0  0  0999 V2000
   -2.7100   -4.0831    0.2908 H   0  0  0  0  0  0  0  0  0  0  0  0
   -2.6558   -3.0966   -0.1788 C   0  0  0  0  0  0  0  0  0  0  0  0
   -3.4436   -2.4654    0.2389 H   0  0  0  0  0  0  0  0  0  0  0  0
   -2.8193   -3.2102   -1.2532 H   0  0  0  0  0  0  0  0  0  0  0  0
   -1.2973   -2.4713    0.0767 C   0  0  0  0  0  0  0  0  0  0  0  0
   -0.4656   -3.0751    0.7287 O   0  0  0  0  0  0  0  0  0  0  0  0
   -1.0127   -1.2205   -0.4368 N   0  0  0  0  0  0  0  0  0  0  0  0
   -1.7124   -0.8190   -1.0542 H   0  0  0  0  0  0  0  0  0  0  0  0
    0.3169   -0.5766   -0.3804 C   0  0  1  0  0  0  0  0  0  0  0  0
    1.0505   -1.2395   -0.8532 H   0  0  0  0  0  0  0  0  0  0  0  0
    0.2328    0.7199   -1.2332 C   0  0  0  0  0  0  0  0  0  0  0  0
    0.4135    0.4724   -2.2845 H   0  0  0  0  0  0  0  0  0  0  0  0
   -0.8013    1.0739   -1.1611 H   0  0  0  0  0  0  0  0  0  0  0  0
    1.1425    1.9140   -0.8295 C   0  0  0  0  0  0  0  0  0  0  0  0
    1.3141    1.9354    0.2478 H   0  0  0  0  0  0  0  0  0  0  0  0
    2.1195    1.8071   -1.3084 H   0  0  0  0  0  0  0  0  0  0  0  0
    0.5542    3.2843   -1.1734 C   0  0  0  0  0  0  0  0  0  0  0  0
   -0.2722    3.3783   -2.0671 O   0  0  0  0  0  0  0  0  0  0  0  0
    0.9995    4.3432   -0.4590 O   0  0  0  0  0  0  0  0  0  0  0  0
    0.5434    5.1198   -0.8168 H   0  0  0  0  0  0  0  0  0  0  0  0
    0.8220   -0.3716    1.0690 C   0  0  0  0  0  0  0  0  0  0  0  0
    2.0193   -0.4457    1.3134 O   0  0  0  0  0  0  0  0  0  0  0  0
   -0.0318    0.1259    2.0369 N   0  0  0  0  0  0  0  0  0  0  0  0
   -1.0228    0.0776    1.8256 H   0  0  0  0  0  0  0  0  0  0  0  0
    0.3846    0.3470    3.4160 C   0  0  0  0  0  0  0  0  0  0  0  0
    1.2137    1.0613    3.4563 H   0  0  0  0  0  0  0  0  0  0  0  0
   -0.4458    0.7509    4.0027 H   0  0  0  0  0  0  0  0  0  0  0  0
    0.7086   -0.5944    3.8723 H   0  0  0  0  0  0  0  0  0  0  0  0
  1  2  1  0  0  0  0
  2  3  1  0  0  0  0
  2  4  1  0  0  0  0
  2  5  1  0  0  0  0
  5  6  2  0  0  0  0
  5  7  1  0  0  0  0
  7  8  1  0  0  0  0
  7  9  1  0  0  0  0
  9 10  1  0  0  0  0
  9 11  1  0  0  0  0
  9 21  1  0  0  0  0
 11 12  1  0  0  0  0
 11 13  1  0  0  0  0
 11 14  1  0  0  0  0
 14 15  1  0  0  0  0
 14 16  1  0  0  0  0
 14 17  1  0  0  0  0
 17 18  2  0  0  0  0
 17 19  1  0  0  0  0
 19 20  1  0  0  0  0
 21 22  2  0  0  0  0
 21 23  1  0  0  0  0
 23 24  1  0  0  0  0
 23 25  1  0  0  0  0
 25 26  1  0  0  0  0
 25 27  1  0  0  0  0
 25 28  1  0  0  0  0
M  END
$$$$

  -OEChem-02102214123D

 28 27  0     1  0  0  0  0  0999 V2000
   -2.7396   -4.0376    0.3591 H   0  0  0  0  0  0  0  0  0  0  0  0
   -2.6657   -3.0707   -0.1470 C   0  0  0  0  0  0  0  0  0  0  0  0
   -3.4410   -2.4085    0.2457 H   0  0  0  0  0  0  0  0  0  0  0  0
   -2.8306   -3.2216   -1.2165 H   0  0  0  0  0  0  0  0  0  0  0  0
   -1.2949   -2.4643    0.0867 C   0  0  0  0  0  0  0  0  0  0  0  0
   -0.4634   -3.0781    0.7294 O   0  0  0  0  0  0  0  0  0  0  0  0
   -0.9992   -1.2207   -0.4382 N   0  0  0  0  0  0  0  0  0  0  0  0
   -1.7024   -0.8106   -1.0459 H   0  0  0  0  0  0  0  0  0  0  0  0
    0.3369   -0.5891   -0.3917 C   0  0  1  0  0  0  0  0  0  0  0  0
    1.0660   -1.2550   -0.8673 H   0  0  0  0  0  0  0  0  0  0  0  0
    0.2437    0.7104   -1.2408 C   0  0  0  0  0  0  0  0  0  0  0  0
    0.4183    0.4576   -2.2920 H   0  0  0  0  0  0  0  0  0  0  0  0
   -0.7918    1.0600   -1.1703 H   0  0  0  0  0  0  0  0  0  0  0  0
    1.1576    1.9111   -0.8585 C   0  0  0  0  0  0  0  0  0  0  0  0
    1.6021    1.7947    0.1302 H   0  0  0  0  0  0  0  0  0  0  0  0
    1.9896    1.9667   -1.5658 H   0  0  0  0  0  0  0  0  0  0  0  0
    0.4269    3.2543   -0.8542 C   0  0  0  0  0  0  0  0  0  0  0  0
   -0.3688    3.4975   -1.7474 O   0  0  0  0  0  0  0  0  0  0  0  0
    0.7025    4.1149    0.1525 O   0  0  0  0  0  0  0  0  0  0  0  0
    0.1691    4.9060   -0.0163 H   0  0  0  0  0  0  0  0  0  0  0  0
    0.8385   -0.3816    1.0591 C   0  0  0  0  0  0  0  0  0  0  0  0
    2.0306   -0.4909    1.3152 O   0  0  0  0  0  0  0  0  0  0  0  0
   -0.0135    0.1297    2.0213 N   0  0  0  0  0  0  0  0  0  0  0  0
   -1.0030    0.1118    1.7999 H   0  0  0  0  0  0  0  0  0  0  0  0
    0.3978    0.3590    3.4005 C   0  0  0  0  0  0  0  0  0  0  0  0
    1.2487    1.0475    3.4373 H   0  0  0  0  0  0  0  0  0  0  0  0
   -0.4243    0.7984    3.9733 H   0  0  0  0  0  0  0  0  0  0  0  0
    0.6877   -0.5848    3.8744 H   0  0  0  0  0  0  0  0  0  0  0  0
  1  2  1  0  0  0  0
  2  3  1  0  0  0  0
  2  4  1  0  0  0  0
  2  5  1  0  0  0  0
  5  6  2  0  0  0  0
  5  7  1  0  0  0  0
  7  8  1  0  0  0  0
  7  9  1  0  0  0  0
  9 10  1  0  0  0  0
  9 11  1  0  0  0  0
  9 21  1  0  0  0  0
 11 12  1  0  0  0  0
 11 13  1  0  0  0  0
 11 14  1  0  0  0  0
 14 15  1  0  0  0  0
 14 16  1  0  0  0  0
 14 17  1  0  0  0  0
 17 18  2  0  0  0  0
 17 19  1  0  0  0  0
 19 20  1  0  0  0  0
 21 22  2  0  0  0  0
 21 23  1  0  0  0  0
 23 24  1  0  0  0  0
 23 25  1  0  0  0  0
 25 26  1  0  0  0  0
 25 27  1  0  0  0  0
 25 28  1  0  0  0  0
M  END
$$$$

  -OEChem-02102214123D

 28 27  0     1  0  0  0  0  0999 V2000
   -2.7397   -4.0409    0.2673 H   0  0  0  0  0  0  0  0  0  0  0  0
   -2.6677   -3.0440   -0.1770 C   0  0  0  0  0  0  0  0  0  0  0  0
   -3.3577   -2.3768    0.3449 H   0  0  0  0  0  0  0  0  0  0  0  0
   -2.9550   -3.1066   -1.2293 H   0  0  0  0  0  0  0  0  0  0  0  0
   -1.2488   -2.5216   -0.0572 C   0  0  0  0  0  0  0  0  0  0  0  0
   -0.3828   -3.2233    0.4323 O   0  0  0  0  0  0  0  0  0  0  0  0
   -0.9449   -1.2569   -0.5225 N   0  0  0  0  0  0  0  0  0  0  0  0
   -1.7062   -0.7238   -0.9305 H   0  0  0  0  0  0  0  0  0  0  0  0
    0.3814   -0.6194   -0.3950 C   0  0  1  0  0  0  0  0  0  0  0  0
    1.1402   -1.2497   -0.8728 H   0  0  0  0  0  0  0  0  0  0  0  0
    0.2894    0.7231   -1.1701 C   0  0  0  0  0  0  0  0  0  0  0  0
    0.5508    0.5163   -2.2133 H   0  0  0  0  0  0  0  0  0  0  0  0
   -0.7530    1.0582   -1.1803 H   0  0  0  0  0  0  0  0  0  0  0  0
    1.1811    1.8951   -0.6721 C   0  0  0  0  0  0  0  0  0  0  0  0
    1.8483    1.6151    0.1440 H   0  0  0  0  0  0  0  0  0  0  0  0
    1.8316    2.1958   -1.4986 H   0  0  0  0  0  0  0  0  0  0  0  0
    0.3786    3.1236   -0.2458 C   0  0  0  0  0  0  0  0  0  0  0  0
   -0.6055    2.9679    0.4613 O   0  0  0  0  0  0  0  0  0  0  0  0
    0.8008    4.3322   -0.6826 O   0  0  0  0  0  0  0  0  0  0  0  0
    0.1922    4.9834   -0.3022 H   0  0  0  0  0  0  0  0  0  0  0  0
    0.8086   -0.4683    1.0876 C   0  0  0  0  0  0  0  0  0  0  0  0
    1.9791   -0.6291    1.4092 O   0  0  0  0  0  0  0  0  0  0  0  0
   -0.0897   -0.0007    2.0301 N   0  0  0  0  0  0  0  0  0  0  0  0
   -1.0072    0.2724    1.6939 H   0  0  0  0  0  0  0  0  0  0  0  0
    0.2872    0.3246    3.3991 C   0  0  0  0  0  0  0  0  0  0  0  0
    1.0221    1.1365    3.4111 H   0  0  0  0  0  0  0  0  0  0  0  0
   -0.5915    0.6427    3.9680 H   0  0  0  0  0  0  0  0  0  0  0  0
    0.7199   -0.5511    3.8943 H   0  0  0  0  0  0  0  0  0  0  0  0
  1  2  1  0  0  0  0
  2  3  1  0  0  0  0
  2  4  1  0  0  0  0
  2  5  1  0  0  0  0
  5  6  2  0  0  0  0
  5  7  1  0  0  0  0
  7  8  1  0  0  0  0
  7  9  1  0  0  0  0
  9 10  1  0  0  0  0
  9 11  1  0  0  0  0
  9 21  1  0  0  0  0
 11 12  1  0  0  0  0
 11 13  1  0  0  0  0
 11 14  1  0  0  0  0
 14 15  1  0  0  0  0
 14 16  1  0  0  0  0
 14 17  1  0  0  0  0
 17 18  2  0  0  0  0
 17 19  1  0  0  0  0
 19 20  1  0  0  0  0
 21 22  2  0  0  0  0
 21 23  1  0  0  0  0
 23 24  1  0  0  0  0
 23 25  1  0  0  0  0
 25 26  1  0  0  0  0
 25 27  1  0  0  0  0
 25 28  1  0  0  0  0
M  END
$$$$

  -OEChem-02102214123D

 28 27  0     1  0  0  0  0  0999 V2000
   -2.7213   -4.0698    0.3045 H   0  0  0  0  0  0  0  0  0  0  0  0
   -2.6642   -3.0734   -0.1431 C   0  0  0  0  0  0  0  0  0  0  0  0
   -3.3489   -2.4099    0.3904 H   0  0  0  0  0  0  0  0  0  0  0  0
   -2.9704   -3.1399   -1.1899 H   0  0  0  0  0  0  0  0  0  0  0  0
   -1.2467   -2.5411   -0.0505 C   0  0  0  0  0  0  0  0  0  0  0  0
   -0.3675   -3.2353    0.4265 O   0  0  0  0  0  0  0  0  0  0  0  0
   -0.9587   -1.2772   -0.5274 N   0  0  0  0  0  0  0  0  0  0  0  0
   -1.7342   -0.7431   -0.9062 H   0  0  0  0  0  0  0  0  0  0  0  0
    0.3606   -0.6260   -0.4084 C   0  0  1  0  0  0  0  0  0  0  0  0
    1.1213   -1.2588   -0.8803 H   0  0  0  0  0  0  0  0  0  0  0  0
    0.2619    0.7014   -1.2057 C   0  0  0  0  0  0  0  0  0  0  0  0
    0.5566    0.4729   -2.2355 H   0  0  0  0  0  0  0  0  0  0  0  0
   -0.7794    1.0358   -1.2580 H   0  0  0  0  0  0  0  0  0  0  0  0
    1.1499    1.8715   -0.7061 C   0  0  0  0  0  0  0  0  0  0  0  0
    1.9902    1.5250   -0.1003 H   0  0  0  0  0  0  0  0  0  0  0  0
    1.5896    2.3490   -1.5863 H   0  0  0  0  0  0  0  0  0  0  0  0
    0.3890    2.9668    0.0461 C   0  0  0  0  0  0  0  0  0  0  0  0
   -0.6756    2.7040    0.5868 O   0  0  0  0  0  0  0  0  0  0  0  0
    0.9522    4.1962    0.0707 O   0  0  0  0  0  0  0  0  0  0  0  0
    0.3595    4.7541    0.5965 H   0  0  0  0  0  0  0  0  0  0  0  0
    0.8005   -0.4537    1.0690 C   0  0  0  0  0  0  0  0  0  0  0  0
    1.9743   -0.6092    1.3808 O   0  0  0  0  0  0  0  0  0  0  0  0
   -0.0883    0.0147    2.0198 N   0  0  0  0  0  0  0  0  0  0  0  0
   -0.9877    0.3398    1.6784 H   0  0  0  0  0  0  0  0  0  0  0  0
    0.3104    0.3558    3.3791 C   0  0  0  0  0  0  0  0  0  0  0  0
    1.0524    1.1610    3.3701 H   0  0  0  0  0  0  0  0  0  0  0  0
   -0.5576    0.6897    3.9553 H   0  0  0  0  0  0  0  0  0  0  0  0
    0.7427   -0.5166    3.8807 H   0  0  0  0  0  0  0  0  0  0  0  0
  1  2  1  0  0  0  0
  2  3  1  0  0  0  0
  2  4  1  0  0  0  0
  2  5  1  0  0  0  0
  5  6  2  0  0  0  0
  5  7  1  0  0  0  0
  7  8  1  0  0  0  0
  7  9  1  0  0  0  0
  9 10  1  0  0  0  0
  9 11  1  0  0  0  0
  9 21  1  0  0  0  0
 11 12  1  0  0  0  0
 11 13  1  0  0  0  0
 11 14  1  0  0  0  0
 14 15  1  0  0  0  0
 14 16  1  0  0  0  0
 14 17  1  0  0  0  0
 17 18  2  0  0  0  0
 17 19  1  0  0  0  0
 19 20  1  0  0  0  0
 21 22  2  0  0  0  0
 21 23  1  0  0  0  0
 23 24  1  0  0  0  0
 23 25  1  0  0  0  0
 25 26  1  0  0  0  0
 25 27  1  0  0  0  0
 25 28  1  0  0  0  0
M  END
$$$$

  -OEChem-02102214123D

 28 27  0     1  0  0  0  0  0999 V2000
   -2.6867   -4.1123    0.3068 H   0  0  0  0  0  0  0  0  0  0  0  0
   -2.6524   -3.1081   -0.1256 C   0  0  0  0  0  0  0  0  0  0  0  0
   -3.3443   -2.4656    0.4241 H   0  0  0  0  0  0  0  0  0  0  0  0
   -2.9674   -3.1648   -1.1703 H   0  0  0  0  0  0  0  0  0  0  0  0
   -1.2442   -2.5512   -0.0377 C   0  0  0  0  0  0  0  0  0  0  0  0
   -0.3528   -3.2290    0.4403 O   0  0  0  0  0  0  0  0  0  0  0  0
   -0.9777   -1.2833   -0.5167 N   0  0  0  0  0  0  0  0  0  0  0  0
   -1.7624   -0.7597   -0.8916 H   0  0  0  0  0  0  0  0  0  0  0  0
    0.3335   -0.6153   -0.4076 C   0  0  1  0  0  0  0  0  0  0  0  0
    1.0924   -1.2553   -0.8726 H   0  0  0  0  0  0  0  0  0  0  0  0
    0.2458    0.6928   -1.2373 C   0  0  0  0  0  0  0  0  0  0  0  0
    0.5548    0.4417   -2.2575 H   0  0  0  0  0  0  0  0  0  0  0  0
   -0.7934    1.0306   -1.3074 H   0  0  0  0  0  0  0  0  0  0  0  0
    1.1282    1.8691   -0.7495 C   0  0  0  0  0  0  0  0  0  0  0  0
    2.0734    1.4991   -0.3419 H   0  0  0  0  0  0  0  0  0  0  0  0
    1.3823    2.4825   -1.6181 H   0  0  0  0  0  0  0  0  0  0  0  0
    0.4687    2.8083    0.2658 C   0  0  0  0  0  0  0  0  0  0  0  0
   -0.6912    2.6267    0.6071 O   0  0  0  0  0  0  0  0  0  0  0  0
    1.2275    3.8281    0.7267 O   0  0  0  0  0  0  0  0  0  0  0  0
    0.6755    4.3145    1.3567 H   0  0  0  0  0  0  0  0  0  0  0  0
    0.7930   -0.4323    1.0618 C   0  0  0  0  0  0  0  0  0  0  0  0
    1.9772   -0.5465    1.3500 O   0  0  0  0  0  0  0  0  0  0  0  0
   -0.0862    0.0261    2.0260 N   0  0  0  0  0  0  0  0  0  0  0  0
   -1.0027    0.3198    1.7018 H   0  0  0  0  0  0  0  0  0  0  0  0
    0.3265    0.3749    3.3791 C   0  0  0  0  0  0  0  0  0  0  0  0
    1.0395    1.2057    3.3597 H   0  0  0  0  0  0  0  0  0  0  0  0
   -0.5415    0.6745    3.9740 H   0  0  0  0  0  0  0  0  0  0  0  0
    0.7989   -0.4839    3.8677 H   0  0  0  0  0  0  0  0  0  0  0  0
  1  2  1  0  0  0  0
  2  3  1  0  0  0  0
  2  4  1  0  0  0  0
  2  5  1  0  0  0  0
  5  6  2  0  0  0  0
  5  7  1  0  0  0  0
  7  8  1  0  0  0  0
  7  9  1  0  0  0  0
  9 10  1  0  0  0  0
  9 11  1  0  0  0  0
  9 21  1  0  0  0  0
 11 12  1  0  0  0  0
 11 13  1  0  0  0  0
 11 14  1  0  0  0  0
 14 15  1  0  0  0  0
 14 16  1  0  0  0  0
 14 17  1  0  0  0  0
 17 18  2  0  0  0  0
 17 19  1  0  0  0  0
 19 20  1  0  0  0  0
 21 22  2  0  0  0  0
 21 23  1  0  0  0  0
 23 24  1  0  0  0  0
 23 25  1  0  0  0  0
 25 26  1  0  0  0  0
 25 27  1  0  0  0  0
 25 28  1  0  0  0  0
M  END
$$$$

  -OEChem-02102214123D

 28 27  0     1  0  0  0  0  0999 V2000
   -2.6752   -4.1249    0.2985 H   0  0  0  0  0  0  0  0  0  0  0  0
   -2.6470   -3.1195   -0.1313 C   0  0  0  0  0  0  0  0  0  0  0  0
   -3.3495   -2.4852    0.4146 H   0  0  0  0  0  0  0  0  0  0  0  0
   -2.9534   -3.1768   -1.1785 H   0  0  0  0  0  0  0  0  0  0  0  0
   -1.2447   -2.5491   -0.0320 C   0  0  0  0  0  0  0  0  0  0  0  0
   -0.3480   -3.2218    0.4430 O   0  0  0  0  0  0  0  0  0  0  0  0
   -0.9902   -1.2727   -0.4941 N   0  0  0  0  0  0  0  0  0  0  0  0
   -1.7796   -0.7524   -0.8640 H   0  0  0  0  0  0  0  0  0  0  0  0
    0.3156   -0.5951   -0.3839 C   0  0  1  0  0  0  0  0  0  0  0  0
    1.0691   -1.2480   -0.8396 H   0  0  0  0  0  0  0  0  0  0  0  0
    0.2575    0.6885   -1.2553 C   0  0  0  0  0  0  0  0  0  0  0  0
    0.5722    0.4083   -2.2660 H   0  0  0  0  0  0  0  0  0  0  0  0
   -0.7793    1.0316   -1.3358 H   0  0  0  0  0  0  0  0  0  0  0  0
    1.1241    1.8877   -0.8016 C   0  0  0  0  0  0  0  0  0  0  0  0
    2.1360    1.5363   -0.5760 H   0  0  0  0  0  0  0  0  0  0  0  0
    1.2056    2.5951   -1.6311 H   0  0  0  0  0  0  0  0  0  0  0  0
    0.5946    2.6652    0.4060 C   0  0  0  0  0  0  0  0  0  0  0  0
   -0.5983    2.6211    0.6705 O   0  0  0  0  0  0  0  0  0  0  0  0
    1.4854    3.4059    1.1029 O   0  0  0  0  0  0  0  0  0  0  0  0
    0.9885    3.8225    1.8220 H   0  0  0  0  0  0  0  0  0  0  0  0
    0.7957   -0.4218    1.0790 C   0  0  0  0  0  0  0  0  0  0  0  0
    1.9891   -0.5000    1.3389 O   0  0  0  0  0  0  0  0  0  0  0  0
   -0.0698    0.0176    2.0641 N   0  0  0  0  0  0  0  0  0  0  0  0
   -1.0140    0.2526    1.7742 H   0  0  0  0  0  0  0  0  0  0  0  0
    0.3565    0.3351    3.4206 C   0  0  0  0  0  0  0  0  0  0  0  0
    1.1022    1.1371    3.4111 H   0  0  0  0  0  0  0  0  0  0  0  0
   -0.4989    0.6626    4.0190 H   0  0  0  0  0  0  0  0  0  0  0  0
    0.7948   -0.5477    3.8979 H   0  0  0  0  0  0  0  0  0  0  0  0
  1  2  1  0  0  0  0
  2  3  1  0  0  0  0
  2  4  1  0  0  0  0
  2  5  1  0  0  0  0
  5  6  2  0  0  0  0
  5  7  1  0  0  0  0
  7  8  1  0  0  0  0
  7  9  1  0  0  0  0
  9 10  1  0  0  0  0
  9 11  1  0  0  0  0
  9 21  1  0  0  0  0
 11 12  1  0  0  0  0
 11 13  1  0  0  0  0
 11 14  1  0  0  0  0
 14 15  1  0  0  0  0
 14 16  1  0  0  0  0
 14 17  1  0  0  0  0
 17 18  2  0  0  0  0
 17 19  1  0  0  0  0
 19 20  1  0  0  0  0
 21 22  2  0  0  0  0
 21 23  1  0  0  0  0
 23 24  1  0  0  0  0
 23 25  1  0  0  0  0
 25 26  1  0  0  0  0
 25 27  1  0  0  0  0
 25 28  1  0  0  0  0
M  END
$$$$

  -OEChem-02102214123D

 28 27  0     1  0  0  0  0  0999 V2000
   -2.6711   -4.1337    0.2646 H   0  0  0  0  0  0  0  0  0  0  0  0
   -2.6452   -3.1214   -0.1490 C   0  0  0  0  0  0  0  0  0  0  0  0
   -3.3527   -2.4988    0.4036 H   0  0  0  0  0  0  0  0  0  0  0  0
   -2.9463   -3.1626   -1.1985 H   0  0  0  0  0  0  0  0  0  0  0  0
   -1.2458   -2.5475   -0.0323 C   0  0  0  0  0  0  0  0  0  0  0  0
   -0.3511   -3.2221    0.4439 O   0  0  0  0  0  0  0  0  0  0  0  0
   -0.9936   -1.2623   -0.4713 N   0  0  0  0  0  0  0  0  0  0  0  0
   -1.7796   -0.7446   -0.8520 H   0  0  0  0  0  0  0  0  0  0  0  0
    0.3110   -0.5830   -0.3512 C   0  0  1  0  0  0  0  0  0  0  0  0
    1.0613   -1.2458   -0.7990 H   0  0  0  0  0  0  0  0  0  0  0  0
    0.2803    0.6816   -1.2567 C   0  0  0  0  0  0  0  0  0  0  0  0
    0.5819    0.3742   -2.2636 H   0  0  0  0  0  0  0  0  0  0  0  0
   -0.7565    1.0270   -1.3298 H   0  0  0  0  0  0  0  0  0  0  0  0
    1.1231    1.9181   -0.8602 C   0  0  0  0  0  0  0  0  0  0  0  0
    2.1762    1.6206   -0.8405 H   0  0  0  0  0  0  0  0  0  0  0  0
    1.0154    2.6866   -1.6301 H   0  0  0  0  0  0  0  0  0  0  0  0
    0.7973    2.5589    0.4872 C   0  0  0  0  0  0  0  0  0  0  0  0
   -0.3754    2.6372    0.8229 O   0  0  0  0  0  0  0  0  0  0  0  0
    1.8201    3.0629    1.2135 O   0  0  0  0  0  0  0  0  0  0  0  0
    1.4297    3.4122    2.0276 H   0  0  0  0  0  0  0  0  0  0  0  0
    0.7942   -0.4345    1.1131 C   0  0  0  0  0  0  0  0  0  0  0  0
    1.9886   -0.5158    1.3662 O   0  0  0  0  0  0  0  0  0  0  0  0
   -0.0668   -0.0163    2.1116 N   0  0  0  0  0  0  0  0  0  0  0  0
   -1.0188    0.2042    1.8373 H   0  0  0  0  0  0  0  0  0  0  0  0
    0.3566    0.2405    3.4820 C   0  0  0  0  0  0  0  0  0  0  0  0
    1.1201    1.0247    3.5078 H   0  0  0  0  0  0  0  0  0  0  0  0
   -0.4955    0.5660    4.0862 H   0  0  0  0  0  0  0  0  0  0  0  0
    0.7708   -0.6691    3.9296 H   0  0  0  0  0  0  0  0  0  0  0  0
  1  2  1  0  0  0  0
  2  3  1  0  0  0  0
  2  4  1  0  0  0  0
  2  5  1  0  0  0  0
  5  6  2  0  0  0  0
  5  7  1  0  0  0  0
  7  8  1  0  0  0  0
  7  9  1  0  0  0  0
  9 10  1  0  0  0  0
  9 11  1  0  0  0  0
  9 21  1  0  0  0  0
 11 12  1  0  0  0  0
 11 13  1  0  0  0  0
 11 14  1  0  0  0  0
 14 15  1  0  0  0  0
 14 16  1  0  0  0  0
 14 17  1  0  0  0  0
 17 18  2  0  0  0  0
 17 19  1  0  0  0  0
 19 20  1  0  0  0  0
 21 22  2  0  0  0  0
 21 23  1  0  0  0  0
 23 24  1  0  0  0  0
 23 25  1  0  0  0  0
 25 26  1  0  0  0  0
 25 27  1  0  0  0  0
 25 28  1  0  0  0  0
M  END
$$$$

  -OEChem-02102214123D

 28 27  0     1  0  0  0  0  0999 V2000
   -2.7391   -4.0968    0.1948 H   0  0  0  0  0  0  0  0  0  0  0  0
   -2.6827   -3.0793   -0.2030 C   0  0  0  0  0  0  0  0  0  0  0  0
   -3.3897   -2.4497    0.3425 H   0  0  0  0  0  0  0  0  0  0  0  0
   -2.9604   -3.0995   -1.2596 H   0  0  0  0  0  0  0  0  0  0  0  0
   -1.2750   -2.5358   -0.0465 C   0  0  0  0  0  0  0  0  0  0  0  0
   -0.4062   -3.2333    0.4442 O   0  0  0  0  0  0  0  0  0  0  0  0
   -0.9857   -1.2535   -0.4719 N   0  0  0  0  0  0  0  0  0  0  0  0
   -1.7493   -0.7224   -0.8784 H   0  0  0  0  0  0  0  0  0  0  0  0
    0.3309   -0.6016   -0.3215 C   0  0  1  0  0  0  0  0  0  0  0  0
    1.0798   -1.2773   -0.7518 H   0  0  0  0  0  0  0  0  0  0  0  0
    0.3390    0.6619   -1.2351 C   0  0  0  0  0  0  0  0  0  0  0  0
    0.6189    0.3412   -2.2441 H   0  0  0  0  0  0  0  0  0  0  0  0
   -0.6944    1.0196   -1.2937 H   0  0  0  0  0  0  0  0  0  0  0  0
    1.1739    1.9212   -0.8848 C   0  0  0  0  0  0  0  0  0  0  0  0
    2.2206    1.6885   -1.1032 H   0  0  0  0  0  0  0  0  0  0  0  0
    0.8813    2.7387   -1.5492 H   0  0  0  0  0  0  0  0  0  0  0  0
    1.1299    2.4408    0.5475 C   0  0  0  0  0  0  0  0  0  0  0  0
    0.0332    2.6802    1.0293 O   0  0  0  0  0  0  0  0  0  0  0  0
    2.2997    2.6735    1.1844 O   0  0  0  0  0  0  0  0  0  0  0  0
    2.0716    2.9548    2.0820 H   0  0  0  0  0  0  0  0  0  0  0  0
    0.7696   -0.4807    1.1592 C   0  0  0  0  0  0  0  0  0  0  0  0
    1.9496   -0.6101    1.4554 O   0  0  0  0  0  0  0  0  0  0  0  0
   -0.1154   -0.0554    2.1334 N   0  0  0  0  0  0  0  0  0  0  0  0
   -1.0509    0.1947    1.8311 H   0  0  0  0  0  0  0  0  0  0  0  0
    0.2664    0.1715    3.5208 C   0  0  0  0  0  0  0  0  0  0  0  0
    1.0463    0.9372    3.5844 H   0  0  0  0  0  0  0  0  0  0  0  0
   -0.5980    0.5086    4.1004 H   0  0  0  0  0  0  0  0  0  0  0  0
    0.6436   -0.7541    3.9684 H   0  0  0  0  0  0  0  0  0  0  0  0
  1  2  1  0  0  0  0
  2  3  1  0  0  0  0
  2  4  1  0  0  0  0
  2  5  1  0  0  0  0
  5  6  2  0  0  0  0
  5  7  1  0  0  0  0
  7  8  1  0  0  0  0
  7  9  1  0  0  0  0
  9 10  1  0  0  0  0
  9 11  1  0  0  0  0
  9 21  1  0  0  0  0
 11 12  1  0  0  0  0
 11 13  1  0  0  0  0
 11 14  1  0  0  0  0
 14 15  1  0  0  0  0
 14 16  1  0  0  0  0
 14 17  1  0  0  0  0
 17 18  2  0  0  0  0
 17 19  1  0  0  0  0
 19 20  1  0  0  0  0
 21 22  2  0  0  0  0
 21 23  1  0  0  0  0
 23 24  1  0  0  0  0
 23 25  1  0  0  0  0
 25 26  1  0  0  0  0
 25 27  1  0  0  0  0
 25 28  1  0  0  0  0
M  END
$$$$

  -OEChem-02102214123D

 28 27  0     1  0  0  0  0  0999 V2000
   -2.8295   -4.0237    0.2135 H   0  0  0  0  0  0  0  0  0  0  0  0
   -2.7389   -3.0130   -0.1948 C   0  0  0  0  0  0  0  0  0  0  0  0
   -3.4302   -2.3563    0.3384 H   0  0  0  0  0  0  0  0  0  0  0  0
   -3.0093   -3.0364   -1.2530 H   0  0  0  0  0  0  0  0  0  0  0  0
   -1.3161   -2.5117   -0.0330 C   0  0  0  0  0  0  0  0  0  0  0  0
   -0.4729   -3.2325    0.4680 O   0  0  0  0  0  0  0  0  0  0  0  0
   -0.9851   -1.2420   -0.4668 N   0  0  0  0  0  0  0  0  0  0  0  0
   -1.7259   -0.7001   -0.9003 H   0  0  0  0  0  0  0  0  0  0  0  0
    0.3508   -0.6273   -0.3165 C   0  0  1  0  0  0  0  0  0  0  0  0
    1.0918   -1.3109   -0.7475 H   0  0  0  0  0  0  0  0  0  0  0  0
    0.3630    0.6503   -1.2156 C   0  0  0  0  0  0  0  0  0  0  0  0
    0.5957    0.3329   -2.2375 H   0  0  0  0  0  0  0  0  0  0  0  0
   -0.6671    1.0213   -1.2306 H   0  0  0  0  0  0  0  0  0  0  0  0
    1.2096    1.9176   -0.9066 C   0  0  0  0  0  0  0  0  0  0  0  0
    2.1781    1.7793   -1.3966 H   0  0  0  0  0  0  0  0  0  0  0  0
    0.7378    2.7823   -1.3817 H   0  0  0  0  0  0  0  0  0  0  0  0
    1.5201    2.2886    0.5371 C   0  0  0  0  0  0  0  0  0  0  0  0
    0.5969    2.6815    1.2324 O   0  0  0  0  0  0  0  0  0  0  0  0
    2.8049    2.2215    0.9527 O   0  0  0  0  0  0  0  0  0  0  0  0
    2.7945    2.3972    1.9049 H   0  0  0  0  0  0  0  0  0  0  0  0
    0.7561   -0.5224    1.1755 C   0  0  0  0  0  0  0  0  0  0  0  0
    1.9160   -0.7188    1.5124 O   0  0  0  0  0  0  0  0  0  0  0  0
   -0.1444   -0.0701    2.1232 N   0  0  0  0  0  0  0  0  0  0  0  0
   -1.0645    0.2012    1.7954 H   0  0  0  0  0  0  0  0  0  0  0  0
    0.1990    0.1351    3.5243 C   0  0  0  0  0  0  0  0  0  0  0  0
    0.9750    0.9014    3.6204 H   0  0  0  0  0  0  0  0  0  0  0  0
   -0.6814    0.4617    4.0858 H   0  0  0  0  0  0  0  0  0  0  0  0
    0.5661   -0.7965    3.9680 H   0  0  0  0  0  0  0  0  0  0  0  0
  1  2  1  0  0  0  0
  2  3  1  0  0  0  0
  2  4  1  0  0  0  0
  2  5  1  0  0  0  0
  5  6  2  0  0  0  0
  5  7  1  0  0  0  0
  7  8  1  0  0  0  0
  7  9  1  0  0  0  0
  9 10  1  0  0  0  0
  9 11  1  0  0  0  0
  9 21  1  0  0  0  0
 11 12  1  0  0  0  0
 11 13  1  0  0  0  0
 11 14  1  0  0  0  0
 14 15  1  0  0  0  0
 14 16  1  0  0  0  0
 14 17  1  0  0  0  0
 17 18  2  0  0  0  0
 17 19  1  0  0  0  0
 19 20  1  0  0  0  0
 21 22  2  0  0  0  0
 21 23  1  0  0  0  0
 23 24  1  0  0  0  0
 23 25  1  0  0  0  0
 25 26  1  0  0  0  0
 25 27  1  0  0  0  0
 25 28  1  0  0  0  0
M  END
$$$$

  -OEChem-02102214123D

 28 27  0     1  0  0  0  0  0999 V2000
   -3.0275   -3.8356    0.2415 H   0  0  0  0  0  0  0  0  0  0  0  0
   -2.8790   -2.8509   -0.2110 C   0  0  0  0  0  0  0  0  0  0  0  0
   -3.5538   -2.1392    0.2703 H   0  0  0  0  0  0  0  0  0  0  0  0
   -3.1209   -2.9131   -1.2747 H   0  0  0  0  0  0  0  0  0  0  0  0
   -1.4395   -2.4073   -0.0321 C   0  0  0  0  0  0  0  0  0  0  0  0
   -0.6272   -3.1729    0.4525 O   0  0  0  0  0  0  0  0  0  0  0  0
   -1.0580   -1.1445   -0.4454 N   0  0  0  0  0  0  0  0  0  0  0  0
   -1.7682   -0.5848   -0.9063 H   0  0  0  0  0  0  0  0  0  0  0  0
    0.3167   -0.6056   -0.3480 C   0  0  1  0  0  0  0  0  0  0  0  0
    1.0085   -1.2894   -0.8534 H   0  0  0  0  0  0  0  0  0  0  0  0
    0.3067    0.7308   -1.1612 C   0  0  0  0  0  0  0  0  0  0  0  0
    0.4468    0.4683   -2.2151 H   0  0  0  0  0  0  0  0  0  0  0  0
   -0.7080    1.1338   -1.0747 H   0  0  0  0  0  0  0  0  0  0  0  0
    1.2174    1.9582   -0.8562 C   0  0  0  0  0  0  0  0  0  0  0  0
    1.9955    1.9795   -1.6250 H   0  0  0  0  0  0  0  0  0  0  0  0
    0.6287    2.8710   -0.9865 H   0  0  0  0  0  0  0  0  0  0  0  0
    1.9473    2.0628    0.4755 C   0  0  0  0  0  0  0  0  0  0  0  0
    1.3484    2.5427    1.4242 O   0  0  0  0  0  0  0  0  0  0  0  0
    3.2347    1.6523    0.5203 O   0  0  0  0  0  0  0  0  0  0  0  0
    3.4815    1.6387    1.4577 H   0  0  0  0  0  0  0  0  0  0  0  0
    0.7805   -0.5778    1.1316 C   0  0  0  0  0  0  0  0  0  0  0  0
    1.9283   -0.8839    1.4278 O   0  0  0  0  0  0  0  0  0  0  0  0
   -0.0634   -0.1103    2.1231 N   0  0  0  0  0  0  0  0  0  0  0  0
   -0.9974    0.1678    1.8452 H   0  0  0  0  0  0  0  0  0  0  0  0
    0.3217   -0.0142    3.5253 C   0  0  0  0  0  0  0  0  0  0  0  0
    1.1591    0.6810    3.6456 H   0  0  0  0  0  0  0  0  0  0  0  0
   -0.5179    0.3496    4.1248 H   0  0  0  0  0  0  0  0  0  0  0  0
    0.6204   -0.9960    3.9077 H   0  0  0  0  0  0  0  0  0  0  0  0
  1  2  1  0  0  0  0
  2  3  1  0  0  0  0
  2  4  1  0  0  0  0
  2  5  1  0  0  0  0
  5  6  2  0  0  0  0
  5  7  1  0  0  0  0
  7  8  1  0  0  0  0
  7  9  1  0  0  0  0
  9 10  1  0  0  0  0
  9 11  1  0  0  0  0
  9 21  1  0  0  0  0
 11 12  1  0  0  0  0
 11 13  1  0  0  0  0
 11 14  1  0  0  0  0
 14 15  1  0  0  0  0
 14 16  1  0  0  0  0
 14 17  1  0  0  0  0
 17 18  2  0  0  0  0
 17 19  1  0  0  0  0
 19 20  1  0  0  0  0
 21 22  2  0  0  0  0
 21 23  1  0  0  0  0
 23 24  1  0  0  0  0
 23 25  1  0  0  0  0
 25 26  1  0  0  0  0
 25 27  1  0  0  0  0
 25 28  1  0  0  0  0
M  END
$$$$

  -OEChem-02102214123D

 28 27  0     1  0  0  0  0  0999 V2000
   -2.5927   -4.1675    0.3529 H   0  0  0  0  0  0  0  0  0  0  0  0
   -2.5588   -3.1682   -0.0906 C   0  0  0  0  0  0  0  0  0  0  0  0
   -3.3073   -2.5413    0.3996 H   0  0  0  0  0  0  0  0  0  0  0  0
   -2.7977   -3.2483   -1.1538 H   0  0  0  0  0  0  0  0  0  0  0  0
   -1.1780   -2.5657    0.0877 C   0  0  0  0  0  0  0  0  0  0  0  0
   -0.3060   -3.2080    0.6423 O   0  0  0  0  0  0  0  0  0  0  0  0
   -0.9179   -1.3008   -0.4055 N   0  0  0  0  0  0  0  0  0  0  0  0
   -1.6660   -0.8574   -0.9287 H   0  0  0  0  0  0  0  0  0  0  0  0
    0.3937   -0.6195   -0.3294 C   0  0  1  0  0  0  0  0  0  0  0  0
    1.1649   -1.2434   -0.7960 H   0  0  0  0  0  0  0  0  0  0  0  0
    0.2247    0.6744   -1.1936 C   0  0  0  0  0  0  0  0  0  0  0  0
    0.4228    0.3808   -2.2301 H   0  0  0  0  0  0  0  0  0  0  0  0
   -0.8321    0.9586   -1.1506 H   0  0  0  0  0  0  0  0  0  0  0  0
    0.9935    2.0064   -0.9381 C   0  0  0  0  0  0  0  0  0  0  0  0
    1.5518    2.2505   -1.8463 H   0  0  0  0  0  0  0  0  0  0  0  0
    0.2590    2.8058   -0.7997 H   0  0  0  0  0  0  0  0  0  0  0  0
    1.9830    2.0938    0.2150 C   0  0  0  0  0  0  0  0  0  0  0  0
    1.6247    2.6348    1.2483 O   0  0  0  0  0  0  0  0  0  0  0  0
    3.2159    1.5765    0.0165 O   0  0  0  0  0  0  0  0  0  0  0  0
    3.6324    1.5410    0.8922 H   0  0  0  0  0  0  0  0  0  0  0  0
    0.8221   -0.4494    1.1523 C   0  0  0  0  0  0  0  0  0  0  0  0
    1.9805   -0.6560    1.4931 O   0  0  0  0  0  0  0  0  0  0  0  0
   -0.0854   -0.0053    2.0970 N   0  0  0  0  0  0  0  0  0  0  0  0
   -1.0407    0.1396    1.7920 H   0  0  0  0  0  0  0  0  0  0  0  0
    0.2587    0.2109    3.4964 C   0  0  0  0  0  0  0  0  0  0  0  0
    1.0563    0.9563    3.5834 H   0  0  0  0  0  0  0  0  0  0  0  0
   -0.6128    0.5725    4.0499 H   0  0  0  0  0  0  0  0  0  0  0  0
    0.5982   -0.7238    3.9553 H   0  0  0  0  0  0  0  0  0  0  0  0
  1  2  1  0  0  0  0
  2  3  1  0  0  0  0
  2  4  1  0  0  0  0
  2  5  1  0  0  0  0
  5  6  2  0  0  0  0
  5  7  1  0  0  0  0
  7  8  1  0  0  0  0
  7  9  1  0  0  0  0
  9 10  1  0  0  0  0
  9 11  1  0  0  0  0
  9 21  1  0  0  0  0
 11 12  1  0  0  0  0
 11 13  1  0  0  0  0
 11 14  1  0  0  0  0
 14 15  1  0  0  0  0
 14 16  1  0  0  0  0
 14 17  1  0  0  0  0
 17 18  2  0  0  0  0
 17 19  1  0  0  0  0
 19 20  1  0  0  0  0
 21 22  2  0  0  0  0
 21 23  1  0  0  0  0
 23 24  1  0  0  0  0
 23 25  1  0  0  0  0
 25 26  1  0  0  0  0
 25 27  1  0  0  0  0
 25 28  1  0  0  0  0
M  END
$$$$

  -OEChem-02102214123D

 28 27  0     1  0  0  0  0  0999 V2000
   -2.7539   -4.0269    0.5657 H   0  0  0  0  0  0  0  0  0  0  0  0
   -2.6736   -3.0599    0.0606 C   0  0  0  0  0  0  0  0  0  0  0  0
   -3.3990   -2.3724    0.5017 H   0  0  0  0  0  0  0  0  0  0  0  0
   -2.9065   -3.1971   -0.9981 H   0  0  0  0  0  0  0  0  0  0  0  0
   -1.2700   -2.5054    0.2171 C   0  0  0  0  0  0  0  0  0  0  0  0
   -0.4438   -3.1309    0.8541 O   0  0  0  0  0  0  0  0  0  0  0  0
   -0.9438   -1.3008   -0.3786 N   0  0  0  0  0  0  0  0  0  0  0  0
   -1.6524   -0.8961   -0.9824 H   0  0  0  0  0  0  0  0  0  0  0  0
    0.4094   -0.6988   -0.3858 C   0  0  1  0  0  0  0  0  0  0  0  0
    1.1364   -1.3821   -0.8402 H   0  0  0  0  0  0  0  0  0  0  0  0
    0.2674    0.5723   -1.2839 C   0  0  0  0  0  0  0  0  0  0  0  0
    0.4322    0.2301   -2.3113 H   0  0  0  0  0  0  0  0  0  0  0  0
   -0.7699    0.9201   -1.2341 H   0  0  0  0  0  0  0  0  0  0  0  0
    1.1360    1.8489   -1.0904 C   0  0  0  0  0  0  0  0  0  0  0  0
    1.4255    2.2301   -2.0740 H   0  0  0  0  0  0  0  0  0  0  0  0
    0.5059    2.6147   -0.6287 H   0  0  0  0  0  0  0  0  0  0  0  0
    2.3938    1.7551   -0.2360 C   0  0  0  0  0  0  0  0  0  0  0  0
    3.3666    1.2092   -0.7267 O   0  0  0  0  0  0  0  0  0  0  0  0
    2.3774    2.3020    1.0011 O   0  0  0  0  0  0  0  0  0  0  0  0
    3.2076    2.0139    1.4136 H   0  0  0  0  0  0  0  0  0  0  0  0
    0.8738   -0.4488    1.0747 C   0  0  0  0  0  0  0  0  0  0  0  0
    2.0179   -0.7063    1.4264 O   0  0  0  0  0  0  0  0  0  0  0  0
    0.0050    0.1189    1.9900 N   0  0  0  0  0  0  0  0  0  0  0  0
   -0.9642    0.1966    1.7041 H   0  0  0  0  0  0  0  0  0  0  0  0
    0.3445    0.3066    3.3947 C   0  0  0  0  0  0  0  0  0  0  0  0
    1.2193    0.9578    3.4932 H   0  0  0  0  0  0  0  0  0  0  0  0
   -0.4910    0.7697    3.9279 H   0  0  0  0  0  0  0  0  0  0  0  0
    0.5670   -0.6565    3.8664 H   0  0  0  0  0  0  0  0  0  0  0  0
  1  2  1  0  0  0  0
  2  3  1  0  0  0  0
  2  4  1  0  0  0  0
  2  5  1  0  0  0  0
  5  6  2  0  0  0  0
  5  7  1  0  0  0  0
  7  8  1  0  0  0  0
  7  9  1  0  0  0  0
  9 10  1  0  0  0  0
  9 11  1  0  0  0  0
  9 21  1  0  0  0  0
 11 12  1  0  0  0  0
 11 13  1  0  0  0  0
 11 14  1  0  0  0  0
 14 15  1  0  0  0  0
 14 16  1  0  0  0  0
 14 17  1  0  0  0  0
 17 18  2  0  0  0  0
 17 19  1  0  0  0  0
 19 20  1  0  0  0  0
 21 22  2  0  0  0  0
 21 23  1  0  0  0  0
 23 24  1  0  0  0  0
 23 25  1  0  0  0  0
 25 26  1  0  0  0  0
 25 27  1  0  0  0  0
 25 28  1  0  0  0  0
M  END
$$$$

  -OEChem-02102214123D

 28 27  0     1  0  0  0  0  0999 V2000
   -2.7873   -3.9969    0.4521 H   0  0  0  0  0  0  0  0  0  0  0  0
   -2.6972   -3.0247   -0.0411 C   0  0  0  0  0  0  0  0  0  0  0  0
   -3.4438   -2.3471    0.3794 H   0  0  0  0  0  0  0  0  0  0  0  0
   -2.8905   -3.1546   -1.1086 H   0  0  0  0  0  0  0  0  0  0  0  0
   -1.3049   -2.4603    0.1699 C   0  0  0  0  0  0  0  0  0  0  0  0
   -0.5031   -3.0747    0.8475 O   0  0  0  0  0  0  0  0  0  0  0  0
   -0.9627   -1.2578   -0.4203 N   0  0  0  0  0  0  0  0  0  0  0  0
   -1.6440   -0.8716   -1.0660 H   0  0  0  0  0  0  0  0  0  0  0  0
    0.3945   -0.6669   -0.4056 C   0  0  1  0  0  0  0  0  0  0  0  0
    1.1213   -1.3506   -0.8598 H   0  0  0  0  0  0  0  0  0  0  0  0
    0.2740    0.6194   -1.2804 C   0  0  0  0  0  0  0  0  0  0  0  0
    0.4589    0.3033   -2.3128 H   0  0  0  0  0  0  0  0  0  0  0  0
   -0.7567    0.9871   -1.2405 H   0  0  0  0  0  0  0  0  0  0  0  0
    1.1752    1.8537   -1.0125 C   0  0  0  0  0  0  0  0  0  0  0  0
    1.2898    2.4275   -1.9363 H   0  0  0  0  0  0  0  0  0  0  0  0
    0.6595    2.4983   -0.2947 H   0  0  0  0  0  0  0  0  0  0  0  0
    2.5613    1.5781   -0.4403 C   0  0  0  0  0  0  0  0  0  0  0  0
    3.3066    0.8591   -1.0843 O   0  0  0  0  0  0  0  0  0  0  0  0
    2.8956    2.1536    0.7371 O   0  0  0  0  0  0  0  0  0  0  0  0
    3.7339    1.7380    0.9942 H   0  0  0  0  0  0  0  0  0  0  0  0
    0.8547   -0.4148    1.0568 C   0  0  0  0  0  0  0  0  0  0  0  0
    1.9951   -0.6819    1.4138 O   0  0  0  0  0  0  0  0  0  0  0  0
   -0.0123    0.1639    1.9668 N   0  0  0  0  0  0  0  0  0  0  0  0
   -0.9842    0.2234    1.6847 H   0  0  0  0  0  0  0  0  0  0  0  0
    0.3249    0.3364    3.3742 C   0  0  0  0  0  0  0  0  0  0  0  0
    1.2152    0.9656    3.4797 H   0  0  0  0  0  0  0  0  0  0  0  0
   -0.5010    0.8169    3.9070 H   0  0  0  0  0  0  0  0  0  0  0  0
    0.5227   -0.6346    3.8408 H   0  0  0  0  0  0  0  0  0  0  0  0
  1  2  1  0  0  0  0
  2  3  1  0  0  0  0
  2  4  1  0  0  0  0
  2  5  1  0  0  0  0
  5  6  2  0  0  0  0
  5  7  1  0  0  0  0
  7  8  1  0  0  0  0
  7  9  1  0  0  0  0
  9 10  1  0  0  0  0
  9 11  1  0  0  0  0
  9 21  1  0  0  0  0
 11 12  1  0  0  0  0
 11 13  1  0  0  0  0
 11 14  1  0  0  0  0
 14 15  1  0  0  0  0
 14 16  1  0  0  0  0
 14 17  1  0  0  0  0
 17 18  2  0  0  0  0
 17 19  1  0  0  0  0
 19 20  1  0  0  0  0
 21 22  2  0  0  0  0
 21 23  1  0  0  0  0
 23 24  1  0  0  0  0
 23 25  1  0  0  0  0
 25 26  1  0  0  0  0
 25 27  1  0  0  0  0
 25 28  1  0  0  0  0
M  END
$$$$

  -OEChem-02102214123D

 28 27  0     1  0  0  0  0  0999 V2000
   -2.7076   -4.0578    0.4183 H   0  0  0  0  0  0  0  0  0  0  0  0
   -2.6484   -3.0834   -0.0754 C   0  0  0  0  0  0  0  0  0  0  0  0
   -3.4241   -2.4334    0.3364 H   0  0  0  0  0  0  0  0  0  0  0  0
   -2.8255   -3.2212   -1.1448 H   0  0  0  0  0  0  0  0  0  0  0  0
   -1.2803   -2.4680    0.1500 C   0  0  0  0  0  0  0  0  0  0  0  0
   -0.4660   -3.0487    0.8427 O   0  0  0  0  0  0  0  0  0  0  0  0
   -0.9750   -1.2545   -0.4376 N   0  0  0  0  0  0  0  0  0  0  0  0
   -1.6587   -0.8981   -1.0979 H   0  0  0  0  0  0  0  0  0  0  0  0
    0.3662   -0.6305   -0.4242 C   0  0  1  0  0  0  0  0  0  0  0  0
    1.1028   -1.2975   -0.8874 H   0  0  0  0  0  0  0  0  0  0  0  0
    0.2307    0.6615   -1.2822 C   0  0  0  0  0  0  0  0  0  0  0  0
    0.4141    0.3773   -2.3242 H   0  0  0  0  0  0  0  0  0  0  0  0
   -0.7999    1.0274   -1.2250 H   0  0  0  0  0  0  0  0  0  0  0  0
    1.1392    1.8700   -0.9487 C   0  0  0  0  0  0  0  0  0  0  0  0
    1.0834    2.6030   -1.7577 H   0  0  0  0  0  0  0  0  0  0  0  0
    0.7595    2.3536   -0.0439 H   0  0  0  0  0  0  0  0  0  0  0  0
    2.6080    1.5271   -0.7074 C   0  0  0  0  0  0  0  0  0  0  0  0
    3.1490    0.7388   -1.4657 O   0  0  0  0  0  0  0  0  0  0  0  0
    3.2377    2.1352    0.3230 O   0  0  0  0  0  0  0  0  0  0  0  0
    4.0992    1.6958    0.3940 H   0  0  0  0  0  0  0  0  0  0  0  0
    0.8441   -0.3648    1.0290 C   0  0  0  0  0  0  0  0  0  0  0  0
    2.0080   -0.5599    1.3539 O   0  0  0  0  0  0  0  0  0  0  0  0
   -0.0239    0.1935    1.9505 N   0  0  0  0  0  0  0  0  0  0  0  0
   -1.0047    0.1976    1.6932 H   0  0  0  0  0  0  0  0  0  0  0  0
    0.3384    0.3989    3.3472 C   0  0  0  0  0  0  0  0  0  0  0  0
    1.2120    1.0550    3.4230 H   0  0  0  0  0  0  0  0  0  0  0  0
   -0.4897    0.8648    3.8895 H   0  0  0  0  0  0  0  0  0  0  0  0
    0.5740   -0.5579    3.8253 H   0  0  0  0  0  0  0  0  0  0  0  0
  1  2  1  0  0  0  0
  2  3  1  0  0  0  0
  2  4  1  0  0  0  0
  2  5  1  0  0  0  0
  5  6  2  0  0  0  0
  5  7  1  0  0  0  0
  7  8  1  0  0  0  0
  7  9  1  0  0  0  0
  9 10  1  0  0  0  0
  9 11  1  0  0  0  0
  9 21  1  0  0  0  0
 11 12  1  0  0  0  0
 11 13  1  0  0  0  0
 11 14  1  0  0  0  0
 14 15  1  0  0  0  0
 14 16  1  0  0  0  0
 14 17  1  0  0  0  0
 17 18  2  0  0  0  0
 17 19  1  0  0  0  0
 19 20  1  0  0  0  0
 21 22  2  0  0  0  0
 21 23  1  0  0  0  0
 23 24  1  0  0  0  0
 23 25  1  0  0  0  0
 25 26  1  0  0  0  0
 25 27  1  0  0  0  0
 25 28  1  0  0  0  0
M  END
$$$$

  -OEChem-02102214123D

 28 27  0     1  0  0  0  0  0999 V2000
   -2.6663   -4.1052    0.3728 H   0  0  0  0  0  0  0  0  0  0  0  0
   -2.6258   -3.1294   -0.1199 C   0  0  0  0  0  0  0  0  0  0  0  0
   -3.4256   -2.5008    0.2789 H   0  0  0  0  0  0  0  0  0  0  0  0
   -2.7820   -3.2719   -1.1918 H   0  0  0  0  0  0  0  0  0  0  0  0
   -1.2787   -2.4767    0.1264 C   0  0  0  0  0  0  0  0  0  0  0  0
   -0.4569   -3.0355    0.8285 O   0  0  0  0  0  0  0  0  0  0  0  0
   -1.0011   -1.2493   -0.4450 N   0  0  0  0  0  0  0  0  0  0  0  0
   -1.6867   -0.9059   -1.1106 H   0  0  0  0  0  0  0  0  0  0  0  0
    0.3280   -0.6015   -0.4260 C   0  0  1  0  0  0  0  0  0  0  0  0
    1.0676   -1.2622   -0.8938 H   0  0  0  0  0  0  0  0  0  0  0  0
    0.2014    0.6883   -1.2834 C   0  0  0  0  0  0  0  0  0  0  0  0
    0.3787    0.4228   -2.3315 H   0  0  0  0  0  0  0  0  0  0  0  0
   -0.8265    1.0592   -1.2147 H   0  0  0  0  0  0  0  0  0  0  0  0
    1.1171    1.8749   -0.8997 C   0  0  0  0  0  0  0  0  0  0  0  0
    0.9165    2.7130   -1.5720 H   0  0  0  0  0  0  0  0  0  0  0  0
    0.8850    2.2131    0.1142 H   0  0  0  0  0  0  0  0  0  0  0  0
    2.6122    1.5602   -0.9784 C   0  0  0  0  0  0  0  0  0  0  0  0
    3.0039    0.7482   -1.8017 O   0  0  0  0  0  0  0  0  0  0  0  0
    3.4331    2.2377   -0.1442 O   0  0  0  0  0  0  0  0  0  0  0  0
    4.3112    1.8471   -0.2691 H   0  0  0  0  0  0  0  0  0  0  0  0
    0.8292   -0.3377    1.0180 C   0  0  0  0  0  0  0  0  0  0  0  0
    2.0180   -0.4373    1.2912 O   0  0  0  0  0  0  0  0  0  0  0  0
   -0.0318    0.1973    1.9597 N   0  0  0  0  0  0  0  0  0  0  0  0
   -1.0202    0.1376    1.7400 H   0  0  0  0  0  0  0  0  0  0  0  0
    0.3674    0.4430    3.3399 C   0  0  0  0  0  0  0  0  0  0  0  0
    1.2115    1.1399    3.3767 H   0  0  0  0  0  0  0  0  0  0  0  0
   -0.4629    0.8795    3.9031 H   0  0  0  0  0  0  0  0  0  0  0  0
    0.6627   -0.4936    3.8247 H   0  0  0  0  0  0  0  0  0  0  0  0
  1  2  1  0  0  0  0
  2  3  1  0  0  0  0
  2  4  1  0  0  0  0
  2  5  1  0  0  0  0
  5  6  2  0  0  0  0
  5  7  1  0  0  0  0
  7  8  1  0  0  0  0
  7  9  1  0  0  0  0
  9 10  1  0  0  0  0
  9 11  1  0  0  0  0
  9 21  1  0  0  0  0
 11 12  1  0  0  0  0
 11 13  1  0  0  0  0
 11 14  1  0  0  0  0
 14 15  1  0  0  0  0
 14 16  1  0  0  0  0
 14 17  1  0  0  0  0
 17 18  2  0  0  0  0
 17 19  1  0  0  0  0
 19 20  1  0  0  0  0
 21 22  2  0  0  0  0
 21 23  1  0  0  0  0
 23 24  1  0  0  0  0
 23 25  1  0  0  0  0
 25 26  1  0  0  0  0
 25 27  1  0  0  0  0
 25 28  1  0  0  0  0
M  END
$$$$

  -OEChem-02102214123D

 28 27  0     1  0  0  0  0  0999 V2000
   -2.6537   -4.1293    0.3295 H   0  0  0  0  0  0  0  0  0  0  0  0
   -2.6248   -3.1451   -0.1471 C   0  0  0  0  0  0  0  0  0  0  0  0
   -3.4296   -2.5315    0.2645 H   0  0  0  0  0  0  0  0  0  0  0  0
   -2.7831   -3.2713   -1.2209 H   0  0  0  0  0  0  0  0  0  0  0  0
   -1.2837   -2.4827    0.1069 C   0  0  0  0  0  0  0  0  0  0  0  0
   -0.4565   -3.0403    0.8039 O   0  0  0  0  0  0  0  0  0  0  0  0
   -1.0185   -1.2446   -0.4465 N   0  0  0  0  0  0  0  0  0  0  0  0
   -1.7068   -0.8969   -1.1070 H   0  0  0  0  0  0  0  0  0  0  0  0
    0.3043   -0.5855   -0.4166 C   0  0  1  0  0  0  0  0  0  0  0  0
    1.0447   -1.2473   -0.8813 H   0  0  0  0  0  0  0  0  0  0  0  0
    0.1982    0.6966   -1.2861 C   0  0  0  0  0  0  0  0  0  0  0  0
    0.3650    0.4325   -2.3363 H   0  0  0  0  0  0  0  0  0  0  0  0
   -0.8276    1.0721   -1.2139 H   0  0  0  0  0  0  0  0  0  0  0  0
    1.1128    1.8799   -0.8825 C   0  0  0  0  0  0  0  0  0  0  0  0
    0.7681    2.7752   -1.4064 H   0  0  0  0  0  0  0  0  0  0  0  0
    1.0385    2.0965    0.1859 H   0  0  0  0  0  0  0  0  0  0  0  0
    2.5842    1.6863   -1.2575 C   0  0  0  0  0  0  0  0  0  0  0  0
    2.8920    0.8536   -2.0958 O   0  0  0  0  0  0  0  0  0  0  0  0
    3.4793    2.4959   -0.6475 O   0  0  0  0  0  0  0  0  0  0  0  0
    4.3499    2.1998   -0.9529 H   0  0  0  0  0  0  0  0  0  0  0  0
    0.8155   -0.3320    1.0240 C   0  0  0  0  0  0  0  0  0  0  0  0
    2.0147   -0.3717    1.2661 O   0  0  0  0  0  0  0  0  0  0  0  0
   -0.0417    0.1849    1.9790 N   0  0  0  0  0  0  0  0  0  0  0  0
   -1.0319    0.0953    1.7780 H   0  0  0  0  0  0  0  0  0  0  0  0
    0.3746    0.4383    3.3527 C   0  0  0  0  0  0  0  0  0  0  0  0
    1.1996    1.1582    3.3772 H   0  0  0  0  0  0  0  0  0  0  0  0
   -0.4582    0.8498    3.9308 H   0  0  0  0  0  0  0  0  0  0  0  0
    0.7045   -0.4910    3.8292 H   0  0  0  0  0  0  0  0  0  0  0  0
  1  2  1  0  0  0  0
  2  3  1  0  0  0  0
  2  4  1  0  0  0  0
  2  5  1  0  0  0  0
  5  6  2  0  0  0  0
  5  7  1  0  0  0  0
  7  8  1  0  0  0  0
  7  9  1  0  0  0  0
  9 10  1  0  0  0  0
  9 11  1  0  0  0  0
  9 21  1  0  0  0  0
 11 12  1  0  0  0  0
 11 13  1  0  0  0  0
 11 14  1  0  0  0  0
 14 15  1  0  0  0  0
 14 16  1  0  0  0  0
 14 17  1  0  0  0  0
 17 18  2  0  0  0  0
 17 19  1  0  0  0  0
 19 20  1  0  0  0  0
 21 22  2  0  0  0  0
 21 23  1  0  0  0  0
 23 24  1  0  0  0  0
 23 25  1  0  0  0  0
 25 26  1  0  0  0  0
 25 27  1  0  0  0  0
 25 28  1  0  0  0  0
M  END
$$$$

  -OEChem-02102214123D

 28 27  0     1  0  0  0  0  0999 V2000
   -2.6726   -4.1233    0.3016 H   0  0  0  0  0  0  0  0  0  0  0  0
   -2.6348   -3.1378   -0.1714 C   0  0  0  0  0  0  0  0  0  0  0  0
   -3.4432   -2.5232    0.2317 H   0  0  0  0  0  0  0  0  0  0  0  0
   -2.7791   -3.2604   -1.2475 H   0  0  0  0  0  0  0  0  0  0  0  0
   -1.2950   -2.4804    0.1018 C   0  0  0  0  0  0  0  0  0  0  0  0
   -0.4759   -3.0465    0.8016 O   0  0  0  0  0  0  0  0  0  0  0  0
   -1.0200   -1.2394   -0.4408 N   0  0  0  0  0  0  0  0  0  0  0  0
   -1.7022   -0.8834   -1.1032 H   0  0  0  0  0  0  0  0  0  0  0  0
    0.3071   -0.5886   -0.3989 C   0  0  1  0  0  0  0  0  0  0  0  0
    1.0462   -1.2534   -0.8617 H   0  0  0  0  0  0  0  0  0  0  0  0
    0.2161    0.6957   -1.2682 C   0  0  0  0  0  0  0  0  0  0  0  0
    0.3578    0.4319   -2.3218 H   0  0  0  0  0  0  0  0  0  0  0  0
   -0.8072    1.0750   -1.1805 H   0  0  0  0  0  0  0  0  0  0  0  0
    1.1299    1.8869   -0.8700 C   0  0  0  0  0  0  0  0  0  0  0  0
    0.6392    2.8062   -1.2007 H   0  0  0  0  0  0  0  0  0  0  0  0
    1.2526    1.9810    0.2104 H   0  0  0  0  0  0  0  0  0  0  0  0
    2.5094    1.8793   -1.5339 C   0  0  0  0  0  0  0  0  0  0  0  0
    2.7979    1.0116   -2.3425 O   0  0  0  0  0  0  0  0  0  0  0  0
    3.3479    2.8838   -1.1918 O   0  0  0  0  0  0  0  0  0  0  0  0
    4.1746    2.7082   -1.6662 H   0  0  0  0  0  0  0  0  0  0  0  0
    0.8095   -0.3508    1.0467 C   0  0  0  0  0  0  0  0  0  0  0  0
    2.0072   -0.3973    1.2954 O   0  0  0  0  0  0  0  0  0  0  0  0
   -0.0515    0.1633    1.9998 N   0  0  0  0  0  0  0  0  0  0  0  0
   -1.0409    0.0786    1.7930 H   0  0  0  0  0  0  0  0  0  0  0  0
    0.3587    0.4077    3.3769 C   0  0  0  0  0  0  0  0  0  0  0  0
    1.1853    1.1254    3.4094 H   0  0  0  0  0  0  0  0  0  0  0  0
   -0.4754    0.8180    3.9538 H   0  0  0  0  0  0  0  0  0  0  0  0
    0.6841   -0.5252    3.8496 H   0  0  0  0  0  0  0  0  0  0  0  0
  1  2  1  0  0  0  0
  2  3  1  0  0  0  0
  2  4  1  0  0  0  0
  2  5  1  0  0  0  0
  5  6  2  0  0  0  0
  5  7  1  0  0  0  0
  7  8  1  0  0  0  0
  7  9  1  0  0  0  0
  9 10  1  0  0  0  0
  9 11  1  0  0  0  0
  9 21  1  0  0  0  0
 11 12  1  0  0  0  0
 11 13  1  0  0  0  0
 11 14  1  0  0  0  0
 14 15  1  0  0  0  0
 14 16  1  0  0  0  0
 14 17  1  0  0  0  0
 17 18  2  0  0  0  0
 17 19  1  0  0  0  0
 19 20  1  0  0  0  0
 21 22  2  0  0  0  0
 21 23  1  0  0  0  0
 23 24  1  0  0  0  0
 23 25  1  0  0  0  0
 25 26  1  0  0  0  0
 25 27  1  0  0  0  0
 25 28  1  0  0  0  0
M  END
$$$$

  -OEChem-02102214123D

 28 27  0     1  0  0  0  0  0999 V2000
   -2.7022   -4.0973    0.2879 H   0  0  0  0  0  0  0  0  0  0  0  0
   -2.6448   -3.1159   -0.1920 C   0  0  0  0  0  0  0  0  0  0  0  0
   -3.4540   -2.4896    0.1908 H   0  0  0  0  0  0  0  0  0  0  0  0
   -2.7700   -3.2455   -1.2698 H   0  0  0  0  0  0  0  0  0  0  0  0
   -1.3034   -2.4703    0.1012 C   0  0  0  0  0  0  0  0  0  0  0  0
   -0.4999   -3.0448    0.8119 O   0  0  0  0  0  0  0  0  0  0  0  0
   -1.0099   -1.2311   -0.4360 N   0  0  0  0  0  0  0  0  0  0  0  0
   -1.6798   -0.8714   -1.1091 H   0  0  0  0  0  0  0  0  0  0  0  0
    0.3239   -0.5938   -0.3831 C   0  0  1  0  0  0  0  0  0  0  0  0
    1.0611   -1.2611   -0.8448 H   0  0  0  0  0  0  0  0  0  0  0  0
    0.2389    0.6956   -1.2475 C   0  0  0  0  0  0  0  0  0  0  0  0
    0.3697    0.4264   -2.3009 H   0  0  0  0  0  0  0  0  0  0  0  0
   -0.7841    1.0757   -1.1580 H   0  0  0  0  0  0  0  0  0  0  0  0
    1.1517    1.8959   -0.8586 C   0  0  0  0  0  0  0  0  0  0  0  0
    0.5506    2.8065   -0.9315 H   0  0  0  0  0  0  0  0  0  0  0  0
    1.5072    1.8495    0.1710 H   0  0  0  0  0  0  0  0  0  0  0  0
    2.3629    2.1052   -1.7713 C   0  0  0  0  0  0  0  0  0  0  0  0
    2.6876    1.2447   -2.5732 O   0  0  0  0  0  0  0  0  0  0  0  0
    3.0208    3.2796   -1.6370 O   0  0  0  0  0  0  0  0  0  0  0  0
    3.7660    3.2361   -2.2552 H   0  0  0  0  0  0  0  0  0  0  0  0
    0.8121   -0.3674    1.0697 C   0  0  0  0  0  0  0  0  0  0  0  0
    2.0043   -0.4480    1.3357 O   0  0  0  0  0  0  0  0  0  0  0  0
   -0.0521    0.1514    2.0173 N   0  0  0  0  0  0  0  0  0  0  0  0
   -1.0400    0.0840    1.7976 H   0  0  0  0  0  0  0  0  0  0  0  0
    0.3444    0.3717    3.4025 C   0  0  0  0  0  0  0  0  0  0  0  0
    1.1846    1.0724    3.4541 H   0  0  0  0  0  0  0  0  0  0  0  0
   -0.4891    0.7918    3.9733 H   0  0  0  0  0  0  0  0  0  0  0  0
    0.6448   -0.5729    3.8683 H   0  0  0  0  0  0  0  0  0  0  0  0
  1  2  1  0  0  0  0
  2  3  1  0  0  0  0
  2  4  1  0  0  0  0
  2  5  1  0  0  0  0
  5  6  2  0  0  0  0
  5  7  1  0  0  0  0
  7  8  1  0  0  0  0
  7  9  1  0  0  0  0
  9 10  1  0  0  0  0
  9 11  1  0  0  0  0
  9 21  1  0  0  0  0
 11 12  1  0  0  0  0
 11 13  1  0  0  0  0
 11 14  1  0  0  0  0
 14 15  1  0  0  0  0
 14 16  1  0  0  0  0
 14 17  1  0  0  0  0
 17 18  2  0  0  0  0
 17 19  1  0  0  0  0
 19 20  1  0  0  0  0
 21 22  2  0  0  0  0
 21 23  1  0  0  0  0
 23 24  1  0  0  0  0
 23 25  1  0  0  0  0
 25 26  1  0  0  0  0
 25 27  1  0  0  0  0
 25 28  1  0  0  0  0
M  END
$$$$

  -OEChem-02102214123D

 28 27  0     1  0  0  0  0  0999 V2000
   -2.7751   -3.9935    0.3803 H   0  0  0  0  0  0  0  0  0  0  0  0
   -2.6537   -3.0723   -0.1969 C   0  0  0  0  0  0  0  0  0  0  0  0
   -3.4538   -2.3801    0.0761 H   0  0  0  0  0  0  0  0  0  0  0  0
   -2.7328   -3.3113   -1.2602 H   0  0  0  0  0  0  0  0  0  0  0  0
   -1.3015   -2.4493    0.0944 C   0  0  0  0  0  0  0  0  0  0  0  0
   -0.5034   -3.0419    0.7960 O   0  0  0  0  0  0  0  0  0  0  0  0
   -0.9911   -1.2126   -0.4395 N   0  0  0  0  0  0  0  0  0  0  0  0
   -1.6558   -0.8419   -1.1116 H   0  0  0  0  0  0  0  0  0  0  0  0
    0.3498   -0.5912   -0.3811 C   0  0  1  0  0  0  0  0  0  0  0  0
    1.0847   -1.2576   -0.8474 H   0  0  0  0  0  0  0  0  0  0  0  0
    0.2640    0.7112   -1.2252 C   0  0  0  0  0  0  0  0  0  0  0  0
    0.4106    0.4403   -2.2759 H   0  0  0  0  0  0  0  0  0  0  0  0
   -0.7583    1.0962   -1.1515 H   0  0  0  0  0  0  0  0  0  0  0  0
    1.1864    1.9014   -0.8270 C   0  0  0  0  0  0  0  0  0  0  0  0
    0.5570    2.7581   -0.5698 H   0  0  0  0  0  0  0  0  0  0  0  0
    1.7970    1.6859    0.0500 H   0  0  0  0  0  0  0  0  0  0  0  0
    2.1553    2.3388   -1.9276 C   0  0  0  0  0  0  0  0  0  0  0  0
    2.5966    1.5168   -2.7136 O   0  0  0  0  0  0  0  0  0  0  0  0
    2.4724    3.6532   -1.9718 O   0  0  0  0  0  0  0  0  0  0  0  0
    3.1038    3.7466   -2.7013 H   0  0  0  0  0  0  0  0  0  0  0  0
    0.8244   -0.3784    1.0795 C   0  0  0  0  0  0  0  0  0  0  0  0
    2.0065   -0.5104    1.3694 O   0  0  0  0  0  0  0  0  0  0  0  0
   -0.0435    0.1459    2.0208 N   0  0  0  0  0  0  0  0  0  0  0  0
   -1.0279    0.1153    1.7788 H   0  0  0  0  0  0  0  0  0  0  0  0
    0.3283    0.3167    3.4198 C   0  0  0  0  0  0  0  0  0  0  0  0
    1.1878    0.9895    3.5094 H   0  0  0  0  0  0  0  0  0  0  0  0
   -0.5050    0.7465    3.9835 H   0  0  0  0  0  0  0  0  0  0  0  0
    0.5894   -0.6487    3.8663 H   0  0  0  0  0  0  0  0  0  0  0  0
  1  2  1  0  0  0  0
  2  3  1  0  0  0  0
  2  4  1  0  0  0  0
  2  5  1  0  0  0  0
  5  6  2  0  0  0  0
  5  7  1  0  0  0  0
  7  8  1  0  0  0  0
  7  9  1  0  0  0  0
  9 10  1  0  0  0  0
  9 11  1  0  0  0  0
  9 21  1  0  0  0  0
 11 12  1  0  0  0  0
 11 13  1  0  0  0  0
 11 14  1  0  0  0  0
 14 15  1  0  0  0  0
 14 16  1  0  0  0  0
 14 17  1  0  0  0  0
 17 18  2  0  0  0  0
 17 19  1  0  0  0  0
 19 20  1  0  0  0  0
 21 22  2  0  0  0  0
 21 23  1  0  0  0  0
 23 24  1  0  0  0  0
 23 25  1  0  0  0  0
 25 26  1  0  0  0  0
 25 27  1  0  0  0  0
 25 28  1  0  0  0  0
M  END
$$$$

  -OEChem-02102214123D

 28 27  0     1  0  0  0  0  0999 V2000
   -2.5977   -4.1026    0.3397 H   0  0  0  0  0  0  0  0  0  0  0  0
   -2.5417   -3.1487   -0.1927 C   0  0  0  0  0  0  0  0  0  0  0  0
   -3.3569   -2.5071    0.1503 H   0  0  0  0  0  0  0  0  0  0  0  0
   -2.6585   -3.3365   -1.2628 H   0  0  0  0  0  0  0  0  0  0  0  0
   -1.2059   -2.4806    0.0729 C   0  0  0  0  0  0  0  0  0  0  0  0
   -0.3691   -3.0492    0.7491 O   0  0  0  0  0  0  0  0  0  0  0  0
   -0.9514   -1.2307   -0.4587 N   0  0  0  0  0  0  0  0  0  0  0  0
   -1.6505   -0.8669   -1.0992 H   0  0  0  0  0  0  0  0  0  0  0  0
    0.3547   -0.5418   -0.3916 C   0  0  1  0  0  0  0  0  0  0  0  0
    1.1267   -1.1644   -0.8581 H   0  0  0  0  0  0  0  0  0  0  0  0
    0.1947    0.7620   -1.2191 C   0  0  0  0  0  0  0  0  0  0  0  0
    0.4154    0.4997   -2.2599 H   0  0  0  0  0  0  0  0  0  0  0  0
   -0.8493    1.0916   -1.1914 H   0  0  0  0  0  0  0  0  0  0  0  0
    1.0552    1.9825   -0.7955 C   0  0  0  0  0  0  0  0  0  0  0  0
    0.4482    2.6964   -0.2324 H   0  0  0  0  0  0  0  0  0  0  0  0
    1.8800    1.6731   -0.1502 H   0  0  0  0  0  0  0  0  0  0  0  0
    1.7030    2.6871   -1.9865 C   0  0  0  0  0  0  0  0  0  0  0  0
    1.0134    2.9311   -2.9635 O   0  0  0  0  0  0  0  0  0  0  0  0
    3.0118    3.0163   -1.8957 O   0  0  0  0  0  0  0  0  0  0  0  0
    3.2397    3.4479   -2.7326 H   0  0  0  0  0  0  0  0  0  0  0  0
    0.8088   -0.3026    1.0714 C   0  0  0  0  0  0  0  0  0  0  0  0
    1.9920   -0.3918    1.3717 O   0  0  0  0  0  0  0  0  0  0  0  0
   -0.0896    0.1784    2.0069 N   0  0  0  0  0  0  0  0  0  0  0  0
   -1.0699    0.1192    1.7538 H   0  0  0  0  0  0  0  0  0  0  0  0
    0.2641    0.3805    3.4064 C   0  0  0  0  0  0  0  0  0  0  0  0
    1.0957    1.0878    3.4941 H   0  0  0  0  0  0  0  0  0  0  0  0
   -0.5898    0.7843    3.9587 H   0  0  0  0  0  0  0  0  0  0  0  0
    0.5597   -0.5685    3.8664 H   0  0  0  0  0  0  0  0  0  0  0  0
  1  2  1  0  0  0  0
  2  3  1  0  0  0  0
  2  4  1  0  0  0  0
  2  5  1  0  0  0  0
  5  6  2  0  0  0  0
  5  7  1  0  0  0  0
  7  8  1  0  0  0  0
  7  9  1  0  0  0  0
  9 10  1  0  0  0  0
  9 11  1  0  0  0  0
  9 21  1  0  0  0  0
 11 12  1  0  0  0  0
 11 13  1  0  0  0  0
 11 14  1  0  0  0  0
 14 15  1  0  0  0  0
 14 16  1  0  0  0  0
 14 17  1  0  0  0  0
 17 18  2  0  0  0  0
 17 19  1  0  0  0  0
 19 20  1  0  0  0  0
 21 22  2  0  0  0  0
 21 23  1  0  0  0  0
 23 24  1  0  0  0  0
 23 25  1  0  0  0  0
 25 26  1  0  0  0  0
 25 27  1  0  0  0  0
 25 28  1  0  0  0  0
M  END
$$$$

  -OEChem-02102214123D

 28 27  0     1  0  0  0  0  0999 V2000
   -2.6073   -4.1302    0.3034 H   0  0  0  0  0  0  0  0  0  0  0  0
   -2.5732   -3.1539   -0.1888 C   0  0  0  0  0  0  0  0  0  0  0  0
   -3.3843   -2.5349    0.2019 H   0  0  0  0  0  0  0  0  0  0  0  0
   -2.7165   -3.2981   -1.2625 H   0  0  0  0  0  0  0  0  0  0  0  0
   -1.2364   -2.4855    0.0715 C   0  0  0  0  0  0  0  0  0  0  0  0
   -0.3971   -3.0536    0.7452 O   0  0  0  0  0  0  0  0  0  0  0  0
   -0.9807   -1.2374   -0.4638 N   0  0  0  0  0  0  0  0  0  0  0  0
   -1.6791   -0.8732   -1.1049 H   0  0  0  0  0  0  0  0  0  0  0  0
    0.3294   -0.5567   -0.4045 C   0  0  1  0  0  0  0  0  0  0  0  0
    1.0923   -1.1870   -0.8757 H   0  0  0  0  0  0  0  0  0  0  0  0
    0.1832    0.7491   -1.2278 C   0  0  0  0  0  0  0  0  0  0  0  0
    0.4142    0.4927   -2.2678 H   0  0  0  0  0  0  0  0  0  0  0  0
   -0.8554    1.0960   -1.2042 H   0  0  0  0  0  0  0  0  0  0  0  0
    1.0698    1.9379   -0.7802 C   0  0  0  0  0  0  0  0  0  0  0  0
    0.5736    2.5068    0.0107 H   0  0  0  0  0  0  0  0  0  0  0  0
    2.0139    1.5604   -0.3775 H   0  0  0  0  0  0  0  0  0  0  0  0
    1.4533    2.8752   -1.9256 C   0  0  0  0  0  0  0  0  0  0  0  0
    0.6929    3.0007   -2.8724 O   0  0  0  0  0  0  0  0  0  0  0  0
    2.6249    3.5423   -1.8178 O   0  0  0  0  0  0  0  0  0  0  0  0
    2.7025    4.0812   -2.6193 H   0  0  0  0  0  0  0  0  0  0  0  0
    0.8028   -0.3139    1.0520 C   0  0  0  0  0  0  0  0  0  0  0  0
    1.9915   -0.3930    1.3336 O   0  0  0  0  0  0  0  0  0  0  0  0
   -0.0812    0.1765    1.9964 N   0  0  0  0  0  0  0  0  0  0  0  0
   -1.0658    0.1126    1.7611 H   0  0  0  0  0  0  0  0  0  0  0  0
    0.2974    0.4055    3.3851 C   0  0  0  0  0  0  0  0  0  0  0  0
    1.1281    1.1169    3.4437 H   0  0  0  0  0  0  0  0  0  0  0  0
   -0.5473    0.8169    3.9455 H   0  0  0  0  0  0  0  0  0  0  0  0
    0.6048   -0.5336    3.8573 H   0  0  0  0  0  0  0  0  0  0  0  0
  1  2  1  0  0  0  0
  2  3  1  0  0  0  0
  2  4  1  0  0  0  0
  2  5  1  0  0  0  0
  5  6  2  0  0  0  0
  5  7  1  0  0  0  0
  7  8  1  0  0  0  0
  7  9  1  0  0  0  0
  9 10  1  0  0  0  0
  9 11  1  0  0  0  0
  9 21  1  0  0  0  0
 11 12  1  0  0  0  0
 11 13  1  0  0  0  0
 11 14  1  0  0  0  0
 14 15  1  0  0  0  0
 14 16  1  0  0  0  0
 14 17  1  0  0  0  0
 17 18  2  0  0  0  0
 17 19  1  0  0  0  0
 19 20  1  0  0  0  0
 21 22  2  0  0  0  0
 21 23  1  0  0  0  0
 23 24  1  0  0  0  0
 23 25  1  0  0  0  0
 25 26  1  0  0  0  0
 25 27  1  0  0  0  0
 25 28  1  0  0  0  0
M  END
$$$$

  -OEChem-02102214123D

 28 27  0     1  0  0  0  0  0999 V2000
   -2.6255   -4.1327    0.2977 H   0  0  0  0  0  0  0  0  0  0  0  0
   -2.5926   -3.1547   -0.1908 C   0  0  0  0  0  0  0  0  0  0  0  0
   -3.3999   -2.5357    0.2075 H   0  0  0  0  0  0  0  0  0  0  0  0
   -2.7434   -3.2939   -1.2640 H   0  0  0  0  0  0  0  0  0  0  0  0
   -1.2531   -2.4898    0.0639 C   0  0  0  0  0  0  0  0  0  0  0  0
   -0.4113   -3.0609    0.7322 O   0  0  0  0  0  0  0  0  0  0  0  0
   -0.9989   -1.2391   -0.4653 N   0  0  0  0  0  0  0  0  0  0  0  0
   -1.7022   -0.8675   -1.0970 H   0  0  0  0  0  0  0  0  0  0  0  0
    0.3118   -0.5600   -0.4071 C   0  0  1  0  0  0  0  0  0  0  0  0
    1.0686   -1.1957   -0.8809 H   0  0  0  0  0  0  0  0  0  0  0  0
    0.1814    0.7449   -1.2324 C   0  0  0  0  0  0  0  0  0  0  0  0
    0.4140    0.5009   -2.2751 H   0  0  0  0  0  0  0  0  0  0  0  0
   -0.8545    1.0996   -1.2034 H   0  0  0  0  0  0  0  0  0  0  0  0
    1.0799    1.9153   -0.7688 C   0  0  0  0  0  0  0  0  0  0  0  0
    0.7040    2.3351    0.1685 H   0  0  0  0  0  0  0  0  0  0  0  0
    2.0924    1.5418   -0.5867 H   0  0  0  0  0  0  0  0  0  0  0  0
    1.1952    3.0401   -1.7982 C   0  0  0  0  0  0  0  0  0  0  0  0
    0.3574    3.1352   -2.6814 O   0  0  0  0  0  0  0  0  0  0  0  0
    2.2327    3.8967   -1.6615 O   0  0  0  0  0  0  0  0  0  0  0  0
    2.1506    4.5355   -2.3854 H   0  0  0  0  0  0  0  0  0  0  0  0
    0.8003   -0.3211    1.0445 C   0  0  0  0  0  0  0  0  0  0  0  0
    1.9951   -0.3745    1.3053 O   0  0  0  0  0  0  0  0  0  0  0  0
   -0.0745    0.1673    1.9985 N   0  0  0  0  0  0  0  0  0  0  0  0
   -1.0617    0.0911    1.7782 H   0  0  0  0  0  0  0  0  0  0  0  0
    0.3217    0.4113    3.3797 C   0  0  0  0  0  0  0  0  0  0  0  0
    1.1420    1.1356    3.4212 H   0  0  0  0  0  0  0  0  0  0  0  0
   -0.5206    0.8137    3.9501 H   0  0  0  0  0  0  0  0  0  0  0  0
    0.6503   -0.5198    3.8532 H   0  0  0  0  0  0  0  0  0  0  0  0
  1  2  1  0  0  0  0
  2  3  1  0  0  0  0
  2  4  1  0  0  0  0
  2  5  1  0  0  0  0
  5  6  2  0  0  0  0
  5  7  1  0  0  0  0
  7  8  1  0  0  0  0
  7  9  1  0  0  0  0
  9 10  1  0  0  0  0
  9 11  1  0  0  0  0
  9 21  1  0  0  0  0
 11 12  1  0  0  0  0
 11 13  1  0  0  0  0
 11 14  1  0  0  0  0
 14 15  1  0  0  0  0
 14 16  1  0  0  0  0
 14 17  1  0  0  0  0
 17 18  2  0  0  0  0
 17 19  1  0  0  0  0
 19 20  1  0  0  0  0
 21 22  2  0  0  0  0
 21 23  1  0  0  0  0
 23 24  1  0  0  0  0
 23 25  1  0  0  0  0
 25 26  1  0  0  0  0
 25 27  1  0  0  0  0
 25 28  1  0  0  0  0
M  END
$$$$

  -OEChem-02102214123D

 28 27  0     1  0  0  0  0  0999 V2000
   -2.6452   -4.1320    0.2718 H   0  0  0  0  0  0  0  0  0  0  0  0
   -2.6192   -3.1363   -0.1804 C   0  0  0  0  0  0  0  0  0  0  0  0
   -3.4143   -2.5301    0.2599 H   0  0  0  0  0  0  0  0  0  0  0  0
   -2.7950   -3.2349   -1.2544 H   0  0  0  0  0  0  0  0  0  0  0  0
   -1.2719   -2.4850    0.0687 C   0  0  0  0  0  0  0  0  0  0  0  0
   -0.4380   -3.0572    0.7458 O   0  0  0  0  0  0  0  0  0  0  0  0
   -1.0033   -1.2420   -0.4712 N   0  0  0  0  0  0  0  0  0  0  0  0
   -1.7027   -0.8660   -1.1046 H   0  0  0  0  0  0  0  0  0  0  0  0
    0.3132   -0.5754   -0.4147 C   0  0  1  0  0  0  0  0  0  0  0  0
    1.0629   -1.2200   -0.8875 H   0  0  0  0  0  0  0  0  0  0  0  0
    0.1870    0.7215   -1.2449 C   0  0  0  0  0  0  0  0  0  0  0  0
    0.1407    0.4530   -2.3060 H   0  0  0  0  0  0  0  0  0  0  0  0
   -0.7562    1.2147   -0.9852 H   0  0  0  0  0  0  0  0  0  0  0  0
    1.3262    1.7439   -1.0276 C   0  0  0  0  0  0  0  0  0  0  0  0
    1.3657    2.0508    0.0211 H   0  0  0  0  0  0  0  0  0  0  0  0
    2.2842    1.2764   -1.2730 H   0  0  0  0  0  0  0  0  0  0  0  0
    1.1770    3.0171   -1.8622 C   0  0  0  0  0  0  0  0  0  0  0  0
    0.2004    3.1619   -2.5810 O   0  0  0  0  0  0  0  0  0  0  0  0
    2.1601    3.9388   -1.7501 O   0  0  0  0  0  0  0  0  0  0  0  0
    1.9108    4.6696   -2.3353 H   0  0  0  0  0  0  0  0  0  0  0  0
    0.8093   -0.3224    1.0302 C   0  0  0  0  0  0  0  0  0  0  0  0
    2.0056   -0.3782    1.2841 O   0  0  0  0  0  0  0  0  0  0  0  0
   -0.0563    0.1868    1.9814 N   0  0  0  0  0  0  0  0  0  0  0  0
   -1.0451    0.1146    1.7663 H   0  0  0  0  0  0  0  0  0  0  0  0
    0.3465    0.4260    3.3617 C   0  0  0  0  0  0  0  0  0  0  0  0
    1.1705    1.1463    3.4019 H   0  0  0  0  0  0  0  0  0  0  0  0
   -0.4920    0.8304    3.9367 H   0  0  0  0  0  0  0  0  0  0  0  0
    0.6731   -0.5081    3.8314 H   0  0  0  0  0  0  0  0  0  0  0  0
  1  2  1  0  0  0  0
  2  3  1  0  0  0  0
  2  4  1  0  0  0  0
  2  5  1  0  0  0  0
  5  6  2  0  0  0  0
  5  7  1  0  0  0  0
  7  8  1  0  0  0  0
  7  9  1  0  0  0  0
  9 10  1  0  0  0  0
  9 11  1  0  0  0  0
  9 21  1  0  0  0  0
 11 12  1  0  0  0  0
 11 13  1  0  0  0  0
 11 14  1  0  0  0  0
 14 15  1  0  0  0  0
 14 16  1  0  0  0  0
 14 17  1  0  0  0  0
 17 18  2  0  0  0  0
 17 19  1  0  0  0  0
 19 20  1  0  0  0  0
 21 22  2  0  0  0  0
 21 23  1  0  0  0  0
 23 24  1  0  0  0  0
 23 25  1  0  0  0  0
 25 26  1  0  0  0  0
 25 27  1  0  0  0  0
 25 28  1  0  0  0  0
M  END
$$$$

  -OEChem-02102214123D

 28 27  0     1  0  0  0  0  0999 V2000
   -2.6724   -4.1041    0.2875 H   0  0  0  0  0  0  0  0  0  0  0  0
   -2.6344   -3.1100   -0.1677 C   0  0  0  0  0  0  0  0  0  0  0  0
   -3.4188   -2.4907    0.2739 H   0  0  0  0  0  0  0  0  0  0  0  0
   -2.8174   -3.2095   -1.2403 H   0  0  0  0  0  0  0  0  0  0  0  0
   -1.2760   -2.4781    0.0719 C   0  0  0  0  0  0  0  0  0  0  0  0
   -0.4439   -3.0650    0.7384 O   0  0  0  0  0  0  0  0  0  0  0  0
   -0.9947   -1.2370   -0.4659 N   0  0  0  0  0  0  0  0  0  0  0  0
   -1.6972   -0.8441   -1.0857 H   0  0  0  0  0  0  0  0  0  0  0  0
    0.3282   -0.5826   -0.4089 C   0  0  1  0  0  0  0  0  0  0  0  0
    1.0737   -1.2331   -0.8803 H   0  0  0  0  0  0  0  0  0  0  0  0
    0.2105    0.7130   -1.2456 C   0  0  0  0  0  0  0  0  0  0  0  0
    0.1407    0.4527   -2.3072 H   0  0  0  0  0  0  0  0  0  0  0  0
   -0.7293    1.2004   -0.9626 H   0  0  0  0  0  0  0  0  0  0  0  0
    1.3469    1.7476   -1.0509 C   0  0  0  0  0  0  0  0  0  0  0  0
    1.5617    1.8901    0.0106 H   0  0  0  0  0  0  0  0  0  0  0  0
    2.2613    1.3791   -1.5242 H   0  0  0  0  0  0  0  0  0  0  0  0
    1.0187    3.1357   -1.6047 C   0  0  0  0  0  0  0  0  0  0  0  0
    0.0080    3.3021   -2.2695 O   0  0  0  0  0  0  0  0  0  0  0  0
    1.8947    4.1270   -1.3247 O   0  0  0  0  0  0  0  0  0  0  0  0
    1.5438    4.9237   -1.7500 H   0  0  0  0  0  0  0  0  0  0  0  0
    0.8182   -0.3407    1.0400 C   0  0  0  0  0  0  0  0  0  0  0  0
    2.0113   -0.4169    1.3032 O   0  0  0  0  0  0  0  0  0  0  0  0
   -0.0484    0.1725    1.9881 N   0  0  0  0  0  0  0  0  0  0  0  0
   -1.0363    0.1149    1.7653 H   0  0  0  0  0  0  0  0  0  0  0  0
    0.3460    0.3960    3.3734 C   0  0  0  0  0  0  0  0  0  0  0  0
    1.1755    1.1091    3.4261 H   0  0  0  0  0  0  0  0  0  0  0  0
   -0.4933    0.8021    3.9459 H   0  0  0  0  0  0  0  0  0  0  0  0
    0.6607   -0.5448    3.8372 H   0  0  0  0  0  0  0  0  0  0  0  0
  1  2  1  0  0  0  0
  2  3  1  0  0  0  0
  2  4  1  0  0  0  0
  2  5  1  0  0  0  0
  5  6  2  0  0  0  0
  5  7  1  0  0  0  0
  7  8  1  0  0  0  0
  7  9  1  0  0  0  0
  9 10  1  0  0  0  0
  9 11  1  0  0  0  0
  9 21  1  0  0  0  0
 11 12  1  0  0  0  0
 11 13  1  0  0  0  0
 11 14  1  0  0  0  0
 14 15  1  0  0  0  0
 14 16  1  0  0  0  0
 14 17  1  0  0  0  0
 17 18  2  0  0  0  0
 17 19  1  0  0  0  0
 19 20  1  0  0  0  0
 21 22  2  0  0  0  0
 21 23  1  0  0  0  0
 23 24  1  0  0  0  0
 23 25  1  0  0  0  0
 25 26  1  0  0  0  0
 25 27  1  0  0  0  0
 25 28  1  0  0  0  0
M  END
$$$$

  -OEChem-02102214123D

 28 27  0     1  0  0  0  0  0999 V2000
   -2.7009   -4.0732    0.3284 H   0  0  0  0  0  0  0  0  0  0  0  0
   -2.6459   -3.0931   -0.1542 C   0  0  0  0  0  0  0  0  0  0  0  0
   -3.4242   -2.4511    0.2648 H   0  0  0  0  0  0  0  0  0  0  0  0
   -2.8222   -3.2189   -1.2250 H   0  0  0  0  0  0  0  0  0  0  0  0
   -1.2803   -2.4745    0.0777 C   0  0  0  0  0  0  0  0  0  0  0  0
   -0.4487   -3.0723    0.7351 O   0  0  0  0  0  0  0  0  0  0  0  0
   -0.9899   -1.2364   -0.4624 N   0  0  0  0  0  0  0  0  0  0  0  0
   -1.6921   -0.8364   -1.0778 H   0  0  0  0  0  0  0  0  0  0  0  0
    0.3389   -0.5930   -0.4089 C   0  0  1  0  0  0  0  0  0  0  0  0
    1.0793   -1.2490   -0.8806 H   0  0  0  0  0  0  0  0  0  0  0  0
    0.2223    0.7024   -1.2492 C   0  0  0  0  0  0  0  0  0  0  0  0
    0.1326    0.4439   -2.3096 H   0  0  0  0  0  0  0  0  0  0  0  0
   -0.7163    1.1821   -0.9503 H   0  0  0  0  0  0  0  0  0  0  0  0
    1.3566    1.7492   -1.0779 C   0  0  0  0  0  0  0  0  0  0  0  0
    1.7719    1.7189   -0.0694 H   0  0  0  0  0  0  0  0  0  0  0  0
    2.1735    1.5166   -1.7664 H   0  0  0  0  0  0  0  0  0  0  0  0
    0.9082    3.1957   -1.2991 C   0  0  0  0  0  0  0  0  0  0  0  0
   -0.1033    3.4226   -1.9445 O   0  0  0  0  0  0  0  0  0  0  0  0
    1.6848    4.1678   -0.7686 O   0  0  0  0  0  0  0  0  0  0  0  0
    1.2687    5.0082   -1.0124 H   0  0  0  0  0  0  0  0  0  0  0  0
    0.8270   -0.3564    1.0421 C   0  0  0  0  0  0  0  0  0  0  0  0
    2.0158   -0.4637    1.3141 O   0  0  0  0  0  0  0  0  0  0  0  0
   -0.0360    0.1637    1.9899 N   0  0  0  0  0  0  0  0  0  0  0  0
   -1.0236    0.1328    1.7609 H   0  0  0  0  0  0  0  0  0  0  0  0
    0.3587    0.3882    3.3750 C   0  0  0  0  0  0  0  0  0  0  0  0
    1.2030    1.0840    3.4253 H   0  0  0  0  0  0  0  0  0  0  0  0
   -0.4735    0.8165    3.9419 H   0  0  0  0  0  0  0  0  0  0  0  0
    0.6522   -0.5559    3.8462 H   0  0  0  0  0  0  0  0  0  0  0  0
  1  2  1  0  0  0  0
  2  3  1  0  0  0  0
  2  4  1  0  0  0  0
  2  5  1  0  0  0  0
  5  6  2  0  0  0  0
  5  7  1  0  0  0  0
  7  8  1  0  0  0  0
  7  9  1  0  0  0  0
  9 10  1  0  0  0  0
  9 11  1  0  0  0  0
  9 21  1  0  0  0  0
 11 12  1  0  0  0  0
 11 13  1  0  0  0  0
 11 14  1  0  0  0  0
 14 15  1  0  0  0  0
 14 16  1  0  0  0  0
 14 17  1  0  0  0  0
 17 18  2  0  0  0  0
 17 19  1  0  0  0  0
 19 20  1  0  0  0  0
 21 22  2  0  0  0  0
 21 23  1  0  0  0  0
 23 24  1  0  0  0  0
 23 25  1  0  0  0  0
 25 26  1  0  0  0  0
 25 27  1  0  0  0  0
 25 28  1  0  0  0  0
M  END
$$$$

  -OEChem-02102214123D

 28 27  0     1  0  0  0  0  0999 V2000
   -2.7223   -4.0400    0.3969 H   0  0  0  0  0  0  0  0  0  0  0  0
   -2.6481   -3.0835   -0.1286 C   0  0  0  0  0  0  0  0  0  0  0  0
   -3.4215   -2.4125    0.2524 H   0  0  0  0  0  0  0  0  0  0  0  0
   -2.8152   -3.2553   -1.1946 H   0  0  0  0  0  0  0  0  0  0  0  0
   -1.2762   -2.4734    0.0898 C   0  0  0  0  0  0  0  0  0  0  0  0
   -0.4450   -3.0725    0.7464 O   0  0  0  0  0  0  0  0  0  0  0  0
   -0.9802   -1.2425   -0.4639 N   0  0  0  0  0  0  0  0  0  0  0  0
   -1.6845   -0.8435   -1.0775 H   0  0  0  0  0  0  0  0  0  0  0  0
    0.3518   -0.6037   -0.4225 C   0  0  1  0  0  0  0  0  0  0  0  0
    1.0910   -1.2585   -0.8976 H   0  0  0  0  0  0  0  0  0  0  0  0
    0.2204    0.6945   -1.2568 C   0  0  0  0  0  0  0  0  0  0  0  0
    0.1241    0.4338   -2.3160 H   0  0  0  0  0  0  0  0  0  0  0  0
   -0.7216    1.1658   -0.9562 H   0  0  0  0  0  0  0  0  0  0  0  0
    1.3544    1.7465   -1.1023 C   0  0  0  0  0  0  0  0  0  0  0  0
    1.9853    1.5353   -0.2379 H   0  0  0  0  0  0  0  0  0  0  0  0
    2.0064    1.6992   -1.9785 H   0  0  0  0  0  0  0  0  0  0  0  0
    0.8522    3.1833   -0.9486 C   0  0  0  0  0  0  0  0  0  0  0  0
   -0.1446    3.5350   -1.5596 O   0  0  0  0  0  0  0  0  0  0  0  0
    1.5572    4.0057   -0.1387 O   0  0  0  0  0  0  0  0  0  0  0  0
    1.1089    4.8639   -0.1694 H   0  0  0  0  0  0  0  0  0  0  0  0
    0.8410   -0.3561    1.0271 C   0  0  0  0  0  0  0  0  0  0  0  0
    2.0245   -0.4924    1.3089 O   0  0  0  0  0  0  0  0  0  0  0  0
   -0.0198    0.1764    1.9699 N   0  0  0  0  0  0  0  0  0  0  0  0
   -1.0062    0.1654    1.7344 H   0  0  0  0  0  0  0  0  0  0  0  0
    0.3721    0.4058    3.3547 C   0  0  0  0  0  0  0  0  0  0  0  0
    1.2327    1.0817    3.4032 H   0  0  0  0  0  0  0  0  0  0  0  0
   -0.4527    0.8597    3.9121 H   0  0  0  0  0  0  0  0  0  0  0  0
    0.6398   -0.5403    3.8369 H   0  0  0  0  0  0  0  0  0  0  0  0
  1  2  1  0  0  0  0
  2  3  1  0  0  0  0
  2  4  1  0  0  0  0
  2  5  1  0  0  0  0
  5  6  2  0  0  0  0
  5  7  1  0  0  0  0
  7  8  1  0  0  0  0
  7  9  1  0  0  0  0
  9 10  1  0  0  0  0
  9 11  1  0  0  0  0
  9 21  1  0  0  0  0
 11 12  1  0  0  0  0
 11 13  1  0  0  0  0
 11 14  1  0  0  0  0
 14 15  1  0  0  0  0
 14 16  1  0  0  0  0
 14 17  1  0  0  0  0
 17 18  2  0  0  0  0
 17 19  1  0  0  0  0
 19 20  1  0  0  0  0
 21 22  2  0  0  0  0
 21 23  1  0  0  0  0
 23 24  1  0  0  0  0
 23 25  1  0  0  0  0
 25 26  1  0  0  0  0
 25 27  1  0  0  0  0
 25 28  1  0  0  0  0
M  END
$$$$

  -OEChem-02102214123D

 28 27  0     1  0  0  0  0  0999 V2000
   -2.7479   -4.0527    0.2950 H   0  0  0  0  0  0  0  0  0  0  0  0
   -2.6702   -3.0711   -0.1813 C   0  0  0  0  0  0  0  0  0  0  0  0
   -3.3863   -2.3944    0.2909 H   0  0  0  0  0  0  0  0  0  0  0  0
   -2.9180   -3.1742   -1.2404 H   0  0  0  0  0  0  0  0  0  0  0  0
   -1.2619   -2.5278   -0.0281 C   0  0  0  0  0  0  0  0  0  0  0  0
   -0.4082   -3.2025    0.5175 O   0  0  0  0  0  0  0  0  0  0  0  0
   -0.9537   -1.2766   -0.5261 N   0  0  0  0  0  0  0  0  0  0  0  0
   -1.6961   -0.7792   -1.0073 H   0  0  0  0  0  0  0  0  0  0  0  0
    0.3720   -0.6370   -0.4118 C   0  0  1  0  0  0  0  0  0  0  0  0
    1.1312   -1.2698   -0.8855 H   0  0  0  0  0  0  0  0  0  0  0  0
    0.2656    0.6951   -1.1906 C   0  0  0  0  0  0  0  0  0  0  0  0
    0.2558    0.4592   -2.2599 H   0  0  0  0  0  0  0  0  0  0  0  0
   -0.7009    1.1586   -0.9663 H   0  0  0  0  0  0  0  0  0  0  0  0
    1.4028    1.7199   -0.9288 C   0  0  0  0  0  0  0  0  0  0  0  0
    2.1774    1.3212   -0.2710 H   0  0  0  0  0  0  0  0  0  0  0  0
    1.8954    1.9273   -1.8833 H   0  0  0  0  0  0  0  0  0  0  0  0
    0.9205    3.0557   -0.3600 C   0  0  0  0  0  0  0  0  0  0  0  0
    0.0120    3.0660    0.4560 O   0  0  0  0  0  0  0  0  0  0  0  0
    1.5338    4.1762   -0.8052 O   0  0  0  0  0  0  0  0  0  0  0  0
    1.1206    4.9133   -0.3306 H   0  0  0  0  0  0  0  0  0  0  0  0
    0.8068   -0.4403    1.0640 C   0  0  0  0  0  0  0  0  0  0  0  0
    1.9756   -0.6061    1.3890 O   0  0  0  0  0  0  0  0  0  0  0  0
   -0.0860    0.0564    1.9961 N   0  0  0  0  0  0  0  0  0  0  0  0
   -1.0089    0.3083    1.6602 H   0  0  0  0  0  0  0  0  0  0  0  0
    0.2972    0.4211    3.3533 C   0  0  0  0  0  0  0  0  0  0  0  0
    1.0273    1.2371    3.3380 H   0  0  0  0  0  0  0  0  0  0  0  0
   -0.5799    0.7501    3.9185 H   0  0  0  0  0  0  0  0  0  0  0  0
    0.7383   -0.4381    3.8699 H   0  0  0  0  0  0  0  0  0  0  0  0
  1  2  1  0  0  0  0
  2  3  1  0  0  0  0
  2  4  1  0  0  0  0
  2  5  1  0  0  0  0
  5  6  2  0  0  0  0
  5  7  1  0  0  0  0
  7  8  1  0  0  0  0
  7  9  1  0  0  0  0
  9 10  1  0  0  0  0
  9 11  1  0  0  0  0
  9 21  1  0  0  0  0
 11 12  1  0  0  0  0
 11 13  1  0  0  0  0
 11 14  1  0  0  0  0
 14 15  1  0  0  0  0
 14 16  1  0  0  0  0
 14 17  1  0  0  0  0
 17 18  2  0  0  0  0
 17 19  1  0  0  0  0
 19 20  1  0  0  0  0
 21 22  2  0  0  0  0
 21 23  1  0  0  0  0
 23 24  1  0  0  0  0
 23 25  1  0  0  0  0
 25 26  1  0  0  0  0
 25 27  1  0  0  0  0
 25 28  1  0  0  0  0
M  END
$$$$

  -OEChem-02102214123D

 28 27  0     1  0  0  0  0  0999 V2000
   -2.7089   -4.1071    0.2967 H   0  0  0  0  0  0  0  0  0  0  0  0
   -2.6588   -3.1119   -0.1547 C   0  0  0  0  0  0  0  0  0  0  0  0
   -3.3751   -2.4605    0.3514 H   0  0  0  0  0  0  0  0  0  0  0  0
   -2.9286   -3.1907   -1.2105 H   0  0  0  0  0  0  0  0  0  0  0  0
   -1.2571   -2.5477   -0.0189 C   0  0  0  0  0  0  0  0  0  0  0  0
   -0.3851   -3.2098    0.5132 O   0  0  0  0  0  0  0  0  0  0  0  0
   -0.9748   -1.2929   -0.5224 N   0  0  0  0  0  0  0  0  0  0  0  0
   -1.7342   -0.8017   -0.9832 H   0  0  0  0  0  0  0  0  0  0  0  0
    0.3409   -0.6325   -0.4223 C   0  0  1  0  0  0  0  0  0  0  0  0
    1.1015   -1.2635   -0.8960 H   0  0  0  0  0  0  0  0  0  0  0  0
    0.2234    0.6870   -1.2193 C   0  0  0  0  0  0  0  0  0  0  0  0
    0.2427    0.4250   -2.2825 H   0  0  0  0  0  0  0  0  0  0  0  0
   -0.7507    1.1507   -1.0336 H   0  0  0  0  0  0  0  0  0  0  0  0
    1.3584    1.7112   -0.9574 C   0  0  0  0  0  0  0  0  0  0  0  0
    2.2422    1.2244   -0.5369 H   0  0  0  0  0  0  0  0  0  0  0  0
    1.6648    2.1215   -1.9236 H   0  0  0  0  0  0  0  0  0  0  0  0
    0.9765    2.9080   -0.0801 C   0  0  0  0  0  0  0  0  0  0  0  0
   -0.0720    2.9026    0.5470 O   0  0  0  0  0  0  0  0  0  0  0  0
    1.8474    3.9422   -0.0598 O   0  0  0  0  0  0  0  0  0  0  0  0
    1.4723    4.5969    0.5481 H   0  0  0  0  0  0  0  0  0  0  0  0
    0.7972   -0.4207    1.0445 C   0  0  0  0  0  0  0  0  0  0  0  0
    1.9780   -0.5452    1.3440 O   0  0  0  0  0  0  0  0  0  0  0  0
   -0.0855    0.0660    1.9913 N   0  0  0  0  0  0  0  0  0  0  0  0
   -1.0111    0.3214    1.6648 H   0  0  0  0  0  0  0  0  0  0  0  0
    0.3214    0.4568    3.3345 C   0  0  0  0  0  0  0  0  0  0  0  0
    1.0372    1.2844    3.2918 H   0  0  0  0  0  0  0  0  0  0  0  0
   -0.5486    0.7793    3.9142 H   0  0  0  0  0  0  0  0  0  0  0  0
    0.7881   -0.3871    3.8537 H   0  0  0  0  0  0  0  0  0  0  0  0
  1  2  1  0  0  0  0
  2  3  1  0  0  0  0
  2  4  1  0  0  0  0
  2  5  1  0  0  0  0
  5  6  2  0  0  0  0
  5  7  1  0  0  0  0
  7  8  1  0  0  0  0
  7  9  1  0  0  0  0
  9 10  1  0  0  0  0
  9 11  1  0  0  0  0
  9 21  1  0  0  0  0
 11 12  1  0  0  0  0
 11 13  1  0  0  0  0
 11 14  1  0  0  0  0
 14 15  1  0  0  0  0
 14 16  1  0  0  0  0
 14 17  1  0  0  0  0
 17 18  2  0  0  0  0
 17 19  1  0  0  0  0
 19 20  1  0  0  0  0
 21 22  2  0  0  0  0
 21 23  1  0  0  0  0
 23 24  1  0  0  0  0
 23 25  1  0  0  0  0
 25 26  1  0  0  0  0
 25 27  1  0  0  0  0
 25 28  1  0  0  0  0
M  END
$$$$

  -OEChem-02102214123D

 28 27  0     1  0  0  0  0  0999 V2000
   -2.6710   -4.1407    0.2965 H   0  0  0  0  0  0  0  0  0  0  0  0
   -2.6430   -3.1399   -0.1442 C   0  0  0  0  0  0  0  0  0  0  0  0
   -3.3717   -2.5093    0.3704 H   0  0  0  0  0  0  0  0  0  0  0  0
   -2.9139   -3.2137   -1.2002 H   0  0  0  0  0  0  0  0  0  0  0  0
   -1.2532   -2.5482   -0.0048 C   0  0  0  0  0  0  0  0  0  0  0  0
   -0.3716   -3.1918    0.5341 O   0  0  0  0  0  0  0  0  0  0  0  0
   -0.9917   -1.2888   -0.5086 N   0  0  0  0  0  0  0  0  0  0  0  0
   -1.7566   -0.8124   -0.9762 H   0  0  0  0  0  0  0  0  0  0  0  0
    0.3181   -0.6149   -0.4225 C   0  0  1  0  0  0  0  0  0  0  0  0
    1.0758   -1.2507   -0.8950 H   0  0  0  0  0  0  0  0  0  0  0  0
    0.2049    0.6908   -1.2434 C   0  0  0  0  0  0  0  0  0  0  0  0
    0.2274    0.4114   -2.3019 H   0  0  0  0  0  0  0  0  0  0  0  0
   -0.7662    1.1639   -1.0650 H   0  0  0  0  0  0  0  0  0  0  0  0
    1.3367    1.7184   -0.9940 C   0  0  0  0  0  0  0  0  0  0  0  0
    2.2775    1.1959   -0.7954 H   0  0  0  0  0  0  0  0  0  0  0  0
    1.4818    2.2968   -1.9103 H   0  0  0  0  0  0  0  0  0  0  0  0
    1.0834    2.7323    0.1269 C   0  0  0  0  0  0  0  0  0  0  0  0
   -0.0350    2.8505    0.6050 O   0  0  0  0  0  0  0  0  0  0  0  0
    2.1386    3.4858    0.5107 O   0  0  0  0  0  0  0  0  0  0  0  0
    1.8189    4.0503    1.2298 H   0  0  0  0  0  0  0  0  0  0  0  0
    0.7935   -0.4007    1.0370 C   0  0  0  0  0  0  0  0  0  0  0  0
    1.9845   -0.4809    1.3084 O   0  0  0  0  0  0  0  0  0  0  0  0
   -0.0795    0.0742    1.9988 N   0  0  0  0  0  0  0  0  0  0  0  0
   -1.0240    0.2875    1.6964 H   0  0  0  0  0  0  0  0  0  0  0  0
    0.3425    0.4713    3.3355 C   0  0  0  0  0  0  0  0  0  0  0  0
    1.0581    1.2983    3.2810 H   0  0  0  0  0  0  0  0  0  0  0  0
   -0.5203    0.7974    3.9238 H   0  0  0  0  0  0  0  0  0  0  0  0
    0.8150   -0.3705    3.8530 H   0  0  0  0  0  0  0  0  0  0  0  0
  1  2  1  0  0  0  0
  2  3  1  0  0  0  0
  2  4  1  0  0  0  0
  2  5  1  0  0  0  0
  5  6  2  0  0  0  0
  5  7  1  0  0  0  0
  7  8  1  0  0  0  0
  7  9  1  0  0  0  0
  9 10  1  0  0  0  0
  9 11  1  0  0  0  0
  9 21  1  0  0  0  0
 11 12  1  0  0  0  0
 11 13  1  0  0  0  0
 11 14  1  0  0  0  0
 14 15  1  0  0  0  0
 14 16  1  0  0  0  0
 14 17  1  0  0  0  0
 17 18  2  0  0  0  0
 17 19  1  0  0  0  0
 19 20  1  0  0  0  0
 21 22  2  0  0  0  0
 21 23  1  0  0  0  0
 23 24  1  0  0  0  0
 23 25  1  0  0  0  0
 25 26  1  0  0  0  0
 25 27  1  0  0  0  0
 25 28  1  0  0  0  0
M  END
$$$$

  -OEChem-02102214123D

 28 27  0     1  0  0  0  0  0999 V2000
   -2.6640   -4.1424    0.2772 H   0  0  0  0  0  0  0  0  0  0  0  0
   -2.6378   -3.1356   -0.1494 C   0  0  0  0  0  0  0  0  0  0  0  0
   -3.3709   -2.5147    0.3708 H   0  0  0  0  0  0  0  0  0  0  0  0
   -2.9041   -3.1958   -1.2073 H   0  0  0  0  0  0  0  0  0  0  0  0
   -1.2503   -2.5409    0.0031 C   0  0  0  0  0  0  0  0  0  0  0  0
   -0.3690   -3.1869    0.5397 O   0  0  0  0  0  0  0  0  0  0  0  0
   -0.9909   -1.2755   -0.4864 N   0  0  0  0  0  0  0  0  0  0  0  0
   -1.7552   -0.7986   -0.9545 H   0  0  0  0  0  0  0  0  0  0  0  0
    0.3179   -0.5995   -0.3976 C   0  0  1  0  0  0  0  0  0  0  0  0
    1.0725   -1.2452   -0.8617 H   0  0  0  0  0  0  0  0  0  0  0  0
    0.2212    0.6863   -1.2563 C   0  0  0  0  0  0  0  0  0  0  0  0
    0.2383    0.3817   -2.3080 H   0  0  0  0  0  0  0  0  0  0  0  0
   -0.7464    1.1681   -1.0786 H   0  0  0  0  0  0  0  0  0  0  0  0
    1.3322    1.7430   -1.0441 C   0  0  0  0  0  0  0  0  0  0  0  0
    2.3045    1.2404   -1.0561 H   0  0  0  0  0  0  0  0  0  0  0  0
    1.3175    2.4434   -1.8832 H   0  0  0  0  0  0  0  0  0  0  0  0
    1.2336    2.5719    0.2380 C   0  0  0  0  0  0  0  0  0  0  0  0
    0.1307    2.8159    0.7038 O   0  0  0  0  0  0  0  0  0  0  0  0
    2.3872    3.0420    0.7633 O   0  0  0  0  0  0  0  0  0  0  0  0
    2.1439    3.5126    1.5736 H   0  0  0  0  0  0  0  0  0  0  0  0
    0.7987   -0.4006    1.0610 C   0  0  0  0  0  0  0  0  0  0  0  0
    1.9925   -0.4713    1.3215 O   0  0  0  0  0  0  0  0  0  0  0  0
   -0.0692    0.0604    2.0339 N   0  0  0  0  0  0  0  0  0  0  0  0
   -1.0253    0.2443    1.7498 H   0  0  0  0  0  0  0  0  0  0  0  0
    0.3525    0.4138    3.3826 C   0  0  0  0  0  0  0  0  0  0  0  0
    1.0805    1.2310    3.3540 H   0  0  0  0  0  0  0  0  0  0  0  0
   -0.5081    0.7369    3.9757 H   0  0  0  0  0  0  0  0  0  0  0  0
    0.8097   -0.4493    3.8779 H   0  0  0  0  0  0  0  0  0  0  0  0
  1  2  1  0  0  0  0
  2  3  1  0  0  0  0
  2  4  1  0  0  0  0
  2  5  1  0  0  0  0
  5  6  2  0  0  0  0
  5  7  1  0  0  0  0
  7  8  1  0  0  0  0
  7  9  1  0  0  0  0
  9 10  1  0  0  0  0
  9 11  1  0  0  0  0
  9 21  1  0  0  0  0
 11 12  1  0  0  0  0
 11 13  1  0  0  0  0
 11 14  1  0  0  0  0
 14 15  1  0  0  0  0
 14 16  1  0  0  0  0
 14 17  1  0  0  0  0
 17 18  2  0  0  0  0
 17 19  1  0  0  0  0
 19 20  1  0  0  0  0
 21 22  2  0  0  0  0
 21 23  1  0  0  0  0
 23 24  1  0  0  0  0
 23 25  1  0  0  0  0
 25 26  1  0  0  0  0
 25 27  1  0  0  0  0
 25 28  1  0  0  0  0
M  END
$$$$

  -OEChem-02102214123D

 28 27  0     1  0  0  0  0  0999 V2000
   -2.6671   -4.1296    0.2736 H   0  0  0  0  0  0  0  0  0  0  0  0
   -2.6338   -3.1213   -0.1493 C   0  0  0  0  0  0  0  0  0  0  0  0
   -3.3587   -2.4958    0.3769 H   0  0  0  0  0  0  0  0  0  0  0  0
   -2.9060   -3.1751   -1.2061 H   0  0  0  0  0  0  0  0  0  0  0  0
   -1.2404   -2.5401   -0.0003 C   0  0  0  0  0  0  0  0  0  0  0  0
   -0.3616   -3.1992    0.5241 O   0  0  0  0  0  0  0  0  0  0  0  0
   -0.9743   -1.2702   -0.4750 N   0  0  0  0  0  0  0  0  0  0  0  0
   -1.7374   -0.7829   -0.9340 H   0  0  0  0  0  0  0  0  0  0  0  0
    0.3365   -0.5987   -0.3737 C   0  0  1  0  0  0  0  0  0  0  0  0
    1.0927   -1.2487   -0.8295 H   0  0  0  0  0  0  0  0  0  0  0  0
    0.2488    0.6784   -1.2529 C   0  0  0  0  0  0  0  0  0  0  0  0
    0.2438    0.3620   -2.3011 H   0  0  0  0  0  0  0  0  0  0  0  0
   -0.7156    1.1588   -1.0558 H   0  0  0  0  0  0  0  0  0  0  0  0
    1.3281    1.7775   -1.0899 C   0  0  0  0  0  0  0  0  0  0  0  0
    2.2984    1.3368   -1.3385 H   0  0  0  0  0  0  0  0  0  0  0  0
    1.1365    2.5730   -1.8150 H   0  0  0  0  0  0  0  0  0  0  0  0
    1.4587    2.4283    0.2847 C   0  0  0  0  0  0  0  0  0  0  0  0
    0.4370    2.7619    0.8647 O   0  0  0  0  0  0  0  0  0  0  0  0
    2.7032    2.6613    0.7594 O   0  0  0  0  0  0  0  0  0  0  0  0
    2.5903    3.0215    1.6509 H   0  0  0  0  0  0  0  0  0  0  0  0
    0.7964   -0.4248    1.0950 C   0  0  0  0  0  0  0  0  0  0  0  0
    1.9828   -0.5260    1.3777 O   0  0  0  0  0  0  0  0  0  0  0  0
   -0.0843    0.0232    2.0628 N   0  0  0  0  0  0  0  0  0  0  0  0
   -1.0362    0.2133    1.7698 H   0  0  0  0  0  0  0  0  0  0  0  0
    0.3121    0.3228    3.4322 C   0  0  0  0  0  0  0  0  0  0  0  0
    1.0537    1.1280    3.4487 H   0  0  0  0  0  0  0  0  0  0  0  0
   -0.5565    0.6397    4.0169 H   0  0  0  0  0  0  0  0  0  0  0  0
    0.7439   -0.5645    3.9072 H   0  0  0  0  0  0  0  0  0  0  0  0
  1  2  1  0  0  0  0
  2  3  1  0  0  0  0
  2  4  1  0  0  0  0
  2  5  1  0  0  0  0
  5  6  2  0  0  0  0
  5  7  1  0  0  0  0
  7  8  1  0  0  0  0
  7  9  1  0  0  0  0
  9 10  1  0  0  0  0
  9 11  1  0  0  0  0
  9 21  1  0  0  0  0
 11 12  1  0  0  0  0
 11 13  1  0  0  0  0
 11 14  1  0  0  0  0
 14 15  1  0  0  0  0
 14 16  1  0  0  0  0
 14 17  1  0  0  0  0
 17 18  2  0  0  0  0
 17 19  1  0  0  0  0
 19 20  1  0  0  0  0
 21 22  2  0  0  0  0
 21 23  1  0  0  0  0
 23 24  1  0  0  0  0
 23 25  1  0  0  0  0
 25 26  1  0  0  0  0
 25 27  1  0  0  0  0
 25 28  1  0  0  0  0
M  END
$$$$

  -OEChem-02102214123D

 28 27  0     1  0  0  0  0  0999 V2000
   -2.6798   -4.1169    0.2521 H   0  0  0  0  0  0  0  0  0  0  0  0
   -2.6336   -3.1058   -0.1628 C   0  0  0  0  0  0  0  0  0  0  0  0
   -3.3617   -2.4793    0.3578 H   0  0  0  0  0  0  0  0  0  0  0  0
   -2.8906   -3.1501   -1.2239 H   0  0  0  0  0  0  0  0  0  0  0  0
   -1.2389   -2.5350    0.0105 C   0  0  0  0  0  0  0  0  0  0  0  0
   -0.3744   -3.2020    0.5480 O   0  0  0  0  0  0  0  0  0  0  0  0
   -0.9554   -1.2680   -0.4629 N   0  0  0  0  0  0  0  0  0  0  0  0
   -1.7044   -0.7835   -0.9472 H   0  0  0  0  0  0  0  0  0  0  0  0
    0.3624   -0.6086   -0.3557 C   0  0  1  0  0  0  0  0  0  0  0  0
    1.1212   -1.2559   -0.8106 H   0  0  0  0  0  0  0  0  0  0  0  0
    0.2641    0.6745   -1.2309 C   0  0  0  0  0  0  0  0  0  0  0  0
    0.2190    0.3636   -2.2799 H   0  0  0  0  0  0  0  0  0  0  0  0
   -0.6953    1.1465   -0.9929 H   0  0  0  0  0  0  0  0  0  0  0  0
    1.3162    1.8093   -1.1152 C   0  0  0  0  0  0  0  0  0  0  0  0
    2.2227    1.4664   -1.6228 H   0  0  0  0  0  0  0  0  0  0  0  0
    0.9540    2.6841   -1.6622 H   0  0  0  0  0  0  0  0  0  0  0  0
    1.7400    2.2711    0.2740 C   0  0  0  0  0  0  0  0  0  0  0  0
    0.8762    2.7075    1.0180 O   0  0  0  0  0  0  0  0  0  0  0  0
    3.0542    2.2214    0.5889 O   0  0  0  0  0  0  0  0  0  0  0  0
    3.1158    2.4449    1.5293 H   0  0  0  0  0  0  0  0  0  0  0  0
    0.7945   -0.4496    1.1239 C   0  0  0  0  0  0  0  0  0  0  0  0
    1.9663   -0.6030    1.4422 O   0  0  0  0  0  0  0  0  0  0  0  0
   -0.1033    0.0018    2.0747 N   0  0  0  0  0  0  0  0  0  0  0  0
   -1.0485    0.1963    1.7647 H   0  0  0  0  0  0  0  0  0  0  0  0
    0.2589    0.2603    3.4620 C   0  0  0  0  0  0  0  0  0  0  0  0
    1.0109    1.0539    3.5193 H   0  0  0  0  0  0  0  0  0  0  0  0
   -0.6209    0.5754    4.0305 H   0  0  0  0  0  0  0  0  0  0  0  0
    0.6643   -0.6452    3.9260 H   0  0  0  0  0  0  0  0  0  0  0  0
  1  2  1  0  0  0  0
  2  3  1  0  0  0  0
  2  4  1  0  0  0  0
  2  5  1  0  0  0  0
  5  6  2  0  0  0  0
  5  7  1  0  0  0  0
  7  8  1  0  0  0  0
  7  9  1  0  0  0  0
  9 10  1  0  0  0  0
  9 11  1  0  0  0  0
  9 21  1  0  0  0  0
 11 12  1  0  0  0  0
 11 13  1  0  0  0  0
 11 14  1  0  0  0  0
 14 15  1  0  0  0  0
 14 16  1  0  0  0  0
 14 17  1  0  0  0  0
 17 18  2  0  0  0  0
 17 19  1  0  0  0  0
 19 20  1  0  0  0  0
 21 22  2  0  0  0  0
 21 23  1  0  0  0  0
 23 24  1  0  0  0  0
 23 25  1  0  0  0  0
 25 26  1  0  0  0  0
 25 27  1  0  0  0  0
 25 28  1  0  0  0  0
M  END
$$$$

  -OEChem-02102214123D

 28 27  0     1  0  0  0  0  0999 V2000
   -2.6935   -4.0875    0.2589 H   0  0  0  0  0  0  0  0  0  0  0  0
   -2.6323   -3.0806   -0.1641 C   0  0  0  0  0  0  0  0  0  0  0  0
   -3.3542   -2.4402    0.3480 H   0  0  0  0  0  0  0  0  0  0  0  0
   -2.8856   -3.1304   -1.2257 H   0  0  0  0  0  0  0  0  0  0  0  0
   -1.2311   -2.5266    0.0105 C   0  0  0  0  0  0  0  0  0  0  0  0
   -0.3776   -3.2023    0.5543 O   0  0  0  0  0  0  0  0  0  0  0  0
   -0.9309   -1.2648   -0.4672 N   0  0  0  0  0  0  0  0  0  0  0  0
   -1.6690   -0.7801   -0.9680 H   0  0  0  0  0  0  0  0  0  0  0  0
    0.3938   -0.6176   -0.3547 C   0  0  1  0  0  0  0  0  0  0  0  0
    1.1566   -1.2574   -0.8133 H   0  0  0  0  0  0  0  0  0  0  0  0
    0.2760    0.6819   -1.2069 C   0  0  0  0  0  0  0  0  0  0  0  0
    0.1968    0.3887   -2.2592 H   0  0  0  0  0  0  0  0  0  0  0  0
   -0.6787    1.1415   -0.9299 H   0  0  0  0  0  0  0  0  0  0  0  0
    1.3089    1.8400   -1.1130 C   0  0  0  0  0  0  0  0  0  0  0  0
    2.0892    1.6373   -1.8525 H   0  0  0  0  0  0  0  0  0  0  0  0
    0.8237    2.7725   -1.4149 H   0  0  0  0  0  0  0  0  0  0  0  0
    2.0290    2.0889    0.2050 C   0  0  0  0  0  0  0  0  0  0  0  0
    1.4014    2.6177    1.1081 O   0  0  0  0  0  0  0  0  0  0  0  0
    3.3298    1.7308    0.2935 O   0  0  0  0  0  0  0  0  0  0  0  0
    3.5645    1.8049    1.2314 H   0  0  0  0  0  0  0  0  0  0  0  0
    0.7992   -0.4647    1.1346 C   0  0  0  0  0  0  0  0  0  0  0  0
    1.9521   -0.6749    1.4895 O   0  0  0  0  0  0  0  0  0  0  0  0
   -0.1152   -0.0032    2.0647 N   0  0  0  0  0  0  0  0  0  0  0  0
   -1.0574    0.1794    1.7395 H   0  0  0  0  0  0  0  0  0  0  0  0
    0.2117    0.2223    3.4664 C   0  0  0  0  0  0  0  0  0  0  0  0
    0.9974    0.9796    3.5589 H   0  0  0  0  0  0  0  0  0  0  0  0
   -0.6710    0.5723    4.0098 H   0  0  0  0  0  0  0  0  0  0  0  0
    0.5592   -0.7064    3.9314 H   0  0  0  0  0  0  0  0  0  0  0  0
  1  2  1  0  0  0  0
  2  3  1  0  0  0  0
  2  4  1  0  0  0  0
  2  5  1  0  0  0  0
  5  6  2  0  0  0  0
  5  7  1  0  0  0  0
  7  8  1  0  0  0  0
  7  9  1  0  0  0  0
  9 10  1  0  0  0  0
  9 11  1  0  0  0  0
  9 21  1  0  0  0  0
 11 12  1  0  0  0  0
 11 13  1  0  0  0  0
 11 14  1  0  0  0  0
 14 15  1  0  0  0  0
 14 16  1  0  0  0  0
 14 17  1  0  0  0  0
 17 18  2  0  0  0  0
 17 19  1  0  0  0  0
 19 20  1  0  0  0  0
 21 22  2  0  0  0  0
 21 23  1  0  0  0  0
 23 24  1  0  0  0  0
 23 25  1  0  0  0  0
 25 26  1  0  0  0  0
 25 27  1  0  0  0  0
 25 28  1  0  0  0  0
M  END
$$$$

  -OEChem-02102214123D

 28 27  0     1  0  0  0  0  0999 V2000
   -2.5640   -4.1699    0.2597 H   0  0  0  0  0  0  0  0  0  0  0  0
   -2.5274   -3.1646   -0.1702 C   0  0  0  0  0  0  0  0  0  0  0  0
   -3.2868   -2.5473    0.3153 H   0  0  0  0  0  0  0  0  0  0  0  0
   -2.7482   -3.2321   -1.2382 H   0  0  0  0  0  0  0  0  0  0  0  0
   -1.1528   -2.5581    0.0395 C   0  0  0  0  0  0  0  0  0  0  0  0
   -0.2944   -3.1950    0.6206 O   0  0  0  0  0  0  0  0  0  0  0  0
   -0.8817   -1.2962   -0.4553 N   0  0  0  0  0  0  0  0  0  0  0  0
   -1.6161   -0.8567   -1.0011 H   0  0  0  0  0  0  0  0  0  0  0  0
    0.4262   -0.6133   -0.3490 C   0  0  1  0  0  0  0  0  0  0  0  0
    1.2109   -1.2248   -0.8092 H   0  0  0  0  0  0  0  0  0  0  0  0
    0.2448    0.6862   -1.1926 C   0  0  0  0  0  0  0  0  0  0  0  0
    0.1647    0.3911   -2.2442 H   0  0  0  0  0  0  0  0  0  0  0  0
   -0.7260    1.1054   -0.9060 H   0  0  0  0  0  0  0  0  0  0  0  0
    1.2311    1.8875   -1.1143 C   0  0  0  0  0  0  0  0  0  0  0  0
    1.8388    1.8747   -2.0238 H   0  0  0  0  0  0  0  0  0  0  0  0
    0.6567    2.8186   -1.1341 H   0  0  0  0  0  0  0  0  0  0  0  0
    2.2113    1.9602    0.0465 C   0  0  0  0  0  0  0  0  0  0  0  0
    1.8706    2.5636    1.0508 O   0  0  0  0  0  0  0  0  0  0  0  0
    3.4063    1.3460   -0.1032 O   0  0  0  0  0  0  0  0  0  0  0  0
    3.7975    1.3120    0.7846 H   0  0  0  0  0  0  0  0  0  0  0  0
    0.8196   -0.4300    1.1417 C   0  0  0  0  0  0  0  0  0  0  0  0
    1.9651   -0.6480    1.5176 O   0  0  0  0  0  0  0  0  0  0  0  0
   -0.1119    0.0216    2.0591 N   0  0  0  0  0  0  0  0  0  0  0  0
   -1.0619    0.1509    1.7314 H   0  0  0  0  0  0  0  0  0  0  0  0
    0.1951    0.2440    3.4658 C   0  0  0  0  0  0  0  0  0  0  0  0
    0.9852    0.9955    3.5701 H   0  0  0  0  0  0  0  0  0  0  0  0
   -0.6929    0.6012    3.9955 H   0  0  0  0  0  0  0  0  0  0  0  0
    0.5291   -0.6870    3.9361 H   0  0  0  0  0  0  0  0  0  0  0  0
  1  2  1  0  0  0  0
  2  3  1  0  0  0  0
  2  4  1  0  0  0  0
  2  5  1  0  0  0  0
  5  6  2  0  0  0  0
  5  7  1  0  0  0  0
  7  8  1  0  0  0  0
  7  9  1  0  0  0  0
  9 10  1  0  0  0  0
  9 11  1  0  0  0  0
  9 21  1  0  0  0  0
 11 12  1  0  0  0  0
 11 13  1  0  0  0  0
 11 14  1  0  0  0  0
 14 15  1  0  0  0  0
 14 16  1  0  0  0  0
 14 17  1  0  0  0  0
 17 18  2  0  0  0  0
 17 19  1  0  0  0  0
 19 20  1  0  0  0  0
 21 22  2  0  0  0  0
 21 23  1  0  0  0  0
 23 24  1  0  0  0  0
 23 25  1  0  0  0  0
 25 26  1  0  0  0  0
 25 27  1  0  0  0  0
 25 28  1  0  0  0  0
M  END
$$$$

  -OEChem-02102214123D

 28 27  0     1  0  0  0  0  0999 V2000
   -2.6985   -4.0589    0.5642 H   0  0  0  0  0  0  0  0  0  0  0  0
   -2.6294   -3.0941    0.0532 C   0  0  0  0  0  0  0  0  0  0  0  0
   -3.3636   -2.4124    0.4892 H   0  0  0  0  0  0  0  0  0  0  0  0
   -2.8594   -3.2414   -1.0048 H   0  0  0  0  0  0  0  0  0  0  0  0
   -1.2329   -2.5220    0.2074 C   0  0  0  0  0  0  0  0  0  0  0  0
   -0.4002   -3.1325    0.8503 O   0  0  0  0  0  0  0  0  0  0  0  0
   -0.9214   -1.3163   -0.3936 N   0  0  0  0  0  0  0  0  0  0  0  0
   -1.6327   -0.9248   -1.0031 H   0  0  0  0  0  0  0  0  0  0  0  0
    0.4237   -0.6981   -0.4014 C   0  0  1  0  0  0  0  0  0  0  0  0
    1.1583   -1.3657   -0.8666 H   0  0  0  0  0  0  0  0  0  0  0  0
    0.2441    0.5754   -1.2808 C   0  0  0  0  0  0  0  0  0  0  0  0
    0.1100    0.2321   -2.3122 H   0  0  0  0  0  0  0  0  0  0  0  0
   -0.6961    1.0503   -0.9796 H   0  0  0  0  0  0  0  0  0  0  0  0
    1.2970    1.7206   -1.3107 C   0  0  0  0  0  0  0  0  0  0  0  0
    1.6267    1.8585   -2.3448 H   0  0  0  0  0  0  0  0  0  0  0  0
    0.8028    2.6501   -1.0137 H   0  0  0  0  0  0  0  0  0  0  0  0
    2.5472    1.5855   -0.4523 C   0  0  0  0  0  0  0  0  0  0  0  0
    3.4814    0.9489   -0.9082 O   0  0  0  0  0  0  0  0  0  0  0  0
    2.5632    2.1935    0.7559 O   0  0  0  0  0  0  0  0  0  0  0  0
    3.3619    1.8580    1.1948 H   0  0  0  0  0  0  0  0  0  0  0  0
    0.8906   -0.4323    1.0564 C   0  0  0  0  0  0  0  0  0  0  0  0
    2.0339   -0.6889    1.4118 O   0  0  0  0  0  0  0  0  0  0  0  0
    0.0182    0.1314    1.9710 N   0  0  0  0  0  0  0  0  0  0  0  0
   -0.9528    0.1944    1.6871 H   0  0  0  0  0  0  0  0  0  0  0  0
    0.3540    0.3090    3.3779 C   0  0  0  0  0  0  0  0  0  0  0  0
    1.2396    0.9448    3.4825 H   0  0  0  0  0  0  0  0  0  0  0  0
   -0.4756    0.7857    3.9084 H   0  0  0  0  0  0  0  0  0  0  0  0
    0.5576   -0.6594    3.8475 H   0  0  0  0  0  0  0  0  0  0  0  0
  1  2  1  0  0  0  0
  2  3  1  0  0  0  0
  2  4  1  0  0  0  0
  2  5  1  0  0  0  0
  5  6  2  0  0  0  0
  5  7  1  0  0  0  0
  7  8  1  0  0  0  0
  7  9  1  0  0  0  0
  9 10  1  0  0  0  0
  9 11  1  0  0  0  0
  9 21  1  0  0  0  0
 11 12  1  0  0  0  0
 11 13  1  0  0  0  0
 11 14  1  0  0  0  0
 14 15  1  0  0  0  0
 14 16  1  0  0  0  0
 14 17  1  0  0  0  0
 17 18  2  0  0  0  0
 17 19  1  0  0  0  0
 19 20  1  0  0  0  0
 21 22  2  0  0  0  0
 21 23  1  0  0  0  0
 23 24  1  0  0  0  0
 23 25  1  0  0  0  0
 25 26  1  0  0  0  0
 25 27  1  0  0  0  0
 25 28  1  0  0  0  0
M  END
$$$$

  -OEChem-02102214123D

 28 27  0     1  0  0  0  0  0999 V2000
   -2.8097   -3.9781    0.4752 H   0  0  0  0  0  0  0  0  0  0  0  0
   -2.7104   -3.0131   -0.0303 C   0  0  0  0  0  0  0  0  0  0  0  0
   -3.4528   -2.3243    0.3795 H   0  0  0  0  0  0  0  0  0  0  0  0
   -2.9021   -3.1552   -1.0965 H   0  0  0  0  0  0  0  0  0  0  0  0
   -1.3144   -2.4569    0.1780 C   0  0  0  0  0  0  0  0  0  0  0  0
   -0.5214   -3.0675    0.8691 O   0  0  0  0  0  0  0  0  0  0  0  0
   -0.9607   -1.2640   -0.4252 N   0  0  0  0  0  0  0  0  0  0  0  0
   -1.6369   -0.8800   -1.0778 H   0  0  0  0  0  0  0  0  0  0  0  0
    0.4019   -0.6867   -0.4175 C   0  0  1  0  0  0  0  0  0  0  0  0
    1.1217   -1.3720   -0.8811 H   0  0  0  0  0  0  0  0  0  0  0  0
    0.2699    0.6053   -1.2740 C   0  0  0  0  0  0  0  0  0  0  0  0
    0.1624    0.2783   -2.3138 H   0  0  0  0  0  0  0  0  0  0  0  0
   -0.6622    1.1111   -0.9996 H   0  0  0  0  0  0  0  0  0  0  0  0
    1.3802    1.6911   -1.2500 C   0  0  0  0  0  0  0  0  0  0  0  0
    1.5447    2.0603   -2.2661 H   0  0  0  0  0  0  0  0  0  0  0  0
    1.0142    2.5359   -0.6593 H   0  0  0  0  0  0  0  0  0  0  0  0
    2.7296    1.2955   -0.6634 C   0  0  0  0  0  0  0  0  0  0  0  0
    3.3771    0.4472   -1.2535 O   0  0  0  0  0  0  0  0  0  0  0  0
    3.1386    1.9081    0.4709 O   0  0  0  0  0  0  0  0  0  0  0  0
    3.9137    1.4044    0.7670 H   0  0  0  0  0  0  0  0  0  0  0  0
    0.8691   -0.4225    1.0409 C   0  0  0  0  0  0  0  0  0  0  0  0
    2.0023   -0.7078    1.4063 O   0  0  0  0  0  0  0  0  0  0  0  0
    0.0073    0.1756    1.9431 N   0  0  0  0  0  0  0  0  0  0  0  0
   -0.9632    0.2397    1.6574 H   0  0  0  0  0  0  0  0  0  0  0  0
    0.3374    0.3459    3.3524 C   0  0  0  0  0  0  0  0  0  0  0  0
    1.2421    0.9533    3.4632 H   0  0  0  0  0  0  0  0  0  0  0  0
   -0.4813    0.8496    3.8748 H   0  0  0  0  0  0  0  0  0  0  0  0
    0.5063   -0.6275    3.8256 H   0  0  0  0  0  0  0  0  0  0  0  0
  1  2  1  0  0  0  0
  2  3  1  0  0  0  0
  2  4  1  0  0  0  0
  2  5  1  0  0  0  0
  5  6  2  0  0  0  0
  5  7  1  0  0  0  0
  7  8  1  0  0  0  0
  7  9  1  0  0  0  0
  9 10  1  0  0  0  0
  9 11  1  0  0  0  0
  9 21  1  0  0  0  0
 11 12  1  0  0  0  0
 11 13  1  0  0  0  0
 11 14  1  0  0  0  0
 14 15  1  0  0  0  0
 14 16  1  0  0  0  0
 14 17  1  0  0  0  0
 17 18  2  0  0  0  0
 17 19  1  0  0  0  0
 19 20  1  0  0  0  0
 21 22  2  0  0  0  0
 21 23  1  0  0  0  0
 23 24  1  0  0  0  0
 23 25  1  0  0  0  0
 25 26  1  0  0  0  0
 25 27  1  0  0  0  0
 25 28  1  0  0  0  0
M  END
$$$$

  -OEChem-02102214123D

 28 27  0     1  0  0  0  0  0999 V2000
   -2.7473   -4.0412    0.4371 H   0  0  0  0  0  0  0  0  0  0  0  0
   -2.6749   -3.0739   -0.0687 C   0  0  0  0  0  0  0  0  0  0  0  0
   -3.4503   -2.4125    0.3251 H   0  0  0  0  0  0  0  0  0  0  0  0
   -2.8405   -3.2253   -1.1380 H   0  0  0  0  0  0  0  0  0  0  0  0
   -1.3046   -2.4657    0.1641 C   0  0  0  0  0  0  0  0  0  0  0  0
   -0.5052   -3.0408    0.8784 O   0  0  0  0  0  0  0  0  0  0  0  0
   -0.9813   -1.2646   -0.4396 N   0  0  0  0  0  0  0  0  0  0  0  0
   -1.6534   -0.9149   -1.1153 H   0  0  0  0  0  0  0  0  0  0  0  0
    0.3686   -0.6604   -0.4319 C   0  0  1  0  0  0  0  0  0  0  0  0
    1.0929   -1.3366   -0.9008 H   0  0  0  0  0  0  0  0  0  0  0  0
    0.2307    0.6381   -1.2721 C   0  0  0  0  0  0  0  0  0  0  0  0
    0.1431    0.3284   -2.3191 H   0  0  0  0  0  0  0  0  0  0  0  0
   -0.7038    1.1420   -1.0029 H   0  0  0  0  0  0  0  0  0  0  0  0
    1.3560    1.7020   -1.1969 C   0  0  0  0  0  0  0  0  0  0  0  0
    1.3700    2.2866   -2.1206 H   0  0  0  0  0  0  0  0  0  0  0  0
    1.1157    2.3907   -0.3814 H   0  0  0  0  0  0  0  0  0  0  0  0
    2.7646    1.1760   -0.9313 C   0  0  0  0  0  0  0  0  0  0  0  0
    3.1770    0.2626   -1.6274 O   0  0  0  0  0  0  0  0  0  0  0  0
    3.4908    1.7704    0.0423 O   0  0  0  0  0  0  0  0  0  0  0  0
    4.2770    1.2138    0.1544 H   0  0  0  0  0  0  0  0  0  0  0  0
    0.8538   -0.3795    1.0162 C   0  0  0  0  0  0  0  0  0  0  0  0
    2.0120   -0.5961    1.3477 O   0  0  0  0  0  0  0  0  0  0  0  0
   -0.0051    0.2059    1.9294 N   0  0  0  0  0  0  0  0  0  0  0  0
   -0.9861    0.2155    1.6727 H   0  0  0  0  0  0  0  0  0  0  0  0
    0.3563    0.4125    3.3262 C   0  0  0  0  0  0  0  0  0  0  0  0
    1.2475    1.0446    3.4023 H   0  0  0  0  0  0  0  0  0  0  0  0
   -0.4612    0.9058    3.8604 H   0  0  0  0  0  0  0  0  0  0  0  0
    0.5626   -0.5467    3.8130 H   0  0  0  0  0  0  0  0  0  0  0  0
  1  2  1  0  0  0  0
  2  3  1  0  0  0  0
  2  4  1  0  0  0  0
  2  5  1  0  0  0  0
  5  6  2  0  0  0  0
  5  7  1  0  0  0  0
  7  8  1  0  0  0  0
  7  9  1  0  0  0  0
  9 10  1  0  0  0  0
  9 11  1  0  0  0  0
  9 21  1  0  0  0  0
 11 12  1  0  0  0  0
 11 13  1  0  0  0  0
 11 14  1  0  0  0  0
 14 15  1  0  0  0  0
 14 16  1  0  0  0  0
 14 17  1  0  0  0  0
 17 18  2  0  0  0  0
 17 19  1  0  0  0  0
 19 20  1  0  0  0  0
 21 22  2  0  0  0  0
 21 23  1  0  0  0  0
 23 24  1  0  0  0  0
 23 25  1  0  0  0  0
 25 26  1  0  0  0  0
 25 27  1  0  0  0  0
 25 28  1  0  0  0  0
M  END
$$$$

  -OEChem-02102214123D

 28 27  0     1  0  0  0  0  0999 V2000
   -2.6942   -4.0932    0.3960 H   0  0  0  0  0  0  0  0  0  0  0  0
   -2.6448   -3.1230   -0.1066 C   0  0  0  0  0  0  0  0  0  0  0  0
   -3.4419   -2.4847    0.2818 H   0  0  0  0  0  0  0  0  0  0  0  0
   -2.7970   -3.2760   -1.1776 H   0  0  0  0  0  0  0  0  0  0  0  0
   -1.2946   -2.4765    0.1397 C   0  0  0  0  0  0  0  0  0  0  0  0
   -0.4846   -3.0280    0.8612 O   0  0  0  0  0  0  0  0  0  0  0  0
   -1.0035   -1.2614   -0.4508 N   0  0  0  0  0  0  0  0  0  0  0  0
   -1.6783   -0.9292   -1.1327 H   0  0  0  0  0  0  0  0  0  0  0  0
    0.3322   -0.6290   -0.4397 C   0  0  1  0  0  0  0  0  0  0  0  0
    1.0598   -1.2965   -0.9157 H   0  0  0  0  0  0  0  0  0  0  0  0
    0.1929    0.6707   -1.2730 C   0  0  0  0  0  0  0  0  0  0  0  0
    0.1118    0.3818   -2.3265 H   0  0  0  0  0  0  0  0  0  0  0  0
   -0.7395    1.1747   -0.9980 H   0  0  0  0  0  0  0  0  0  0  0  0
    1.3313    1.7118   -1.1454 C   0  0  0  0  0  0  0  0  0  0  0  0
    1.2265    2.4639   -1.9316 H   0  0  0  0  0  0  0  0  0  0  0  0
    1.2283    2.2272   -0.1857 H   0  0  0  0  0  0  0  0  0  0  0  0
    2.7481    1.1399   -1.2102 C   0  0  0  0  0  0  0  0  0  0  0  0
    2.9738    0.2214   -1.9820 O   0  0  0  0  0  0  0  0  0  0  0  0
    3.6932    1.7199   -0.4361 O   0  0  0  0  0  0  0  0  0  0  0  0
    4.4847    1.1693   -0.5331 H   0  0  0  0  0  0  0  0  0  0  0  0
    0.8405   -0.3457    0.9979 C   0  0  0  0  0  0  0  0  0  0  0  0
    2.0256   -0.4704    1.2769 O   0  0  0  0  0  0  0  0  0  0  0  0
   -0.0120    0.2160    1.9315 N   0  0  0  0  0  0  0  0  0  0  0  0
   -1.0010    0.1654    1.7124 H   0  0  0  0  0  0  0  0  0  0  0  0
    0.3877    0.4588    3.3120 C   0  0  0  0  0  0  0  0  0  0  0  0
    1.2478    1.1359    3.3490 H   0  0  0  0  0  0  0  0  0  0  0  0
   -0.4346    0.9172    3.8693 H   0  0  0  0  0  0  0  0  0  0  0  0
    0.6592   -0.4825    3.8017 H   0  0  0  0  0  0  0  0  0  0  0  0
  1  2  1  0  0  0  0
  2  3  1  0  0  0  0
  2  4  1  0  0  0  0
  2  5  1  0  0  0  0
  5  6  2  0  0  0  0
  5  7  1  0  0  0  0
  7  8  1  0  0  0  0
  7  9  1  0  0  0  0
  9 10  1  0  0  0  0
  9 11  1  0  0  0  0
  9 21  1  0  0  0  0
 11 12  1  0  0  0  0
 11 13  1  0  0  0  0
 11 14  1  0  0  0  0
 14 15  1  0  0  0  0
 14 16  1  0  0  0  0
 14 17  1  0  0  0  0
 17 18  2  0  0  0  0
 17 19  1  0  0  0  0
 19 20  1  0  0  0  0
 21 22  2  0  0  0  0
 21 23  1  0  0  0  0
 23 24  1  0  0  0  0
 23 25  1  0  0  0  0
 25 26  1  0  0  0  0
 25 27  1  0  0  0  0
 25 28  1  0  0  0  0
M  END
$$$$

  -OEChem-02102214123D

 28 27  0     1  0  0  0  0  0999 V2000
   -2.6578   -4.1280    0.3489 H   0  0  0  0  0  0  0  0  0  0  0  0
   -2.6237   -3.1531   -0.1461 C   0  0  0  0  0  0  0  0  0  0  0  0
   -3.4372   -2.5343    0.2395 H   0  0  0  0  0  0  0  0  0  0  0  0
   -2.7625   -3.3002   -1.2199 H   0  0  0  0  0  0  0  0  0  0  0  0
   -1.2895   -2.4810    0.1176 C   0  0  0  0  0  0  0  0  0  0  0  0
   -0.4733   -3.0211    0.8410 O   0  0  0  0  0  0  0  0  0  0  0  0
   -1.0209   -1.2523   -0.4549 N   0  0  0  0  0  0  0  0  0  0  0  0
   -1.6985   -0.9255   -1.1369 H   0  0  0  0  0  0  0  0  0  0  0  0
    0.3047   -0.6008   -0.4371 C   0  0  1  0  0  0  0  0  0  0  0  0
    1.0367   -1.2609   -0.9167 H   0  0  0  0  0  0  0  0  0  0  0  0
    0.1694    0.6951   -1.2740 C   0  0  0  0  0  0  0  0  0  0  0  0
    0.0824    0.4220   -2.3313 H   0  0  0  0  0  0  0  0  0  0  0  0
   -0.7587    1.2012   -0.9887 H   0  0  0  0  0  0  0  0  0  0  0  0
    1.3162    1.7202   -1.1086 C   0  0  0  0  0  0  0  0  0  0  0  0
    1.1068    2.5914   -1.7345 H   0  0  0  0  0  0  0  0  0  0  0  0
    1.3583    2.0719   -0.0738 H   0  0  0  0  0  0  0  0  0  0  0  0
    2.6979    1.1891   -1.4963 C   0  0  0  0  0  0  0  0  0  0  0  0
    2.7828    0.2764   -2.3031 O   0  0  0  0  0  0  0  0  0  0  0  0
    3.7703    1.8024   -0.9463 O   0  0  0  0  0  0  0  0  0  0  0  0
    4.5430    1.3004   -1.2453 H   0  0  0  0  0  0  0  0  0  0  0  0
    0.8278   -0.3259    0.9949 C   0  0  0  0  0  0  0  0  0  0  0  0
    2.0270   -0.3845    1.2337 O   0  0  0  0  0  0  0  0  0  0  0  0
   -0.0196    0.2122    1.9465 N   0  0  0  0  0  0  0  0  0  0  0  0
   -1.0114    0.1203    1.7548 H   0  0  0  0  0  0  0  0  0  0  0  0
    0.4068    0.4780    3.3145 C   0  0  0  0  0  0  0  0  0  0  0  0
    1.2421    1.1861    3.3256 H   0  0  0  0  0  0  0  0  0  0  0  0
   -0.4166    0.9098    3.8911 H   0  0  0  0  0  0  0  0  0  0  0  0
    0.7251   -0.4496    3.8019 H   0  0  0  0  0  0  0  0  0  0  0  0
  1  2  1  0  0  0  0
  2  3  1  0  0  0  0
  2  4  1  0  0  0  0
  2  5  1  0  0  0  0
  5  6  2  0  0  0  0
  5  7  1  0  0  0  0
  7  8  1  0  0  0  0
  7  9  1  0  0  0  0
  9 10  1  0  0  0  0
  9 11  1  0  0  0  0
  9 21  1  0  0  0  0
 11 12  1  0  0  0  0
 11 13  1  0  0  0  0
 11 14  1  0  0  0  0
 14 15  1  0  0  0  0
 14 16  1  0  0  0  0
 14 17  1  0  0  0  0
 17 18  2  0  0  0  0
 17 19  1  0  0  0  0
 19 20  1  0  0  0  0
 21 22  2  0  0  0  0
 21 23  1  0  0  0  0
 23 24  1  0  0  0  0
 23 25  1  0  0  0  0
 25 26  1  0  0  0  0
 25 27  1  0  0  0  0
 25 28  1  0  0  0  0
M  END
$$$$

  -OEChem-02102214123D

 28 27  0     1  0  0  0  0  0999 V2000
   -2.6610   -4.1287    0.3192 H   0  0  0  0  0  0  0  0  0  0  0  0
   -2.6255   -3.1493   -0.1668 C   0  0  0  0  0  0  0  0  0  0  0  0
   -3.4404   -2.5342    0.2219 H   0  0  0  0  0  0  0  0  0  0  0  0
   -2.7609   -3.2870   -1.2422 H   0  0  0  0  0  0  0  0  0  0  0  0
   -1.2923   -2.4791    0.1072 C   0  0  0  0  0  0  0  0  0  0  0  0
   -0.4772   -3.0264    0.8263 O   0  0  0  0  0  0  0  0  0  0  0  0
   -1.0217   -1.2455   -0.4534 N   0  0  0  0  0  0  0  0  0  0  0  0
   -1.6969   -0.9112   -1.1339 H   0  0  0  0  0  0  0  0  0  0  0  0
    0.3033   -0.5931   -0.4240 C   0  0  1  0  0  0  0  0  0  0  0  0
    1.0391   -1.2517   -0.9004 H   0  0  0  0  0  0  0  0  0  0  0  0
    0.1770    0.6971   -1.2705 C   0  0  0  0  0  0  0  0  0  0  0  0
    0.0724    0.4292   -2.3275 H   0  0  0  0  0  0  0  0  0  0  0  0
   -0.7467    1.2049   -0.9743 H   0  0  0  0  0  0  0  0  0  0  0  0
    1.3230    1.7239   -1.0967 C   0  0  0  0  0  0  0  0  0  0  0  0
    1.0040    2.6710   -1.5394 H   0  0  0  0  0  0  0  0  0  0  0  0
    1.5232    1.9251   -0.0416 H   0  0  0  0  0  0  0  0  0  0  0  0
    2.6308    1.3294   -1.7868 C   0  0  0  0  0  0  0  0  0  0  0  0
    2.6494    0.3883   -2.5647 O   0  0  0  0  0  0  0  0  0  0  0  0
    3.7153    2.0891   -1.5117 O   0  0  0  0  0  0  0  0  0  0  0  0
    4.4518    1.6805   -1.9907 H   0  0  0  0  0  0  0  0  0  0  0  0
    0.8204   -0.3298    1.0120 C   0  0  0  0  0  0  0  0  0  0  0  0
    2.0197   -0.3837    1.2517 O   0  0  0  0  0  0  0  0  0  0  0  0
   -0.0307    0.1998    1.9651 N   0  0  0  0  0  0  0  0  0  0  0  0
   -1.0218    0.1106    1.7686 H   0  0  0  0  0  0  0  0  0  0  0  0
    0.3901    0.4542    3.3372 C   0  0  0  0  0  0  0  0  0  0  0  0
    1.2238    1.1642    3.3580 H   0  0  0  0  0  0  0  0  0  0  0  0
   -0.4369    0.8786    3.9144 H   0  0  0  0  0  0  0  0  0  0  0  0
    0.7090   -0.4770    3.8176 H   0  0  0  0  0  0  0  0  0  0  0  0
  1  2  1  0  0  0  0
  2  3  1  0  0  0  0
  2  4  1  0  0  0  0
  2  5  1  0  0  0  0
  5  6  2  0  0  0  0
  5  7  1  0  0  0  0
  7  8  1  0  0  0  0
  7  9  1  0  0  0  0
  9 10  1  0  0  0  0
  9 11  1  0  0  0  0
  9 21  1  0  0  0  0
 11 12  1  0  0  0  0
 11 13  1  0  0  0  0
 11 14  1  0  0  0  0
 14 15  1  0  0  0  0
 14 16  1  0  0  0  0
 14 17  1  0  0  0  0
 17 18  2  0  0  0  0
 17 19  1  0  0  0  0
 19 20  1  0  0  0  0
 21 22  2  0  0  0  0
 21 23  1  0  0  0  0
 23 24  1  0  0  0  0
 23 25  1  0  0  0  0
 25 26  1  0  0  0  0
 25 27  1  0  0  0  0
 25 28  1  0  0  0  0
M  END
$$$$

  -OEChem-02102214123D

 28 27  0     1  0  0  0  0  0999 V2000
   -2.6642   -4.1197    0.2885 H   0  0  0  0  0  0  0  0  0  0  0  0
   -2.6314   -3.1279   -0.1722 C   0  0  0  0  0  0  0  0  0  0  0  0
   -3.4426   -2.5220    0.2384 H   0  0  0  0  0  0  0  0  0  0  0  0
   -2.7753   -3.2376   -1.2497 H   0  0  0  0  0  0  0  0  0  0  0  0
   -1.2948   -2.4676    0.1090 C   0  0  0  0  0  0  0  0  0  0  0  0
   -0.4883   -3.0231    0.8315 O   0  0  0  0  0  0  0  0  0  0  0  0
   -1.0111   -1.2357   -0.4495 N   0  0  0  0  0  0  0  0  0  0  0  0
   -1.6789   -0.8975   -1.1357 H   0  0  0  0  0  0  0  0  0  0  0  0
    0.3194   -0.5935   -0.4106 C   0  0  1  0  0  0  0  0  0  0  0  0
    1.0563   -1.2547   -0.8813 H   0  0  0  0  0  0  0  0  0  0  0  0
    0.2060    0.6964   -1.2602 C   0  0  0  0  0  0  0  0  0  0  0  0
    0.0797    0.4318   -2.3155 H   0  0  0  0  0  0  0  0  0  0  0  0
   -0.7117    1.2079   -0.9513 H   0  0  0  0  0  0  0  0  0  0  0  0
    1.3527    1.7281   -1.0918 C   0  0  0  0  0  0  0  0  0  0  0  0
    0.9446    2.7193   -1.3068 H   0  0  0  0  0  0  0  0  0  0  0  0
    1.7331    1.7683   -0.0697 H   0  0  0  0  0  0  0  0  0  0  0  0
    2.5278    1.5263   -2.0516 C   0  0  0  0  0  0  0  0  0  0  0  0
    2.5625    0.5480   -2.7811 O   0  0  0  0  0  0  0  0  0  0  0  0
    3.4835    2.4833   -2.0468 O   0  0  0  0  0  0  0  0  0  0  0  0
    4.1570    2.1861   -2.6772 H   0  0  0  0  0  0  0  0  0  0  0  0
    0.8167   -0.3402    1.0346 C   0  0  0  0  0  0  0  0  0  0  0  0
    2.0089   -0.4256    1.3002 O   0  0  0  0  0  0  0  0  0  0  0  0
   -0.0448    0.1922    1.9767 N   0  0  0  0  0  0  0  0  0  0  0  0
   -1.0328    0.1181    1.7596 H   0  0  0  0  0  0  0  0  0  0  0  0
    0.3510    0.4138    3.3617 C   0  0  0  0  0  0  0  0  0  0  0  0
    1.1927    1.1125    3.4131 H   0  0  0  0  0  0  0  0  0  0  0  0
   -0.4821    0.8367    3.9310 H   0  0  0  0  0  0  0  0  0  0  0  0
    0.6490   -0.5306    3.8296 H   0  0  0  0  0  0  0  0  0  0  0  0
  1  2  1  0  0  0  0
  2  3  1  0  0  0  0
  2  4  1  0  0  0  0
  2  5  1  0  0  0  0
  5  6  2  0  0  0  0
  5  7  1  0  0  0  0
  7  8  1  0  0  0  0
  7  9  1  0  0  0  0
  9 10  1  0  0  0  0
  9 11  1  0  0  0  0
  9 21  1  0  0  0  0
 11 12  1  0  0  0  0
 11 13  1  0  0  0  0
 11 14  1  0  0  0  0
 14 15  1  0  0  0  0
 14 16  1  0  0  0  0
 14 17  1  0  0  0  0
 17 18  2  0  0  0  0
 17 19  1  0  0  0  0
 19 20  1  0  0  0  0
 21 22  2  0  0  0  0
 21 23  1  0  0  0  0
 23 24  1  0  0  0  0
 23 25  1  0  0  0  0
 25 26  1  0  0  0  0
 25 27  1  0  0  0  0
 25 28  1  0  0  0  0
M  END
$$$$

  -OEChem-02102214123D

 28 27  0     1  0  0  0  0  0999 V2000
   -2.7169   -4.0718    0.3105 H   0  0  0  0  0  0  0  0  0  0  0  0
   -2.6461   -3.1001   -0.1869 C   0  0  0  0  0  0  0  0  0  0  0  0
   -3.4507   -2.4581    0.1793 H   0  0  0  0  0  0  0  0  0  0  0  0
   -2.7660   -3.2478   -1.2629 H   0  0  0  0  0  0  0  0  0  0  0  0
   -1.3003   -2.4628    0.1034 C   0  0  0  0  0  0  0  0  0  0  0  0
   -0.5061   -3.0332    0.8278 O   0  0  0  0  0  0  0  0  0  0  0  0
   -0.9946   -1.2347   -0.4520 N   0  0  0  0  0  0  0  0  0  0  0  0
   -1.6569   -0.8818   -1.1360 H   0  0  0  0  0  0  0  0  0  0  0  0
    0.3425   -0.6065   -0.4017 C   0  0  1  0  0  0  0  0  0  0  0  0
    1.0795   -1.2687   -0.8705 H   0  0  0  0  0  0  0  0  0  0  0  0
    0.2338    0.6892   -1.2436 C   0  0  0  0  0  0  0  0  0  0  0  0
    0.0993    0.4250   -2.2979 H   0  0  0  0  0  0  0  0  0  0  0  0
   -0.6835    1.2003   -0.9326 H   0  0  0  0  0  0  0  0  0  0  0  0
    1.3808    1.7247   -1.0770 C   0  0  0  0  0  0  0  0  0  0  0  0
    0.9296    2.7183   -1.0058 H   0  0  0  0  0  0  0  0  0  0  0  0
    1.9529    1.5777   -0.1603 H   0  0  0  0  0  0  0  0  0  0  0  0
    2.3671    1.7671   -2.2458 C   0  0  0  0  0  0  0  0  0  0  0  0
    2.4733    0.8060   -2.9903 O   0  0  0  0  0  0  0  0  0  0  0  0
    3.0837    2.9047   -2.3947 O   0  0  0  0  0  0  0  0  0  0  0  0
    3.6692    2.7510   -3.1517 H   0  0  0  0  0  0  0  0  0  0  0  0
    0.8239   -0.3601    1.0508 C   0  0  0  0  0  0  0  0  0  0  0  0
    2.0076   -0.4827    1.3388 O   0  0  0  0  0  0  0  0  0  0  0  0
   -0.0424    0.1806    1.9839 N   0  0  0  0  0  0  0  0  0  0  0  0
   -1.0283    0.1315    1.7509 H   0  0  0  0  0  0  0  0  0  0  0  0
    0.3383    0.3950    3.3744 C   0  0  0  0  0  0  0  0  0  0  0  0
    1.1974    1.0714    3.4368 H   0  0  0  0  0  0  0  0  0  0  0  0
   -0.4915    0.8417    3.9302 H   0  0  0  0  0  0  0  0  0  0  0  0
    0.6038   -0.5559    3.8486 H   0  0  0  0  0  0  0  0  0  0  0  0
  1  2  1  0  0  0  0
  2  3  1  0  0  0  0
  2  4  1  0  0  0  0
  2  5  1  0  0  0  0
  5  6  2  0  0  0  0
  5  7  1  0  0  0  0
  7  8  1  0  0  0  0
  7  9  1  0  0  0  0
  9 10  1  0  0  0  0
  9 11  1  0  0  0  0
  9 21  1  0  0  0  0
 11 12  1  0  0  0  0
 11 13  1  0  0  0  0
 11 14  1  0  0  0  0
 14 15  1  0  0  0  0
 14 16  1  0  0  0  0
 14 17  1  0  0  0  0
 17 18  2  0  0  0  0
 17 19  1  0  0  0  0
 19 20  1  0  0  0  0
 21 22  2  0  0  0  0
 21 23  1  0  0  0  0
 23 24  1  0  0  0  0
 23 25  1  0  0  0  0
 25 26  1  0  0  0  0
 25 27  1  0  0  0  0
 25 28  1  0  0  0  0
M  END
$$$$

  -OEChem-02102214123D

 28 27  0     1  0  0  0  0  0999 V2000
   -2.7737   -3.9996    0.3695 H   0  0  0  0  0  0  0  0  0  0  0  0
   -2.6592   -3.0683   -0.1925 C   0  0  0  0  0  0  0  0  0  0  0  0
   -3.4581   -2.3824    0.0984 H   0  0  0  0  0  0  0  0  0  0  0  0
   -2.7464   -3.2889   -1.2591 H   0  0  0  0  0  0  0  0  0  0  0  0
   -1.3065   -2.4464    0.0989 C   0  0  0  0  0  0  0  0  0  0  0  0
   -0.5184   -3.0264    0.8221 O   0  0  0  0  0  0  0  0  0  0  0  0
   -0.9856   -1.2229   -0.4577 N   0  0  0  0  0  0  0  0  0  0  0  0
   -1.6425   -0.8642   -1.1438 H   0  0  0  0  0  0  0  0  0  0  0  0
    0.3576   -0.6085   -0.4049 C   0  0  1  0  0  0  0  0  0  0  0  0
    1.0914   -1.2733   -0.8754 H   0  0  0  0  0  0  0  0  0  0  0  0
    0.2552    0.6962   -1.2318 C   0  0  0  0  0  0  0  0  0  0  0  0
    0.1370    0.4268   -2.2867 H   0  0  0  0  0  0  0  0  0  0  0  0
   -0.6632    1.2152   -0.9376 H   0  0  0  0  0  0  0  0  0  0  0  0
    1.4154    1.7139   -1.0534 C   0  0  0  0  0  0  0  0  0  0  0  0
    1.0080    2.6490   -0.6587 H   0  0  0  0  0  0  0  0  0  0  0  0
    2.1606    1.3630   -0.3378 H   0  0  0  0  0  0  0  0  0  0  0  0
    2.1695    2.0212   -2.3477 C   0  0  0  0  0  0  0  0  0  0  0  0
    2.3862    1.1236   -3.1451 O   0  0  0  0  0  0  0  0  0  0  0  0
    2.5579    3.3017   -2.5460 O   0  0  0  0  0  0  0  0  0  0  0  0
    3.0326    3.3058   -3.3911 H   0  0  0  0  0  0  0  0  0  0  0  0
    0.8336   -0.3661    1.0514 C   0  0  0  0  0  0  0  0  0  0  0  0
    2.0108   -0.5156    1.3523 O   0  0  0  0  0  0  0  0  0  0  0  0
   -0.0321    0.1843    1.9797 N   0  0  0  0  0  0  0  0  0  0  0  0
   -1.0166    0.1492    1.7381 H   0  0  0  0  0  0  0  0  0  0  0  0
    0.3377    0.3762    3.3766 C   0  0  0  0  0  0  0  0  0  0  0  0
    1.2095    1.0343    3.4561 H   0  0  0  0  0  0  0  0  0  0  0  0
   -0.4891    0.8333    3.9281 H   0  0  0  0  0  0  0  0  0  0  0  0
    0.5791   -0.5848    3.8432 H   0  0  0  0  0  0  0  0  0  0  0  0
  1  2  1  0  0  0  0
  2  3  1  0  0  0  0
  2  4  1  0  0  0  0
  2  5  1  0  0  0  0
  5  6  2  0  0  0  0
  5  7  1  0  0  0  0
  7  8  1  0  0  0  0
  7  9  1  0  0  0  0
  9 10  1  0  0  0  0
  9 11  1  0  0  0  0
  9 21  1  0  0  0  0
 11 12  1  0  0  0  0
 11 13  1  0  0  0  0
 11 14  1  0  0  0  0
 14 15  1  0  0  0  0
 14 16  1  0  0  0  0
 14 17  1  0  0  0  0
 17 18  2  0  0  0  0
 17 19  1  0  0  0  0
 19 20  1  0  0  0  0
 21 22  2  0  0  0  0
 21 23  1  0  0  0  0
 23 24  1  0  0  0  0
 23 25  1  0  0  0  0
 25 26  1  0  0  0  0
 25 27  1  0  0  0  0
 25 28  1  0  0  0  0
M  END
$$$$

  -OEChem-02102214123D

 28 27  0     1  0  0  0  0  0999 V2000
   -2.6035   -4.1088    0.3598 H   0  0  0  0  0  0  0  0  0  0  0  0
   -2.5528   -3.1587   -0.1800 C   0  0  0  0  0  0  0  0  0  0  0  0
   -3.3671   -2.5165    0.1634 H   0  0  0  0  0  0  0  0  0  0  0  0
   -2.6764   -3.3552   -1.2478 H   0  0  0  0  0  0  0  0  0  0  0  0
   -1.2168   -2.4857    0.0729 C   0  0  0  0  0  0  0  0  0  0  0  0
   -0.3794   -3.0427    0.7579 O   0  0  0  0  0  0  0  0  0  0  0  0
   -0.9628   -1.2433   -0.4763 N   0  0  0  0  0  0  0  0  0  0  0  0
   -1.6621   -0.8877   -1.1215 H   0  0  0  0  0  0  0  0  0  0  0  0
    0.3438   -0.5557   -0.4206 C   0  0  1  0  0  0  0  0  0  0  0  0
    1.1117   -1.1775   -0.8950 H   0  0  0  0  0  0  0  0  0  0  0  0
    0.1739    0.7494   -1.2323 C   0  0  0  0  0  0  0  0  0  0  0  0
    0.1220    0.4632   -2.2886 H   0  0  0  0  0  0  0  0  0  0  0  0
   -0.7813    1.2214   -0.9780 H   0  0  0  0  0  0  0  0  0  0  0  0
    1.2866    1.8101   -1.0296 C   0  0  0  0  0  0  0  0  0  0  0  0
    0.9394    2.5981   -0.3557 H   0  0  0  0  0  0  0  0  0  0  0  0
    2.1650    1.3494   -0.5701 H   0  0  0  0  0  0  0  0  0  0  0  0
    1.7736    2.4351   -2.3372 C   0  0  0  0  0  0  0  0  0  0  0  0
    0.9543    2.7076   -3.2000 O   0  0  0  0  0  0  0  0  0  0  0  0
    3.0996    2.6685   -2.4684 O   0  0  0  0  0  0  0  0  0  0  0  0
    3.2182    3.0652   -3.3444 H   0  0  0  0  0  0  0  0  0  0  0  0
    0.8121   -0.2919    1.0339 C   0  0  0  0  0  0  0  0  0  0  0  0
    1.9980   -0.3731    1.3254 O   0  0  0  0  0  0  0  0  0  0  0  0
   -0.0771    0.2064    1.9692 N   0  0  0  0  0  0  0  0  0  0  0  0
   -1.0600    0.1330    1.7298 H   0  0  0  0  0  0  0  0  0  0  0  0
    0.2908    0.4240    3.3628 C   0  0  0  0  0  0  0  0  0  0  0  0
    1.1218    1.1337    3.4339 H   0  0  0  0  0  0  0  0  0  0  0  0
   -0.5576    0.8321    3.9203 H   0  0  0  0  0  0  0  0  0  0  0  0
    0.5936   -0.5191    3.8300 H   0  0  0  0  0  0  0  0  0  0  0  0
  1  2  1  0  0  0  0
  2  3  1  0  0  0  0
  2  4  1  0  0  0  0
  2  5  1  0  0  0  0
  5  6  2  0  0  0  0
  5  7  1  0  0  0  0
  7  8  1  0  0  0  0
  7  9  1  0  0  0  0
  9 10  1  0  0  0  0
  9 11  1  0  0  0  0
  9 21  1  0  0  0  0
 11 12  1  0  0  0  0
 11 13  1  0  0  0  0
 11 14  1  0  0  0  0
 14 15  1  0  0  0  0
 14 16  1  0  0  0  0
 14 17  1  0  0  0  0
 17 18  2  0  0  0  0
 17 19  1  0  0  0  0
 19 20  1  0  0  0  0
 21 22  2  0  0  0  0
 21 23  1  0  0  0  0
 23 24  1  0  0  0  0
 23 25  1  0  0  0  0
 25 26  1  0  0  0  0
 25 27  1  0  0  0  0
 25 28  1  0  0  0  0
M  END
$$$$

  -OEChem-02102214123D

 28 27  0     1  0  0  0  0  0999 V2000
   -2.6155   -4.1250    0.3316 H   0  0  0  0  0  0  0  0  0  0  0  0
   -2.5766   -3.1579   -0.1781 C   0  0  0  0  0  0  0  0  0  0  0  0
   -3.3791   -2.5250    0.2081 H   0  0  0  0  0  0  0  0  0  0  0  0
   -2.7304   -3.3189   -1.2477 H   0  0  0  0  0  0  0  0  0  0  0  0
   -1.2324   -2.4961    0.0599 C   0  0  0  0  0  0  0  0  0  0  0  0
   -0.3906   -3.0595    0.7345 O   0  0  0  0  0  0  0  0  0  0  0  0
   -0.9780   -1.2525   -0.4852 N   0  0  0  0  0  0  0  0  0  0  0  0
   -1.6817   -0.8882   -1.1205 H   0  0  0  0  0  0  0  0  0  0  0  0
    0.3284   -0.5667   -0.4279 C   0  0  1  0  0  0  0  0  0  0  0  0
    1.0926   -1.1905   -0.9055 H   0  0  0  0  0  0  0  0  0  0  0  0
    0.1679    0.7406   -1.2338 C   0  0  0  0  0  0  0  0  0  0  0  0
    0.1320    0.4643   -2.2934 H   0  0  0  0  0  0  0  0  0  0  0  0
   -0.7853    1.2206   -0.9874 H   0  0  0  0  0  0  0  0  0  0  0  0
    1.2946    1.7762   -1.0070 C   0  0  0  0  0  0  0  0  0  0  0  0
    1.0665    2.4016   -0.1394 H   0  0  0  0  0  0  0  0  0  0  0  0
    2.2318    1.2506   -0.7991 H   0  0  0  0  0  0  0  0  0  0  0  0
    1.5579    2.6660   -2.2218 C   0  0  0  0  0  0  0  0  0  0  0  0
    0.6400    2.9152   -2.9873 O   0  0  0  0  0  0  0  0  0  0  0  0
    2.8105    3.1513   -2.3785 O   0  0  0  0  0  0  0  0  0  0  0  0
    2.7904    3.6924   -3.1819 H   0  0  0  0  0  0  0  0  0  0  0  0
    0.8079   -0.3027    1.0222 C   0  0  0  0  0  0  0  0  0  0  0  0
    1.9995   -0.3595    1.2965 O   0  0  0  0  0  0  0  0  0  0  0  0
   -0.0745    0.1967    1.9633 N   0  0  0  0  0  0  0  0  0  0  0  0
   -1.0598    0.1197    1.7350 H   0  0  0  0  0  0  0  0  0  0  0  0
    0.3089    0.4456    3.3474 C   0  0  0  0  0  0  0  0  0  0  0  0
    1.1300    1.1691    3.3934 H   0  0  0  0  0  0  0  0  0  0  0  0
   -0.5382    0.8514    3.9085 H   0  0  0  0  0  0  0  0  0  0  0  0
    0.6317   -0.4844    3.8276 H   0  0  0  0  0  0  0  0  0  0  0  0
  1  2  1  0  0  0  0
  2  3  1  0  0  0  0
  2  4  1  0  0  0  0
  2  5  1  0  0  0  0
  5  6  2  0  0  0  0
  5  7  1  0  0  0  0
  7  8  1  0  0  0  0
  7  9  1  0  0  0  0
  9 10  1  0  0  0  0
  9 11  1  0  0  0  0
  9 21  1  0  0  0  0
 11 12  1  0  0  0  0
 11 13  1  0  0  0  0
 11 14  1  0  0  0  0
 14 15  1  0  0  0  0
 14 16  1  0  0  0  0
 14 17  1  0  0  0  0
 17 18  2  0  0  0  0
 17 19  1  0  0  0  0
 19 20  1  0  0  0  0
 21 22  2  0  0  0  0
 21 23  1  0  0  0  0
 23 24  1  0  0  0  0
 23 25  1  0  0  0  0
 25 26  1  0  0  0  0
 25 27  1  0  0  0  0
 25 28  1  0  0  0  0
M  END
$$$$

  -OEChem-02102214123D

 28 27  0     1  0  0  0  0  0999 V2000
   -2.6325   -4.1332    0.3019 H   0  0  0  0  0  0  0  0  0  0  0  0
   -2.5977   -3.1565   -0.1895 C   0  0  0  0  0  0  0  0  0  0  0  0
   -3.4024   -2.5340    0.2090 H   0  0  0  0  0  0  0  0  0  0  0  0
   -2.7510   -3.2981   -1.2621 H   0  0  0  0  0  0  0  0  0  0  0  0
   -1.2558   -2.4942    0.0605 C   0  0  0  0  0  0  0  0  0  0  0  0
   -0.4163   -3.0608    0.7355 O   0  0  0  0  0  0  0  0  0  0  0  0
   -0.9974   -1.2494   -0.4800 N   0  0  0  0  0  0  0  0  0  0  0  0
   -1.7001   -0.8788   -1.1130 H   0  0  0  0  0  0  0  0  0  0  0  0
    0.3130   -0.5714   -0.4225 C   0  0  1  0  0  0  0  0  0  0  0  0
    1.0699   -1.2040   -0.9003 H   0  0  0  0  0  0  0  0  0  0  0  0
    0.1685    0.7327   -1.2360 C   0  0  0  0  0  0  0  0  0  0  0  0
    0.1327    0.4634   -2.2975 H   0  0  0  0  0  0  0  0  0  0  0  0
   -0.7795    1.2212   -0.9859 H   0  0  0  0  0  0  0  0  0  0  0  0
    1.3046    1.7541   -1.0043 C   0  0  0  0  0  0  0  0  0  0  0  0
    1.2028    2.2166   -0.0183 H   0  0  0  0  0  0  0  0  0  0  0  0
    2.2663    1.2322   -1.0286 H   0  0  0  0  0  0  0  0  0  0  0  0
    1.3542    2.8623   -2.0568 C   0  0  0  0  0  0  0  0  0  0  0  0
    0.3806    3.0637   -2.7659 O   0  0  0  0  0  0  0  0  0  0  0  0
    2.4965    3.5816   -2.1397 O   0  0  0  0  0  0  0  0  0  0  0  0
    2.3548    4.2308   -2.8448 H   0  0  0  0  0  0  0  0  0  0  0  0
    0.8055   -0.3129    1.0234 C   0  0  0  0  0  0  0  0  0  0  0  0
    2.0011   -0.3628    1.2812 O   0  0  0  0  0  0  0  0  0  0  0  0
   -0.0658    0.1898    1.9730 N   0  0  0  0  0  0  0  0  0  0  0  0
   -1.0539    0.1146    1.7566 H   0  0  0  0  0  0  0  0  0  0  0  0
    0.3357    0.4510    3.3496 C   0  0  0  0  0  0  0  0  0  0  0  0
    1.1529    1.1797    3.3787 H   0  0  0  0  0  0  0  0  0  0  0  0
   -0.5057    0.8555    3.9200 H   0  0  0  0  0  0  0  0  0  0  0  0
    0.6714   -0.4733    3.8315 H   0  0  0  0  0  0  0  0  0  0  0  0
  1  2  1  0  0  0  0
  2  3  1  0  0  0  0
  2  4  1  0  0  0  0
  2  5  1  0  0  0  0
  5  6  2  0  0  0  0
  5  7  1  0  0  0  0
  7  8  1  0  0  0  0
  7  9  1  0  0  0  0
  9 10  1  0  0  0  0
  9 11  1  0  0  0  0
  9 21  1  0  0  0  0
 11 12  1  0  0  0  0
 11 13  1  0  0  0  0
 11 14  1  0  0  0  0
 14 15  1  0  0  0  0
 14 16  1  0  0  0  0
 14 17  1  0  0  0  0
 17 18  2  0  0  0  0
 17 19  1  0  0  0  0
 19 20  1  0  0  0  0
 21 22  2  0  0  0  0
 21 23  1  0  0  0  0
 23 24  1  0  0  0  0
 23 25  1  0  0  0  0
 25 26  1  0  0  0  0
 25 27  1  0  0  0  0
 25 28  1  0  0  0  0
M  END
$$$$
