
  -OEChem-03222214033D

 28 27  0     1  0  0  0  0  0999 V2000
   -2.6370   -4.1474    0.2770 H   0  0  0  0  0  0  0  0  0  0  0  0
   -2.6193   -3.1539   -0.1801 C   0  0  0  0  0  0  0  0  0  0  0  0
   -3.4170   -2.5502    0.2592 H   0  0  0  0  0  0  0  0  0  0  0  0
   -2.7981   -3.2587   -1.2530 H   0  0  0  0  0  0  0  0  0  0  0  0
   -1.2750   -2.4938    0.0608 C   0  0  0  0  0  0  0  0  0  0  0  0
   -0.4342   -3.0581    0.7362 O   0  0  0  0  0  0  0  0  0  0  0  0
   -1.0141   -1.2518   -0.4842 N   0  0  0  0  0  0  0  0  0  0  0  0
   -1.7203   -0.8741   -1.1092 H   0  0  0  0  0  0  0  0  0  0  0  0
    0.2981   -0.5797   -0.4296 C   0  0  1  0  0  0  0  0  0  0  0  0
    1.0431   -1.2236   -0.9109 H   0  0  0  0  0  0  0  0  0  0  0  0
    0.1638    0.7198   -1.2465 C   0  0  0  0  0  0  0  0  0  0  0  0
   -0.1326    0.4660   -2.2702 H   0  0  0  0  0  0  0  0  0  0  0  0
   -0.6329    1.3335   -0.8111 H   0  0  0  0  0  0  0  0  0  0  0  0
    1.4623    1.5568   -1.2968 C   0  0  0  0  0  0  0  0  0  0  0  0
    1.7688    1.8420   -0.2870 H   0  0  0  0  0  0  0  0  0  0  0  0
    2.2671    0.9568   -1.7300 H   0  0  0  0  0  0  0  0  0  0  0  0
    1.3297    2.8456   -2.1082 C   0  0  0  0  0  0  0  0  0  0  0  0
    0.2590    3.1385   -2.6142 O   0  0  0  0  0  0  0  0  0  0  0  0
    2.4345    3.6112   -2.2268 O   0  0  0  0  0  0  0  0  0  0  0  0
    2.1613    4.3710   -2.7627 H   0  0  0  0  0  0  0  0  0  0  0  0
    0.8057   -0.3125    1.0082 C   0  0  0  0  0  0  0  0  0  0  0  0
    2.0061   -0.3475    1.2455 O   0  0  0  0  0  0  0  0  0  0  0  0
   -0.0535    0.2007    1.9627 N   0  0  0  0  0  0  0  0  0  0  0  0
   -1.0444    0.1172    1.7615 H   0  0  0  0  0  0  0  0  0  0  0  0
    0.3640    0.4695    3.3331 C   0  0  0  0  0  0  0  0  0  0  0  0
    1.1830    1.1963    3.3495 H   0  0  0  0  0  0  0  0  0  0  0  0
   -0.4704    0.8792    3.9100 H   0  0  0  0  0  0  0  0  0  0  0  0
    0.7023   -0.4530    3.8168 H   0  0  0  0  0  0  0  0  0  0  0  0
  1  2  1  0  0  0  0
  2  3  1  0  0  0  0
  2  4  1  0  0  0  0
  2  5  1  0  0  0  0
  5  6  2  0  0  0  0
  5  7  1  0  0  0  0
  7  8  1  0  0  0  0
  7  9  1  0  0  0  0
  9 10  1  0  0  0  0
  9 11  1  0  0  0  0
  9 21  1  0  0  0  0
 11 12  1  0  0  0  0
 11 13  1  0  0  0  0
 11 14  1  0  0  0  0
 14 15  1  0  0  0  0
 14 16  1  0  0  0  0
 14 17  1  0  0  0  0
 17 18  2  0  0  0  0
 17 19  1  0  0  0  0
 19 20  1  0  0  0  0
 21 22  2  0  0  0  0
 21 23  1  0  0  0  0
 23 24  1  0  0  0  0
 23 25  1  0  0  0  0
 25 26  1  0  0  0  0
 25 27  1  0  0  0  0
 25 28  1  0  0  0  0
M  END
$$$$

  -OEChem-03222214033D

 28 27  0     1  0  0  0  0  0999 V2000
   -2.6620   -4.1159    0.3033 H   0  0  0  0  0  0  0  0  0  0  0  0
   -2.6314   -3.1238   -0.1564 C   0  0  0  0  0  0  0  0  0  0  0  0
   -3.4109   -2.5039    0.2928 H   0  0  0  0  0  0  0  0  0  0  0  0
   -2.8273   -3.2272   -1.2264 H   0  0  0  0  0  0  0  0  0  0  0  0
   -1.2715   -2.4887    0.0639 C   0  0  0  0  0  0  0  0  0  0  0  0
   -0.4307   -3.0690    0.7254 O   0  0  0  0  0  0  0  0  0  0  0  0
   -0.9974   -1.2505   -0.4836 N   0  0  0  0  0  0  0  0  0  0  0  0
   -1.7095   -0.8547   -1.0904 H   0  0  0  0  0  0  0  0  0  0  0  0
    0.3200   -0.5880   -0.4281 C   0  0  1  0  0  0  0  0  0  0  0  0
    1.0638   -1.2367   -0.9046 H   0  0  0  0  0  0  0  0  0  0  0  0
    0.1891    0.7076   -1.2545 C   0  0  0  0  0  0  0  0  0  0  0  0
   -0.1235    0.4616   -2.2750 H   0  0  0  0  0  0  0  0  0  0  0  0
   -0.6037    1.3139   -0.8019 H   0  0  0  0  0  0  0  0  0  0  0  0
    1.4810    1.5575   -1.3239 C   0  0  0  0  0  0  0  0  0  0  0  0
    1.9330    1.6508   -0.3340 H   0  0  0  0  0  0  0  0  0  0  0  0
    2.2103    1.0651   -1.9723 H   0  0  0  0  0  0  0  0  0  0  0  0
    1.2523    2.9839   -1.8263 C   0  0  0  0  0  0  0  0  0  0  0  0
    0.1632    3.3046   -2.2723 O   0  0  0  0  0  0  0  0  0  0  0  0
    2.2994    3.8325   -1.7600 O   0  0  0  0  0  0  0  0  0  0  0  0
    1.9712    4.6706   -2.1194 H   0  0  0  0  0  0  0  0  0  0  0  0
    0.8160   -0.3249    1.0149 C   0  0  0  0  0  0  0  0  0  0  0  0
    2.0110   -0.3922    1.2720 O   0  0  0  0  0  0  0  0  0  0  0  0
   -0.0483    0.1947    1.9613 N   0  0  0  0  0  0  0  0  0  0  0  0
   -1.0373    0.1352    1.7430 H   0  0  0  0  0  0  0  0  0  0  0  0
    0.3516    0.4398    3.3413 C   0  0  0  0  0  0  0  0  0  0  0  0
    1.1795    1.1558    3.3799 H   0  0  0  0  0  0  0  0  0  0  0  0
   -0.4865    0.8523    3.9111 H   0  0  0  0  0  0  0  0  0  0  0  0
    0.6706   -0.4936    3.8174 H   0  0  0  0  0  0  0  0  0  0  0  0
  1  2  1  0  0  0  0
  2  3  1  0  0  0  0
  2  4  1  0  0  0  0
  2  5  1  0  0  0  0
  5  6  2  0  0  0  0
  5  7  1  0  0  0  0
  7  8  1  0  0  0  0
  7  9  1  0  0  0  0
  9 10  1  0  0  0  0
  9 11  1  0  0  0  0
  9 21  1  0  0  0  0
 11 12  1  0  0  0  0
 11 13  1  0  0  0  0
 11 14  1  0  0  0  0
 14 15  1  0  0  0  0
 14 16  1  0  0  0  0
 14 17  1  0  0  0  0
 17 18  2  0  0  0  0
 17 19  1  0  0  0  0
 19 20  1  0  0  0  0
 21 22  2  0  0  0  0
 21 23  1  0  0  0  0
 23 24  1  0  0  0  0
 23 25  1  0  0  0  0
 25 26  1  0  0  0  0
 25 27  1  0  0  0  0
 25 28  1  0  0  0  0
M  END
$$$$

  -OEChem-03222214033D

 28 27  0     1  0  0  0  0  0999 V2000
   -2.6820   -4.0960    0.3360 H   0  0  0  0  0  0  0  0  0  0  0  0
   -2.6395   -3.1155   -0.1473 C   0  0  0  0  0  0  0  0  0  0  0  0
   -3.4208   -2.4802    0.2770 H   0  0  0  0  0  0  0  0  0  0  0  0
   -2.8226   -3.2439   -1.2169 H   0  0  0  0  0  0  0  0  0  0  0  0
   -1.2775   -2.4846    0.0733 C   0  0  0  0  0  0  0  0  0  0  0  0
   -0.4377   -3.0705    0.7311 O   0  0  0  0  0  0  0  0  0  0  0  0
   -0.9963   -1.2504   -0.4800 N   0  0  0  0  0  0  0  0  0  0  0  0
   -1.7065   -0.8534   -1.0884 H   0  0  0  0  0  0  0  0  0  0  0  0
    0.3266   -0.5979   -0.4308 C   0  0  1  0  0  0  0  0  0  0  0  0
    1.0659   -1.2504   -0.9087 H   0  0  0  0  0  0  0  0  0  0  0  0
    0.1939    0.6973   -1.2591 C   0  0  0  0  0  0  0  0  0  0  0  0
   -0.1384    0.4585   -2.2750 H   0  0  0  0  0  0  0  0  0  0  0  0
   -0.5942    1.2961   -0.7887 H   0  0  0  0  0  0  0  0  0  0  0  0
    1.4837    1.5535   -1.3479 C   0  0  0  0  0  0  0  0  0  0  0  0
    2.0889    1.4390   -0.4469 H   0  0  0  0  0  0  0  0  0  0  0  0
    2.0934    1.2120   -2.1881 H   0  0  0  0  0  0  0  0  0  0  0  0
    1.2237    3.0531   -1.4979 C   0  0  0  0  0  0  0  0  0  0  0  0
    0.1452    3.4402   -1.9155 O   0  0  0  0  0  0  0  0  0  0  0  0
    2.2316    3.8900   -1.1739 O   0  0  0  0  0  0  0  0  0  0  0  0
    1.8870    4.7805   -1.3395 H   0  0  0  0  0  0  0  0  0  0  0  0
    0.8240   -0.3355    1.0128 C   0  0  0  0  0  0  0  0  0  0  0  0
    2.0151   -0.4320    1.2779 O   0  0  0  0  0  0  0  0  0  0  0  0
   -0.0350    0.1934    1.9589 N   0  0  0  0  0  0  0  0  0  0  0  0
   -1.0241    0.1622    1.7354 H   0  0  0  0  0  0  0  0  0  0  0  0
    0.3676    0.4453    3.3369 C   0  0  0  0  0  0  0  0  0  0  0  0
    1.2035    1.1521    3.3695 H   0  0  0  0  0  0  0  0  0  0  0  0
   -0.4657    0.8721    3.9030 H   0  0  0  0  0  0  0  0  0  0  0  0
    0.6761   -0.4872    3.8214 H   0  0  0  0  0  0  0  0  0  0  0  0
  1  2  1  0  0  0  0
  2  3  1  0  0  0  0
  2  4  1  0  0  0  0
  2  5  1  0  0  0  0
  5  6  2  0  0  0  0
  5  7  1  0  0  0  0
  7  8  1  0  0  0  0
  7  9  1  0  0  0  0
  9 10  1  0  0  0  0
  9 11  1  0  0  0  0
  9 21  1  0  0  0  0
 11 12  1  0  0  0  0
 11 13  1  0  0  0  0
 11 14  1  0  0  0  0
 14 15  1  0  0  0  0
 14 16  1  0  0  0  0
 14 17  1  0  0  0  0
 17 18  2  0  0  0  0
 17 19  1  0  0  0  0
 19 20  1  0  0  0  0
 21 22  2  0  0  0  0
 21 23  1  0  0  0  0
 23 24  1  0  0  0  0
 23 25  1  0  0  0  0
 25 26  1  0  0  0  0
 25 27  1  0  0  0  0
 25 28  1  0  0  0  0
M  END
$$$$

  -OEChem-03222214033D

 28 27  0     1  0  0  0  0  0999 V2000
   -2.6955   -4.0755    0.3933 H   0  0  0  0  0  0  0  0  0  0  0  0
   -2.6395   -3.1152   -0.1274 C   0  0  0  0  0  0  0  0  0  0  0  0
   -3.4153   -2.4555    0.2681 H   0  0  0  0  0  0  0  0  0  0  0  0
   -2.8195   -3.2827   -1.1920 H   0  0  0  0  0  0  0  0  0  0  0  0
   -1.2719   -2.4910    0.0754 C   0  0  0  0  0  0  0  0  0  0  0  0
   -0.4276   -3.0778    0.7264 O   0  0  0  0  0  0  0  0  0  0  0  0
   -0.9918   -1.2597   -0.4849 N   0  0  0  0  0  0  0  0  0  0  0  0
   -1.7092   -0.8587   -1.0818 H   0  0  0  0  0  0  0  0  0  0  0  0
    0.3307   -0.6053   -0.4439 C   0  0  1  0  0  0  0  0  0  0  0  0
    1.0699   -1.2553   -0.9259 H   0  0  0  0  0  0  0  0  0  0  0  0
    0.1877    0.6933   -1.2646 C   0  0  0  0  0  0  0  0  0  0  0  0
   -0.1441    0.4516   -2.2796 H   0  0  0  0  0  0  0  0  0  0  0  0
   -0.6083    1.2827   -0.7964 H   0  0  0  0  0  0  0  0  0  0  0  0
    1.4760    1.5541   -1.3616 C   0  0  0  0  0  0  0  0  0  0  0  0
    2.2211    1.2305   -0.6322 H   0  0  0  0  0  0  0  0  0  0  0  0
    1.9265    1.4201   -2.3481 H   0  0  0  0  0  0  0  0  0  0  0  0
    1.2453    3.0492   -1.1368 C   0  0  0  0  0  0  0  0  0  0  0  0
    0.1897    3.5507   -1.4853 O   0  0  0  0  0  0  0  0  0  0  0  0
    2.2479    3.7574   -0.5764 O   0  0  0  0  0  0  0  0  0  0  0  0
    1.9201    4.6678   -0.5250 H   0  0  0  0  0  0  0  0  0  0  0  0
    0.8315   -0.3351    0.9977 C   0  0  0  0  0  0  0  0  0  0  0  0
    2.0219   -0.4373    1.2635 O   0  0  0  0  0  0  0  0  0  0  0  0
   -0.0255    0.1975    1.9438 N   0  0  0  0  0  0  0  0  0  0  0  0
   -1.0148    0.1751    1.7206 H   0  0  0  0  0  0  0  0  0  0  0  0
    0.3818    0.4646    3.3175 C   0  0  0  0  0  0  0  0  0  0  0  0
    1.2142    1.1762    3.3393 H   0  0  0  0  0  0  0  0  0  0  0  0
   -0.4511    0.8925    3.8833 H   0  0  0  0  0  0  0  0  0  0  0  0
    0.6976   -0.4616    3.8094 H   0  0  0  0  0  0  0  0  0  0  0  0
  1  2  1  0  0  0  0
  2  3  1  0  0  0  0
  2  4  1  0  0  0  0
  2  5  1  0  0  0  0
  5  6  2  0  0  0  0
  5  7  1  0  0  0  0
  7  8  1  0  0  0  0
  7  9  1  0  0  0  0
  9 10  1  0  0  0  0
  9 11  1  0  0  0  0
  9 21  1  0  0  0  0
 11 12  1  0  0  0  0
 11 13  1  0  0  0  0
 11 14  1  0  0  0  0
 14 15  1  0  0  0  0
 14 16  1  0  0  0  0
 14 17  1  0  0  0  0
 17 18  2  0  0  0  0
 17 19  1  0  0  0  0
 19 20  1  0  0  0  0
 21 22  2  0  0  0  0
 21 23  1  0  0  0  0
 23 24  1  0  0  0  0
 23 25  1  0  0  0  0
 25 26  1  0  0  0  0
 25 27  1  0  0  0  0
 25 28  1  0  0  0  0
M  END
$$$$

  -OEChem-03222214033D

 28 27  0     1  0  0  0  0  0999 V2000
   -2.7350   -4.1040    0.2868 H   0  0  0  0  0  0  0  0  0  0  0  0
   -2.6695   -3.1264   -0.1994 C   0  0  0  0  0  0  0  0  0  0  0  0
   -3.4142   -2.4624    0.2461 H   0  0  0  0  0  0  0  0  0  0  0  0
   -2.8870   -3.2477   -1.2633 H   0  0  0  0  0  0  0  0  0  0  0  0
   -1.2794   -2.5465   -0.0181 C   0  0  0  0  0  0  0  0  0  0  0  0
   -0.4218   -3.1926    0.5552 O   0  0  0  0  0  0  0  0  0  0  0  0
   -0.9877   -1.2973   -0.5295 N   0  0  0  0  0  0  0  0  0  0  0  0
   -1.7287   -0.8236   -1.0365 H   0  0  0  0  0  0  0  0  0  0  0  0
    0.3306   -0.6444   -0.4251 C   0  0  1  0  0  0  0  0  0  0  0  0
    1.0837   -1.2785   -0.9071 H   0  0  0  0  0  0  0  0  0  0  0  0
    0.2153    0.6832   -1.1998 C   0  0  0  0  0  0  0  0  0  0  0  0
   -0.0421    0.4533   -2.2389 H   0  0  0  0  0  0  0  0  0  0  0  0
   -0.6184    1.2640   -0.7919 H   0  0  0  0  0  0  0  0  0  0  0  0
    1.5218    1.5216   -1.2040 C   0  0  0  0  0  0  0  0  0  0  0  0
    2.3378    0.9956   -0.7028 H   0  0  0  0  0  0  0  0  0  0  0  0
    1.8355    1.6597   -2.2423 H   0  0  0  0  0  0  0  0  0  0  0  0
    1.3944    2.9123   -0.5777 C   0  0  0  0  0  0  0  0  0  0  0  0
    0.5628    3.1170    0.2908 O   0  0  0  0  0  0  0  0  0  0  0  0
    2.2291    3.8684   -1.0371 O   0  0  0  0  0  0  0  0  0  0  0  0
    2.0209    4.6569   -0.5132 H   0  0  0  0  0  0  0  0  0  0  0  0
    0.7979   -0.4146    1.0352 C   0  0  0  0  0  0  0  0  0  0  0  0
    1.9832   -0.5282    1.3217 O   0  0  0  0  0  0  0  0  0  0  0  0
   -0.0776    0.0910    1.9788 N   0  0  0  0  0  0  0  0  0  0  0  0
   -1.0207    0.2961    1.6683 H   0  0  0  0  0  0  0  0  0  0  0  0
    0.3471    0.5427    3.2972 C   0  0  0  0  0  0  0  0  0  0  0  0
    1.0291    1.3948    3.2067 H   0  0  0  0  0  0  0  0  0  0  0  0
   -0.5196    0.8526    3.8885 H   0  0  0  0  0  0  0  0  0  0  0  0
    0.8589   -0.2644    3.8324 H   0  0  0  0  0  0  0  0  0  0  0  0
  1  2  1  0  0  0  0
  2  3  1  0  0  0  0
  2  4  1  0  0  0  0
  2  5  1  0  0  0  0
  5  6  2  0  0  0  0
  5  7  1  0  0  0  0
  7  8  1  0  0  0  0
  7  9  1  0  0  0  0
  9 10  1  0  0  0  0
  9 11  1  0  0  0  0
  9 21  1  0  0  0  0
 11 12  1  0  0  0  0
 11 13  1  0  0  0  0
 11 14  1  0  0  0  0
 14 15  1  0  0  0  0
 14 16  1  0  0  0  0
 14 17  1  0  0  0  0
 17 18  2  0  0  0  0
 17 19  1  0  0  0  0
 19 20  1  0  0  0  0
 21 22  2  0  0  0  0
 21 23  1  0  0  0  0
 23 24  1  0  0  0  0
 23 25  1  0  0  0  0
 25 26  1  0  0  0  0
 25 27  1  0  0  0  0
 25 28  1  0  0  0  0
M  END
$$$$

  -OEChem-03222214033D

 28 27  0     1  0  0  0  0  0999 V2000
   -2.6858   -4.1503    0.2952 H   0  0  0  0  0  0  0  0  0  0  0  0
   -2.6562   -3.1566   -0.1611 C   0  0  0  0  0  0  0  0  0  0  0  0
   -3.3873   -2.5185    0.3408 H   0  0  0  0  0  0  0  0  0  0  0  0
   -2.9227   -3.2474   -1.2168 H   0  0  0  0  0  0  0  0  0  0  0  0
   -1.2670   -2.5621   -0.0256 C   0  0  0  0  0  0  0  0  0  0  0  0
   -0.3831   -3.2020    0.5139 O   0  0  0  0  0  0  0  0  0  0  0  0
   -1.0049   -1.3053   -0.5351 N   0  0  0  0  0  0  0  0  0  0  0  0
   -1.7705   -0.8261   -0.9985 H   0  0  0  0  0  0  0  0  0  0  0  0
    0.3033   -0.6312   -0.4414 C   0  0  1  0  0  0  0  0  0  0  0  0
    1.0572   -1.2622   -0.9258 H   0  0  0  0  0  0  0  0  0  0  0  0
    0.1836    0.6899   -1.2254 C   0  0  0  0  0  0  0  0  0  0  0  0
   -0.0496    0.4378   -2.2650 H   0  0  0  0  0  0  0  0  0  0  0  0
   -0.6606    1.2759   -0.8484 H   0  0  0  0  0  0  0  0  0  0  0  0
    1.4912    1.5243   -1.2228 C   0  0  0  0  0  0  0  0  0  0  0  0
    2.3504    0.8970   -0.9686 H   0  0  0  0  0  0  0  0  0  0  0  0
    1.6615    1.8945   -2.2371 H   0  0  0  0  0  0  0  0  0  0  0  0
    1.4919    2.7524   -0.3065 C   0  0  0  0  0  0  0  0  0  0  0  0
    0.5381    2.9866    0.4176 O   0  0  0  0  0  0  0  0  0  0  0  0
    2.5801    3.5479   -0.3680 O   0  0  0  0  0  0  0  0  0  0  0  0
    2.4215    4.2440    0.2873 H   0  0  0  0  0  0  0  0  0  0  0  0
    0.7890   -0.3971    1.0113 C   0  0  0  0  0  0  0  0  0  0  0  0
    1.9842   -0.4663    1.2699 O   0  0  0  0  0  0  0  0  0  0  0  0
   -0.0793    0.0913    1.9704 N   0  0  0  0  0  0  0  0  0  0  0  0
   -1.0266    0.2926    1.6708 H   0  0  0  0  0  0  0  0  0  0  0  0
    0.3638    0.5685    3.2738 C   0  0  0  0  0  0  0  0  0  0  0  0
    1.0143    1.4421    3.1593 H   0  0  0  0  0  0  0  0  0  0  0  0
   -0.4973    0.8541    3.8852 H   0  0  0  0  0  0  0  0  0  0  0  0
    0.9158   -0.2165    3.8016 H   0  0  0  0  0  0  0  0  0  0  0  0
  1  2  1  0  0  0  0
  2  3  1  0  0  0  0
  2  4  1  0  0  0  0
  2  5  1  0  0  0  0
  5  6  2  0  0  0  0
  5  7  1  0  0  0  0
  7  8  1  0  0  0  0
  7  9  1  0  0  0  0
  9 10  1  0  0  0  0
  9 11  1  0  0  0  0
  9 21  1  0  0  0  0
 11 12  1  0  0  0  0
 11 13  1  0  0  0  0
 11 14  1  0  0  0  0
 14 15  1  0  0  0  0
 14 16  1  0  0  0  0
 14 17  1  0  0  0  0
 17 18  2  0  0  0  0
 17 19  1  0  0  0  0
 19 20  1  0  0  0  0
 21 22  2  0  0  0  0
 21 23  1  0  0  0  0
 23 24  1  0  0  0  0
 23 25  1  0  0  0  0
 25 26  1  0  0  0  0
 25 27  1  0  0  0  0
 25 28  1  0  0  0  0
M  END
$$$$

  -OEChem-03222214033D

 28 27  0     1  0  0  0  0  0999 V2000
   -2.6548   -4.1578    0.3077 H   0  0  0  0  0  0  0  0  0  0  0  0
   -2.6390   -3.1602   -0.1404 C   0  0  0  0  0  0  0  0  0  0  0  0
   -3.3676   -2.5316    0.3770 H   0  0  0  0  0  0  0  0  0  0  0  0
   -2.9201   -3.2443   -1.1928 H   0  0  0  0  0  0  0  0  0  0  0  0
   -1.2518   -2.5578   -0.0191 C   0  0  0  0  0  0  0  0  0  0  0  0
   -0.3584   -3.1935    0.5096 O   0  0  0  0  0  0  0  0  0  0  0  0
   -1.0036   -1.2967   -0.5253 N   0  0  0  0  0  0  0  0  0  0  0  0
   -1.7767   -0.8223   -0.9810 H   0  0  0  0  0  0  0  0  0  0  0  0
    0.3002   -0.6125   -0.4421 C   0  0  1  0  0  0  0  0  0  0  0  0
    1.0531   -1.2454   -0.9259 H   0  0  0  0  0  0  0  0  0  0  0  0
    0.1762    0.6975   -1.2473 C   0  0  0  0  0  0  0  0  0  0  0  0
   -0.0581    0.4281   -2.2823 H   0  0  0  0  0  0  0  0  0  0  0  0
   -0.6647    1.2923   -0.8755 H   0  0  0  0  0  0  0  0  0  0  0  0
    1.4736    1.5438   -1.2616 C   0  0  0  0  0  0  0  0  0  0  0  0
    2.3465    0.8842   -1.2445 H   0  0  0  0  0  0  0  0  0  0  0  0
    1.5117    2.1077   -2.1970 H   0  0  0  0  0  0  0  0  0  0  0  0
    1.6118    2.5651   -0.1287 C   0  0  0  0  0  0  0  0  0  0  0  0
    0.6283    2.9087    0.5070 O   0  0  0  0  0  0  0  0  0  0  0  0
    2.8424    3.0771    0.0823 O   0  0  0  0  0  0  0  0  0  0  0  0
    2.7454    3.6649    0.8460 H   0  0  0  0  0  0  0  0  0  0  0  0
    0.7957   -0.3828    1.0068 C   0  0  0  0  0  0  0  0  0  0  0  0
    1.9947   -0.4319    1.2505 O   0  0  0  0  0  0  0  0  0  0  0  0
   -0.0687    0.0927    1.9759 N   0  0  0  0  0  0  0  0  0  0  0  0
   -1.0252    0.2713    1.6915 H   0  0  0  0  0  0  0  0  0  0  0  0
    0.3749    0.5477    3.2868 C   0  0  0  0  0  0  0  0  0  0  0  0
    1.0671    1.3901    3.1855 H   0  0  0  0  0  0  0  0  0  0  0  0
   -0.4819    0.8738    3.8839 H   0  0  0  0  0  0  0  0  0  0  0  0
    0.8806   -0.2632    3.8216 H   0  0  0  0  0  0  0  0  0  0  0  0
  1  2  1  0  0  0  0
  2  3  1  0  0  0  0
  2  4  1  0  0  0  0
  2  5  1  0  0  0  0
  5  6  2  0  0  0  0
  5  7  1  0  0  0  0
  7  8  1  0  0  0  0
  7  9  1  0  0  0  0
  9 10  1  0  0  0  0
  9 11  1  0  0  0  0
  9 21  1  0  0  0  0
 11 12  1  0  0  0  0
 11 13  1  0  0  0  0
 11 14  1  0  0  0  0
 14 15  1  0  0  0  0
 14 16  1  0  0  0  0
 14 17  1  0  0  0  0
 17 18  2  0  0  0  0
 17 19  1  0  0  0  0
 19 20  1  0  0  0  0
 21 22  2  0  0  0  0
 21 23  1  0  0  0  0
 23 24  1  0  0  0  0
 23 25  1  0  0  0  0
 25 26  1  0  0  0  0
 25 27  1  0  0  0  0
 25 28  1  0  0  0  0
M  END
$$$$

  -OEChem-03222214033D

 28 27  0     1  0  0  0  0  0999 V2000
   -2.6579   -4.1453    0.2964 H   0  0  0  0  0  0  0  0  0  0  0  0
   -2.6349   -3.1432   -0.1417 C   0  0  0  0  0  0  0  0  0  0  0  0
   -3.3575   -2.5143    0.3835 H   0  0  0  0  0  0  0  0  0  0  0  0
   -2.9182   -3.2140   -1.1945 H   0  0  0  0  0  0  0  0  0  0  0  0
   -1.2433   -2.5520   -0.0168 C   0  0  0  0  0  0  0  0  0  0  0  0
   -0.3543   -3.1986    0.5059 O   0  0  0  0  0  0  0  0  0  0  0  0
   -0.9881   -1.2877   -0.5117 N   0  0  0  0  0  0  0  0  0  0  0  0
   -1.7590   -0.8065   -0.9639 H   0  0  0  0  0  0  0  0  0  0  0  0
    0.3187   -0.6088   -0.4221 C   0  0  1  0  0  0  0  0  0  0  0  0
    1.0712   -1.2471   -0.8994 H   0  0  0  0  0  0  0  0  0  0  0  0
    0.1970    0.6890   -1.2542 C   0  0  0  0  0  0  0  0  0  0  0  0
   -0.0504    0.4053   -2.2822 H   0  0  0  0  0  0  0  0  0  0  0  0
   -0.6377    1.2879   -0.8739 H   0  0  0  0  0  0  0  0  0  0  0  0
    1.4674    1.5723   -1.3034 C   0  0  0  0  0  0  0  0  0  0  0  0
    2.3329    0.9396   -1.5211 H   0  0  0  0  0  0  0  0  0  0  0  0
    1.3707    2.2892   -2.1225 H   0  0  0  0  0  0  0  0  0  0  0  0
    1.7693    2.3748   -0.0374 C   0  0  0  0  0  0  0  0  0  0  0  0
    0.8399    2.7968    0.6316 O   0  0  0  0  0  0  0  0  0  0  0  0
    3.0638    2.6275    0.2472 O   0  0  0  0  0  0  0  0  0  0  0  0
    3.0521    3.0873    1.0995 H   0  0  0  0  0  0  0  0  0  0  0  0
    0.8034   -0.3988    1.0331 C   0  0  0  0  0  0  0  0  0  0  0  0
    1.9974   -0.4809    1.2910 O   0  0  0  0  0  0  0  0  0  0  0  0
   -0.0655    0.0682    2.0024 N   0  0  0  0  0  0  0  0  0  0  0  0
   -1.0151    0.2686    1.7102 H   0  0  0  0  0  0  0  0  0  0  0  0
    0.3713    0.4935    3.3255 C   0  0  0  0  0  0  0  0  0  0  0  0
    1.0475    1.3511    3.2464 H   0  0  0  0  0  0  0  0  0  0  0  0
   -0.4904    0.7857    3.9328 H   0  0  0  0  0  0  0  0  0  0  0  0
    0.8934   -0.3220    3.8372 H   0  0  0  0  0  0  0  0  0  0  0  0
  1  2  1  0  0  0  0
  2  3  1  0  0  0  0
  2  4  1  0  0  0  0
  2  5  1  0  0  0  0
  5  6  2  0  0  0  0
  5  7  1  0  0  0  0
  7  8  1  0  0  0  0
  7  9  1  0  0  0  0
  9 10  1  0  0  0  0
  9 11  1  0  0  0  0
  9 21  1  0  0  0  0
 11 12  1  0  0  0  0
 11 13  1  0  0  0  0
 11 14  1  0  0  0  0
 14 15  1  0  0  0  0
 14 16  1  0  0  0  0
 14 17  1  0  0  0  0
 17 18  2  0  0  0  0
 17 19  1  0  0  0  0
 19 20  1  0  0  0  0
 21 22  2  0  0  0  0
 21 23  1  0  0  0  0
 23 24  1  0  0  0  0
 23 25  1  0  0  0  0
 25 26  1  0  0  0  0
 25 27  1  0  0  0  0
 25 28  1  0  0  0  0
M  END
$$$$

  -OEChem-03222214033D

 28 27  0     1  0  0  0  0  0999 V2000
   -2.6486   -4.1250    0.3046 H   0  0  0  0  0  0  0  0  0  0  0  0
   -2.6186   -3.1228   -0.1327 C   0  0  0  0  0  0  0  0  0  0  0  0
   -3.3342   -2.4885    0.3955 H   0  0  0  0  0  0  0  0  0  0  0  0
   -2.9056   -3.1901   -1.1848 H   0  0  0  0  0  0  0  0  0  0  0  0
   -1.2219   -2.5436   -0.0110 C   0  0  0  0  0  0  0  0  0  0  0  0
   -0.3372   -3.1997    0.5067 O   0  0  0  0  0  0  0  0  0  0  0  0
   -0.9585   -1.2798   -0.5031 N   0  0  0  0  0  0  0  0  0  0  0  0
   -1.7267   -0.7932   -0.9540 H   0  0  0  0  0  0  0  0  0  0  0  0
    0.3511   -0.6059   -0.4067 C   0  0  1  0  0  0  0  0  0  0  0  0
    1.1092   -1.2427   -0.8771 H   0  0  0  0  0  0  0  0  0  0  0  0
    0.2191    0.6861   -1.2538 C   0  0  0  0  0  0  0  0  0  0  0  0
   -0.0553    0.3967   -2.2734 H   0  0  0  0  0  0  0  0  0  0  0  0
   -0.6082    1.2784   -0.8475 H   0  0  0  0  0  0  0  0  0  0  0  0
    1.4537    1.6165   -1.3477 C   0  0  0  0  0  0  0  0  0  0  0  0
    2.2719    1.0567   -1.8098 H   0  0  0  0  0  0  0  0  0  0  0  0
    1.2192    2.4566   -2.0060 H   0  0  0  0  0  0  0  0  0  0  0  0
    1.9750    2.1931   -0.0355 C   0  0  0  0  0  0  0  0  0  0  0  0
    1.1729    2.7045    0.7282 O   0  0  0  0  0  0  0  0  0  0  0  0
    3.3037    2.1480    0.1948 O   0  0  0  0  0  0  0  0  0  0  0  0
    3.4152    2.4564    1.1064 H   0  0  0  0  0  0  0  0  0  0  0  0
    0.8075   -0.4110    1.0611 C   0  0  0  0  0  0  0  0  0  0  0  0
    1.9872   -0.5499    1.3579 O   0  0  0  0  0  0  0  0  0  0  0  0
   -0.0787    0.0516    2.0170 N   0  0  0  0  0  0  0  0  0  0  0  0
   -1.0244    0.2528    1.7134 H   0  0  0  0  0  0  0  0  0  0  0  0
    0.3231    0.4094    3.3706 C   0  0  0  0  0  0  0  0  0  0  0  0
    1.0489    1.2291    3.3492 H   0  0  0  0  0  0  0  0  0  0  0  0
   -0.5462    0.7318    3.9515 H   0  0  0  0  0  0  0  0  0  0  0  0
    0.7761   -0.4507    3.8750 H   0  0  0  0  0  0  0  0  0  0  0  0
  1  2  1  0  0  0  0
  2  3  1  0  0  0  0
  2  4  1  0  0  0  0
  2  5  1  0  0  0  0
  5  6  2  0  0  0  0
  5  7  1  0  0  0  0
  7  8  1  0  0  0  0
  7  9  1  0  0  0  0
  9 10  1  0  0  0  0
  9 11  1  0  0  0  0
  9 21  1  0  0  0  0
 11 12  1  0  0  0  0
 11 13  1  0  0  0  0
 11 14  1  0  0  0  0
 14 15  1  0  0  0  0
 14 16  1  0  0  0  0
 14 17  1  0  0  0  0
 17 18  2  0  0  0  0
 17 19  1  0  0  0  0
 19 20  1  0  0  0  0
 21 22  2  0  0  0  0
 21 23  1  0  0  0  0
 23 24  1  0  0  0  0
 23 25  1  0  0  0  0
 25 26  1  0  0  0  0
 25 27  1  0  0  0  0
 25 28  1  0  0  0  0
M  END
$$$$

  -OEChem-03222214033D

 28 27  0     1  0  0  0  0  0999 V2000
   -2.6491   -4.1156    0.2835 H   0  0  0  0  0  0  0  0  0  0  0  0
   -2.6066   -3.1118   -0.1491 C   0  0  0  0  0  0  0  0  0  0  0  0
   -3.3297   -2.4764    0.3677 H   0  0  0  0  0  0  0  0  0  0  0  0
   -2.8736   -3.1739   -1.2068 H   0  0  0  0  0  0  0  0  0  0  0  0
   -1.2099   -2.5390    0.0012 C   0  0  0  0  0  0  0  0  0  0  0  0
   -0.3403   -3.1984    0.5393 O   0  0  0  0  0  0  0  0  0  0  0  0
   -0.9306   -1.2790   -0.4926 N   0  0  0  0  0  0  0  0  0  0  0  0
   -1.6846   -0.7992   -0.9737 H   0  0  0  0  0  0  0  0  0  0  0  0
    0.3838   -0.6133   -0.3896 C   0  0  1  0  0  0  0  0  0  0  0  0
    1.1471   -1.2455   -0.8580 H   0  0  0  0  0  0  0  0  0  0  0  0
    0.2345    0.6825   -1.2339 C   0  0  0  0  0  0  0  0  0  0  0  0
   -0.0715    0.3997   -2.2467 H   0  0  0  0  0  0  0  0  0  0  0  0
   -0.5856    1.2608   -0.7945 H   0  0  0  0  0  0  0  0  0  0  0  0
    1.4354    1.6547   -1.3652 C   0  0  0  0  0  0  0  0  0  0  0  0
    2.1533    1.2104   -2.0606 H   0  0  0  0  0  0  0  0  0  0  0  0
    1.0911    2.5918   -1.8105 H   0  0  0  0  0  0  0  0  0  0  0  0
    2.2019    1.9935   -0.0949 C   0  0  0  0  0  0  0  0  0  0  0  0
    1.6073    2.5939    0.7841 O   0  0  0  0  0  0  0  0  0  0  0  0
    3.4973    1.6263   -0.0113 O   0  0  0  0  0  0  0  0  0  0  0  0
    3.7434    1.7780    0.9144 H   0  0  0  0  0  0  0  0  0  0  0  0
    0.8149   -0.4241    1.0882 C   0  0  0  0  0  0  0  0  0  0  0  0
    1.9766   -0.6186    1.4231 O   0  0  0  0  0  0  0  0  0  0  0  0
   -0.0872    0.0443    2.0265 N   0  0  0  0  0  0  0  0  0  0  0  0
   -1.0282    0.2439    1.7082 H   0  0  0  0  0  0  0  0  0  0  0  0
    0.2828    0.3626    3.3989 C   0  0  0  0  0  0  0  0  0  0  0  0
    1.0262    1.1666    3.4156 H   0  0  0  0  0  0  0  0  0  0  0  0
   -0.5955    0.6908    3.9625 H   0  0  0  0  0  0  0  0  0  0  0  0
    0.7030   -0.5180    3.8963 H   0  0  0  0  0  0  0  0  0  0  0  0
  1  2  1  0  0  0  0
  2  3  1  0  0  0  0
  2  4  1  0  0  0  0
  2  5  1  0  0  0  0
  5  6  2  0  0  0  0
  5  7  1  0  0  0  0
  7  8  1  0  0  0  0
  7  9  1  0  0  0  0
  9 10  1  0  0  0  0
  9 11  1  0  0  0  0
  9 21  1  0  0  0  0
 11 12  1  0  0  0  0
 11 13  1  0  0  0  0
 11 14  1  0  0  0  0
 14 15  1  0  0  0  0
 14 16  1  0  0  0  0
 14 17  1  0  0  0  0
 17 18  2  0  0  0  0
 17 19  1  0  0  0  0
 19 20  1  0  0  0  0
 21 22  2  0  0  0  0
 21 23  1  0  0  0  0
 23 24  1  0  0  0  0
 23 25  1  0  0  0  0
 25 26  1  0  0  0  0
 25 27  1  0  0  0  0
 25 28  1  0  0  0  0
M  END
$$$$

  -OEChem-03222214033D

 28 27  0     1  0  0  0  0  0999 V2000
   -2.6149   -4.1121    0.2981 H   0  0  0  0  0  0  0  0  0  0  0  0
   -2.5708   -3.1125   -0.1440 C   0  0  0  0  0  0  0  0  0  0  0  0
   -3.3073   -2.4766    0.3526 H   0  0  0  0  0  0  0  0  0  0  0  0
   -2.8175   -3.1874   -1.2057 H   0  0  0  0  0  0  0  0  0  0  0  0
   -1.1812   -2.5287    0.0270 C   0  0  0  0  0  0  0  0  0  0  0  0
   -0.3213   -3.1734    0.5969 O   0  0  0  0  0  0  0  0  0  0  0  0
   -0.8988   -1.2757   -0.4830 N   0  0  0  0  0  0  0  0  0  0  0  0
   -1.6397   -0.8195   -1.0058 H   0  0  0  0  0  0  0  0  0  0  0  0
    0.4153   -0.6070   -0.3840 C   0  0  1  0  0  0  0  0  0  0  0  0
    1.1861   -1.2322   -0.8495 H   0  0  0  0  0  0  0  0  0  0  0  0
    0.2405    0.6896   -1.2254 C   0  0  0  0  0  0  0  0  0  0  0  0
   -0.0868    0.4074   -2.2316 H   0  0  0  0  0  0  0  0  0  0  0  0
   -0.5780    1.2533   -0.7642 H   0  0  0  0  0  0  0  0  0  0  0  0
    1.4156    1.6914   -1.3842 C   0  0  0  0  0  0  0  0  0  0  0  0
    1.9897    1.3975   -2.2674 H   0  0  0  0  0  0  0  0  0  0  0  0
    1.0140    2.6894   -1.5807 H   0  0  0  0  0  0  0  0  0  0  0  0
    2.4121    1.7934   -0.2413 C   0  0  0  0  0  0  0  0  0  0  0  0
    2.1162    2.4944    0.7106 O   0  0  0  0  0  0  0  0  0  0  0  0
    3.5587    1.0886   -0.3330 O   0  0  0  0  0  0  0  0  0  0  0  0
    3.9354    1.1078    0.5617 H   0  0  0  0  0  0  0  0  0  0  0  0
    0.8298   -0.4015    1.0986 C   0  0  0  0  0  0  0  0  0  0  0  0
    1.9736   -0.6402    1.4665 O   0  0  0  0  0  0  0  0  0  0  0  0
   -0.0849    0.0770    2.0193 N   0  0  0  0  0  0  0  0  0  0  0  0
   -1.0354    0.2210    1.6995 H   0  0  0  0  0  0  0  0  0  0  0  0
    0.2417    0.3130    3.4195 C   0  0  0  0  0  0  0  0  0  0  0  0
    1.0419    1.0559    3.5051 H   0  0  0  0  0  0  0  0  0  0  0  0
   -0.6356    0.6872    3.9555 H   0  0  0  0  0  0  0  0  0  0  0  0
    0.5703   -0.6162    3.8971 H   0  0  0  0  0  0  0  0  0  0  0  0
  1  2  1  0  0  0  0
  2  3  1  0  0  0  0
  2  4  1  0  0  0  0
  2  5  1  0  0  0  0
  5  6  2  0  0  0  0
  5  7  1  0  0  0  0
  7  8  1  0  0  0  0
  7  9  1  0  0  0  0
  9 10  1  0  0  0  0
  9 11  1  0  0  0  0
  9 21  1  0  0  0  0
 11 12  1  0  0  0  0
 11 13  1  0  0  0  0
 11 14  1  0  0  0  0
 14 15  1  0  0  0  0
 14 16  1  0  0  0  0
 14 17  1  0  0  0  0
 17 18  2  0  0  0  0
 17 19  1  0  0  0  0
 19 20  1  0  0  0  0
 21 22  2  0  0  0  0
 21 23  1  0  0  0  0
 23 24  1  0  0  0  0
 23 25  1  0  0  0  0
 25 26  1  0  0  0  0
 25 27  1  0  0  0  0
 25 28  1  0  0  0  0
M  END
$$$$

  -OEChem-03222214033D

 28 27  0     1  0  0  0  0  0999 V2000
   -2.6186   -4.0863    0.4918 H   0  0  0  0  0  0  0  0  0  0  0  0
   -2.5762   -3.1098    0.0005 C   0  0  0  0  0  0  0  0  0  0  0  0
   -3.3191   -2.4535    0.4599 H   0  0  0  0  0  0  0  0  0  0  0  0
   -2.8157   -3.2390   -1.0577 H   0  0  0  0  0  0  0  0  0  0  0  0
   -1.1900   -2.5118    0.1499 C   0  0  0  0  0  0  0  0  0  0  0  0
   -0.3318   -3.1232    0.7576 O   0  0  0  0  0  0  0  0  0  0  0  0
   -0.9121   -1.2829   -0.4184 N   0  0  0  0  0  0  0  0  0  0  0  0
   -1.6474   -0.8680   -0.9816 H   0  0  0  0  0  0  0  0  0  0  0  0
    0.4080   -0.6193   -0.3793 C   0  0  1  0  0  0  0  0  0  0  0  0
    1.1647   -1.2606   -0.8467 H   0  0  0  0  0  0  0  0  0  0  0  0
    0.2091    0.6562   -1.2458 C   0  0  0  0  0  0  0  0  0  0  0  0
   -0.1477    0.3455   -2.2337 H   0  0  0  0  0  0  0  0  0  0  0  0
   -0.5973    1.2324   -0.7791 H   0  0  0  0  0  0  0  0  0  0  0  0
    1.3804    1.6516   -1.4720 C   0  0  0  0  0  0  0  0  0  0  0  0
    1.7530    1.5104   -2.4902 H   0  0  0  0  0  0  0  0  0  0  0  0
    0.9972    2.6746   -1.4122 H   0  0  0  0  0  0  0  0  0  0  0  0
    2.5906    1.5374   -0.5592 C   0  0  0  0  0  0  0  0  0  0  0  0
    2.6915    2.3309    0.3594 O   0  0  0  0  0  0  0  0  0  0  0  0
    3.4833    0.5579   -0.8121 O   0  0  0  0  0  0  0  0  0  0  0  0
    4.0384    0.5203   -0.0154 H   0  0  0  0  0  0  0  0  0  0  0  0
    0.8605   -0.3550    1.0836 C   0  0  0  0  0  0  0  0  0  0  0  0
    2.0035   -0.6106    1.4421 O   0  0  0  0  0  0  0  0  0  0  0  0
   -0.0301    0.1678    2.0043 N   0  0  0  0  0  0  0  0  0  0  0  0
   -0.9990    0.2400    1.7159 H   0  0  0  0  0  0  0  0  0  0  0  0
    0.3099    0.3706    3.4068 C   0  0  0  0  0  0  0  0  0  0  0  0
    1.1822    1.0270    3.4975 H   0  0  0  0  0  0  0  0  0  0  0  0
   -0.5265    0.8355    3.9371 H   0  0  0  0  0  0  0  0  0  0  0  0
    0.5381   -0.5870    3.8868 H   0  0  0  0  0  0  0  0  0  0  0  0
  1  2  1  0  0  0  0
  2  3  1  0  0  0  0
  2  4  1  0  0  0  0
  2  5  1  0  0  0  0
  5  6  2  0  0  0  0
  5  7  1  0  0  0  0
  7  8  1  0  0  0  0
  7  9  1  0  0  0  0
  9 10  1  0  0  0  0
  9 11  1  0  0  0  0
  9 21  1  0  0  0  0
 11 12  1  0  0  0  0
 11 13  1  0  0  0  0
 11 14  1  0  0  0  0
 14 15  1  0  0  0  0
 14 16  1  0  0  0  0
 14 17  1  0  0  0  0
 17 18  2  0  0  0  0
 17 19  1  0  0  0  0
 19 20  1  0  0  0  0
 21 22  2  0  0  0  0
 21 23  1  0  0  0  0
 23 24  1  0  0  0  0
 23 25  1  0  0  0  0
 25 26  1  0  0  0  0
 25 27  1  0  0  0  0
 25 28  1  0  0  0  0
M  END
$$$$

  -OEChem-03222214033D

 28 27  0     1  0  0  0  0  0999 V2000
   -2.8161   -3.9657    0.5509 H   0  0  0  0  0  0  0  0  0  0  0  0
   -2.7115   -3.0231    0.0057 C   0  0  0  0  0  0  0  0  0  0  0  0
   -3.4635   -2.3201    0.3717 H   0  0  0  0  0  0  0  0  0  0  0  0
   -2.8832   -3.2126   -1.0566 H   0  0  0  0  0  0  0  0  0  0  0  0
   -1.3215   -2.4518    0.2130 C   0  0  0  0  0  0  0  0  0  0  0  0
   -0.5306   -3.0386    0.9266 O   0  0  0  0  0  0  0  0  0  0  0  0
   -0.9703   -1.2715   -0.4154 N   0  0  0  0  0  0  0  0  0  0  0  0
   -1.6436   -0.9074   -1.0822 H   0  0  0  0  0  0  0  0  0  0  0  0
    0.3923   -0.6965   -0.4203 C   0  0  1  0  0  0  0  0  0  0  0  0
    1.1008   -1.3966   -0.8786 H   0  0  0  0  0  0  0  0  0  0  0  0
    0.2618    0.5802   -1.2957 C   0  0  0  0  0  0  0  0  0  0  0  0
   -0.1133    0.2674   -2.2761 H   0  0  0  0  0  0  0  0  0  0  0  0
   -0.5071    1.2182   -0.8465 H   0  0  0  0  0  0  0  0  0  0  0  0
    1.5055    1.4756   -1.5530 C   0  0  0  0  0  0  0  0  0  0  0  0
    1.6700    1.5505   -2.6317 H   0  0  0  0  0  0  0  0  0  0  0  0
    1.2889    2.4852   -1.1928 H   0  0  0  0  0  0  0  0  0  0  0  0
    2.8206    1.0428   -0.9223 C   0  0  0  0  0  0  0  0  0  0  0  0
    3.4143    0.1096   -1.4321 O   0  0  0  0  0  0  0  0  0  0  0  0
    3.2611    1.7135    0.1624 O   0  0  0  0  0  0  0  0  0  0  0  0
    3.9837    1.1649    0.5089 H   0  0  0  0  0  0  0  0  0  0  0  0
    0.8772   -0.3976    1.0267 C   0  0  0  0  0  0  0  0  0  0  0  0
    2.0149   -0.6703    1.3871 O   0  0  0  0  0  0  0  0  0  0  0  0
    0.0257    0.2241    1.9235 N   0  0  0  0  0  0  0  0  0  0  0  0
   -0.9500    0.2680    1.6512 H   0  0  0  0  0  0  0  0  0  0  0  0
    0.3688    0.4172    3.3272 C   0  0  0  0  0  0  0  0  0  0  0  0
    1.2914    1.0000    3.4202 H   0  0  0  0  0  0  0  0  0  0  0  0
   -0.4313    0.9570    3.8423 H   0  0  0  0  0  0  0  0  0  0  0  0
    0.5116   -0.5496    3.8218 H   0  0  0  0  0  0  0  0  0  0  0  0
  1  2  1  0  0  0  0
  2  3  1  0  0  0  0
  2  4  1  0  0  0  0
  2  5  1  0  0  0  0
  5  6  2  0  0  0  0
  5  7  1  0  0  0  0
  7  8  1  0  0  0  0
  7  9  1  0  0  0  0
  9 10  1  0  0  0  0
  9 11  1  0  0  0  0
  9 21  1  0  0  0  0
 11 12  1  0  0  0  0
 11 13  1  0  0  0  0
 11 14  1  0  0  0  0
 14 15  1  0  0  0  0
 14 16  1  0  0  0  0
 14 17  1  0  0  0  0
 17 18  2  0  0  0  0
 17 19  1  0  0  0  0
 19 20  1  0  0  0  0
 21 22  2  0  0  0  0
 21 23  1  0  0  0  0
 23 24  1  0  0  0  0
 23 25  1  0  0  0  0
 25 26  1  0  0  0  0
 25 27  1  0  0  0  0
 25 28  1  0  0  0  0
M  END
$$$$

  -OEChem-03222214033D

 28 27  0     1  0  0  0  0  0999 V2000
   -2.7720   -4.0404    0.4390 H   0  0  0  0  0  0  0  0  0  0  0  0
   -2.6960   -3.0754   -0.0706 C   0  0  0  0  0  0  0  0  0  0  0  0
   -3.4760   -2.4133    0.3126 H   0  0  0  0  0  0  0  0  0  0  0  0
   -2.8507   -3.2318   -1.1408 H   0  0  0  0  0  0  0  0  0  0  0  0
   -1.3290   -2.4641    0.1729 C   0  0  0  0  0  0  0  0  0  0  0  0
   -0.5405   -3.0271    0.9085 O   0  0  0  0  0  0  0  0  0  0  0  0
   -0.9985   -1.2693   -0.4387 N   0  0  0  0  0  0  0  0  0  0  0  0
   -1.6615   -0.9289   -1.1279 H   0  0  0  0  0  0  0  0  0  0  0  0
    0.3558   -0.6769   -0.4329 C   0  0  1  0  0  0  0  0  0  0  0  0
    1.0624   -1.3693   -0.9047 H   0  0  0  0  0  0  0  0  0  0  0  0
    0.2293    0.6208   -1.2721 C   0  0  0  0  0  0  0  0  0  0  0  0
   -0.1145    0.3222   -2.2681 H   0  0  0  0  0  0  0  0  0  0  0  0
   -0.5536    1.2497   -0.8348 H   0  0  0  0  0  0  0  0  0  0  0  0
    1.4872    1.5070   -1.4815 C   0  0  0  0  0  0  0  0  0  0  0  0
    1.5145    1.8617   -2.5152 H   0  0  0  0  0  0  0  0  0  0  0  0
    1.3896    2.3885   -0.8416 H   0  0  0  0  0  0  0  0  0  0  0  0
    2.8398    0.8811   -1.1601 C   0  0  0  0  0  0  0  0  0  0  0  0
    3.1767   -0.1066   -1.7892 O   0  0  0  0  0  0  0  0  0  0  0  0
    3.6094    1.4712   -0.2217 O   0  0  0  0  0  0  0  0  0  0  0  0
    4.3298    0.8413   -0.0626 H   0  0  0  0  0  0  0  0  0  0  0  0
    0.8587   -0.3846    1.0065 C   0  0  0  0  0  0  0  0  0  0  0  0
    2.0216   -0.5928    1.3256 O   0  0  0  0  0  0  0  0  0  0  0  0
    0.0124    0.2184    1.9202 N   0  0  0  0  0  0  0  0  0  0  0  0
   -0.9729    0.2123    1.6797 H   0  0  0  0  0  0  0  0  0  0  0  0
    0.3900    0.4367    3.3110 C   0  0  0  0  0  0  0  0  0  0  0  0
    1.2845    1.0660    3.3718 H   0  0  0  0  0  0  0  0  0  0  0  0
   -0.4197    0.9385    3.8491 H   0  0  0  0  0  0  0  0  0  0  0  0
    0.5972   -0.5189    3.8046 H   0  0  0  0  0  0  0  0  0  0  0  0
  1  2  1  0  0  0  0
  2  3  1  0  0  0  0
  2  4  1  0  0  0  0
  2  5  1  0  0  0  0
  5  6  2  0  0  0  0
  5  7  1  0  0  0  0
  7  8  1  0  0  0  0
  7  9  1  0  0  0  0
  9 10  1  0  0  0  0
  9 11  1  0  0  0  0
  9 21  1  0  0  0  0
 11 12  1  0  0  0  0
 11 13  1  0  0  0  0
 11 14  1  0  0  0  0
 14 15  1  0  0  0  0
 14 16  1  0  0  0  0
 14 17  1  0  0  0  0
 17 18  2  0  0  0  0
 17 19  1  0  0  0  0
 19 20  1  0  0  0  0
 21 22  2  0  0  0  0
 21 23  1  0  0  0  0
 23 24  1  0  0  0  0
 23 25  1  0  0  0  0
 25 26  1  0  0  0  0
 25 27  1  0  0  0  0
 25 28  1  0  0  0  0
M  END
$$$$

  -OEChem-03222214033D

 28 27  0     1  0  0  0  0  0999 V2000
   -2.7277   -4.0927    0.4043 H   0  0  0  0  0  0  0  0  0  0  0  0
   -2.6728   -3.1250   -0.1026 C   0  0  0  0  0  0  0  0  0  0  0  0
   -3.4728   -2.4840    0.2755 H   0  0  0  0  0  0  0  0  0  0  0  0
   -2.8156   -3.2831   -1.1743 H   0  0  0  0  0  0  0  0  0  0  0  0
   -1.3243   -2.4788    0.1526 C   0  0  0  0  0  0  0  0  0  0  0  0
   -0.5269   -3.0189    0.8961 O   0  0  0  0  0  0  0  0  0  0  0  0
   -1.0227   -1.2720   -0.4492 N   0  0  0  0  0  0  0  0  0  0  0  0
   -1.6862   -0.9506   -1.1472 H   0  0  0  0  0  0  0  0  0  0  0  0
    0.3191   -0.6542   -0.4417 C   0  0  1  0  0  0  0  0  0  0  0  0
    1.0262   -1.3414   -0.9191 H   0  0  0  0  0  0  0  0  0  0  0  0
    0.1917    0.6495   -1.2665 C   0  0  0  0  0  0  0  0  0  0  0  0
   -0.1342    0.3621   -2.2717 H   0  0  0  0  0  0  0  0  0  0  0  0
   -0.5953    1.2762   -0.8338 H   0  0  0  0  0  0  0  0  0  0  0  0
    1.4648    1.5189   -1.4350 C   0  0  0  0  0  0  0  0  0  0  0  0
    1.3896    2.1054   -2.3540 H   0  0  0  0  0  0  0  0  0  0  0  0
    1.5021    2.2249   -0.6001 H   0  0  0  0  0  0  0  0  0  0  0  0
    2.8023    0.7812   -1.4417 C   0  0  0  0  0  0  0  0  0  0  0  0
    2.9219   -0.1939   -2.1635 O   0  0  0  0  0  0  0  0  0  0  0  0
    3.8066    1.2826   -0.6928 O   0  0  0  0  0  0  0  0  0  0  0  0
    4.5147    0.6234   -0.7503 H   0  0  0  0  0  0  0  0  0  0  0  0
    0.8440   -0.3570    0.9863 C   0  0  0  0  0  0  0  0  0  0  0  0
    2.0329   -0.4733    1.2505 O   0  0  0  0  0  0  0  0  0  0  0  0
    0.0053    0.2268    1.9190 N   0  0  0  0  0  0  0  0  0  0  0  0
   -0.9868    0.1659    1.7161 H   0  0  0  0  0  0  0  0  0  0  0  0
    0.4208    0.4823    3.2928 C   0  0  0  0  0  0  0  0  0  0  0  0
    1.2845    1.1553    3.3140 H   0  0  0  0  0  0  0  0  0  0  0  0
   -0.3935    0.9505    3.8539 H   0  0  0  0  0  0  0  0  0  0  0  0
    0.6929   -0.4549    3.7899 H   0  0  0  0  0  0  0  0  0  0  0  0
  1  2  1  0  0  0  0
  2  3  1  0  0  0  0
  2  4  1  0  0  0  0
  2  5  1  0  0  0  0
  5  6  2  0  0  0  0
  5  7  1  0  0  0  0
  7  8  1  0  0  0  0
  7  9  1  0  0  0  0
  9 10  1  0  0  0  0
  9 11  1  0  0  0  0
  9 21  1  0  0  0  0
 11 12  1  0  0  0  0
 11 13  1  0  0  0  0
 11 14  1  0  0  0  0
 14 15  1  0  0  0  0
 14 16  1  0  0  0  0
 14 17  1  0  0  0  0
 17 18  2  0  0  0  0
 17 19  1  0  0  0  0
 19 20  1  0  0  0  0
 21 22  2  0  0  0  0
 21 23  1  0  0  0  0
 23 24  1  0  0  0  0
 23 25  1  0  0  0  0
 25 26  1  0  0  0  0
 25 27  1  0  0  0  0
 25 28  1  0  0  0  0
M  END
$$$$

  -OEChem-03222214033D

 28 27  0     1  0  0  0  0  0999 V2000
   -2.6792   -4.1354    0.3593 H   0  0  0  0  0  0  0  0  0  0  0  0
   -2.6405   -3.1681   -0.1499 C   0  0  0  0  0  0  0  0  0  0  0  0
   -3.4660   -2.5487    0.2088 H   0  0  0  0  0  0  0  0  0  0  0  0
   -2.7559   -3.3328   -1.2239 H   0  0  0  0  0  0  0  0  0  0  0  0
   -1.3162   -2.4833    0.1310 C   0  0  0  0  0  0  0  0  0  0  0  0
   -0.5127   -3.0048    0.8818 O   0  0  0  0  0  0  0  0  0  0  0  0
   -1.0436   -1.2616   -0.4540 N   0  0  0  0  0  0  0  0  0  0  0  0
   -1.7075   -0.9546   -1.1580 H   0  0  0  0  0  0  0  0  0  0  0  0
    0.2865   -0.6208   -0.4443 C   0  0  1  0  0  0  0  0  0  0  0  0
    0.9974   -1.2977   -0.9302 H   0  0  0  0  0  0  0  0  0  0  0  0
    0.1540    0.6858   -1.2607 C   0  0  0  0  0  0  0  0  0  0  0  0
   -0.1703    0.4175   -2.2720 H   0  0  0  0  0  0  0  0  0  0  0  0
   -0.6279    1.3115   -0.8179 H   0  0  0  0  0  0  0  0  0  0  0  0
    1.4424    1.5351   -1.3900 C   0  0  0  0  0  0  0  0  0  0  0  0
    1.2970    2.3044   -2.1519 H   0  0  0  0  0  0  0  0  0  0  0  0
    1.6204    2.0463   -0.4393 H   0  0  0  0  0  0  0  0  0  0  0  0
    2.7139    0.7583   -1.7307 C   0  0  0  0  0  0  0  0  0  0  0  0
    2.6416   -0.1680   -2.5208 O   0  0  0  0  0  0  0  0  0  0  0  0
    3.8738    1.1808   -1.1855 O   0  0  0  0  0  0  0  0  0  0  0  0
    4.5360    0.5312   -1.4650 H   0  0  0  0  0  0  0  0  0  0  0  0
    0.8331   -0.3294    0.9748 C   0  0  0  0  0  0  0  0  0  0  0  0
    2.0371   -0.3732    1.1891 O   0  0  0  0  0  0  0  0  0  0  0  0
    0.0037    0.2293    1.9305 N   0  0  0  0  0  0  0  0  0  0  0  0
   -0.9913    0.1203    1.7641 H   0  0  0  0  0  0  0  0  0  0  0  0
    0.4557    0.5130    3.2871 C   0  0  0  0  0  0  0  0  0  0  0  0
    1.2927    1.2191    3.2735 H   0  0  0  0  0  0  0  0  0  0  0  0
   -0.3565    0.9544    3.8723 H   0  0  0  0  0  0  0  0  0  0  0  0
    0.7810   -0.4083    3.7819 H   0  0  0  0  0  0  0  0  0  0  0  0
  1  2  1  0  0  0  0
  2  3  1  0  0  0  0
  2  4  1  0  0  0  0
  2  5  1  0  0  0  0
  5  6  2  0  0  0  0
  5  7  1  0  0  0  0
  7  8  1  0  0  0  0
  7  9  1  0  0  0  0
  9 10  1  0  0  0  0
  9 11  1  0  0  0  0
  9 21  1  0  0  0  0
 11 12  1  0  0  0  0
 11 13  1  0  0  0  0
 11 14  1  0  0  0  0
 14 15  1  0  0  0  0
 14 16  1  0  0  0  0
 14 17  1  0  0  0  0
 17 18  2  0  0  0  0
 17 19  1  0  0  0  0
 19 20  1  0  0  0  0
 21 22  2  0  0  0  0
 21 23  1  0  0  0  0
 23 24  1  0  0  0  0
 23 25  1  0  0  0  0
 25 26  1  0  0  0  0
 25 27  1  0  0  0  0
 25 28  1  0  0  0  0
M  END
$$$$

  -OEChem-03222214033D

 28 27  0     1  0  0  0  0  0999 V2000
   -2.6391   -4.1539    0.3216 H   0  0  0  0  0  0  0  0  0  0  0  0
   -2.6159   -3.1795   -0.1745 C   0  0  0  0  0  0  0  0  0  0  0  0
   -3.4494   -2.5768    0.1939 H   0  0  0  0  0  0  0  0  0  0  0  0
   -2.7307   -3.3320   -1.2502 H   0  0  0  0  0  0  0  0  0  0  0  0
   -1.3013   -2.4797    0.1133 C   0  0  0  0  0  0  0  0  0  0  0  0
   -0.4895   -2.9998    0.8562 O   0  0  0  0  0  0  0  0  0  0  0  0
   -1.0447   -1.2479   -0.4574 N   0  0  0  0  0  0  0  0  0  0  0  0
   -1.7128   -0.9405   -1.1575 H   0  0  0  0  0  0  0  0  0  0  0  0
    0.2781   -0.5930   -0.4425 C   0  0  1  0  0  0  0  0  0  0  0  0
    0.9978   -1.2576   -0.9333 H   0  0  0  0  0  0  0  0  0  0  0  0
    0.1398    0.7111   -1.2604 C   0  0  0  0  0  0  0  0  0  0  0  0
   -0.1950    0.4592   -2.2727 H   0  0  0  0  0  0  0  0  0  0  0  0
   -0.6346    1.3357   -0.8032 H   0  0  0  0  0  0  0  0  0  0  0  0
    1.4370    1.5485   -1.3647 C   0  0  0  0  0  0  0  0  0  0  0  0
    1.2336    2.4509   -1.9463 H   0  0  0  0  0  0  0  0  0  0  0  0
    1.7529    1.8715   -0.3688 H   0  0  0  0  0  0  0  0  0  0  0  0
    2.6104    0.8249   -2.0267 C   0  0  0  0  0  0  0  0  0  0  0  0
    2.3870   -0.0758   -2.8184 O   0  0  0  0  0  0  0  0  0  0  0  0
    3.8532    1.2612   -1.7346 O   0  0  0  0  0  0  0  0  0  0  0  0
    4.4493    0.6633   -2.2099 H   0  0  0  0  0  0  0  0  0  0  0  0
    0.8250   -0.3130    0.9782 C   0  0  0  0  0  0  0  0  0  0  0  0
    2.0314   -0.3378    1.1837 O   0  0  0  0  0  0  0  0  0  0  0  0
   -0.0081    0.2248    1.9426 N   0  0  0  0  0  0  0  0  0  0  0  0
   -1.0021    0.1041    1.7780 H   0  0  0  0  0  0  0  0  0  0  0  0
    0.4443    0.5016    3.3003 C   0  0  0  0  0  0  0  0  0  0  0  0
    1.2716    1.2194    3.2909 H   0  0  0  0  0  0  0  0  0  0  0  0
   -0.3721    0.9259    3.8925 H   0  0  0  0  0  0  0  0  0  0  0  0
    0.7838   -0.4202    3.7850 H   0  0  0  0  0  0  0  0  0  0  0  0
  1  2  1  0  0  0  0
  2  3  1  0  0  0  0
  2  4  1  0  0  0  0
  2  5  1  0  0  0  0
  5  6  2  0  0  0  0
  5  7  1  0  0  0  0
  7  8  1  0  0  0  0
  7  9  1  0  0  0  0
  9 10  1  0  0  0  0
  9 11  1  0  0  0  0
  9 21  1  0  0  0  0
 11 12  1  0  0  0  0
 11 13  1  0  0  0  0
 11 14  1  0  0  0  0
 14 15  1  0  0  0  0
 14 16  1  0  0  0  0
 14 17  1  0  0  0  0
 17 18  2  0  0  0  0
 17 19  1  0  0  0  0
 19 20  1  0  0  0  0
 21 22  2  0  0  0  0
 21 23  1  0  0  0  0
 23 24  1  0  0  0  0
 23 25  1  0  0  0  0
 25 26  1  0  0  0  0
 25 27  1  0  0  0  0
 25 28  1  0  0  0  0
M  END
$$$$

  -OEChem-03222214033D

 28 27  0     1  0  0  0  0  0999 V2000
   -2.6393   -4.1487    0.2961 H   0  0  0  0  0  0  0  0  0  0  0  0
   -2.6162   -3.1673   -0.1864 C   0  0  0  0  0  0  0  0  0  0  0  0
   -3.4480   -2.5690    0.1928 H   0  0  0  0  0  0  0  0  0  0  0  0
   -2.7347   -3.3042   -1.2640 H   0  0  0  0  0  0  0  0  0  0  0  0
   -1.3001   -2.4728    0.1084 C   0  0  0  0  0  0  0  0  0  0  0  0
   -0.4943   -2.9978    0.8543 O   0  0  0  0  0  0  0  0  0  0  0  0
   -1.0364   -1.2404   -0.4579 N   0  0  0  0  0  0  0  0  0  0  0  0
   -1.6973   -0.9328   -1.1648 H   0  0  0  0  0  0  0  0  0  0  0  0
    0.2881   -0.5882   -0.4337 C   0  0  1  0  0  0  0  0  0  0  0  0
    1.0150   -1.2466   -0.9239 H   0  0  0  0  0  0  0  0  0  0  0  0
    0.1514    0.7123   -1.2562 C   0  0  0  0  0  0  0  0  0  0  0  0
   -0.2060    0.4744   -2.2640 H   0  0  0  0  0  0  0  0  0  0  0  0
   -0.6120    1.3370   -0.7814 H   0  0  0  0  0  0  0  0  0  0  0  0
    1.4516    1.5476   -1.3535 C   0  0  0  0  0  0  0  0  0  0  0  0
    1.1954    2.5422   -1.7262 H   0  0  0  0  0  0  0  0  0  0  0  0
    1.9080    1.6866   -0.3707 H   0  0  0  0  0  0  0  0  0  0  0  0
    2.5019    0.9727   -2.3061 C   0  0  0  0  0  0  0  0  0  0  0  0
    2.2144    0.0409   -3.0387 O   0  0  0  0  0  0  0  0  0  0  0  0
    3.7150    1.5636   -2.3077 O   0  0  0  0  0  0  0  0  0  0  0  0
    4.2428    1.0530   -2.9403 H   0  0  0  0  0  0  0  0  0  0  0  0
    0.8197   -0.3160    0.9955 C   0  0  0  0  0  0  0  0  0  0  0  0
    2.0221   -0.3619    1.2211 O   0  0  0  0  0  0  0  0  0  0  0  0
   -0.0218    0.2194    1.9541 N   0  0  0  0  0  0  0  0  0  0  0  0
   -1.0147    0.1152    1.7724 H   0  0  0  0  0  0  0  0  0  0  0  0
    0.4127    0.4734    3.3224 C   0  0  0  0  0  0  0  0  0  0  0  0
    1.2487    1.1806    3.3352 H   0  0  0  0  0  0  0  0  0  0  0  0
   -0.4072    0.9009    3.9071 H   0  0  0  0  0  0  0  0  0  0  0  0
    0.7328   -0.4583    3.8009 H   0  0  0  0  0  0  0  0  0  0  0  0
  1  2  1  0  0  0  0
  2  3  1  0  0  0  0
  2  4  1  0  0  0  0
  2  5  1  0  0  0  0
  5  6  2  0  0  0  0
  5  7  1  0  0  0  0
  7  8  1  0  0  0  0
  7  9  1  0  0  0  0
  9 10  1  0  0  0  0
  9 11  1  0  0  0  0
  9 21  1  0  0  0  0
 11 12  1  0  0  0  0
 11 13  1  0  0  0  0
 11 14  1  0  0  0  0
 14 15  1  0  0  0  0
 14 16  1  0  0  0  0
 14 17  1  0  0  0  0
 17 18  2  0  0  0  0
 17 19  1  0  0  0  0
 19 20  1  0  0  0  0
 21 22  2  0  0  0  0
 21 23  1  0  0  0  0
 23 24  1  0  0  0  0
 23 25  1  0  0  0  0
 25 26  1  0  0  0  0
 25 27  1  0  0  0  0
 25 28  1  0  0  0  0
M  END
$$$$

  -OEChem-03222214033D

 28 27  0     1  0  0  0  0  0999 V2000
   -2.6926   -4.1022    0.3204 H   0  0  0  0  0  0  0  0  0  0  0  0
   -2.6310   -3.1419   -0.1998 C   0  0  0  0  0  0  0  0  0  0  0  0
   -3.4600   -2.5105    0.1285 H   0  0  0  0  0  0  0  0  0  0  0  0
   -2.7186   -3.3196   -1.2744 H   0  0  0  0  0  0  0  0  0  0  0  0
   -1.3084   -2.4655    0.1085 C   0  0  0  0  0  0  0  0  0  0  0  0
   -0.5169   -3.0012    0.8620 O   0  0  0  0  0  0  0  0  0  0  0  0
   -1.0238   -1.2370   -0.4563 N   0  0  0  0  0  0  0  0  0  0  0  0
   -1.6746   -0.9220   -1.1693 H   0  0  0  0  0  0  0  0  0  0  0  0
    0.3075   -0.5991   -0.4216 C   0  0  1  0  0  0  0  0  0  0  0  0
    1.0356   -1.2585   -0.9087 H   0  0  0  0  0  0  0  0  0  0  0  0
    0.1807    0.7028   -1.2438 C   0  0  0  0  0  0  0  0  0  0  0  0
   -0.1940    0.4757   -2.2478 H   0  0  0  0  0  0  0  0  0  0  0  0
   -0.5740    1.3293   -0.7567 H   0  0  0  0  0  0  0  0  0  0  0  0
    1.4842    1.5367   -1.3405 C   0  0  0  0  0  0  0  0  0  0  0  0
    1.2064    2.5866   -1.4628 H   0  0  0  0  0  0  0  0  0  0  0  0
    2.0809    1.4746   -0.4289 H   0  0  0  0  0  0  0  0  0  0  0  0
    2.3742    1.1782   -2.5321 C   0  0  0  0  0  0  0  0  0  0  0  0
    2.1370    0.1830   -3.1956 O   0  0  0  0  0  0  0  0  0  0  0  0
    3.3973    2.0159   -2.8018 O   0  0  0  0  0  0  0  0  0  0  0  0
    3.8545    1.6184   -3.5585 H   0  0  0  0  0  0  0  0  0  0  0  0
    0.8211   -0.3346    1.0164 C   0  0  0  0  0  0  0  0  0  0  0  0
    2.0167   -0.4124    1.2682 O   0  0  0  0  0  0  0  0  0  0  0  0
   -0.0292    0.2088    1.9626 N   0  0  0  0  0  0  0  0  0  0  0  0
   -1.0200    0.1182    1.7636 H   0  0  0  0  0  0  0  0  0  0  0  0
    0.3853    0.4523    3.3387 C   0  0  0  0  0  0  0  0  0  0  0  0
    1.2343    1.1435    3.3670 H   0  0  0  0  0  0  0  0  0  0  0  0
   -0.4368    0.8948    3.9092 H   0  0  0  0  0  0  0  0  0  0  0  0
    0.6791   -0.4862    3.8207 H   0  0  0  0  0  0  0  0  0  0  0  0
  1  2  1  0  0  0  0
  2  3  1  0  0  0  0
  2  4  1  0  0  0  0
  2  5  1  0  0  0  0
  5  6  2  0  0  0  0
  5  7  1  0  0  0  0
  7  8  1  0  0  0  0
  7  9  1  0  0  0  0
  9 10  1  0  0  0  0
  9 11  1  0  0  0  0
  9 21  1  0  0  0  0
 11 12  1  0  0  0  0
 11 13  1  0  0  0  0
 11 14  1  0  0  0  0
 14 15  1  0  0  0  0
 14 16  1  0  0  0  0
 14 17  1  0  0  0  0
 17 18  2  0  0  0  0
 17 19  1  0  0  0  0
 19 20  1  0  0  0  0
 21 22  2  0  0  0  0
 21 23  1  0  0  0  0
 23 24  1  0  0  0  0
 23 25  1  0  0  0  0
 25 26  1  0  0  0  0
 25 27  1  0  0  0  0
 25 28  1  0  0  0  0
M  END
$$$$

  -OEChem-03222214033D

 28 27  0     1  0  0  0  0  0999 V2000
   -2.7124   -4.0835    0.3124 H   0  0  0  0  0  0  0  0  0  0  0  0
   -2.6453   -3.1189   -0.1992 C   0  0  0  0  0  0  0  0  0  0  0  0
   -3.4654   -2.4827    0.1419 H   0  0  0  0  0  0  0  0  0  0  0  0
   -2.7431   -3.2856   -1.2748 H   0  0  0  0  0  0  0  0  0  0  0  0
   -1.3137   -2.4585    0.1054 C   0  0  0  0  0  0  0  0  0  0  0  0
   -0.5252   -3.0060    0.8534 O   0  0  0  0  0  0  0  0  0  0  0  0
   -1.0146   -1.2339   -0.4606 N   0  0  0  0  0  0  0  0  0  0  0  0
   -1.6656   -0.9060   -1.1675 H   0  0  0  0  0  0  0  0  0  0  0  0
    0.3215   -0.6059   -0.4196 C   0  0  1  0  0  0  0  0  0  0  0  0
    1.0486   -1.2694   -0.9028 H   0  0  0  0  0  0  0  0  0  0  0  0
    0.2064    0.6971   -1.2404 C   0  0  0  0  0  0  0  0  0  0  0  0
   -0.1705    0.4685   -2.2431 H   0  0  0  0  0  0  0  0  0  0  0  0
   -0.5474    1.3286   -0.7585 H   0  0  0  0  0  0  0  0  0  0  0  0
    1.5171    1.5234   -1.3324 C   0  0  0  0  0  0  0  0  0  0  0  0
    1.2714    2.5762   -1.1696 H   0  0  0  0  0  0  0  0  0  0  0  0
    2.2366    1.2431   -0.5616 H   0  0  0  0  0  0  0  0  0  0  0  0
    2.2215    1.4278   -2.6862 C   0  0  0  0  0  0  0  0  0  0  0  0
    2.0651    0.4397   -3.3829 O   0  0  0  0  0  0  0  0  0  0  0  0
    2.9965    2.4711   -3.0508 O   0  0  0  0  0  0  0  0  0  0  0  0
    3.3696    2.2187   -3.9092 H   0  0  0  0  0  0  0  0  0  0  0  0
    0.8244   -0.3429    1.0234 C   0  0  0  0  0  0  0  0  0  0  0  0
    2.0144   -0.4440    1.2924 O   0  0  0  0  0  0  0  0  0  0  0  0
   -0.0305    0.2086    1.9609 N   0  0  0  0  0  0  0  0  0  0  0  0
   -1.0197    0.1357    1.7478 H   0  0  0  0  0  0  0  0  0  0  0  0
    0.3687    0.4419    3.3433 C   0  0  0  0  0  0  0  0  0  0  0  0
    1.2248    1.1238    3.3863 H   0  0  0  0  0  0  0  0  0  0  0  0
   -0.4562    0.8907    3.9049 H   0  0  0  0  0  0  0  0  0  0  0  0
    0.6459   -0.5019    3.8248 H   0  0  0  0  0  0  0  0  0  0  0  0
  1  2  1  0  0  0  0
  2  3  1  0  0  0  0
  2  4  1  0  0  0  0
  2  5  1  0  0  0  0
  5  6  2  0  0  0  0
  5  7  1  0  0  0  0
  7  8  1  0  0  0  0
  7  9  1  0  0  0  0
  9 10  1  0  0  0  0
  9 11  1  0  0  0  0
  9 21  1  0  0  0  0
 11 12  1  0  0  0  0
 11 13  1  0  0  0  0
 11 14  1  0  0  0  0
 14 15  1  0  0  0  0
 14 16  1  0  0  0  0
 14 17  1  0  0  0  0
 17 18  2  0  0  0  0
 17 19  1  0  0  0  0
 19 20  1  0  0  0  0
 21 22  2  0  0  0  0
 21 23  1  0  0  0  0
 23 24  1  0  0  0  0
 23 25  1  0  0  0  0
 25 26  1  0  0  0  0
 25 27  1  0  0  0  0
 25 28  1  0  0  0  0
M  END
$$$$

  -OEChem-03222214033D

 28 27  0     1  0  0  0  0  0999 V2000
   -2.7603   -4.0412    0.3534 H   0  0  0  0  0  0  0  0  0  0  0  0
   -2.6650   -3.1024   -0.2000 C   0  0  0  0  0  0  0  0  0  0  0  0
   -3.4791   -2.4364    0.0953 H   0  0  0  0  0  0  0  0  0  0  0  0
   -2.7459   -3.3157   -1.2685 H   0  0  0  0  0  0  0  0  0  0  0  0
   -1.3261   -2.4544    0.0986 C   0  0  0  0  0  0  0  0  0  0  0  0
   -0.5366   -3.0103    0.8393 O   0  0  0  0  0  0  0  0  0  0  0  0
   -1.0186   -1.2324   -0.4682 N   0  0  0  0  0  0  0  0  0  0  0  0
   -1.6725   -0.8941   -1.1678 H   0  0  0  0  0  0  0  0  0  0  0  0
    0.3216   -0.6136   -0.4270 C   0  0  1  0  0  0  0  0  0  0  0  0
    1.0440   -1.2807   -0.9115 H   0  0  0  0  0  0  0  0  0  0  0  0
    0.2193    0.6959   -1.2365 C   0  0  0  0  0  0  0  0  0  0  0  0
   -0.1403    0.4580   -2.2431 H   0  0  0  0  0  0  0  0  0  0  0  0
   -0.5386    1.3370   -0.7737 H   0  0  0  0  0  0  0  0  0  0  0  0
    1.5441    1.4997   -1.3154 C   0  0  0  0  0  0  0  0  0  0  0  0
    1.3964    2.4789   -0.8517 H   0  0  0  0  0  0  0  0  0  0  0  0
    2.3465    1.0010   -0.7677 H   0  0  0  0  0  0  0  0  0  0  0  0
    2.0528    1.7077   -2.7409 C   0  0  0  0  0  0  0  0  0  0  0  0
    1.9818    0.7917   -3.5419 O   0  0  0  0  0  0  0  0  0  0  0  0
    2.5578    2.9207   -3.0500 O   0  0  0  0  0  0  0  0  0  0  0  0
    2.8390    2.8474   -3.9748 H   0  0  0  0  0  0  0  0  0  0  0  0
    0.8273   -0.3518    1.0154 C   0  0  0  0  0  0  0  0  0  0  0  0
    2.0184   -0.4493    1.2808 O   0  0  0  0  0  0  0  0  0  0  0  0
   -0.0233    0.2067    1.9526 N   0  0  0  0  0  0  0  0  0  0  0  0
   -1.0138    0.1363    1.7443 H   0  0  0  0  0  0  0  0  0  0  0  0
    0.3833    0.4529    3.3307 C   0  0  0  0  0  0  0  0  0  0  0  0
    1.2362    1.1392    3.3625 H   0  0  0  0  0  0  0  0  0  0  0  0
   -0.4399    0.9022    3.8941 H   0  0  0  0  0  0  0  0  0  0  0  0
    0.6682   -0.4853    3.8187 H   0  0  0  0  0  0  0  0  0  0  0  0
  1  2  1  0  0  0  0
  2  3  1  0  0  0  0
  2  4  1  0  0  0  0
  2  5  1  0  0  0  0
  5  6  2  0  0  0  0
  5  7  1  0  0  0  0
  7  8  1  0  0  0  0
  7  9  1  0  0  0  0
  9 10  1  0  0  0  0
  9 11  1  0  0  0  0
  9 21  1  0  0  0  0
 11 12  1  0  0  0  0
 11 13  1  0  0  0  0
 11 14  1  0  0  0  0
 14 15  1  0  0  0  0
 14 16  1  0  0  0  0
 14 17  1  0  0  0  0
 17 18  2  0  0  0  0
 17 19  1  0  0  0  0
 19 20  1  0  0  0  0
 21 22  2  0  0  0  0
 21 23  1  0  0  0  0
 23 24  1  0  0  0  0
 23 25  1  0  0  0  0
 25 26  1  0  0  0  0
 25 27  1  0  0  0  0
 25 28  1  0  0  0  0
M  END
$$$$

  -OEChem-03222214033D

 28 27  0     1  0  0  0  0  0999 V2000
   -2.5984   -4.1356    0.3367 H   0  0  0  0  0  0  0  0  0  0  0  0
   -2.5565   -3.1875   -0.2071 C   0  0  0  0  0  0  0  0  0  0  0  0
   -3.3831   -2.5554    0.1260 H   0  0  0  0  0  0  0  0  0  0  0  0
   -2.6669   -3.3906   -1.2751 H   0  0  0  0  0  0  0  0  0  0  0  0
   -1.2325   -2.4948    0.0545 C   0  0  0  0  0  0  0  0  0  0  0  0
   -0.3893   -3.0382    0.7438 O   0  0  0  0  0  0  0  0  0  0  0  0
   -0.9930   -1.2483   -0.4904 N   0  0  0  0  0  0  0  0  0  0  0  0
   -1.6932   -0.8996   -1.1387 H   0  0  0  0  0  0  0  0  0  0  0  0
    0.3086   -0.5549   -0.4363 C   0  0  1  0  0  0  0  0  0  0  0  0
    1.0653   -1.1773   -0.9279 H   0  0  0  0  0  0  0  0  0  0  0  0
    0.1416    0.7583   -1.2244 C   0  0  0  0  0  0  0  0  0  0  0  0
   -0.1598    0.4919   -2.2435 H   0  0  0  0  0  0  0  0  0  0  0  0
   -0.6667    1.3572   -0.7916 H   0  0  0  0  0  0  0  0  0  0  0  0
    1.4263    1.6216   -1.2746 C   0  0  0  0  0  0  0  0  0  0  0  0
    1.3531    2.4477   -0.5624 H   0  0  0  0  0  0  0  0  0  0  0  0
    2.2928    1.0189   -0.9873 H   0  0  0  0  0  0  0  0  0  0  0  0
    1.7242    2.1790   -2.6651 C   0  0  0  0  0  0  0  0  0  0  0  0
    0.8031    2.6152   -3.3342 O   0  0  0  0  0  0  0  0  0  0  0  0
    3.0049    2.1648   -3.0910 O   0  0  0  0  0  0  0  0  0  0  0  0
    2.9841    2.5599   -3.9756 H   0  0  0  0  0  0  0  0  0  0  0  0
    0.8074   -0.2833    1.0052 C   0  0  0  0  0  0  0  0  0  0  0  0
    2.0058   -0.3063    1.2531 O   0  0  0  0  0  0  0  0  0  0  0  0
   -0.0644    0.2134    1.9572 N   0  0  0  0  0  0  0  0  0  0  0  0
   -1.0525    0.1088    1.7521 H   0  0  0  0  0  0  0  0  0  0  0  0
    0.3414    0.4777    3.3323 C   0  0  0  0  0  0  0  0  0  0  0  0
    1.1410    1.2254    3.3597 H   0  0  0  0  0  0  0  0  0  0  0  0
   -0.5054    0.8590    3.9108 H   0  0  0  0  0  0  0  0  0  0  0  0
    0.7025   -0.4406    3.8076 H   0  0  0  0  0  0  0  0  0  0  0  0
  1  2  1  0  0  0  0
  2  3  1  0  0  0  0
  2  4  1  0  0  0  0
  2  5  1  0  0  0  0
  5  6  2  0  0  0  0
  5  7  1  0  0  0  0
  7  8  1  0  0  0  0
  7  9  1  0  0  0  0
  9 10  1  0  0  0  0
  9 11  1  0  0  0  0
  9 21  1  0  0  0  0
 11 12  1  0  0  0  0
 11 13  1  0  0  0  0
 11 14  1  0  0  0  0
 14 15  1  0  0  0  0
 14 16  1  0  0  0  0
 14 17  1  0  0  0  0
 17 18  2  0  0  0  0
 17 19  1  0  0  0  0
 19 20  1  0  0  0  0
 21 22  2  0  0  0  0
 21 23  1  0  0  0  0
 23 24  1  0  0  0  0
 23 25  1  0  0  0  0
 25 26  1  0  0  0  0
 25 27  1  0  0  0  0
 25 28  1  0  0  0  0
M  END
$$$$

  -OEChem-03222214033D

 28 27  0     1  0  0  0  0  0999 V2000
   -2.6086   -4.1554    0.3061 H   0  0  0  0  0  0  0  0  0  0  0  0
   -2.5824   -3.1865   -0.2007 C   0  0  0  0  0  0  0  0  0  0  0  0
   -3.3988   -2.5687    0.1807 H   0  0  0  0  0  0  0  0  0  0  0  0
   -2.7242   -3.3474   -1.2722 H   0  0  0  0  0  0  0  0  0  0  0  0
   -1.2515   -2.5028    0.0499 C   0  0  0  0  0  0  0  0  0  0  0  0
   -0.4052   -3.0514    0.7312 O   0  0  0  0  0  0  0  0  0  0  0  0
   -1.0091   -1.2560   -0.4926 N   0  0  0  0  0  0  0  0  0  0  0  0
   -1.7161   -0.8942   -1.1263 H   0  0  0  0  0  0  0  0  0  0  0  0
    0.2933   -0.5650   -0.4362 C   0  0  1  0  0  0  0  0  0  0  0  0
    1.0461   -1.1940   -0.9249 H   0  0  0  0  0  0  0  0  0  0  0  0
    0.1392    0.7456   -1.2292 C   0  0  0  0  0  0  0  0  0  0  0  0
   -0.1432    0.4773   -2.2533 H   0  0  0  0  0  0  0  0  0  0  0  0
   -0.6705    1.3530   -0.8104 H   0  0  0  0  0  0  0  0  0  0  0  0
    1.4334    1.5910   -1.2653 C   0  0  0  0  0  0  0  0  0  0  0  0
    1.4830    2.2427   -0.3889 H   0  0  0  0  0  0  0  0  0  0  0  0
    2.3024    0.9269   -1.2292 H   0  0  0  0  0  0  0  0  0  0  0  0
    1.5737    2.4373   -2.5300 C   0  0  0  0  0  0  0  0  0  0  0  0
    0.5692    2.8243   -3.1031 O   0  0  0  0  0  0  0  0  0  0  0  0
    2.8221    2.7270   -2.9528 O   0  0  0  0  0  0  0  0  0  0  0  0
    2.7025    3.2686   -3.7476 H   0  0  0  0  0  0  0  0  0  0  0  0
    0.8010   -0.2912    1.0006 C   0  0  0  0  0  0  0  0  0  0  0  0
    2.0031   -0.2934    1.2320 O   0  0  0  0  0  0  0  0  0  0  0  0
   -0.0644    0.2088    1.9567 N   0  0  0  0  0  0  0  0  0  0  0  0
   -1.0541    0.0971    1.7629 H   0  0  0  0  0  0  0  0  0  0  0  0
    0.3536    0.4926    3.3239 C   0  0  0  0  0  0  0  0  0  0  0  0
    1.1463    1.2482    3.3341 H   0  0  0  0  0  0  0  0  0  0  0  0
   -0.4910    0.8722    3.9067 H   0  0  0  0  0  0  0  0  0  0  0  0
    0.7281   -0.4171    3.8053 H   0  0  0  0  0  0  0  0  0  0  0  0
  1  2  1  0  0  0  0
  2  3  1  0  0  0  0
  2  4  1  0  0  0  0
  2  5  1  0  0  0  0
  5  6  2  0  0  0  0
  5  7  1  0  0  0  0
  7  8  1  0  0  0  0
  7  9  1  0  0  0  0
  9 10  1  0  0  0  0
  9 11  1  0  0  0  0
  9 21  1  0  0  0  0
 11 12  1  0  0  0  0
 11 13  1  0  0  0  0
 11 14  1  0  0  0  0
 14 15  1  0  0  0  0
 14 16  1  0  0  0  0
 14 17  1  0  0  0  0
 17 18  2  0  0  0  0
 17 19  1  0  0  0  0
 19 20  1  0  0  0  0
 21 22  2  0  0  0  0
 21 23  1  0  0  0  0
 23 24  1  0  0  0  0
 23 25  1  0  0  0  0
 25 26  1  0  0  0  0
 25 27  1  0  0  0  0
 25 28  1  0  0  0  0
M  END
$$$$

  -OEChem-03222214033D

 28 27  0     1  0  0  0  0  0999 V2000
   -2.6243   -4.1562    0.2919 H   0  0  0  0  0  0  0  0  0  0  0  0
   -2.6046   -3.1738   -0.1885 C   0  0  0  0  0  0  0  0  0  0  0  0
   -3.4093   -2.5629    0.2274 H   0  0  0  0  0  0  0  0  0  0  0  0
   -2.7711   -3.3045   -1.2606 H   0  0  0  0  0  0  0  0  0  0  0  0
   -1.2653   -2.5029    0.0516 C   0  0  0  0  0  0  0  0  0  0  0  0
   -0.4182   -3.0600    0.7252 O   0  0  0  0  0  0  0  0  0  0  0  0
   -1.0167   -1.2572   -0.4904 N   0  0  0  0  0  0  0  0  0  0  0  0
   -1.7256   -0.8867   -1.1168 H   0  0  0  0  0  0  0  0  0  0  0  0
    0.2889   -0.5731   -0.4354 C   0  0  1  0  0  0  0  0  0  0  0  0
    1.0375   -1.2090   -0.9217 H   0  0  0  0  0  0  0  0  0  0  0  0
    0.1444    0.7317   -1.2393 C   0  0  0  0  0  0  0  0  0  0  0  0
   -0.1389    0.4690   -2.2646 H   0  0  0  0  0  0  0  0  0  0  0  0
   -0.6602    1.3441   -0.8178 H   0  0  0  0  0  0  0  0  0  0  0  0
    1.4438    1.5668   -1.2757 C   0  0  0  0  0  0  0  0  0  0  0  0
    1.6168    2.0360   -0.3032 H   0  0  0  0  0  0  0  0  0  0  0  0
    2.2925    0.9075   -1.4796 H   0  0  0  0  0  0  0  0  0  0  0  0
    1.4408    2.6608   -2.3431 C   0  0  0  0  0  0  0  0  0  0  0  0
    0.3950    2.9700   -2.8896 O   0  0  0  0  0  0  0  0  0  0  0  0
    2.6228    3.2458   -2.6291 O   0  0  0  0  0  0  0  0  0  0  0  0
    2.4224    3.9046   -3.3110 H   0  0  0  0  0  0  0  0  0  0  0  0
    0.8009   -0.3020    1.0000 C   0  0  0  0  0  0  0  0  0  0  0  0
    2.0039   -0.3082    1.2269 O   0  0  0  0  0  0  0  0  0  0  0  0
   -0.0595    0.2023    1.9582 N   0  0  0  0  0  0  0  0  0  0  0  0
   -1.0504    0.0990    1.7658 H   0  0  0  0  0  0  0  0  0  0  0  0
    0.3637    0.4882    3.3232 C   0  0  0  0  0  0  0  0  0  0  0  0
    1.1687    1.2306    3.3276 H   0  0  0  0  0  0  0  0  0  0  0  0
   -0.4736    0.8861    3.9043 H   0  0  0  0  0  0  0  0  0  0  0  0
    0.7233   -0.4242    3.8105 H   0  0  0  0  0  0  0  0  0  0  0  0
  1  2  1  0  0  0  0
  2  3  1  0  0  0  0
  2  4  1  0  0  0  0
  2  5  1  0  0  0  0
  5  6  2  0  0  0  0
  5  7  1  0  0  0  0
  7  8  1  0  0  0  0
  7  9  1  0  0  0  0
  9 10  1  0  0  0  0
  9 11  1  0  0  0  0
  9 21  1  0  0  0  0
 11 12  1  0  0  0  0
 11 13  1  0  0  0  0
 11 14  1  0  0  0  0
 14 15  1  0  0  0  0
 14 16  1  0  0  0  0
 14 17  1  0  0  0  0
 17 18  2  0  0  0  0
 17 19  1  0  0  0  0
 19 20  1  0  0  0  0
 21 22  2  0  0  0  0
 21 23  1  0  0  0  0
 23 24  1  0  0  0  0
 23 25  1  0  0  0  0
 25 26  1  0  0  0  0
 25 27  1  0  0  0  0
 25 28  1  0  0  0  0
M  END
$$$$

  -OEChem-03222214033D

 28 27  0     1  0  0  0  0  0999 V2000
   -2.6224   -4.1709    0.2877 H   0  0  0  0  0  0  0  0  0  0  0  0
   -2.6184   -3.1781   -0.1717 C   0  0  0  0  0  0  0  0  0  0  0  0
   -3.4153   -2.5802    0.2768 H   0  0  0  0  0  0  0  0  0  0  0  0
   -2.8101   -3.2865   -1.2419 H   0  0  0  0  0  0  0  0  0  0  0  0
   -1.2764   -2.5063    0.0502 C   0  0  0  0  0  0  0  0  0  0  0  0
   -0.4190   -3.0655    0.7089 O   0  0  0  0  0  0  0  0  0  0  0  0
   -1.0347   -1.2595   -0.4925 N   0  0  0  0  0  0  0  0  0  0  0  0
   -1.7588   -0.8764   -1.0933 H   0  0  0  0  0  0  0  0  0  0  0  0
    0.2699   -0.5726   -0.4428 C   0  0  1  0  0  0  0  0  0  0  0  0
    1.0084   -1.2173   -0.9329 H   0  0  0  0  0  0  0  0  0  0  0  0
    0.1358    0.7307   -1.2506 C   0  0  0  0  0  0  0  0  0  0  0  0
   -0.3873    0.5196   -2.1896 H   0  0  0  0  0  0  0  0  0  0  0  0
   -0.4699    1.4493   -0.6869 H   0  0  0  0  0  0  0  0  0  0  0  0
    1.5047    1.3600   -1.5901 C   0  0  0  0  0  0  0  0  0  0  0  0
    2.0499    1.5862   -0.6698 H   0  0  0  0  0  0  0  0  0  0  0  0
    2.1044    0.6481   -2.1634 H   0  0  0  0  0  0  0  0  0  0  0  0
    1.4014    2.6567   -2.3936 C   0  0  0  0  0  0  0  0  0  0  0  0
    0.3061    3.0880   -2.7135 O   0  0  0  0  0  0  0  0  0  0  0  0
    2.5584    3.2692   -2.7211 O   0  0  0  0  0  0  0  0  0  0  0  0
    2.2960    4.0611   -3.2144 H   0  0  0  0  0  0  0  0  0  0  0  0
    0.7973   -0.2966    0.9851 C   0  0  0  0  0  0  0  0  0  0  0  0
    2.0020   -0.3116    1.2011 O   0  0  0  0  0  0  0  0  0  0  0  0
   -0.0527    0.2087    1.9520 N   0  0  0  0  0  0  0  0  0  0  0  0
   -1.0459    0.1150    1.7670 H   0  0  0  0  0  0  0  0  0  0  0  0
    0.3839    0.4944    3.3129 C   0  0  0  0  0  0  0  0  0  0  0  0
    1.1935    1.2320    3.3096 H   0  0  0  0  0  0  0  0  0  0  0  0
   -0.4462    0.8984    3.9000 H   0  0  0  0  0  0  0  0  0  0  0  0
    0.7422   -0.4195    3.7988 H   0  0  0  0  0  0  0  0  0  0  0  0
  1  2  1  0  0  0  0
  2  3  1  0  0  0  0
  2  4  1  0  0  0  0
  2  5  1  0  0  0  0
  5  6  2  0  0  0  0
  5  7  1  0  0  0  0
  7  8  1  0  0  0  0
  7  9  1  0  0  0  0
  9 10  1  0  0  0  0
  9 11  1  0  0  0  0
  9 21  1  0  0  0  0
 11 12  1  0  0  0  0
 11 13  1  0  0  0  0
 11 14  1  0  0  0  0
 14 15  1  0  0  0  0
 14 16  1  0  0  0  0
 14 17  1  0  0  0  0
 17 18  2  0  0  0  0
 17 19  1  0  0  0  0
 19 20  1  0  0  0  0
 21 22  2  0  0  0  0
 21 23  1  0  0  0  0
 23 24  1  0  0  0  0
 23 25  1  0  0  0  0
 25 26  1  0  0  0  0
 25 27  1  0  0  0  0
 25 28  1  0  0  0  0
M  END
$$$$

  -OEChem-03222214033D

 28 27  0     1  0  0  0  0  0999 V2000
   -2.6454   -4.1490    0.3003 H   0  0  0  0  0  0  0  0  0  0  0  0
   -2.6290   -3.1589   -0.1645 C   0  0  0  0  0  0  0  0  0  0  0  0
   -3.4213   -2.5498    0.2771 H   0  0  0  0  0  0  0  0  0  0  0  0
   -2.8176   -3.2715   -1.2349 H   0  0  0  0  0  0  0  0  0  0  0  0
   -1.2806   -2.5003    0.0589 C   0  0  0  0  0  0  0  0  0  0  0  0
   -0.4294   -3.0671    0.7189 O   0  0  0  0  0  0  0  0  0  0  0  0
   -1.0259   -1.2582   -0.4885 N   0  0  0  0  0  0  0  0  0  0  0  0
   -1.7466   -0.8701   -1.0902 H   0  0  0  0  0  0  0  0  0  0  0  0
    0.2843   -0.5820   -0.4409 C   0  0  1  0  0  0  0  0  0  0  0  0
    1.0204   -1.2320   -0.9276 H   0  0  0  0  0  0  0  0  0  0  0  0
    0.1507    0.7167   -1.2580 C   0  0  0  0  0  0  0  0  0  0  0  0
   -0.3881    0.5180   -2.1907 H   0  0  0  0  0  0  0  0  0  0  0  0
   -0.4456    1.4297   -0.6773 H   0  0  0  0  0  0  0  0  0  0  0  0
    1.5148    1.3513   -1.6133 C   0  0  0  0  0  0  0  0  0  0  0  0
    2.1656    1.3602   -0.7353 H   0  0  0  0  0  0  0  0  0  0  0  0
    2.0105    0.7549   -2.3833 H   0  0  0  0  0  0  0  0  0  0  0  0
    1.4100    2.7976   -2.0980 C   0  0  0  0  0  0  0  0  0  0  0  0
    0.3177    3.2682   -2.3688 O   0  0  0  0  0  0  0  0  0  0  0  0
    2.5614    3.4906   -2.2201 O   0  0  0  0  0  0  0  0  0  0  0  0
    2.2976    4.3694   -2.5321 H   0  0  0  0  0  0  0  0  0  0  0  0
    0.8069   -0.3068    0.9901 C   0  0  0  0  0  0  0  0  0  0  0  0
    2.0087   -0.3468    1.2190 O   0  0  0  0  0  0  0  0  0  0  0  0
   -0.0433    0.2080    1.9519 N   0  0  0  0  0  0  0  0  0  0  0  0
   -1.0364    0.1331    1.7583 H   0  0  0  0  0  0  0  0  0  0  0  0
    0.3871    0.4892    3.3156 C   0  0  0  0  0  0  0  0  0  0  0  0
    1.2003    1.2227    3.3176 H   0  0  0  0  0  0  0  0  0  0  0  0
   -0.4442    0.8963    3.8990 H   0  0  0  0  0  0  0  0  0  0  0  0
    0.7377   -0.4274    3.8018 H   0  0  0  0  0  0  0  0  0  0  0  0
  1  2  1  0  0  0  0
  2  3  1  0  0  0  0
  2  4  1  0  0  0  0
  2  5  1  0  0  0  0
  5  6  2  0  0  0  0
  5  7  1  0  0  0  0
  7  8  1  0  0  0  0
  7  9  1  0  0  0  0
  9 10  1  0  0  0  0
  9 11  1  0  0  0  0
  9 21  1  0  0  0  0
 11 12  1  0  0  0  0
 11 13  1  0  0  0  0
 11 14  1  0  0  0  0
 14 15  1  0  0  0  0
 14 16  1  0  0  0  0
 14 17  1  0  0  0  0
 17 18  2  0  0  0  0
 17 19  1  0  0  0  0
 19 20  1  0  0  0  0
 21 22  2  0  0  0  0
 21 23  1  0  0  0  0
 23 24  1  0  0  0  0
 23 25  1  0  0  0  0
 25 26  1  0  0  0  0
 25 27  1  0  0  0  0
 25 28  1  0  0  0  0
M  END
$$$$

  -OEChem-03222214033D

 28 27  0     1  0  0  0  0  0999 V2000
   -2.6625   -4.1285    0.3423 H   0  0  0  0  0  0  0  0  0  0  0  0
   -2.6356   -3.1484   -0.1427 C   0  0  0  0  0  0  0  0  0  0  0  0
   -3.4154   -2.5193    0.2932 H   0  0  0  0  0  0  0  0  0  0  0  0
   -2.8345   -3.2795   -1.2090 H   0  0  0  0  0  0  0  0  0  0  0  0
   -1.2761   -2.5046    0.0564 C   0  0  0  0  0  0  0  0  0  0  0  0
   -0.4178   -3.0826    0.6973 O   0  0  0  0  0  0  0  0  0  0  0  0
   -1.0179   -1.2644   -0.4939 N   0  0  0  0  0  0  0  0  0  0  0  0
   -1.7470   -0.8640   -1.0768 H   0  0  0  0  0  0  0  0  0  0  0  0
    0.2936   -0.5898   -0.4485 C   0  0  1  0  0  0  0  0  0  0  0  0
    1.0299   -1.2394   -0.9354 H   0  0  0  0  0  0  0  0  0  0  0  0
    0.1565    0.7079   -1.2677 C   0  0  0  0  0  0  0  0  0  0  0  0
   -0.3905    0.5152   -2.1966 H   0  0  0  0  0  0  0  0  0  0  0  0
   -0.4402    1.4118   -0.6763 H   0  0  0  0  0  0  0  0  0  0  0  0
    1.5167    1.3508   -1.6326 C   0  0  0  0  0  0  0  0  0  0  0  0
    2.2569    1.1338   -0.8590 H   0  0  0  0  0  0  0  0  0  0  0  0
    1.8904    0.9216   -2.5655 H   0  0  0  0  0  0  0  0  0  0  0  0
    1.4645    2.8728   -1.7691 C   0  0  0  0  0  0  0  0  0  0  0  0
    0.3986    3.4210   -1.9946 O   0  0  0  0  0  0  0  0  0  0  0  0
    2.6297    3.5444   -1.6589 O   0  0  0  0  0  0  0  0  0  0  0  0
    2.3977    4.4781   -1.7748 H   0  0  0  0  0  0  0  0  0  0  0  0
    0.8145   -0.3125    0.9834 C   0  0  0  0  0  0  0  0  0  0  0  0
    2.0142   -0.3656    1.2192 O   0  0  0  0  0  0  0  0  0  0  0  0
   -0.0357    0.2056    1.9436 N   0  0  0  0  0  0  0  0  0  0  0  0
   -1.0286    0.1502    1.7430 H   0  0  0  0  0  0  0  0  0  0  0  0
    0.3919    0.4901    3.3078 C   0  0  0  0  0  0  0  0  0  0  0  0
    1.2058    1.2228    3.3101 H   0  0  0  0  0  0  0  0  0  0  0  0
   -0.4405    0.8996    3.8880 H   0  0  0  0  0  0  0  0  0  0  0  0
    0.7409   -0.4252    3.7977 H   0  0  0  0  0  0  0  0  0  0  0  0
  1  2  1  0  0  0  0
  2  3  1  0  0  0  0
  2  4  1  0  0  0  0
  2  5  1  0  0  0  0
  5  6  2  0  0  0  0
  5  7  1  0  0  0  0
  7  8  1  0  0  0  0
  7  9  1  0  0  0  0
  9 10  1  0  0  0  0
  9 11  1  0  0  0  0
  9 21  1  0  0  0  0
 11 12  1  0  0  0  0
 11 13  1  0  0  0  0
 11 14  1  0  0  0  0
 14 15  1  0  0  0  0
 14 16  1  0  0  0  0
 14 17  1  0  0  0  0
 17 18  2  0  0  0  0
 17 19  1  0  0  0  0
 19 20  1  0  0  0  0
 21 22  2  0  0  0  0
 21 23  1  0  0  0  0
 23 24  1  0  0  0  0
 23 25  1  0  0  0  0
 25 26  1  0  0  0  0
 25 27  1  0  0  0  0
 25 28  1  0  0  0  0
M  END
$$$$

  -OEChem-03222214033D

 28 27  0     1  0  0  0  0  0999 V2000
   -2.6534   -4.1355    0.3589 H   0  0  0  0  0  0  0  0  0  0  0  0
   -2.6301   -3.1610   -0.1374 C   0  0  0  0  0  0  0  0  0  0  0  0
   -3.4138   -2.5304    0.2889 H   0  0  0  0  0  0  0  0  0  0  0  0
   -2.8257   -3.3051   -1.2026 H   0  0  0  0  0  0  0  0  0  0  0  0
   -1.2743   -2.5094    0.0579 C   0  0  0  0  0  0  0  0  0  0  0  0
   -0.4121   -3.0811    0.6991 O   0  0  0  0  0  0  0  0  0  0  0  0
   -1.0243   -1.2689   -0.4954 N   0  0  0  0  0  0  0  0  0  0  0  0
   -1.7573   -0.8718   -1.0754 H   0  0  0  0  0  0  0  0  0  0  0  0
    0.2851   -0.5907   -0.4571 C   0  0  1  0  0  0  0  0  0  0  0  0
    1.0196   -1.2385   -0.9492 H   0  0  0  0  0  0  0  0  0  0  0  0
    0.1426    0.7112   -1.2680 C   0  0  0  0  0  0  0  0  0  0  0  0
   -0.4025    0.5164   -2.1974 H   0  0  0  0  0  0  0  0  0  0  0  0
   -0.4635    1.4072   -0.6778 H   0  0  0  0  0  0  0  0  0  0  0  0
    1.5046    1.3541   -1.6359 C   0  0  0  0  0  0  0  0  0  0  0  0
    2.3074    0.9108   -1.0408 H   0  0  0  0  0  0  0  0  0  0  0  0
    1.7352    1.1471   -2.6837 H   0  0  0  0  0  0  0  0  0  0  0  0
    1.5657    2.8662   -1.4145 C   0  0  0  0  0  0  0  0  0  0  0  0
    0.5487    3.5307   -1.5218 O   0  0  0  0  0  0  0  0  0  0  0  0
    2.7718    3.4046   -1.1383 O   0  0  0  0  0  0  0  0  0  0  0  0
    2.6089    4.3535   -1.0304 H   0  0  0  0  0  0  0  0  0  0  0  0
    0.8151   -0.3093    0.9705 C   0  0  0  0  0  0  0  0  0  0  0  0
    2.0170   -0.3543    1.1962 O   0  0  0  0  0  0  0  0  0  0  0  0
   -0.0298    0.2082    1.9354 N   0  0  0  0  0  0  0  0  0  0  0  0
   -1.0241    0.1545    1.7414 H   0  0  0  0  0  0  0  0  0  0  0  0
    0.4100    0.5126    3.2912 C   0  0  0  0  0  0  0  0  0  0  0  0
    1.2070    1.2636    3.2763 H   0  0  0  0  0  0  0  0  0  0  0  0
   -0.4232    0.9073    3.8801 H   0  0  0  0  0  0  0  0  0  0  0  0
    0.7866   -0.3906    3.7828 H   0  0  0  0  0  0  0  0  0  0  0  0
  1  2  1  0  0  0  0
  2  3  1  0  0  0  0
  2  4  1  0  0  0  0
  2  5  1  0  0  0  0
  5  6  2  0  0  0  0
  5  7  1  0  0  0  0
  7  8  1  0  0  0  0
  7  9  1  0  0  0  0
  9 10  1  0  0  0  0
  9 11  1  0  0  0  0
  9 21  1  0  0  0  0
 11 12  1  0  0  0  0
 11 13  1  0  0  0  0
 11 14  1  0  0  0  0
 14 15  1  0  0  0  0
 14 16  1  0  0  0  0
 14 17  1  0  0  0  0
 17 18  2  0  0  0  0
 17 19  1  0  0  0  0
 19 20  1  0  0  0  0
 21 22  2  0  0  0  0
 21 23  1  0  0  0  0
 23 24  1  0  0  0  0
 23 25  1  0  0  0  0
 25 26  1  0  0  0  0
 25 27  1  0  0  0  0
 25 28  1  0  0  0  0
M  END
$$$$

  -OEChem-03222214033D

 28 27  0     1  0  0  0  0  0999 V2000
   -2.6333   -4.1752    0.3147 H   0  0  0  0  0  0  0  0  0  0  0  0
   -2.6258   -3.1870   -0.1542 C   0  0  0  0  0  0  0  0  0  0  0  0
   -3.3984   -2.5713    0.3125 H   0  0  0  0  0  0  0  0  0  0  0  0
   -2.8514   -3.3013   -1.2172 H   0  0  0  0  0  0  0  0  0  0  0  0
   -1.2658   -2.5382    0.0211 C   0  0  0  0  0  0  0  0  0  0  0  0
   -0.3876   -3.1231    0.6278 O   0  0  0  0  0  0  0  0  0  0  0  0
   -1.0287   -1.2866   -0.5124 N   0  0  0  0  0  0  0  0  0  0  0  0
   -1.7798   -0.8675   -1.0521 H   0  0  0  0  0  0  0  0  0  0  0  0
    0.2706   -0.5914   -0.4502 C   0  0  1  0  0  0  0  0  0  0  0  0
    1.0142   -1.2295   -0.9413 H   0  0  0  0  0  0  0  0  0  0  0  0
    0.1362    0.7211   -1.2435 C   0  0  0  0  0  0  0  0  0  0  0  0
   -0.3638    0.5101   -2.1944 H   0  0  0  0  0  0  0  0  0  0  0  0
   -0.5151    1.4042   -0.6899 H   0  0  0  0  0  0  0  0  0  0  0  0
    1.5120    1.3651   -1.5699 C   0  0  0  0  0  0  0  0  0  0  0  0
    2.3252    0.7318   -1.2041 H   0  0  0  0  0  0  0  0  0  0  0  0
    1.6231    1.4244   -2.6555 H   0  0  0  0  0  0  0  0  0  0  0  0
    1.7439    2.7733   -1.0127 C   0  0  0  0  0  0  0  0  0  0  0  0
    0.8295    3.3989   -0.5034 O   0  0  0  0  0  0  0  0  0  0  0  0
    2.9879    3.2773   -1.1531 O   0  0  0  0  0  0  0  0  0  0  0  0
    2.9539    4.1515   -0.7362 H   0  0  0  0  0  0  0  0  0  0  0  0
    0.7916   -0.3177    0.9812 C   0  0  0  0  0  0  0  0  0  0  0  0
    1.9950   -0.3403    1.2039 O   0  0  0  0  0  0  0  0  0  0  0  0
   -0.0609    0.1782    1.9503 N   0  0  0  0  0  0  0  0  0  0  0  0
   -1.0535    0.1600    1.7432 H   0  0  0  0  0  0  0  0  0  0  0  0
    0.3799    0.5354    3.2924 C   0  0  0  0  0  0  0  0  0  0  0  0
    1.1447    1.3181    3.2480 H   0  0  0  0  0  0  0  0  0  0  0  0
   -0.4626    0.9103    3.8812 H   0  0  0  0  0  0  0  0  0  0  0  0
    0.7988   -0.3388    3.8021 H   0  0  0  0  0  0  0  0  0  0  0  0
  1  2  1  0  0  0  0
  2  3  1  0  0  0  0
  2  4  1  0  0  0  0
  2  5  1  0  0  0  0
  5  6  2  0  0  0  0
  5  7  1  0  0  0  0
  7  8  1  0  0  0  0
  7  9  1  0  0  0  0
  9 10  1  0  0  0  0
  9 11  1  0  0  0  0
  9 21  1  0  0  0  0
 11 12  1  0  0  0  0
 11 13  1  0  0  0  0
 11 14  1  0  0  0  0
 14 15  1  0  0  0  0
 14 16  1  0  0  0  0
 14 17  1  0  0  0  0
 17 18  2  0  0  0  0
 17 19  1  0  0  0  0
 19 20  1  0  0  0  0
 21 22  2  0  0  0  0
 21 23  1  0  0  0  0
 23 24  1  0  0  0  0
 23 25  1  0  0  0  0
 25 26  1  0  0  0  0
 25 27  1  0  0  0  0
 25 28  1  0  0  0  0
M  END
$$$$

  -OEChem-03222214033D

 28 27  0     1  0  0  0  0  0999 V2000
   -2.6395   -4.1901    0.2869 H   0  0  0  0  0  0  0  0  0  0  0  0
   -2.6357   -3.1955   -0.1681 C   0  0  0  0  0  0  0  0  0  0  0  0
   -3.3979   -2.5833    0.3195 H   0  0  0  0  0  0  0  0  0  0  0  0
   -2.8787   -3.2941   -1.2287 H   0  0  0  0  0  0  0  0  0  0  0  0
   -1.2710   -2.5538   -0.0046 C   0  0  0  0  0  0  0  0  0  0  0  0
   -0.3840   -3.1525    0.5754 O   0  0  0  0  0  0  0  0  0  0  0  0
   -1.0373   -1.2956   -0.5234 N   0  0  0  0  0  0  0  0  0  0  0  0
   -1.7977   -0.8598   -1.0359 H   0  0  0  0  0  0  0  0  0  0  0  0
    0.2608   -0.6002   -0.4512 C   0  0  1  0  0  0  0  0  0  0  0  0
    1.0018   -1.2391   -0.9453 H   0  0  0  0  0  0  0  0  0  0  0  0
    0.1361    0.7163   -1.2390 C   0  0  0  0  0  0  0  0  0  0  0  0
   -0.3378    0.4916   -2.2001 H   0  0  0  0  0  0  0  0  0  0  0  0
   -0.5296    1.4102   -0.7158 H   0  0  0  0  0  0  0  0  0  0  0  0
    1.5184    1.3500   -1.5453 C   0  0  0  0  0  0  0  0  0  0  0  0
    2.3124    0.6052   -1.4372 H   0  0  0  0  0  0  0  0  0  0  0  0
    1.5280    1.6791   -2.5874 H   0  0  0  0  0  0  0  0  0  0  0  0
    1.8893    2.5697   -0.6956 C   0  0  0  0  0  0  0  0  0  0  0  0
    1.0602    3.0987    0.0259 O   0  0  0  0  0  0  0  0  0  0  0  0
    3.1522    3.0278   -0.8221 O   0  0  0  0  0  0  0  0  0  0  0  0
    3.2154    3.7642   -0.1955 H   0  0  0  0  0  0  0  0  0  0  0  0
    0.7917   -0.3369    0.9781 C   0  0  0  0  0  0  0  0  0  0  0  0
    1.9983   -0.3568    1.1850 O   0  0  0  0  0  0  0  0  0  0  0  0
   -0.0513    0.1510    1.9595 N   0  0  0  0  0  0  0  0  0  0  0  0
   -1.0399    0.2014    1.7404 H   0  0  0  0  0  0  0  0  0  0  0  0
    0.4134    0.5888    3.2692 C   0  0  0  0  0  0  0  0  0  0  0  0
    1.1411    1.4006    3.1651 H   0  0  0  0  0  0  0  0  0  0  0  0
   -0.4269    0.9538    3.8671 H   0  0  0  0  0  0  0  0  0  0  0  0
    0.8853   -0.2419    3.8046 H   0  0  0  0  0  0  0  0  0  0  0  0
  1  2  1  0  0  0  0
  2  3  1  0  0  0  0
  2  4  1  0  0  0  0
  2  5  1  0  0  0  0
  5  6  2  0  0  0  0
  5  7  1  0  0  0  0
  7  8  1  0  0  0  0
  7  9  1  0  0  0  0
  9 10  1  0  0  0  0
  9 11  1  0  0  0  0
  9 21  1  0  0  0  0
 11 12  1  0  0  0  0
 11 13  1  0  0  0  0
 11 14  1  0  0  0  0
 14 15  1  0  0  0  0
 14 16  1  0  0  0  0
 14 17  1  0  0  0  0
 17 18  2  0  0  0  0
 17 19  1  0  0  0  0
 19 20  1  0  0  0  0
 21 22  2  0  0  0  0
 21 23  1  0  0  0  0
 23 24  1  0  0  0  0
 23 25  1  0  0  0  0
 25 26  1  0  0  0  0
 25 27  1  0  0  0  0
 25 28  1  0  0  0  0
M  END
$$$$

  -OEChem-03222214033D

 28 27  0     1  0  0  0  0  0999 V2000
   -2.6433   -4.1750    0.2992 H   0  0  0  0  0  0  0  0  0  0  0  0
   -2.6332   -3.1821   -0.1598 C   0  0  0  0  0  0  0  0  0  0  0  0
   -3.3852   -2.5606    0.3322 H   0  0  0  0  0  0  0  0  0  0  0  0
   -2.8857   -3.2816   -1.2182 H   0  0  0  0  0  0  0  0  0  0  0  0
   -1.2605   -2.5536   -0.0107 C   0  0  0  0  0  0  0  0  0  0  0  0
   -0.3710   -3.1645    0.5525 O   0  0  0  0  0  0  0  0  0  0  0  0
   -1.0240   -1.2929   -0.5227 N   0  0  0  0  0  0  0  0  0  0  0  0
   -1.7888   -0.8461   -1.0188 H   0  0  0  0  0  0  0  0  0  0  0  0
    0.2760   -0.6006   -0.4502 C   0  0  1  0  0  0  0  0  0  0  0  0
    1.0169   -1.2388   -0.9452 H   0  0  0  0  0  0  0  0  0  0  0  0
    0.1439    0.7119   -1.2471 C   0  0  0  0  0  0  0  0  0  0  0  0
   -0.3326    0.4770   -2.2044 H   0  0  0  0  0  0  0  0  0  0  0  0
   -0.5175    1.4119   -0.7258 H   0  0  0  0  0  0  0  0  0  0  0  0
    1.5115    1.3621   -1.5678 C   0  0  0  0  0  0  0  0  0  0  0  0
    2.2693    0.5874   -1.7170 H   0  0  0  0  0  0  0  0  0  0  0  0
    1.4266    1.9195   -2.5039 H   0  0  0  0  0  0  0  0  0  0  0  0
    2.0220    2.3475   -0.5130 C   0  0  0  0  0  0  0  0  0  0  0  0
    1.2318    2.9032    0.2325 O   0  0  0  0  0  0  0  0  0  0  0  0
    3.3494    2.5884   -0.4939 O   0  0  0  0  0  0  0  0  0  0  0  0
    3.4855    3.1823    0.2594 H   0  0  0  0  0  0  0  0  0  0  0  0
    0.8049   -0.3498    0.9817 C   0  0  0  0  0  0  0  0  0  0  0  0
    2.0097   -0.3947    1.1958 O   0  0  0  0  0  0  0  0  0  0  0  0
   -0.0387    0.1324    1.9652 N   0  0  0  0  0  0  0  0  0  0  0  0
   -1.0184    0.2357    1.7268 H   0  0  0  0  0  0  0  0  0  0  0  0
    0.4298    0.5841    3.2685 C   0  0  0  0  0  0  0  0  0  0  0  0
    1.1171    1.4293    3.1548 H   0  0  0  0  0  0  0  0  0  0  0  0
   -0.4152    0.9054    3.8847 H   0  0  0  0  0  0  0  0  0  0  0  0
    0.9495   -0.2268    3.7899 H   0  0  0  0  0  0  0  0  0  0  0  0
  1  2  1  0  0  0  0
  2  3  1  0  0  0  0
  2  4  1  0  0  0  0
  2  5  1  0  0  0  0
  5  6  2  0  0  0  0
  5  7  1  0  0  0  0
  7  8  1  0  0  0  0
  7  9  1  0  0  0  0
  9 10  1  0  0  0  0
  9 11  1  0  0  0  0
  9 21  1  0  0  0  0
 11 12  1  0  0  0  0
 11 13  1  0  0  0  0
 11 14  1  0  0  0  0
 14 15  1  0  0  0  0
 14 16  1  0  0  0  0
 14 17  1  0  0  0  0
 17 18  2  0  0  0  0
 17 19  1  0  0  0  0
 19 20  1  0  0  0  0
 21 22  2  0  0  0  0
 21 23  1  0  0  0  0
 23 24  1  0  0  0  0
 23 25  1  0  0  0  0
 25 26  1  0  0  0  0
 25 27  1  0  0  0  0
 25 28  1  0  0  0  0
M  END
$$$$

  -OEChem-03222214033D

 28 27  0     1  0  0  0  0  0999 V2000
   -2.6263   -4.1532    0.3124 H   0  0  0  0  0  0  0  0  0  0  0  0
   -2.6129   -3.1579   -0.1413 C   0  0  0  0  0  0  0  0  0  0  0  0
   -3.3542   -2.5328    0.3621 H   0  0  0  0  0  0  0  0  0  0  0  0
   -2.8783   -3.2504   -1.1972 H   0  0  0  0  0  0  0  0  0  0  0  0
   -1.2334   -2.5414   -0.0046 C   0  0  0  0  0  0  0  0  0  0  0  0
   -0.3426   -3.1638    0.5432 O   0  0  0  0  0  0  0  0  0  0  0  0
   -0.9920   -1.2813   -0.5162 N   0  0  0  0  0  0  0  0  0  0  0  0
   -1.7627   -0.8227   -0.9915 H   0  0  0  0  0  0  0  0  0  0  0  0
    0.3097   -0.5907   -0.4438 C   0  0  1  0  0  0  0  0  0  0  0  0
    1.0566   -1.2269   -0.9327 H   0  0  0  0  0  0  0  0  0  0  0  0
    0.1623    0.7105   -1.2641 C   0  0  0  0  0  0  0  0  0  0  0  0
   -0.3310    0.4635   -2.2098 H   0  0  0  0  0  0  0  0  0  0  0  0
   -0.4889    1.4127   -0.7320 H   0  0  0  0  0  0  0  0  0  0  0  0
    1.5014    1.3979   -1.6176 C   0  0  0  0  0  0  0  0  0  0  0  0
    2.2015    0.6523   -2.0055 H   0  0  0  0  0  0  0  0  0  0  0  0
    1.3297    2.1310   -2.4097 H   0  0  0  0  0  0  0  0  0  0  0  0
    2.1698    2.1333   -0.4569 C   0  0  0  0  0  0  0  0  0  0  0  0
    1.4715    2.7651    0.3189 O   0  0  0  0  0  0  0  0  0  0  0  0
    3.5150    2.0760   -0.3702 O   0  0  0  0  0  0  0  0  0  0  0  0
    3.7312    2.5122    0.4676 H   0  0  0  0  0  0  0  0  0  0  0  0
    0.8182   -0.3509    0.9984 C   0  0  0  0  0  0  0  0  0  0  0  0
    2.0128   -0.4497    1.2471 O   0  0  0  0  0  0  0  0  0  0  0  0
   -0.0379    0.1264    1.9736 N   0  0  0  0  0  0  0  0  0  0  0  0
   -1.0113    0.2479    1.7194 H   0  0  0  0  0  0  0  0  0  0  0  0
    0.4069    0.5165    3.3045 C   0  0  0  0  0  0  0  0  0  0  0  0
    1.1359    1.3311    3.2391 H   0  0  0  0  0  0  0  0  0  0  0  0
   -0.4423    0.8591    3.9031 H   0  0  0  0  0  0  0  0  0  0  0  0
    0.8712   -0.3330    3.8165 H   0  0  0  0  0  0  0  0  0  0  0  0
  1  2  1  0  0  0  0
  2  3  1  0  0  0  0
  2  4  1  0  0  0  0
  2  5  1  0  0  0  0
  5  6  2  0  0  0  0
  5  7  1  0  0  0  0
  7  8  1  0  0  0  0
  7  9  1  0  0  0  0
  9 10  1  0  0  0  0
  9 11  1  0  0  0  0
  9 21  1  0  0  0  0
 11 12  1  0  0  0  0
 11 13  1  0  0  0  0
 11 14  1  0  0  0  0
 14 15  1  0  0  0  0
 14 16  1  0  0  0  0
 14 17  1  0  0  0  0
 17 18  2  0  0  0  0
 17 19  1  0  0  0  0
 19 20  1  0  0  0  0
 21 22  2  0  0  0  0
 21 23  1  0  0  0  0
 23 24  1  0  0  0  0
 23 25  1  0  0  0  0
 25 26  1  0  0  0  0
 25 27  1  0  0  0  0
 25 28  1  0  0  0  0
M  END
$$$$

  -OEChem-03222214033D

 28 27  0     1  0  0  0  0  0999 V2000
   -2.6106   -4.1319    0.3190 H   0  0  0  0  0  0  0  0  0  0  0  0
   -2.5904   -3.1361   -0.1331 C   0  0  0  0  0  0  0  0  0  0  0  0
   -3.3291   -2.5078    0.3701 H   0  0  0  0  0  0  0  0  0  0  0  0
   -2.8542   -3.2250   -1.1897 H   0  0  0  0  0  0  0  0  0  0  0  0
   -1.2074   -2.5284    0.0076 C   0  0  0  0  0  0  0  0  0  0  0  0
   -0.3234   -3.1564    0.5598 O   0  0  0  0  0  0  0  0  0  0  0  0
   -0.9565   -1.2712   -0.5075 N   0  0  0  0  0  0  0  0  0  0  0  0
   -1.7206   -0.8156   -0.9961 H   0  0  0  0  0  0  0  0  0  0  0  0
    0.3483   -0.5847   -0.4327 C   0  0  1  0  0  0  0  0  0  0  0  0
    1.1020   -1.2172   -0.9159 H   0  0  0  0  0  0  0  0  0  0  0  0
    0.1832    0.7107   -1.2659 C   0  0  0  0  0  0  0  0  0  0  0  0
   -0.3370    0.4632   -2.1970 H   0  0  0  0  0  0  0  0  0  0  0  0
   -0.4544    1.4070   -0.7098 H   0  0  0  0  0  0  0  0  0  0  0  0
    1.4882    1.4423   -1.6567 C   0  0  0  0  0  0  0  0  0  0  0  0
    2.0962    0.7734   -2.2723 H   0  0  0  0  0  0  0  0  0  0  0  0
    1.2444    2.3171   -2.2648 H   0  0  0  0  0  0  0  0  0  0  0  0
    2.3442    1.9118   -0.4867 C   0  0  0  0  0  0  0  0  0  0  0  0
    1.8217    2.6222    0.3556 O   0  0  0  0  0  0  0  0  0  0  0  0
    3.6363    1.5266   -0.4464 O   0  0  0  0  0  0  0  0  0  0  0  0
    3.9496    1.7931    0.4317 H   0  0  0  0  0  0  0  0  0  0  0  0
    0.8302   -0.3522    1.0222 C   0  0  0  0  0  0  0  0  0  0  0  0
    2.0083   -0.5126    1.3150 O   0  0  0  0  0  0  0  0  0  0  0  0
   -0.0443    0.1256    1.9813 N   0  0  0  0  0  0  0  0  0  0  0  0
   -1.0125    0.2493    1.7090 H   0  0  0  0  0  0  0  0  0  0  0  0
    0.3609    0.4408    3.3447 C   0  0  0  0  0  0  0  0  0  0  0  0
    1.1334    1.2171    3.3433 H   0  0  0  0  0  0  0  0  0  0  0  0
   -0.4950    0.8061    3.9199 H   0  0  0  0  0  0  0  0  0  0  0  0
    0.7572   -0.4512    3.8413 H   0  0  0  0  0  0  0  0  0  0  0  0
  1  2  1  0  0  0  0
  2  3  1  0  0  0  0
  2  4  1  0  0  0  0
  2  5  1  0  0  0  0
  5  6  2  0  0  0  0
  5  7  1  0  0  0  0
  7  8  1  0  0  0  0
  7  9  1  0  0  0  0
  9 10  1  0  0  0  0
  9 11  1  0  0  0  0
  9 21  1  0  0  0  0
 11 12  1  0  0  0  0
 11 13  1  0  0  0  0
 11 14  1  0  0  0  0
 14 15  1  0  0  0  0
 14 16  1  0  0  0  0
 14 17  1  0  0  0  0
 17 18  2  0  0  0  0
 17 19  1  0  0  0  0
 19 20  1  0  0  0  0
 21 22  2  0  0  0  0
 21 23  1  0  0  0  0
 23 24  1  0  0  0  0
 23 25  1  0  0  0  0
 25 26  1  0  0  0  0
 25 27  1  0  0  0  0
 25 28  1  0  0  0  0
M  END
$$$$

  -OEChem-03222214033D

 28 27  0     1  0  0  0  0  0999 V2000
   -2.5918   -4.1180    0.3212 H   0  0  0  0  0  0  0  0  0  0  0  0
   -2.5645   -3.1233   -0.1329 C   0  0  0  0  0  0  0  0  0  0  0  0
   -3.3133   -2.4941    0.3542 H   0  0  0  0  0  0  0  0  0  0  0  0
   -2.8081   -3.2156   -1.1940 H   0  0  0  0  0  0  0  0  0  0  0  0
   -1.1856   -2.5129    0.0323 C   0  0  0  0  0  0  0  0  0  0  0  0
   -0.3168   -3.1303    0.6189 O   0  0  0  0  0  0  0  0  0  0  0  0
   -0.9250   -1.2627   -0.4953 N   0  0  0  0  0  0  0  0  0  0  0  0
   -1.6724   -0.8284   -1.0272 H   0  0  0  0  0  0  0  0  0  0  0  0
    0.3823   -0.5791   -0.4218 C   0  0  1  0  0  0  0  0  0  0  0  0
    1.1419   -1.2095   -0.8984 H   0  0  0  0  0  0  0  0  0  0  0  0
    0.2034    0.7148   -1.2603 C   0  0  0  0  0  0  0  0  0  0  0  0
   -0.3412    0.4714   -2.1785 H   0  0  0  0  0  0  0  0  0  0  0  0
   -0.4222    1.4036   -0.6819 H   0  0  0  0  0  0  0  0  0  0  0  0
    1.4807    1.4805   -1.6820 C   0  0  0  0  0  0  0  0  0  0  0  0
    1.9604    0.9315   -2.4973 H   0  0  0  0  0  0  0  0  0  0  0  0
    1.2033    2.4639   -2.0708 H   0  0  0  0  0  0  0  0  0  0  0  0
    2.5249    1.6739   -0.5937 C   0  0  0  0  0  0  0  0  0  0  0  0
    2.2806    2.4764    0.2904 O   0  0  0  0  0  0  0  0  0  0  0  0
    3.6521    0.9354   -0.6515 O   0  0  0  0  0  0  0  0  0  0  0  0
    4.0683    1.0500    0.2180 H   0  0  0  0  0  0  0  0  0  0  0  0
    0.8398   -0.3403    1.0423 C   0  0  0  0  0  0  0  0  0  0  0  0
    2.0005   -0.5461    1.3746 O   0  0  0  0  0  0  0  0  0  0  0  0
   -0.0516    0.1459    1.9817 N   0  0  0  0  0  0  0  0  0  0  0  0
   -1.0217    0.2285    1.7003 H   0  0  0  0  0  0  0  0  0  0  0  0
    0.3096    0.3800    3.3738 C   0  0  0  0  0  0  0  0  0  0  0  0
    1.1274    1.1057    3.4394 H   0  0  0  0  0  0  0  0  0  0  0  0
   -0.5471    0.7756    3.9273 H   0  0  0  0  0  0  0  0  0  0  0  0
    0.6286   -0.5543    3.8475 H   0  0  0  0  0  0  0  0  0  0  0  0
  1  2  1  0  0  0  0
  2  3  1  0  0  0  0
  2  4  1  0  0  0  0
  2  5  1  0  0  0  0
  5  6  2  0  0  0  0
  5  7  1  0  0  0  0
  7  8  1  0  0  0  0
  7  9  1  0  0  0  0
  9 10  1  0  0  0  0
  9 11  1  0  0  0  0
  9 21  1  0  0  0  0
 11 12  1  0  0  0  0
 11 13  1  0  0  0  0
 11 14  1  0  0  0  0
 14 15  1  0  0  0  0
 14 16  1  0  0  0  0
 14 17  1  0  0  0  0
 17 18  2  0  0  0  0
 17 19  1  0  0  0  0
 19 20  1  0  0  0  0
 21 22  2  0  0  0  0
 21 23  1  0  0  0  0
 23 24  1  0  0  0  0
 23 25  1  0  0  0  0
 25 26  1  0  0  0  0
 25 27  1  0  0  0  0
 25 28  1  0  0  0  0
M  END
$$$$

  -OEChem-03222214033D

 28 27  0     1  0  0  0  0  0999 V2000
   -2.5782   -4.1203    0.3831 H   0  0  0  0  0  0  0  0  0  0  0  0
   -2.5486   -3.1363   -0.0940 C   0  0  0  0  0  0  0  0  0  0  0  0
   -3.3215   -2.5063    0.3526 H   0  0  0  0  0  0  0  0  0  0  0  0
   -2.7556   -3.2580   -1.1600 H   0  0  0  0  0  0  0  0  0  0  0  0
   -1.1838   -2.5033    0.1025 C   0  0  0  0  0  0  0  0  0  0  0  0
   -0.3359   -3.0872    0.7505 O   0  0  0  0  0  0  0  0  0  0  0  0
   -0.9131   -1.2722   -0.4643 N   0  0  0  0  0  0  0  0  0  0  0  0
   -1.6350   -0.8806   -1.0609 H   0  0  0  0  0  0  0  0  0  0  0  0
    0.3981   -0.5931   -0.4047 C   0  0  1  0  0  0  0  0  0  0  0  0
    1.1585   -1.2365   -0.8627 H   0  0  0  0  0  0  0  0  0  0  0  0
    0.2195    0.6854   -1.2683 C   0  0  0  0  0  0  0  0  0  0  0  0
   -0.3381    0.4285   -2.1752 H   0  0  0  0  0  0  0  0  0  0  0  0
   -0.4006    1.3823   -0.6940 H   0  0  0  0  0  0  0  0  0  0  0  0
    1.4857    1.4566   -1.7208 C   0  0  0  0  0  0  0  0  0  0  0  0
    1.8117    1.0469   -2.6807 H   0  0  0  0  0  0  0  0  0  0  0  0
    1.2292    2.5065   -1.8887 H   0  0  0  0  0  0  0  0  0  0  0  0
    2.6884    1.3908   -0.7931 C   0  0  0  0  0  0  0  0  0  0  0  0
    2.8095    2.2661    0.0449 O   0  0  0  0  0  0  0  0  0  0  0  0
    3.5459    0.3589   -0.9363 O   0  0  0  0  0  0  0  0  0  0  0  0
    4.0929    0.3814   -0.1336 H   0  0  0  0  0  0  0  0  0  0  0  0
    0.8449   -0.3102    1.0562 C   0  0  0  0  0  0  0  0  0  0  0  0
    1.9957   -0.5272    1.4145 O   0  0  0  0  0  0  0  0  0  0  0  0
   -0.0549    0.2104    1.9690 N   0  0  0  0  0  0  0  0  0  0  0  0
   -1.0266    0.2456    1.6823 H   0  0  0  0  0  0  0  0  0  0  0  0
    0.2776    0.4267    3.3713 C   0  0  0  0  0  0  0  0  0  0  0  0
    1.1334    1.1045    3.4612 H   0  0  0  0  0  0  0  0  0  0  0  0
   -0.5712    0.8729    3.8978 H   0  0  0  0  0  0  0  0  0  0  0  0
    0.5280   -0.5232    3.8554 H   0  0  0  0  0  0  0  0  0  0  0  0
  1  2  1  0  0  0  0
  2  3  1  0  0  0  0
  2  4  1  0  0  0  0
  2  5  1  0  0  0  0
  5  6  2  0  0  0  0
  5  7  1  0  0  0  0
  7  8  1  0  0  0  0
  7  9  1  0  0  0  0
  9 10  1  0  0  0  0
  9 11  1  0  0  0  0
  9 21  1  0  0  0  0
 11 12  1  0  0  0  0
 11 13  1  0  0  0  0
 11 14  1  0  0  0  0
 14 15  1  0  0  0  0
 14 16  1  0  0  0  0
 14 17  1  0  0  0  0
 17 18  2  0  0  0  0
 17 19  1  0  0  0  0
 19 20  1  0  0  0  0
 21 22  2  0  0  0  0
 21 23  1  0  0  0  0
 23 24  1  0  0  0  0
 23 25  1  0  0  0  0
 25 26  1  0  0  0  0
 25 27  1  0  0  0  0
 25 28  1  0  0  0  0
M  END
$$$$

  -OEChem-03222214033D

 28 27  0     1  0  0  0  0  0999 V2000
   -2.7966   -3.9990    0.4533 H   0  0  0  0  0  0  0  0  0  0  0  0
   -2.7083   -3.0395   -0.0646 C   0  0  0  0  0  0  0  0  0  0  0  0
   -3.4702   -2.3594    0.3231 H   0  0  0  0  0  0  0  0  0  0  0  0
   -2.8798   -3.2003   -1.1315 H   0  0  0  0  0  0  0  0  0  0  0  0
   -1.3267   -2.4532    0.1568 C   0  0  0  0  0  0  0  0  0  0  0  0
   -0.5299   -3.0395    0.8646 O   0  0  0  0  0  0  0  0  0  0  0  0
   -0.9912   -1.2545   -0.4441 N   0  0  0  0  0  0  0  0  0  0  0  0
   -1.6683   -0.8852   -1.1040 H   0  0  0  0  0  0  0  0  0  0  0  0
    0.3665   -0.6697   -0.4424 C   0  0  1  0  0  0  0  0  0  0  0  0
    1.0620   -1.3676   -0.9230 H   0  0  0  0  0  0  0  0  0  0  0  0
    0.2457    0.6262   -1.2896 C   0  0  0  0  0  0  0  0  0  0  0  0
   -0.3632    0.4109   -2.1740 H   0  0  0  0  0  0  0  0  0  0  0  0
   -0.3055    1.3612   -0.6932 H   0  0  0  0  0  0  0  0  0  0  0  0
    1.5443    1.3084   -1.7967 C   0  0  0  0  0  0  0  0  0  0  0  0
    1.6425    1.1126   -2.8685 H   0  0  0  0  0  0  0  0  0  0  0  0
    1.4494    2.3911   -1.6766 H   0  0  0  0  0  0  0  0  0  0  0  0
    2.8503    0.8740   -1.1482 C   0  0  0  0  0  0  0  0  0  0  0  0
    3.4169   -0.1046   -1.6004 O   0  0  0  0  0  0  0  0  0  0  0  0
    3.3117    1.5975   -0.1073 O   0  0  0  0  0  0  0  0  0  0  0  0
    4.0179    1.0506    0.2742 H   0  0  0  0  0  0  0  0  0  0  0  0
    0.8803   -0.3956    0.9988 C   0  0  0  0  0  0  0  0  0  0  0  0
    2.0367   -0.6372    1.3200 O   0  0  0  0  0  0  0  0  0  0  0  0
    0.0427    0.2022    1.9240 N   0  0  0  0  0  0  0  0  0  0  0  0
   -0.9418    0.2224    1.6820 H   0  0  0  0  0  0  0  0  0  0  0  0
    0.4233    0.3934    3.3180 C   0  0  0  0  0  0  0  0  0  0  0  0
    1.3302    1.0037    3.3874 H   0  0  0  0  0  0  0  0  0  0  0  0
   -0.3768    0.9032    3.8629 H   0  0  0  0  0  0  0  0  0  0  0  0
    0.6117   -0.5727    3.7984 H   0  0  0  0  0  0  0  0  0  0  0  0
  1  2  1  0  0  0  0
  2  3  1  0  0  0  0
  2  4  1  0  0  0  0
  2  5  1  0  0  0  0
  5  6  2  0  0  0  0
  5  7  1  0  0  0  0
  7  8  1  0  0  0  0
  7  9  1  0  0  0  0
  9 10  1  0  0  0  0
  9 11  1  0  0  0  0
  9 21  1  0  0  0  0
 11 12  1  0  0  0  0
 11 13  1  0  0  0  0
 11 14  1  0  0  0  0
 14 15  1  0  0  0  0
 14 16  1  0  0  0  0
 14 17  1  0  0  0  0
 17 18  2  0  0  0  0
 17 19  1  0  0  0  0
 19 20  1  0  0  0  0
 21 22  2  0  0  0  0
 21 23  1  0  0  0  0
 23 24  1  0  0  0  0
 23 25  1  0  0  0  0
 25 26  1  0  0  0  0
 25 27  1  0  0  0  0
 25 28  1  0  0  0  0
M  END
$$$$

  -OEChem-03222214033D

 28 27  0     1  0  0  0  0  0999 V2000
   -2.7893   -4.0427    0.4520 H   0  0  0  0  0  0  0  0  0  0  0  0
   -2.7102   -3.0861   -0.0727 C   0  0  0  0  0  0  0  0  0  0  0  0
   -3.4950   -2.4192    0.2924 H   0  0  0  0  0  0  0  0  0  0  0  0
   -2.8553   -3.2604   -1.1416 H   0  0  0  0  0  0  0  0  0  0  0  0
   -1.3465   -2.4679    0.1727 C   0  0  0  0  0  0  0  0  0  0  0  0
   -0.5588   -3.0205    0.9171 O   0  0  0  0  0  0  0  0  0  0  0  0
   -1.0204   -1.2728   -0.4399 N   0  0  0  0  0  0  0  0  0  0  0  0
   -1.6844   -0.9362   -1.1299 H   0  0  0  0  0  0  0  0  0  0  0  0
    0.3322   -0.6774   -0.4358 C   0  0  1  0  0  0  0  0  0  0  0  0
    1.0223   -1.3879   -0.9039 H   0  0  0  0  0  0  0  0  0  0  0  0
    0.2245    0.6114   -1.2920 C   0  0  0  0  0  0  0  0  0  0  0  0
   -0.3550    0.3683   -2.1888 H   0  0  0  0  0  0  0  0  0  0  0  0
   -0.3539    1.3521   -0.7296 H   0  0  0  0  0  0  0  0  0  0  0  0
    1.5315    1.2901   -1.7866 C   0  0  0  0  0  0  0  0  0  0  0  0
    1.5090    1.3526   -2.8781 H   0  0  0  0  0  0  0  0  0  0  0  0
    1.5522    2.3161   -1.4089 H   0  0  0  0  0  0  0  0  0  0  0  0
    2.8519    0.6368   -1.3961 C   0  0  0  0  0  0  0  0  0  0  0  0
    3.1587   -0.4093   -1.9402 O   0  0  0  0  0  0  0  0  0  0  0  0
    3.6281    1.2681   -0.4909 O   0  0  0  0  0  0  0  0  0  0  0  0
    4.3166    0.6240   -0.2625 H   0  0  0  0  0  0  0  0  0  0  0  0
    0.8592   -0.3742    0.9919 C   0  0  0  0  0  0  0  0  0  0  0  0
    2.0337   -0.5577    1.2822 O   0  0  0  0  0  0  0  0  0  0  0  0
    0.0289    0.2335    1.9169 N   0  0  0  0  0  0  0  0  0  0  0  0
   -0.9616    0.2146    1.6995 H   0  0  0  0  0  0  0  0  0  0  0  0
    0.4353    0.4697    3.2968 C   0  0  0  0  0  0  0  0  0  0  0  0
    1.3256    1.1067    3.3307 H   0  0  0  0  0  0  0  0  0  0  0  0
   -0.3666    0.9701    3.8477 H   0  0  0  0  0  0  0  0  0  0  0  0
    0.6617   -0.4787    3.7956 H   0  0  0  0  0  0  0  0  0  0  0  0
  1  2  1  0  0  0  0
  2  3  1  0  0  0  0
  2  4  1  0  0  0  0
  2  5  1  0  0  0  0
  5  6  2  0  0  0  0
  5  7  1  0  0  0  0
  7  8  1  0  0  0  0
  7  9  1  0  0  0  0
  9 10  1  0  0  0  0
  9 11  1  0  0  0  0
  9 21  1  0  0  0  0
 11 12  1  0  0  0  0
 11 13  1  0  0  0  0
 11 14  1  0  0  0  0
 14 15  1  0  0  0  0
 14 16  1  0  0  0  0
 14 17  1  0  0  0  0
 17 18  2  0  0  0  0
 17 19  1  0  0  0  0
 19 20  1  0  0  0  0
 21 22  2  0  0  0  0
 21 23  1  0  0  0  0
 23 24  1  0  0  0  0
 23 25  1  0  0  0  0
 25 26  1  0  0  0  0
 25 27  1  0  0  0  0
 25 28  1  0  0  0  0
M  END
$$$$

  -OEChem-03222214033D

 28 27  0     1  0  0  0  0  0999 V2000
   -2.7554   -4.0983    0.4173 H   0  0  0  0  0  0  0  0  0  0  0  0
   -2.6962   -3.1406   -0.1078 C   0  0  0  0  0  0  0  0  0  0  0  0
   -3.5091   -2.4985    0.2392 H   0  0  0  0  0  0  0  0  0  0  0  0
   -2.8136   -3.3212   -1.1791 H   0  0  0  0  0  0  0  0  0  0  0  0
   -1.3580   -2.4794    0.1639 C   0  0  0  0  0  0  0  0  0  0  0  0
   -0.5675   -3.0059    0.9246 O   0  0  0  0  0  0  0  0  0  0  0  0
   -1.0567   -1.2745   -0.4417 N   0  0  0  0  0  0  0  0  0  0  0  0
   -1.7157   -0.9600   -1.1470 H   0  0  0  0  0  0  0  0  0  0  0  0
    0.2880   -0.6636   -0.4372 C   0  0  1  0  0  0  0  0  0  0  0  0
    0.9720   -1.3761   -0.9088 H   0  0  0  0  0  0  0  0  0  0  0  0
    0.1885    0.6335   -1.2773 C   0  0  0  0  0  0  0  0  0  0  0  0
   -0.3676    0.3857   -2.1876 H   0  0  0  0  0  0  0  0  0  0  0  0
   -0.4053    1.3726   -0.7292 H   0  0  0  0  0  0  0  0  0  0  0  0
    1.5082    1.3038   -1.7473 C   0  0  0  0  0  0  0  0  0  0  0  0
    1.3926    1.6502   -2.7775 H   0  0  0  0  0  0  0  0  0  0  0  0
    1.6711    2.1898   -1.1270 H   0  0  0  0  0  0  0  0  0  0  0  0
    2.7889    0.4768   -1.6674 C   0  0  0  0  0  0  0  0  0  0  0  0
    2.8535   -0.5505   -2.3203 O   0  0  0  0  0  0  0  0  0  0  0  0
    3.8093    0.9561   -0.9255 O   0  0  0  0  0  0  0  0  0  0  0  0
    4.4672    0.2447   -0.9119 H   0  0  0  0  0  0  0  0  0  0  0  0
    0.8399   -0.3577    0.9773 C   0  0  0  0  0  0  0  0  0  0  0  0
    2.0358   -0.4654    1.2119 O   0  0  0  0  0  0  0  0  0  0  0  0
    0.0224    0.2383    1.9209 N   0  0  0  0  0  0  0  0  0  0  0  0
   -0.9742    0.1695    1.7442 H   0  0  0  0  0  0  0  0  0  0  0  0
    0.4712    0.5157    3.2799 C   0  0  0  0  0  0  0  0  0  0  0  0
    1.3368    1.1867    3.2693 H   0  0  0  0  0  0  0  0  0  0  0  0
   -0.3283    0.9956    3.8525 H   0  0  0  0  0  0  0  0  0  0  0  0
    0.7530   -0.4138    3.7859 H   0  0  0  0  0  0  0  0  0  0  0  0
  1  2  1  0  0  0  0
  2  3  1  0  0  0  0
  2  4  1  0  0  0  0
  2  5  1  0  0  0  0
  5  6  2  0  0  0  0
  5  7  1  0  0  0  0
  7  8  1  0  0  0  0
  7  9  1  0  0  0  0
  9 10  1  0  0  0  0
  9 11  1  0  0  0  0
  9 21  1  0  0  0  0
 11 12  1  0  0  0  0
 11 13  1  0  0  0  0
 11 14  1  0  0  0  0
 14 15  1  0  0  0  0
 14 16  1  0  0  0  0
 14 17  1  0  0  0  0
 17 18  2  0  0  0  0
 17 19  1  0  0  0  0
 19 20  1  0  0  0  0
 21 22  2  0  0  0  0
 21 23  1  0  0  0  0
 23 24  1  0  0  0  0
 23 25  1  0  0  0  0
 25 26  1  0  0  0  0
 25 27  1  0  0  0  0
 25 28  1  0  0  0  0
M  END
$$$$

  -OEChem-03222214033D

 28 27  0     1  0  0  0  0  0999 V2000
   -2.7099   -4.1403    0.3804 H   0  0  0  0  0  0  0  0  0  0  0  0
   -2.6702   -3.1784   -0.1389 C   0  0  0  0  0  0  0  0  0  0  0  0
   -3.4965   -2.5552    0.2114 H   0  0  0  0  0  0  0  0  0  0  0  0
   -2.7827   -3.3547   -1.2113 H   0  0  0  0  0  0  0  0  0  0  0  0
   -1.3469   -2.4906    0.1382 C   0  0  0  0  0  0  0  0  0  0  0  0
   -0.5435   -3.0058    0.8937 O   0  0  0  0  0  0  0  0  0  0  0  0
   -1.0741   -1.2715   -0.4514 N   0  0  0  0  0  0  0  0  0  0  0  0
   -1.7363   -0.9675   -1.1584 H   0  0  0  0  0  0  0  0  0  0  0  0
    0.2591   -0.6381   -0.4456 C   0  0  1  0  0  0  0  0  0  0  0  0
    0.9469   -1.3402   -0.9261 H   0  0  0  0  0  0  0  0  0  0  0  0
    0.1517    0.6697   -1.2653 C   0  0  0  0  0  0  0  0  0  0  0  0
   -0.3941    0.4323   -2.1845 H   0  0  0  0  0  0  0  0  0  0  0  0
   -0.4459    1.4023   -0.7124 H   0  0  0  0  0  0  0  0  0  0  0  0
    1.4832    1.3313   -1.7063 C   0  0  0  0  0  0  0  0  0  0  0  0
    1.3161    1.9267   -2.6072 H   0  0  0  0  0  0  0  0  0  0  0  0
    1.7905    2.0202   -0.9139 H   0  0  0  0  0  0  0  0  0  0  0  0
    2.6687    0.4005   -1.9554 C   0  0  0  0  0  0  0  0  0  0  0  0
    2.5083   -0.5541   -2.6971 O   0  0  0  0  0  0  0  0  0  0  0  0
    3.8545    0.7161   -1.3943 O   0  0  0  0  0  0  0  0  0  0  0  0
    4.4431   -0.0227   -1.6089 H   0  0  0  0  0  0  0  0  0  0  0  0
    0.8302   -0.3374    0.9604 C   0  0  0  0  0  0  0  0  0  0  0  0
    2.0386   -0.3773    1.1477 O   0  0  0  0  0  0  0  0  0  0  0  0
    0.0213    0.2344    1.9262 N   0  0  0  0  0  0  0  0  0  0  0  0
   -0.9770    0.1243    1.7818 H   0  0  0  0  0  0  0  0  0  0  0  0
    0.5011    0.5338    3.2699 C   0  0  0  0  0  0  0  0  0  0  0  0
    1.3393    1.2377    3.2307 H   0  0  0  0  0  0  0  0  0  0  0  0
   -0.2978    0.9847    3.8663 H   0  0  0  0  0  0  0  0  0  0  0  0
    0.8339   -0.3823    3.7695 H   0  0  0  0  0  0  0  0  0  0  0  0
  1  2  1  0  0  0  0
  2  3  1  0  0  0  0
  2  4  1  0  0  0  0
  2  5  1  0  0  0  0
  5  6  2  0  0  0  0
  5  7  1  0  0  0  0
  7  8  1  0  0  0  0
  7  9  1  0  0  0  0
  9 10  1  0  0  0  0
  9 11  1  0  0  0  0
  9 21  1  0  0  0  0
 11 12  1  0  0  0  0
 11 13  1  0  0  0  0
 11 14  1  0  0  0  0
 14 15  1  0  0  0  0
 14 16  1  0  0  0  0
 14 17  1  0  0  0  0
 17 18  2  0  0  0  0
 17 19  1  0  0  0  0
 19 20  1  0  0  0  0
 21 22  2  0  0  0  0
 21 23  1  0  0  0  0
 23 24  1  0  0  0  0
 23 25  1  0  0  0  0
 25 26  1  0  0  0  0
 25 27  1  0  0  0  0
 25 28  1  0  0  0  0
M  END
$$$$

  -OEChem-03222214033D

 28 27  0     1  0  0  0  0  0999 V2000
   -2.6502   -4.1761    0.3275 H   0  0  0  0  0  0  0  0  0  0  0  0
   -2.6333   -3.2035   -0.1726 C   0  0  0  0  0  0  0  0  0  0  0  0
   -3.4741   -2.6071    0.1895 H   0  0  0  0  0  0  0  0  0  0  0  0
   -2.7422   -3.3613   -1.2483 H   0  0  0  0  0  0  0  0  0  0  0  0
   -1.3263   -2.4903    0.1183 C   0  0  0  0  0  0  0  0  0  0  0  0
   -0.5159   -2.9957    0.8731 O   0  0  0  0  0  0  0  0  0  0  0  0
   -1.0769   -1.2593   -0.4567 N   0  0  0  0  0  0  0  0  0  0  0  0
   -1.7391   -0.9673   -1.1689 H   0  0  0  0  0  0  0  0  0  0  0  0
    0.2465   -0.6063   -0.4496 C   0  0  1  0  0  0  0  0  0  0  0  0
    0.9445   -1.2919   -0.9401 H   0  0  0  0  0  0  0  0  0  0  0  0
    0.1252    0.7082   -1.2549 C   0  0  0  0  0  0  0  0  0  0  0  0
   -0.4245    0.4902   -2.1768 H   0  0  0  0  0  0  0  0  0  0  0  0
   -0.4634    1.4357   -0.6860 H   0  0  0  0  0  0  0  0  0  0  0  0
    1.4686    1.3561   -1.6707 C   0  0  0  0  0  0  0  0  0  0  0  0
    1.2831    2.1451   -2.4035 H   0  0  0  0  0  0  0  0  0  0  0  0
    1.9120    1.8271   -0.7882 H   0  0  0  0  0  0  0  0  0  0  0  0
    2.5146    0.4026   -2.2466 C   0  0  0  0  0  0  0  0  0  0  0  0
    2.1477   -0.4706   -3.0153 O   0  0  0  0  0  0  0  0  0  0  0  0
    3.8072    0.6070   -1.9185 O   0  0  0  0  0  0  0  0  0  0  0  0
    4.2961   -0.1139   -2.3424 H   0  0  0  0  0  0  0  0  0  0  0  0
    0.8245   -0.3148    0.9548 C   0  0  0  0  0  0  0  0  0  0  0  0
    2.0367   -0.3164    1.1226 O   0  0  0  0  0  0  0  0  0  0  0  0
    0.0140    0.2323    1.9331 N   0  0  0  0  0  0  0  0  0  0  0  0
   -0.9826    0.0936    1.8011 H   0  0  0  0  0  0  0  0  0  0  0  0
    0.5023    0.5336    3.2731 C   0  0  0  0  0  0  0  0  0  0  0  0
    1.3236    1.2567    3.2293 H   0  0  0  0  0  0  0  0  0  0  0  0
   -0.3003    0.9621    3.8808 H   0  0  0  0  0  0  0  0  0  0  0  0
    0.8616   -0.3778    3.7627 H   0  0  0  0  0  0  0  0  0  0  0  0
  1  2  1  0  0  0  0
  2  3  1  0  0  0  0
  2  4  1  0  0  0  0
  2  5  1  0  0  0  0
  5  6  2  0  0  0  0
  5  7  1  0  0  0  0
  7  8  1  0  0  0  0
  7  9  1  0  0  0  0
  9 10  1  0  0  0  0
  9 11  1  0  0  0  0
  9 21  1  0  0  0  0
 11 12  1  0  0  0  0
 11 13  1  0  0  0  0
 11 14  1  0  0  0  0
 14 15  1  0  0  0  0
 14 16  1  0  0  0  0
 14 17  1  0  0  0  0
 17 18  2  0  0  0  0
 17 19  1  0  0  0  0
 19 20  1  0  0  0  0
 21 22  2  0  0  0  0
 21 23  1  0  0  0  0
 23 24  1  0  0  0  0
 23 25  1  0  0  0  0
 25 26  1  0  0  0  0
 25 27  1  0  0  0  0
 25 28  1  0  0  0  0
M  END
$$$$

  -OEChem-03222214033D

 28 27  0     1  0  0  0  0  0999 V2000
   -2.6230   -4.1808    0.2913 H   0  0  0  0  0  0  0  0  0  0  0  0
   -2.6106   -3.2052   -0.2030 C   0  0  0  0  0  0  0  0  0  0  0  0
   -3.4608   -2.6191    0.1539 H   0  0  0  0  0  0  0  0  0  0  0  0
   -2.7065   -3.3573   -1.2808 H   0  0  0  0  0  0  0  0  0  0  0  0
   -1.3135   -2.4816    0.1052 C   0  0  0  0  0  0  0  0  0  0  0  0
   -0.5025   -2.9878    0.8588 O   0  0  0  0  0  0  0  0  0  0  0  0
   -1.0717   -1.2440   -0.4588 N   0  0  0  0  0  0  0  0  0  0  0  0
   -1.7322   -0.9537   -1.1734 H   0  0  0  0  0  0  0  0  0  0  0  0
    0.2474   -0.5828   -0.4462 C   0  0  1  0  0  0  0  0  0  0  0  0
    0.9559   -1.2529   -0.9449 H   0  0  0  0  0  0  0  0  0  0  0  0
    0.1136    0.7308   -1.2488 C   0  0  0  0  0  0  0  0  0  0  0  0
   -0.4504    0.5335   -2.1668 H   0  0  0  0  0  0  0  0  0  0  0  0
   -0.4605    1.4556   -0.6621 H   0  0  0  0  0  0  0  0  0  0  0  0
    1.4676    1.3640   -1.6463 C   0  0  0  0  0  0  0  0  0  0  0  0
    1.2832    2.2944   -2.1888 H   0  0  0  0  0  0  0  0  0  0  0  0
    2.0293    1.6199   -0.7435 H   0  0  0  0  0  0  0  0  0  0  0  0
    2.3564    0.4811   -2.5231 C   0  0  0  0  0  0  0  0  0  0  0  0
    1.8392   -0.3560   -3.2441 O   0  0  0  0  0  0  0  0  0  0  0  0
    3.6866    0.7045   -2.4860 O   0  0  0  0  0  0  0  0  0  0  0  0
    4.0729    0.0416   -3.0777 H   0  0  0  0  0  0  0  0  0  0  0  0
    0.8202   -0.3018    0.9632 C   0  0  0  0  0  0  0  0  0  0  0  0
    2.0315   -0.3108    1.1392 O   0  0  0  0  0  0  0  0  0  0  0  0
    0.0043    0.2306    1.9450 N   0  0  0  0  0  0  0  0  0  0  0  0
   -0.9922    0.1015    1.8023 H   0  0  0  0  0  0  0  0  0  0  0  0
    0.4840    0.5144    3.2920 C   0  0  0  0  0  0  0  0  0  0  0  0
    1.3008    1.2433    3.2634 H   0  0  0  0  0  0  0  0  0  0  0  0
   -0.3242    0.9282    3.9023 H   0  0  0  0  0  0  0  0  0  0  0  0
    0.8468   -0.4021    3.7693 H   0  0  0  0  0  0  0  0  0  0  0  0
  1  2  1  0  0  0  0
  2  3  1  0  0  0  0
  2  4  1  0  0  0  0
  2  5  1  0  0  0  0
  5  6  2  0  0  0  0
  5  7  1  0  0  0  0
  7  8  1  0  0  0  0
  7  9  1  0  0  0  0
  9 10  1  0  0  0  0
  9 11  1  0  0  0  0
  9 21  1  0  0  0  0
 11 12  1  0  0  0  0
 11 13  1  0  0  0  0
 11 14  1  0  0  0  0
 14 15  1  0  0  0  0
 14 16  1  0  0  0  0
 14 17  1  0  0  0  0
 17 18  2  0  0  0  0
 17 19  1  0  0  0  0
 19 20  1  0  0  0  0
 21 22  2  0  0  0  0
 21 23  1  0  0  0  0
 23 24  1  0  0  0  0
 23 25  1  0  0  0  0
 25 26  1  0  0  0  0
 25 27  1  0  0  0  0
 25 28  1  0  0  0  0
M  END
$$$$

  -OEChem-03222214033D

 28 27  0     1  0  0  0  0  0999 V2000
   -2.6183   -4.1753    0.2678 H   0  0  0  0  0  0  0  0  0  0  0  0
   -2.6118   -3.1892   -0.2056 C   0  0  0  0  0  0  0  0  0  0  0  0
   -3.4551   -2.6093    0.1769 H   0  0  0  0  0  0  0  0  0  0  0  0
   -2.7250   -3.3186   -1.2846 H   0  0  0  0  0  0  0  0  0  0  0  0
   -1.3090   -2.4737    0.0987 C   0  0  0  0  0  0  0  0  0  0  0  0
   -0.4979   -2.9870    0.8475 O   0  0  0  0  0  0  0  0  0  0  0  0
   -1.0628   -1.2353   -0.4620 N   0  0  0  0  0  0  0  0  0  0  0  0
   -1.7208   -0.9415   -1.1776 H   0  0  0  0  0  0  0  0  0  0  0  0
    0.2570   -0.5753   -0.4425 C   0  0  1  0  0  0  0  0  0  0  0  0
    0.9730   -1.2365   -0.9441 H   0  0  0  0  0  0  0  0  0  0  0  0
    0.1239    0.7353   -1.2476 C   0  0  0  0  0  0  0  0  0  0  0  0
   -0.4571    0.5581   -2.1591 H   0  0  0  0  0  0  0  0  0  0  0  0
   -0.4339    1.4607   -0.6462 H   0  0  0  0  0  0  0  0  0  0  0  0
    1.4888    1.3537   -1.6319 C   0  0  0  0  0  0  0  0  0  0  0  0
    1.3253    2.3836   -1.9586 H   0  0  0  0  0  0  0  0  0  0  0  0
    2.1516    1.3941   -0.7638 H   0  0  0  0  0  0  0  0  0  0  0  0
    2.2173    0.6320   -2.7682 C   0  0  0  0  0  0  0  0  0  0  0  0
    1.6491   -0.2462   -3.3959 O   0  0  0  0  0  0  0  0  0  0  0  0
    3.4765    1.0338   -3.0395 O   0  0  0  0  0  0  0  0  0  0  0  0
    3.7759    0.4590   -3.7602 H   0  0  0  0  0  0  0  0  0  0  0  0
    0.8132   -0.3021    0.9761 C   0  0  0  0  0  0  0  0  0  0  0  0
    2.0206   -0.3333    1.1759 O   0  0  0  0  0  0  0  0  0  0  0  0
   -0.0142    0.2262    1.9505 N   0  0  0  0  0  0  0  0  0  0  0  0
   -1.0094    0.1089    1.7897 H   0  0  0  0  0  0  0  0  0  0  0  0
    0.4453    0.4895    3.3086 C   0  0  0  0  0  0  0  0  0  0  0  0
    1.2753    1.2039    3.3019 H   0  0  0  0  0  0  0  0  0  0  0  0
   -0.3665    0.9126    3.9079 H   0  0  0  0  0  0  0  0  0  0  0  0
    0.7830   -0.4375    3.7840 H   0  0  0  0  0  0  0  0  0  0  0  0
  1  2  1  0  0  0  0
  2  3  1  0  0  0  0
  2  4  1  0  0  0  0
  2  5  1  0  0  0  0
  5  6  2  0  0  0  0
  5  7  1  0  0  0  0
  7  8  1  0  0  0  0
  7  9  1  0  0  0  0
  9 10  1  0  0  0  0
  9 11  1  0  0  0  0
  9 21  1  0  0  0  0
 11 12  1  0  0  0  0
 11 13  1  0  0  0  0
 11 14  1  0  0  0  0
 14 15  1  0  0  0  0
 14 16  1  0  0  0  0
 14 17  1  0  0  0  0
 17 18  2  0  0  0  0
 17 19  1  0  0  0  0
 19 20  1  0  0  0  0
 21 22  2  0  0  0  0
 21 23  1  0  0  0  0
 23 24  1  0  0  0  0
 23 25  1  0  0  0  0
 25 26  1  0  0  0  0
 25 27  1  0  0  0  0
 25 28  1  0  0  0  0
M  END
$$$$

  -OEChem-03222214033D

 28 27  0     1  0  0  0  0  0999 V2000
   -2.6590   -4.1462    0.2746 H   0  0  0  0  0  0  0  0  0  0  0  0
   -2.6299   -3.1691   -0.2164 C   0  0  0  0  0  0  0  0  0  0  0  0
   -3.4733   -2.5717    0.1377 H   0  0  0  0  0  0  0  0  0  0  0  0
   -2.7224   -3.3166   -1.2950 H   0  0  0  0  0  0  0  0  0  0  0  0
   -1.3242   -2.4649    0.1012 C   0  0  0  0  0  0  0  0  0  0  0  0
   -0.5273   -2.9829    0.8617 O   0  0  0  0  0  0  0  0  0  0  0  0
   -1.0598   -1.2310   -0.4613 N   0  0  0  0  0  0  0  0  0  0  0  0
   -1.7083   -0.9338   -1.1842 H   0  0  0  0  0  0  0  0  0  0  0  0
    0.2666   -0.5837   -0.4329 C   0  0  1  0  0  0  0  0  0  0  0  0
    0.9826   -1.2480   -0.9307 H   0  0  0  0  0  0  0  0  0  0  0  0
    0.1488    0.7244   -1.2429 C   0  0  0  0  0  0  0  0  0  0  0  0
   -0.4414    0.5590   -2.1508 H   0  0  0  0  0  0  0  0  0  0  0  0
   -0.3985    1.4544   -0.6375 H   0  0  0  0  0  0  0  0  0  0  0  0
    1.5231    1.3295   -1.6195 C   0  0  0  0  0  0  0  0  0  0  0  0
    1.4080    2.4133   -1.7015 H   0  0  0  0  0  0  0  0  0  0  0  0
    2.2670    1.1462   -0.8410 H   0  0  0  0  0  0  0  0  0  0  0  0
    2.0853    0.8409   -2.9557 C   0  0  0  0  0  0  0  0  0  0  0  0
    1.5883   -0.1246   -3.5112 O   0  0  0  0  0  0  0  0  0  0  0  0
    3.1264    1.5303   -3.4681 O   0  0  0  0  0  0  0  0  0  0  0  0
    3.3557    1.0681   -4.2887 H   0  0  0  0  0  0  0  0  0  0  0  0
    0.8105   -0.3127    0.9921 C   0  0  0  0  0  0  0  0  0  0  0  0
    2.0141   -0.3640    1.2100 O   0  0  0  0  0  0  0  0  0  0  0  0
   -0.0220    0.2258    1.9567 N   0  0  0  0  0  0  0  0  0  0  0  0
   -1.0163    0.1181    1.7851 H   0  0  0  0  0  0  0  0  0  0  0  0
    0.4252    0.4809    3.3203 C   0  0  0  0  0  0  0  0  0  0  0  0
    1.2610    1.1886    3.3242 H   0  0  0  0  0  0  0  0  0  0  0  0
   -0.3895    0.9084    3.9123 H   0  0  0  0  0  0  0  0  0  0  0  0
    0.7504   -0.4504    3.7963 H   0  0  0  0  0  0  0  0  0  0  0  0
  1  2  1  0  0  0  0
  2  3  1  0  0  0  0
  2  4  1  0  0  0  0
  2  5  1  0  0  0  0
  5  6  2  0  0  0  0
  5  7  1  0  0  0  0
  7  8  1  0  0  0  0
  7  9  1  0  0  0  0
  9 10  1  0  0  0  0
  9 11  1  0  0  0  0
  9 21  1  0  0  0  0
 11 12  1  0  0  0  0
 11 13  1  0  0  0  0
 11 14  1  0  0  0  0
 14 15  1  0  0  0  0
 14 16  1  0  0  0  0
 14 17  1  0  0  0  0
 17 18  2  0  0  0  0
 17 19  1  0  0  0  0
 19 20  1  0  0  0  0
 21 22  2  0  0  0  0
 21 23  1  0  0  0  0
 23 24  1  0  0  0  0
 23 25  1  0  0  0  0
 25 26  1  0  0  0  0
 25 27  1  0  0  0  0
 25 28  1  0  0  0  0
M  END
$$$$

  -OEChem-03222214033D

 28 27  0     1  0  0  0  0  0999 V2000
   -2.6996   -4.1123    0.3098 H   0  0  0  0  0  0  0  0  0  0  0  0
   -2.6501   -3.1476   -0.2033 C   0  0  0  0  0  0  0  0  0  0  0  0
   -3.4792   -2.5245    0.1400 H   0  0  0  0  0  0  0  0  0  0  0  0
   -2.7497   -3.3172   -1.2782 H   0  0  0  0  0  0  0  0  0  0  0  0
   -1.3284   -2.4651    0.0947 C   0  0  0  0  0  0  0  0  0  0  0  0
   -0.5284   -2.9964    0.8427 O   0  0  0  0  0  0  0  0  0  0  0  0
   -1.0527   -1.2341   -0.4689 N   0  0  0  0  0  0  0  0  0  0  0  0
   -1.7066   -0.9206   -1.1799 H   0  0  0  0  0  0  0  0  0  0  0  0
    0.2765   -0.5936   -0.4361 C   0  0  1  0  0  0  0  0  0  0  0  0
    0.9912   -1.2615   -0.9314 H   0  0  0  0  0  0  0  0  0  0  0  0
    0.1725    0.7158   -1.2435 C   0  0  0  0  0  0  0  0  0  0  0  0
   -0.4175    0.5521   -2.1514 H   0  0  0  0  0  0  0  0  0  0  0  0
   -0.3734    1.4508   -0.6423 H   0  0  0  0  0  0  0  0  0  0  0  0
    1.5570    1.3074   -1.6106 C   0  0  0  0  0  0  0  0  0  0  0  0
    1.5340    2.3839   -1.4212 H   0  0  0  0  0  0  0  0  0  0  0  0
    2.3509    0.8905   -0.9865 H   0  0  0  0  0  0  0  0  0  0  0  0
    1.9501    1.1094   -3.0745 C   0  0  0  0  0  0  0  0  0  0  0  0
    1.5384    0.1361   -3.6828 O   0  0  0  0  0  0  0  0  0  0  0  0
    2.7481    2.0442   -3.6324 O   0  0  0  0  0  0  0  0  0  0  0  0
    2.9008    1.7370   -4.5390 H   0  0  0  0  0  0  0  0  0  0  0  0
    0.8121   -0.3232    0.9922 C   0  0  0  0  0  0  0  0  0  0  0  0
    2.0142   -0.3744    1.2184 O   0  0  0  0  0  0  0  0  0  0  0  0
   -0.0262    0.2209    1.9485 N   0  0  0  0  0  0  0  0  0  0  0  0
   -1.0196    0.1185    1.7680 H   0  0  0  0  0  0  0  0  0  0  0  0
    0.4099    0.4792    3.3151 C   0  0  0  0  0  0  0  0  0  0  0  0
    1.2456    1.1868    3.3248 H   0  0  0  0  0  0  0  0  0  0  0  0
   -0.4098    0.9076    3.8996 H   0  0  0  0  0  0  0  0  0  0  0  0
    0.7312   -0.4513    3.7952 H   0  0  0  0  0  0  0  0  0  0  0  0
  1  2  1  0  0  0  0
  2  3  1  0  0  0  0
  2  4  1  0  0  0  0
  2  5  1  0  0  0  0
  5  6  2  0  0  0  0
  5  7  1  0  0  0  0
  7  8  1  0  0  0  0
  7  9  1  0  0  0  0
  9 10  1  0  0  0  0
  9 11  1  0  0  0  0
  9 21  1  0  0  0  0
 11 12  1  0  0  0  0
 11 13  1  0  0  0  0
 11 14  1  0  0  0  0
 14 15  1  0  0  0  0
 14 16  1  0  0  0  0
 14 17  1  0  0  0  0
 17 18  2  0  0  0  0
 17 19  1  0  0  0  0
 19 20  1  0  0  0  0
 21 22  2  0  0  0  0
 21 23  1  0  0  0  0
 23 24  1  0  0  0  0
 23 25  1  0  0  0  0
 25 26  1  0  0  0  0
 25 27  1  0  0  0  0
 25 28  1  0  0  0  0
M  END
$$$$

  -OEChem-03222214033D

 28 27  0     1  0  0  0  0  0999 V2000
   -2.7377   -4.0965    0.3166 H   0  0  0  0  0  0  0  0  0  0  0  0
   -2.6734   -3.1422   -0.2141 C   0  0  0  0  0  0  0  0  0  0  0  0
   -3.5023   -2.5060    0.1051 H   0  0  0  0  0  0  0  0  0  0  0  0
   -2.7583   -3.3316   -1.2870 H   0  0  0  0  0  0  0  0  0  0  0  0
   -1.3504   -2.4649    0.0895 C   0  0  0  0  0  0  0  0  0  0  0  0
   -0.5503   -3.0025    0.8329 O   0  0  0  0  0  0  0  0  0  0  0  0
   -1.0676   -1.2352   -0.4723 N   0  0  0  0  0  0  0  0  0  0  0  0
   -1.7235   -0.9112   -1.1770 H   0  0  0  0  0  0  0  0  0  0  0  0
    0.2649   -0.6023   -0.4363 C   0  0  1  0  0  0  0  0  0  0  0  0
    0.9729   -1.2786   -0.9299 H   0  0  0  0  0  0  0  0  0  0  0  0
    0.1782    0.7069   -1.2433 C   0  0  0  0  0  0  0  0  0  0  0  0
   -0.3940    0.5252   -2.1591 H   0  0  0  0  0  0  0  0  0  0  0  0
   -0.3780    1.4526   -0.6653 H   0  0  0  0  0  0  0  0  0  0  0  0
    1.5734    1.2801   -1.5989 C   0  0  0  0  0  0  0  0  0  0  0  0
    1.6770    2.2696   -1.1451 H   0  0  0  0  0  0  0  0  0  0  0  0
    2.3722    0.6556   -1.1897 H   0  0  0  0  0  0  0  0  0  0  0  0
    1.8201    1.4076   -3.1010 C   0  0  0  0  0  0  0  0  0  0  0  0
    1.4855    0.4961   -3.8380 O   0  0  0  0  0  0  0  0  0  0  0  0
    2.3988    2.5429   -3.5465 O   0  0  0  0  0  0  0  0  0  0  0  0
    2.4837    2.4234   -4.5048 H   0  0  0  0  0  0  0  0  0  0  0  0
    0.8109   -0.3310    0.9873 C   0  0  0  0  0  0  0  0  0  0  0  0
    2.0161   -0.3737    1.1975 O   0  0  0  0  0  0  0  0  0  0  0  0
   -0.0158    0.2206    1.9494 N   0  0  0  0  0  0  0  0  0  0  0  0
   -1.0120    0.1255    1.7811 H   0  0  0  0  0  0  0  0  0  0  0  0
    0.4398    0.5063    3.3044 C   0  0  0  0  0  0  0  0  0  0  0  0
    1.2605    1.2313    3.2884 H   0  0  0  0  0  0  0  0  0  0  0  0
   -0.3777    0.9258    3.8983 H   0  0  0  0  0  0  0  0  0  0  0  0
    0.7895   -0.4102    3.7914 H   0  0  0  0  0  0  0  0  0  0  0  0
  1  2  1  0  0  0  0
  2  3  1  0  0  0  0
  2  4  1  0  0  0  0
  2  5  1  0  0  0  0
  5  6  2  0  0  0  0
  5  7  1  0  0  0  0
  7  8  1  0  0  0  0
  7  9  1  0  0  0  0
  9 10  1  0  0  0  0
  9 11  1  0  0  0  0
  9 21  1  0  0  0  0
 11 12  1  0  0  0  0
 11 13  1  0  0  0  0
 11 14  1  0  0  0  0
 14 15  1  0  0  0  0
 14 16  1  0  0  0  0
 14 17  1  0  0  0  0
 17 18  2  0  0  0  0
 17 19  1  0  0  0  0
 19 20  1  0  0  0  0
 21 22  2  0  0  0  0
 21 23  1  0  0  0  0
 23 24  1  0  0  0  0
 23 25  1  0  0  0  0
 25 26  1  0  0  0  0
 25 27  1  0  0  0  0
 25 28  1  0  0  0  0
M  END
$$$$

  -OEChem-03222214033D

 28 27  0     1  0  0  0  0  0999 V2000
   -2.5948   -4.1675    0.3156 H   0  0  0  0  0  0  0  0  0  0  0  0
   -2.5684   -3.2155   -0.2226 C   0  0  0  0  0  0  0  0  0  0  0  0
   -3.3985   -2.5944    0.1220 H   0  0  0  0  0  0  0  0  0  0  0  0
   -2.6869   -3.4126   -1.2909 H   0  0  0  0  0  0  0  0  0  0  0  0
   -1.2496   -2.5101    0.0307 C   0  0  0  0  0  0  0  0  0  0  0  0
   -0.3907   -3.0502    0.7032 O   0  0  0  0  0  0  0  0  0  0  0  0
   -1.0318   -1.2530   -0.4980 N   0  0  0  0  0  0  0  0  0  0  0  0
   -1.7483   -0.8952   -1.1231 H   0  0  0  0  0  0  0  0  0  0  0  0
    0.2613   -0.5454   -0.4431 C   0  0  1  0  0  0  0  0  0  0  0  0
    1.0046   -1.1749   -0.9453 H   0  0  0  0  0  0  0  0  0  0  0  0
    0.1103    0.7724   -1.2239 C   0  0  0  0  0  0  0  0  0  0  0  0
   -0.4138    0.5461   -2.1589 H   0  0  0  0  0  0  0  0  0  0  0  0
   -0.5113    1.4806   -0.6656 H   0  0  0  0  0  0  0  0  0  0  0  0
    1.4735    1.4272   -1.5557 C   0  0  0  0  0  0  0  0  0  0  0  0
    1.6606    2.2597   -0.8723 H   0  0  0  0  0  0  0  0  0  0  0  0
    2.2822    0.7047   -1.4094 H   0  0  0  0  0  0  0  0  0  0  0  0
    1.5737    1.9306   -2.9945 C   0  0  0  0  0  0  0  0  0  0  0  0
    0.6072    2.4768   -3.4983 O   0  0  0  0  0  0  0  0  0  0  0  0
    2.7403    1.7448   -3.6471 O   0  0  0  0  0  0  0  0  0  0  0  0
    2.6063    2.1339   -4.5246 H   0  0  0  0  0  0  0  0  0  0  0  0
    0.7955   -0.2740    0.9831 C   0  0  0  0  0  0  0  0  0  0  0  0
    2.0028   -0.2452    1.1824 O   0  0  0  0  0  0  0  0  0  0  0  0
   -0.0562    0.2076    1.9606 N   0  0  0  0  0  0  0  0  0  0  0  0
   -1.0478    0.0751    1.7915 H   0  0  0  0  0  0  0  0  0  0  0  0
    0.3906    0.5049    3.3157 C   0  0  0  0  0  0  0  0  0  0  0  0
    1.1525    1.2915    3.3040 H   0  0  0  0  0  0  0  0  0  0  0  0
   -0.4505    0.8494    3.9248 H   0  0  0  0  0  0  0  0  0  0  0  0
    0.8155   -0.3899    3.7831 H   0  0  0  0  0  0  0  0  0  0  0  0
  1  2  1  0  0  0  0
  2  3  1  0  0  0  0
  2  4  1  0  0  0  0
  2  5  1  0  0  0  0
  5  6  2  0  0  0  0
  5  7  1  0  0  0  0
  7  8  1  0  0  0  0
  7  9  1  0  0  0  0
  9 10  1  0  0  0  0
  9 11  1  0  0  0  0
  9 21  1  0  0  0  0
 11 12  1  0  0  0  0
 11 13  1  0  0  0  0
 11 14  1  0  0  0  0
 14 15  1  0  0  0  0
 14 16  1  0  0  0  0
 14 17  1  0  0  0  0
 17 18  2  0  0  0  0
 17 19  1  0  0  0  0
 19 20  1  0  0  0  0
 21 22  2  0  0  0  0
 21 23  1  0  0  0  0
 23 24  1  0  0  0  0
 23 25  1  0  0  0  0
 25 26  1  0  0  0  0
 25 27  1  0  0  0  0
 25 28  1  0  0  0  0
M  END
$$$$

  -OEChem-03222214033D

 28 27  0     1  0  0  0  0  0999 V2000
   -2.5944   -4.1898    0.2913 H   0  0  0  0  0  0  0  0  0  0  0  0
   -2.5906   -3.2133   -0.2018 C   0  0  0  0  0  0  0  0  0  0  0  0
   -3.4093   -2.6132    0.2020 H   0  0  0  0  0  0  0  0  0  0  0  0
   -2.7481   -3.3608   -1.2729 H   0  0  0  0  0  0  0  0  0  0  0  0
   -1.2655   -2.5139    0.0364 C   0  0  0  0  0  0  0  0  0  0  0  0
   -0.4015   -3.0583    0.6987 O   0  0  0  0  0  0  0  0  0  0  0  0
   -1.0458   -1.2583   -0.4955 N   0  0  0  0  0  0  0  0  0  0  0  0
   -1.7684   -0.8919   -1.1084 H   0  0  0  0  0  0  0  0  0  0  0  0
    0.2495   -0.5544   -0.4439 C   0  0  1  0  0  0  0  0  0  0  0  0
    0.9893   -1.1909   -0.9429 H   0  0  0  0  0  0  0  0  0  0  0  0
    0.1090    0.7601   -1.2315 C   0  0  0  0  0  0  0  0  0  0  0  0
   -0.4039    0.5292   -2.1715 H   0  0  0  0  0  0  0  0  0  0  0  0
   -0.5125    1.4773   -0.6844 H   0  0  0  0  0  0  0  0  0  0  0  0
    1.4797    1.3978   -1.5585 C   0  0  0  0  0  0  0  0  0  0  0  0
    1.7988    2.0373   -0.7310 H   0  0  0  0  0  0  0  0  0  0  0  0
    2.2328    0.6120   -1.6691 H   0  0  0  0  0  0  0  0  0  0  0  0
    1.4913    2.2124   -2.8520 C   0  0  0  0  0  0  0  0  0  0  0  0
    0.4500    2.6890   -3.2714 O   0  0  0  0  0  0  0  0  0  0  0  0
    2.6783    2.3718   -3.4745 O   0  0  0  0  0  0  0  0  0  0  0  0
    2.4862    2.9162   -4.2530 H   0  0  0  0  0  0  0  0  0  0  0  0
    0.7884   -0.2809    0.9796 C   0  0  0  0  0  0  0  0  0  0  0  0
    1.9967   -0.2537    1.1738 O   0  0  0  0  0  0  0  0  0  0  0  0
   -0.0590    0.2059    1.9583 N   0  0  0  0  0  0  0  0  0  0  0  0
   -1.0520    0.0814    1.7908 H   0  0  0  0  0  0  0  0  0  0  0  0
    0.3918    0.5094    3.3109 C   0  0  0  0  0  0  0  0  0  0  0  0
    1.1701    1.2797    3.2922 H   0  0  0  0  0  0  0  0  0  0  0  0
   -0.4428    0.8790    3.9143 H   0  0  0  0  0  0  0  0  0  0  0  0
    0.7968   -0.3887    3.7895 H   0  0  0  0  0  0  0  0  0  0  0  0
  1  2  1  0  0  0  0
  2  3  1  0  0  0  0
  2  4  1  0  0  0  0
  2  5  1  0  0  0  0
  5  6  2  0  0  0  0
  5  7  1  0  0  0  0
  7  8  1  0  0  0  0
  7  9  1  0  0  0  0
  9 10  1  0  0  0  0
  9 11  1  0  0  0  0
  9 21  1  0  0  0  0
 11 12  1  0  0  0  0
 11 13  1  0  0  0  0
 11 14  1  0  0  0  0
 14 15  1  0  0  0  0
 14 16  1  0  0  0  0
 14 17  1  0  0  0  0
 17 18  2  0  0  0  0
 17 19  1  0  0  0  0
 19 20  1  0  0  0  0
 21 22  2  0  0  0  0
 21 23  1  0  0  0  0
 23 24  1  0  0  0  0
 23 25  1  0  0  0  0
 25 26  1  0  0  0  0
 25 27  1  0  0  0  0
 25 28  1  0  0  0  0
M  END
$$$$

  -OEChem-03222214033D

 28 27  0     1  0  0  0  0  0999 V2000
   -2.6138   -4.1846    0.2777 H   0  0  0  0  0  0  0  0  0  0  0  0
   -2.6108   -3.1953   -0.1891 C   0  0  0  0  0  0  0  0  0  0  0  0
   -3.4162   -2.5988    0.2459 H   0  0  0  0  0  0  0  0  0  0  0  0
   -2.7900   -3.3133   -1.2605 H   0  0  0  0  0  0  0  0  0  0  0  0
   -1.2755   -2.5134    0.0427 C   0  0  0  0  0  0  0  0  0  0  0  0
   -0.4176   -3.0660    0.7063 O   0  0  0  0  0  0  0  0  0  0  0  0
   -1.0409   -1.2631   -0.4947 N   0  0  0  0  0  0  0  0  0  0  0  0
   -1.7634   -0.8861   -1.1014 H   0  0  0  0  0  0  0  0  0  0  0  0
    0.2593   -0.5681   -0.4420 C   0  0  1  0  0  0  0  0  0  0  0  0
    0.9993   -1.2088   -0.9349 H   0  0  0  0  0  0  0  0  0  0  0  0
    0.1218    0.7404   -1.2402 C   0  0  0  0  0  0  0  0  0  0  0  0
   -0.3905    0.5139   -2.1819 H   0  0  0  0  0  0  0  0  0  0  0  0
   -0.4954    1.4595   -0.6903 H   0  0  0  0  0  0  0  0  0  0  0  0
    1.4915    1.3733   -1.5713 C   0  0  0  0  0  0  0  0  0  0  0  0
    1.9277    1.8097   -0.6682 H   0  0  0  0  0  0  0  0  0  0  0  0
    2.1764    0.5979   -1.9253 H   0  0  0  0  0  0  0  0  0  0  0  0
    1.4269    2.4550   -2.6499 C   0  0  0  0  0  0  0  0  0  0  0  0
    0.3446    2.8725   -3.0268 O   0  0  0  0  0  0  0  0  0  0  0  0
    2.6007    2.9061   -3.1387 O   0  0  0  0  0  0  0  0  0  0  0  0
    2.3615    3.5821   -3.7908 H   0  0  0  0  0  0  0  0  0  0  0  0
    0.7929   -0.2902    0.9830 C   0  0  0  0  0  0  0  0  0  0  0  0
    2.0001   -0.2777    1.1848 O   0  0  0  0  0  0  0  0  0  0  0  0
   -0.0549    0.2084    1.9555 N   0  0  0  0  0  0  0  0  0  0  0  0
   -1.0480    0.0919    1.7833 H   0  0  0  0  0  0  0  0  0  0  0  0
    0.3915    0.5089    3.3103 C   0  0  0  0  0  0  0  0  0  0  0  0
    1.1871    1.2614    3.2949 H   0  0  0  0  0  0  0  0  0  0  0  0
   -0.4393    0.9002    3.9050 H   0  0  0  0  0  0  0  0  0  0  0  0
    0.7721   -0.3956    3.7965 H   0  0  0  0  0  0  0  0  0  0  0  0
  1  2  1  0  0  0  0
  2  3  1  0  0  0  0
  2  4  1  0  0  0  0
  2  5  1  0  0  0  0
  5  6  2  0  0  0  0
  5  7  1  0  0  0  0
  7  8  1  0  0  0  0
  7  9  1  0  0  0  0
  9 10  1  0  0  0  0
  9 11  1  0  0  0  0
  9 21  1  0  0  0  0
 11 12  1  0  0  0  0
 11 13  1  0  0  0  0
 11 14  1  0  0  0  0
 14 15  1  0  0  0  0
 14 16  1  0  0  0  0
 14 17  1  0  0  0  0
 17 18  2  0  0  0  0
 17 19  1  0  0  0  0
 19 20  1  0  0  0  0
 21 22  2  0  0  0  0
 21 23  1  0  0  0  0
 23 24  1  0  0  0  0
 23 25  1  0  0  0  0
 25 26  1  0  0  0  0
 25 27  1  0  0  0  0
 25 28  1  0  0  0  0
M  END
$$$$

  -OEChem-03222214033D

 28 27  0     1  0  0  0  0  0999 V2000
   -2.6093   -4.1946    0.2857 H   0  0  0  0  0  0  0  0  0  0  0  0
   -2.6204   -3.2000   -0.1694 C   0  0  0  0  0  0  0  0  0  0  0  0
   -3.4162   -2.6106    0.2923 H   0  0  0  0  0  0  0  0  0  0  0  0
   -2.8250   -3.3054   -1.2376 H   0  0  0  0  0  0  0  0  0  0  0  0
   -1.2816   -2.5177    0.0378 C   0  0  0  0  0  0  0  0  0  0  0  0
   -0.4081   -3.0732    0.6783 O   0  0  0  0  0  0  0  0  0  0  0  0
   -1.0618   -1.2625   -0.4941 N   0  0  0  0  0  0  0  0  0  0  0  0
   -1.7983   -0.8800   -1.0800 H   0  0  0  0  0  0  0  0  0  0  0  0
    0.2345   -0.5603   -0.4491 C   0  0  1  0  0  0  0  0  0  0  0  0
    0.9663   -1.2077   -0.9454 H   0  0  0  0  0  0  0  0  0  0  0  0
    0.1074    0.7490   -1.2502 C   0  0  0  0  0  0  0  0  0  0  0  0
   -0.6200    0.6154   -2.0583 H   0  0  0  0  0  0  0  0  0  0  0  0
   -0.2653    1.5498   -0.6013 H   0  0  0  0  0  0  0  0  0  0  0  0
    1.4526    1.1630   -1.8831 C   0  0  0  0  0  0  0  0  0  0  0  0
    2.2007    1.2994   -1.0965 H   0  0  0  0  0  0  0  0  0  0  0  0
    1.8085    0.3699   -2.5459 H   0  0  0  0  0  0  0  0  0  0  0  0
    1.3792    2.4592   -2.6908 C   0  0  0  0  0  0  0  0  0  0  0  0
    0.3073    3.0206   -2.8434 O   0  0  0  0  0  0  0  0  0  0  0  0
    2.5333    2.9199   -3.2168 O   0  0  0  0  0  0  0  0  0  0  0  0
    2.2931    3.7370   -3.6793 H   0  0  0  0  0  0  0  0  0  0  0  0
    0.7865   -0.2850    0.9686 C   0  0  0  0  0  0  0  0  0  0  0  0
    1.9964   -0.2647    1.1523 O   0  0  0  0  0  0  0  0  0  0  0  0
   -0.0513    0.2045    1.9541 N   0  0  0  0  0  0  0  0  0  0  0  0
   -1.0465    0.0937    1.7908 H   0  0  0  0  0  0  0  0  0  0  0  0
    0.4097    0.5072    3.3033 C   0  0  0  0  0  0  0  0  0  0  0  0
    1.2028    1.2622    3.2781 H   0  0  0  0  0  0  0  0  0  0  0  0
   -0.4161    0.8965    3.9064 H   0  0  0  0  0  0  0  0  0  0  0  0
    0.7982   -0.3959    3.7861 H   0  0  0  0  0  0  0  0  0  0  0  0
  1  2  1  0  0  0  0
  2  3  1  0  0  0  0
  2  4  1  0  0  0  0
  2  5  1  0  0  0  0
  5  6  2  0  0  0  0
  5  7  1  0  0  0  0
  7  8  1  0  0  0  0
  7  9  1  0  0  0  0
  9 10  1  0  0  0  0
  9 11  1  0  0  0  0
  9 21  1  0  0  0  0
 11 12  1  0  0  0  0
 11 13  1  0  0  0  0
 11 14  1  0  0  0  0
 14 15  1  0  0  0  0
 14 16  1  0  0  0  0
 14 17  1  0  0  0  0
 17 18  2  0  0  0  0
 17 19  1  0  0  0  0
 19 20  1  0  0  0  0
 21 22  2  0  0  0  0
 21 23  1  0  0  0  0
 23 24  1  0  0  0  0
 23 25  1  0  0  0  0
 25 26  1  0  0  0  0
 25 27  1  0  0  0  0
 25 28  1  0  0  0  0
M  END
$$$$

  -OEChem-03222214033D

 28 27  0     1  0  0  0  0  0999 V2000
   -2.6164   -4.1842    0.3002 H   0  0  0  0  0  0  0  0  0  0  0  0
   -2.6247   -3.1905   -0.1569 C   0  0  0  0  0  0  0  0  0  0  0  0
   -3.4150   -2.5962    0.3078 H   0  0  0  0  0  0  0  0  0  0  0  0
   -2.8361   -3.2976   -1.2236 H   0  0  0  0  0  0  0  0  0  0  0  0
   -1.2810   -2.5146    0.0417 C   0  0  0  0  0  0  0  0  0  0  0  0
   -0.4071   -3.0743    0.6777 O   0  0  0  0  0  0  0  0  0  0  0  0
   -1.0561   -1.2624   -0.4951 N   0  0  0  0  0  0  0  0  0  0  0  0
   -1.7967   -0.8725   -1.0706 H   0  0  0  0  0  0  0  0  0  0  0  0
    0.2424   -0.5641   -0.4529 C   0  0  1  0  0  0  0  0  0  0  0  0
    0.9742   -1.2130   -0.9475 H   0  0  0  0  0  0  0  0  0  0  0  0
    0.1134    0.7404   -1.2616 C   0  0  0  0  0  0  0  0  0  0  0  0
   -0.6216    0.6212   -2.0644 H   0  0  0  0  0  0  0  0  0  0  0  0
   -0.2498    1.5354   -0.6000 H   0  0  0  0  0  0  0  0  0  0  0  0
    1.4563    1.1540   -1.9013 C   0  0  0  0  0  0  0  0  0  0  0  0
    2.2586    1.0574   -1.1637 H   0  0  0  0  0  0  0  0  0  0  0  0
    1.6914    0.4877   -2.7350 H   0  0  0  0  0  0  0  0  0  0  0  0
    1.4791    2.5979   -2.4030 C   0  0  0  0  0  0  0  0  0  0  0  0
    0.4347    3.2191   -2.5080 O   0  0  0  0  0  0  0  0  0  0  0  0
    2.6806    3.1149   -2.7347 O   0  0  0  0  0  0  0  0  0  0  0  0
    2.4962    4.0216   -3.0230 H   0  0  0  0  0  0  0  0  0  0  0  0
    0.7916   -0.2863    0.9660 C   0  0  0  0  0  0  0  0  0  0  0  0
    2.0004   -0.2799    1.1571 O   0  0  0  0  0  0  0  0  0  0  0  0
   -0.0466    0.2089    1.9484 N   0  0  0  0  0  0  0  0  0  0  0  0
   -1.0419    0.1054    1.7815 H   0  0  0  0  0  0  0  0  0  0  0  0
    0.4112    0.5064    3.2999 C   0  0  0  0  0  0  0  0  0  0  0  0
    1.2084    1.2572    3.2793 H   0  0  0  0  0  0  0  0  0  0  0  0
   -0.4145    0.8985    3.9013 H   0  0  0  0  0  0  0  0  0  0  0  0
    0.7936   -0.3998    3.7816 H   0  0  0  0  0  0  0  0  0  0  0  0
  1  2  1  0  0  0  0
  2  3  1  0  0  0  0
  2  4  1  0  0  0  0
  2  5  1  0  0  0  0
  5  6  2  0  0  0  0
  5  7  1  0  0  0  0
  7  8  1  0  0  0  0
  7  9  1  0  0  0  0
  9 10  1  0  0  0  0
  9 11  1  0  0  0  0
  9 21  1  0  0  0  0
 11 12  1  0  0  0  0
 11 13  1  0  0  0  0
 11 14  1  0  0  0  0
 14 15  1  0  0  0  0
 14 16  1  0  0  0  0
 14 17  1  0  0  0  0
 17 18  2  0  0  0  0
 17 19  1  0  0  0  0
 19 20  1  0  0  0  0
 21 22  2  0  0  0  0
 21 23  1  0  0  0  0
 23 24  1  0  0  0  0
 23 25  1  0  0  0  0
 25 26  1  0  0  0  0
 25 27  1  0  0  0  0
 25 28  1  0  0  0  0
M  END
$$$$

  -OEChem-03222214033D

 28 27  0     1  0  0  0  0  0999 V2000
   -2.6227   -4.1845    0.2993 H   0  0  0  0  0  0  0  0  0  0  0  0
   -2.6290   -3.1906   -0.1577 C   0  0  0  0  0  0  0  0  0  0  0  0
   -3.4212   -2.5962    0.3035 H   0  0  0  0  0  0  0  0  0  0  0  0
   -2.8360   -3.2974   -1.2252 H   0  0  0  0  0  0  0  0  0  0  0  0
   -1.2861   -2.5148    0.0461 C   0  0  0  0  0  0  0  0  0  0  0  0
   -0.4134   -3.0753    0.6831 O   0  0  0  0  0  0  0  0  0  0  0  0
   -1.0590   -1.2636   -0.4925 N   0  0  0  0  0  0  0  0  0  0  0  0
   -1.7995   -0.8732   -1.0677 H   0  0  0  0  0  0  0  0  0  0  0  0
    0.2414   -0.5684   -0.4544 C   0  0  1  0  0  0  0  0  0  0  0  0
    0.9690   -1.2214   -0.9506 H   0  0  0  0  0  0  0  0  0  0  0  0
    0.1128    0.7343   -1.2673 C   0  0  0  0  0  0  0  0  0  0  0  0
   -0.6285    0.6224   -2.0652 H   0  0  0  0  0  0  0  0  0  0  0  0
   -0.2480    1.5231   -0.5972 H   0  0  0  0  0  0  0  0  0  0  0  0
    1.4537    1.1503   -1.9151 C   0  0  0  0  0  0  0  0  0  0  0  0
    2.2842    0.8205   -1.2835 H   0  0  0  0  0  0  0  0  0  0  0  0
    1.5667    0.6622   -2.8861 H   0  0  0  0  0  0  0  0  0  0  0  0
    1.6130    2.6607   -2.0920 C   0  0  0  0  0  0  0  0  0  0  0  0
    0.6208    3.3679   -2.1465 O   0  0  0  0  0  0  0  0  0  0  0  0
    2.8682    3.1407   -2.2157 O   0  0  0  0  0  0  0  0  0  0  0  0
    2.7650    4.0990   -2.3163 H   0  0  0  0  0  0  0  0  0  0  0  0
    0.7970   -0.2896    0.9621 C   0  0  0  0  0  0  0  0  0  0  0  0
    2.0067   -0.2845    1.1476 O   0  0  0  0  0  0  0  0  0  0  0  0
   -0.0356    0.2091    1.9472 N   0  0  0  0  0  0  0  0  0  0  0  0
   -1.0323    0.1133    1.7838 H   0  0  0  0  0  0  0  0  0  0  0  0
    0.4306    0.5202    3.2926 C   0  0  0  0  0  0  0  0  0  0  0  0
    1.2209    1.2775    3.2595 H   0  0  0  0  0  0  0  0  0  0  0  0
   -0.3931    0.9098    3.8981 H   0  0  0  0  0  0  0  0  0  0  0  0
    0.8245   -0.3790    3.7779 H   0  0  0  0  0  0  0  0  0  0  0  0
  1  2  1  0  0  0  0
  2  3  1  0  0  0  0
  2  4  1  0  0  0  0
  2  5  1  0  0  0  0
  5  6  2  0  0  0  0
  5  7  1  0  0  0  0
  7  8  1  0  0  0  0
  7  9  1  0  0  0  0
  9 10  1  0  0  0  0
  9 11  1  0  0  0  0
  9 21  1  0  0  0  0
 11 12  1  0  0  0  0
 11 13  1  0  0  0  0
 11 14  1  0  0  0  0
 14 15  1  0  0  0  0
 14 16  1  0  0  0  0
 14 17  1  0  0  0  0
 17 18  2  0  0  0  0
 17 19  1  0  0  0  0
 19 20  1  0  0  0  0
 21 22  2  0  0  0  0
 21 23  1  0  0  0  0
 23 24  1  0  0  0  0
 23 25  1  0  0  0  0
 25 26  1  0  0  0  0
 25 27  1  0  0  0  0
 25 28  1  0  0  0  0
M  END
$$$$

  -OEChem-03222214033D

 28 27  0     1  0  0  0  0  0999 V2000
   -2.6221   -4.1870    0.3143 H   0  0  0  0  0  0  0  0  0  0  0  0
   -2.6286   -3.1991   -0.1553 C   0  0  0  0  0  0  0  0  0  0  0  0
   -3.4203   -2.5991    0.2996 H   0  0  0  0  0  0  0  0  0  0  0  0
   -2.8365   -3.3188   -1.2213 H   0  0  0  0  0  0  0  0  0  0  0  0
   -1.2853   -2.5214    0.0384 C   0  0  0  0  0  0  0  0  0  0  0  0
   -0.4061   -3.0820    0.6662 O   0  0  0  0  0  0  0  0  0  0  0  0
   -1.0654   -1.2679   -0.4975 N   0  0  0  0  0  0  0  0  0  0  0  0
   -1.8119   -0.8757   -1.0634 H   0  0  0  0  0  0  0  0  0  0  0  0
    0.2324   -0.5678   -0.4601 C   0  0  1  0  0  0  0  0  0  0  0  0
    0.9564   -1.2231   -0.9579 H   0  0  0  0  0  0  0  0  0  0  0  0
    0.1065    0.7358   -1.2720 C   0  0  0  0  0  0  0  0  0  0  0  0
   -0.6283    0.6157   -2.0745 H   0  0  0  0  0  0  0  0  0  0  0  0
   -0.2709    1.5204   -0.6067 H   0  0  0  0  0  0  0  0  0  0  0  0
    1.4502    1.1566   -1.9185 C   0  0  0  0  0  0  0  0  0  0  0  0
    2.2750    0.6076   -1.4538 H   0  0  0  0  0  0  0  0  0  0  0  0
    1.4479    0.9004   -2.9808 H   0  0  0  0  0  0  0  0  0  0  0  0
    1.7773    2.6430   -1.7703 C   0  0  0  0  0  0  0  0  0  0  0  0
    0.8688    3.4556   -1.7307 O   0  0  0  0  0  0  0  0  0  0  0  0
    3.0804    2.9919   -1.7307 O   0  0  0  0  0  0  0  0  0  0  0  0
    3.0826    3.9556   -1.6300 H   0  0  0  0  0  0  0  0  0  0  0  0
    0.7973   -0.2867    0.9519 C   0  0  0  0  0  0  0  0  0  0  0  0
    2.0088   -0.2720    1.1240 O   0  0  0  0  0  0  0  0  0  0  0  0
   -0.0273    0.2091    1.9454 N   0  0  0  0  0  0  0  0  0  0  0  0
   -1.0257    0.1137    1.7931 H   0  0  0  0  0  0  0  0  0  0  0  0
    0.4537    0.5375    3.2816 C   0  0  0  0  0  0  0  0  0  0  0  0
    1.2305    1.3079    3.2311 H   0  0  0  0  0  0  0  0  0  0  0  0
   -0.3673    0.9172    3.8971 H   0  0  0  0  0  0  0  0  0  0  0  0
    0.8702   -0.3515    3.7670 H   0  0  0  0  0  0  0  0  0  0  0  0
  1  2  1  0  0  0  0
  2  3  1  0  0  0  0
  2  4  1  0  0  0  0
  2  5  1  0  0  0  0
  5  6  2  0  0  0  0
  5  7  1  0  0  0  0
  7  8  1  0  0  0  0
  7  9  1  0  0  0  0
  9 10  1  0  0  0  0
  9 11  1  0  0  0  0
  9 21  1  0  0  0  0
 11 12  1  0  0  0  0
 11 13  1  0  0  0  0
 11 14  1  0  0  0  0
 14 15  1  0  0  0  0
 14 16  1  0  0  0  0
 14 17  1  0  0  0  0
 17 18  2  0  0  0  0
 17 19  1  0  0  0  0
 19 20  1  0  0  0  0
 21 22  2  0  0  0  0
 21 23  1  0  0  0  0
 23 24  1  0  0  0  0
 23 25  1  0  0  0  0
 25 26  1  0  0  0  0
 25 27  1  0  0  0  0
 25 28  1  0  0  0  0
M  END
$$$$

  -OEChem-03222214033D

 28 27  0     1  0  0  0  0  0999 V2000
   -2.6234   -4.1940    0.3050 H   0  0  0  0  0  0  0  0  0  0  0  0
   -2.6274   -3.2077   -0.1679 C   0  0  0  0  0  0  0  0  0  0  0  0
   -3.4223   -2.6065    0.2798 H   0  0  0  0  0  0  0  0  0  0  0  0
   -2.8287   -3.3312   -1.2349 H   0  0  0  0  0  0  0  0  0  0  0  0
   -1.2858   -2.5281    0.0325 C   0  0  0  0  0  0  0  0  0  0  0  0
   -0.4071   -3.0882    0.6617 O   0  0  0  0  0  0  0  0  0  0  0  0
   -1.0668   -1.2729   -0.4995 N   0  0  0  0  0  0  0  0  0  0  0  0
   -1.8131   -0.8800   -1.0650 H   0  0  0  0  0  0  0  0  0  0  0  0
    0.2300   -0.5712   -0.4592 C   0  0  1  0  0  0  0  0  0  0  0  0
    0.9520   -1.2280   -0.9578 H   0  0  0  0  0  0  0  0  0  0  0  0
    0.1039    0.7367   -1.2648 C   0  0  0  0  0  0  0  0  0  0  0  0
   -0.6169    0.5958   -2.0767 H   0  0  0  0  0  0  0  0  0  0  0  0
   -0.3019    1.5196   -0.6152 H   0  0  0  0  0  0  0  0  0  0  0  0
    1.4468    1.1670   -1.9112 C   0  0  0  0  0  0  0  0  0  0  0  0
    2.2304    0.4386   -1.6823 H   0  0  0  0  0  0  0  0  0  0  0  0
    1.3368    1.1921   -2.9981 H   0  0  0  0  0  0  0  0  0  0  0  0
    1.9527    2.5377   -1.4590 C   0  0  0  0  0  0  0  0  0  0  0  0
    1.1511    3.4278   -1.2298 O   0  0  0  0  0  0  0  0  0  0  0  0
    3.2887    2.7102   -1.3799 O   0  0  0  0  0  0  0  0  0  0  0  0
    3.4092    3.6181   -1.0640 H   0  0  0  0  0  0  0  0  0  0  0  0
    0.8019   -0.2890    0.9490 C   0  0  0  0  0  0  0  0  0  0  0  0
    2.0146   -0.2679    1.1107 O   0  0  0  0  0  0  0  0  0  0  0  0
   -0.0165    0.2059    1.9477 N   0  0  0  0  0  0  0  0  0  0  0  0
   -1.0165    0.1185    1.8012 H   0  0  0  0  0  0  0  0  0  0  0  0
    0.4767    0.5615    3.2723 C   0  0  0  0  0  0  0  0  0  0  0  0
    1.2187    1.3639    3.2014 H   0  0  0  0  0  0  0  0  0  0  0  0
   -0.3469    0.9088    3.9030 H   0  0  0  0  0  0  0  0  0  0  0  0
    0.9411   -0.3060    3.7533 H   0  0  0  0  0  0  0  0  0  0  0  0
  1  2  1  0  0  0  0
  2  3  1  0  0  0  0
  2  4  1  0  0  0  0
  2  5  1  0  0  0  0
  5  6  2  0  0  0  0
  5  7  1  0  0  0  0
  7  8  1  0  0  0  0
  7  9  1  0  0  0  0
  9 10  1  0  0  0  0
  9 11  1  0  0  0  0
  9 21  1  0  0  0  0
 11 12  1  0  0  0  0
 11 13  1  0  0  0  0
 11 14  1  0  0  0  0
 14 15  1  0  0  0  0
 14 16  1  0  0  0  0
 14 17  1  0  0  0  0
 17 18  2  0  0  0  0
 17 19  1  0  0  0  0
 19 20  1  0  0  0  0
 21 22  2  0  0  0  0
 21 23  1  0  0  0  0
 23 24  1  0  0  0  0
 23 25  1  0  0  0  0
 25 26  1  0  0  0  0
 25 27  1  0  0  0  0
 25 28  1  0  0  0  0
M  END
$$$$

  -OEChem-03222214033D

 28 27  0     1  0  0  0  0  0999 V2000
   -2.6058   -4.2001    0.3050 H   0  0  0  0  0  0  0  0  0  0  0  0
   -2.6176   -3.2100   -0.1600 C   0  0  0  0  0  0  0  0  0  0  0  0
   -3.4021   -2.6111    0.3085 H   0  0  0  0  0  0  0  0  0  0  0  0
   -2.8401   -3.3252   -1.2235 H   0  0  0  0  0  0  0  0  0  0  0  0
   -1.2710   -2.5345    0.0186 C   0  0  0  0  0  0  0  0  0  0  0  0
   -0.3812   -3.1038    0.6232 O   0  0  0  0  0  0  0  0  0  0  0  0
   -1.0579   -1.2761   -0.5086 N   0  0  0  0  0  0  0  0  0  0  0  0
   -1.8166   -0.8692   -1.0468 H   0  0  0  0  0  0  0  0  0  0  0  0
    0.2359   -0.5694   -0.4625 C   0  0  1  0  0  0  0  0  0  0  0  0
    0.9617   -1.2231   -0.9594 H   0  0  0  0  0  0  0  0  0  0  0  0
    0.1099    0.7439   -1.2596 C   0  0  0  0  0  0  0  0  0  0  0  0
   -0.5932    0.5828   -2.0830 H   0  0  0  0  0  0  0  0  0  0  0  0
   -0.3224    1.5286   -0.6299 H   0  0  0  0  0  0  0  0  0  0  0  0
    1.4536    1.1798   -1.8986 C   0  0  0  0  0  0  0  0  0  0  0  0
    2.1534    0.3406   -1.9397 H   0  0  0  0  0  0  0  0  0  0  0  0
    1.2708    1.4966   -2.9284 H   0  0  0  0  0  0  0  0  0  0  0  0
    2.1447    2.3477   -1.1917 C   0  0  0  0  0  0  0  0  0  0  0  0
    1.4743    3.2123   -0.6528 O   0  0  0  0  0  0  0  0  0  0  0  0
    3.4928    2.3837   -1.2423 O   0  0  0  0  0  0  0  0  0  0  0  0
    3.7439    3.1552   -0.7127 H   0  0  0  0  0  0  0  0  0  0  0  0
    0.8015   -0.2912    0.9487 C   0  0  0  0  0  0  0  0  0  0  0  0
    2.0134   -0.2773    1.1183 O   0  0  0  0  0  0  0  0  0  0  0  0
   -0.0232    0.1961    1.9459 N   0  0  0  0  0  0  0  0  0  0  0  0
   -1.0224    0.1353    1.7842 H   0  0  0  0  0  0  0  0  0  0  0  0
    0.4613    0.5640    3.2700 C   0  0  0  0  0  0  0  0  0  0  0  0
    1.2021    1.3672    3.1963 H   0  0  0  0  0  0  0  0  0  0  0  0
   -0.3666    0.9151    3.8930 H   0  0  0  0  0  0  0  0  0  0  0  0
    0.9241   -0.2986    3.7610 H   0  0  0  0  0  0  0  0  0  0  0  0
  1  2  1  0  0  0  0
  2  3  1  0  0  0  0
  2  4  1  0  0  0  0
  2  5  1  0  0  0  0
  5  6  2  0  0  0  0
  5  7  1  0  0  0  0
  7  8  1  0  0  0  0
  7  9  1  0  0  0  0
  9 10  1  0  0  0  0
  9 11  1  0  0  0  0
  9 21  1  0  0  0  0
 11 12  1  0  0  0  0
 11 13  1  0  0  0  0
 11 14  1  0  0  0  0
 14 15  1  0  0  0  0
 14 16  1  0  0  0  0
 14 17  1  0  0  0  0
 17 18  2  0  0  0  0
 17 19  1  0  0  0  0
 19 20  1  0  0  0  0
 21 22  2  0  0  0  0
 21 23  1  0  0  0  0
 23 24  1  0  0  0  0
 23 25  1  0  0  0  0
 25 26  1  0  0  0  0
 25 27  1  0  0  0  0
 25 28  1  0  0  0  0
M  END
$$$$

  -OEChem-03222214033D

 28 27  0     1  0  0  0  0  0999 V2000
   -2.5895   -4.1913    0.3118 H   0  0  0  0  0  0  0  0  0  0  0  0
   -2.6035   -3.2001   -0.1506 C   0  0  0  0  0  0  0  0  0  0  0  0
   -3.3785   -2.5989    0.3307 H   0  0  0  0  0  0  0  0  0  0  0  0
   -2.8413   -3.3114   -1.2112 H   0  0  0  0  0  0  0  0  0  0  0  0
   -1.2511   -2.5325    0.0106 C   0  0  0  0  0  0  0  0  0  0  0  0
   -0.3551   -3.1107    0.5972 O   0  0  0  0  0  0  0  0  0  0  0  0
   -1.0397   -1.2726   -0.5143 N   0  0  0  0  0  0  0  0  0  0  0  0
   -1.8051   -0.8579   -1.0367 H   0  0  0  0  0  0  0  0  0  0  0  0
    0.2537   -0.5644   -0.4685 C   0  0  1  0  0  0  0  0  0  0  0  0
    0.9843   -1.2111   -0.9671 H   0  0  0  0  0  0  0  0  0  0  0  0
    0.1160    0.7488   -1.2663 C   0  0  0  0  0  0  0  0  0  0  0  0
   -0.5885    0.5802   -2.0871 H   0  0  0  0  0  0  0  0  0  0  0  0
   -0.3127    1.5390   -0.6401 H   0  0  0  0  0  0  0  0  0  0  0  0
    1.4501    1.1931   -1.9107 C   0  0  0  0  0  0  0  0  0  0  0  0
    2.0444    0.3229   -2.2026 H   0  0  0  0  0  0  0  0  0  0  0  0
    1.2338    1.7576   -2.8211 H   0  0  0  0  0  0  0  0  0  0  0  0
    2.2994    2.0999   -1.0197 C   0  0  0  0  0  0  0  0  0  0  0  0
    1.7520    2.9428   -0.3287 O   0  0  0  0  0  0  0  0  0  0  0  0
    3.6382    1.9404   -1.0735 O   0  0  0  0  0  0  0  0  0  0  0  0
    3.9886    2.5370   -0.3952 H   0  0  0  0  0  0  0  0  0  0  0  0
    0.8124   -0.2930    0.9476 C   0  0  0  0  0  0  0  0  0  0  0  0
    2.0218   -0.3120    1.1346 O   0  0  0  0  0  0  0  0  0  0  0  0
   -0.0174    0.1887    1.9434 N   0  0  0  0  0  0  0  0  0  0  0  0
   -1.0152    0.1617    1.7650 H   0  0  0  0  0  0  0  0  0  0  0  0
    0.4594    0.5546    3.2708 C   0  0  0  0  0  0  0  0  0  0  0  0
    1.2177    1.3419    3.2012 H   0  0  0  0  0  0  0  0  0  0  0  0
   -0.3681    0.9272    3.8818 H   0  0  0  0  0  0  0  0  0  0  0  0
    0.8982   -0.3145    3.7719 H   0  0  0  0  0  0  0  0  0  0  0  0
  1  2  1  0  0  0  0
  2  3  1  0  0  0  0
  2  4  1  0  0  0  0
  2  5  1  0  0  0  0
  5  6  2  0  0  0  0
  5  7  1  0  0  0  0
  7  8  1  0  0  0  0
  7  9  1  0  0  0  0
  9 10  1  0  0  0  0
  9 11  1  0  0  0  0
  9 21  1  0  0  0  0
 11 12  1  0  0  0  0
 11 13  1  0  0  0  0
 11 14  1  0  0  0  0
 14 15  1  0  0  0  0
 14 16  1  0  0  0  0
 14 17  1  0  0  0  0
 17 18  2  0  0  0  0
 17 19  1  0  0  0  0
 19 20  1  0  0  0  0
 21 22  2  0  0  0  0
 21 23  1  0  0  0  0
 23 24  1  0  0  0  0
 23 25  1  0  0  0  0
 25 26  1  0  0  0  0
 25 27  1  0  0  0  0
 25 28  1  0  0  0  0
M  END
$$$$

  -OEChem-03222214033D

 28 27  0     1  0  0  0  0  0999 V2000
   -2.5721   -4.1697    0.3200 H   0  0  0  0  0  0  0  0  0  0  0  0
   -2.5807   -3.1772   -0.1398 C   0  0  0  0  0  0  0  0  0  0  0  0
   -3.3454   -2.5699    0.3500 H   0  0  0  0  0  0  0  0  0  0  0  0
   -2.8293   -3.2834   -1.1984 H   0  0  0  0  0  0  0  0  0  0  0  0
   -1.2211   -2.5217    0.0110 C   0  0  0  0  0  0  0  0  0  0  0  0
   -0.3267   -3.1076    0.5918 O   0  0  0  0  0  0  0  0  0  0  0  0
   -1.0045   -1.2630   -0.5149 N   0  0  0  0  0  0  0  0  0  0  0  0
   -1.7697   -0.8466   -1.0363 H   0  0  0  0  0  0  0  0  0  0  0  0
    0.2905   -0.5566   -0.4700 C   0  0  1  0  0  0  0  0  0  0  0  0
    1.0291   -1.1938   -0.9696 H   0  0  0  0  0  0  0  0  0  0  0  0
    0.1293    0.7519   -1.2771 C   0  0  0  0  0  0  0  0  0  0  0  0
   -0.5921    0.5824   -2.0831 H   0  0  0  0  0  0  0  0  0  0  0  0
   -0.2818    1.5416   -0.6382 H   0  0  0  0  0  0  0  0  0  0  0  0
    1.4390    1.2251   -1.9436 C   0  0  0  0  0  0  0  0  0  0  0  0
    1.9208    0.3883   -2.4567 H   0  0  0  0  0  0  0  0  0  0  0  0
    1.2070    1.9821   -2.6970 H   0  0  0  0  0  0  0  0  0  0  0  0
    2.4320    1.8442   -0.9645 C   0  0  0  0  0  0  0  0  0  0  0  0
    2.0365    2.7108   -0.2033 O   0  0  0  0  0  0  0  0  0  0  0  0
    3.7076    1.4069   -1.0008 O   0  0  0  0  0  0  0  0  0  0  0  0
    4.1341    1.8183   -0.2336 H   0  0  0  0  0  0  0  0  0  0  0  0
    0.8311   -0.2940    0.9572 C   0  0  0  0  0  0  0  0  0  0  0  0
    2.0318   -0.3715    1.1819 O   0  0  0  0  0  0  0  0  0  0  0  0
   -0.0113    0.1843    1.9442 N   0  0  0  0  0  0  0  0  0  0  0  0
   -1.0048    0.1834    1.7423 H   0  0  0  0  0  0  0  0  0  0  0  0
    0.4411    0.5046    3.2917 C   0  0  0  0  0  0  0  0  0  0  0  0
    1.2260    1.2680    3.2601 H   0  0  0  0  0  0  0  0  0  0  0  0
   -0.3904    0.8904    3.8890 H   0  0  0  0  0  0  0  0  0  0  0  0
    0.8378   -0.3894    3.7842 H   0  0  0  0  0  0  0  0  0  0  0  0
  1  2  1  0  0  0  0
  2  3  1  0  0  0  0
  2  4  1  0  0  0  0
  2  5  1  0  0  0  0
  5  6  2  0  0  0  0
  5  7  1  0  0  0  0
  7  8  1  0  0  0  0
  7  9  1  0  0  0  0
  9 10  1  0  0  0  0
  9 11  1  0  0  0  0
  9 21  1  0  0  0  0
 11 12  1  0  0  0  0
 11 13  1  0  0  0  0
 11 14  1  0  0  0  0
 14 15  1  0  0  0  0
 14 16  1  0  0  0  0
 14 17  1  0  0  0  0
 17 18  2  0  0  0  0
 17 19  1  0  0  0  0
 19 20  1  0  0  0  0
 21 22  2  0  0  0  0
 21 23  1  0  0  0  0
 23 24  1  0  0  0  0
 23 25  1  0  0  0  0
 25 26  1  0  0  0  0
 25 27  1  0  0  0  0
 25 28  1  0  0  0  0
M  END
$$$$

  -OEChem-03222214033D

 28 27  0     1  0  0  0  0  0999 V2000
   -2.5541   -4.1492    0.3219 H   0  0  0  0  0  0  0  0  0  0  0  0
   -2.5547   -3.1565   -0.1375 C   0  0  0  0  0  0  0  0  0  0  0  0
   -3.3182   -2.5446    0.3488 H   0  0  0  0  0  0  0  0  0  0  0  0
   -2.7996   -3.2612   -1.1971 H   0  0  0  0  0  0  0  0  0  0  0  0
   -1.1918   -2.5086    0.0194 C   0  0  0  0  0  0  0  0  0  0  0  0
   -0.3053   -3.0968    0.6097 O   0  0  0  0  0  0  0  0  0  0  0  0
   -0.9669   -1.2530   -0.5108 N   0  0  0  0  0  0  0  0  0  0  0  0
   -1.7261   -0.8415   -1.0442 H   0  0  0  0  0  0  0  0  0  0  0  0
    0.3296   -0.5476   -0.4649 C   0  0  1  0  0  0  0  0  0  0  0  0
    1.0764   -1.1784   -0.9613 H   0  0  0  0  0  0  0  0  0  0  0  0
    0.1492    0.7563   -1.2828 C   0  0  0  0  0  0  0  0  0  0  0  0
   -0.5911    0.5894   -2.0718 H   0  0  0  0  0  0  0  0  0  0  0  0
   -0.2448    1.5419   -0.6282 H   0  0  0  0  0  0  0  0  0  0  0  0
    1.4323    1.2652   -1.9735 C   0  0  0  0  0  0  0  0  0  0  0  0
    1.7862    0.5115   -2.6824 H   0  0  0  0  0  0  0  0  0  0  0  0
    1.2066    2.1717   -2.5412 H   0  0  0  0  0  0  0  0  0  0  0  0
    2.5637    1.5823   -1.0056 C   0  0  0  0  0  0  0  0  0  0  0  0
    2.4024    2.5005   -0.2207 O   0  0  0  0  0  0  0  0  0  0  0  0
    3.6754    0.8202   -1.0532 O   0  0  0  0  0  0  0  0  0  0  0  0
    4.1724    1.0569   -0.2541 H   0  0  0  0  0  0  0  0  0  0  0  0
    0.8461   -0.2889    0.9743 C   0  0  0  0  0  0  0  0  0  0  0  0
    2.0337   -0.4197    1.2409 O   0  0  0  0  0  0  0  0  0  0  0  0
   -0.0135    0.1890    1.9467 N   0  0  0  0  0  0  0  0  0  0  0  0
   -1.0025    0.1890    1.7241 H   0  0  0  0  0  0  0  0  0  0  0  0
    0.4051    0.4384    3.3201 C   0  0  0  0  0  0  0  0  0  0  0  0
    1.2207    1.1691    3.3445 H   0  0  0  0  0  0  0  0  0  0  0  0
   -0.4298    0.8351    3.9054 H   0  0  0  0  0  0  0  0  0  0  0  0
    0.7495   -0.4895    3.7889 H   0  0  0  0  0  0  0  0  0  0  0  0
  1  2  1  0  0  0  0
  2  3  1  0  0  0  0
  2  4  1  0  0  0  0
  2  5  1  0  0  0  0
  5  6  2  0  0  0  0
  5  7  1  0  0  0  0
  7  8  1  0  0  0  0
  7  9  1  0  0  0  0
  9 10  1  0  0  0  0
  9 11  1  0  0  0  0
  9 21  1  0  0  0  0
 11 12  1  0  0  0  0
 11 13  1  0  0  0  0
 11 14  1  0  0  0  0
 14 15  1  0  0  0  0
 14 16  1  0  0  0  0
 14 17  1  0  0  0  0
 17 18  2  0  0  0  0
 17 19  1  0  0  0  0
 19 20  1  0  0  0  0
 21 22  2  0  0  0  0
 21 23  1  0  0  0  0
 23 24  1  0  0  0  0
 23 25  1  0  0  0  0
 25 26  1  0  0  0  0
 25 27  1  0  0  0  0
 25 28  1  0  0  0  0
M  END
$$$$

  -OEChem-03222214033D

 28 27  0     1  0  0  0  0  0999 V2000
   -2.5397   -4.1465    0.3043 H   0  0  0  0  0  0  0  0  0  0  0  0
   -2.5354   -3.1532   -0.1538 C   0  0  0  0  0  0  0  0  0  0  0  0
   -3.3120   -2.5460    0.3172 H   0  0  0  0  0  0  0  0  0  0  0  0
   -2.7572   -3.2574   -1.2186 H   0  0  0  0  0  0  0  0  0  0  0  0
   -1.1796   -2.4987    0.0326 C   0  0  0  0  0  0  0  0  0  0  0  0
   -0.3068   -3.0796    0.6496 O   0  0  0  0  0  0  0  0  0  0  0  0
   -0.9469   -1.2461   -0.5021 N   0  0  0  0  0  0  0  0  0  0  0  0
   -1.6903   -0.8502   -1.0685 H   0  0  0  0  0  0  0  0  0  0  0  0
    0.3529   -0.5460   -0.4538 C   0  0  1  0  0  0  0  0  0  0  0  0
    1.1005   -1.1778   -0.9480 H   0  0  0  0  0  0  0  0  0  0  0  0
    0.1697    0.7606   -1.2709 C   0  0  0  0  0  0  0  0  0  0  0  0
   -0.5871    0.6064   -2.0468 H   0  0  0  0  0  0  0  0  0  0  0  0
   -0.2098    1.5386   -0.5992 H   0  0  0  0  0  0  0  0  0  0  0  0
    1.4343    1.2978   -1.9785 C   0  0  0  0  0  0  0  0  0  0  0  0
    1.6392    0.6773   -2.8553 H   0  0  0  0  0  0  0  0  0  0  0  0
    1.2510    2.3159   -2.3330 H   0  0  0  0  0  0  0  0  0  0  0  0
    2.6892    1.2998   -1.1192 C   0  0  0  0  0  0  0  0  0  0  0  0
    2.8615    2.2416   -0.3665 O   0  0  0  0  0  0  0  0  0  0  0  0
    3.5289    0.2484   -1.2165 O   0  0  0  0  0  0  0  0  0  0  0  0
    4.1259    0.3393   -0.4559 H   0  0  0  0  0  0  0  0  0  0  0  0
    0.8532   -0.2899    0.9935 C   0  0  0  0  0  0  0  0  0  0  0  0
    2.0319   -0.4437    1.2865 O   0  0  0  0  0  0  0  0  0  0  0  0
   -0.0196    0.1919    1.9527 N   0  0  0  0  0  0  0  0  0  0  0  0
   -1.0052    0.1782    1.7158 H   0  0  0  0  0  0  0  0  0  0  0  0
    0.3689    0.3958    3.3427 C   0  0  0  0  0  0  0  0  0  0  0  0
    1.2056    1.0996    3.4067 H   0  0  0  0  0  0  0  0  0  0  0  0
   -0.4692    0.8050    3.9146 H   0  0  0  0  0  0  0  0  0  0  0  0
    0.6708   -0.5532    3.7985 H   0  0  0  0  0  0  0  0  0  0  0  0
  1  2  1  0  0  0  0
  2  3  1  0  0  0  0
  2  4  1  0  0  0  0
  2  5  1  0  0  0  0
  5  6  2  0  0  0  0
  5  7  1  0  0  0  0
  7  8  1  0  0  0  0
  7  9  1  0  0  0  0
  9 10  1  0  0  0  0
  9 11  1  0  0  0  0
  9 21  1  0  0  0  0
 11 12  1  0  0  0  0
 11 13  1  0  0  0  0
 11 14  1  0  0  0  0
 14 15  1  0  0  0  0
 14 16  1  0  0  0  0
 14 17  1  0  0  0  0
 17 18  2  0  0  0  0
 17 19  1  0  0  0  0
 19 20  1  0  0  0  0
 21 22  2  0  0  0  0
 21 23  1  0  0  0  0
 23 24  1  0  0  0  0
 23 25  1  0  0  0  0
 25 26  1  0  0  0  0
 25 27  1  0  0  0  0
 25 28  1  0  0  0  0
M  END
$$$$

  -OEChem-03222214033D

 28 27  0     1  0  0  0  0  0999 V2000
   -2.5692   -4.1560    0.2459 H   0  0  0  0  0  0  0  0  0  0  0  0
   -2.5554   -3.1603   -0.2069 C   0  0  0  0  0  0  0  0  0  0  0  0
   -3.3519   -2.5607    0.2398 H   0  0  0  0  0  0  0  0  0  0  0  0
   -2.7397   -3.2605   -1.2793 H   0  0  0  0  0  0  0  0  0  0  0  0
   -1.2107   -2.4990    0.0302 C   0  0  0  0  0  0  0  0  0  0  0  0
   -0.3622   -3.0723    0.6870 O   0  0  0  0  0  0  0  0  0  0  0  0
   -0.9625   -1.2465   -0.4979 N   0  0  0  0  0  0  0  0  0  0  0  0
   -1.6801   -0.8631   -1.1048 H   0  0  0  0  0  0  0  0  0  0  0  0
    0.3433   -0.5590   -0.4314 C   0  0  1  0  0  0  0  0  0  0  0  0
    1.0783   -1.2079   -0.9198 H   0  0  0  0  0  0  0  0  0  0  0  0
    0.1910    0.7525   -1.2465 C   0  0  0  0  0  0  0  0  0  0  0  0
   -0.5656    0.6143   -2.0257 H   0  0  0  0  0  0  0  0  0  0  0  0
   -0.1872    1.5256   -0.5688 H   0  0  0  0  0  0  0  0  0  0  0  0
    1.4576    1.3062   -1.9467 C   0  0  0  0  0  0  0  0  0  0  0  0
    1.5161    0.8691   -2.9469 H   0  0  0  0  0  0  0  0  0  0  0  0
    1.3566    2.3883   -2.0717 H   0  0  0  0  0  0  0  0  0  0  0  0
    2.7909    1.0117   -1.2696 C   0  0  0  0  0  0  0  0  0  0  0  0
    3.2936    1.8979   -0.6031 O   0  0  0  0  0  0  0  0  0  0  0  0
    3.3600   -0.1969   -1.4610 O   0  0  0  0  0  0  0  0  0  0  0  0
    4.0956   -0.2218   -0.8273 H   0  0  0  0  0  0  0  0  0  0  0  0
    0.8421   -0.3058    1.0151 C   0  0  0  0  0  0  0  0  0  0  0  0
    2.0234   -0.4467    1.3017 O   0  0  0  0  0  0  0  0  0  0  0  0
   -0.0294    0.1851    1.9707 N   0  0  0  0  0  0  0  0  0  0  0  0
   -1.0161    0.1445    1.7407 H   0  0  0  0  0  0  0  0  0  0  0  0
    0.3600    0.3834    3.3612 C   0  0  0  0  0  0  0  0  0  0  0  0
    1.2077    1.0739    3.4277 H   0  0  0  0  0  0  0  0  0  0  0  0
   -0.4725    0.8061    3.9314 H   0  0  0  0  0  0  0  0  0  0  0  0
    0.6464   -0.5702    3.8171 H   0  0  0  0  0  0  0  0  0  0  0  0
  1  2  1  0  0  0  0
  2  3  1  0  0  0  0
  2  4  1  0  0  0  0
  2  5  1  0  0  0  0
  5  6  2  0  0  0  0
  5  7  1  0  0  0  0
  7  8  1  0  0  0  0
  7  9  1  0  0  0  0
  9 10  1  0  0  0  0
  9 11  1  0  0  0  0
  9 21  1  0  0  0  0
 11 12  1  0  0  0  0
 11 13  1  0  0  0  0
 11 14  1  0  0  0  0
 14 15  1  0  0  0  0
 14 16  1  0  0  0  0
 14 17  1  0  0  0  0
 17 18  2  0  0  0  0
 17 19  1  0  0  0  0
 19 20  1  0  0  0  0
 21 22  2  0  0  0  0
 21 23  1  0  0  0  0
 23 24  1  0  0  0  0
 23 25  1  0  0  0  0
 25 26  1  0  0  0  0
 25 27  1  0  0  0  0
 25 28  1  0  0  0  0
M  END
$$$$

  -OEChem-03222214033D

 28 27  0     1  0  0  0  0  0999 V2000
   -2.7668   -4.0664    0.4654 H   0  0  0  0  0  0  0  0  0  0  0  0
   -2.7026   -3.1140   -0.0689 C   0  0  0  0  0  0  0  0  0  0  0  0
   -3.4967   -2.4552    0.2904 H   0  0  0  0  0  0  0  0  0  0  0  0
   -2.8462   -3.3011   -1.1358 H   0  0  0  0  0  0  0  0  0  0  0  0
   -1.3480   -2.4734    0.1687 C   0  0  0  0  0  0  0  0  0  0  0  0
   -0.5488   -3.0100    0.9128 O   0  0  0  0  0  0  0  0  0  0  0  0
   -1.0418   -1.2750   -0.4476 N   0  0  0  0  0  0  0  0  0  0  0  0
   -1.7134   -0.9470   -1.1342 H   0  0  0  0  0  0  0  0  0  0  0  0
    0.3040   -0.6652   -0.4486 C   0  0  1  0  0  0  0  0  0  0  0  0
    0.9843   -1.3903   -0.9077 H   0  0  0  0  0  0  0  0  0  0  0  0
    0.2166    0.6140   -1.3245 C   0  0  0  0  0  0  0  0  0  0  0  0
   -0.5648    0.4789   -2.0794 H   0  0  0  0  0  0  0  0  0  0  0  0
   -0.1049    1.4419   -0.6830 H   0  0  0  0  0  0  0  0  0  0  0  0
    1.4946    1.0593   -2.0847 C   0  0  0  0  0  0  0  0  0  0  0  0
    1.3687    0.8240   -3.1453 H   0  0  0  0  0  0  0  0  0  0  0  0
    1.5946    2.1454   -2.0068 H   0  0  0  0  0  0  0  0  0  0  0  0
    2.8119    0.4309   -1.6458 C   0  0  0  0  0  0  0  0  0  0  0  0
    3.1189   -0.6548   -2.1059 O   0  0  0  0  0  0  0  0  0  0  0  0
    3.5806    1.1257   -0.7824 O   0  0  0  0  0  0  0  0  0  0  0  0
    4.2632    0.4990   -0.4952 H   0  0  0  0  0  0  0  0  0  0  0  0
    0.8513   -0.3474    0.9669 C   0  0  0  0  0  0  0  0  0  0  0  0
    2.0398   -0.4859    1.2239 O   0  0  0  0  0  0  0  0  0  0  0  0
    0.0290    0.2576    1.9004 N   0  0  0  0  0  0  0  0  0  0  0  0
   -0.9658    0.2119    1.7072 H   0  0  0  0  0  0  0  0  0  0  0  0
    0.4633    0.5343    3.2638 C   0  0  0  0  0  0  0  0  0  0  0  0
    1.3437    1.1858    3.2612 H   0  0  0  0  0  0  0  0  0  0  0  0
   -0.3336    1.0360    3.8208 H   0  0  0  0  0  0  0  0  0  0  0  0
    0.7166   -0.3975    3.7807 H   0  0  0  0  0  0  0  0  0  0  0  0
  1  2  1  0  0  0  0
  2  3  1  0  0  0  0
  2  4  1  0  0  0  0
  2  5  1  0  0  0  0
  5  6  2  0  0  0  0
  5  7  1  0  0  0  0
  7  8  1  0  0  0  0
  7  9  1  0  0  0  0
  9 10  1  0  0  0  0
  9 11  1  0  0  0  0
  9 21  1  0  0  0  0
 11 12  1  0  0  0  0
 11 13  1  0  0  0  0
 11 14  1  0  0  0  0
 14 15  1  0  0  0  0
 14 16  1  0  0  0  0
 14 17  1  0  0  0  0
 17 18  2  0  0  0  0
 17 19  1  0  0  0  0
 19 20  1  0  0  0  0
 21 22  2  0  0  0  0
 21 23  1  0  0  0  0
 23 24  1  0  0  0  0
 23 25  1  0  0  0  0
 25 26  1  0  0  0  0
 25 27  1  0  0  0  0
 25 28  1  0  0  0  0
M  END
$$$$

  -OEChem-03222214033D

 28 27  0     1  0  0  0  0  0999 V2000
   -2.7511   -4.1065    0.4520 H   0  0  0  0  0  0  0  0  0  0  0  0
   -2.6980   -3.1552   -0.0854 C   0  0  0  0  0  0  0  0  0  0  0  0
   -3.5098   -2.5105    0.2595 H   0  0  0  0  0  0  0  0  0  0  0  0
   -2.8223   -3.3493   -1.1533 H   0  0  0  0  0  0  0  0  0  0  0  0
   -1.3600   -2.4871    0.1684 C   0  0  0  0  0  0  0  0  0  0  0  0
   -0.5603   -3.0041    0.9262 O   0  0  0  0  0  0  0  0  0  0  0  0
   -1.0724   -1.2811   -0.4412 N   0  0  0  0  0  0  0  0  0  0  0  0
   -1.7379   -0.9731   -1.1431 H   0  0  0  0  0  0  0  0  0  0  0  0
    0.2675   -0.6597   -0.4426 C   0  0  1  0  0  0  0  0  0  0  0  0
    0.9409   -1.3892   -0.9016 H   0  0  0  0  0  0  0  0  0  0  0  0
    0.1845    0.6262   -1.3072 C   0  0  0  0  0  0  0  0  0  0  0  0
   -0.5814    0.4714   -2.0741 H   0  0  0  0  0  0  0  0  0  0  0  0
   -0.1651    1.4511   -0.6769 H   0  0  0  0  0  0  0  0  0  0  0  0
    1.4623    1.0866   -2.0626 C   0  0  0  0  0  0  0  0  0  0  0  0
    1.2411    1.1457   -3.1319 H   0  0  0  0  0  0  0  0  0  0  0  0
    1.7099    2.0993   -1.7321 H   0  0  0  0  0  0  0  0  0  0  0  0
    2.7224    0.2405   -1.9054 C   0  0  0  0  0  0  0  0  0  0  0  0
    2.7767   -0.8291   -2.4871 O   0  0  0  0  0  0  0  0  0  0  0  0
    3.7335    0.7431   -1.1674 O   0  0  0  0  0  0  0  0  0  0  0  0
    4.3765    0.0221   -1.0899 H   0  0  0  0  0  0  0  0  0  0  0  0
    0.8352   -0.3411    0.9615 C   0  0  0  0  0  0  0  0  0  0  0  0
    2.0367   -0.4296    1.1742 O   0  0  0  0  0  0  0  0  0  0  0  0
    0.0253    0.2542    1.9119 N   0  0  0  0  0  0  0  0  0  0  0  0
   -0.9728    0.1707    1.7501 H   0  0  0  0  0  0  0  0  0  0  0  0
    0.4887    0.5411    3.2637 C   0  0  0  0  0  0  0  0  0  0  0  0
    1.3577    1.2073    3.2390 H   0  0  0  0  0  0  0  0  0  0  0  0
   -0.3025    1.0306    3.8394 H   0  0  0  0  0  0  0  0  0  0  0  0
    0.7701   -0.3855    3.7754 H   0  0  0  0  0  0  0  0  0  0  0  0
  1  2  1  0  0  0  0
  2  3  1  0  0  0  0
  2  4  1  0  0  0  0
  2  5  1  0  0  0  0
  5  6  2  0  0  0  0
  5  7  1  0  0  0  0
  7  8  1  0  0  0  0
  7  9  1  0  0  0  0
  9 10  1  0  0  0  0
  9 11  1  0  0  0  0
  9 21  1  0  0  0  0
 11 12  1  0  0  0  0
 11 13  1  0  0  0  0
 11 14  1  0  0  0  0
 14 15  1  0  0  0  0
 14 16  1  0  0  0  0
 14 17  1  0  0  0  0
 17 18  2  0  0  0  0
 17 19  1  0  0  0  0
 19 20  1  0  0  0  0
 21 22  2  0  0  0  0
 21 23  1  0  0  0  0
 23 24  1  0  0  0  0
 23 25  1  0  0  0  0
 25 26  1  0  0  0  0
 25 27  1  0  0  0  0
 25 28  1  0  0  0  0
M  END
$$$$

  -OEChem-03222214033D

 28 27  0     1  0  0  0  0  0999 V2000
   -2.7297   -4.1443    0.4122 H   0  0  0  0  0  0  0  0  0  0  0  0
   -2.6882   -3.1894   -0.1199 C   0  0  0  0  0  0  0  0  0  0  0  0
   -3.5163   -2.5623    0.2186 H   0  0  0  0  0  0  0  0  0  0  0  0
   -2.7963   -3.3805   -1.1903 H   0  0  0  0  0  0  0  0  0  0  0  0
   -1.3662   -2.4970    0.1528 C   0  0  0  0  0  0  0  0  0  0  0  0
   -0.5617   -3.0055    0.9116 O   0  0  0  0  0  0  0  0  0  0  0  0
   -1.0965   -1.2796   -0.4422 N   0  0  0  0  0  0  0  0  0  0  0  0
   -1.7594   -0.9823   -1.1513 H   0  0  0  0  0  0  0  0  0  0  0  0
    0.2376   -0.6467   -0.4428 C   0  0  1  0  0  0  0  0  0  0  0  0
    0.9109   -1.3700   -0.9096 H   0  0  0  0  0  0  0  0  0  0  0  0
    0.1535    0.6549   -1.2824 C   0  0  0  0  0  0  0  0  0  0  0  0
   -0.5991    0.4936   -2.0611 H   0  0  0  0  0  0  0  0  0  0  0  0
   -0.2137    1.4732   -0.6534 H   0  0  0  0  0  0  0  0  0  0  0  0
    1.4344    1.1223   -2.0266 C   0  0  0  0  0  0  0  0  0  0  0  0
    1.1646    1.4852   -3.0218 H   0  0  0  0  0  0  0  0  0  0  0  0
    1.8461    1.9731   -1.4758 H   0  0  0  0  0  0  0  0  0  0  0  0
    2.5717    0.1161   -2.1820 C   0  0  0  0  0  0  0  0  0  0  0  0
    2.3716   -0.8766   -2.8609 O   0  0  0  0  0  0  0  0  0  0  0  0
    3.7577    0.3977   -1.6038 O   0  0  0  0  0  0  0  0  0  0  0  0
    4.3095   -0.3847   -1.7519 H   0  0  0  0  0  0  0  0  0  0  0  0
    0.8246   -0.3374    0.9537 C   0  0  0  0  0  0  0  0  0  0  0  0
    2.0355   -0.3751    1.1243 O   0  0  0  0  0  0  0  0  0  0  0  0
    0.0275    0.2411    1.9251 N   0  0  0  0  0  0  0  0  0  0  0  0
   -0.9727    0.1294    1.7942 H   0  0  0  0  0  0  0  0  0  0  0  0
    0.5242    0.5471    3.2610 C   0  0  0  0  0  0  0  0  0  0  0  0
    1.3702    1.2404    3.2069 H   0  0  0  0  0  0  0  0  0  0  0  0
   -0.2633    1.0132    3.8607 H   0  0  0  0  0  0  0  0  0  0  0  0
    0.8510   -0.3684    3.7653 H   0  0  0  0  0  0  0  0  0  0  0  0
  1  2  1  0  0  0  0
  2  3  1  0  0  0  0
  2  4  1  0  0  0  0
  2  5  1  0  0  0  0
  5  6  2  0  0  0  0
  5  7  1  0  0  0  0
  7  8  1  0  0  0  0
  7  9  1  0  0  0  0
  9 10  1  0  0  0  0
  9 11  1  0  0  0  0
  9 21  1  0  0  0  0
 11 12  1  0  0  0  0
 11 13  1  0  0  0  0
 11 14  1  0  0  0  0
 14 15  1  0  0  0  0
 14 16  1  0  0  0  0
 14 17  1  0  0  0  0
 17 18  2  0  0  0  0
 17 19  1  0  0  0  0
 19 20  1  0  0  0  0
 21 22  2  0  0  0  0
 21 23  1  0  0  0  0
 23 24  1  0  0  0  0
 23 25  1  0  0  0  0
 25 26  1  0  0  0  0
 25 27  1  0  0  0  0
 25 28  1  0  0  0  0
M  END
$$$$

  -OEChem-03222214033D

 28 27  0     1  0  0  0  0  0999 V2000
   -2.6827   -4.1783    0.3552 H   0  0  0  0  0  0  0  0  0  0  0  0
   -2.6628   -3.2099   -0.1530 C   0  0  0  0  0  0  0  0  0  0  0  0
   -3.5030   -2.6087    0.2024 H   0  0  0  0  0  0  0  0  0  0  0  0
   -2.7696   -3.3764   -1.2276 H   0  0  0  0  0  0  0  0  0  0  0  0
   -1.3547   -2.4975    0.1342 C   0  0  0  0  0  0  0  0  0  0  0  0
   -0.5436   -3.0011    0.8897 O   0  0  0  0  0  0  0  0  0  0  0  0
   -1.1036   -1.2692   -0.4456 N   0  0  0  0  0  0  0  0  0  0  0  0
   -1.7663   -0.9784   -1.1579 H   0  0  0  0  0  0  0  0  0  0  0  0
    0.2239   -0.6238   -0.4457 C   0  0  1  0  0  0  0  0  0  0  0  0
    0.9030   -1.3352   -0.9220 H   0  0  0  0  0  0  0  0  0  0  0  0
    0.1309    0.6909   -1.2617 C   0  0  0  0  0  0  0  0  0  0  0  0
   -0.6183    0.5384   -2.0454 H   0  0  0  0  0  0  0  0  0  0  0  0
   -0.2351    1.5020   -0.6230 H   0  0  0  0  0  0  0  0  0  0  0  0
    1.4185    1.1524   -1.9920 C   0  0  0  0  0  0  0  0  0  0  0  0
    1.1515    1.7708   -2.8526 H   0  0  0  0  0  0  0  0  0  0  0  0
    1.9822    1.7849   -1.2998 H   0  0  0  0  0  0  0  0  0  0  0  0
    2.3776    0.0603   -2.4598 C   0  0  0  0  0  0  0  0  0  0  0  0
    1.9326   -0.8343   -3.1591 O   0  0  0  0  0  0  0  0  0  0  0  0
    3.6786    0.1588   -2.1165 O   0  0  0  0  0  0  0  0  0  0  0  0
    4.0992   -0.6406   -2.4665 H   0  0  0  0  0  0  0  0  0  0  0  0
    0.8204   -0.3272    0.9487 C   0  0  0  0  0  0  0  0  0  0  0  0
    2.0352   -0.3247    1.0962 O   0  0  0  0  0  0  0  0  0  0  0  0
    0.0244    0.2307    1.9328 N   0  0  0  0  0  0  0  0  0  0  0  0
   -0.9745    0.0940    1.8154 H   0  0  0  0  0  0  0  0  0  0  0  0
    0.5314    0.5446    3.2629 C   0  0  0  0  0  0  0  0  0  0  0  0
    1.3557    1.2630    3.2009 H   0  0  0  0  0  0  0  0  0  0  0  0
   -0.2612    0.9837    3.8760 H   0  0  0  0  0  0  0  0  0  0  0  0
    0.8922   -0.3632    3.7579 H   0  0  0  0  0  0  0  0  0  0  0  0
  1  2  1  0  0  0  0
  2  3  1  0  0  0  0
  2  4  1  0  0  0  0
  2  5  1  0  0  0  0
  5  6  2  0  0  0  0
  5  7  1  0  0  0  0
  7  8  1  0  0  0  0
  7  9  1  0  0  0  0
  9 10  1  0  0  0  0
  9 11  1  0  0  0  0
  9 21  1  0  0  0  0
 11 12  1  0  0  0  0
 11 13  1  0  0  0  0
 11 14  1  0  0  0  0
 14 15  1  0  0  0  0
 14 16  1  0  0  0  0
 14 17  1  0  0  0  0
 17 18  2  0  0  0  0
 17 19  1  0  0  0  0
 19 20  1  0  0  0  0
 21 22  2  0  0  0  0
 21 23  1  0  0  0  0
 23 24  1  0  0  0  0
 23 25  1  0  0  0  0
 25 26  1  0  0  0  0
 25 27  1  0  0  0  0
 25 28  1  0  0  0  0
M  END
$$$$

  -OEChem-03222214033D

 28 27  0     1  0  0  0  0  0999 V2000
   -2.6366   -4.2015    0.2978 H   0  0  0  0  0  0  0  0  0  0  0  0
   -2.6302   -3.2255   -0.1960 C   0  0  0  0  0  0  0  0  0  0  0  0
   -3.4842   -2.6446    0.1606 H   0  0  0  0  0  0  0  0  0  0  0  0
   -2.7249   -3.3782   -1.2738 H   0  0  0  0  0  0  0  0  0  0  0  0
   -1.3378   -2.4934    0.1124 C   0  0  0  0  0  0  0  0  0  0  0  0
   -0.5271   -2.9895    0.8735 O   0  0  0  0  0  0  0  0  0  0  0  0
   -1.1025   -1.2552   -0.4527 N   0  0  0  0  0  0  0  0  0  0  0  0
   -1.7580   -0.9774   -1.1770 H   0  0  0  0  0  0  0  0  0  0  0  0
    0.2178   -0.5961   -0.4479 C   0  0  1  0  0  0  0  0  0  0  0  0
    0.9091   -1.2879   -0.9375 H   0  0  0  0  0  0  0  0  0  0  0  0
    0.1107    0.7278   -1.2444 C   0  0  0  0  0  0  0  0  0  0  0  0
   -0.6437    0.5973   -2.0272 H   0  0  0  0  0  0  0  0  0  0  0  0
   -0.2418    1.5308   -0.5882 H   0  0  0  0  0  0  0  0  0  0  0  0
    1.4108    1.1750   -1.9551 C   0  0  0  0  0  0  0  0  0  0  0  0
    1.1878    1.9882   -2.6502 H   0  0  0  0  0  0  0  0  0  0  0  0
    2.0950    1.5684   -1.1969 H   0  0  0  0  0  0  0  0  0  0  0  0
    2.1614    0.0834   -2.7161 C   0  0  0  0  0  0  0  0  0  0  0  0
    1.5163   -0.7187   -3.3706 O   0  0  0  0  0  0  0  0  0  0  0  0
    3.5094    0.0798   -2.6577 O   0  0  0  0  0  0  0  0  0  0  0  0
    3.7875   -0.6909   -3.1749 H   0  0  0  0  0  0  0  0  0  0  0  0
    0.8155   -0.3109    0.9485 C   0  0  0  0  0  0  0  0  0  0  0  0
    2.0313   -0.2862    1.0874 O   0  0  0  0  0  0  0  0  0  0  0  0
    0.0174    0.2257    1.9426 N   0  0  0  0  0  0  0  0  0  0  0  0
   -0.9796    0.0716    1.8303 H   0  0  0  0  0  0  0  0  0  0  0  0
    0.5277    0.5316    3.2733 C   0  0  0  0  0  0  0  0  0  0  0  0
    1.3395    1.2643    3.2142 H   0  0  0  0  0  0  0  0  0  0  0  0
   -0.2678    0.9505    3.8968 H   0  0  0  0  0  0  0  0  0  0  0  0
    0.9069   -0.3760    3.7549 H   0  0  0  0  0  0  0  0  0  0  0  0
  1  2  1  0  0  0  0
  2  3  1  0  0  0  0
  2  4  1  0  0  0  0
  2  5  1  0  0  0  0
  5  6  2  0  0  0  0
  5  7  1  0  0  0  0
  7  8  1  0  0  0  0
  7  9  1  0  0  0  0
  9 10  1  0  0  0  0
  9 11  1  0  0  0  0
  9 21  1  0  0  0  0
 11 12  1  0  0  0  0
 11 13  1  0  0  0  0
 11 14  1  0  0  0  0
 14 15  1  0  0  0  0
 14 16  1  0  0  0  0
 14 17  1  0  0  0  0
 17 18  2  0  0  0  0
 17 19  1  0  0  0  0
 19 20  1  0  0  0  0
 21 22  2  0  0  0  0
 21 23  1  0  0  0  0
 23 24  1  0  0  0  0
 23 25  1  0  0  0  0
 25 26  1  0  0  0  0
 25 27  1  0  0  0  0
 25 28  1  0  0  0  0
M  END
$$$$

  -OEChem-03222214033D

 28 27  0     1  0  0  0  0  0999 V2000
   -2.6094   -4.2032    0.2579 H   0  0  0  0  0  0  0  0  0  0  0  0
   -2.6098   -3.2235   -0.2284 C   0  0  0  0  0  0  0  0  0  0  0  0
   -3.4711   -2.6535    0.1284 H   0  0  0  0  0  0  0  0  0  0  0  0
   -2.6978   -3.3690   -1.3078 H   0  0  0  0  0  0  0  0  0  0  0  0
   -1.3257   -2.4822    0.0927 C   0  0  0  0  0  0  0  0  0  0  0  0
   -0.5128   -2.9796    0.8507 O   0  0  0  0  0  0  0  0  0  0  0  0
   -1.0986   -1.2366   -0.4592 N   0  0  0  0  0  0  0  0  0  0  0  0
   -1.7506   -0.9609   -1.1876 H   0  0  0  0  0  0  0  0  0  0  0  0
    0.2173   -0.5694   -0.4473 C   0  0  1  0  0  0  0  0  0  0  0  0
    0.9181   -1.2436   -0.9502 H   0  0  0  0  0  0  0  0  0  0  0  0
    0.0992    0.7551   -1.2367 C   0  0  0  0  0  0  0  0  0  0  0  0
   -0.6645    0.6491   -2.0146 H   0  0  0  0  0  0  0  0  0  0  0  0
   -0.2330    1.5551   -0.5665 H   0  0  0  0  0  0  0  0  0  0  0  0
    1.4169    1.1758   -1.9257 C   0  0  0  0  0  0  0  0  0  0  0  0
    1.2678    2.1287   -2.4393 H   0  0  0  0  0  0  0  0  0  0  0  0
    2.1854    1.3307   -1.1622 H   0  0  0  0  0  0  0  0  0  0  0  0
    1.9587    0.1725   -2.9450 C   0  0  0  0  0  0  0  0  0  0  0  0
    1.1836   -0.5821   -3.5095 O   0  0  0  0  0  0  0  0  0  0  0  0
    3.2848    0.1919   -3.1940 O   0  0  0  0  0  0  0  0  0  0  0  0
    3.4340   -0.5136   -3.8415 H   0  0  0  0  0  0  0  0  0  0  0  0
    0.8103   -0.2967    0.9542 C   0  0  0  0  0  0  0  0  0  0  0  0
    2.0256   -0.2740    1.0998 O   0  0  0  0  0  0  0  0  0  0  0  0
    0.0060    0.2233    1.9520 N   0  0  0  0  0  0  0  0  0  0  0  0
   -0.9900    0.0683    1.8326 H   0  0  0  0  0  0  0  0  0  0  0  0
    0.5091    0.5134    3.2889 C   0  0  0  0  0  0  0  0  0  0  0  0
    1.3174    1.2509    3.2438 H   0  0  0  0  0  0  0  0  0  0  0  0
   -0.2914    0.9191    3.9148 H   0  0  0  0  0  0  0  0  0  0  0  0
    0.8911   -0.3987    3.7593 H   0  0  0  0  0  0  0  0  0  0  0  0
  1  2  1  0  0  0  0
  2  3  1  0  0  0  0
  2  4  1  0  0  0  0
  2  5  1  0  0  0  0
  5  6  2  0  0  0  0
  5  7  1  0  0  0  0
  7  8  1  0  0  0  0
  7  9  1  0  0  0  0
  9 10  1  0  0  0  0
  9 11  1  0  0  0  0
  9 21  1  0  0  0  0
 11 12  1  0  0  0  0
 11 13  1  0  0  0  0
 11 14  1  0  0  0  0
 14 15  1  0  0  0  0
 14 16  1  0  0  0  0
 14 17  1  0  0  0  0
 17 18  2  0  0  0  0
 17 19  1  0  0  0  0
 19 20  1  0  0  0  0
 21 22  2  0  0  0  0
 21 23  1  0  0  0  0
 23 24  1  0  0  0  0
 23 25  1  0  0  0  0
 25 26  1  0  0  0  0
 25 27  1  0  0  0  0
 25 28  1  0  0  0  0
M  END
$$$$

  -OEChem-03222214033D

 28 27  0     1  0  0  0  0  0999 V2000
   -2.6053   -4.2021    0.2210 H   0  0  0  0  0  0  0  0  0  0  0  0
   -2.6120   -3.2119   -0.2436 C   0  0  0  0  0  0  0  0  0  0  0  0
   -3.4735   -2.6531    0.1297 H   0  0  0  0  0  0  0  0  0  0  0  0
   -2.7048   -3.3339   -1.3256 H   0  0  0  0  0  0  0  0  0  0  0  0
   -1.3298   -2.4720    0.0875 C   0  0  0  0  0  0  0  0  0  0  0  0
   -0.5202   -2.9734    0.8464 O   0  0  0  0  0  0  0  0  0  0  0  0
   -1.0997   -1.2252   -0.4607 N   0  0  0  0  0  0  0  0  0  0  0  0
   -1.7461   -0.9500   -1.1945 H   0  0  0  0  0  0  0  0  0  0  0  0
    0.2169   -0.5602   -0.4420 C   0  0  1  0  0  0  0  0  0  0  0  0
    0.9213   -1.2276   -0.9514 H   0  0  0  0  0  0  0  0  0  0  0  0
    0.1020    0.7612   -1.2331 C   0  0  0  0  0  0  0  0  0  0  0  0
   -0.6723    0.6804   -2.0035 H   0  0  0  0  0  0  0  0  0  0  0  0
   -0.2084    1.5619   -0.5532 H   0  0  0  0  0  0  0  0  0  0  0  0
    1.4373    1.1527   -1.9045 C   0  0  0  0  0  0  0  0  0  0  0  0
    1.3813    2.1990   -2.2146 H   0  0  0  0  0  0  0  0  0  0  0  0
    2.2568    1.0704   -1.1847 H   0  0  0  0  0  0  0  0  0  0  0  0
    1.7929    0.3291   -3.1447 C   0  0  0  0  0  0  0  0  0  0  0  0
    0.9831   -0.4579   -3.6072 O   0  0  0  0  0  0  0  0  0  0  0  0
    3.0113    0.5356   -3.6864 O   0  0  0  0  0  0  0  0  0  0  0  0
    3.0621   -0.0738   -4.4383 H   0  0  0  0  0  0  0  0  0  0  0  0
    0.8018   -0.2935    0.9649 C   0  0  0  0  0  0  0  0  0  0  0  0
    2.0158   -0.2864    1.1235 O   0  0  0  0  0  0  0  0  0  0  0  0
   -0.0072    0.2244    1.9599 N   0  0  0  0  0  0  0  0  0  0  0  0
   -1.0040    0.0840    1.8293 H   0  0  0  0  0  0  0  0  0  0  0  0
    0.4866    0.5045    3.3022 C   0  0  0  0  0  0  0  0  0  0  0  0
    1.3029    1.2338    3.2671 H   0  0  0  0  0  0  0  0  0  0  0  0
   -0.3148    0.9164    3.9227 H   0  0  0  0  0  0  0  0  0  0  0  0
    0.8551   -0.4133    3.7724 H   0  0  0  0  0  0  0  0  0  0  0  0
  1  2  1  0  0  0  0
  2  3  1  0  0  0  0
  2  4  1  0  0  0  0
  2  5  1  0  0  0  0
  5  6  2  0  0  0  0
  5  7  1  0  0  0  0
  7  8  1  0  0  0  0
  7  9  1  0  0  0  0
  9 10  1  0  0  0  0
  9 11  1  0  0  0  0
  9 21  1  0  0  0  0
 11 12  1  0  0  0  0
 11 13  1  0  0  0  0
 11 14  1  0  0  0  0
 14 15  1  0  0  0  0
 14 16  1  0  0  0  0
 14 17  1  0  0  0  0
 17 18  2  0  0  0  0
 17 19  1  0  0  0  0
 19 20  1  0  0  0  0
 21 22  2  0  0  0  0
 21 23  1  0  0  0  0
 23 24  1  0  0  0  0
 23 25  1  0  0  0  0
 25 26  1  0  0  0  0
 25 27  1  0  0  0  0
 25 28  1  0  0  0  0
M  END
$$$$

  -OEChem-03222214033D

 28 27  0     1  0  0  0  0  0999 V2000
   -2.6261   -4.1933    0.1966 H   0  0  0  0  0  0  0  0  0  0  0  0
   -2.6298   -3.1974   -0.2557 C   0  0  0  0  0  0  0  0  0  0  0  0
   -3.4923   -2.6424    0.1207 H   0  0  0  0  0  0  0  0  0  0  0  0
   -2.7180   -3.3056   -1.3395 H   0  0  0  0  0  0  0  0  0  0  0  0
   -1.3482   -2.4633    0.0902 C   0  0  0  0  0  0  0  0  0  0  0  0
   -0.5496   -2.9678    0.8584 O   0  0  0  0  0  0  0  0  0  0  0  0
   -1.1042   -1.2197   -0.4586 N   0  0  0  0  0  0  0  0  0  0  0  0
   -1.7444   -0.9390   -1.1959 H   0  0  0  0  0  0  0  0  0  0  0  0
    0.2173   -0.5648   -0.4320 C   0  0  1  0  0  0  0  0  0  0  0  0
    0.9193   -1.2378   -0.9385 H   0  0  0  0  0  0  0  0  0  0  0  0
    0.1179    0.7499   -1.2333 C   0  0  0  0  0  0  0  0  0  0  0  0
   -0.6596    0.6817   -2.0015 H   0  0  0  0  0  0  0  0  0  0  0  0
   -0.1814    1.5559   -0.5548 H   0  0  0  0  0  0  0  0  0  0  0  0
    1.4670    1.1193   -1.8922 C   0  0  0  0  0  0  0  0  0  0  0  0
    1.5201    2.2075   -1.9813 H   0  0  0  0  0  0  0  0  0  0  0  0
    2.3060    0.8073   -1.2638 H   0  0  0  0  0  0  0  0  0  0  0  0
    1.6604    0.5460   -3.2976 C   0  0  0  0  0  0  0  0  0  0  0  0
    0.9181   -0.3322   -3.7054 O   0  0  0  0  0  0  0  0  0  0  0  0
    2.6682    1.0591   -4.0340 O   0  0  0  0  0  0  0  0  0  0  0  0
    2.6481    0.5673   -4.8690 H   0  0  0  0  0  0  0  0  0  0  0  0
    0.7963   -0.2986    0.9780 C   0  0  0  0  0  0  0  0  0  0  0  0
    2.0091   -0.3020    1.1450 O   0  0  0  0  0  0  0  0  0  0  0  0
   -0.0138    0.2284    1.9674 N   0  0  0  0  0  0  0  0  0  0  0  0
   -1.0111    0.0968    1.8311 H   0  0  0  0  0  0  0  0  0  0  0  0
    0.4749    0.5086    3.3119 C   0  0  0  0  0  0  0  0  0  0  0  0
    1.2936    1.2352    3.2795 H   0  0  0  0  0  0  0  0  0  0  0  0
   -0.3281    0.9239    3.9281 H   0  0  0  0  0  0  0  0  0  0  0  0
    0.8383   -0.4097    3.7852 H   0  0  0  0  0  0  0  0  0  0  0  0
  1  2  1  0  0  0  0
  2  3  1  0  0  0  0
  2  4  1  0  0  0  0
  2  5  1  0  0  0  0
  5  6  2  0  0  0  0
  5  7  1  0  0  0  0
  7  8  1  0  0  0  0
  7  9  1  0  0  0  0
  9 10  1  0  0  0  0
  9 11  1  0  0  0  0
  9 21  1  0  0  0  0
 11 12  1  0  0  0  0
 11 13  1  0  0  0  0
 11 14  1  0  0  0  0
 14 15  1  0  0  0  0
 14 16  1  0  0  0  0
 14 17  1  0  0  0  0
 17 18  2  0  0  0  0
 17 19  1  0  0  0  0
 19 20  1  0  0  0  0
 21 22  2  0  0  0  0
 21 23  1  0  0  0  0
 23 24  1  0  0  0  0
 23 25  1  0  0  0  0
 25 26  1  0  0  0  0
 25 27  1  0  0  0  0
 25 28  1  0  0  0  0
M  END
$$$$

  -OEChem-03222214033D

 28 27  0     1  0  0  0  0  0999 V2000
   -2.6906   -4.1485    0.2714 H   0  0  0  0  0  0  0  0  0  0  0  0
   -2.6578   -3.1783   -0.2325 C   0  0  0  0  0  0  0  0  0  0  0  0
   -3.5041   -2.5766    0.1071 H   0  0  0  0  0  0  0  0  0  0  0  0
   -2.7417   -3.3398   -1.3099 H   0  0  0  0  0  0  0  0  0  0  0  0
   -1.3553   -2.4691    0.0858 C   0  0  0  0  0  0  0  0  0  0  0  0
   -0.5517   -2.9865    0.8401 O   0  0  0  0  0  0  0  0  0  0  0  0
   -1.1005   -1.2286   -0.4654 N   0  0  0  0  0  0  0  0  0  0  0  0
   -1.7476   -0.9322   -1.1902 H   0  0  0  0  0  0  0  0  0  0  0  0
    0.2238   -0.5795   -0.4342 C   0  0  1  0  0  0  0  0  0  0  0  0
    0.9230   -1.2593   -0.9353 H   0  0  0  0  0  0  0  0  0  0  0  0
    0.1402    0.7333   -1.2391 C   0  0  0  0  0  0  0  0  0  0  0  0
   -0.6356    0.6633   -2.0088 H   0  0  0  0  0  0  0  0  0  0  0  0
   -0.1615    1.5439   -0.5668 H   0  0  0  0  0  0  0  0  0  0  0  0
    1.4976    1.0935   -1.8904 C   0  0  0  0  0  0  0  0  0  0  0  0
    1.6802    2.1603   -1.7363 H   0  0  0  0  0  0  0  0  0  0  0  0
    2.3222    0.5578   -1.4112 H   0  0  0  0  0  0  0  0  0  0  0  0
    1.5526    0.8348   -3.3959 C   0  0  0  0  0  0  0  0  0  0  0  0
    0.8946   -0.0746   -3.8729 O   0  0  0  0  0  0  0  0  0  0  0  0
    2.3414    1.6417   -4.1365 O   0  0  0  0  0  0  0  0  0  0  0  0
    2.2594    1.3125   -5.0445 H   0  0  0  0  0  0  0  0  0  0  0  0
    0.7965   -0.3111    0.9776 C   0  0  0  0  0  0  0  0  0  0  0  0
    2.0089   -0.3109    1.1483 O   0  0  0  0  0  0  0  0  0  0  0  0
   -0.0181    0.2227    1.9598 N   0  0  0  0  0  0  0  0  0  0  0  0
   -1.0148    0.0925    1.8193 H   0  0  0  0  0  0  0  0  0  0  0  0
    0.4636    0.5122    3.3046 C   0  0  0  0  0  0  0  0  0  0  0  0
    1.2744    1.2476    3.2721 H   0  0  0  0  0  0  0  0  0  0  0  0
   -0.3460    0.9205    3.9169 H   0  0  0  0  0  0  0  0  0  0  0  0
    0.8351   -0.4006    3.7824 H   0  0  0  0  0  0  0  0  0  0  0  0
  1  2  1  0  0  0  0
  2  3  1  0  0  0  0
  2  4  1  0  0  0  0
  2  5  1  0  0  0  0
  5  6  2  0  0  0  0
  5  7  1  0  0  0  0
  7  8  1  0  0  0  0
  7  9  1  0  0  0  0
  9 10  1  0  0  0  0
  9 11  1  0  0  0  0
  9 21  1  0  0  0  0
 11 12  1  0  0  0  0
 11 13  1  0  0  0  0
 11 14  1  0  0  0  0
 14 15  1  0  0  0  0
 14 16  1  0  0  0  0
 14 17  1  0  0  0  0
 17 18  2  0  0  0  0
 17 19  1  0  0  0  0
 19 20  1  0  0  0  0
 21 22  2  0  0  0  0
 21 23  1  0  0  0  0
 23 24  1  0  0  0  0
 23 25  1  0  0  0  0
 25 26  1  0  0  0  0
 25 27  1  0  0  0  0
 25 28  1  0  0  0  0
M  END
$$$$

  -OEChem-03222214033D

 28 27  0     1  0  0  0  0  0999 V2000
   -2.7307   -4.1326    0.2874 H   0  0  0  0  0  0  0  0  0  0  0  0
   -2.6833   -3.1702   -0.2302 C   0  0  0  0  0  0  0  0  0  0  0  0
   -3.5243   -2.5536    0.0956 H   0  0  0  0  0  0  0  0  0  0  0  0
   -2.7628   -3.3465   -1.3057 H   0  0  0  0  0  0  0  0  0  0  0  0
   -1.3738   -2.4725    0.0851 C   0  0  0  0  0  0  0  0  0  0  0  0
   -0.5690   -2.9991    0.8317 O   0  0  0  0  0  0  0  0  0  0  0  0
   -1.1082   -1.2350   -0.4672 N   0  0  0  0  0  0  0  0  0  0  0  0
   -1.7624   -0.9213   -1.1783 H   0  0  0  0  0  0  0  0  0  0  0  0
    0.2194   -0.5928   -0.4320 C   0  0  1  0  0  0  0  0  0  0  0  0
    0.9119   -1.2846   -0.9254 H   0  0  0  0  0  0  0  0  0  0  0  0
    0.1523    0.7157   -1.2449 C   0  0  0  0  0  0  0  0  0  0  0  0
   -0.6101    0.6219   -2.0254 H   0  0  0  0  0  0  0  0  0  0  0  0
   -0.1666    1.5369   -0.5940 H   0  0  0  0  0  0  0  0  0  0  0  0
    1.5153    1.0691   -1.8902 C   0  0  0  0  0  0  0  0  0  0  0  0
    1.8444    2.0378   -1.5039 H   0  0  0  0  0  0  0  0  0  0  0  0
    2.2852    0.3426   -1.6147 H   0  0  0  0  0  0  0  0  0  0  0  0
    1.4665    1.1530   -3.4144 C   0  0  0  0  0  0  0  0  0  0  0  0
    0.8863    0.2793   -4.0362 O   0  0  0  0  0  0  0  0  0  0  0  0
    2.0696    2.2054   -4.0068 O   0  0  0  0  0  0  0  0  0  0  0  0
    1.9417    2.0677   -4.9578 H   0  0  0  0  0  0  0  0  0  0  0  0
    0.7970   -0.3194    0.9757 C   0  0  0  0  0  0  0  0  0  0  0  0
    2.0105   -0.3202    1.1381 O   0  0  0  0  0  0  0  0  0  0  0  0
   -0.0102    0.2244    1.9582 N   0  0  0  0  0  0  0  0  0  0  0  0
   -1.0089    0.1028    1.8243 H   0  0  0  0  0  0  0  0  0  0  0  0
    0.4825    0.5353    3.2943 C   0  0  0  0  0  0  0  0  0  0  0  0
    1.2824    1.2817    3.2444 H   0  0  0  0  0  0  0  0  0  0  0  0
   -0.3258    0.9385    3.9118 H   0  0  0  0  0  0  0  0  0  0  0  0
    0.8725   -0.3671    3.7773 H   0  0  0  0  0  0  0  0  0  0  0  0
  1  2  1  0  0  0  0
  2  3  1  0  0  0  0
  2  4  1  0  0  0  0
  2  5  1  0  0  0  0
  5  6  2  0  0  0  0
  5  7  1  0  0  0  0
  7  8  1  0  0  0  0
  7  9  1  0  0  0  0
  9 10  1  0  0  0  0
  9 11  1  0  0  0  0
  9 21  1  0  0  0  0
 11 12  1  0  0  0  0
 11 13  1  0  0  0  0
 11 14  1  0  0  0  0
 14 15  1  0  0  0  0
 14 16  1  0  0  0  0
 14 17  1  0  0  0  0
 17 18  2  0  0  0  0
 17 19  1  0  0  0  0
 19 20  1  0  0  0  0
 21 22  2  0  0  0  0
 21 23  1  0  0  0  0
 23 24  1  0  0  0  0
 23 25  1  0  0  0  0
 25 26  1  0  0  0  0
 25 27  1  0  0  0  0
 25 28  1  0  0  0  0
M  END
$$$$

  -OEChem-03222214033D

 28 27  0     1  0  0  0  0  0999 V2000
   -2.6102   -4.1791    0.2947 H   0  0  0  0  0  0  0  0  0  0  0  0
   -2.5845   -3.2251   -0.2399 C   0  0  0  0  0  0  0  0  0  0  0  0
   -3.4171   -2.6070    0.1045 H   0  0  0  0  0  0  0  0  0  0  0  0
   -2.6999   -3.4179   -1.3093 H   0  0  0  0  0  0  0  0  0  0  0  0
   -1.2683   -2.5171    0.0192 C   0  0  0  0  0  0  0  0  0  0  0  0
   -0.4050   -3.0592    0.6846 O   0  0  0  0  0  0  0  0  0  0  0  0
   -1.0583   -1.2533   -0.4954 N   0  0  0  0  0  0  0  0  0  0  0  0
   -1.7793   -0.8905   -1.1121 H   0  0  0  0  0  0  0  0  0  0  0  0
    0.2320   -0.5409   -0.4378 C   0  0  1  0  0  0  0  0  0  0  0  0
    0.9628   -1.1844   -0.9405 H   0  0  0  0  0  0  0  0  0  0  0  0
    0.1004    0.7823   -1.2182 C   0  0  0  0  0  0  0  0  0  0  0  0
   -0.6298    0.6276   -2.0197 H   0  0  0  0  0  0  0  0  0  0  0  0
   -0.2955    1.5751   -0.5742 H   0  0  0  0  0  0  0  0  0  0  0  0
    1.4392    1.2365   -1.8512 C   0  0  0  0  0  0  0  0  0  0  0  0
    1.8717    2.0420   -1.2519 H   0  0  0  0  0  0  0  0  0  0  0  0
    2.1610    0.4148   -1.8446 H   0  0  0  0  0  0  0  0  0  0  0  0
    1.3062    1.7126   -3.2971 C   0  0  0  0  0  0  0  0  0  0  0  0
    0.3221    2.3538   -3.6240 O   0  0  0  0  0  0  0  0  0  0  0  0
    2.2979    1.3943   -4.1554 O   0  0  0  0  0  0  0  0  0  0  0  0
    2.0377    1.7891   -5.0016 H   0  0  0  0  0  0  0  0  0  0  0  0
    0.7883   -0.2751    0.9790 C   0  0  0  0  0  0  0  0  0  0  0  0
    1.9993   -0.2222    1.1485 O   0  0  0  0  0  0  0  0  0  0  0  0
   -0.0491    0.1970    1.9731 N   0  0  0  0  0  0  0  0  0  0  0  0
   -1.0426    0.0536    1.8242 H   0  0  0  0  0  0  0  0  0  0  0  0
    0.4211    0.5048    3.3179 C   0  0  0  0  0  0  0  0  0  0  0  0
    1.1602    1.3124    3.2898 H   0  0  0  0  0  0  0  0  0  0  0  0
   -0.4145    0.8248    3.9476 H   0  0  0  0  0  0  0  0  0  0  0  0
    0.8816   -0.3783    3.7737 H   0  0  0  0  0  0  0  0  0  0  0  0
  1  2  1  0  0  0  0
  2  3  1  0  0  0  0
  2  4  1  0  0  0  0
  2  5  1  0  0  0  0
  5  6  2  0  0  0  0
  5  7  1  0  0  0  0
  7  8  1  0  0  0  0
  7  9  1  0  0  0  0
  9 10  1  0  0  0  0
  9 11  1  0  0  0  0
  9 21  1  0  0  0  0
 11 12  1  0  0  0  0
 11 13  1  0  0  0  0
 11 14  1  0  0  0  0
 14 15  1  0  0  0  0
 14 16  1  0  0  0  0
 14 17  1  0  0  0  0
 17 18  2  0  0  0  0
 17 19  1  0  0  0  0
 19 20  1  0  0  0  0
 21 22  2  0  0  0  0
 21 23  1  0  0  0  0
 23 24  1  0  0  0  0
 23 25  1  0  0  0  0
 25 26  1  0  0  0  0
 25 27  1  0  0  0  0
 25 28  1  0  0  0  0
M  END
$$$$

  -OEChem-03222214033D

 28 27  0     1  0  0  0  0  0999 V2000
   -2.6004   -4.2023    0.2767 H   0  0  0  0  0  0  0  0  0  0  0  0
   -2.6029   -3.2224   -0.2094 C   0  0  0  0  0  0  0  0  0  0  0  0
   -3.4217   -2.6278    0.2029 H   0  0  0  0  0  0  0  0  0  0  0  0
   -2.7654   -3.3627   -1.2808 H   0  0  0  0  0  0  0  0  0  0  0  0
   -1.2790   -2.5205    0.0271 C   0  0  0  0  0  0  0  0  0  0  0  0
   -0.4103   -3.0656    0.6830 O   0  0  0  0  0  0  0  0  0  0  0  0
   -1.0667   -1.2597   -0.4948 N   0  0  0  0  0  0  0  0  0  0  0  0
   -1.7932   -0.8907   -1.1015 H   0  0  0  0  0  0  0  0  0  0  0  0
    0.2263   -0.5512   -0.4410 C   0  0  1  0  0  0  0  0  0  0  0  0
    0.9562   -1.1989   -0.9392 H   0  0  0  0  0  0  0  0  0  0  0  0
    0.1020    0.7702   -1.2244 C   0  0  0  0  0  0  0  0  0  0  0  0
   -0.6193    0.6123   -2.0336 H   0  0  0  0  0  0  0  0  0  0  0  0
   -0.2934    1.5692   -0.5876 H   0  0  0  0  0  0  0  0  0  0  0  0
    1.4455    1.2078   -1.8543 C   0  0  0  0  0  0  0  0  0  0  0  0
    2.0167    1.7964   -1.1310 H   0  0  0  0  0  0  0  0  0  0  0  0
    2.0453    0.3272   -2.0996 H   0  0  0  0  0  0  0  0  0  0  0  0
    1.2949    2.0102   -3.1469 C   0  0  0  0  0  0  0  0  0  0  0  0
    0.2540    2.6050   -3.3701 O   0  0  0  0  0  0  0  0  0  0  0  0
    2.3465    2.0227   -3.9927 O   0  0  0  0  0  0  0  0  0  0  0  0
    2.0703    2.5846   -4.7326 H   0  0  0  0  0  0  0  0  0  0  0  0
    0.7818   -0.2806    0.9752 C   0  0  0  0  0  0  0  0  0  0  0  0
    1.9928   -0.2340    1.1469 O   0  0  0  0  0  0  0  0  0  0  0  0
   -0.0550    0.1991    1.9662 N   0  0  0  0  0  0  0  0  0  0  0  0
   -1.0495    0.0682    1.8129 H   0  0  0  0  0  0  0  0  0  0  0  0
    0.4135    0.5106    3.3107 C   0  0  0  0  0  0  0  0  0  0  0  0
    1.1704    1.3014    3.2792 H   0  0  0  0  0  0  0  0  0  0  0  0
   -0.4187    0.8554    3.9316 H   0  0  0  0  0  0  0  0  0  0  0  0
    0.8515   -0.3778    3.7781 H   0  0  0  0  0  0  0  0  0  0  0  0
  1  2  1  0  0  0  0
  2  3  1  0  0  0  0
  2  4  1  0  0  0  0
  2  5  1  0  0  0  0
  5  6  2  0  0  0  0
  5  7  1  0  0  0  0
  7  8  1  0  0  0  0
  7  9  1  0  0  0  0
  9 10  1  0  0  0  0
  9 11  1  0  0  0  0
  9 21  1  0  0  0  0
 11 12  1  0  0  0  0
 11 13  1  0  0  0  0
 11 14  1  0  0  0  0
 14 15  1  0  0  0  0
 14 16  1  0  0  0  0
 14 17  1  0  0  0  0
 17 18  2  0  0  0  0
 17 19  1  0  0  0  0
 19 20  1  0  0  0  0
 21 22  2  0  0  0  0
 21 23  1  0  0  0  0
 23 24  1  0  0  0  0
 23 25  1  0  0  0  0
 25 26  1  0  0  0  0
 25 27  1  0  0  0  0
 25 28  1  0  0  0  0
M  END
$$$$

  -OEChem-03222214033D

 28 27  0     1  0  0  0  0  0999 V2000
   -2.6024   -4.2074    0.2671 H   0  0  0  0  0  0  0  0  0  0  0  0
   -2.6155   -3.2124   -0.1870 C   0  0  0  0  0  0  0  0  0  0  0  0
   -3.4200   -2.6289    0.2670 H   0  0  0  0  0  0  0  0  0  0  0  0
   -2.8086   -3.3181   -1.2573 H   0  0  0  0  0  0  0  0  0  0  0  0
   -1.2835   -2.5212    0.0342 C   0  0  0  0  0  0  0  0  0  0  0  0
   -0.4116   -3.0725    0.6805 O   0  0  0  0  0  0  0  0  0  0  0  0
   -1.0675   -1.2634   -0.4928 N   0  0  0  0  0  0  0  0  0  0  0  0
   -1.8009   -0.8856   -1.0856 H   0  0  0  0  0  0  0  0  0  0  0  0
    0.2270   -0.5583   -0.4445 C   0  0  1  0  0  0  0  0  0  0  0  0
    0.9579   -1.2059   -0.9418 H   0  0  0  0  0  0  0  0  0  0  0  0
    0.1003    0.7566   -1.2371 C   0  0  0  0  0  0  0  0  0  0  0  0
   -0.6213    0.6051   -2.0471 H   0  0  0  0  0  0  0  0  0  0  0  0
   -0.2863    1.5589   -0.5988 H   0  0  0  0  0  0  0  0  0  0  0  0
    1.4449    1.1795   -1.8682 C   0  0  0  0  0  0  0  0  0  0  0  0
    2.1180    1.5440   -1.0867 H   0  0  0  0  0  0  0  0  0  0  0  0
    1.9208    0.3131   -2.3352 H   0  0  0  0  0  0  0  0  0  0  0  0
    1.3163    2.2571   -2.9457 C   0  0  0  0  0  0  0  0  0  0  0  0
    0.2360    2.7828   -3.1558 O   0  0  0  0  0  0  0  0  0  0  0  0
    2.4357    2.5768   -3.6281 O   0  0  0  0  0  0  0  0  0  0  0  0
    2.1652    3.2705   -4.2486 H   0  0  0  0  0  0  0  0  0  0  0  0
    0.7828   -0.2848    0.9712 C   0  0  0  0  0  0  0  0  0  0  0  0
    1.9937   -0.2491    1.1458 O   0  0  0  0  0  0  0  0  0  0  0  0
   -0.0528    0.2003    1.9604 N   0  0  0  0  0  0  0  0  0  0  0  0
   -1.0479    0.0762    1.8058 H   0  0  0  0  0  0  0  0  0  0  0  0
    0.4154    0.5136    3.3044 C   0  0  0  0  0  0  0  0  0  0  0  0
    1.2018    1.2750    3.2689 H   0  0  0  0  0  0  0  0  0  0  0  0
   -0.4088    0.8992    3.9120 H   0  0  0  0  0  0  0  0  0  0  0  0
    0.8155   -0.3836    3.7886 H   0  0  0  0  0  0  0  0  0  0  0  0
  1  2  1  0  0  0  0
  2  3  1  0  0  0  0
  2  4  1  0  0  0  0
  2  5  1  0  0  0  0
  5  6  2  0  0  0  0
  5  7  1  0  0  0  0
  7  8  1  0  0  0  0
  7  9  1  0  0  0  0
  9 10  1  0  0  0  0
  9 11  1  0  0  0  0
  9 21  1  0  0  0  0
 11 12  1  0  0  0  0
 11 13  1  0  0  0  0
 11 14  1  0  0  0  0
 14 15  1  0  0  0  0
 14 16  1  0  0  0  0
 14 17  1  0  0  0  0
 17 18  2  0  0  0  0
 17 19  1  0  0  0  0
 19 20  1  0  0  0  0
 21 22  2  0  0  0  0
 21 23  1  0  0  0  0
 23 24  1  0  0  0  0
 23 25  1  0  0  0  0
 25 26  1  0  0  0  0
 25 27  1  0  0  0  0
 25 28  1  0  0  0  0
M  END
$$$$

  -OEChem-03222214033D

 28 27  0     1  0  0  0  0  0999 V2000
   -2.6048   -4.2116    0.2700 H   0  0  0  0  0  0  0  0  0  0  0  0
   -2.6246   -3.2139   -0.1780 C   0  0  0  0  0  0  0  0  0  0  0  0
   -3.4258   -2.6354    0.2881 H   0  0  0  0  0  0  0  0  0  0  0  0
   -2.8290   -3.3142   -1.2467 H   0  0  0  0  0  0  0  0  0  0  0  0
   -1.2919   -2.5207    0.0330 C   0  0  0  0  0  0  0  0  0  0  0  0
   -0.4111   -3.0744    0.6651 O   0  0  0  0  0  0  0  0  0  0  0  0
   -1.0846   -1.2594   -0.4893 N   0  0  0  0  0  0  0  0  0  0  0  0
   -1.8263   -0.8785   -1.0693 H   0  0  0  0  0  0  0  0  0  0  0  0
    0.2082   -0.5502   -0.4477 C   0  0  1  0  0  0  0  0  0  0  0  0
    0.9368   -1.2010   -0.9449 H   0  0  0  0  0  0  0  0  0  0  0  0
    0.0892    0.7656   -1.2441 C   0  0  0  0  0  0  0  0  0  0  0  0
   -0.8096    0.7441   -1.8694 H   0  0  0  0  0  0  0  0  0  0  0  0
   -0.0133    1.6149   -0.5586 H   0  0  0  0  0  0  0  0  0  0  0  0
    1.3105    0.9763   -2.1617 C   0  0  0  0  0  0  0  0  0  0  0  0
    2.2188    1.0022   -1.5517 H   0  0  0  0  0  0  0  0  0  0  0  0
    1.3996    0.1386   -2.8582 H   0  0  0  0  0  0  0  0  0  0  0  0
    1.2526    2.2663   -2.9799 C   0  0  0  0  0  0  0  0  0  0  0  0
    0.2375    2.9421   -2.9793 O   0  0  0  0  0  0  0  0  0  0  0  0
    2.3523    2.5890   -3.6921 O   0  0  0  0  0  0  0  0  0  0  0  0
    2.1342    3.4249   -4.1317 H   0  0  0  0  0  0  0  0  0  0  0  0
    0.7771   -0.2806    0.9636 C   0  0  0  0  0  0  0  0  0  0  0  0
    1.9899   -0.2400    1.1232 O   0  0  0  0  0  0  0  0  0  0  0  0
   -0.0485    0.1977    1.9648 N   0  0  0  0  0  0  0  0  0  0  0  0
   -1.0454    0.0758    1.8198 H   0  0  0  0  0  0  0  0  0  0  0  0
    0.4343    0.5090    3.3045 C   0  0  0  0  0  0  0  0  0  0  0  0
    1.2155    1.2753    3.2628 H   0  0  0  0  0  0  0  0  0  0  0  0
   -0.3847    0.8871    3.9235 H   0  0  0  0  0  0  0  0  0  0  0  0
    0.8459   -0.3873    3.7804 H   0  0  0  0  0  0  0  0  0  0  0  0
  1  2  1  0  0  0  0
  2  3  1  0  0  0  0
  2  4  1  0  0  0  0
  2  5  1  0  0  0  0
  5  6  2  0  0  0  0
  5  7  1  0  0  0  0
  7  8  1  0  0  0  0
  7  9  1  0  0  0  0
  9 10  1  0  0  0  0
  9 11  1  0  0  0  0
  9 21  1  0  0  0  0
 11 12  1  0  0  0  0
 11 13  1  0  0  0  0
 11 14  1  0  0  0  0
 14 15  1  0  0  0  0
 14 16  1  0  0  0  0
 14 17  1  0  0  0  0
 17 18  2  0  0  0  0
 17 19  1  0  0  0  0
 19 20  1  0  0  0  0
 21 22  2  0  0  0  0
 21 23  1  0  0  0  0
 23 24  1  0  0  0  0
 23 25  1  0  0  0  0
 25 26  1  0  0  0  0
 25 27  1  0  0  0  0
 25 28  1  0  0  0  0
M  END
$$$$

  -OEChem-03222214033D

 28 27  0     1  0  0  0  0  0999 V2000
   -2.6055   -4.2090    0.2779 H   0  0  0  0  0  0  0  0  0  0  0  0
   -2.6282   -3.2116   -0.1706 C   0  0  0  0  0  0  0  0  0  0  0  0
   -3.4288   -2.6338    0.2974 H   0  0  0  0  0  0  0  0  0  0  0  0
   -2.8355   -3.3127   -1.2386 H   0  0  0  0  0  0  0  0  0  0  0  0
   -1.2952   -2.5177    0.0364 C   0  0  0  0  0  0  0  0  0  0  0  0
   -0.4133   -3.0713    0.6669 O   0  0  0  0  0  0  0  0  0  0  0  0
   -1.0867   -1.2580   -0.4896 N   0  0  0  0  0  0  0  0  0  0  0  0
   -1.8313   -0.8741   -1.0639 H   0  0  0  0  0  0  0  0  0  0  0  0
    0.2078   -0.5513   -0.4524 C   0  0  1  0  0  0  0  0  0  0  0  0
    0.9330   -1.2053   -0.9504 H   0  0  0  0  0  0  0  0  0  0  0  0
    0.0886    0.7596   -1.2568 C   0  0  0  0  0  0  0  0  0  0  0  0
   -0.8135    0.7542   -1.8774 H   0  0  0  0  0  0  0  0  0  0  0  0
   -0.0021    1.6037   -0.5629 H   0  0  0  0  0  0  0  0  0  0  0  0
    1.3089    0.9653   -2.1780 C   0  0  0  0  0  0  0  0  0  0  0  0
    2.2234    0.7559   -1.6138 H   0  0  0  0  0  0  0  0  0  0  0  0
    1.2669    0.2672   -3.0177 H   0  0  0  0  0  0  0  0  0  0  0  0
    1.4319    2.3879   -2.7226 C   0  0  0  0  0  0  0  0  0  0  0  0
    0.4613    3.1261   -2.7064 O   0  0  0  0  0  0  0  0  0  0  0  0
    2.6280    2.7527   -3.2298 O   0  0  0  0  0  0  0  0  0  0  0  0
    2.5122    3.6705   -3.5186 H   0  0  0  0  0  0  0  0  0  0  0  0
    0.7809   -0.2790    0.9568 C   0  0  0  0  0  0  0  0  0  0  0  0
    1.9941   -0.2433    1.1135 O   0  0  0  0  0  0  0  0  0  0  0  0
   -0.0411    0.2038    1.9587 N   0  0  0  0  0  0  0  0  0  0  0  0
   -1.0386    0.0842    1.8169 H   0  0  0  0  0  0  0  0  0  0  0  0
    0.4460    0.5151    3.2969 C   0  0  0  0  0  0  0  0  0  0  0  0
    1.2289    1.2797    3.2528 H   0  0  0  0  0  0  0  0  0  0  0  0
   -0.3706    0.8952    3.9182 H   0  0  0  0  0  0  0  0  0  0  0  0
    0.8569   -0.3820    3.7721 H   0  0  0  0  0  0  0  0  0  0  0  0
  1  2  1  0  0  0  0
  2  3  1  0  0  0  0
  2  4  1  0  0  0  0
  2  5  1  0  0  0  0
  5  6  2  0  0  0  0
  5  7  1  0  0  0  0
  7  8  1  0  0  0  0
  7  9  1  0  0  0  0
  9 10  1  0  0  0  0
  9 11  1  0  0  0  0
  9 21  1  0  0  0  0
 11 12  1  0  0  0  0
 11 13  1  0  0  0  0
 11 14  1  0  0  0  0
 14 15  1  0  0  0  0
 14 16  1  0  0  0  0
 14 17  1  0  0  0  0
 17 18  2  0  0  0  0
 17 19  1  0  0  0  0
 19 20  1  0  0  0  0
 21 22  2  0  0  0  0
 21 23  1  0  0  0  0
 23 24  1  0  0  0  0
 23 25  1  0  0  0  0
 25 26  1  0  0  0  0
 25 27  1  0  0  0  0
 25 28  1  0  0  0  0
M  END
$$$$

  -OEChem-03222214033D

 28 27  0     1  0  0  0  0  0999 V2000
   -2.6132   -4.2019    0.2870 H   0  0  0  0  0  0  0  0  0  0  0  0
   -2.6319   -3.2056   -0.1641 C   0  0  0  0  0  0  0  0  0  0  0  0
   -3.4278   -2.6219    0.3047 H   0  0  0  0  0  0  0  0  0  0  0  0
   -2.8429   -3.3082   -1.2314 H   0  0  0  0  0  0  0  0  0  0  0  0
   -1.2950   -2.5177    0.0375 C   0  0  0  0  0  0  0  0  0  0  0  0
   -0.4137   -3.0740    0.6664 O   0  0  0  0  0  0  0  0  0  0  0  0
   -1.0837   -1.2593   -0.4905 N   0  0  0  0  0  0  0  0  0  0  0  0
   -1.8291   -0.8733   -1.0622 H   0  0  0  0  0  0  0  0  0  0  0  0
    0.2123   -0.5556   -0.4562 C   0  0  1  0  0  0  0  0  0  0  0  0
    0.9338   -1.2149   -0.9525 H   0  0  0  0  0  0  0  0  0  0  0  0
    0.0922    0.7519   -1.2680 C   0  0  0  0  0  0  0  0  0  0  0  0
   -0.8135    0.7534   -1.8832 H   0  0  0  0  0  0  0  0  0  0  0  0
    0.0035    1.5904   -0.5672 H   0  0  0  0  0  0  0  0  0  0  0  0
    1.3080    0.9651   -2.1977 C   0  0  0  0  0  0  0  0  0  0  0  0
    2.1986    0.5284   -1.7349 H   0  0  0  0  0  0  0  0  0  0  0  0
    1.1474    0.4583   -3.1524 H   0  0  0  0  0  0  0  0  0  0  0  0
    1.6322    2.4365   -2.4543 C   0  0  0  0  0  0  0  0  0  0  0  0
    0.7384    3.2644   -2.4018 O   0  0  0  0  0  0  0  0  0  0  0  0
    2.9082    2.7468   -2.7650 O   0  0  0  0  0  0  0  0  0  0  0  0
    2.9133    3.7085   -2.8848 H   0  0  0  0  0  0  0  0  0  0  0  0
    0.7883   -0.2825    0.9520 C   0  0  0  0  0  0  0  0  0  0  0  0
    2.0017   -0.2526    1.1076 O   0  0  0  0  0  0  0  0  0  0  0  0
   -0.0307    0.2037    1.9548 N   0  0  0  0  0  0  0  0  0  0  0  0
   -1.0294    0.0961    1.8114 H   0  0  0  0  0  0  0  0  0  0  0  0
    0.4593    0.5192    3.2908 C   0  0  0  0  0  0  0  0  0  0  0  0
    1.2409    1.2848    3.2421 H   0  0  0  0  0  0  0  0  0  0  0  0
   -0.3559    0.9001    3.9132 H   0  0  0  0  0  0  0  0  0  0  0  0
    0.8725   -0.3760    3.7674 H   0  0  0  0  0  0  0  0  0  0  0  0
  1  2  1  0  0  0  0
  2  3  1  0  0  0  0
  2  4  1  0  0  0  0
  2  5  1  0  0  0  0
  5  6  2  0  0  0  0
  5  7  1  0  0  0  0
  7  8  1  0  0  0  0
  7  9  1  0  0  0  0
  9 10  1  0  0  0  0
  9 11  1  0  0  0  0
  9 21  1  0  0  0  0
 11 12  1  0  0  0  0
 11 13  1  0  0  0  0
 11 14  1  0  0  0  0
 14 15  1  0  0  0  0
 14 16  1  0  0  0  0
 14 17  1  0  0  0  0
 17 18  2  0  0  0  0
 17 19  1  0  0  0  0
 19 20  1  0  0  0  0
 21 22  2  0  0  0  0
 21 23  1  0  0  0  0
 23 24  1  0  0  0  0
 23 25  1  0  0  0  0
 25 26  1  0  0  0  0
 25 27  1  0  0  0  0
 25 28  1  0  0  0  0
M  END
$$$$

  -OEChem-03222214033D

 28 27  0     1  0  0  0  0  0999 V2000
   -2.6321   -4.1863    0.3204 H   0  0  0  0  0  0  0  0  0  0  0  0
   -2.6383   -3.2015   -0.1556 C   0  0  0  0  0  0  0  0  0  0  0  0
   -3.4285   -2.5982    0.2972 H   0  0  0  0  0  0  0  0  0  0  0  0
   -2.8490   -3.3277   -1.2203 H   0  0  0  0  0  0  0  0  0  0  0  0
   -1.2940   -2.5240    0.0311 C   0  0  0  0  0  0  0  0  0  0  0  0
   -0.4091   -3.0874    0.6485 O   0  0  0  0  0  0  0  0  0  0  0  0
   -1.0802   -1.2664   -0.4974 N   0  0  0  0  0  0  0  0  0  0  0  0
   -1.8311   -0.8718   -1.0557 H   0  0  0  0  0  0  0  0  0  0  0  0
    0.2171   -0.5650   -0.4652 C   0  0  1  0  0  0  0  0  0  0  0  0
    0.9327   -1.2303   -0.9611 H   0  0  0  0  0  0  0  0  0  0  0  0
    0.0969    0.7445   -1.2761 C   0  0  0  0  0  0  0  0  0  0  0  0
   -0.8093    0.7381   -1.8900 H   0  0  0  0  0  0  0  0  0  0  0  0
   -0.0067    1.5798   -0.5737 H   0  0  0  0  0  0  0  0  0  0  0  0
    1.3060    0.9740   -2.2158 C   0  0  0  0  0  0  0  0  0  0  0  0
    2.1366    0.3253   -1.9216 H   0  0  0  0  0  0  0  0  0  0  0  0
    1.0374    0.7185   -3.2435 H   0  0  0  0  0  0  0  0  0  0  0  0
    1.8424    2.4045   -2.1799 C   0  0  0  0  0  0  0  0  0  0  0  0
    1.0540    3.3310   -2.0961 O   0  0  0  0  0  0  0  0  0  0  0  0
    3.1773    2.5766   -2.2798 O   0  0  0  0  0  0  0  0  0  0  0  0
    3.3150    3.5343   -2.2253 H   0  0  0  0  0  0  0  0  0  0  0  0
    0.7995   -0.2899    0.9398 C   0  0  0  0  0  0  0  0  0  0  0  0
    2.0134   -0.2607    1.0898 O   0  0  0  0  0  0  0  0  0  0  0  0
   -0.0142    0.1998    1.9451 N   0  0  0  0  0  0  0  0  0  0  0  0
   -1.0139    0.0955    1.8076 H   0  0  0  0  0  0  0  0  0  0  0  0
    0.4837    0.5316    3.2742 C   0  0  0  0  0  0  0  0  0  0  0  0
    1.2519    1.3098    3.2126 H   0  0  0  0  0  0  0  0  0  0  0  0
   -0.3314    0.9028    3.9027 H   0  0  0  0  0  0  0  0  0  0  0  0
    0.9164   -0.3534    3.7526 H   0  0  0  0  0  0  0  0  0  0  0  0
  1  2  1  0  0  0  0
  2  3  1  0  0  0  0
  2  4  1  0  0  0  0
  2  5  1  0  0  0  0
  5  6  2  0  0  0  0
  5  7  1  0  0  0  0
  7  8  1  0  0  0  0
  7  9  1  0  0  0  0
  9 10  1  0  0  0  0
  9 11  1  0  0  0  0
  9 21  1  0  0  0  0
 11 12  1  0  0  0  0
 11 13  1  0  0  0  0
 11 14  1  0  0  0  0
 14 15  1  0  0  0  0
 14 16  1  0  0  0  0
 14 17  1  0  0  0  0
 17 18  2  0  0  0  0
 17 19  1  0  0  0  0
 19 20  1  0  0  0  0
 21 22  2  0  0  0  0
 21 23  1  0  0  0  0
 23 24  1  0  0  0  0
 23 25  1  0  0  0  0
 25 26  1  0  0  0  0
 25 27  1  0  0  0  0
 25 28  1  0  0  0  0
M  END
$$$$

  -OEChem-03222214033D

 28 27  0     1  0  0  0  0  0999 V2000
   -2.6188   -4.1922    0.3183 H   0  0  0  0  0  0  0  0  0  0  0  0
   -2.6290   -3.2057   -0.1542 C   0  0  0  0  0  0  0  0  0  0  0  0
   -3.4200   -2.6059    0.3020 H   0  0  0  0  0  0  0  0  0  0  0  0
   -2.8410   -3.3293   -1.2190 H   0  0  0  0  0  0  0  0  0  0  0  0
   -1.2867   -2.5244    0.0324 C   0  0  0  0  0  0  0  0  0  0  0  0
   -0.4021   -3.0836    0.6539 O   0  0  0  0  0  0  0  0  0  0  0  0
   -1.0755   -1.2669   -0.4981 N   0  0  0  0  0  0  0  0  0  0  0  0
   -1.8249   -0.8785   -1.0625 H   0  0  0  0  0  0  0  0  0  0  0  0
    0.2219   -0.5647   -0.4699 C   0  0  1  0  0  0  0  0  0  0  0  0
    0.9361   -1.2314   -0.9651 H   0  0  0  0  0  0  0  0  0  0  0  0
    0.1005    0.7505   -1.2737 C   0  0  0  0  0  0  0  0  0  0  0  0
   -0.8015    0.7220   -1.8930 H   0  0  0  0  0  0  0  0  0  0  0  0
   -0.0301    1.5876   -0.5784 H   0  0  0  0  0  0  0  0  0  0  0  0
    1.3018    0.9957   -2.2231 C   0  0  0  0  0  0  0  0  0  0  0  0
    2.0191    0.1726   -2.1646 H   0  0  0  0  0  0  0  0  0  0  0  0
    0.9480    1.0433   -3.2560 H   0  0  0  0  0  0  0  0  0  0  0  0
    2.0615    2.2878   -1.9248 C   0  0  0  0  0  0  0  0  0  0  0  0
    1.4308    3.3068   -1.7000 O   0  0  0  0  0  0  0  0  0  0  0  0
    3.4098    2.2454   -1.9633 O   0  0  0  0  0  0  0  0  0  0  0  0
    3.6989    3.1386   -1.7235 H   0  0  0  0  0  0  0  0  0  0  0  0
    0.8066   -0.2890    0.9336 C   0  0  0  0  0  0  0  0  0  0  0  0
    2.0207   -0.2594    1.0822 O   0  0  0  0  0  0  0  0  0  0  0  0
   -0.0060    0.2005    1.9399 N   0  0  0  0  0  0  0  0  0  0  0  0
   -1.0056    0.0937    1.8042 H   0  0  0  0  0  0  0  0  0  0  0  0
    0.4938    0.5328    3.2680 C   0  0  0  0  0  0  0  0  0  0  0  0
    1.2603    1.3125    3.2053 H   0  0  0  0  0  0  0  0  0  0  0  0
   -0.3209    0.9020    3.8979 H   0  0  0  0  0  0  0  0  0  0  0  0
    0.9288   -0.3516    3.7454 H   0  0  0  0  0  0  0  0  0  0  0  0
  1  2  1  0  0  0  0
  2  3  1  0  0  0  0
  2  4  1  0  0  0  0
  2  5  1  0  0  0  0
  5  6  2  0  0  0  0
  5  7  1  0  0  0  0
  7  8  1  0  0  0  0
  7  9  1  0  0  0  0
  9 10  1  0  0  0  0
  9 11  1  0  0  0  0
  9 21  1  0  0  0  0
 11 12  1  0  0  0  0
 11 13  1  0  0  0  0
 11 14  1  0  0  0  0
 14 15  1  0  0  0  0
 14 16  1  0  0  0  0
 14 17  1  0  0  0  0
 17 18  2  0  0  0  0
 17 19  1  0  0  0  0
 19 20  1  0  0  0  0
 21 22  2  0  0  0  0
 21 23  1  0  0  0  0
 23 24  1  0  0  0  0
 23 25  1  0  0  0  0
 25 26  1  0  0  0  0
 25 27  1  0  0  0  0
 25 28  1  0  0  0  0
M  END
$$$$

  -OEChem-03222214033D

 28 27  0     1  0  0  0  0  0999 V2000
   -2.5964   -4.2032    0.3049 H   0  0  0  0  0  0  0  0  0  0  0  0
   -2.6147   -3.2139   -0.1614 C   0  0  0  0  0  0  0  0  0  0  0  0
   -3.4064   -2.6213    0.3030 H   0  0  0  0  0  0  0  0  0  0  0  0
   -2.8317   -3.3325   -1.2257 H   0  0  0  0  0  0  0  0  0  0  0  0
   -1.2750   -2.5261    0.0228 C   0  0  0  0  0  0  0  0  0  0  0  0
   -0.3858   -3.0827    0.6399 O   0  0  0  0  0  0  0  0  0  0  0  0
   -1.0710   -1.2662   -0.5048 N   0  0  0  0  0  0  0  0  0  0  0  0
   -1.8233   -0.8807   -1.0673 H   0  0  0  0  0  0  0  0  0  0  0  0
    0.2236   -0.5575   -0.4773 C   0  0  1  0  0  0  0  0  0  0  0  0
    0.9422   -1.2175   -0.9749 H   0  0  0  0  0  0  0  0  0  0  0  0
    0.0965    0.7623   -1.2725 C   0  0  0  0  0  0  0  0  0  0  0  0
   -0.7980    0.7117   -1.9013 H   0  0  0  0  0  0  0  0  0  0  0  0
   -0.0568    1.6048   -0.5887 H   0  0  0  0  0  0  0  0  0  0  0  0
    1.2954    1.0126   -2.2206 C   0  0  0  0  0  0  0  0  0  0  0  0
    1.8552    0.0926   -2.4080 H   0  0  0  0  0  0  0  0  0  0  0  0
    0.9203    1.3614   -3.1862 H   0  0  0  0  0  0  0  0  0  0  0  0
    2.2580    2.0800   -1.7032 C   0  0  0  0  0  0  0  0  0  0  0  0
    1.8076    3.1460   -1.3194 O   0  0  0  0  0  0  0  0  0  0  0  0
    3.5774    1.7987   -1.7292 O   0  0  0  0  0  0  0  0  0  0  0  0
    4.0074    2.5632   -1.3175 H   0  0  0  0  0  0  0  0  0  0  0  0
    0.8120   -0.2813    0.9251 C   0  0  0  0  0  0  0  0  0  0  0  0
    2.0265   -0.2524    1.0706 O   0  0  0  0  0  0  0  0  0  0  0  0
    0.0033    0.2027    1.9374 N   0  0  0  0  0  0  0  0  0  0  0  0
   -0.9971    0.0983    1.8067 H   0  0  0  0  0  0  0  0  0  0  0  0
    0.5112    0.5401    3.2613 C   0  0  0  0  0  0  0  0  0  0  0  0
    1.2760    1.3209    3.1912 H   0  0  0  0  0  0  0  0  0  0  0  0
   -0.2997    0.9095    3.8960 H   0  0  0  0  0  0  0  0  0  0  0  0
    0.9516   -0.3421    3.7378 H   0  0  0  0  0  0  0  0  0  0  0  0
  1  2  1  0  0  0  0
  2  3  1  0  0  0  0
  2  4  1  0  0  0  0
  2  5  1  0  0  0  0
  5  6  2  0  0  0  0
  5  7  1  0  0  0  0
  7  8  1  0  0  0  0
  7  9  1  0  0  0  0
  9 10  1  0  0  0  0
  9 11  1  0  0  0  0
  9 21  1  0  0  0  0
 11 12  1  0  0  0  0
 11 13  1  0  0  0  0
 11 14  1  0  0  0  0
 14 15  1  0  0  0  0
 14 16  1  0  0  0  0
 14 17  1  0  0  0  0
 17 18  2  0  0  0  0
 17 19  1  0  0  0  0
 19 20  1  0  0  0  0
 21 22  2  0  0  0  0
 21 23  1  0  0  0  0
 23 24  1  0  0  0  0
 23 25  1  0  0  0  0
 25 26  1  0  0  0  0
 25 27  1  0  0  0  0
 25 28  1  0  0  0  0
M  END
$$$$

  -OEChem-03222214033D

 28 27  0     1  0  0  0  0  0999 V2000
   -2.5623   -4.1999    0.3092 H   0  0  0  0  0  0  0  0  0  0  0  0
   -2.5876   -3.2095   -0.1546 C   0  0  0  0  0  0  0  0  0  0  0  0
   -3.3732   -2.6184    0.3220 H   0  0  0  0  0  0  0  0  0  0  0  0
   -2.8196   -3.3261   -1.2159 H   0  0  0  0  0  0  0  0  0  0  0  0
   -1.2455   -2.5219    0.0119 C   0  0  0  0  0  0  0  0  0  0  0  0
   -0.3460   -3.0835    0.6089 O   0  0  0  0  0  0  0  0  0  0  0  0
   -1.0504   -1.2592   -0.5128 N   0  0  0  0  0  0  0  0  0  0  0  0
   -1.8138   -0.8679   -1.0558 H   0  0  0  0  0  0  0  0  0  0  0  0
    0.2405   -0.5435   -0.4896 C   0  0  1  0  0  0  0  0  0  0  0  0
    0.9661   -1.1901   -0.9954 H   0  0  0  0  0  0  0  0  0  0  0  0
    0.0968    0.7809   -1.2744 C   0  0  0  0  0  0  0  0  0  0  0  0
   -0.8013    0.7272   -1.8976 H   0  0  0  0  0  0  0  0  0  0  0  0
   -0.0490    1.6249   -0.5902 H   0  0  0  0  0  0  0  0  0  0  0  0
    1.2871    1.0346   -2.2256 C   0  0  0  0  0  0  0  0  0  0  0  0
    1.6750    0.0966   -2.6319 H   0  0  0  0  0  0  0  0  0  0  0  0
    0.9448    1.6354   -3.0721 H   0  0  0  0  0  0  0  0  0  0  0  0
    2.4191    1.8108   -1.5580 C   0  0  0  0  0  0  0  0  0  0  0  0
    2.1654    2.8774   -1.0248 O   0  0  0  0  0  0  0  0  0  0  0  0
    3.6581    1.2795   -1.6099 O   0  0  0  0  0  0  0  0  0  0  0  0
    4.2046    1.8597   -1.0585 H   0  0  0  0  0  0  0  0  0  0  0  0
    0.8241   -0.2739    0.9170 C   0  0  0  0  0  0  0  0  0  0  0  0
    2.0373   -0.2577    1.0760 O   0  0  0  0  0  0  0  0  0  0  0  0
    0.0067    0.1992    1.9276 N   0  0  0  0  0  0  0  0  0  0  0  0
   -0.9927    0.1065    1.7826 H   0  0  0  0  0  0  0  0  0  0  0  0
    0.5003    0.5235    3.2602 C   0  0  0  0  0  0  0  0  0  0  0  0
    1.2779    1.2928    3.2049 H   0  0  0  0  0  0  0  0  0  0  0  0
   -0.3145    0.9033    3.8839 H   0  0  0  0  0  0  0  0  0  0  0  0
    0.9196   -0.3674    3.7394 H   0  0  0  0  0  0  0  0  0  0  0  0
  1  2  1  0  0  0  0
  2  3  1  0  0  0  0
  2  4  1  0  0  0  0
  2  5  1  0  0  0  0
  5  6  2  0  0  0  0
  5  7  1  0  0  0  0
  7  8  1  0  0  0  0
  7  9  1  0  0  0  0
  9 10  1  0  0  0  0
  9 11  1  0  0  0  0
  9 21  1  0  0  0  0
 11 12  1  0  0  0  0
 11 13  1  0  0  0  0
 11 14  1  0  0  0  0
 14 15  1  0  0  0  0
 14 16  1  0  0  0  0
 14 17  1  0  0  0  0
 17 18  2  0  0  0  0
 17 19  1  0  0  0  0
 19 20  1  0  0  0  0
 21 22  2  0  0  0  0
 21 23  1  0  0  0  0
 23 24  1  0  0  0  0
 23 25  1  0  0  0  0
 25 26  1  0  0  0  0
 25 27  1  0  0  0  0
 25 28  1  0  0  0  0
M  END
$$$$

  -OEChem-03222214033D

 28 27  0     1  0  0  0  0  0999 V2000
   -2.5348   -4.1906    0.2960 H   0  0  0  0  0  0  0  0  0  0  0  0
   -2.5603   -3.1986   -0.1643 C   0  0  0  0  0  0  0  0  0  0  0  0
   -3.3455   -2.6093    0.3149 H   0  0  0  0  0  0  0  0  0  0  0  0
   -2.7926   -3.3107   -1.2261 H   0  0  0  0  0  0  0  0  0  0  0  0
   -1.2184   -2.5113    0.0049 C   0  0  0  0  0  0  0  0  0  0  0  0
   -0.3192   -3.0739    0.6014 O   0  0  0  0  0  0  0  0  0  0  0  0
   -1.0252   -1.2471   -0.5172 N   0  0  0  0  0  0  0  0  0  0  0  0
   -1.7879   -0.8593   -1.0635 H   0  0  0  0  0  0  0  0  0  0  0  0
    0.2647   -0.5288   -0.4950 C   0  0  1  0  0  0  0  0  0  0  0  0
    0.9957   -1.1646   -1.0077 H   0  0  0  0  0  0  0  0  0  0  0  0
    0.1016    0.7947   -1.2809 C   0  0  0  0  0  0  0  0  0  0  0  0
   -0.8056    0.7461   -1.8910 H   0  0  0  0  0  0  0  0  0  0  0  0
   -0.0244    1.6375   -0.5912 H   0  0  0  0  0  0  0  0  0  0  0  0
    1.2790    1.0612   -2.2397 C   0  0  0  0  0  0  0  0  0  0  0  0
    1.5072    0.1661   -2.8249 H   0  0  0  0  0  0  0  0  0  0  0  0
    1.0033    1.8516   -2.9428 H   0  0  0  0  0  0  0  0  0  0  0  0
    2.5315    1.5165   -1.4999 C   0  0  0  0  0  0  0  0  0  0  0  0
    2.4960    2.5762   -0.8992 O   0  0  0  0  0  0  0  0  0  0  0  0
    3.6153    0.7146   -1.5416 O   0  0  0  0  0  0  0  0  0  0  0  0
    4.2356    1.0991   -0.9029 H   0  0  0  0  0  0  0  0  0  0  0  0
    0.8393   -0.2675    0.9186 C   0  0  0  0  0  0  0  0  0  0  0  0
    2.0493   -0.2885    1.1007 O   0  0  0  0  0  0  0  0  0  0  0  0
    0.0147    0.1980    1.9266 N   0  0  0  0  0  0  0  0  0  0  0  0
   -0.9836    0.1173    1.7682 H   0  0  0  0  0  0  0  0  0  0  0  0
    0.4964    0.4897    3.2708 C   0  0  0  0  0  0  0  0  0  0  0  0
    1.2861    1.2480    3.2386 H   0  0  0  0  0  0  0  0  0  0  0  0
   -0.3196    0.8702    3.8925 H   0  0  0  0  0  0  0  0  0  0  0  0
    0.8967   -0.4164    3.7378 H   0  0  0  0  0  0  0  0  0  0  0  0
  1  2  1  0  0  0  0
  2  3  1  0  0  0  0
  2  4  1  0  0  0  0
  2  5  1  0  0  0  0
  5  6  2  0  0  0  0
  5  7  1  0  0  0  0
  7  8  1  0  0  0  0
  7  9  1  0  0  0  0
  9 10  1  0  0  0  0
  9 11  1  0  0  0  0
  9 21  1  0  0  0  0
 11 12  1  0  0  0  0
 11 13  1  0  0  0  0
 11 14  1  0  0  0  0
 14 15  1  0  0  0  0
 14 16  1  0  0  0  0
 14 17  1  0  0  0  0
 17 18  2  0  0  0  0
 17 19  1  0  0  0  0
 19 20  1  0  0  0  0
 21 22  2  0  0  0  0
 21 23  1  0  0  0  0
 23 24  1  0  0  0  0
 23 25  1  0  0  0  0
 25 26  1  0  0  0  0
 25 27  1  0  0  0  0
 25 28  1  0  0  0  0
M  END
$$$$

  -OEChem-03222214033D

 28 27  0     1  0  0  0  0  0999 V2000
   -2.5161   -4.1808    0.2751 H   0  0  0  0  0  0  0  0  0  0  0  0
   -2.5371   -3.1880   -0.1836 C   0  0  0  0  0  0  0  0  0  0  0  0
   -3.3286   -2.6002    0.2872 H   0  0  0  0  0  0  0  0  0  0  0  0
   -2.7566   -3.2986   -1.2482 H   0  0  0  0  0  0  0  0  0  0  0  0
   -1.1979   -2.5002    0.0026 C   0  0  0  0  0  0  0  0  0  0  0  0
   -0.3080   -3.0622    0.6132 O   0  0  0  0  0  0  0  0  0  0  0  0
   -0.9993   -1.2362   -0.5183 N   0  0  0  0  0  0  0  0  0  0  0  0
   -1.7516   -0.8566   -1.0843 H   0  0  0  0  0  0  0  0  0  0  0  0
    0.2925   -0.5213   -0.4912 C   0  0  1  0  0  0  0  0  0  0  0  0
    1.0256   -1.1536   -1.0060 H   0  0  0  0  0  0  0  0  0  0  0  0
    0.1186    0.8034   -1.2778 C   0  0  0  0  0  0  0  0  0  0  0  0
   -0.8006    0.7685   -1.8708 H   0  0  0  0  0  0  0  0  0  0  0  0
    0.0153    1.6384   -0.5750 H   0  0  0  0  0  0  0  0  0  0  0  0
    1.2804    1.0977   -2.2473 C   0  0  0  0  0  0  0  0  0  0  0  0
    1.3510    0.3016   -2.9934 H   0  0  0  0  0  0  0  0  0  0  0  0
    1.0878    2.0337   -2.7788 H   0  0  0  0  0  0  0  0  0  0  0  0
    2.6203    1.2162   -1.5340 C   0  0  0  0  0  0  0  0  0  0  0  0
    2.8627    2.2514   -0.9400 O   0  0  0  0  0  0  0  0  0  0  0  0
    3.4563    0.1583   -1.5739 O   0  0  0  0  0  0  0  0  0  0  0  0
    4.1435    0.3609   -0.9190 H   0  0  0  0  0  0  0  0  0  0  0  0
    0.8519   -0.2686    0.9319 C   0  0  0  0  0  0  0  0  0  0  0  0
    2.0561   -0.3254    1.1431 O   0  0  0  0  0  0  0  0  0  0  0  0
    0.0150    0.1948    1.9309 N   0  0  0  0  0  0  0  0  0  0  0  0
   -0.9809    0.1205    1.7545 H   0  0  0  0  0  0  0  0  0  0  0  0
    0.4734    0.4378    3.2928 C   0  0  0  0  0  0  0  0  0  0  0  0
    1.2817    1.1770    3.2989 H   0  0  0  0  0  0  0  0  0  0  0  0
   -0.3473    0.8210    3.9064 H   0  0  0  0  0  0  0  0  0  0  0  0
    0.8415   -0.4903    3.7428 H   0  0  0  0  0  0  0  0  0  0  0  0
  1  2  1  0  0  0  0
  2  3  1  0  0  0  0
  2  4  1  0  0  0  0
  2  5  1  0  0  0  0
  5  6  2  0  0  0  0
  5  7  1  0  0  0  0
  7  8  1  0  0  0  0
  7  9  1  0  0  0  0
  9 10  1  0  0  0  0
  9 11  1  0  0  0  0
  9 21  1  0  0  0  0
 11 12  1  0  0  0  0
 11 13  1  0  0  0  0
 11 14  1  0  0  0  0
 14 15  1  0  0  0  0
 14 16  1  0  0  0  0
 14 17  1  0  0  0  0
 17 18  2  0  0  0  0
 17 19  1  0  0  0  0
 19 20  1  0  0  0  0
 21 22  2  0  0  0  0
 21 23  1  0  0  0  0
 23 24  1  0  0  0  0
 23 25  1  0  0  0  0
 25 26  1  0  0  0  0
 25 27  1  0  0  0  0
 25 28  1  0  0  0  0
M  END
$$$$

  -OEChem-03222214033D

 28 27  0     1  0  0  0  0  0999 V2000
   -2.5392   -4.1868    0.2188 H   0  0  0  0  0  0  0  0  0  0  0  0
   -2.5480   -3.1902   -0.2321 C   0  0  0  0  0  0  0  0  0  0  0  0
   -3.3556   -2.6081    0.2183 H   0  0  0  0  0  0  0  0  0  0  0  0
   -2.7337   -3.2923   -1.3040 H   0  0  0  0  0  0  0  0  0  0  0  0
   -1.2169   -2.5009    0.0017 C   0  0  0  0  0  0  0  0  0  0  0  0
   -0.3507   -3.0605    0.6476 O   0  0  0  0  0  0  0  0  0  0  0  0
   -1.0012   -1.2368   -0.5124 N   0  0  0  0  0  0  0  0  0  0  0  0
   -1.7285   -0.8665   -1.1158 H   0  0  0  0  0  0  0  0  0  0  0  0
    0.2959   -0.5327   -0.4627 C   0  0  1  0  0  0  0  0  0  0  0  0
    1.0209   -1.1805   -0.9665 H   0  0  0  0  0  0  0  0  0  0  0  0
    0.1457    0.7903   -1.2599 C   0  0  0  0  0  0  0  0  0  0  0  0
   -0.7737    0.7704   -1.8535 H   0  0  0  0  0  0  0  0  0  0  0  0
    0.0463    1.6185   -0.5490 H   0  0  0  0  0  0  0  0  0  0  0  0
    1.3088    1.1151   -2.2240 C   0  0  0  0  0  0  0  0  0  0  0  0
    1.2315    0.4708   -3.1037 H   0  0  0  0  0  0  0  0  0  0  0  0
    1.2201    2.1500   -2.5664 H   0  0  0  0  0  0  0  0  0  0  0  0
    2.6989    0.9118   -1.6306 C   0  0  0  0  0  0  0  0  0  0  0  0
    3.2265    1.8651   -1.0875 O   0  0  0  0  0  0  0  0  0  0  0  0
    3.2802   -0.3006   -1.7463 O   0  0  0  0  0  0  0  0  0  0  0  0
    4.0702   -0.2480   -1.1844 H   0  0  0  0  0  0  0  0  0  0  0  0
    0.8419   -0.2854    0.9656 C   0  0  0  0  0  0  0  0  0  0  0  0
    2.0441   -0.3479    1.1851 O   0  0  0  0  0  0  0  0  0  0  0  0
   -0.0018    0.1839    1.9564 N   0  0  0  0  0  0  0  0  0  0  0  0
   -0.9959    0.1000    1.7738 H   0  0  0  0  0  0  0  0  0  0  0  0
    0.4437    0.4156    3.3249 C   0  0  0  0  0  0  0  0  0  0  0  0
    1.2643    1.1408    3.3440 H   0  0  0  0  0  0  0  0  0  0  0  0
   -0.3782    0.8117    3.9289 H   0  0  0  0  0  0  0  0  0  0  0  0
    0.7902   -0.5196    3.7773 H   0  0  0  0  0  0  0  0  0  0  0  0
  1  2  1  0  0  0  0
  2  3  1  0  0  0  0
  2  4  1  0  0  0  0
  2  5  1  0  0  0  0
  5  6  2  0  0  0  0
  5  7  1  0  0  0  0
  7  8  1  0  0  0  0
  7  9  1  0  0  0  0
  9 10  1  0  0  0  0
  9 11  1  0  0  0  0
  9 21  1  0  0  0  0
 11 12  1  0  0  0  0
 11 13  1  0  0  0  0
 11 14  1  0  0  0  0
 14 15  1  0  0  0  0
 14 16  1  0  0  0  0
 14 17  1  0  0  0  0
 17 18  2  0  0  0  0
 17 19  1  0  0  0  0
 19 20  1  0  0  0  0
 21 22  2  0  0  0  0
 21 23  1  0  0  0  0
 23 24  1  0  0  0  0
 23 25  1  0  0  0  0
 25 26  1  0  0  0  0
 25 27  1  0  0  0  0
 25 28  1  0  0  0  0
M  END
$$$$

  -OEChem-03222214033D

 28 27  0     1  0  0  0  0  0999 V2000
   -2.5923   -4.1802    0.1794 H   0  0  0  0  0  0  0  0  0  0  0  0
   -2.5784   -3.1871   -0.2789 C   0  0  0  0  0  0  0  0  0  0  0  0
   -3.3996   -2.5972    0.1355 H   0  0  0  0  0  0  0  0  0  0  0  0
   -2.7227   -3.2968   -1.3564 H   0  0  0  0  0  0  0  0  0  0  0  0
   -1.2537   -2.5024    0.0010 C   0  0  0  0  0  0  0  0  0  0  0  0
   -0.4149   -3.0623    0.6819 O   0  0  0  0  0  0  0  0  0  0  0  0
   -1.0142   -1.2405   -0.5080 N   0  0  0  0  0  0  0  0  0  0  0  0
   -1.7161   -0.8725   -1.1423 H   0  0  0  0  0  0  0  0  0  0  0  0
    0.2901   -0.5519   -0.4306 C   0  0  1  0  0  0  0  0  0  0  0  0
    1.0064   -1.2213   -0.9138 H   0  0  0  0  0  0  0  0  0  0  0  0
    0.1803    0.7710   -1.2355 C   0  0  0  0  0  0  0  0  0  0  0  0
   -0.7327    0.7668   -1.8392 H   0  0  0  0  0  0  0  0  0  0  0  0
    0.0767    1.5938   -0.5194 H   0  0  0  0  0  0  0  0  0  0  0  0
    1.3549    1.1166   -2.1859 C   0  0  0  0  0  0  0  0  0  0  0  0
    1.1435    0.6775   -3.1644 H   0  0  0  0  0  0  0  0  0  0  0  0
    1.3997    2.2012   -2.3216 H   0  0  0  0  0  0  0  0  0  0  0  0
    2.7394    0.6154   -1.7794 C   0  0  0  0  0  0  0  0  0  0  0  0
    3.4943    1.4146   -1.2576 O   0  0  0  0  0  0  0  0  0  0  0  0
    3.0884   -0.6550   -2.0743 O   0  0  0  0  0  0  0  0  0  0  0  0
    3.9618   -0.7670   -1.6655 H   0  0  0  0  0  0  0  0  0  0  0  0
    0.8193   -0.3068    1.0024 C   0  0  0  0  0  0  0  0  0  0  0  0
    2.0196   -0.3688    1.2278 O   0  0  0  0  0  0  0  0  0  0  0  0
   -0.0298    0.1751    1.9820 N   0  0  0  0  0  0  0  0  0  0  0  0
   -1.0224    0.0851    1.7945 H   0  0  0  0  0  0  0  0  0  0  0  0
    0.4061    0.4026    3.3542 C   0  0  0  0  0  0  0  0  0  0  0  0
    1.2402    1.1121    3.3796 H   0  0  0  0  0  0  0  0  0  0  0  0
   -0.4140    0.8162    3.9489 H   0  0  0  0  0  0  0  0  0  0  0  0
    0.7301   -0.5376    3.8132 H   0  0  0  0  0  0  0  0  0  0  0  0
  1  2  1  0  0  0  0
  2  3  1  0  0  0  0
  2  4  1  0  0  0  0
  2  5  1  0  0  0  0
  5  6  2  0  0  0  0
  5  7  1  0  0  0  0
  7  8  1  0  0  0  0
  7  9  1  0  0  0  0
  9 10  1  0  0  0  0
  9 11  1  0  0  0  0
  9 21  1  0  0  0  0
 11 12  1  0  0  0  0
 11 13  1  0  0  0  0
 11 14  1  0  0  0  0
 14 15  1  0  0  0  0
 14 16  1  0  0  0  0
 14 17  1  0  0  0  0
 17 18  2  0  0  0  0
 17 19  1  0  0  0  0
 19 20  1  0  0  0  0
 21 22  2  0  0  0  0
 21 23  1  0  0  0  0
 23 24  1  0  0  0  0
 23 25  1  0  0  0  0
 25 26  1  0  0  0  0
 25 27  1  0  0  0  0
 25 28  1  0  0  0  0
M  END
$$$$

  -OEChem-03222214033D

 28 27  0     1  0  0  0  0  0999 V2000
   -2.6517   -4.1565    0.1713 H   0  0  0  0  0  0  0  0  0  0  0  0
   -2.6065   -3.1753   -0.3100 C   0  0  0  0  0  0  0  0  0  0  0  0
   -3.4388   -2.5675    0.0528 H   0  0  0  0  0  0  0  0  0  0  0  0
   -2.7045   -3.3100   -1.3898 H   0  0  0  0  0  0  0  0  0  0  0  0
   -1.2881   -2.4972    0.0119 C   0  0  0  0  0  0  0  0  0  0  0  0
   -0.4796   -3.0549    0.7304 O   0  0  0  0  0  0  0  0  0  0  0  0
   -1.0205   -1.2432   -0.5025 N   0  0  0  0  0  0  0  0  0  0  0  0
   -1.6892   -0.8876   -1.1782 H   0  0  0  0  0  0  0  0  0  0  0  0
    0.2944   -0.5770   -0.4071 C   0  0  1  0  0  0  0  0  0  0  0  0
    1.0058   -1.2648   -0.8679 H   0  0  0  0  0  0  0  0  0  0  0  0
    0.2217    0.7520   -1.2083 C   0  0  0  0  0  0  0  0  0  0  0  0
   -0.6859    0.7603   -1.8201 H   0  0  0  0  0  0  0  0  0  0  0  0
    0.1144    1.5725   -0.4900 H   0  0  0  0  0  0  0  0  0  0  0  0
    1.4041    1.1047   -2.1517 C   0  0  0  0  0  0  0  0  0  0  0  0
    1.0789    0.9346   -3.1813 H   0  0  0  0  0  0  0  0  0  0  0  0
    1.6208    2.1731   -2.0572 H   0  0  0  0  0  0  0  0  0  0  0  0
    2.7137    0.3347   -1.9874 C   0  0  0  0  0  0  0  0  0  0  0  0
    3.6593    0.9210   -1.4962 O   0  0  0  0  0  0  0  0  0  0  0  0
    2.7942   -0.9205   -2.4799 O   0  0  0  0  0  0  0  0  0  0  0  0
    3.6909   -1.2128   -2.2499 H   0  0  0  0  0  0  0  0  0  0  0  0
    0.8035   -0.3309    1.0321 C   0  0  0  0  0  0  0  0  0  0  0  0
    2.0013   -0.3858    1.2697 O   0  0  0  0  0  0  0  0  0  0  0  0
   -0.0541    0.1728    1.9935 N   0  0  0  0  0  0  0  0  0  0  0  0
   -1.0448    0.0786    1.7965 H   0  0  0  0  0  0  0  0  0  0  0  0
    0.3660    0.4096    3.3692 C   0  0  0  0  0  0  0  0  0  0  0  0
    1.2043    1.1138    3.3996 H   0  0  0  0  0  0  0  0  0  0  0  0
   -0.4588    0.8334    3.9498 H   0  0  0  0  0  0  0  0  0  0  0  0
    0.6782   -0.5290    3.8392 H   0  0  0  0  0  0  0  0  0  0  0  0
  1  2  1  0  0  0  0
  2  3  1  0  0  0  0
  2  4  1  0  0  0  0
  2  5  1  0  0  0  0
  5  6  2  0  0  0  0
  5  7  1  0  0  0  0
  7  8  1  0  0  0  0
  7  9  1  0  0  0  0
  9 10  1  0  0  0  0
  9 11  1  0  0  0  0
  9 21  1  0  0  0  0
 11 12  1  0  0  0  0
 11 13  1  0  0  0  0
 11 14  1  0  0  0  0
 14 15  1  0  0  0  0
 14 16  1  0  0  0  0
 14 17  1  0  0  0  0
 17 18  2  0  0  0  0
 17 19  1  0  0  0  0
 19 20  1  0  0  0  0
 21 22  2  0  0  0  0
 21 23  1  0  0  0  0
 23 24  1  0  0  0  0
 23 25  1  0  0  0  0
 25 26  1  0  0  0  0
 25 27  1  0  0  0  0
 25 28  1  0  0  0  0
M  END
$$$$

  -OEChem-03222214033D

 28 27  0     1  0  0  0  0  0999 V2000
   -2.6934   -4.1345    0.1700 H   0  0  0  0  0  0  0  0  0  0  0  0
   -2.6316   -3.1576   -0.3181 C   0  0  0  0  0  0  0  0  0  0  0  0
   -3.4636   -2.5394    0.0272 H   0  0  0  0  0  0  0  0  0  0  0  0
   -2.7134   -3.2999   -1.3984 H   0  0  0  0  0  0  0  0  0  0  0  0
   -1.3121   -2.4891    0.0192 C   0  0  0  0  0  0  0  0  0  0  0  0
   -0.5223   -3.0473    0.7579 O   0  0  0  0  0  0  0  0  0  0  0  0
   -1.0225   -1.2432   -0.5031 N   0  0  0  0  0  0  0  0  0  0  0  0
   -1.6714   -0.8932   -1.2008 H   0  0  0  0  0  0  0  0  0  0  0  0
    0.3009   -0.5951   -0.4002 C   0  0  1  0  0  0  0  0  0  0  0  0
    1.0104   -1.2960   -0.8427 H   0  0  0  0  0  0  0  0  0  0  0  0
    0.2587    0.7396   -1.1959 C   0  0  0  0  0  0  0  0  0  0  0  0
   -0.6366    0.7405   -1.8255 H   0  0  0  0  0  0  0  0  0  0  0  0
    0.1331    1.5662   -0.4875 H   0  0  0  0  0  0  0  0  0  0  0  0
    1.4501    1.0842   -2.1335 C   0  0  0  0  0  0  0  0  0  0  0  0
    1.0657    1.2235   -3.1472 H   0  0  0  0  0  0  0  0  0  0  0  0
    1.8646    2.0457   -1.8150 H   0  0  0  0  0  0  0  0  0  0  0  0
    2.6108    0.0957   -2.2324 C   0  0  0  0  0  0  0  0  0  0  0  0
    3.7026    0.4433   -1.8252 O   0  0  0  0  0  0  0  0  0  0  0  0
    2.3948   -1.0825   -2.8577 O   0  0  0  0  0  0  0  0  0  0  0  0
    3.2496   -1.5401   -2.8137 H   0  0  0  0  0  0  0  0  0  0  0  0
    0.7971   -0.3455    1.0428 C   0  0  0  0  0  0  0  0  0  0  0  0
    1.9939   -0.3899    1.2876 O   0  0  0  0  0  0  0  0  0  0  0  0
   -0.0643    0.1771    1.9909 N   0  0  0  0  0  0  0  0  0  0  0  0
   -1.0539    0.0843    1.7879 H   0  0  0  0  0  0  0  0  0  0  0  0
    0.3460    0.4202    3.3686 C   0  0  0  0  0  0  0  0  0  0  0  0
    1.1785    1.1311    3.4017 H   0  0  0  0  0  0  0  0  0  0  0  0
   -0.4855    0.8381    3.9438 H   0  0  0  0  0  0  0  0  0  0  0  0
    0.6629   -0.5147    3.8431 H   0  0  0  0  0  0  0  0  0  0  0  0
  1  2  1  0  0  0  0
  2  3  1  0  0  0  0
  2  4  1  0  0  0  0
  2  5  1  0  0  0  0
  5  6  2  0  0  0  0
  5  7  1  0  0  0  0
  7  8  1  0  0  0  0
  7  9  1  0  0  0  0
  9 10  1  0  0  0  0
  9 11  1  0  0  0  0
  9 21  1  0  0  0  0
 11 12  1  0  0  0  0
 11 13  1  0  0  0  0
 11 14  1  0  0  0  0
 14 15  1  0  0  0  0
 14 16  1  0  0  0  0
 14 17  1  0  0  0  0
 17 18  2  0  0  0  0
 17 19  1  0  0  0  0
 19 20  1  0  0  0  0
 21 22  2  0  0  0  0
 21 23  1  0  0  0  0
 23 24  1  0  0  0  0
 23 25  1  0  0  0  0
 25 26  1  0  0  0  0
 25 27  1  0  0  0  0
 25 28  1  0  0  0  0
M  END
$$$$

  -OEChem-03222214033D

 28 27  0     1  0  0  0  0  0999 V2000
   -2.7053   -4.1728    0.4010 H   0  0  0  0  0  0  0  0  0  0  0  0
   -2.6742   -3.2188   -0.1331 C   0  0  0  0  0  0  0  0  0  0  0  0
   -3.5213   -2.6080    0.1881 H   0  0  0  0  0  0  0  0  0  0  0  0
   -2.7583   -3.4146   -1.2048 H   0  0  0  0  0  0  0  0  0  0  0  0
   -1.3718   -2.4990    0.1618 C   0  0  0  0  0  0  0  0  0  0  0  0
   -0.5708   -2.9900    0.9362 O   0  0  0  0  0  0  0  0  0  0  0  0
   -1.1161   -1.2777   -0.4311 N   0  0  0  0  0  0  0  0  0  0  0  0
   -1.7661   -1.0085   -1.1632 H   0  0  0  0  0  0  0  0  0  0  0  0
    0.2161   -0.6405   -0.4401 C   0  0  1  0  0  0  0  0  0  0  0  0
    0.8901   -1.3674   -0.8983 H   0  0  0  0  0  0  0  0  0  0  0  0
    0.1396    0.6724   -1.2710 C   0  0  0  0  0  0  0  0  0  0  0  0
   -0.7845    0.6432   -1.8570 H   0  0  0  0  0  0  0  0  0  0  0  0
    0.0475    1.5306   -0.5960 H   0  0  0  0  0  0  0  0  0  0  0  0
    1.2765    0.9575   -2.2898 C   0  0  0  0  0  0  0  0  0  0  0  0
    0.8480    1.3700   -3.2071 H   0  0  0  0  0  0  0  0  0  0  0  0
    1.9197    1.7311   -1.8603 H   0  0  0  0  0  0  0  0  0  0  0  0
    2.1905   -0.2029   -2.6713 C   0  0  0  0  0  0  0  0  0  0  0  0
    1.7045   -1.1306   -3.2951 O   0  0  0  0  0  0  0  0  0  0  0  0
    3.4918   -0.1404   -2.3210 O   0  0  0  0  0  0  0  0  0  0  0  0
    3.8783   -0.9821   -2.6058 H   0  0  0  0  0  0  0  0  0  0  0  0
    0.8159   -0.3352    0.9518 C   0  0  0  0  0  0  0  0  0  0  0  0
    2.0307   -0.3409    1.0978 O   0  0  0  0  0  0  0  0  0  0  0  0
    0.0255    0.2362    1.9326 N   0  0  0  0  0  0  0  0  0  0  0  0
   -0.9744    0.1061    1.8168 H   0  0  0  0  0  0  0  0  0  0  0  0
    0.5364    0.5549    3.2600 C   0  0  0  0  0  0  0  0  0  0  0  0
    1.3656    1.2672    3.1922 H   0  0  0  0  0  0  0  0  0  0  0  0
   -0.2521    1.0036    3.8715 H   0  0  0  0  0  0  0  0  0  0  0  0
    0.8919   -0.3523    3.7601 H   0  0  0  0  0  0  0  0  0  0  0  0
  1  2  1  0  0  0  0
  2  3  1  0  0  0  0
  2  4  1  0  0  0  0
  2  5  1  0  0  0  0
  5  6  2  0  0  0  0
  5  7  1  0  0  0  0
  7  8  1  0  0  0  0
  7  9  1  0  0  0  0
  9 10  1  0  0  0  0
  9 11  1  0  0  0  0
  9 21  1  0  0  0  0
 11 12  1  0  0  0  0
 11 13  1  0  0  0  0
 11 14  1  0  0  0  0
 14 15  1  0  0  0  0
 14 16  1  0  0  0  0
 14 17  1  0  0  0  0
 17 18  2  0  0  0  0
 17 19  1  0  0  0  0
 19 20  1  0  0  0  0
 21 22  2  0  0  0  0
 21 23  1  0  0  0  0
 23 24  1  0  0  0  0
 23 25  1  0  0  0  0
 25 26  1  0  0  0  0
 25 27  1  0  0  0  0
 25 28  1  0  0  0  0
M  END
$$$$

  -OEChem-03222214033D

 28 27  0     1  0  0  0  0  0999 V2000
   -2.6675   -4.1988    0.3313 H   0  0  0  0  0  0  0  0  0  0  0  0
   -2.6507   -3.2296   -0.1751 C   0  0  0  0  0  0  0  0  0  0  0  0
   -3.5089   -2.6424    0.1600 H   0  0  0  0  0  0  0  0  0  0  0  0
   -2.7284   -3.3961   -1.2522 H   0  0  0  0  0  0  0  0  0  0  0  0
   -1.3622   -2.4956    0.1443 C   0  0  0  0  0  0  0  0  0  0  0  0
   -0.5626   -2.9854    0.9209 O   0  0  0  0  0  0  0  0  0  0  0  0
   -1.1167   -1.2655   -0.4343 N   0  0  0  0  0  0  0  0  0  0  0  0
   -1.7582   -1.0057   -1.1775 H   0  0  0  0  0  0  0  0  0  0  0  0
    0.2112   -0.6206   -0.4384 C   0  0  1  0  0  0  0  0  0  0  0  0
    0.8955   -1.3321   -0.9067 H   0  0  0  0  0  0  0  0  0  0  0  0
    0.1262    0.7043   -1.2470 C   0  0  0  0  0  0  0  0  0  0  0  0
   -0.7954    0.6786   -1.8373 H   0  0  0  0  0  0  0  0  0  0  0  0
    0.0348    1.5567   -0.5648 H   0  0  0  0  0  0  0  0  0  0  0  0
    1.2690    0.9837   -2.2563 C   0  0  0  0  0  0  0  0  0  0  0  0
    0.9064    1.6415   -3.0501 H   0  0  0  0  0  0  0  0  0  0  0  0
    2.0568    1.5228   -1.7218 H   0  0  0  0  0  0  0  0  0  0  0  0
    1.9317   -0.2323   -2.8990 C   0  0  0  0  0  0  0  0  0  0  0  0
    1.2146   -1.0548   -3.4438 O   0  0  0  0  0  0  0  0  0  0  0  0
    3.2769   -0.3292   -2.8575 O   0  0  0  0  0  0  0  0  0  0  0  0
    3.4893   -1.1714   -3.2874 H   0  0  0  0  0  0  0  0  0  0  0  0
    0.8118   -0.3290    0.9558 C   0  0  0  0  0  0  0  0  0  0  0  0
    2.0277   -0.3175    1.0944 O   0  0  0  0  0  0  0  0  0  0  0  0
    0.0198    0.2254    1.9450 N   0  0  0  0  0  0  0  0  0  0  0  0
   -0.9793    0.0862    1.8321 H   0  0  0  0  0  0  0  0  0  0  0  0
    0.5324    0.5390    3.2731 C   0  0  0  0  0  0  0  0  0  0  0  0
    1.3494    1.2655    3.2080 H   0  0  0  0  0  0  0  0  0  0  0  0
   -0.2603    0.9684    3.8931 H   0  0  0  0  0  0  0  0  0  0  0  0
    0.9051   -0.3671    3.7625 H   0  0  0  0  0  0  0  0  0  0  0  0
  1  2  1  0  0  0  0
  2  3  1  0  0  0  0
  2  4  1  0  0  0  0
  2  5  1  0  0  0  0
  5  6  2  0  0  0  0
  5  7  1  0  0  0  0
  7  8  1  0  0  0  0
  7  9  1  0  0  0  0
  9 10  1  0  0  0  0
  9 11  1  0  0  0  0
  9 21  1  0  0  0  0
 11 12  1  0  0  0  0
 11 13  1  0  0  0  0
 11 14  1  0  0  0  0
 14 15  1  0  0  0  0
 14 16  1  0  0  0  0
 14 17  1  0  0  0  0
 17 18  2  0  0  0  0
 17 19  1  0  0  0  0
 19 20  1  0  0  0  0
 21 22  2  0  0  0  0
 21 23  1  0  0  0  0
 23 24  1  0  0  0  0
 23 25  1  0  0  0  0
 25 26  1  0  0  0  0
 25 27  1  0  0  0  0
 25 28  1  0  0  0  0
M  END
$$$$

  -OEChem-03222214033D

 28 27  0     1  0  0  0  0  0999 V2000
   -2.6301   -4.2086    0.2792 H   0  0  0  0  0  0  0  0  0  0  0  0
   -2.6246   -3.2329   -0.2151 C   0  0  0  0  0  0  0  0  0  0  0  0
   -3.4890   -2.6596    0.1283 H   0  0  0  0  0  0  0  0  0  0  0  0
   -2.7014   -3.3866   -1.2943 H   0  0  0  0  0  0  0  0  0  0  0  0
   -1.3441   -2.4887    0.1127 C   0  0  0  0  0  0  0  0  0  0  0  0
   -0.5387   -2.9794    0.8831 O   0  0  0  0  0  0  0  0  0  0  0  0
   -1.1131   -1.2475   -0.4475 N   0  0  0  0  0  0  0  0  0  0  0  0
   -1.7511   -0.9905   -1.1952 H   0  0  0  0  0  0  0  0  0  0  0  0
    0.2078   -0.5899   -0.4431 C   0  0  1  0  0  0  0  0  0  0  0  0
    0.9033   -1.2807   -0.9283 H   0  0  0  0  0  0  0  0  0  0  0  0
    0.1103    0.7428   -1.2324 C   0  0  0  0  0  0  0  0  0  0  0  0
   -0.8121    0.7359   -1.8222 H   0  0  0  0  0  0  0  0  0  0  0  0
    0.0347    1.5877   -0.5391 H   0  0  0  0  0  0  0  0  0  0  0  0
    1.2702    0.9994   -2.2223 C   0  0  0  0  0  0  0  0  0  0  0  0
    1.0193    1.8398   -2.8741 H   0  0  0  0  0  0  0  0  0  0  0  0
    2.1533    1.2847   -1.6422 H   0  0  0  0  0  0  0  0  0  0  0  0
    1.6665   -0.1903   -3.0958 C   0  0  0  0  0  0  0  0  0  0  0  0
    0.7852   -0.9088   -3.5384 O   0  0  0  0  0  0  0  0  0  0  0  0
    2.9771   -0.3770   -3.3563 O   0  0  0  0  0  0  0  0  0  0  0  0
    3.0205   -1.1770   -3.9014 H   0  0  0  0  0  0  0  0  0  0  0  0
    0.8084   -0.3138    0.9542 C   0  0  0  0  0  0  0  0  0  0  0  0
    2.0249   -0.2860    1.0877 O   0  0  0  0  0  0  0  0  0  0  0  0
    0.0129    0.2175    1.9531 N   0  0  0  0  0  0  0  0  0  0  0  0
   -0.9844    0.0640    1.8423 H   0  0  0  0  0  0  0  0  0  0  0  0
    0.5265    0.5167    3.2840 C   0  0  0  0  0  0  0  0  0  0  0  0
    1.3389    1.2490    3.2276 H   0  0  0  0  0  0  0  0  0  0  0  0
   -0.2674    0.9329    3.9111 H   0  0  0  0  0  0  0  0  0  0  0  0
    0.9059   -0.3937    3.7600 H   0  0  0  0  0  0  0  0  0  0  0  0
  1  2  1  0  0  0  0
  2  3  1  0  0  0  0
  2  4  1  0  0  0  0
  2  5  1  0  0  0  0
  5  6  2  0  0  0  0
  5  7  1  0  0  0  0
  7  8  1  0  0  0  0
  7  9  1  0  0  0  0
  9 10  1  0  0  0  0
  9 11  1  0  0  0  0
  9 21  1  0  0  0  0
 11 12  1  0  0  0  0
 11 13  1  0  0  0  0
 11 14  1  0  0  0  0
 14 15  1  0  0  0  0
 14 16  1  0  0  0  0
 14 17  1  0  0  0  0
 17 18  2  0  0  0  0
 17 19  1  0  0  0  0
 19 20  1  0  0  0  0
 21 22  2  0  0  0  0
 21 23  1  0  0  0  0
 23 24  1  0  0  0  0
 23 25  1  0  0  0  0
 25 26  1  0  0  0  0
 25 27  1  0  0  0  0
 25 28  1  0  0  0  0
M  END
$$$$

  -OEChem-03222214033D

 28 27  0     1  0  0  0  0  0999 V2000
   -2.5954   -4.2176    0.2071 H   0  0  0  0  0  0  0  0  0  0  0  0
   -2.6042   -3.2295   -0.2621 C   0  0  0  0  0  0  0  0  0  0  0  0
   -3.4786   -2.6787    0.0926 H   0  0  0  0  0  0  0  0  0  0  0  0
   -2.6755   -3.3569   -1.3450 H   0  0  0  0  0  0  0  0  0  0  0  0
   -1.3362   -2.4744    0.0888 C   0  0  0  0  0  0  0  0  0  0  0  0
   -0.5310   -2.9679    0.8578 O   0  0  0  0  0  0  0  0  0  0  0  0
   -1.1121   -1.2251   -0.4557 N   0  0  0  0  0  0  0  0  0  0  0  0
   -1.7421   -0.9705   -1.2115 H   0  0  0  0  0  0  0  0  0  0  0  0
    0.2052   -0.5615   -0.4415 C   0  0  1  0  0  0  0  0  0  0  0  0
    0.9056   -1.2364   -0.9445 H   0  0  0  0  0  0  0  0  0  0  0  0
    0.0994    0.7728   -1.2206 C   0  0  0  0  0  0  0  0  0  0  0  0
   -0.8269    0.7931   -1.8045 H   0  0  0  0  0  0  0  0  0  0  0  0
    0.0487    1.6124   -0.5185 H   0  0  0  0  0  0  0  0  0  0  0  0
    1.2811    0.9925   -2.1890 C   0  0  0  0  0  0  0  0  0  0  0  0
    1.1691    1.9590   -2.6868 H   0  0  0  0  0  0  0  0  0  0  0  0
    2.2102    1.0234   -1.6113 H   0  0  0  0  0  0  0  0  0  0  0  0
    1.4261   -0.0837   -3.2670 C   0  0  0  0  0  0  0  0  0  0  0  0
    0.4449   -0.7260   -3.6057 O   0  0  0  0  0  0  0  0  0  0  0  0
    2.6485   -0.2598   -3.8103 O   0  0  0  0  0  0  0  0  0  0  0  0
    2.5440   -0.9796   -4.4509 H   0  0  0  0  0  0  0  0  0  0  0  0
    0.8052   -0.2991    0.9588 C   0  0  0  0  0  0  0  0  0  0  0  0
    2.0218   -0.2700    1.0931 O   0  0  0  0  0  0  0  0  0  0  0  0
    0.0067    0.2167    1.9632 N   0  0  0  0  0  0  0  0  0  0  0  0
   -0.9907    0.0692    1.8452 H   0  0  0  0  0  0  0  0  0  0  0  0
    0.5148    0.5053    3.2984 C   0  0  0  0  0  0  0  0  0  0  0  0
    1.3255    1.2402    3.2517 H   0  0  0  0  0  0  0  0  0  0  0  0
   -0.2829    0.9140    3.9260 H   0  0  0  0  0  0  0  0  0  0  0  0
    0.8948   -0.4081    3.7684 H   0  0  0  0  0  0  0  0  0  0  0  0
  1  2  1  0  0  0  0
  2  3  1  0  0  0  0
  2  4  1  0  0  0  0
  2  5  1  0  0  0  0
  5  6  2  0  0  0  0
  5  7  1  0  0  0  0
  7  8  1  0  0  0  0
  7  9  1  0  0  0  0
  9 10  1  0  0  0  0
  9 11  1  0  0  0  0
  9 21  1  0  0  0  0
 11 12  1  0  0  0  0
 11 13  1  0  0  0  0
 11 14  1  0  0  0  0
 14 15  1  0  0  0  0
 14 16  1  0  0  0  0
 14 17  1  0  0  0  0
 17 18  2  0  0  0  0
 17 19  1  0  0  0  0
 19 20  1  0  0  0  0
 21 22  2  0  0  0  0
 21 23  1  0  0  0  0
 23 24  1  0  0  0  0
 23 25  1  0  0  0  0
 25 26  1  0  0  0  0
 25 27  1  0  0  0  0
 25 28  1  0  0  0  0
M  END
$$$$

  -OEChem-03222214033D

 28 27  0     1  0  0  0  0  0999 V2000
   -2.6297   -4.1950    0.2046 H   0  0  0  0  0  0  0  0  0  0  0  0
   -2.6161   -3.2178   -0.2866 C   0  0  0  0  0  0  0  0  0  0  0  0
   -3.4958   -2.6523    0.0297 H   0  0  0  0  0  0  0  0  0  0  0  0
   -2.6570   -3.3688   -1.3681 H   0  0  0  0  0  0  0  0  0  0  0  0
   -1.3525   -2.4646    0.0840 C   0  0  0  0  0  0  0  0  0  0  0  0
   -0.5583   -2.9589    0.8640 O   0  0  0  0  0  0  0  0  0  0  0  0
   -1.1211   -1.2143   -0.4545 N   0  0  0  0  0  0  0  0  0  0  0  0
   -1.7415   -0.9585   -1.2178 H   0  0  0  0  0  0  0  0  0  0  0  0
    0.1975   -0.5544   -0.4299 C   0  0  1  0  0  0  0  0  0  0  0  0
    0.8971   -1.2281   -0.9377 H   0  0  0  0  0  0  0  0  0  0  0  0
    0.0992    0.7731   -1.2166 C   0  0  0  0  0  0  0  0  0  0  0  0
   -0.8281    0.8162   -1.7981 H   0  0  0  0  0  0  0  0  0  0  0  0
    0.0669    1.6127   -0.5136 H   0  0  0  0  0  0  0  0  0  0  0  0
    1.3023    0.9584   -2.1649 C   0  0  0  0  0  0  0  0  0  0  0  0
    1.3378    2.0007   -2.4914 H   0  0  0  0  0  0  0  0  0  0  0  0
    2.2326    0.7525   -1.6264 H   0  0  0  0  0  0  0  0  0  0  0  0
    1.2554    0.0863   -3.4224 C   0  0  0  0  0  0  0  0  0  0  0  0
    0.2794   -0.6125   -3.6449 O   0  0  0  0  0  0  0  0  0  0  0  0
    2.3215    0.1474   -4.2472 O   0  0  0  0  0  0  0  0  0  0  0  0
    2.1224   -0.4683   -4.9688 H   0  0  0  0  0  0  0  0  0  0  0  0
    0.7948   -0.2958    0.9720 C   0  0  0  0  0  0  0  0  0  0  0  0
    2.0114   -0.2678    1.1069 O   0  0  0  0  0  0  0  0  0  0  0  0
   -0.0034    0.2202    1.9764 N   0  0  0  0  0  0  0  0  0  0  0  0
   -1.0005    0.0675    1.8614 H   0  0  0  0  0  0  0  0  0  0  0  0
    0.5081    0.5072    3.3105 C   0  0  0  0  0  0  0  0  0  0  0  0
    1.3106    1.2509    3.2620 H   0  0  0  0  0  0  0  0  0  0  0  0
   -0.2897    0.9038    3.9454 H   0  0  0  0  0  0  0  0  0  0  0  0
    0.9005   -0.4048    3.7729 H   0  0  0  0  0  0  0  0  0  0  0  0
  1  2  1  0  0  0  0
  2  3  1  0  0  0  0
  2  4  1  0  0  0  0
  2  5  1  0  0  0  0
  5  6  2  0  0  0  0
  5  7  1  0  0  0  0
  7  8  1  0  0  0  0
  7  9  1  0  0  0  0
  9 10  1  0  0  0  0
  9 11  1  0  0  0  0
  9 21  1  0  0  0  0
 11 12  1  0  0  0  0
 11 13  1  0  0  0  0
 11 14  1  0  0  0  0
 14 15  1  0  0  0  0
 14 16  1  0  0  0  0
 14 17  1  0  0  0  0
 17 18  2  0  0  0  0
 17 19  1  0  0  0  0
 19 20  1  0  0  0  0
 21 22  2  0  0  0  0
 21 23  1  0  0  0  0
 23 24  1  0  0  0  0
 23 25  1  0  0  0  0
 25 26  1  0  0  0  0
 25 27  1  0  0  0  0
 25 28  1  0  0  0  0
M  END
$$$$

  -OEChem-03222214033D

 28 27  0     1  0  0  0  0  0999 V2000
   -2.6311   -4.1978    0.1788 H   0  0  0  0  0  0  0  0  0  0  0  0
   -2.6346   -3.2020   -0.2738 C   0  0  0  0  0  0  0  0  0  0  0  0
   -3.5044   -2.6515    0.0923 H   0  0  0  0  0  0  0  0  0  0  0  0
   -2.7094   -3.3108   -1.3586 H   0  0  0  0  0  0  0  0  0  0  0  0
   -1.3615   -2.4602    0.0865 C   0  0  0  0  0  0  0  0  0  0  0  0
   -0.5670   -2.9610    0.8619 O   0  0  0  0  0  0  0  0  0  0  0  0
   -1.1212   -1.2131   -0.4555 N   0  0  0  0  0  0  0  0  0  0  0  0
   -1.7417   -0.9514   -1.2170 H   0  0  0  0  0  0  0  0  0  0  0  0
    0.2000   -0.5587   -0.4248 C   0  0  1  0  0  0  0  0  0  0  0  0
    0.8967   -1.2404   -0.9260 H   0  0  0  0  0  0  0  0  0  0  0  0
    0.1143    0.7603   -1.2249 C   0  0  0  0  0  0  0  0  0  0  0  0
   -0.8139    0.8170   -1.8034 H   0  0  0  0  0  0  0  0  0  0  0  0
    0.0927    1.6029   -0.5246 H   0  0  0  0  0  0  0  0  0  0  0  0
    1.3308    0.9254   -2.1622 C   0  0  0  0  0  0  0  0  0  0  0  0
    1.5182    1.9937   -2.2979 H   0  0  0  0  0  0  0  0  0  0  0  0
    2.2300    0.4967   -1.7096 H   0  0  0  0  0  0  0  0  0  0  0  0
    1.1293    0.3261   -3.5557 C   0  0  0  0  0  0  0  0  0  0  0  0
    0.2060   -0.4462   -3.7581 O   0  0  0  0  0  0  0  0  0  0  0  0
    2.0076    0.6916   -4.5127 O   0  0  0  0  0  0  0  0  0  0  0  0
    1.7358    0.2067   -5.3068 H   0  0  0  0  0  0  0  0  0  0  0  0
    0.7889   -0.2965    0.9802 C   0  0  0  0  0  0  0  0  0  0  0  0
    2.0046   -0.2786    1.1247 O   0  0  0  0  0  0  0  0  0  0  0  0
   -0.0134    0.2273    1.9775 N   0  0  0  0  0  0  0  0  0  0  0  0
   -1.0112    0.0868    1.8530 H   0  0  0  0  0  0  0  0  0  0  0  0
    0.4877    0.5096    3.3168 C   0  0  0  0  0  0  0  0  0  0  0  0
    1.3037    1.2390    3.2762 H   0  0  0  0  0  0  0  0  0  0  0  0
   -0.3109    0.9223    3.9406 H   0  0  0  0  0  0  0  0  0  0  0  0
    0.8585   -0.4076    3.7867 H   0  0  0  0  0  0  0  0  0  0  0  0
  1  2  1  0  0  0  0
  2  3  1  0  0  0  0
  2  4  1  0  0  0  0
  2  5  1  0  0  0  0
  5  6  2  0  0  0  0
  5  7  1  0  0  0  0
  7  8  1  0  0  0  0
  7  9  1  0  0  0  0
  9 10  1  0  0  0  0
  9 11  1  0  0  0  0
  9 21  1  0  0  0  0
 11 12  1  0  0  0  0
 11 13  1  0  0  0  0
 11 14  1  0  0  0  0
 14 15  1  0  0  0  0
 14 16  1  0  0  0  0
 14 17  1  0  0  0  0
 17 18  2  0  0  0  0
 17 19  1  0  0  0  0
 19 20  1  0  0  0  0
 21 22  2  0  0  0  0
 21 23  1  0  0  0  0
 23 24  1  0  0  0  0
 23 25  1  0  0  0  0
 25 26  1  0  0  0  0
 25 27  1  0  0  0  0
 25 28  1  0  0  0  0
M  END
$$$$

  -OEChem-03222214033D

 28 27  0     1  0  0  0  0  0999 V2000
   -2.6921   -4.1665    0.2387 H   0  0  0  0  0  0  0  0  0  0  0  0
   -2.6639   -3.1908   -0.2550 C   0  0  0  0  0  0  0  0  0  0  0  0
   -3.5225   -2.6028    0.0780 H   0  0  0  0  0  0  0  0  0  0  0  0
   -2.7302   -3.3424   -1.3352 H   0  0  0  0  0  0  0  0  0  0  0  0
   -1.3747   -2.4688    0.0889 C   0  0  0  0  0  0  0  0  0  0  0  0
   -0.5777   -2.9805    0.8544 O   0  0  0  0  0  0  0  0  0  0  0  0
   -1.1208   -1.2261   -0.4570 N   0  0  0  0  0  0  0  0  0  0  0  0
   -1.7522   -0.9443   -1.2021 H   0  0  0  0  0  0  0  0  0  0  0  0
    0.2037   -0.5782   -0.4214 C   0  0  1  0  0  0  0  0  0  0  0  0
    0.8962   -1.2709   -0.9129 H   0  0  0  0  0  0  0  0  0  0  0  0
    0.1317    0.7346   -1.2331 C   0  0  0  0  0  0  0  0  0  0  0  0
   -0.7956    0.7868   -1.8130 H   0  0  0  0  0  0  0  0  0  0  0  0
    0.1035    1.5820   -0.5393 H   0  0  0  0  0  0  0  0  0  0  0  0
    1.3540    0.8987   -2.1673 C   0  0  0  0  0  0  0  0  0  0  0  0
    1.7028    1.9325   -2.0938 H   0  0  0  0  0  0  0  0  0  0  0  0
    2.1867    0.2636   -1.8523 H   0  0  0  0  0  0  0  0  0  0  0  0
    1.0442    0.6304   -3.6399 C   0  0  0  0  0  0  0  0  0  0  0  0
    0.1847   -0.1850   -3.9313 O   0  0  0  0  0  0  0  0  0  0  0  0
    1.7531    1.3173   -4.5609 O   0  0  0  0  0  0  0  0  0  0  0  0
    1.4314    1.0000   -5.4186 H   0  0  0  0  0  0  0  0  0  0  0  0
    0.7887   -0.3098    0.9838 C   0  0  0  0  0  0  0  0  0  0  0  0
    2.0039   -0.2933    1.1317 O   0  0  0  0  0  0  0  0  0  0  0  0
   -0.0147    0.2245    1.9745 N   0  0  0  0  0  0  0  0  0  0  0  0
   -1.0128    0.0882    1.8488 H   0  0  0  0  0  0  0  0  0  0  0  0
    0.4854    0.5258    3.3102 C   0  0  0  0  0  0  0  0  0  0  0  0
    1.2941    1.2628    3.2604 H   0  0  0  0  0  0  0  0  0  0  0  0
   -0.3164    0.9370    3.9308 H   0  0  0  0  0  0  0  0  0  0  0  0
    0.8661   -0.3824    3.7897 H   0  0  0  0  0  0  0  0  0  0  0  0
  1  2  1  0  0  0  0
  2  3  1  0  0  0  0
  2  4  1  0  0  0  0
  2  5  1  0  0  0  0
  5  6  2  0  0  0  0
  5  7  1  0  0  0  0
  7  8  1  0  0  0  0
  7  9  1  0  0  0  0
  9 10  1  0  0  0  0
  9 11  1  0  0  0  0
  9 21  1  0  0  0  0
 11 12  1  0  0  0  0
 11 13  1  0  0  0  0
 11 14  1  0  0  0  0
 14 15  1  0  0  0  0
 14 16  1  0  0  0  0
 14 17  1  0  0  0  0
 17 18  2  0  0  0  0
 17 19  1  0  0  0  0
 19 20  1  0  0  0  0
 21 22  2  0  0  0  0
 21 23  1  0  0  0  0
 23 24  1  0  0  0  0
 23 25  1  0  0  0  0
 25 26  1  0  0  0  0
 25 27  1  0  0  0  0
 25 28  1  0  0  0  0
M  END
$$$$

  -OEChem-03222214033D

 28 27  0     1  0  0  0  0  0999 V2000
   -2.7220   -4.1518    0.2777 H   0  0  0  0  0  0  0  0  0  0  0  0
   -2.6857   -3.1810   -0.2248 C   0  0  0  0  0  0  0  0  0  0  0  0
   -3.5305   -2.5772    0.1148 H   0  0  0  0  0  0  0  0  0  0  0  0
   -2.7694   -3.3406   -1.3026 H   0  0  0  0  0  0  0  0  0  0  0  0
   -1.3810   -2.4767    0.0953 C   0  0  0  0  0  0  0  0  0  0  0  0
   -0.5784   -2.9969    0.8489 O   0  0  0  0  0  0  0  0  0  0  0  0
   -1.1174   -1.2400   -0.4595 N   0  0  0  0  0  0  0  0  0  0  0  0
   -1.7612   -0.9414   -1.1870 H   0  0  0  0  0  0  0  0  0  0  0  0
    0.2099   -0.5972   -0.4250 C   0  0  1  0  0  0  0  0  0  0  0  0
    0.8992   -1.3004   -0.9045 H   0  0  0  0  0  0  0  0  0  0  0  0
    0.1485    0.7117   -1.2455 C   0  0  0  0  0  0  0  0  0  0  0  0
   -0.7760    0.7407   -1.8313 H   0  0  0  0  0  0  0  0  0  0  0  0
    0.1023    1.5696   -0.5655 H   0  0  0  0  0  0  0  0  0  0  0  0
    1.3701    0.8800   -2.1834 C   0  0  0  0  0  0  0  0  0  0  0  0
    1.8948    1.7992   -1.9071 H   0  0  0  0  0  0  0  0  0  0  0  0
    2.0876    0.0642   -2.0638 H   0  0  0  0  0  0  0  0  0  0  0  0
    0.9944    0.9735   -3.6609 C   0  0  0  0  0  0  0  0  0  0  0  0
    0.1587    0.2063   -4.1087 O   0  0  0  0  0  0  0  0  0  0  0  0
    1.6133    1.9111   -4.4089 O   0  0  0  0  0  0  0  0  0  0  0  0
    1.2552    1.7999   -5.3027 H   0  0  0  0  0  0  0  0  0  0  0  0
    0.7910   -0.3195    0.9796 C   0  0  0  0  0  0  0  0  0  0  0  0
    2.0054   -0.3127    1.1333 O   0  0  0  0  0  0  0  0  0  0  0  0
   -0.0132    0.2265    1.9633 N   0  0  0  0  0  0  0  0  0  0  0  0
   -1.0124    0.1044    1.8322 H   0  0  0  0  0  0  0  0  0  0  0  0
    0.4836    0.5405    3.2973 C   0  0  0  0  0  0  0  0  0  0  0  0
    1.2886    1.2811    3.2429 H   0  0  0  0  0  0  0  0  0  0  0  0
   -0.3212    0.9526    3.9137 H   0  0  0  0  0  0  0  0  0  0  0  0
    0.8683   -0.3619    3.7845 H   0  0  0  0  0  0  0  0  0  0  0  0
  1  2  1  0  0  0  0
  2  3  1  0  0  0  0
  2  4  1  0  0  0  0
  2  5  1  0  0  0  0
  5  6  2  0  0  0  0
  5  7  1  0  0  0  0
  7  8  1  0  0  0  0
  7  9  1  0  0  0  0
  9 10  1  0  0  0  0
  9 11  1  0  0  0  0
  9 21  1  0  0  0  0
 11 12  1  0  0  0  0
 11 13  1  0  0  0  0
 11 14  1  0  0  0  0
 14 15  1  0  0  0  0
 14 16  1  0  0  0  0
 14 17  1  0  0  0  0
 17 18  2  0  0  0  0
 17 19  1  0  0  0  0
 19 20  1  0  0  0  0
 21 22  2  0  0  0  0
 21 23  1  0  0  0  0
 23 24  1  0  0  0  0
 23 25  1  0  0  0  0
 25 26  1  0  0  0  0
 25 27  1  0  0  0  0
 25 28  1  0  0  0  0
M  END
$$$$

  -OEChem-03222214033D

 28 27  0     1  0  0  0  0  0999 V2000
   -2.6328   -4.2131    0.2918 H   0  0  0  0  0  0  0  0  0  0  0  0
   -2.6471   -3.2216   -0.1698 C   0  0  0  0  0  0  0  0  0  0  0  0
   -3.4666   -2.6437    0.2637 H   0  0  0  0  0  0  0  0  0  0  0  0
   -2.8181   -3.3370   -1.2429 H   0  0  0  0  0  0  0  0  0  0  0  0
   -1.3270   -2.5149    0.0738 C   0  0  0  0  0  0  0  0  0  0  0  0
   -0.4676   -3.0490    0.7508 O   0  0  0  0  0  0  0  0  0  0  0  0
   -1.1089   -1.2616   -0.4636 N   0  0  0  0  0  0  0  0  0  0  0  0
   -1.8178   -0.9190   -1.1062 H   0  0  0  0  0  0  0  0  0  0  0  0
    0.1955   -0.5714   -0.4402 C   0  0  1  0  0  0  0  0  0  0  0  0
    0.9044   -1.2440   -0.9340 H   0  0  0  0  0  0  0  0  0  0  0  0
    0.0847    0.7507   -1.2363 C   0  0  0  0  0  0  0  0  0  0  0  0
   -0.8458    0.7235   -1.8098 H   0  0  0  0  0  0  0  0  0  0  0  0
   -0.0019    1.6034   -0.5538 H   0  0  0  0  0  0  0  0  0  0  0  0
    1.2886    0.9809   -2.1914 C   0  0  0  0  0  0  0  0  0  0  0  0
    1.9606    1.7124   -1.7339 H   0  0  0  0  0  0  0  0  0  0  0  0
    1.8632    0.0596   -2.3116 H   0  0  0  0  0  0  0  0  0  0  0  0
    0.9489    1.4578   -3.6073 C   0  0  0  0  0  0  0  0  0  0  0  0
   -0.2075    1.5001   -3.9914 O   0  0  0  0  0  0  0  0  0  0  0  0
    1.9927    1.8125   -4.3857 O   0  0  0  0  0  0  0  0  0  0  0  0
    1.6003    2.0806   -5.2305 H   0  0  0  0  0  0  0  0  0  0  0  0
    0.7803   -0.2981    0.9634 C   0  0  0  0  0  0  0  0  0  0  0  0
    1.9949   -0.2609    1.1098 O   0  0  0  0  0  0  0  0  0  0  0  0
   -0.0328    0.2013    1.9643 N   0  0  0  0  0  0  0  0  0  0  0  0
   -1.0302    0.0663    1.8334 H   0  0  0  0  0  0  0  0  0  0  0  0
    0.4631    0.5049    3.3008 C   0  0  0  0  0  0  0  0  0  0  0  0
    1.2582    1.2565    3.2535 H   0  0  0  0  0  0  0  0  0  0  0  0
   -0.3452    0.8987    3.9243 H   0  0  0  0  0  0  0  0  0  0  0  0
    0.8604   -0.3989    3.7749 H   0  0  0  0  0  0  0  0  0  0  0  0
  1  2  1  0  0  0  0
  2  3  1  0  0  0  0
  2  4  1  0  0  0  0
  2  5  1  0  0  0  0
  5  6  2  0  0  0  0
  5  7  1  0  0  0  0
  7  8  1  0  0  0  0
  7  9  1  0  0  0  0
  9 10  1  0  0  0  0
  9 11  1  0  0  0  0
  9 21  1  0  0  0  0
 11 12  1  0  0  0  0
 11 13  1  0  0  0  0
 11 14  1  0  0  0  0
 14 15  1  0  0  0  0
 14 16  1  0  0  0  0
 14 17  1  0  0  0  0
 17 18  2  0  0  0  0
 17 19  1  0  0  0  0
 19 20  1  0  0  0  0
 21 22  2  0  0  0  0
 21 23  1  0  0  0  0
 23 24  1  0  0  0  0
 23 25  1  0  0  0  0
 25 26  1  0  0  0  0
 25 27  1  0  0  0  0
 25 28  1  0  0  0  0
M  END
$$$$

  -OEChem-03222214033D

 28 27  0     1  0  0  0  0  0999 V2000
   -2.6131   -4.2027    0.2842 H   0  0  0  0  0  0  0  0  0  0  0  0
   -2.6165   -3.2214   -0.1989 C   0  0  0  0  0  0  0  0  0  0  0  0
   -3.4286   -2.6247    0.2231 H   0  0  0  0  0  0  0  0  0  0  0  0
   -2.7904   -3.3584   -1.2688 H   0  0  0  0  0  0  0  0  0  0  0  0
   -1.2875   -2.5254    0.0264 C   0  0  0  0  0  0  0  0  0  0  0  0
   -0.4128   -3.0775    0.6684 O   0  0  0  0  0  0  0  0  0  0  0  0
   -1.0768   -1.2624   -0.4908 N   0  0  0  0  0  0  0  0  0  0  0  0
   -1.8130   -0.8827   -1.0790 H   0  0  0  0  0  0  0  0  0  0  0  0
    0.2167   -0.5534   -0.4398 C   0  0  1  0  0  0  0  0  0  0  0  0
    0.9453   -1.2076   -0.9310 H   0  0  0  0  0  0  0  0  0  0  0  0
    0.1041    0.7743   -1.2226 C   0  0  0  0  0  0  0  0  0  0  0  0
   -0.7963    0.7261   -1.8437 H   0  0  0  0  0  0  0  0  0  0  0  0
   -0.0246    1.6237   -0.5423 H   0  0  0  0  0  0  0  0  0  0  0  0
    1.3201    1.0226   -2.1478 C   0  0  0  0  0  0  0  0  0  0  0  0
    2.1108    1.5252   -1.5838 H   0  0  0  0  0  0  0  0  0  0  0  0
    1.7249    0.0687   -2.4957 H   0  0  0  0  0  0  0  0  0  0  0  0
    1.0036    1.8371   -3.4036 C   0  0  0  0  0  0  0  0  0  0  0  0
   -0.0209    2.4961   -3.4594 O   0  0  0  0  0  0  0  0  0  0  0  0
    1.9008    1.7854   -4.4106 O   0  0  0  0  0  0  0  0  0  0  0  0
    1.5424    2.3658   -5.0994 H   0  0  0  0  0  0  0  0  0  0  0  0
    0.7773   -0.2890    0.9755 C   0  0  0  0  0  0  0  0  0  0  0  0
    1.9890   -0.2398    1.1406 O   0  0  0  0  0  0  0  0  0  0  0  0
   -0.0553    0.1859    1.9725 N   0  0  0  0  0  0  0  0  0  0  0  0
   -1.0507    0.0572    1.8231 H   0  0  0  0  0  0  0  0  0  0  0  0
    0.4192    0.4979    3.3149 C   0  0  0  0  0  0  0  0  0  0  0  0
    1.1794    1.2855    3.2798 H   0  0  0  0  0  0  0  0  0  0  0  0
   -0.4096    0.8474    3.9378 H   0  0  0  0  0  0  0  0  0  0  0  0
    0.8548   -0.3913    3.7828 H   0  0  0  0  0  0  0  0  0  0  0  0
  1  2  1  0  0  0  0
  2  3  1  0  0  0  0
  2  4  1  0  0  0  0
  2  5  1  0  0  0  0
  5  6  2  0  0  0  0
  5  7  1  0  0  0  0
  7  8  1  0  0  0  0
  7  9  1  0  0  0  0
  9 10  1  0  0  0  0
  9 11  1  0  0  0  0
  9 21  1  0  0  0  0
 11 12  1  0  0  0  0
 11 13  1  0  0  0  0
 11 14  1  0  0  0  0
 14 15  1  0  0  0  0
 14 16  1  0  0  0  0
 14 17  1  0  0  0  0
 17 18  2  0  0  0  0
 17 19  1  0  0  0  0
 19 20  1  0  0  0  0
 21 22  2  0  0  0  0
 21 23  1  0  0  0  0
 23 24  1  0  0  0  0
 23 25  1  0  0  0  0
 25 26  1  0  0  0  0
 25 27  1  0  0  0  0
 25 28  1  0  0  0  0
M  END
$$$$

  -OEChem-03222214033D

 28 27  0     1  0  0  0  0  0999 V2000
   -2.6038   -4.2161    0.2626 H   0  0  0  0  0  0  0  0  0  0  0  0
   -2.6232   -3.2186   -0.1859 C   0  0  0  0  0  0  0  0  0  0  0  0
   -3.4262   -2.6405    0.2776 H   0  0  0  0  0  0  0  0  0  0  0  0
   -2.8246   -3.3187   -1.2552 H   0  0  0  0  0  0  0  0  0  0  0  0
   -1.2914   -2.5247    0.0293 C   0  0  0  0  0  0  0  0  0  0  0  0
   -0.4129   -3.0780    0.6648 O   0  0  0  0  0  0  0  0  0  0  0  0
   -1.0825   -1.2624   -0.4904 N   0  0  0  0  0  0  0  0  0  0  0  0
   -1.8211   -0.8825   -1.0753 H   0  0  0  0  0  0  0  0  0  0  0  0
    0.2100   -0.5519   -0.4431 C   0  0  1  0  0  0  0  0  0  0  0  0
    0.9402   -1.2029   -0.9370 H   0  0  0  0  0  0  0  0  0  0  0  0
    0.0926    0.7691   -1.2330 C   0  0  0  0  0  0  0  0  0  0  0  0
   -0.8049    0.7285   -1.8595 H   0  0  0  0  0  0  0  0  0  0  0  0
   -0.0267    1.6211   -0.5540 H   0  0  0  0  0  0  0  0  0  0  0  0
    1.3130    0.9950   -2.1516 C   0  0  0  0  0  0  0  0  0  0  0  0
    2.1819    1.2597   -1.5417 H   0  0  0  0  0  0  0  0  0  0  0  0
    1.5514    0.0703   -2.6838 H   0  0  0  0  0  0  0  0  0  0  0  0
    1.1063    2.0768   -3.2126 C   0  0  0  0  0  0  0  0  0  0  0  0
    0.0616    2.7048   -3.2501 O   0  0  0  0  0  0  0  0  0  0  0  0
    2.1186    2.2800   -4.0814 O   0  0  0  0  0  0  0  0  0  0  0  0
    1.8142    2.9940   -4.6619 H   0  0  0  0  0  0  0  0  0  0  0  0
    0.7758   -0.2825    0.9693 C   0  0  0  0  0  0  0  0  0  0  0  0
    1.9883   -0.2370    1.1299 O   0  0  0  0  0  0  0  0  0  0  0  0
   -0.0523    0.1945    1.9690 N   0  0  0  0  0  0  0  0  0  0  0  0
   -1.0485    0.0683    1.8232 H   0  0  0  0  0  0  0  0  0  0  0  0
    0.4287    0.5054    3.3095 C   0  0  0  0  0  0  0  0  0  0  0  0
    1.2110    1.2709    3.2693 H   0  0  0  0  0  0  0  0  0  0  0  0
   -0.3906    0.8845    3.9277 H   0  0  0  0  0  0  0  0  0  0  0  0
    0.8382   -0.3919    3.7856 H   0  0  0  0  0  0  0  0  0  0  0  0
  1  2  1  0  0  0  0
  2  3  1  0  0  0  0
  2  4  1  0  0  0  0
  2  5  1  0  0  0  0
  5  6  2  0  0  0  0
  5  7  1  0  0  0  0
  7  8  1  0  0  0  0
  7  9  1  0  0  0  0
  9 10  1  0  0  0  0
  9 11  1  0  0  0  0
  9 21  1  0  0  0  0
 11 12  1  0  0  0  0
 11 13  1  0  0  0  0
 11 14  1  0  0  0  0
 14 15  1  0  0  0  0
 14 16  1  0  0  0  0
 14 17  1  0  0  0  0
 17 18  2  0  0  0  0
 17 19  1  0  0  0  0
 19 20  1  0  0  0  0
 21 22  2  0  0  0  0
 21 23  1  0  0  0  0
 23 24  1  0  0  0  0
 23 25  1  0  0  0  0
 25 26  1  0  0  0  0
 25 27  1  0  0  0  0
 25 28  1  0  0  0  0
M  END
$$$$

  -OEChem-03222214033D

 28 27  0     1  0  0  0  0  0999 V2000
   -2.6117   -4.1988    0.2833 H   0  0  0  0  0  0  0  0  0  0  0  0
   -2.6281   -3.2024   -0.1678 C   0  0  0  0  0  0  0  0  0  0  0  0
   -3.4233   -2.6174    0.3005 H   0  0  0  0  0  0  0  0  0  0  0  0
   -2.8385   -3.3046   -1.2352 H   0  0  0  0  0  0  0  0  0  0  0  0
   -1.2903   -2.5162    0.0347 C   0  0  0  0  0  0  0  0  0  0  0  0
   -0.4078   -3.0756    0.6592 O   0  0  0  0  0  0  0  0  0  0  0  0
   -1.0796   -1.2556   -0.4881 N   0  0  0  0  0  0  0  0  0  0  0  0
   -1.8241   -0.8692   -1.0609 H   0  0  0  0  0  0  0  0  0  0  0  0
    0.2159   -0.5500   -0.4492 C   0  0  1  0  0  0  0  0  0  0  0  0
    0.9502   -1.1979   -0.9420 H   0  0  0  0  0  0  0  0  0  0  0  0
    0.0951    0.7726   -1.2380 C   0  0  0  0  0  0  0  0  0  0  0  0
   -0.9221    0.8934   -1.6253 H   0  0  0  0  0  0  0  0  0  0  0  0
    0.2883    1.6257   -0.5767 H   0  0  0  0  0  0  0  0  0  0  0  0
    1.0909    0.8120   -2.4139 C   0  0  0  0  0  0  0  0  0  0  0  0
    2.1090    0.7128   -2.0248 H   0  0  0  0  0  0  0  0  0  0  0  0
    0.9047   -0.0306   -3.0849 H   0  0  0  0  0  0  0  0  0  0  0  0
    1.0235    2.0974   -3.2387 C   0  0  0  0  0  0  0  0  0  0  0  0
    0.0945    2.8715   -3.0826 O   0  0  0  0  0  0  0  0  0  0  0  0
    2.0118    2.3025   -4.1344 O   0  0  0  0  0  0  0  0  0  0  0  0
    1.8054    3.1537   -4.5498 H   0  0  0  0  0  0  0  0  0  0  0  0
    0.7786   -0.2874    0.9663 C   0  0  0  0  0  0  0  0  0  0  0  0
    1.9905   -0.2532    1.1325 O   0  0  0  0  0  0  0  0  0  0  0  0
   -0.0505    0.1900    1.9650 N   0  0  0  0  0  0  0  0  0  0  0  0
   -1.0471    0.0752    1.8131 H   0  0  0  0  0  0  0  0  0  0  0  0
    0.4259    0.4868    3.3102 C   0  0  0  0  0  0  0  0  0  0  0  0
    1.2133    1.2473    3.2801 H   0  0  0  0  0  0  0  0  0  0  0  0
   -0.3942    0.8659    3.9274 H   0  0  0  0  0  0  0  0  0  0  0  0
    0.8274   -0.4167    3.7812 H   0  0  0  0  0  0  0  0  0  0  0  0
  1  2  1  0  0  0  0
  2  3  1  0  0  0  0
  2  4  1  0  0  0  0
  2  5  1  0  0  0  0
  5  6  2  0  0  0  0
  5  7  1  0  0  0  0
  7  8  1  0  0  0  0
  7  9  1  0  0  0  0
  9 10  1  0  0  0  0
  9 11  1  0  0  0  0
  9 21  1  0  0  0  0
 11 12  1  0  0  0  0
 11 13  1  0  0  0  0
 11 14  1  0  0  0  0
 14 15  1  0  0  0  0
 14 16  1  0  0  0  0
 14 17  1  0  0  0  0
 17 18  2  0  0  0  0
 17 19  1  0  0  0  0
 19 20  1  0  0  0  0
 21 22  2  0  0  0  0
 21 23  1  0  0  0  0
 23 24  1  0  0  0  0
 23 25  1  0  0  0  0
 25 26  1  0  0  0  0
 25 27  1  0  0  0  0
 25 28  1  0  0  0  0
M  END
$$$$

  -OEChem-03222214033D

 28 27  0     1  0  0  0  0  0999 V2000
   -2.6163   -4.1994    0.2782 H   0  0  0  0  0  0  0  0  0  0  0  0
   -2.6336   -3.2010   -0.1685 C   0  0  0  0  0  0  0  0  0  0  0  0
   -3.4326   -2.6205    0.2989 H   0  0  0  0  0  0  0  0  0  0  0  0
   -2.8387   -3.2988   -1.2373 H   0  0  0  0  0  0  0  0  0  0  0  0
   -1.2986   -2.5124    0.0430 C   0  0  0  0  0  0  0  0  0  0  0  0
   -0.4214   -3.0684    0.6779 O   0  0  0  0  0  0  0  0  0  0  0  0
   -1.0837   -1.2547   -0.4855 N   0  0  0  0  0  0  0  0  0  0  0  0
   -1.8205   -0.8772   -1.0739 H   0  0  0  0  0  0  0  0  0  0  0  0
    0.2148   -0.5544   -0.4527 C   0  0  1  0  0  0  0  0  0  0  0  0
    0.9437   -1.2085   -0.9452 H   0  0  0  0  0  0  0  0  0  0  0  0
    0.0920    0.7635   -1.2503 C   0  0  0  0  0  0  0  0  0  0  0  0
   -0.9258    0.9024   -1.6298 H   0  0  0  0  0  0  0  0  0  0  0  0
    0.3010    1.6099   -0.5849 H   0  0  0  0  0  0  0  0  0  0  0  0
    1.0818    0.8001   -2.4320 C   0  0  0  0  0  0  0  0  0  0  0  0
    2.0659    0.4691   -2.0856 H   0  0  0  0  0  0  0  0  0  0  0  0
    0.7543    0.1152   -3.2180 H   0  0  0  0  0  0  0  0  0  0  0  0
    1.2633    2.1942   -3.0303 C   0  0  0  0  0  0  0  0  0  0  0  0
    0.3880    3.0298   -2.8822 O   0  0  0  0  0  0  0  0  0  0  0  0
    2.3946    2.4256   -3.7286 O   0  0  0  0  0  0  0  0  0  0  0  0
    2.3284    3.3477   -4.0200 H   0  0  0  0  0  0  0  0  0  0  0  0
    0.7847   -0.2869    0.9595 C   0  0  0  0  0  0  0  0  0  0  0  0
    1.9974   -0.2631    1.1218 O   0  0  0  0  0  0  0  0  0  0  0  0
   -0.0374    0.1990    1.9599 N   0  0  0  0  0  0  0  0  0  0  0  0
   -1.0354    0.0934    1.8115 H   0  0  0  0  0  0  0  0  0  0  0  0
    0.4464    0.4981    3.3019 C   0  0  0  0  0  0  0  0  0  0  0  0
    1.2329    1.2595    3.2660 H   0  0  0  0  0  0  0  0  0  0  0  0
   -0.3701    0.8772    3.9238 H   0  0  0  0  0  0  0  0  0  0  0  0
    0.8509   -0.4048    3.7714 H   0  0  0  0  0  0  0  0  0  0  0  0
  1  2  1  0  0  0  0
  2  3  1  0  0  0  0
  2  4  1  0  0  0  0
  2  5  1  0  0  0  0
  5  6  2  0  0  0  0
  5  7  1  0  0  0  0
  7  8  1  0  0  0  0
  7  9  1  0  0  0  0
  9 10  1  0  0  0  0
  9 11  1  0  0  0  0
  9 21  1  0  0  0  0
 11 12  1  0  0  0  0
 11 13  1  0  0  0  0
 11 14  1  0  0  0  0
 14 15  1  0  0  0  0
 14 16  1  0  0  0  0
 14 17  1  0  0  0  0
 17 18  2  0  0  0  0
 17 19  1  0  0  0  0
 19 20  1  0  0  0  0
 21 22  2  0  0  0  0
 21 23  1  0  0  0  0
 23 24  1  0  0  0  0
 23 25  1  0  0  0  0
 25 26  1  0  0  0  0
 25 27  1  0  0  0  0
 25 28  1  0  0  0  0
M  END
$$$$

  -OEChem-03222214033D

 28 27  0     1  0  0  0  0  0999 V2000
   -2.6347   -4.1877    0.2966 H   0  0  0  0  0  0  0  0  0  0  0  0
   -2.6424   -3.1943   -0.1612 C   0  0  0  0  0  0  0  0  0  0  0  0
   -3.4382   -2.6021    0.2970 H   0  0  0  0  0  0  0  0  0  0  0  0
   -2.8451   -3.3023   -1.2296 H   0  0  0  0  0  0  0  0  0  0  0  0
   -1.3027   -2.5138    0.0472 C   0  0  0  0  0  0  0  0  0  0  0  0
   -0.4298   -3.0722    0.6857 O   0  0  0  0  0  0  0  0  0  0  0  0
   -1.0806   -1.2599   -0.4871 N   0  0  0  0  0  0  0  0  0  0  0  0
   -1.8162   -0.8812   -1.0760 H   0  0  0  0  0  0  0  0  0  0  0  0
    0.2217   -0.5667   -0.4597 C   0  0  1  0  0  0  0  0  0  0  0  0
    0.9444   -1.2292   -0.9493 H   0  0  0  0  0  0  0  0  0  0  0  0
    0.0974    0.7483   -1.2651 C   0  0  0  0  0  0  0  0  0  0  0  0
   -0.9226    0.8968   -1.6340 H   0  0  0  0  0  0  0  0  0  0  0  0
    0.3112    1.5880   -0.5927 H   0  0  0  0  0  0  0  0  0  0  0  0
    1.0759    0.8001   -2.4598 C   0  0  0  0  0  0  0  0  0  0  0  0
    1.9874    0.2483   -2.2113 H   0  0  0  0  0  0  0  0  0  0  0  0
    0.6285    0.3273   -3.3374 H   0  0  0  0  0  0  0  0  0  0  0  0
    1.5150    2.2198   -2.8147 C   0  0  0  0  0  0  0  0  0  0  0  0
    0.7190    3.1345   -2.6880 O   0  0  0  0  0  0  0  0  0  0  0  0
    2.7685    2.3901   -3.2850 O   0  0  0  0  0  0  0  0  0  0  0  0
    2.8535    3.3429   -3.4416 H   0  0  0  0  0  0  0  0  0  0  0  0
    0.7950   -0.2961    0.9507 C   0  0  0  0  0  0  0  0  0  0  0  0
    2.0080   -0.2776    1.1104 O   0  0  0  0  0  0  0  0  0  0  0  0
   -0.0223    0.1986    1.9509 N   0  0  0  0  0  0  0  0  0  0  0  0
   -1.0213    0.0958    1.8069 H   0  0  0  0  0  0  0  0  0  0  0  0
    0.4673    0.5080    3.2887 C   0  0  0  0  0  0  0  0  0  0  0  0
    1.2536    1.2690    3.2429 H   0  0  0  0  0  0  0  0  0  0  0  0
   -0.3465    0.8924    3.9110 H   0  0  0  0  0  0  0  0  0  0  0  0
    0.8749   -0.3905    3.7642 H   0  0  0  0  0  0  0  0  0  0  0  0
  1  2  1  0  0  0  0
  2  3  1  0  0  0  0
  2  4  1  0  0  0  0
  2  5  1  0  0  0  0
  5  6  2  0  0  0  0
  5  7  1  0  0  0  0
  7  8  1  0  0  0  0
  7  9  1  0  0  0  0
  9 10  1  0  0  0  0
  9 11  1  0  0  0  0
  9 21  1  0  0  0  0
 11 12  1  0  0  0  0
 11 13  1  0  0  0  0
 11 14  1  0  0  0  0
 14 15  1  0  0  0  0
 14 16  1  0  0  0  0
 14 17  1  0  0  0  0
 17 18  2  0  0  0  0
 17 19  1  0  0  0  0
 19 20  1  0  0  0  0
 21 22  2  0  0  0  0
 21 23  1  0  0  0  0
 23 24  1  0  0  0  0
 23 25  1  0  0  0  0
 25 26  1  0  0  0  0
 25 27  1  0  0  0  0
 25 28  1  0  0  0  0
M  END
$$$$

  -OEChem-03222214033D

 28 27  0     1  0  0  0  0  0999 V2000
   -2.6380   -4.1793    0.3212 H   0  0  0  0  0  0  0  0  0  0  0  0
   -2.6424   -3.1921   -0.1496 C   0  0  0  0  0  0  0  0  0  0  0  0
   -3.4323   -2.5895    0.3051 H   0  0  0  0  0  0  0  0  0  0  0  0
   -2.8518   -3.3130   -1.2151 H   0  0  0  0  0  0  0  0  0  0  0  0
   -1.2974   -2.5174    0.0428 C   0  0  0  0  0  0  0  0  0  0  0  0
   -0.4180   -3.0807    0.6679 O   0  0  0  0  0  0  0  0  0  0  0  0
   -1.0765   -1.2635   -0.4924 N   0  0  0  0  0  0  0  0  0  0  0  0
   -1.8190   -0.8780   -1.0679 H   0  0  0  0  0  0  0  0  0  0  0  0
    0.2267   -0.5713   -0.4700 C   0  0  1  0  0  0  0  0  0  0  0  0
    0.9455   -1.2379   -0.9580 H   0  0  0  0  0  0  0  0  0  0  0  0
    0.1007    0.7478   -1.2719 C   0  0  0  0  0  0  0  0  0  0  0  0
   -0.9221    0.8915   -1.6343 H   0  0  0  0  0  0  0  0  0  0  0  0
    0.3045    1.5845   -0.5930 H   0  0  0  0  0  0  0  0  0  0  0  0
    1.0686    0.8201   -2.4788 C   0  0  0  0  0  0  0  0  0  0  0  0
    1.8530    0.0644   -2.3833 H   0  0  0  0  0  0  0  0  0  0  0  0
    0.5276    0.6150   -3.4056 H   0  0  0  0  0  0  0  0  0  0  0  0
    1.7784    2.1673   -2.6001 C   0  0  0  0  0  0  0  0  0  0  0  0
    1.1301    3.1884   -2.4488 O   0  0  0  0  0  0  0  0  0  0  0  0
    3.0940    2.1628   -2.9013 O   0  0  0  0  0  0  0  0  0  0  0  0
    3.3548    3.0961   -2.9170 H   0  0  0  0  0  0  0  0  0  0  0  0
    0.8045   -0.3019    0.9388 C   0  0  0  0  0  0  0  0  0  0  0  0
    2.0176   -0.2866    1.0972 O   0  0  0  0  0  0  0  0  0  0  0  0
   -0.0108    0.1932    1.9403 N   0  0  0  0  0  0  0  0  0  0  0  0
   -1.0102    0.0942    1.7965 H   0  0  0  0  0  0  0  0  0  0  0  0
    0.4810    0.5050    3.2766 C   0  0  0  0  0  0  0  0  0  0  0  0
    1.2680    1.2653    3.2285 H   0  0  0  0  0  0  0  0  0  0  0  0
   -0.3318    0.8911    3.8990 H   0  0  0  0  0  0  0  0  0  0  0  0
    0.8877   -0.3934    3.7530 H   0  0  0  0  0  0  0  0  0  0  0  0
  1  2  1  0  0  0  0
  2  3  1  0  0  0  0
  2  4  1  0  0  0  0
  2  5  1  0  0  0  0
  5  6  2  0  0  0  0
  5  7  1  0  0  0  0
  7  8  1  0  0  0  0
  7  9  1  0  0  0  0
  9 10  1  0  0  0  0
  9 11  1  0  0  0  0
  9 21  1  0  0  0  0
 11 12  1  0  0  0  0
 11 13  1  0  0  0  0
 11 14  1  0  0  0  0
 14 15  1  0  0  0  0
 14 16  1  0  0  0  0
 14 17  1  0  0  0  0
 17 18  2  0  0  0  0
 17 19  1  0  0  0  0
 19 20  1  0  0  0  0
 21 22  2  0  0  0  0
 21 23  1  0  0  0  0
 23 24  1  0  0  0  0
 23 25  1  0  0  0  0
 25 26  1  0  0  0  0
 25 27  1  0  0  0  0
 25 28  1  0  0  0  0
M  END
$$$$

  -OEChem-03222214033D

 28 27  0     1  0  0  0  0  0999 V2000
   -2.6326   -4.1754    0.3369 H   0  0  0  0  0  0  0  0  0  0  0  0
   -2.6354   -3.1946   -0.1474 C   0  0  0  0  0  0  0  0  0  0  0  0
   -3.4234   -2.5844    0.3002 H   0  0  0  0  0  0  0  0  0  0  0  0
   -2.8464   -3.3297   -1.2108 H   0  0  0  0  0  0  0  0  0  0  0  0
   -1.2885   -2.5201    0.0337 C   0  0  0  0  0  0  0  0  0  0  0  0
   -0.4051   -3.0838    0.6526 O   0  0  0  0  0  0  0  0  0  0  0  0
   -1.0721   -1.2646   -0.4997 N   0  0  0  0  0  0  0  0  0  0  0  0
   -1.8166   -0.8811   -1.0738 H   0  0  0  0  0  0  0  0  0  0  0  0
    0.2308   -0.5705   -0.4831 C   0  0  1  0  0  0  0  0  0  0  0  0
    0.9510   -1.2324   -0.9751 H   0  0  0  0  0  0  0  0  0  0  0  0
    0.1009    0.7569   -1.2718 C   0  0  0  0  0  0  0  0  0  0  0  0
   -0.9236    0.8795   -1.6369 H   0  0  0  0  0  0  0  0  0  0  0  0
    0.2808    1.5983   -0.5919 H   0  0  0  0  0  0  0  0  0  0  0  0
    1.0575    0.8469   -2.4880 C   0  0  0  0  0  0  0  0  0  0  0  0
    1.6498   -0.0651   -2.5969 H   0  0  0  0  0  0  0  0  0  0  0  0
    0.4723    0.9602   -3.4041 H   0  0  0  0  0  0  0  0  0  0  0  0
    2.0245    2.0249   -2.3974 C   0  0  0  0  0  0  0  0  0  0  0  0
    1.5704    3.1403   -2.2099 O   0  0  0  0  0  0  0  0  0  0  0  0
    3.3415    1.7766   -2.5554 O   0  0  0  0  0  0  0  0  0  0  0  0
    3.7784    2.6330   -2.4325 H   0  0  0  0  0  0  0  0  0  0  0  0
    0.8137   -0.3053    0.9246 C   0  0  0  0  0  0  0  0  0  0  0  0
    2.0273   -0.2867    1.0786 O   0  0  0  0  0  0  0  0  0  0  0  0
    0.0020    0.1853    1.9313 N   0  0  0  0  0  0  0  0  0  0  0  0
   -0.9978    0.0823    1.7940 H   0  0  0  0  0  0  0  0  0  0  0  0
    0.5012    0.5018    3.2637 C   0  0  0  0  0  0  0  0  0  0  0  0
    1.2819    1.2679    3.2087 H   0  0  0  0  0  0  0  0  0  0  0  0
   -0.3094    0.8824    3.8921 H   0  0  0  0  0  0  0  0  0  0  0  0
    0.9190   -0.3926    3.7378 H   0  0  0  0  0  0  0  0  0  0  0  0
  1  2  1  0  0  0  0
  2  3  1  0  0  0  0
  2  4  1  0  0  0  0
  2  5  1  0  0  0  0
  5  6  2  0  0  0  0
  5  7  1  0  0  0  0
  7  8  1  0  0  0  0
  7  9  1  0  0  0  0
  9 10  1  0  0  0  0
  9 11  1  0  0  0  0
  9 21  1  0  0  0  0
 11 12  1  0  0  0  0
 11 13  1  0  0  0  0
 11 14  1  0  0  0  0
 14 15  1  0  0  0  0
 14 16  1  0  0  0  0
 14 17  1  0  0  0  0
 17 18  2  0  0  0  0
 17 19  1  0  0  0  0
 19 20  1  0  0  0  0
 21 22  2  0  0  0  0
 21 23  1  0  0  0  0
 23 24  1  0  0  0  0
 23 25  1  0  0  0  0
 25 26  1  0  0  0  0
 25 27  1  0  0  0  0
 25 28  1  0  0  0  0
M  END
$$$$

  -OEChem-03222214033D

 28 27  0     1  0  0  0  0  0999 V2000
   -2.6039   -4.1837    0.3165 H   0  0  0  0  0  0  0  0  0  0  0  0
   -2.6133   -3.2009   -0.1637 C   0  0  0  0  0  0  0  0  0  0  0  0
   -3.4066   -2.5985    0.2851 H   0  0  0  0  0  0  0  0  0  0  0  0
   -2.8217   -3.3331   -1.2281 H   0  0  0  0  0  0  0  0  0  0  0  0
   -1.2721   -2.5168    0.0222 C   0  0  0  0  0  0  0  0  0  0  0  0
   -0.3845   -3.0769    0.6381 O   0  0  0  0  0  0  0  0  0  0  0  0
   -1.0672   -1.2569   -0.5051 N   0  0  0  0  0  0  0  0  0  0  0  0
   -1.8166   -0.8779   -1.0755 H   0  0  0  0  0  0  0  0  0  0  0  0
    0.2320   -0.5556   -0.4945 C   0  0  1  0  0  0  0  0  0  0  0  0
    0.9548   -1.2066   -0.9979 H   0  0  0  0  0  0  0  0  0  0  0  0
    0.0932    0.7794   -1.2674 C   0  0  0  0  0  0  0  0  0  0  0  0
   -0.9320    0.8817   -1.6360 H   0  0  0  0  0  0  0  0  0  0  0  0
    0.2579    1.6275   -0.5919 H   0  0  0  0  0  0  0  0  0  0  0  0
    1.0429    0.8715   -2.4847 C   0  0  0  0  0  0  0  0  0  0  0  0
    1.4082   -0.1130   -2.7884 H   0  0  0  0  0  0  0  0  0  0  0  0
    0.4942    1.2842   -3.3352 H   0  0  0  0  0  0  0  0  0  0  0  0
    2.2305    1.7933   -2.2267 C   0  0  0  0  0  0  0  0  0  0  0  0
    2.0148    2.9672   -1.9801 O   0  0  0  0  0  0  0  0  0  0  0  0
    3.4689    1.2631   -2.2983 O   0  0  0  0  0  0  0  0  0  0  0  0
    4.0686    1.9832   -2.0509 H   0  0  0  0  0  0  0  0  0  0  0  0
    0.8236   -0.2963    0.9106 C   0  0  0  0  0  0  0  0  0  0  0  0
    2.0379   -0.2719    1.0575 O   0  0  0  0  0  0  0  0  0  0  0  0
    0.0152    0.1833    1.9253 N   0  0  0  0  0  0  0  0  0  0  0  0
   -0.9844    0.0738    1.7933 H   0  0  0  0  0  0  0  0  0  0  0  0
    0.5202    0.4946    3.2567 C   0  0  0  0  0  0  0  0  0  0  0  0
    1.2973    1.2645    3.2023 H   0  0  0  0  0  0  0  0  0  0  0  0
   -0.2891    0.8680    3.8912 H   0  0  0  0  0  0  0  0  0  0  0  0
    0.9440   -0.4007    3.7237 H   0  0  0  0  0  0  0  0  0  0  0  0
  1  2  1  0  0  0  0
  2  3  1  0  0  0  0
  2  4  1  0  0  0  0
  2  5  1  0  0  0  0
  5  6  2  0  0  0  0
  5  7  1  0  0  0  0
  7  8  1  0  0  0  0
  7  9  1  0  0  0  0
  9 10  1  0  0  0  0
  9 11  1  0  0  0  0
  9 21  1  0  0  0  0
 11 12  1  0  0  0  0
 11 13  1  0  0  0  0
 11 14  1  0  0  0  0
 14 15  1  0  0  0  0
 14 16  1  0  0  0  0
 14 17  1  0  0  0  0
 17 18  2  0  0  0  0
 17 19  1  0  0  0  0
 19 20  1  0  0  0  0
 21 22  2  0  0  0  0
 21 23  1  0  0  0  0
 23 24  1  0  0  0  0
 23 25  1  0  0  0  0
 25 26  1  0  0  0  0
 25 27  1  0  0  0  0
 25 28  1  0  0  0  0
M  END
$$$$

  -OEChem-03222214033D

 28 27  0     1  0  0  0  0  0999 V2000
   -2.5568   -4.1976    0.2805 H   0  0  0  0  0  0  0  0  0  0  0  0
   -2.5832   -3.2073   -0.1835 C   0  0  0  0  0  0  0  0  0  0  0  0
   -3.3821   -2.6239    0.2803 H   0  0  0  0  0  0  0  0  0  0  0  0
   -2.7965   -3.3246   -1.2487 H   0  0  0  0  0  0  0  0  0  0  0  0
   -1.2504   -2.5075    0.0061 C   0  0  0  0  0  0  0  0  0  0  0  0
   -0.3570   -3.0597    0.6207 O   0  0  0  0  0  0  0  0  0  0  0  0
   -1.0601   -1.2420   -0.5138 N   0  0  0  0  0  0  0  0  0  0  0  0
   -1.8091   -0.8743   -1.0920 H   0  0  0  0  0  0  0  0  0  0  0  0
    0.2338   -0.5303   -0.5057 C   0  0  1  0  0  0  0  0  0  0  0  0
    0.9608   -1.1689   -1.0204 H   0  0  0  0  0  0  0  0  0  0  0  0
    0.0840    0.8077   -1.2697 C   0  0  0  0  0  0  0  0  0  0  0  0
   -0.9417    0.9031   -1.6391 H   0  0  0  0  0  0  0  0  0  0  0  0
    0.2504    1.6595   -0.5993 H   0  0  0  0  0  0  0  0  0  0  0  0
    1.0331    0.8933   -2.4823 C   0  0  0  0  0  0  0  0  0  0  0  0
    1.1832   -0.0874   -2.9417 H   0  0  0  0  0  0  0  0  0  0  0  0
    0.5874    1.5413   -3.2419 H   0  0  0  0  0  0  0  0  0  0  0  0
    2.3784    1.5011   -2.1025 C   0  0  0  0  0  0  0  0  0  0  0  0
    2.4174    2.6775   -1.7883 O   0  0  0  0  0  0  0  0  0  0  0  0
    3.4627    0.6995   -2.1319 O   0  0  0  0  0  0  0  0  0  0  0  0
    4.1855    1.2369   -1.7735 H   0  0  0  0  0  0  0  0  0  0  0  0
    0.8313   -0.2768    0.8984 C   0  0  0  0  0  0  0  0  0  0  0  0
    2.0463   -0.2475    1.0407 O   0  0  0  0  0  0  0  0  0  0  0  0
    0.0248    0.1885    1.9214 N   0  0  0  0  0  0  0  0  0  0  0  0
   -0.9741    0.0648    1.7954 H   0  0  0  0  0  0  0  0  0  0  0  0
    0.5345    0.4748    3.2568 C   0  0  0  0  0  0  0  0  0  0  0  0
    1.3319    1.2243    3.2111 H   0  0  0  0  0  0  0  0  0  0  0  0
   -0.2660    0.8647    3.8926 H   0  0  0  0  0  0  0  0  0  0  0  0
    0.9332   -0.4357    3.7167 H   0  0  0  0  0  0  0  0  0  0  0  0
  1  2  1  0  0  0  0
  2  3  1  0  0  0  0
  2  4  1  0  0  0  0
  2  5  1  0  0  0  0
  5  6  2  0  0  0  0
  5  7  1  0  0  0  0
  7  8  1  0  0  0  0
  7  9  1  0  0  0  0
  9 10  1  0  0  0  0
  9 11  1  0  0  0  0
  9 21  1  0  0  0  0
 11 12  1  0  0  0  0
 11 13  1  0  0  0  0
 11 14  1  0  0  0  0
 14 15  1  0  0  0  0
 14 16  1  0  0  0  0
 14 17  1  0  0  0  0
 17 18  2  0  0  0  0
 17 19  1  0  0  0  0
 19 20  1  0  0  0  0
 21 22  2  0  0  0  0
 21 23  1  0  0  0  0
 23 24  1  0  0  0  0
 23 25  1  0  0  0  0
 25 26  1  0  0  0  0
 25 27  1  0  0  0  0
 25 28  1  0  0  0  0
M  END
$$$$

  -OEChem-03222214033D

 28 27  0     1  0  0  0  0  0999 V2000
   -2.5359   -4.1994    0.2432 H   0  0  0  0  0  0  0  0  0  0  0  0
   -2.5619   -3.2084   -0.2192 C   0  0  0  0  0  0  0  0  0  0  0  0
   -3.3670   -2.6286    0.2383 H   0  0  0  0  0  0  0  0  0  0  0  0
   -2.7652   -3.3251   -1.2865 H   0  0  0  0  0  0  0  0  0  0  0  0
   -1.2337   -2.5036   -0.0170 C   0  0  0  0  0  0  0  0  0  0  0  0
   -0.3409   -3.0569    0.5977 O   0  0  0  0  0  0  0  0  0  0  0  0
   -1.0479   -1.2326   -0.5251 N   0  0  0  0  0  0  0  0  0  0  0  0
   -1.7968   -0.8644   -1.1031 H   0  0  0  0  0  0  0  0  0  0  0  0
    0.2444   -0.5182   -0.5118 C   0  0  1  0  0  0  0  0  0  0  0  0
    0.9704   -1.1491   -1.0383 H   0  0  0  0  0  0  0  0  0  0  0  0
    0.0858    0.8254   -1.2653 C   0  0  0  0  0  0  0  0  0  0  0  0
   -0.9420    0.9314   -1.6255 H   0  0  0  0  0  0  0  0  0  0  0  0
    0.2701    1.6699   -0.5901 H   0  0  0  0  0  0  0  0  0  0  0  0
    1.0314    0.9213   -2.4762 C   0  0  0  0  0  0  0  0  0  0  0  0
    0.9891    0.0070   -3.0746 H   0  0  0  0  0  0  0  0  0  0  0  0
    0.7199    1.7503   -3.1175 H   0  0  0  0  0  0  0  0  0  0  0  0
    2.4673    1.1804   -2.0371 C   0  0  0  0  0  0  0  0  0  0  0  0
    2.7770    2.3118   -1.7094 O   0  0  0  0  0  0  0  0  0  0  0  0
    3.3182    0.1337   -2.0155 O   0  0  0  0  0  0  0  0  0  0  0  0
    4.1208    0.4684   -1.5858 H   0  0  0  0  0  0  0  0  0  0  0  0
    0.8441   -0.2768    0.8939 C   0  0  0  0  0  0  0  0  0  0  0  0
    2.0590   -0.2513    1.0385 O   0  0  0  0  0  0  0  0  0  0  0  0
    0.0370    0.1773    1.9213 N   0  0  0  0  0  0  0  0  0  0  0  0
   -0.9618    0.0539    1.7945 H   0  0  0  0  0  0  0  0  0  0  0  0
    0.5470    0.4581    3.2578 C   0  0  0  0  0  0  0  0  0  0  0  0
    1.3332    1.2196    3.2163 H   0  0  0  0  0  0  0  0  0  0  0  0
   -0.2570    0.8298    3.9000 H   0  0  0  0  0  0  0  0  0  0  0  0
    0.9608   -0.4508    3.7074 H   0  0  0  0  0  0  0  0  0  0  0  0
  1  2  1  0  0  0  0
  2  3  1  0  0  0  0
  2  4  1  0  0  0  0
  2  5  1  0  0  0  0
  5  6  2  0  0  0  0
  5  7  1  0  0  0  0
  7  8  1  0  0  0  0
  7  9  1  0  0  0  0
  9 10  1  0  0  0  0
  9 11  1  0  0  0  0
  9 21  1  0  0  0  0
 11 12  1  0  0  0  0
 11 13  1  0  0  0  0
 11 14  1  0  0  0  0
 14 15  1  0  0  0  0
 14 16  1  0  0  0  0
 14 17  1  0  0  0  0
 17 18  2  0  0  0  0
 17 19  1  0  0  0  0
 19 20  1  0  0  0  0
 21 22  2  0  0  0  0
 21 23  1  0  0  0  0
 23 24  1  0  0  0  0
 23 25  1  0  0  0  0
 25 26  1  0  0  0  0
 25 27  1  0  0  0  0
 25 28  1  0  0  0  0
M  END
$$$$

  -OEChem-03222214033D

 28 27  0     1  0  0  0  0  0999 V2000
   -2.5407   -4.1969    0.2030 H   0  0  0  0  0  0  0  0  0  0  0  0
   -2.5581   -3.2031   -0.2537 C   0  0  0  0  0  0  0  0  0  0  0  0
   -3.3719   -2.6264    0.1924 H   0  0  0  0  0  0  0  0  0  0  0  0
   -2.7409   -3.3130   -1.3253 H   0  0  0  0  0  0  0  0  0  0  0  0
   -1.2342   -2.4997   -0.0221 C   0  0  0  0  0  0  0  0  0  0  0  0
   -0.3584   -3.0525    0.6169 O   0  0  0  0  0  0  0  0  0  0  0  0
   -1.0364   -1.2285   -0.5253 N   0  0  0  0  0  0  0  0  0  0  0  0
   -1.7665   -0.8671   -1.1310 H   0  0  0  0  0  0  0  0  0  0  0  0
    0.2594   -0.5211   -0.4921 C   0  0  1  0  0  0  0  0  0  0  0  0
    0.9807   -1.1621   -1.0102 H   0  0  0  0  0  0  0  0  0  0  0  0
    0.1094    0.8207   -1.2547 C   0  0  0  0  0  0  0  0  0  0  0  0
   -0.9183    0.9417   -1.6108 H   0  0  0  0  0  0  0  0  0  0  0  0
    0.3065    1.6558   -0.5720 H   0  0  0  0  0  0  0  0  0  0  0  0
    1.0595    0.9457   -2.4614 C   0  0  0  0  0  0  0  0  0  0  0  0
    0.8490    0.1516   -3.1827 H   0  0  0  0  0  0  0  0  0  0  0  0
    0.8909    1.9029   -2.9629 H   0  0  0  0  0  0  0  0  0  0  0  0
    2.5285    0.8609   -2.0589 C   0  0  0  0  0  0  0  0  0  0  0  0
    3.0789    1.8835   -1.6937 O   0  0  0  0  0  0  0  0  0  0  0  0
    3.1454   -0.3373   -2.1280 O   0  0  0  0  0  0  0  0  0  0  0  0
    4.0151   -0.1931   -1.7222 H   0  0  0  0  0  0  0  0  0  0  0  0
    0.8417   -0.2854    0.9215 C   0  0  0  0  0  0  0  0  0  0  0  0
    2.0542   -0.2873    1.0864 O   0  0  0  0  0  0  0  0  0  0  0  0
    0.0231    0.1713    1.9384 N   0  0  0  0  0  0  0  0  0  0  0  0
   -0.9746    0.0586    1.7933 H   0  0  0  0  0  0  0  0  0  0  0  0
    0.5125    0.4244    3.2877 C   0  0  0  0  0  0  0  0  0  0  0  0
    1.3162    1.1683    3.2715 H   0  0  0  0  0  0  0  0  0  0  0  0
   -0.2957    0.8065    3.9184 H   0  0  0  0  0  0  0  0  0  0  0  0
    0.8967   -0.4990    3.7340 H   0  0  0  0  0  0  0  0  0  0  0  0
  1  2  1  0  0  0  0
  2  3  1  0  0  0  0
  2  4  1  0  0  0  0
  2  5  1  0  0  0  0
  5  6  2  0  0  0  0
  5  7  1  0  0  0  0
  7  8  1  0  0  0  0
  7  9  1  0  0  0  0
  9 10  1  0  0  0  0
  9 11  1  0  0  0  0
  9 21  1  0  0  0  0
 11 12  1  0  0  0  0
 11 13  1  0  0  0  0
 11 14  1  0  0  0  0
 14 15  1  0  0  0  0
 14 16  1  0  0  0  0
 14 17  1  0  0  0  0
 17 18  2  0  0  0  0
 17 19  1  0  0  0  0
 19 20  1  0  0  0  0
 21 22  2  0  0  0  0
 21 23  1  0  0  0  0
 23 24  1  0  0  0  0
 23 25  1  0  0  0  0
 25 26  1  0  0  0  0
 25 27  1  0  0  0  0
 25 28  1  0  0  0  0
M  END
$$$$

  -OEChem-03222214033D

 28 27  0     1  0  0  0  0  0999 V2000
   -2.5760   -4.1864    0.1782 H   0  0  0  0  0  0  0  0  0  0  0  0
   -2.5724   -3.1940   -0.2820 C   0  0  0  0  0  0  0  0  0  0  0  0
   -3.3973   -2.6108    0.1343 H   0  0  0  0  0  0  0  0  0  0  0  0
   -2.7194   -3.3071   -1.3587 H   0  0  0  0  0  0  0  0  0  0  0  0
   -1.2523   -2.4979   -0.0088 C   0  0  0  0  0  0  0  0  0  0  0  0
   -0.4026   -3.0524    0.6631 O   0  0  0  0  0  0  0  0  0  0  0  0
   -1.0285   -1.2321   -0.5150 N   0  0  0  0  0  0  0  0  0  0  0  0
   -1.7360   -0.8712   -1.1471 H   0  0  0  0  0  0  0  0  0  0  0  0
    0.2739   -0.5387   -0.4559 C   0  0  1  0  0  0  0  0  0  0  0  0
    0.9938   -1.1985   -0.9473 H   0  0  0  0  0  0  0  0  0  0  0  0
    0.1490    0.7964   -1.2389 C   0  0  0  0  0  0  0  0  0  0  0  0
   -0.8755    0.9343   -1.5983 H   0  0  0  0  0  0  0  0  0  0  0  0
    0.3504    1.6242   -0.5490 H   0  0  0  0  0  0  0  0  0  0  0  0
    1.1092    0.9521   -2.4396 C   0  0  0  0  0  0  0  0  0  0  0  0
    0.7482    0.3308   -3.2636 H   0  0  0  0  0  0  0  0  0  0  0  0
    1.0968    1.9907   -2.7823 H   0  0  0  0  0  0  0  0  0  0  0  0
    2.5545    0.5457   -2.1618 C   0  0  0  0  0  0  0  0  0  0  0  0
    3.3116    1.4022   -1.7454 O   0  0  0  0  0  0  0  0  0  0  0  0
    2.9358   -0.7227   -2.4236 O   0  0  0  0  0  0  0  0  0  0  0  0
    3.8540   -0.7716   -2.1127 H   0  0  0  0  0  0  0  0  0  0  0  0
    0.8250   -0.3005    0.9694 C   0  0  0  0  0  0  0  0  0  0  0  0
    2.0322   -0.3273    1.1642 O   0  0  0  0  0  0  0  0  0  0  0  0
   -0.0108    0.1715    1.9652 N   0  0  0  0  0  0  0  0  0  0  0  0
   -1.0056    0.0626    1.7991 H   0  0  0  0  0  0  0  0  0  0  0  0
    0.4499    0.4062    3.3280 C   0  0  0  0  0  0  0  0  0  0  0  0
    1.2686    1.1337    3.3367 H   0  0  0  0  0  0  0  0  0  0  0  0
   -0.3661    0.8003    3.9411 H   0  0  0  0  0  0  0  0  0  0  0  0
    0.8041   -0.5275    3.7777 H   0  0  0  0  0  0  0  0  0  0  0  0
  1  2  1  0  0  0  0
  2  3  1  0  0  0  0
  2  4  1  0  0  0  0
  2  5  1  0  0  0  0
  5  6  2  0  0  0  0
  5  7  1  0  0  0  0
  7  8  1  0  0  0  0
  7  9  1  0  0  0  0
  9 10  1  0  0  0  0
  9 11  1  0  0  0  0
  9 21  1  0  0  0  0
 11 12  1  0  0  0  0
 11 13  1  0  0  0  0
 11 14  1  0  0  0  0
 14 15  1  0  0  0  0
 14 16  1  0  0  0  0
 14 17  1  0  0  0  0
 17 18  2  0  0  0  0
 17 19  1  0  0  0  0
 19 20  1  0  0  0  0
 21 22  2  0  0  0  0
 21 23  1  0  0  0  0
 23 24  1  0  0  0  0
 23 25  1  0  0  0  0
 25 26  1  0  0  0  0
 25 27  1  0  0  0  0
 25 28  1  0  0  0  0
M  END
$$$$

  -OEChem-03222214033D

 28 27  0     1  0  0  0  0  0999 V2000
   -2.6190   -4.1722    0.1754 H   0  0  0  0  0  0  0  0  0  0  0  0
   -2.5890   -3.1872   -0.2997 C   0  0  0  0  0  0  0  0  0  0  0  0
   -3.4256   -2.5918    0.0734 H   0  0  0  0  0  0  0  0  0  0  0  0
   -2.6931   -3.3165   -1.3796 H   0  0  0  0  0  0  0  0  0  0  0  0
   -1.2761   -2.4960    0.0168 C   0  0  0  0  0  0  0  0  0  0  0  0
   -0.4612   -3.0457    0.7343 O   0  0  0  0  0  0  0  0  0  0  0  0
   -1.0196   -1.2417   -0.5028 N   0  0  0  0  0  0  0  0  0  0  0  0
   -1.6893   -0.8988   -1.1842 H   0  0  0  0  0  0  0  0  0  0  0  0
    0.2943   -0.5714   -0.4243 C   0  0  1  0  0  0  0  0  0  0  0  0
    1.0153   -1.2490   -0.8864 H   0  0  0  0  0  0  0  0  0  0  0  0
    0.2020    0.7671   -1.2107 C   0  0  0  0  0  0  0  0  0  0  0  0
   -0.8207    0.9305   -1.5648 H   0  0  0  0  0  0  0  0  0  0  0  0
    0.4157    1.5829   -0.5103 H   0  0  0  0  0  0  0  0  0  0  0  0
    1.1646    0.9500   -2.4112 C   0  0  0  0  0  0  0  0  0  0  0  0
    0.6695    0.5675   -3.3075 H   0  0  0  0  0  0  0  0  0  0  0  0
    1.3400    2.0182   -2.5702 H   0  0  0  0  0  0  0  0  0  0  0  0
    2.5153    0.2432   -2.3271 C   0  0  0  0  0  0  0  0  0  0  0  0
    3.4656    0.8782   -1.9121 O   0  0  0  0  0  0  0  0  0  0  0  0
    2.6084   -1.0283   -2.7733 O   0  0  0  0  0  0  0  0  0  0  0  0
    3.5312   -1.2788   -2.6064 H   0  0  0  0  0  0  0  0  0  0  0  0
    0.8091   -0.3274    1.0143 C   0  0  0  0  0  0  0  0  0  0  0  0
    2.0097   -0.3646    1.2429 O   0  0  0  0  0  0  0  0  0  0  0  0
   -0.0466    0.1711    1.9802 N   0  0  0  0  0  0  0  0  0  0  0  0
   -1.0375    0.0671    1.7897 H   0  0  0  0  0  0  0  0  0  0  0  0
    0.3794    0.4163    3.3524 C   0  0  0  0  0  0  0  0  0  0  0  0
    1.2029    1.1380    3.3756 H   0  0  0  0  0  0  0  0  0  0  0  0
   -0.4496    0.8224    3.9398 H   0  0  0  0  0  0  0  0  0  0  0  0
    0.7147   -0.5154    3.8204 H   0  0  0  0  0  0  0  0  0  0  0  0
  1  2  1  0  0  0  0
  2  3  1  0  0  0  0
  2  4  1  0  0  0  0
  2  5  1  0  0  0  0
  5  6  2  0  0  0  0
  5  7  1  0  0  0  0
  7  8  1  0  0  0  0
  7  9  1  0  0  0  0
  9 10  1  0  0  0  0
  9 11  1  0  0  0  0
  9 21  1  0  0  0  0
 11 12  1  0  0  0  0
 11 13  1  0  0  0  0
 11 14  1  0  0  0  0
 14 15  1  0  0  0  0
 14 16  1  0  0  0  0
 14 17  1  0  0  0  0
 17 18  2  0  0  0  0
 17 19  1  0  0  0  0
 19 20  1  0  0  0  0
 21 22  2  0  0  0  0
 21 23  1  0  0  0  0
 23 24  1  0  0  0  0
 23 25  1  0  0  0  0
 25 26  1  0  0  0  0
 25 27  1  0  0  0  0
 25 28  1  0  0  0  0
M  END
$$$$

  -OEChem-03222214033D

 28 27  0     1  0  0  0  0  0999 V2000
   -2.6590   -4.1539    0.1788 H   0  0  0  0  0  0  0  0  0  0  0  0
   -2.6115   -3.1714   -0.3000 C   0  0  0  0  0  0  0  0  0  0  0  0
   -3.4478   -2.5656    0.0569 H   0  0  0  0  0  0  0  0  0  0  0  0
   -2.6995   -3.3042   -1.3810 H   0  0  0  0  0  0  0  0  0  0  0  0
   -1.2972   -2.4918    0.0349 C   0  0  0  0  0  0  0  0  0  0  0  0
   -0.5048   -3.0408    0.7778 O   0  0  0  0  0  0  0  0  0  0  0  0
   -1.0145   -1.2486   -0.4978 N   0  0  0  0  0  0  0  0  0  0  0  0
   -1.6609   -0.9146   -1.2057 H   0  0  0  0  0  0  0  0  0  0  0  0
    0.3084   -0.5976   -0.4083 C   0  0  1  0  0  0  0  0  0  0  0  0
    1.0303   -1.2910   -0.8430 H   0  0  0  0  0  0  0  0  0  0  0  0
    0.2480    0.7413   -1.2006 C   0  0  0  0  0  0  0  0  0  0  0  0
   -0.7707    0.9154   -1.5613 H   0  0  0  0  0  0  0  0  0  0  0  0
    0.4595    1.5555   -0.4978 H   0  0  0  0  0  0  0  0  0  0  0  0
    1.2179    0.9302   -2.3989 C   0  0  0  0  0  0  0  0  0  0  0  0
    0.6417    0.8275   -3.3220 H   0  0  0  0  0  0  0  0  0  0  0  0
    1.6078    1.9524   -2.3781 H   0  0  0  0  0  0  0  0  0  0  0  0
    2.3992   -0.0288   -2.5218 C   0  0  0  0  0  0  0  0  0  0  0  0
    3.4996    0.3656   -2.1877 O   0  0  0  0  0  0  0  0  0  0  0  0
    2.1784   -1.2506   -3.0545 O   0  0  0  0  0  0  0  0  0  0  0  0
    3.0452   -1.6868   -3.0325 H   0  0  0  0  0  0  0  0  0  0  0  0
    0.7995   -0.3449    1.0373 C   0  0  0  0  0  0  0  0  0  0  0  0
    1.9958   -0.3829    1.2868 O   0  0  0  0  0  0  0  0  0  0  0  0
   -0.0673    0.1778    1.9801 N   0  0  0  0  0  0  0  0  0  0  0  0
   -1.0555    0.0785    1.7735 H   0  0  0  0  0  0  0  0  0  0  0  0
    0.3364    0.4300    3.3579 C   0  0  0  0  0  0  0  0  0  0  0  0
    1.1643    1.1464    3.3908 H   0  0  0  0  0  0  0  0  0  0  0  0
   -0.5002    0.8449    3.9281 H   0  0  0  0  0  0  0  0  0  0  0  0
    0.6576   -0.5009    3.8374 H   0  0  0  0  0  0  0  0  0  0  0  0
  1  2  1  0  0  0  0
  2  3  1  0  0  0  0
  2  4  1  0  0  0  0
  2  5  1  0  0  0  0
  5  6  2  0  0  0  0
  5  7  1  0  0  0  0
  7  8  1  0  0  0  0
  7  9  1  0  0  0  0
  9 10  1  0  0  0  0
  9 11  1  0  0  0  0
  9 21  1  0  0  0  0
 11 12  1  0  0  0  0
 11 13  1  0  0  0  0
 11 14  1  0  0  0  0
 14 15  1  0  0  0  0
 14 16  1  0  0  0  0
 14 17  1  0  0  0  0
 17 18  2  0  0  0  0
 17 19  1  0  0  0  0
 19 20  1  0  0  0  0
 21 22  2  0  0  0  0
 21 23  1  0  0  0  0
 23 24  1  0  0  0  0
 23 25  1  0  0  0  0
 25 26  1  0  0  0  0
 25 27  1  0  0  0  0
 25 28  1  0  0  0  0
M  END
$$$$

  -OEChem-03222214033D

 28 27  0     1  0  0  0  0  0999 V2000
   -2.4616   -4.0552   -0.3383 H   0  0  0  0  0  0  0  0  0  0  0  0
   -2.7358   -2.9963   -0.3447 C   0  0  0  0  0  0  0  0  0  0  0  0
   -3.4073   -2.8020    0.4951 H   0  0  0  0  0  0  0  0  0  0  0  0
   -3.2558   -2.7744   -1.2798 H   0  0  0  0  0  0  0  0  0  0  0  0
   -1.4922   -2.1361   -0.2269 C   0  0  0  0  0  0  0  0  0  0  0  0
   -0.4025   -2.6618   -0.1264 O   0  0  0  0  0  0  0  0  0  0  0  0
   -1.6164   -0.7625   -0.1566 N   0  0  0  0  0  0  0  0  0  0  0  0
   -2.5608   -0.4053   -0.2676 H   0  0  0  0  0  0  0  0  0  0  0  0
   -0.5049    0.2010   -0.3226 C   0  0  1  0  0  0  0  0  0  0  0  0
   -0.9229    1.1695   -0.0302 H   0  0  0  0  0  0  0  0  0  0  0  0
   -0.2575    0.3274   -1.8713 C   0  0  0  0  0  0  0  0  0  0  0  0
   -1.0507   -0.2221   -2.3889 H   0  0  0  0  0  0  0  0  0  0  0  0
   -0.4418    1.3837   -2.0939 H   0  0  0  0  0  0  0  0  0  0  0  0
    1.0611   -0.0108   -2.6396 C   0  0  0  0  0  0  0  0  0  0  0  0
    0.8180   -0.7626   -3.3953 H   0  0  0  0  0  0  0  0  0  0  0  0
    1.3658    0.8886   -3.1819 H   0  0  0  0  0  0  0  0  0  0  0  0
    2.3072   -0.5269   -1.9319 C   0  0  0  0  0  0  0  0  0  0  0  0
    2.3091   -1.6676   -1.5074 O   0  0  0  0  0  0  0  0  0  0  0  0
    3.3904    0.2801   -1.8993 O   0  0  0  0  0  0  0  0  0  0  0  0
    4.0133   -0.1829   -1.3197 H   0  0  0  0  0  0  0  0  0  0  0  0
    0.6575    0.0617    0.6959 C   0  0  0  0  0  0  0  0  0  0  0  0
    1.7037    0.6710    0.5201 O   0  0  0  0  0  0  0  0  0  0  0  0
    0.3075   -0.1144    2.0238 N   0  0  0  0  0  0  0  0  0  0  0  0
   -0.5336   -0.6642    2.1677 H   0  0  0  0  0  0  0  0  0  0  0  0
    1.2761   -0.0537    3.1134 C   0  0  0  0  0  0  0  0  0  0  0  0
    1.6980    0.9534    3.1973 H   0  0  0  0  0  0  0  0  0  0  0  0
    0.7927   -0.3034    4.0625 H   0  0  0  0  0  0  0  0  0  0  0  0
    2.0913   -0.7646    2.9412 H   0  0  0  0  0  0  0  0  0  0  0  0
  1  2  1  0  0  0  0
  2  3  1  0  0  0  0
  2  4  1  0  0  0  0
  2  5  1  0  0  0  0
  5  6  2  0  0  0  0
  5  7  1  0  0  0  0
  7  8  1  0  0  0  0
  7  9  1  0  0  0  0
  9 10  1  0  0  0  0
  9 11  1  0  0  0  0
  9 21  1  0  0  0  0
 11 12  1  0  0  0  0
 11 13  1  0  0  0  0
 11 14  1  0  0  0  0
 14 15  1  0  0  0  0
 14 16  1  0  0  0  0
 14 17  1  0  0  0  0
 17 18  2  0  0  0  0
 17 19  1  0  0  0  0
 19 20  1  0  0  0  0
 21 22  2  0  0  0  0
 21 23  1  0  0  0  0
 23 24  1  0  0  0  0
 23 25  1  0  0  0  0
 25 26  1  0  0  0  0
 25 27  1  0  0  0  0
 25 28  1  0  0  0  0
M  END
$$$$

  -OEChem-03222214033D

 28 27  0     1  0  0  0  0  0999 V2000
   -2.6847   -4.1859    0.3769 H   0  0  0  0  0  0  0  0  0  0  0  0
   -2.6574   -3.2257   -0.1464 C   0  0  0  0  0  0  0  0  0  0  0  0
   -3.5162   -2.6282    0.1686 H   0  0  0  0  0  0  0  0  0  0  0  0
   -2.7235   -3.4108   -1.2214 H   0  0  0  0  0  0  0  0  0  0  0  0
   -1.3690   -2.4926    0.1754 C   0  0  0  0  0  0  0  0  0  0  0  0
   -0.5832   -2.9713    0.9729 O   0  0  0  0  0  0  0  0  0  0  0  0
   -1.1094   -1.2762   -0.4254 N   0  0  0  0  0  0  0  0  0  0  0  0
   -1.7330   -1.0404   -1.1917 H   0  0  0  0  0  0  0  0  0  0  0  0
    0.2252   -0.6446   -0.4360 C   0  0  1  0  0  0  0  0  0  0  0  0
    0.9204   -1.3616   -0.8785 H   0  0  0  0  0  0  0  0  0  0  0  0
    0.1483    0.6793   -1.2537 C   0  0  0  0  0  0  0  0  0  0  0  0
   -0.8839    0.8155   -1.5916 H   0  0  0  0  0  0  0  0  0  0  0  0
    0.3644    1.5298   -0.5970 H   0  0  0  0  0  0  0  0  0  0  0  0
    1.0526    0.8069   -2.5093 C   0  0  0  0  0  0  0  0  0  0  0  0
    0.4908    1.2861   -3.3154 H   0  0  0  0  0  0  0  0  0  0  0  0
    1.8826    1.4732   -2.2564 H   0  0  0  0  0  0  0  0  0  0  0  0
    1.6725   -0.4756   -3.0559 C   0  0  0  0  0  0  0  0  0  0  0  0
    0.9195   -1.3313   -3.4889 O   0  0  0  0  0  0  0  0  0  0  0  0
    3.0156   -0.6033   -3.0405 O   0  0  0  0  0  0  0  0  0  0  0  0
    3.1962   -1.4880   -3.3929 H   0  0  0  0  0  0  0  0  0  0  0  0
    0.8064   -0.3403    0.9651 C   0  0  0  0  0  0  0  0  0  0  0  0
    2.0198   -0.3434    1.1258 O   0  0  0  0  0  0  0  0  0  0  0  0
    0.0037    0.2350    1.9337 N   0  0  0  0  0  0  0  0  0  0  0  0
   -0.9947    0.1045    1.8048 H   0  0  0  0  0  0  0  0  0  0  0  0
    0.4963    0.5510    3.2687 C   0  0  0  0  0  0  0  0  0  0  0  0
    1.3269    1.2627    3.2137 H   0  0  0  0  0  0  0  0  0  0  0  0
   -0.3004    0.9988    3.8701 H   0  0  0  0  0  0  0  0  0  0  0  0
    0.8438   -0.3576    3.7718 H   0  0  0  0  0  0  0  0  0  0  0  0
  1  2  1  0  0  0  0
  2  3  1  0  0  0  0
  2  4  1  0  0  0  0
  2  5  1  0  0  0  0
  5  6  2  0  0  0  0
  5  7  1  0  0  0  0
  7  8  1  0  0  0  0
  7  9  1  0  0  0  0
  9 10  1  0  0  0  0
  9 11  1  0  0  0  0
  9 21  1  0  0  0  0
 11 12  1  0  0  0  0
 11 13  1  0  0  0  0
 11 14  1  0  0  0  0
 14 15  1  0  0  0  0
 14 16  1  0  0  0  0
 14 17  1  0  0  0  0
 17 18  2  0  0  0  0
 17 19  1  0  0  0  0
 19 20  1  0  0  0  0
 21 22  2  0  0  0  0
 21 23  1  0  0  0  0
 23 24  1  0  0  0  0
 23 25  1  0  0  0  0
 25 26  1  0  0  0  0
 25 27  1  0  0  0  0
 25 28  1  0  0  0  0
M  END
$$$$

  -OEChem-03222214033D

 28 27  0     1  0  0  0  0  0999 V2000
   -2.6509   -4.2003    0.3238 H   0  0  0  0  0  0  0  0  0  0  0  0
   -2.6305   -3.2358   -0.1917 C   0  0  0  0  0  0  0  0  0  0  0  0
   -3.5021   -2.6535    0.1158 H   0  0  0  0  0  0  0  0  0  0  0  0
   -2.6789   -3.4128   -1.2689 H   0  0  0  0  0  0  0  0  0  0  0  0
   -1.3573   -2.4867    0.1533 C   0  0  0  0  0  0  0  0  0  0  0  0
   -0.5705   -2.9662    0.9495 O   0  0  0  0  0  0  0  0  0  0  0  0
   -1.1101   -1.2587   -0.4287 N   0  0  0  0  0  0  0  0  0  0  0  0
   -1.7231   -1.0327   -1.2073 H   0  0  0  0  0  0  0  0  0  0  0  0
    0.2213   -0.6212   -0.4368 C   0  0  1  0  0  0  0  0  0  0  0  0
    0.9220   -1.3193   -0.9027 H   0  0  0  0  0  0  0  0  0  0  0  0
    0.1334    0.7171   -1.2267 C   0  0  0  0  0  0  0  0  0  0  0  0
   -0.8991    0.8550   -1.5637 H   0  0  0  0  0  0  0  0  0  0  0  0
    0.3539    1.5611   -0.5633 H   0  0  0  0  0  0  0  0  0  0  0  0
    1.0393    0.8363   -2.4774 C   0  0  0  0  0  0  0  0  0  0  0  0
    0.6019    1.5458   -3.1843 H   0  0  0  0  0  0  0  0  0  0  0  0
    2.0003    1.2483   -2.1553 H   0  0  0  0  0  0  0  0  0  0  0  0
    1.3422   -0.4661   -3.2152 C   0  0  0  0  0  0  0  0  0  0  0  0
    0.4046   -1.1849   -3.5198 O   0  0  0  0  0  0  0  0  0  0  0  0
    2.6273   -0.7562   -3.5065 O   0  0  0  0  0  0  0  0  0  0  0  0
    2.6042   -1.6176   -3.9503 H   0  0  0  0  0  0  0  0  0  0  0  0
    0.8109   -0.3384    0.9650 C   0  0  0  0  0  0  0  0  0  0  0  0
    2.0258   -0.3351    1.1149 O   0  0  0  0  0  0  0  0  0  0  0  0
    0.0126    0.2166    1.9487 N   0  0  0  0  0  0  0  0  0  0  0  0
   -0.9861    0.0838    1.8244 H   0  0  0  0  0  0  0  0  0  0  0  0
    0.5141    0.5228    3.2825 C   0  0  0  0  0  0  0  0  0  0  0  0
    1.3347    1.2462    3.2280 H   0  0  0  0  0  0  0  0  0  0  0  0
   -0.2825    0.9532    3.8967 H   0  0  0  0  0  0  0  0  0  0  0  0
    0.8789   -0.3864    3.7721 H   0  0  0  0  0  0  0  0  0  0  0  0
  1  2  1  0  0  0  0
  2  3  1  0  0  0  0
  2  4  1  0  0  0  0
  2  5  1  0  0  0  0
  5  6  2  0  0  0  0
  5  7  1  0  0  0  0
  7  8  1  0  0  0  0
  7  9  1  0  0  0  0
  9 10  1  0  0  0  0
  9 11  1  0  0  0  0
  9 21  1  0  0  0  0
 11 12  1  0  0  0  0
 11 13  1  0  0  0  0
 11 14  1  0  0  0  0
 14 15  1  0  0  0  0
 14 16  1  0  0  0  0
 14 17  1  0  0  0  0
 17 18  2  0  0  0  0
 17 19  1  0  0  0  0
 19 20  1  0  0  0  0
 21 22  2  0  0  0  0
 21 23  1  0  0  0  0
 23 24  1  0  0  0  0
 23 25  1  0  0  0  0
 25 26  1  0  0  0  0
 25 27  1  0  0  0  0
 25 28  1  0  0  0  0
M  END
$$$$

  -OEChem-03222214033D

 28 27  0     1  0  0  0  0  0999 V2000
   -2.6081   -4.2117    0.2376 H   0  0  0  0  0  0  0  0  0  0  0  0
   -2.6068   -3.2293   -0.2431 C   0  0  0  0  0  0  0  0  0  0  0  0
   -3.4852   -2.6723    0.0913 H   0  0  0  0  0  0  0  0  0  0  0  0
   -2.6613   -3.3687   -1.3257 H   0  0  0  0  0  0  0  0  0  0  0  0
   -1.3425   -2.4731    0.1195 C   0  0  0  0  0  0  0  0  0  0  0  0
   -0.5523   -2.9584    0.9090 O   0  0  0  0  0  0  0  0  0  0  0  0
   -1.1045   -1.2346   -0.4431 N   0  0  0  0  0  0  0  0  0  0  0  0
   -1.7098   -1.0098   -1.2291 H   0  0  0  0  0  0  0  0  0  0  0  0
    0.2209   -0.5859   -0.4397 C   0  0  1  0  0  0  0  0  0  0  0  0
    0.9289   -1.2651   -0.9248 H   0  0  0  0  0  0  0  0  0  0  0  0
    0.1198    0.7548   -1.2171 C   0  0  0  0  0  0  0  0  0  0  0  0
   -0.9105    0.8996   -1.5586 H   0  0  0  0  0  0  0  0  0  0  0  0
    0.3486    1.5959   -0.5531 H   0  0  0  0  0  0  0  0  0  0  0  0
    1.0450    0.8419   -2.4510 C   0  0  0  0  0  0  0  0  0  0  0  0
    0.7708    1.7073   -3.0593 H   0  0  0  0  0  0  0  0  0  0  0  0
    2.0701    0.9959   -2.1006 H   0  0  0  0  0  0  0  0  0  0  0  0
    1.0458   -0.4014   -3.3409 C   0  0  0  0  0  0  0  0  0  0  0  0
   -0.0078   -0.9903   -3.5244 O   0  0  0  0  0  0  0  0  0  0  0  0
    2.2155   -0.7833   -3.8943 O   0  0  0  0  0  0  0  0  0  0  0  0
    2.0125   -1.5834   -4.4024 H   0  0  0  0  0  0  0  0  0  0  0  0
    0.8109   -0.3173    0.9643 C   0  0  0  0  0  0  0  0  0  0  0  0
    2.0263   -0.3057    1.1108 O   0  0  0  0  0  0  0  0  0  0  0  0
    0.0097    0.2173    1.9567 N   0  0  0  0  0  0  0  0  0  0  0  0
   -0.9881    0.0803    1.8295 H   0  0  0  0  0  0  0  0  0  0  0  0
    0.5075    0.4980    3.2974 C   0  0  0  0  0  0  0  0  0  0  0  0
    1.3295    1.2206    3.2594 H   0  0  0  0  0  0  0  0  0  0  0  0
   -0.2902    0.9184    3.9170 H   0  0  0  0  0  0  0  0  0  0  0  0
    0.8685   -0.4212    3.7707 H   0  0  0  0  0  0  0  0  0  0  0  0
  1  2  1  0  0  0  0
  2  3  1  0  0  0  0
  2  4  1  0  0  0  0
  2  5  1  0  0  0  0
  5  6  2  0  0  0  0
  5  7  1  0  0  0  0
  7  8  1  0  0  0  0
  7  9  1  0  0  0  0
  9 10  1  0  0  0  0
  9 11  1  0  0  0  0
  9 21  1  0  0  0  0
 11 12  1  0  0  0  0
 11 13  1  0  0  0  0
 11 14  1  0  0  0  0
 14 15  1  0  0  0  0
 14 16  1  0  0  0  0
 14 17  1  0  0  0  0
 17 18  2  0  0  0  0
 17 19  1  0  0  0  0
 19 20  1  0  0  0  0
 21 22  2  0  0  0  0
 21 23  1  0  0  0  0
 23 24  1  0  0  0  0
 23 25  1  0  0  0  0
 25 26  1  0  0  0  0
 25 27  1  0  0  0  0
 25 28  1  0  0  0  0
M  END
$$$$

  -OEChem-03222214033D

 28 27  0     1  0  0  0  0  0999 V2000
   -2.5970   -4.2075    0.1699 H   0  0  0  0  0  0  0  0  0  0  0  0
   -2.5956   -3.2184   -0.2970 C   0  0  0  0  0  0  0  0  0  0  0  0
   -3.4830   -2.6719    0.0312 H   0  0  0  0  0  0  0  0  0  0  0  0
   -2.6322   -3.3432   -1.3821 H   0  0  0  0  0  0  0  0  0  0  0  0
   -1.3431   -2.4579    0.0947 C   0  0  0  0  0  0  0  0  0  0  0  0
   -0.5602   -2.9471    0.8892 O   0  0  0  0  0  0  0  0  0  0  0  0
   -1.1052   -1.2127   -0.4518 N   0  0  0  0  0  0  0  0  0  0  0  0
   -1.6983   -0.9868   -1.2476 H   0  0  0  0  0  0  0  0  0  0  0  0
    0.2181   -0.5624   -0.4333 C   0  0  1  0  0  0  0  0  0  0  0  0
    0.9264   -1.2323   -0.9331 H   0  0  0  0  0  0  0  0  0  0  0  0
    0.1110    0.7768   -1.2056 C   0  0  0  0  0  0  0  0  0  0  0  0
   -0.9166    0.9429   -1.5465 H   0  0  0  0  0  0  0  0  0  0  0  0
    0.3576    1.6124   -0.5409 H   0  0  0  0  0  0  0  0  0  0  0  0
    1.0590    0.8249   -2.4203 C   0  0  0  0  0  0  0  0  0  0  0  0
    0.9678    1.7944   -2.9162 H   0  0  0  0  0  0  0  0  0  0  0  0
    2.0914    0.7278   -2.0707 H   0  0  0  0  0  0  0  0  0  0  0  0
    0.7958   -0.2702   -3.4573 C   0  0  0  0  0  0  0  0  0  0  0  0
   -0.3104   -0.7847   -3.5206 O   0  0  0  0  0  0  0  0  0  0  0  0
    1.8168   -0.6107   -4.2707 O   0  0  0  0  0  0  0  0  0  0  0  0
    1.4694   -1.3126   -4.8418 H   0  0  0  0  0  0  0  0  0  0  0  0
    0.8067   -0.3061    0.9732 C   0  0  0  0  0  0  0  0  0  0  0  0
    2.0223   -0.2948    1.1194 O   0  0  0  0  0  0  0  0  0  0  0  0
    0.0042    0.2175    1.9700 N   0  0  0  0  0  0  0  0  0  0  0  0
   -0.9935    0.0803    1.8413 H   0  0  0  0  0  0  0  0  0  0  0  0
    0.5017    0.4931    3.3118 C   0  0  0  0  0  0  0  0  0  0  0  0
    1.3192    1.2212    3.2768 H   0  0  0  0  0  0  0  0  0  0  0  0
   -0.2981    0.9047    3.9345 H   0  0  0  0  0  0  0  0  0  0  0  0
    0.8690   -0.4265    3.7796 H   0  0  0  0  0  0  0  0  0  0  0  0
  1  2  1  0  0  0  0
  2  3  1  0  0  0  0
  2  4  1  0  0  0  0
  2  5  1  0  0  0  0
  5  6  2  0  0  0  0
  5  7  1  0  0  0  0
  7  8  1  0  0  0  0
  7  9  1  0  0  0  0
  9 10  1  0  0  0  0
  9 11  1  0  0  0  0
  9 21  1  0  0  0  0
 11 12  1  0  0  0  0
 11 13  1  0  0  0  0
 11 14  1  0  0  0  0
 14 15  1  0  0  0  0
 14 16  1  0  0  0  0
 14 17  1  0  0  0  0
 17 18  2  0  0  0  0
 17 19  1  0  0  0  0
 19 20  1  0  0  0  0
 21 22  2  0  0  0  0
 21 23  1  0  0  0  0
 23 24  1  0  0  0  0
 23 25  1  0  0  0  0
 25 26  1  0  0  0  0
 25 27  1  0  0  0  0
 25 28  1  0  0  0  0
M  END
$$$$

  -OEChem-03222214033D

 28 27  0     1  0  0  0  0  0999 V2000
   -2.6302   -4.1890    0.1670 H   0  0  0  0  0  0  0  0  0  0  0  0
   -2.6108   -3.2066   -0.3133 C   0  0  0  0  0  0  0  0  0  0  0  0
   -3.4996   -2.6480   -0.0105 H   0  0  0  0  0  0  0  0  0  0  0  0
   -2.6266   -3.3455   -1.3971 H   0  0  0  0  0  0  0  0  0  0  0  0
   -1.3596   -2.4516    0.0933 C   0  0  0  0  0  0  0  0  0  0  0  0
   -0.5891   -2.9429    0.8986 O   0  0  0  0  0  0  0  0  0  0  0  0
   -1.1088   -1.2082   -0.4514 N   0  0  0  0  0  0  0  0  0  0  0  0
   -1.6916   -0.9788   -1.2541 H   0  0  0  0  0  0  0  0  0  0  0  0
    0.2177   -0.5656   -0.4198 C   0  0  1  0  0  0  0  0  0  0  0  0
    0.9228   -1.2404   -0.9184 H   0  0  0  0  0  0  0  0  0  0  0  0
    0.1190    0.7673   -1.2004 C   0  0  0  0  0  0  0  0  0  0  0  0
   -0.9054    0.9580   -1.5384 H   0  0  0  0  0  0  0  0  0  0  0  0
    0.3845    1.5982   -0.5372 H   0  0  0  0  0  0  0  0  0  0  0  0
    1.0856    0.7864   -2.4008 C   0  0  0  0  0  0  0  0  0  0  0  0
    1.1830    1.8139   -2.7604 H   0  0  0  0  0  0  0  0  0  0  0  0
    2.0796    0.4549   -2.0852 H   0  0  0  0  0  0  0  0  0  0  0  0
    0.6223   -0.0724   -3.5813 C   0  0  0  0  0  0  0  0  0  0  0  0
   -0.4572   -0.6431   -3.5366 O   0  0  0  0  0  0  0  0  0  0  0  0
    1.4534   -0.1496   -4.6415 O   0  0  0  0  0  0  0  0  0  0  0  0
    1.0072   -0.7295   -5.2773 H   0  0  0  0  0  0  0  0  0  0  0  0
    0.7993   -0.3092    0.9894 C   0  0  0  0  0  0  0  0  0  0  0  0
    2.0142   -0.3005    1.1407 O   0  0  0  0  0  0  0  0  0  0  0  0
   -0.0055    0.2214    1.9808 N   0  0  0  0  0  0  0  0  0  0  0  0
   -1.0031    0.0849    1.8502 H   0  0  0  0  0  0  0  0  0  0  0  0
    0.4895    0.5059    3.3217 C   0  0  0  0  0  0  0  0  0  0  0  0
    1.3062    1.2345    3.2834 H   0  0  0  0  0  0  0  0  0  0  0  0
   -0.3116    0.9203    3.9411 H   0  0  0  0  0  0  0  0  0  0  0  0
    0.8577   -0.4105    3.7952 H   0  0  0  0  0  0  0  0  0  0  0  0
  1  2  1  0  0  0  0
  2  3  1  0  0  0  0
  2  4  1  0  0  0  0
  2  5  1  0  0  0  0
  5  6  2  0  0  0  0
  5  7  1  0  0  0  0
  7  8  1  0  0  0  0
  7  9  1  0  0  0  0
  9 10  1  0  0  0  0
  9 11  1  0  0  0  0
  9 21  1  0  0  0  0
 11 12  1  0  0  0  0
 11 13  1  0  0  0  0
 11 14  1  0  0  0  0
 14 15  1  0  0  0  0
 14 16  1  0  0  0  0
 14 17  1  0  0  0  0
 17 18  2  0  0  0  0
 17 19  1  0  0  0  0
 19 20  1  0  0  0  0
 21 22  2  0  0  0  0
 21 23  1  0  0  0  0
 23 24  1  0  0  0  0
 23 25  1  0  0  0  0
 25 26  1  0  0  0  0
 25 27  1  0  0  0  0
 25 28  1  0  0  0  0
M  END
$$$$

  -OEChem-03222214033D

 28 27  0     1  0  0  0  0  0999 V2000
   -2.6729   -4.1642    0.2053 H   0  0  0  0  0  0  0  0  0  0  0  0
   -2.6346   -3.1897   -0.2898 C   0  0  0  0  0  0  0  0  0  0  0  0
   -3.5092   -2.6074    0.0098 H   0  0  0  0  0  0  0  0  0  0  0  0
   -2.6603   -3.3447   -1.3712 H   0  0  0  0  0  0  0  0  0  0  0  0
   -1.3650   -2.4561    0.0980 C   0  0  0  0  0  0  0  0  0  0  0  0
   -0.5954   -2.9562    0.8987 O   0  0  0  0  0  0  0  0  0  0  0  0
   -1.0987   -1.2191   -0.4540 N   0  0  0  0  0  0  0  0  0  0  0  0
   -1.6866   -0.9767   -1.2490 H   0  0  0  0  0  0  0  0  0  0  0  0
    0.2311   -0.5837   -0.4148 C   0  0  1  0  0  0  0  0  0  0  0  0
    0.9348   -1.2692   -0.9004 H   0  0  0  0  0  0  0  0  0  0  0  0
    0.1428    0.7405   -1.2100 C   0  0  0  0  0  0  0  0  0  0  0  0
   -0.8800    0.9459   -1.5441 H   0  0  0  0  0  0  0  0  0  0  0  0
    0.4182    1.5700   -0.5489 H   0  0  0  0  0  0  0  0  0  0  0  0
    1.1195    0.7491   -2.4044 C   0  0  0  0  0  0  0  0  0  0  0  0
    1.4043    1.7848   -2.6089 H   0  0  0  0  0  0  0  0  0  0  0  0
    2.0384    0.2055   -2.1669 H   0  0  0  0  0  0  0  0  0  0  0  0
    0.5078    0.1897   -3.6905 C   0  0  0  0  0  0  0  0  0  0  0  0
   -0.5063   -0.4894   -3.6349 O   0  0  0  0  0  0  0  0  0  0  0  0
    1.1384    0.4809   -4.8475 O   0  0  0  0  0  0  0  0  0  0  0  0
    0.6233    0.0383   -5.5391 H   0  0  0  0  0  0  0  0  0  0  0  0
    0.7980   -0.3193    0.9990 C   0  0  0  0  0  0  0  0  0  0  0  0
    2.0109   -0.3189    1.1661 O   0  0  0  0  0  0  0  0  0  0  0  0
   -0.0158    0.2239    1.9762 N   0  0  0  0  0  0  0  0  0  0  0  0
   -1.0131    0.0996    1.8322 H   0  0  0  0  0  0  0  0  0  0  0  0
    0.4634    0.5194    3.3204 C   0  0  0  0  0  0  0  0  0  0  0  0
    1.2832    1.2448    3.2851 H   0  0  0  0  0  0  0  0  0  0  0  0
   -0.3440    0.9430    3.9252 H   0  0  0  0  0  0  0  0  0  0  0  0
    0.8215   -0.3937    3.8078 H   0  0  0  0  0  0  0  0  0  0  0  0
  1  2  1  0  0  0  0
  2  3  1  0  0  0  0
  2  4  1  0  0  0  0
  2  5  1  0  0  0  0
  5  6  2  0  0  0  0
  5  7  1  0  0  0  0
  7  8  1  0  0  0  0
  7  9  1  0  0  0  0
  9 10  1  0  0  0  0
  9 11  1  0  0  0  0
  9 21  1  0  0  0  0
 11 12  1  0  0  0  0
 11 13  1  0  0  0  0
 11 14  1  0  0  0  0
 14 15  1  0  0  0  0
 14 16  1  0  0  0  0
 14 17  1  0  0  0  0
 17 18  2  0  0  0  0
 17 19  1  0  0  0  0
 19 20  1  0  0  0  0
 21 22  2  0  0  0  0
 21 23  1  0  0  0  0
 23 24  1  0  0  0  0
 23 25  1  0  0  0  0
 25 26  1  0  0  0  0
 25 27  1  0  0  0  0
 25 28  1  0  0  0  0
M  END
$$$$

  -OEChem-03222214033D

 28 27  0     1  0  0  0  0  0999 V2000
   -2.6948   -4.1592    0.2268 H   0  0  0  0  0  0  0  0  0  0  0  0
   -2.6581   -3.1799   -0.2590 C   0  0  0  0  0  0  0  0  0  0  0  0
   -3.5196   -2.5921    0.0669 H   0  0  0  0  0  0  0  0  0  0  0  0
   -2.7106   -3.3230   -1.3411 H   0  0  0  0  0  0  0  0  0  0  0  0
   -1.3723   -2.4632    0.1066 C   0  0  0  0  0  0  0  0  0  0  0  0
   -0.5976   -2.9707    0.8975 O   0  0  0  0  0  0  0  0  0  0  0  0
   -1.0950   -1.2325   -0.4543 N   0  0  0  0  0  0  0  0  0  0  0  0
   -1.6984   -0.9700   -1.2307 H   0  0  0  0  0  0  0  0  0  0  0  0
    0.2368   -0.6008   -0.4139 C   0  0  1  0  0  0  0  0  0  0  0  0
    0.9390   -1.2982   -0.8833 H   0  0  0  0  0  0  0  0  0  0  0  0
    0.1585    0.7137   -1.2271 C   0  0  0  0  0  0  0  0  0  0  0  0
   -0.8648    0.9167   -1.5607 H   0  0  0  0  0  0  0  0  0  0  0  0
    0.4281    1.5498   -0.5717 H   0  0  0  0  0  0  0  0  0  0  0  0
    1.1404    0.7221   -2.4218 C   0  0  0  0  0  0  0  0  0  0  0  0
    1.6241    1.7021   -2.4610 H   0  0  0  0  0  0  0  0  0  0  0  0
    1.9367   -0.0171   -2.3018 H   0  0  0  0  0  0  0  0  0  0  0  0
    0.4465    0.5059   -3.7663 C   0  0  0  0  0  0  0  0  0  0  0  0
   -0.5437   -0.2066   -3.8173 O   0  0  0  0  0  0  0  0  0  0  0  0
    0.9746    1.1170   -4.8477 O   0  0  0  0  0  0  0  0  0  0  0  0
    0.4145    0.8497   -5.5924 H   0  0  0  0  0  0  0  0  0  0  0  0
    0.7958   -0.3253    1.0011 C   0  0  0  0  0  0  0  0  0  0  0  0
    2.0075   -0.3276    1.1756 O   0  0  0  0  0  0  0  0  0  0  0  0
   -0.0212    0.2292    1.9694 N   0  0  0  0  0  0  0  0  0  0  0  0
   -1.0181    0.1047    1.8231 H   0  0  0  0  0  0  0  0  0  0  0  0
    0.4536    0.5348    3.3130 C   0  0  0  0  0  0  0  0  0  0  0  0
    1.2758    1.2570    3.2742 H   0  0  0  0  0  0  0  0  0  0  0  0
   -0.3545    0.9662    3.9111 H   0  0  0  0  0  0  0  0  0  0  0  0
    0.8070   -0.3750    3.8096 H   0  0  0  0  0  0  0  0  0  0  0  0
  1  2  1  0  0  0  0
  2  3  1  0  0  0  0
  2  4  1  0  0  0  0
  2  5  1  0  0  0  0
  5  6  2  0  0  0  0
  5  7  1  0  0  0  0
  7  8  1  0  0  0  0
  7  9  1  0  0  0  0
  9 10  1  0  0  0  0
  9 11  1  0  0  0  0
  9 21  1  0  0  0  0
 11 12  1  0  0  0  0
 11 13  1  0  0  0  0
 11 14  1  0  0  0  0
 14 15  1  0  0  0  0
 14 16  1  0  0  0  0
 14 17  1  0  0  0  0
 17 18  2  0  0  0  0
 17 19  1  0  0  0  0
 19 20  1  0  0  0  0
 21 22  2  0  0  0  0
 21 23  1  0  0  0  0
 23 24  1  0  0  0  0
 23 25  1  0  0  0  0
 25 26  1  0  0  0  0
 25 27  1  0  0  0  0
 25 28  1  0  0  0  0
M  END
$$$$

  -OEChem-03222214033D

 28 27  0     1  0  0  0  0  0999 V2000
   -2.7298   -4.1461    0.2862 H   0  0  0  0  0  0  0  0  0  0  0  0
   -2.6836   -3.1749   -0.2148 C   0  0  0  0  0  0  0  0  0  0  0  0
   -3.5265   -2.5659    0.1203 H   0  0  0  0  0  0  0  0  0  0  0  0
   -2.7622   -3.3325   -1.2933 H   0  0  0  0  0  0  0  0  0  0  0  0
   -1.3761   -2.4792    0.1137 C   0  0  0  0  0  0  0  0  0  0  0  0
   -0.5888   -2.9969    0.8851 O   0  0  0  0  0  0  0  0  0  0  0  0
   -1.0919   -1.2548   -0.4579 N   0  0  0  0  0  0  0  0  0  0  0  0
   -1.7189   -0.9684   -1.2059 H   0  0  0  0  0  0  0  0  0  0  0  0
    0.2415   -0.6234   -0.4229 C   0  0  1  0  0  0  0  0  0  0  0  0
    0.9450   -1.3269   -0.8801 H   0  0  0  0  0  0  0  0  0  0  0  0
    0.1724    0.6878   -1.2443 C   0  0  0  0  0  0  0  0  0  0  0  0
   -0.8526    0.8700   -1.5838 H   0  0  0  0  0  0  0  0  0  0  0  0
    0.4239    1.5352   -0.5962 H   0  0  0  0  0  0  0  0  0  0  0  0
    1.1529    0.7020   -2.4430 C   0  0  0  0  0  0  0  0  0  0  0  0
    1.8434    1.5414   -2.3205 H   0  0  0  0  0  0  0  0  0  0  0  0
    1.7623   -0.2035   -2.4845 H   0  0  0  0  0  0  0  0  0  0  0  0
    0.4446    0.8593   -3.7864 C   0  0  0  0  0  0  0  0  0  0  0  0
   -0.5512    0.1900   -4.0081 O   0  0  0  0  0  0  0  0  0  0  0  0
    0.9582    1.7394   -4.6716 O   0  0  0  0  0  0  0  0  0  0  0  0
    0.3833    1.6851   -5.4502 H   0  0  0  0  0  0  0  0  0  0  0  0
    0.7974   -0.3350    0.9908 C   0  0  0  0  0  0  0  0  0  0  0  0
    2.0082   -0.3402    1.1705 O   0  0  0  0  0  0  0  0  0  0  0  0
   -0.0210    0.2295    1.9520 N   0  0  0  0  0  0  0  0  0  0  0  0
   -1.0183    0.1148    1.8018 H   0  0  0  0  0  0  0  0  0  0  0  0
    0.4514    0.5539    3.2922 C   0  0  0  0  0  0  0  0  0  0  0  0
    1.2657    1.2847    3.2456 H   0  0  0  0  0  0  0  0  0  0  0  0
   -0.3611    0.9824    3.8865 H   0  0  0  0  0  0  0  0  0  0  0  0
    0.8154   -0.3468    3.7978 H   0  0  0  0  0  0  0  0  0  0  0  0
  1  2  1  0  0  0  0
  2  3  1  0  0  0  0
  2  4  1  0  0  0  0
  2  5  1  0  0  0  0
  5  6  2  0  0  0  0
  5  7  1  0  0  0  0
  7  8  1  0  0  0  0
  7  9  1  0  0  0  0
  9 10  1  0  0  0  0
  9 11  1  0  0  0  0
  9 21  1  0  0  0  0
 11 12  1  0  0  0  0
 11 13  1  0  0  0  0
 11 14  1  0  0  0  0
 14 15  1  0  0  0  0
 14 16  1  0  0  0  0
 14 17  1  0  0  0  0
 17 18  2  0  0  0  0
 17 19  1  0  0  0  0
 19 20  1  0  0  0  0
 21 22  2  0  0  0  0
 21 23  1  0  0  0  0
 23 24  1  0  0  0  0
 23 25  1  0  0  0  0
 25 26  1  0  0  0  0
 25 27  1  0  0  0  0
 25 28  1  0  0  0  0
M  END
$$$$

  -OEChem-03222214033D

 28 27  0     1  0  0  0  0  0999 V2000
   -2.7564   -4.1165    0.3762 H   0  0  0  0  0  0  0  0  0  0  0  0
   -2.6964   -3.1694   -0.1675 C   0  0  0  0  0  0  0  0  0  0  0  0
   -3.5203   -2.5273    0.1528 H   0  0  0  0  0  0  0  0  0  0  0  0
   -2.7943   -3.3713   -1.2368 H   0  0  0  0  0  0  0  0  0  0  0  0
   -1.3691   -2.4904    0.1119 C   0  0  0  0  0  0  0  0  0  0  0  0
   -0.5588   -3.0206    0.8501 O   0  0  0  0  0  0  0  0  0  0  0  0
   -1.0921   -1.2668   -0.4653 N   0  0  0  0  0  0  0  0  0  0  0  0
   -1.7493   -0.9553   -1.1758 H   0  0  0  0  0  0  0  0  0  0  0  0
    0.2387   -0.6291   -0.4414 C   0  0  1  0  0  0  0  0  0  0  0  0
    0.9450   -1.3307   -0.8971 H   0  0  0  0  0  0  0  0  0  0  0  0
    0.1733    0.6820   -1.2629 C   0  0  0  0  0  0  0  0  0  0  0  0
   -0.8518    0.8366   -1.6158 H   0  0  0  0  0  0  0  0  0  0  0  0
    0.4043    1.5421   -0.6239 H   0  0  0  0  0  0  0  0  0  0  0  0
    1.1519    0.6904   -2.4617 C   0  0  0  0  0  0  0  0  0  0  0  0
    2.0200    1.3086   -2.2152 H   0  0  0  0  0  0  0  0  0  0  0  0
    1.5231   -0.3138   -2.6804 H   0  0  0  0  0  0  0  0  0  0  0  0
    0.5053    1.2106   -3.7420 C   0  0  0  0  0  0  0  0  0  0  0  0
   -0.5142    0.6735   -4.1413 O   0  0  0  0  0  0  0  0  0  0  0  0
    1.0910    2.2513   -4.3713 O   0  0  0  0  0  0  0  0  0  0  0  0
    0.5392    2.4229   -5.1496 H   0  0  0  0  0  0  0  0  0  0  0  0
    0.7974   -0.3352    0.9697 C   0  0  0  0  0  0  0  0  0  0  0  0
    2.0084   -0.3394    1.1472 O   0  0  0  0  0  0  0  0  0  0  0  0
   -0.0203    0.2276    1.9326 N   0  0  0  0  0  0  0  0  0  0  0  0
   -1.0183    0.1213    1.7818 H   0  0  0  0  0  0  0  0  0  0  0  0
    0.4543    0.5565    3.2707 C   0  0  0  0  0  0  0  0  0  0  0  0
    1.2601    1.2963    3.2204 H   0  0  0  0  0  0  0  0  0  0  0  0
   -0.3601    0.9753    3.8695 H   0  0  0  0  0  0  0  0  0  0  0  0
    0.8304   -0.3407    3.7737 H   0  0  0  0  0  0  0  0  0  0  0  0
  1  2  1  0  0  0  0
  2  3  1  0  0  0  0
  2  4  1  0  0  0  0
  2  5  1  0  0  0  0
  5  6  2  0  0  0  0
  5  7  1  0  0  0  0
  7  8  1  0  0  0  0
  7  9  1  0  0  0  0
  9 10  1  0  0  0  0
  9 11  1  0  0  0  0
  9 21  1  0  0  0  0
 11 12  1  0  0  0  0
 11 13  1  0  0  0  0
 11 14  1  0  0  0  0
 14 15  1  0  0  0  0
 14 16  1  0  0  0  0
 14 17  1  0  0  0  0
 17 18  2  0  0  0  0
 17 19  1  0  0  0  0
 19 20  1  0  0  0  0
 21 22  2  0  0  0  0
 21 23  1  0  0  0  0
 23 24  1  0  0  0  0
 23 25  1  0  0  0  0
 25 26  1  0  0  0  0
 25 27  1  0  0  0  0
 25 28  1  0  0  0  0
M  END
$$$$

  -OEChem-03222214033D

 28 27  0     1  0  0  0  0  0999 V2000
   -2.6232   -4.2060    0.2738 H   0  0  0  0  0  0  0  0  0  0  0  0
   -2.6323   -3.2112   -0.1809 C   0  0  0  0  0  0  0  0  0  0  0  0
   -3.4406   -2.6276    0.2659 H   0  0  0  0  0  0  0  0  0  0  0  0
   -2.8171   -3.3175   -1.2525 H   0  0  0  0  0  0  0  0  0  0  0  0
   -1.3018   -2.5202    0.0505 C   0  0  0  0  0  0  0  0  0  0  0  0
   -0.4335   -3.0735    0.6999 O   0  0  0  0  0  0  0  0  0  0  0  0
   -1.0819   -1.2628   -0.4762 N   0  0  0  0  0  0  0  0  0  0  0  0
   -1.8099   -0.8906   -1.0793 H   0  0  0  0  0  0  0  0  0  0  0  0
    0.2182   -0.5646   -0.4394 C   0  0  1  0  0  0  0  0  0  0  0  0
    0.9509   -1.2176   -0.9258 H   0  0  0  0  0  0  0  0  0  0  0  0
    0.1018    0.7673   -1.2190 C   0  0  0  0  0  0  0  0  0  0  0  0
   -0.9259    0.8657   -1.5825 H   0  0  0  0  0  0  0  0  0  0  0  0
    0.2822    1.6243   -0.5600 H   0  0  0  0  0  0  0  0  0  0  0  0
    1.0862    0.8358   -2.4125 C   0  0  0  0  0  0  0  0  0  0  0  0
    2.0490    1.2190   -2.0632 H   0  0  0  0  0  0  0  0  0  0  0  0
    1.2583   -0.1682   -2.8087 H   0  0  0  0  0  0  0  0  0  0  0  0
    0.6154    1.6788   -3.6002 C   0  0  0  0  0  0  0  0  0  0  0  0
   -0.4623    2.2477   -3.5662 O   0  0  0  0  0  0  0  0  0  0  0  0
    1.4485    1.7467   -4.6593 O   0  0  0  0  0  0  0  0  0  0  0  0
    1.0002    2.3219   -5.2981 H   0  0  0  0  0  0  0  0  0  0  0  0
    0.7803   -0.3014    0.9762 C   0  0  0  0  0  0  0  0  0  0  0  0
    1.9923   -0.2652    1.1426 O   0  0  0  0  0  0  0  0  0  0  0  0
   -0.0485    0.1836    1.9715 N   0  0  0  0  0  0  0  0  0  0  0  0
   -1.0449    0.0638    1.8213 H   0  0  0  0  0  0  0  0  0  0  0  0
    0.4284    0.4901    3.3143 C   0  0  0  0  0  0  0  0  0  0  0  0
    1.2124    1.2541    3.2781 H   0  0  0  0  0  0  0  0  0  0  0  0
   -0.3920    0.8695    3.9308 H   0  0  0  0  0  0  0  0  0  0  0  0
    0.8346   -0.4089    3.7898 H   0  0  0  0  0  0  0  0  0  0  0  0
  1  2  1  0  0  0  0
  2  3  1  0  0  0  0
  2  4  1  0  0  0  0
  2  5  1  0  0  0  0
  5  6  2  0  0  0  0
  5  7  1  0  0  0  0
  7  8  1  0  0  0  0
  7  9  1  0  0  0  0
  9 10  1  0  0  0  0
  9 11  1  0  0  0  0
  9 21  1  0  0  0  0
 11 12  1  0  0  0  0
 11 13  1  0  0  0  0
 11 14  1  0  0  0  0
 14 15  1  0  0  0  0
 14 16  1  0  0  0  0
 14 17  1  0  0  0  0
 17 18  2  0  0  0  0
 17 19  1  0  0  0  0
 19 20  1  0  0  0  0
 21 22  2  0  0  0  0
 21 23  1  0  0  0  0
 23 24  1  0  0  0  0
 23 25  1  0  0  0  0
 25 26  1  0  0  0  0
 25 27  1  0  0  0  0
 25 28  1  0  0  0  0
M  END
$$$$

  -OEChem-03222214033D

 28 27  0     1  0  0  0  0  0999 V2000
   -2.6123   -4.2010    0.2767 H   0  0  0  0  0  0  0  0  0  0  0  0
   -2.6264   -3.2050   -0.1753 C   0  0  0  0  0  0  0  0  0  0  0  0
   -3.4252   -2.6202    0.2868 H   0  0  0  0  0  0  0  0  0  0  0  0
   -2.8294   -3.3078   -1.2440 H   0  0  0  0  0  0  0  0  0  0  0  0
   -1.2907   -2.5179    0.0363 C   0  0  0  0  0  0  0  0  0  0  0  0
   -0.4127   -3.0758    0.6685 O   0  0  0  0  0  0  0  0  0  0  0  0
   -1.0773   -1.2574   -0.4855 N   0  0  0  0  0  0  0  0  0  0  0  0
   -1.8152   -0.8761   -1.0706 H   0  0  0  0  0  0  0  0  0  0  0  0
    0.2193   -0.5535   -0.4447 C   0  0  1  0  0  0  0  0  0  0  0  0
    0.9551   -1.2007   -0.9357 H   0  0  0  0  0  0  0  0  0  0  0  0
    0.1004    0.7756   -1.2249 C   0  0  0  0  0  0  0  0  0  0  0  0
   -0.9205    0.8814   -1.6063 H   0  0  0  0  0  0  0  0  0  0  0  0
    0.2830    1.6319   -0.5651 H   0  0  0  0  0  0  0  0  0  0  0  0
    1.0934    0.8269   -2.4055 C   0  0  0  0  0  0  0  0  0  0  0  0
    2.1073    0.9643   -2.0186 H   0  0  0  0  0  0  0  0  0  0  0  0
    1.0691   -0.1232   -2.9457 H   0  0  0  0  0  0  0  0  0  0  0  0
    0.8031    1.9261   -3.4285 C   0  0  0  0  0  0  0  0  0  0  0  0
   -0.1781    2.6384   -3.3005 O   0  0  0  0  0  0  0  0  0  0  0  0
    1.6698    2.0442   -4.4561 O   0  0  0  0  0  0  0  0  0  0  0  0
    1.3352    2.7832   -4.9868 H   0  0  0  0  0  0  0  0  0  0  0  0
    0.7786   -0.2934    0.9726 C   0  0  0  0  0  0  0  0  0  0  0  0
    1.9901   -0.2568    1.1417 O   0  0  0  0  0  0  0  0  0  0  0  0
   -0.0536    0.1837    1.9687 N   0  0  0  0  0  0  0  0  0  0  0  0
   -1.0494    0.0657    1.8143 H   0  0  0  0  0  0  0  0  0  0  0  0
    0.4188    0.4843    3.3143 C   0  0  0  0  0  0  0  0  0  0  0  0
    1.2032    1.2482    3.2844 H   0  0  0  0  0  0  0  0  0  0  0  0
   -0.4042    0.8611    3.9289 H   0  0  0  0  0  0  0  0  0  0  0  0
    0.8230   -0.4168    3.7876 H   0  0  0  0  0  0  0  0  0  0  0  0
  1  2  1  0  0  0  0
  2  3  1  0  0  0  0
  2  4  1  0  0  0  0
  2  5  1  0  0  0  0
  5  6  2  0  0  0  0
  5  7  1  0  0  0  0
  7  8  1  0  0  0  0
  7  9  1  0  0  0  0
  9 10  1  0  0  0  0
  9 11  1  0  0  0  0
  9 21  1  0  0  0  0
 11 12  1  0  0  0  0
 11 13  1  0  0  0  0
 11 14  1  0  0  0  0
 14 15  1  0  0  0  0
 14 16  1  0  0  0  0
 14 17  1  0  0  0  0
 17 18  2  0  0  0  0
 17 19  1  0  0  0  0
 19 20  1  0  0  0  0
 21 22  2  0  0  0  0
 21 23  1  0  0  0  0
 23 24  1  0  0  0  0
 23 25  1  0  0  0  0
 25 26  1  0  0  0  0
 25 27  1  0  0  0  0
 25 28  1  0  0  0  0
M  END
$$$$

  -OEChem-03222214033D

 28 27  0     1  0  0  0  0  0999 V2000
   -2.6312   -4.1761    0.2903 H   0  0  0  0  0  0  0  0  0  0  0  0
   -2.6340   -3.1812   -0.1643 C   0  0  0  0  0  0  0  0  0  0  0  0
   -3.4244   -2.5854    0.2983 H   0  0  0  0  0  0  0  0  0  0  0  0
   -2.8404   -3.2840   -1.2325 H   0  0  0  0  0  0  0  0  0  0  0  0
   -1.2893   -2.5102    0.0423 C   0  0  0  0  0  0  0  0  0  0  0  0
   -0.4157   -3.0779    0.6714 O   0  0  0  0  0  0  0  0  0  0  0  0
   -1.0612   -1.2561   -0.4885 N   0  0  0  0  0  0  0  0  0  0  0  0
   -1.7985   -0.8659   -1.0680 H   0  0  0  0  0  0  0  0  0  0  0  0
    0.2414   -0.5635   -0.4510 C   0  0  1  0  0  0  0  0  0  0  0  0
    0.9839   -1.2043   -0.9403 H   0  0  0  0  0  0  0  0  0  0  0  0
    0.1128    0.7653   -1.2261 C   0  0  0  0  0  0  0  0  0  0  0  0
   -0.9409    1.0401   -1.3444 H   0  0  0  0  0  0  0  0  0  0  0  0
    0.5915    1.5739   -0.6605 H   0  0  0  0  0  0  0  0  0  0  0  0
    0.7987    0.6724   -2.6032 C   0  0  0  0  0  0  0  0  0  0  0  0
    1.8580    0.4375   -2.4619 H   0  0  0  0  0  0  0  0  0  0  0  0
    0.3506   -0.1364   -3.1858 H   0  0  0  0  0  0  0  0  0  0  0  0
    0.7079    1.9577   -3.4253 C   0  0  0  0  0  0  0  0  0  0  0  0
   -0.1081    2.8122   -3.1255 O   0  0  0  0  0  0  0  0  0  0  0  0
    1.5404    2.0709   -4.4811 O   0  0  0  0  0  0  0  0  0  0  0  0
    1.3408    2.9364   -4.8697 H   0  0  0  0  0  0  0  0  0  0  0  0
    0.7889   -0.3029    0.9715 C   0  0  0  0  0  0  0  0  0  0  0  0
    1.9984   -0.2905    1.1571 O   0  0  0  0  0  0  0  0  0  0  0  0
   -0.0479    0.1860    1.9582 N   0  0  0  0  0  0  0  0  0  0  0  0
   -1.0436    0.0883    1.7909 H   0  0  0  0  0  0  0  0  0  0  0  0
    0.4128    0.4772    3.3099 C   0  0  0  0  0  0  0  0  0  0  0  0
    1.2057    1.2324    3.2911 H   0  0  0  0  0  0  0  0  0  0  0  0
   -0.4125    0.8609    3.9171 H   0  0  0  0  0  0  0  0  0  0  0  0
    0.8021   -0.4300    3.7841 H   0  0  0  0  0  0  0  0  0  0  0  0
  1  2  1  0  0  0  0
  2  3  1  0  0  0  0
  2  4  1  0  0  0  0
  2  5  1  0  0  0  0
  5  6  2  0  0  0  0
  5  7  1  0  0  0  0
  7  8  1  0  0  0  0
  7  9  1  0  0  0  0
  9 10  1  0  0  0  0
  9 11  1  0  0  0  0
  9 21  1  0  0  0  0
 11 12  1  0  0  0  0
 11 13  1  0  0  0  0
 11 14  1  0  0  0  0
 14 15  1  0  0  0  0
 14 16  1  0  0  0  0
 14 17  1  0  0  0  0
 17 18  2  0  0  0  0
 17 19  1  0  0  0  0
 19 20  1  0  0  0  0
 21 22  2  0  0  0  0
 21 23  1  0  0  0  0
 23 24  1  0  0  0  0
 23 25  1  0  0  0  0
 25 26  1  0  0  0  0
 25 27  1  0  0  0  0
 25 28  1  0  0  0  0
M  END
$$$$

  -OEChem-03222214033D

 28 27  0     1  0  0  0  0  0999 V2000
   -2.6450   -4.1648    0.3239 H   0  0  0  0  0  0  0  0  0  0  0  0
   -2.6421   -3.1771   -0.1461 C   0  0  0  0  0  0  0  0  0  0  0  0
   -3.4274   -2.5689    0.3092 H   0  0  0  0  0  0  0  0  0  0  0  0
   -2.8526   -3.2957   -1.2117 H   0  0  0  0  0  0  0  0  0  0  0  0
   -1.2921   -2.5124    0.0465 C   0  0  0  0  0  0  0  0  0  0  0  0
   -0.4193   -3.0808    0.6761 O   0  0  0  0  0  0  0  0  0  0  0  0
   -1.0595   -1.2623   -0.4927 N   0  0  0  0  0  0  0  0  0  0  0  0
   -1.7947   -0.8747   -1.0764 H   0  0  0  0  0  0  0  0  0  0  0  0
    0.2464   -0.5756   -0.4615 C   0  0  1  0  0  0  0  0  0  0  0  0
    0.9851   -1.2223   -0.9482 H   0  0  0  0  0  0  0  0  0  0  0  0
    0.1139    0.7504   -1.2429 C   0  0  0  0  0  0  0  0  0  0  0  0
   -0.9354    1.0458   -1.3496 H   0  0  0  0  0  0  0  0  0  0  0  0
    0.6099    1.5470   -0.6747 H   0  0  0  0  0  0  0  0  0  0  0  0
    0.7880    0.6670   -2.6276 C   0  0  0  0  0  0  0  0  0  0  0  0
    1.7748    0.2067   -2.5219 H   0  0  0  0  0  0  0  0  0  0  0  0
    0.1951    0.0401   -3.2981 H   0  0  0  0  0  0  0  0  0  0  0  0
    0.9987    2.0331   -3.2785 C   0  0  0  0  0  0  0  0  0  0  0  0
    0.2474    2.9510   -2.9978 O   0  0  0  0  0  0  0  0  0  0  0  0
    2.0078    2.1493   -4.1670 O   0  0  0  0  0  0  0  0  0  0  0  0
    1.9817    3.0728   -4.4610 H   0  0  0  0  0  0  0  0  0  0  0  0
    0.7957   -0.3100    0.9599 C   0  0  0  0  0  0  0  0  0  0  0  0
    2.0050   -0.3061    1.1468 O   0  0  0  0  0  0  0  0  0  0  0  0
   -0.0383    0.1882    1.9445 N   0  0  0  0  0  0  0  0  0  0  0  0
   -1.0347    0.1001    1.7760 H   0  0  0  0  0  0  0  0  0  0  0  0
    0.4233    0.4848    3.2948 C   0  0  0  0  0  0  0  0  0  0  0  0
    1.2167    1.2395    3.2724 H   0  0  0  0  0  0  0  0  0  0  0  0
   -0.4016    0.8714    3.9006 H   0  0  0  0  0  0  0  0  0  0  0  0
    0.8117   -0.4207    3.7730 H   0  0  0  0  0  0  0  0  0  0  0  0
  1  2  1  0  0  0  0
  2  3  1  0  0  0  0
  2  4  1  0  0  0  0
  2  5  1  0  0  0  0
  5  6  2  0  0  0  0
  5  7  1  0  0  0  0
  7  8  1  0  0  0  0
  7  9  1  0  0  0  0
  9 10  1  0  0  0  0
  9 11  1  0  0  0  0
  9 21  1  0  0  0  0
 11 12  1  0  0  0  0
 11 13  1  0  0  0  0
 11 14  1  0  0  0  0
 14 15  1  0  0  0  0
 14 16  1  0  0  0  0
 14 17  1  0  0  0  0
 17 18  2  0  0  0  0
 17 19  1  0  0  0  0
 19 20  1  0  0  0  0
 21 22  2  0  0  0  0
 21 23  1  0  0  0  0
 23 24  1  0  0  0  0
 23 25  1  0  0  0  0
 25 26  1  0  0  0  0
 25 27  1  0  0  0  0
 25 28  1  0  0  0  0
M  END
$$$$

  -OEChem-03222214033D

 28 27  0     1  0  0  0  0  0999 V2000
   -2.6657   -4.1560    0.3428 H   0  0  0  0  0  0  0  0  0  0  0  0
   -2.6532   -3.1757   -0.1422 C   0  0  0  0  0  0  0  0  0  0  0  0
   -3.4387   -2.5564    0.2972 H   0  0  0  0  0  0  0  0  0  0  0  0
   -2.8556   -3.3095   -1.2076 H   0  0  0  0  0  0  0  0  0  0  0  0
   -1.3013   -2.5155    0.0512 C   0  0  0  0  0  0  0  0  0  0  0  0
   -0.4322   -3.0843    0.6856 O   0  0  0  0  0  0  0  0  0  0  0  0
   -1.0639   -1.2688   -0.4934 N   0  0  0  0  0  0  0  0  0  0  0  0
   -1.7967   -0.8839   -1.0817 H   0  0  0  0  0  0  0  0  0  0  0  0
    0.2462   -0.5903   -0.4728 C   0  0  1  0  0  0  0  0  0  0  0  0
    0.9774   -1.2449   -0.9597 H   0  0  0  0  0  0  0  0  0  0  0  0
    0.1109    0.7368   -1.2555 C   0  0  0  0  0  0  0  0  0  0  0  0
   -0.9358    1.0456   -1.3463 H   0  0  0  0  0  0  0  0  0  0  0  0
    0.6178    1.5232   -0.6823 H   0  0  0  0  0  0  0  0  0  0  0  0
    0.7667    0.6710   -2.6525 C   0  0  0  0  0  0  0  0  0  0  0  0
    1.6268   -0.0041   -2.6283 H   0  0  0  0  0  0  0  0  0  0  0  0
    0.0576    0.2800   -3.3859 H   0  0  0  0  0  0  0  0  0  0  0  0
    1.2894    2.0263   -3.1229 C   0  0  0  0  0  0  0  0  0  0  0  0
    0.6118    3.0189   -2.9209 O   0  0  0  0  0  0  0  0  0  0  0  0
    2.4760    2.0572   -3.7649 O   0  0  0  0  0  0  0  0  0  0  0  0
    2.6293    2.9923   -3.9696 H   0  0  0  0  0  0  0  0  0  0  0  0
    0.8065   -0.3234    0.9441 C   0  0  0  0  0  0  0  0  0  0  0  0
    2.0171   -0.3203    1.1213 O   0  0  0  0  0  0  0  0  0  0  0  0
   -0.0186    0.1832    1.9316 N   0  0  0  0  0  0  0  0  0  0  0  0
   -1.0165    0.0936    1.7733 H   0  0  0  0  0  0  0  0  0  0  0  0
    0.4564    0.4998    3.2727 C   0  0  0  0  0  0  0  0  0  0  0  0
    1.2464    1.2573    3.2307 H   0  0  0  0  0  0  0  0  0  0  0  0
   -0.3634    0.8916    3.8822 H   0  0  0  0  0  0  0  0  0  0  0  0
    0.8543   -0.3971    3.7590 H   0  0  0  0  0  0  0  0  0  0  0  0
  1  2  1  0  0  0  0
  2  3  1  0  0  0  0
  2  4  1  0  0  0  0
  2  5  1  0  0  0  0
  5  6  2  0  0  0  0
  5  7  1  0  0  0  0
  7  8  1  0  0  0  0
  7  9  1  0  0  0  0
  9 10  1  0  0  0  0
  9 11  1  0  0  0  0
  9 21  1  0  0  0  0
 11 12  1  0  0  0  0
 11 13  1  0  0  0  0
 11 14  1  0  0  0  0
 14 15  1  0  0  0  0
 14 16  1  0  0  0  0
 14 17  1  0  0  0  0
 17 18  2  0  0  0  0
 17 19  1  0  0  0  0
 19 20  1  0  0  0  0
 21 22  2  0  0  0  0
 21 23  1  0  0  0  0
 23 24  1  0  0  0  0
 23 25  1  0  0  0  0
 25 26  1  0  0  0  0
 25 27  1  0  0  0  0
 25 28  1  0  0  0  0
M  END
$$$$

  -OEChem-03222214033D

 28 27  0     1  0  0  0  0  0999 V2000
   -2.6581   -4.1550    0.3464 H   0  0  0  0  0  0  0  0  0  0  0  0
   -2.6489   -3.1751   -0.1395 C   0  0  0  0  0  0  0  0  0  0  0  0
   -3.4337   -2.5566    0.3024 H   0  0  0  0  0  0  0  0  0  0  0  0
   -2.8548   -3.3099   -1.2041 H   0  0  0  0  0  0  0  0  0  0  0  0
   -1.2969   -2.5132    0.0487 C   0  0  0  0  0  0  0  0  0  0  0  0
   -0.4243   -3.0823    0.6778 O   0  0  0  0  0  0  0  0  0  0  0  0
   -1.0631   -1.2654   -0.4954 N   0  0  0  0  0  0  0  0  0  0  0  0
   -1.7974   -0.8827   -1.0830 H   0  0  0  0  0  0  0  0  0  0  0  0
    0.2475   -0.5866   -0.4821 C   0  0  1  0  0  0  0  0  0  0  0  0
    0.9780   -1.2412   -0.9692 H   0  0  0  0  0  0  0  0  0  0  0  0
    0.1087    0.7448   -1.2599 C   0  0  0  0  0  0  0  0  0  0  0  0
   -0.9395    1.0503   -1.3418 H   0  0  0  0  0  0  0  0  0  0  0  0
    0.6105    1.5294   -0.6799 H   0  0  0  0  0  0  0  0  0  0  0  0
    0.7523    0.6963   -2.6669 C   0  0  0  0  0  0  0  0  0  0  0  0
    1.4199   -0.1645   -2.7564 H   0  0  0  0  0  0  0  0  0  0  0  0
   -0.0240    0.5858   -3.4279 H   0  0  0  0  0  0  0  0  0  0  0  0
    1.5840    1.9375   -2.9801 C   0  0  0  0  0  0  0  0  0  0  0  0
    1.0836    3.0339   -2.8011 O   0  0  0  0  0  0  0  0  0  0  0  0
    2.8328    1.7612   -3.4608 O   0  0  0  0  0  0  0  0  0  0  0  0
    3.1901    2.6553   -3.5740 H   0  0  0  0  0  0  0  0  0  0  0  0
    0.8134   -0.3238    0.9337 C   0  0  0  0  0  0  0  0  0  0  0  0
    2.0245   -0.3231    1.1076 O   0  0  0  0  0  0  0  0  0  0  0  0
   -0.0083    0.1797    1.9257 N   0  0  0  0  0  0  0  0  0  0  0  0
   -1.0067    0.0867    1.7716 H   0  0  0  0  0  0  0  0  0  0  0  0
    0.4719    0.4857    3.2674 C   0  0  0  0  0  0  0  0  0  0  0  0
    1.2700    1.2346    3.2274 H   0  0  0  0  0  0  0  0  0  0  0  0
   -0.3426    0.8840    3.8797 H   0  0  0  0  0  0  0  0  0  0  0  0
    0.8603   -0.4178    3.7493 H   0  0  0  0  0  0  0  0  0  0  0  0
  1  2  1  0  0  0  0
  2  3  1  0  0  0  0
  2  4  1  0  0  0  0
  2  5  1  0  0  0  0
  5  6  2  0  0  0  0
  5  7  1  0  0  0  0
  7  8  1  0  0  0  0
  7  9  1  0  0  0  0
  9 10  1  0  0  0  0
  9 11  1  0  0  0  0
  9 21  1  0  0  0  0
 11 12  1  0  0  0  0
 11 13  1  0  0  0  0
 11 14  1  0  0  0  0
 14 15  1  0  0  0  0
 14 16  1  0  0  0  0
 14 17  1  0  0  0  0
 17 18  2  0  0  0  0
 17 19  1  0  0  0  0
 19 20  1  0  0  0  0
 21 22  2  0  0  0  0
 21 23  1  0  0  0  0
 23 24  1  0  0  0  0
 23 25  1  0  0  0  0
 25 26  1  0  0  0  0
 25 27  1  0  0  0  0
 25 28  1  0  0  0  0
M  END
$$$$

  -OEChem-03222214033D

 28 27  0     1  0  0  0  0  0999 V2000
   -2.6464   -4.1586    0.3309 H   0  0  0  0  0  0  0  0  0  0  0  0
   -2.6394   -3.1803   -0.1582 C   0  0  0  0  0  0  0  0  0  0  0  0
   -3.4304   -2.5646    0.2763 H   0  0  0  0  0  0  0  0  0  0  0  0
   -2.8376   -3.3197   -1.2237 H   0  0  0  0  0  0  0  0  0  0  0  0
   -1.2926   -2.5099    0.0370 C   0  0  0  0  0  0  0  0  0  0  0  0
   -0.4174   -3.0764    0.6649 O   0  0  0  0  0  0  0  0  0  0  0  0
   -1.0669   -1.2578   -0.5007 N   0  0  0  0  0  0  0  0  0  0  0  0
   -1.8018   -0.8812   -1.0914 H   0  0  0  0  0  0  0  0  0  0  0  0
    0.2430   -0.5769   -0.4942 C   0  0  1  0  0  0  0  0  0  0  0  0
    0.9722   -1.2247   -0.9923 H   0  0  0  0  0  0  0  0  0  0  0  0
    0.1013    0.7633   -1.2561 C   0  0  0  0  0  0  0  0  0  0  0  0
   -0.9526    1.0481   -1.3378 H   0  0  0  0  0  0  0  0  0  0  0  0
    0.5843    1.5569   -0.6725 H   0  0  0  0  0  0  0  0  0  0  0  0
    0.7340    0.7255   -2.6684 C   0  0  0  0  0  0  0  0  0  0  0  0
    1.1463   -0.2610   -2.8948 H   0  0  0  0  0  0  0  0  0  0  0  0
   -0.0363    0.9293   -3.4167 H   0  0  0  0  0  0  0  0  0  0  0  0
    1.8436    1.7582   -2.8402 C   0  0  0  0  0  0  0  0  0  0  0  0
    1.5607    2.9375   -2.7234 O   0  0  0  0  0  0  0  0  0  0  0  0
    3.0867    1.3151   -3.1227 O   0  0  0  0  0  0  0  0  0  0  0  0
    3.6389    2.1110   -3.1590 H   0  0  0  0  0  0  0  0  0  0  0  0
    0.8215   -0.3229    0.9185 C   0  0  0  0  0  0  0  0  0  0  0  0
    2.0341   -0.3183    1.0807 O   0  0  0  0  0  0  0  0  0  0  0  0
    0.0090    0.1725    1.9223 N   0  0  0  0  0  0  0  0  0  0  0  0
   -0.9905    0.0763    1.7790 H   0  0  0  0  0  0  0  0  0  0  0  0
    0.5028    0.4746    3.2602 C   0  0  0  0  0  0  0  0  0  0  0  0
    1.2972    1.2272    3.2155 H   0  0  0  0  0  0  0  0  0  0  0  0
   -0.3067    0.8666    3.8831 H   0  0  0  0  0  0  0  0  0  0  0  0
    0.9006   -0.4293    3.7336 H   0  0  0  0  0  0  0  0  0  0  0  0
  1  2  1  0  0  0  0
  2  3  1  0  0  0  0
  2  4  1  0  0  0  0
  2  5  1  0  0  0  0
  5  6  2  0  0  0  0
  5  7  1  0  0  0  0
  7  8  1  0  0  0  0
  7  9  1  0  0  0  0
  9 10  1  0  0  0  0
  9 11  1  0  0  0  0
  9 21  1  0  0  0  0
 11 12  1  0  0  0  0
 11 13  1  0  0  0  0
 11 14  1  0  0  0  0
 14 15  1  0  0  0  0
 14 16  1  0  0  0  0
 14 17  1  0  0  0  0
 17 18  2  0  0  0  0
 17 19  1  0  0  0  0
 19 20  1  0  0  0  0
 21 22  2  0  0  0  0
 21 23  1  0  0  0  0
 23 24  1  0  0  0  0
 23 25  1  0  0  0  0
 25 26  1  0  0  0  0
 25 27  1  0  0  0  0
 25 28  1  0  0  0  0
M  END
$$$$

  -OEChem-03222214033D

 28 27  0     1  0  0  0  0  0999 V2000
   -2.6226   -4.1614    0.3102 H   0  0  0  0  0  0  0  0  0  0  0  0
   -2.6199   -3.1855   -0.1839 C   0  0  0  0  0  0  0  0  0  0  0  0
   -3.4193   -2.5744    0.2417 H   0  0  0  0  0  0  0  0  0  0  0  0
   -2.8091   -3.3323   -1.2500 H   0  0  0  0  0  0  0  0  0  0  0  0
   -1.2797   -2.5036    0.0168 C   0  0  0  0  0  0  0  0  0  0  0  0
   -0.3997   -3.0673    0.6402 O   0  0  0  0  0  0  0  0  0  0  0  0
   -1.0659   -1.2448   -0.5105 N   0  0  0  0  0  0  0  0  0  0  0  0
   -1.8026   -0.8741   -1.1026 H   0  0  0  0  0  0  0  0  0  0  0  0
    0.2409   -0.5572   -0.5080 C   0  0  1  0  0  0  0  0  0  0  0  0
    0.9705   -1.1928   -1.0226 H   0  0  0  0  0  0  0  0  0  0  0  0
    0.0942    0.7924   -1.2501 C   0  0  0  0  0  0  0  0  0  0  0  0
   -0.9646    1.0562   -1.3348 H   0  0  0  0  0  0  0  0  0  0  0  0
    0.5616    1.5957   -0.6669 H   0  0  0  0  0  0  0  0  0  0  0  0
    0.7209    0.7560   -2.6613 C   0  0  0  0  0  0  0  0  0  0  0  0
    0.8635   -0.2696   -3.0118 H   0  0  0  0  0  0  0  0  0  0  0  0
    0.0428    1.2442   -3.3663 H   0  0  0  0  0  0  0  0  0  0  0  0
    2.0486    1.5025   -2.7167 C   0  0  0  0  0  0  0  0  0  0  0  0
    2.0353    2.7180   -2.6380 O   0  0  0  0  0  0  0  0  0  0  0  0
    3.1776    0.7753   -2.8452 O   0  0  0  0  0  0  0  0  0  0  0  0
    3.9017    1.4183   -2.8009 H   0  0  0  0  0  0  0  0  0  0  0  0
    0.8303   -0.3145    0.9021 C   0  0  0  0  0  0  0  0  0  0  0  0
    2.0441   -0.3032    1.0547 O   0  0  0  0  0  0  0  0  0  0  0  0
    0.0226    0.1667    1.9167 N   0  0  0  0  0  0  0  0  0  0  0  0
   -0.9770    0.0586    1.7824 H   0  0  0  0  0  0  0  0  0  0  0  0
    0.5251    0.4543    3.2545 C   0  0  0  0  0  0  0  0  0  0  0  0
    1.3124    1.2147    3.2136 H   0  0  0  0  0  0  0  0  0  0  0  0
   -0.2824    0.8301    3.8899 H   0  0  0  0  0  0  0  0  0  0  0  0
    0.9348   -0.4524    3.7121 H   0  0  0  0  0  0  0  0  0  0  0  0
  1  2  1  0  0  0  0
  2  3  1  0  0  0  0
  2  4  1  0  0  0  0
  2  5  1  0  0  0  0
  5  6  2  0  0  0  0
  5  7  1  0  0  0  0
  7  8  1  0  0  0  0
  7  9  1  0  0  0  0
  9 10  1  0  0  0  0
  9 11  1  0  0  0  0
  9 21  1  0  0  0  0
 11 12  1  0  0  0  0
 11 13  1  0  0  0  0
 11 14  1  0  0  0  0
 14 15  1  0  0  0  0
 14 16  1  0  0  0  0
 14 17  1  0  0  0  0
 17 18  2  0  0  0  0
 17 19  1  0  0  0  0
 19 20  1  0  0  0  0
 21 22  2  0  0  0  0
 21 23  1  0  0  0  0
 23 24  1  0  0  0  0
 23 25  1  0  0  0  0
 25 26  1  0  0  0  0
 25 27  1  0  0  0  0
 25 28  1  0  0  0  0
M  END
$$$$

  -OEChem-03222214033D

 28 27  0     1  0  0  0  0  0999 V2000
   -2.6007   -4.1582    0.2890 H   0  0  0  0  0  0  0  0  0  0  0  0
   -2.6009   -3.1852   -0.2107 C   0  0  0  0  0  0  0  0  0  0  0  0
   -3.4012   -2.5736    0.2128 H   0  0  0  0  0  0  0  0  0  0  0  0
   -2.7911   -3.3381   -1.2757 H   0  0  0  0  0  0  0  0  0  0  0  0
   -1.2619   -2.4995   -0.0154 C   0  0  0  0  0  0  0  0  0  0  0  0
   -0.3765   -3.0632    0.6004 O   0  0  0  0  0  0  0  0  0  0  0  0
   -1.0591   -1.2328   -0.5279 N   0  0  0  0  0  0  0  0  0  0  0  0
   -1.8006   -0.8594   -1.1122 H   0  0  0  0  0  0  0  0  0  0  0  0
    0.2437   -0.5376   -0.5233 C   0  0  1  0  0  0  0  0  0  0  0  0
    0.9723   -1.1632   -1.0524 H   0  0  0  0  0  0  0  0  0  0  0  0
    0.0913    0.8192   -1.2499 C   0  0  0  0  0  0  0  0  0  0  0  0
   -0.9692    1.0765   -1.3350 H   0  0  0  0  0  0  0  0  0  0  0  0
    0.5588    1.6231   -0.6675 H   0  0  0  0  0  0  0  0  0  0  0  0
    0.7182    0.7849   -2.6564 C   0  0  0  0  0  0  0  0  0  0  0  0
    0.6220   -0.2055   -3.1098 H   0  0  0  0  0  0  0  0  0  0  0  0
    0.1918    1.4930   -3.3026 H   0  0  0  0  0  0  0  0  0  0  0  0
    2.1840    1.1980   -2.6184 C   0  0  0  0  0  0  0  0  0  0  0  0
    2.4527    2.3856   -2.5990 O   0  0  0  0  0  0  0  0  0  0  0  0
    3.1129    0.2202   -2.5913 O   0  0  0  0  0  0  0  0  0  0  0  0
    3.9619    0.6763   -2.4851 H   0  0  0  0  0  0  0  0  0  0  0  0
    0.8392   -0.3096    0.8861 C   0  0  0  0  0  0  0  0  0  0  0  0
    2.0538   -0.2826    1.0314 O   0  0  0  0  0  0  0  0  0  0  0  0
    0.0324    0.1537    1.9097 N   0  0  0  0  0  0  0  0  0  0  0  0
   -0.9659    0.0279    1.7817 H   0  0  0  0  0  0  0  0  0  0  0  0
    0.5394    0.4254    3.2490 C   0  0  0  0  0  0  0  0  0  0  0  0
    1.3174    1.1954    3.2154 H   0  0  0  0  0  0  0  0  0  0  0  0
   -0.2684    0.7810    3.8955 H   0  0  0  0  0  0  0  0  0  0  0  0
    0.9629   -0.4837    3.6888 H   0  0  0  0  0  0  0  0  0  0  0  0
  1  2  1  0  0  0  0
  2  3  1  0  0  0  0
  2  4  1  0  0  0  0
  2  5  1  0  0  0  0
  5  6  2  0  0  0  0
  5  7  1  0  0  0  0
  7  8  1  0  0  0  0
  7  9  1  0  0  0  0
  9 10  1  0  0  0  0
  9 11  1  0  0  0  0
  9 21  1  0  0  0  0
 11 12  1  0  0  0  0
 11 13  1  0  0  0  0
 11 14  1  0  0  0  0
 14 15  1  0  0  0  0
 14 16  1  0  0  0  0
 14 17  1  0  0  0  0
 17 18  2  0  0  0  0
 17 19  1  0  0  0  0
 19 20  1  0  0  0  0
 21 22  2  0  0  0  0
 21 23  1  0  0  0  0
 23 24  1  0  0  0  0
 23 25  1  0  0  0  0
 25 26  1  0  0  0  0
 25 27  1  0  0  0  0
 25 28  1  0  0  0  0
M  END
$$$$

  -OEChem-03222214033D

 28 27  0     1  0  0  0  0  0999 V2000
   -2.5757   -4.1833    0.2002 H   0  0  0  0  0  0  0  0  0  0  0  0
   -2.5816   -3.1953   -0.2694 C   0  0  0  0  0  0  0  0  0  0  0  0
   -3.4039   -2.6116    0.1510 H   0  0  0  0  0  0  0  0  0  0  0  0
   -2.7411   -3.3188   -1.3433 H   0  0  0  0  0  0  0  0  0  0  0  0
   -1.2614   -2.4910   -0.0187 C   0  0  0  0  0  0  0  0  0  0  0  0
   -0.3934   -3.0442    0.6304 O   0  0  0  0  0  0  0  0  0  0  0  0
   -1.0555   -1.2222   -0.5249 N   0  0  0  0  0  0  0  0  0  0  0  0
   -1.7811   -0.8621   -1.1369 H   0  0  0  0  0  0  0  0  0  0  0  0
    0.2474   -0.5271   -0.5064 C   0  0  1  0  0  0  0  0  0  0  0  0
    0.9736   -1.1573   -1.0324 H   0  0  0  0  0  0  0  0  0  0  0  0
    0.0961    0.8272   -1.2402 C   0  0  0  0  0  0  0  0  0  0  0  0
   -0.9629    1.0889   -1.3302 H   0  0  0  0  0  0  0  0  0  0  0  0
    0.5686    1.6288   -0.6587 H   0  0  0  0  0  0  0  0  0  0  0  0
    0.7344    0.7998   -2.6405 C   0  0  0  0  0  0  0  0  0  0  0  0
    0.4322   -0.1008   -3.1817 H   0  0  0  0  0  0  0  0  0  0  0  0
    0.3880    1.6637   -3.2149 H   0  0  0  0  0  0  0  0  0  0  0  0
    2.2560    0.8617   -2.5663 C   0  0  0  0  0  0  0  0  0  0  0  0
    2.7853    1.9543   -2.4752 O   0  0  0  0  0  0  0  0  0  0  0  0
    2.9409   -0.3004   -2.5996 O   0  0  0  0  0  0  0  0  0  0  0  0
    3.8675   -0.0519   -2.4562 H   0  0  0  0  0  0  0  0  0  0  0  0
    0.8400   -0.2996    0.9040 C   0  0  0  0  0  0  0  0  0  0  0  0
    2.0546   -0.2841    1.0519 O   0  0  0  0  0  0  0  0  0  0  0  0
    0.0330    0.1631    1.9276 N   0  0  0  0  0  0  0  0  0  0  0  0
   -0.9654    0.0394    1.7968 H   0  0  0  0  0  0  0  0  0  0  0  0
    0.5375    0.4157    3.2718 C   0  0  0  0  0  0  0  0  0  0  0  0
    1.3527    1.1467    3.2458 H   0  0  0  0  0  0  0  0  0  0  0  0
   -0.2595    0.8139    3.9068 H   0  0  0  0  0  0  0  0  0  0  0  0
    0.9107   -0.5115    3.7197 H   0  0  0  0  0  0  0  0  0  0  0  0
  1  2  1  0  0  0  0
  2  3  1  0  0  0  0
  2  4  1  0  0  0  0
  2  5  1  0  0  0  0
  5  6  2  0  0  0  0
  5  7  1  0  0  0  0
  7  8  1  0  0  0  0
  7  9  1  0  0  0  0
  9 10  1  0  0  0  0
  9 11  1  0  0  0  0
  9 21  1  0  0  0  0
 11 12  1  0  0  0  0
 11 13  1  0  0  0  0
 11 14  1  0  0  0  0
 14 15  1  0  0  0  0
 14 16  1  0  0  0  0
 14 17  1  0  0  0  0
 17 18  2  0  0  0  0
 17 19  1  0  0  0  0
 19 20  1  0  0  0  0
 21 22  2  0  0  0  0
 21 23  1  0  0  0  0
 23 24  1  0  0  0  0
 23 25  1  0  0  0  0
 25 26  1  0  0  0  0
 25 27  1  0  0  0  0
 25 28  1  0  0  0  0
M  END
$$$$

  -OEChem-03222214033D

 28 27  0     1  0  0  0  0  0999 V2000
   -2.5885   -4.1726    0.1918 H   0  0  0  0  0  0  0  0  0  0  0  0
   -2.5814   -3.1848   -0.2782 C   0  0  0  0  0  0  0  0  0  0  0  0
   -3.4017   -2.5930    0.1349 H   0  0  0  0  0  0  0  0  0  0  0  0
   -2.7327   -3.3076   -1.3533 H   0  0  0  0  0  0  0  0  0  0  0  0
   -1.2571   -2.4928   -0.0157 C   0  0  0  0  0  0  0  0  0  0  0  0
   -0.4046   -3.0492    0.6511 O   0  0  0  0  0  0  0  0  0  0  0  0
   -1.0328   -1.2287   -0.5257 N   0  0  0  0  0  0  0  0  0  0  0  0
   -1.7426   -0.8685   -1.1559 H   0  0  0  0  0  0  0  0  0  0  0  0
    0.2733   -0.5413   -0.4825 C   0  0  1  0  0  0  0  0  0  0  0  0
    1.0036   -1.1830   -0.9851 H   0  0  0  0  0  0  0  0  0  0  0  0
    0.1327    0.8094   -1.2294 C   0  0  0  0  0  0  0  0  0  0  0  0
   -0.9223    1.0867   -1.3192 H   0  0  0  0  0  0  0  0  0  0  0  0
    0.6151    1.5991   -0.6407 H   0  0  0  0  0  0  0  0  0  0  0  0
    0.7848    0.8139   -2.6260 C   0  0  0  0  0  0  0  0  0  0  0  0
    0.3064    0.0604   -3.2571 H   0  0  0  0  0  0  0  0  0  0  0  0
    0.6287    1.7882   -3.0975 H   0  0  0  0  0  0  0  0  0  0  0  0
    2.2840    0.5325   -2.5895 C   0  0  0  0  0  0  0  0  0  0  0  0
    3.0332    1.4620   -2.3547 O   0  0  0  0  0  0  0  0  0  0  0  0
    2.7094   -0.7252   -2.8324 O   0  0  0  0  0  0  0  0  0  0  0  0
    3.6704   -0.6918   -2.7023 H   0  0  0  0  0  0  0  0  0  0  0  0
    0.8307   -0.3102    0.9417 C   0  0  0  0  0  0  0  0  0  0  0  0
    2.0399   -0.3242    1.1264 O   0  0  0  0  0  0  0  0  0  0  0  0
    0.0011    0.1627    1.9424 N   0  0  0  0  0  0  0  0  0  0  0  0
   -0.9946    0.0535    1.7825 H   0  0  0  0  0  0  0  0  0  0  0  0
    0.4700    0.4008    3.3020 C   0  0  0  0  0  0  0  0  0  0  0  0
    1.2983    1.1174    3.3035 H   0  0  0  0  0  0  0  0  0  0  0  0
   -0.3385    0.8102    3.9151 H   0  0  0  0  0  0  0  0  0  0  0  0
    0.8135   -0.5344    3.7563 H   0  0  0  0  0  0  0  0  0  0  0  0
  1  2  1  0  0  0  0
  2  3  1  0  0  0  0
  2  4  1  0  0  0  0
  2  5  1  0  0  0  0
  5  6  2  0  0  0  0
  5  7  1  0  0  0  0
  7  8  1  0  0  0  0
  7  9  1  0  0  0  0
  9 10  1  0  0  0  0
  9 11  1  0  0  0  0
  9 21  1  0  0  0  0
 11 12  1  0  0  0  0
 11 13  1  0  0  0  0
 11 14  1  0  0  0  0
 14 15  1  0  0  0  0
 14 16  1  0  0  0  0
 14 17  1  0  0  0  0
 17 18  2  0  0  0  0
 17 19  1  0  0  0  0
 19 20  1  0  0  0  0
 21 22  2  0  0  0  0
 21 23  1  0  0  0  0
 23 24  1  0  0  0  0
 23 25  1  0  0  0  0
 25 26  1  0  0  0  0
 25 27  1  0  0  0  0
 25 28  1  0  0  0  0
M  END
$$$$

  -OEChem-03222214033D

 28 27  0     1  0  0  0  0  0999 V2000
   -2.6169   -4.1616    0.1872 H   0  0  0  0  0  0  0  0  0  0  0  0
   -2.5904   -3.1741   -0.2822 C   0  0  0  0  0  0  0  0  0  0  0  0
   -3.4121   -2.5738    0.1152 H   0  0  0  0  0  0  0  0  0  0  0  0
   -2.7223   -3.2949   -1.3601 H   0  0  0  0  0  0  0  0  0  0  0  0
   -1.2648   -2.4953    0.0065 C   0  0  0  0  0  0  0  0  0  0  0  0
   -0.4393   -3.0519    0.7063 O   0  0  0  0  0  0  0  0  0  0  0  0
   -1.0111   -1.2422   -0.5167 N   0  0  0  0  0  0  0  0  0  0  0  0
   -1.6924   -0.8927   -1.1831 H   0  0  0  0  0  0  0  0  0  0  0  0
    0.3025   -0.5710   -0.4524 C   0  0  1  0  0  0  0  0  0  0  0  0
    1.0381   -1.2283   -0.9228 H   0  0  0  0  0  0  0  0  0  0  0  0
    0.1829    0.7768   -1.2129 C   0  0  0  0  0  0  0  0  0  0  0  0
   -0.8660    1.0787   -1.2968 H   0  0  0  0  0  0  0  0  0  0  0  0
    0.6807    1.5502   -0.6157 H   0  0  0  0  0  0  0  0  0  0  0  0
    0.8430    0.8163   -2.6099 C   0  0  0  0  0  0  0  0  0  0  0  0
    0.2117    0.2664   -3.3129 H   0  0  0  0  0  0  0  0  0  0  0  0
    0.8928    1.8525   -2.9567 H   0  0  0  0  0  0  0  0  0  0  0  0
    2.2423    0.2122   -2.6848 C   0  0  0  0  0  0  0  0  0  0  0  0
    3.1881    0.9266   -2.4129 O   0  0  0  0  0  0  0  0  0  0  0  0
    2.3689   -1.0741   -3.0760 O   0  0  0  0  0  0  0  0  0  0  0  0
    3.3208   -1.2559   -3.0218 H   0  0  0  0  0  0  0  0  0  0  0  0
    0.8195   -0.3300    0.9862 C   0  0  0  0  0  0  0  0  0  0  0  0
    2.0213   -0.3598    1.2107 O   0  0  0  0  0  0  0  0  0  0  0  0
   -0.0341    0.1658    1.9554 N   0  0  0  0  0  0  0  0  0  0  0  0
   -1.0255    0.0630    1.7670 H   0  0  0  0  0  0  0  0  0  0  0  0
    0.3955    0.4084    3.3272 C   0  0  0  0  0  0  0  0  0  0  0  0
    1.2243    1.1240    3.3494 H   0  0  0  0  0  0  0  0  0  0  0  0
   -0.4295    0.8207    3.9157 H   0  0  0  0  0  0  0  0  0  0  0  0
    0.7247   -0.5255    3.7949 H   0  0  0  0  0  0  0  0  0  0  0  0
  1  2  1  0  0  0  0
  2  3  1  0  0  0  0
  2  4  1  0  0  0  0
  2  5  1  0  0  0  0
  5  6  2  0  0  0  0
  5  7  1  0  0  0  0
  7  8  1  0  0  0  0
  7  9  1  0  0  0  0
  9 10  1  0  0  0  0
  9 11  1  0  0  0  0
  9 21  1  0  0  0  0
 11 12  1  0  0  0  0
 11 13  1  0  0  0  0
 11 14  1  0  0  0  0
 14 15  1  0  0  0  0
 14 16  1  0  0  0  0
 14 17  1  0  0  0  0
 17 18  2  0  0  0  0
 17 19  1  0  0  0  0
 19 20  1  0  0  0  0
 21 22  2  0  0  0  0
 21 23  1  0  0  0  0
 23 24  1  0  0  0  0
 23 25  1  0  0  0  0
 25 26  1  0  0  0  0
 25 27  1  0  0  0  0
 25 28  1  0  0  0  0
M  END
$$$$

  -OEChem-03222214033D

 28 27  0     1  0  0  0  0  0999 V2000
   -2.6489   -4.1533    0.1822 H   0  0  0  0  0  0  0  0  0  0  0  0
   -2.6028   -3.1699   -0.2948 C   0  0  0  0  0  0  0  0  0  0  0  0
   -3.4344   -2.5628    0.0705 H   0  0  0  0  0  0  0  0  0  0  0  0
   -2.7006   -3.3001   -1.3752 H   0  0  0  0  0  0  0  0  0  0  0  0
   -1.2837   -2.4945    0.0299 C   0  0  0  0  0  0  0  0  0  0  0  0
   -0.4872   -3.0461    0.7664 O   0  0  0  0  0  0  0  0  0  0  0  0
   -1.0010   -1.2531   -0.5069 N   0  0  0  0  0  0  0  0  0  0  0  0
   -1.6500   -0.9196   -1.2128 H   0  0  0  0  0  0  0  0  0  0  0  0
    0.3225   -0.6029   -0.4268 C   0  0  1  0  0  0  0  0  0  0  0  0
    1.0611   -1.2764   -0.8667 H   0  0  0  0  0  0  0  0  0  0  0  0
    0.2336    0.7452   -1.1955 C   0  0  0  0  0  0  0  0  0  0  0  0
   -0.8077    1.0728   -1.2759 H   0  0  0  0  0  0  0  0  0  0  0  0
    0.7454    1.5022   -0.5893 H   0  0  0  0  0  0  0  0  0  0  0  0
    0.9013    0.8083   -2.5921 C   0  0  0  0  0  0  0  0  0  0  0  0
    0.1597    0.5129   -3.3387 H   0  0  0  0  0  0  0  0  0  0  0  0
    1.1822    1.8431   -2.8091 H   0  0  0  0  0  0  0  0  0  0  0  0
    2.1204   -0.0821   -2.8119 C   0  0  0  0  0  0  0  0  0  0  0  0
    3.2219    0.3895   -2.6058 O   0  0  0  0  0  0  0  0  0  0  0  0
    1.9219   -1.3419   -3.2570 O   0  0  0  0  0  0  0  0  0  0  0  0
    2.8115   -1.7270   -3.3095 H   0  0  0  0  0  0  0  0  0  0  0  0
    0.8088   -0.3529    1.0215 C   0  0  0  0  0  0  0  0  0  0  0  0
    2.0048   -0.3886    1.2743 O   0  0  0  0  0  0  0  0  0  0  0  0
   -0.0611    0.1687    1.9622 N   0  0  0  0  0  0  0  0  0  0  0  0
   -1.0489    0.0727    1.7523 H   0  0  0  0  0  0  0  0  0  0  0  0
    0.3396    0.4310    3.3389 C   0  0  0  0  0  0  0  0  0  0  0  0
    1.1678    1.1471    3.3677 H   0  0  0  0  0  0  0  0  0  0  0  0
   -0.4977    0.8514    3.9039 H   0  0  0  0  0  0  0  0  0  0  0  0
    0.6588   -0.4960    3.8268 H   0  0  0  0  0  0  0  0  0  0  0  0
  1  2  1  0  0  0  0
  2  3  1  0  0  0  0
  2  4  1  0  0  0  0
  2  5  1  0  0  0  0
  5  6  2  0  0  0  0
  5  7  1  0  0  0  0
  7  8  1  0  0  0  0
  7  9  1  0  0  0  0
  9 10  1  0  0  0  0
  9 11  1  0  0  0  0
  9 21  1  0  0  0  0
 11 12  1  0  0  0  0
 11 13  1  0  0  0  0
 11 14  1  0  0  0  0
 14 15  1  0  0  0  0
 14 16  1  0  0  0  0
 14 17  1  0  0  0  0
 17 18  2  0  0  0  0
 17 19  1  0  0  0  0
 19 20  1  0  0  0  0
 21 22  2  0  0  0  0
 21 23  1  0  0  0  0
 23 24  1  0  0  0  0
 23 25  1  0  0  0  0
 25 26  1  0  0  0  0
 25 27  1  0  0  0  0
 25 28  1  0  0  0  0
M  END
$$$$

  -OEChem-03222214033D

 28 27  0     1  0  0  0  0  0999 V2000
   -2.1831   -4.1443   -0.6996 H   0  0  0  0  0  0  0  0  0  0  0  0
   -2.5439   -3.1141   -0.6276 C   0  0  0  0  0  0  0  0  0  0  0  0
   -3.2819   -3.0557    0.1759 H   0  0  0  0  0  0  0  0  0  0  0  0
   -3.0199   -2.8428   -1.5730 H   0  0  0  0  0  0  0  0  0  0  0  0
   -1.3863   -2.1761   -0.3416 C   0  0  0  0  0  0  0  0  0  0  0  0
   -0.2755   -2.6312   -0.1595 O   0  0  0  0  0  0  0  0  0  0  0  0
   -1.6280   -0.8285   -0.1655 N   0  0  0  0  0  0  0  0  0  0  0  0
   -2.5952   -0.5523   -0.3066 H   0  0  0  0  0  0  0  0  0  0  0  0
   -0.6156    0.2455   -0.2754 C   0  0  1  0  0  0  0  0  0  0  0  0
   -1.1262    1.1354    0.1061 H   0  0  0  0  0  0  0  0  0  0  0  0
   -0.4079    0.5461   -1.7972 C   0  0  0  0  0  0  0  0  0  0  0  0
   -1.3112    0.2479   -2.3391 H   0  0  0  0  0  0  0  0  0  0  0  0
   -0.3777    1.6403   -1.8435 H   0  0  0  0  0  0  0  0  0  0  0  0
    0.8162    0.1073   -2.6616 C   0  0  0  0  0  0  0  0  0  0  0  0
    0.4762   -0.7234   -3.2849 H   0  0  0  0  0  0  0  0  0  0  0  0
    1.0613    0.9298   -3.3402 H   0  0  0  0  0  0  0  0  0  0  0  0
    2.1222   -0.3846   -2.0446 C   0  0  0  0  0  0  0  0  0  0  0  0
    3.1229    0.2842   -2.2394 O   0  0  0  0  0  0  0  0  0  0  0  0
    2.1458   -1.5874   -1.4415 O   0  0  0  0  0  0  0  0  0  0  0  0
    3.0436   -1.6711   -1.0898 H   0  0  0  0  0  0  0  0  0  0  0  0
    0.5866    0.1597    0.6977 C   0  0  0  0  0  0  0  0  0  0  0  0
    1.6003    0.8090    0.4845 O   0  0  0  0  0  0  0  0  0  0  0  0
    0.3199   -0.1386    2.0220 N   0  0  0  0  0  0  0  0  0  0  0  0
   -0.4777   -0.7502    2.1675 H   0  0  0  0  0  0  0  0  0  0  0  0
    1.3389   -0.0801    3.0640 C   0  0  0  0  0  0  0  0  0  0  0  0
    1.7087    0.9439    3.1825 H   0  0  0  0  0  0  0  0  0  0  0  0
    0.9200   -0.4067    4.0205 H   0  0  0  0  0  0  0  0  0  0  0  0
    2.1821   -0.7320    2.8121 H   0  0  0  0  0  0  0  0  0  0  0  0
  1  2  1  0  0  0  0
  2  3  1  0  0  0  0
  2  4  1  0  0  0  0
  2  5  1  0  0  0  0
  5  6  2  0  0  0  0
  5  7  1  0  0  0  0
  7  8  1  0  0  0  0
  7  9  1  0  0  0  0
  9 10  1  0  0  0  0
  9 11  1  0  0  0  0
  9 21  1  0  0  0  0
 11 12  1  0  0  0  0
 11 13  1  0  0  0  0
 11 14  1  0  0  0  0
 14 15  1  0  0  0  0
 14 16  1  0  0  0  0
 14 17  1  0  0  0  0
 17 18  2  0  0  0  0
 17 19  1  0  0  0  0
 19 20  1  0  0  0  0
 21 22  2  0  0  0  0
 21 23  1  0  0  0  0
 23 24  1  0  0  0  0
 23 25  1  0  0  0  0
 25 26  1  0  0  0  0
 25 27  1  0  0  0  0
 25 28  1  0  0  0  0
M  END
$$$$

  -OEChem-03222214033D

 28 27  0     1  0  0  0  0  0999 V2000
   -2.7002   -4.1544    0.4824 H   0  0  0  0  0  0  0  0  0  0  0  0
   -2.6310   -3.2441   -0.1201 C   0  0  0  0  0  0  0  0  0  0  0  0
   -3.4967   -2.6133    0.0949 H   0  0  0  0  0  0  0  0  0  0  0  0
   -2.6425   -3.5217   -1.1770 H   0  0  0  0  0  0  0  0  0  0  0  0
   -1.3500   -2.4993    0.2048 C   0  0  0  0  0  0  0  0  0  0  0  0
   -0.5696   -2.9644    1.0156 O   0  0  0  0  0  0  0  0  0  0  0  0
   -1.0899   -1.2915   -0.4139 N   0  0  0  0  0  0  0  0  0  0  0  0
   -1.7045   -1.0795   -1.1947 H   0  0  0  0  0  0  0  0  0  0  0  0
    0.2456   -0.6629   -0.4396 C   0  0  1  0  0  0  0  0  0  0  0  0
    0.9578   -1.3654   -0.8794 H   0  0  0  0  0  0  0  0  0  0  0  0
    0.1413    0.6632   -1.2482 C   0  0  0  0  0  0  0  0  0  0  0  0
   -0.9048    0.9842   -1.2867 H   0  0  0  0  0  0  0  0  0  0  0  0
    0.6746    1.4459   -0.6957 H   0  0  0  0  0  0  0  0  0  0  0  0
    0.7205    0.6791   -2.6890 C   0  0  0  0  0  0  0  0  0  0  0  0
   -0.0734    0.9592   -3.3868 H   0  0  0  0  0  0  0  0  0  0  0  0
    1.4855    1.4590   -2.7475 H   0  0  0  0  0  0  0  0  0  0  0  0
    1.3459   -0.6139   -3.2007 C   0  0  0  0  0  0  0  0  0  0  0  0
    0.5960   -1.5218   -3.5164 O   0  0  0  0  0  0  0  0  0  0  0  0
    2.6905   -0.6970   -3.2718 O   0  0  0  0  0  0  0  0  0  0  0  0
    2.8792   -1.5962   -3.5812 H   0  0  0  0  0  0  0  0  0  0  0  0
    0.8163   -0.3487    0.9650 C   0  0  0  0  0  0  0  0  0  0  0  0
    2.0281   -0.3576    1.1377 O   0  0  0  0  0  0  0  0  0  0  0  0
    0.0075    0.2354    1.9232 N   0  0  0  0  0  0  0  0  0  0  0  0
   -0.9898    0.1042    1.7871 H   0  0  0  0  0  0  0  0  0  0  0  0
    0.4895    0.5535    3.2614 C   0  0  0  0  0  0  0  0  0  0  0  0
    1.3187    1.2673    3.2117 H   0  0  0  0  0  0  0  0  0  0  0  0
   -0.3128    0.9998    3.8565 H   0  0  0  0  0  0  0  0  0  0  0  0
    0.8360   -0.3537    3.7679 H   0  0  0  0  0  0  0  0  0  0  0  0
  1  2  1  0  0  0  0
  2  3  1  0  0  0  0
  2  4  1  0  0  0  0
  2  5  1  0  0  0  0
  5  6  2  0  0  0  0
  5  7  1  0  0  0  0
  7  8  1  0  0  0  0
  7  9  1  0  0  0  0
  9 10  1  0  0  0  0
  9 11  1  0  0  0  0
  9 21  1  0  0  0  0
 11 12  1  0  0  0  0
 11 13  1  0  0  0  0
 11 14  1  0  0  0  0
 14 15  1  0  0  0  0
 14 16  1  0  0  0  0
 14 17  1  0  0  0  0
 17 18  2  0  0  0  0
 17 19  1  0  0  0  0
 19 20  1  0  0  0  0
 21 22  2  0  0  0  0
 21 23  1  0  0  0  0
 23 24  1  0  0  0  0
 23 25  1  0  0  0  0
 25 26  1  0  0  0  0
 25 27  1  0  0  0  0
 25 28  1  0  0  0  0
M  END
$$$$

  -OEChem-03222214033D

 28 27  0     1  0  0  0  0  0999 V2000
   -2.6471   -4.1982    0.3576 H   0  0  0  0  0  0  0  0  0  0  0  0
   -2.6252   -3.2348   -0.1597 C   0  0  0  0  0  0  0  0  0  0  0  0
   -3.4980   -2.6516    0.1432 H   0  0  0  0  0  0  0  0  0  0  0  0
   -2.6703   -3.4148   -1.2366 H   0  0  0  0  0  0  0  0  0  0  0  0
   -1.3532   -2.4851    0.1866 C   0  0  0  0  0  0  0  0  0  0  0  0
   -0.5780   -2.9535    1.0008 O   0  0  0  0  0  0  0  0  0  0  0  0
   -1.0951   -1.2704   -0.4182 N   0  0  0  0  0  0  0  0  0  0  0  0
   -1.6930   -1.0705   -1.2163 H   0  0  0  0  0  0  0  0  0  0  0  0
    0.2412   -0.6439   -0.4389 C   0  0  1  0  0  0  0  0  0  0  0  0
    0.9553   -1.3364   -0.8934 H   0  0  0  0  0  0  0  0  0  0  0  0
    0.1418    0.6917   -1.2294 C   0  0  0  0  0  0  0  0  0  0  0  0
   -0.9096    0.9931   -1.2831 H   0  0  0  0  0  0  0  0  0  0  0  0
    0.6555    1.4832   -0.6711 H   0  0  0  0  0  0  0  0  0  0  0  0
    0.7256    0.6991   -2.6667 C   0  0  0  0  0  0  0  0  0  0  0  0
    0.0561    1.2533   -3.3297 H   0  0  0  0  0  0  0  0  0  0  0  0
    1.6761    1.2405   -2.6440 H   0  0  0  0  0  0  0  0  0  0  0  0
    1.0054   -0.6637   -3.2945 C   0  0  0  0  0  0  0  0  0  0  0  0
    0.0565   -1.4060   -3.4863 O   0  0  0  0  0  0  0  0  0  0  0  0
    2.2790   -0.9863   -3.6028 O   0  0  0  0  0  0  0  0  0  0  0  0
    2.2401   -1.8859   -3.9622 H   0  0  0  0  0  0  0  0  0  0  0  0
    0.8165   -0.3472    0.9673 C   0  0  0  0  0  0  0  0  0  0  0  0
    2.0292   -0.3571    1.1344 O   0  0  0  0  0  0  0  0  0  0  0  0
    0.0111    0.2269    1.9343 N   0  0  0  0  0  0  0  0  0  0  0  0
   -0.9865    0.0953    1.8002 H   0  0  0  0  0  0  0  0  0  0  0  0
    0.4966    0.5295    3.2749 C   0  0  0  0  0  0  0  0  0  0  0  0
    1.3315    1.2368    3.2308 H   0  0  0  0  0  0  0  0  0  0  0  0
   -0.3016    0.9774    3.8743 H   0  0  0  0  0  0  0  0  0  0  0  0
    0.8358   -0.3844    3.7740 H   0  0  0  0  0  0  0  0  0  0  0  0
  1  2  1  0  0  0  0
  2  3  1  0  0  0  0
  2  4  1  0  0  0  0
  2  5  1  0  0  0  0
  5  6  2  0  0  0  0
  5  7  1  0  0  0  0
  7  8  1  0  0  0  0
  7  9  1  0  0  0  0
  9 10  1  0  0  0  0
  9 11  1  0  0  0  0
  9 21  1  0  0  0  0
 11 12  1  0  0  0  0
 11 13  1  0  0  0  0
 11 14  1  0  0  0  0
 14 15  1  0  0  0  0
 14 16  1  0  0  0  0
 14 17  1  0  0  0  0
 17 18  2  0  0  0  0
 17 19  1  0  0  0  0
 19 20  1  0  0  0  0
 21 22  2  0  0  0  0
 21 23  1  0  0  0  0
 23 24  1  0  0  0  0
 23 25  1  0  0  0  0
 25 26  1  0  0  0  0
 25 27  1  0  0  0  0
 25 28  1  0  0  0  0
M  END
$$$$

  -OEChem-03222214033D

 28 27  0     1  0  0  0  0  0999 V2000
   -2.6225   -4.2047    0.2791 H   0  0  0  0  0  0  0  0  0  0  0  0
   -2.6068   -3.2322   -0.2210 C   0  0  0  0  0  0  0  0  0  0  0  0
   -3.4894   -2.6647    0.0833 H   0  0  0  0  0  0  0  0  0  0  0  0
   -2.6388   -3.3930   -1.3015 H   0  0  0  0  0  0  0  0  0  0  0  0
   -1.3477   -2.4735    0.1521 C   0  0  0  0  0  0  0  0  0  0  0  0
   -0.5724   -2.9485    0.9625 O   0  0  0  0  0  0  0  0  0  0  0  0
   -1.0965   -1.2475   -0.4312 N   0  0  0  0  0  0  0  0  0  0  0  0
   -1.6811   -1.0520   -1.2418 H   0  0  0  0  0  0  0  0  0  0  0  0
    0.2365   -0.6146   -0.4413 C   0  0  1  0  0  0  0  0  0  0  0  0
    0.9530   -1.2911   -0.9183 H   0  0  0  0  0  0  0  0  0  0  0  0
    0.1313    0.7286   -1.2134 C   0  0  0  0  0  0  0  0  0  0  0  0
   -0.9220    1.0214   -1.2781 H   0  0  0  0  0  0  0  0  0  0  0  0
    0.6382    1.5222   -0.6522 H   0  0  0  0  0  0  0  0  0  0  0  0
    0.7271    0.7164   -2.6415 C   0  0  0  0  0  0  0  0  0  0  0  0
    0.2326    1.4725   -3.2568 H   0  0  0  0  0  0  0  0  0  0  0  0
    1.7831    0.9933   -2.5705 H   0  0  0  0  0  0  0  0  0  0  0  0
    0.6642   -0.6285   -3.3640 C   0  0  0  0  0  0  0  0  0  0  0  0
   -0.4176   -1.1891   -3.4427 O   0  0  0  0  0  0  0  0  0  0  0  0
    1.8044   -1.1350   -3.8779 O   0  0  0  0  0  0  0  0  0  0  0  0
    1.5580   -1.9858   -4.2717 H   0  0  0  0  0  0  0  0  0  0  0  0
    0.8167   -0.3376    0.9663 C   0  0  0  0  0  0  0  0  0  0  0  0
    2.0305   -0.3421    1.1260 O   0  0  0  0  0  0  0  0  0  0  0  0
    0.0130    0.2172    1.9455 N   0  0  0  0  0  0  0  0  0  0  0  0
   -0.9845    0.0823    1.8138 H   0  0  0  0  0  0  0  0  0  0  0  0
    0.5040    0.5055    3.2872 C   0  0  0  0  0  0  0  0  0  0  0  0
    1.3353    1.2175    3.2476 H   0  0  0  0  0  0  0  0  0  0  0  0
   -0.2932    0.9422    3.8962 H   0  0  0  0  0  0  0  0  0  0  0  0
    0.8499   -0.4132    3.7728 H   0  0  0  0  0  0  0  0  0  0  0  0
  1  2  1  0  0  0  0
  2  3  1  0  0  0  0
  2  4  1  0  0  0  0
  2  5  1  0  0  0  0
  5  6  2  0  0  0  0
  5  7  1  0  0  0  0
  7  8  1  0  0  0  0
  7  9  1  0  0  0  0
  9 10  1  0  0  0  0
  9 11  1  0  0  0  0
  9 21  1  0  0  0  0
 11 12  1  0  0  0  0
 11 13  1  0  0  0  0
 11 14  1  0  0  0  0
 14 15  1  0  0  0  0
 14 16  1  0  0  0  0
 14 17  1  0  0  0  0
 17 18  2  0  0  0  0
 17 19  1  0  0  0  0
 19 20  1  0  0  0  0
 21 22  2  0  0  0  0
 21 23  1  0  0  0  0
 23 24  1  0  0  0  0
 23 25  1  0  0  0  0
 25 26  1  0  0  0  0
 25 27  1  0  0  0  0
 25 28  1  0  0  0  0
M  END
$$$$

  -OEChem-03222214033D

 28 27  0     1  0  0  0  0  0999 V2000
   -2.6083   -4.2041    0.2065 H   0  0  0  0  0  0  0  0  0  0  0  0
   -2.6005   -3.2180   -0.2663 C   0  0  0  0  0  0  0  0  0  0  0  0
   -3.4811   -2.6617    0.0635 H   0  0  0  0  0  0  0  0  0  0  0  0
   -2.6446   -3.3478   -1.3505 H   0  0  0  0  0  0  0  0  0  0  0  0
   -1.3393   -2.4661    0.1143 C   0  0  0  0  0  0  0  0  0  0  0  0
   -0.5576   -2.9561    0.9096 O   0  0  0  0  0  0  0  0  0  0  0  0
   -1.0910   -1.2302   -0.4480 N   0  0  0  0  0  0  0  0  0  0  0  0
   -1.6751   -1.0205   -1.2572 H   0  0  0  0  0  0  0  0  0  0  0  0
    0.2365   -0.5868   -0.4412 C   0  0  1  0  0  0  0  0  0  0  0  0
    0.9559   -1.2490   -0.9353 H   0  0  0  0  0  0  0  0  0  0  0  0
    0.1216    0.7570   -1.2051 C   0  0  0  0  0  0  0  0  0  0  0  0
   -0.9312    1.0489   -1.2820 H   0  0  0  0  0  0  0  0  0  0  0  0
    0.6263    1.5514   -0.6431 H   0  0  0  0  0  0  0  0  0  0  0  0
    0.7401    0.7164   -2.6189 C   0  0  0  0  0  0  0  0  0  0  0  0
    0.4416    1.6061   -3.1792 H   0  0  0  0  0  0  0  0  0  0  0  0
    1.8296    0.7383   -2.5202 H   0  0  0  0  0  0  0  0  0  0  0  0
    0.3722   -0.5245   -3.4336 C   0  0  0  0  0  0  0  0  0  0  0  0
   -0.7807   -0.9277   -3.4012 O   0  0  0  0  0  0  0  0  0  0  0  0
    1.3455   -1.1155   -4.1577 O   0  0  0  0  0  0  0  0  0  0  0  0
    0.9251   -1.8735   -4.5917 H   0  0  0  0  0  0  0  0  0  0  0  0
    0.8143   -0.3226    0.9689 C   0  0  0  0  0  0  0  0  0  0  0  0
    2.0282   -0.3246    1.1284 O   0  0  0  0  0  0  0  0  0  0  0  0
    0.0072    0.2137    1.9554 N   0  0  0  0  0  0  0  0  0  0  0  0
   -0.9903    0.0830    1.8185 H   0  0  0  0  0  0  0  0  0  0  0  0
    0.4955    0.4854    3.3015 C   0  0  0  0  0  0  0  0  0  0  0  0
    1.3266    1.1982    3.2727 H   0  0  0  0  0  0  0  0  0  0  0  0
   -0.3030    0.9137    3.9147 H   0  0  0  0  0  0  0  0  0  0  0  0
    0.8415   -0.4393    3.7757 H   0  0  0  0  0  0  0  0  0  0  0  0
  1  2  1  0  0  0  0
  2  3  1  0  0  0  0
  2  4  1  0  0  0  0
  2  5  1  0  0  0  0
  5  6  2  0  0  0  0
  5  7  1  0  0  0  0
  7  8  1  0  0  0  0
  7  9  1  0  0  0  0
  9 10  1  0  0  0  0
  9 11  1  0  0  0  0
  9 21  1  0  0  0  0
 11 12  1  0  0  0  0
 11 13  1  0  0  0  0
 11 14  1  0  0  0  0
 14 15  1  0  0  0  0
 14 16  1  0  0  0  0
 14 17  1  0  0  0  0
 17 18  2  0  0  0  0
 17 19  1  0  0  0  0
 19 20  1  0  0  0  0
 21 22  2  0  0  0  0
 21 23  1  0  0  0  0
 23 24  1  0  0  0  0
 23 25  1  0  0  0  0
 25 26  1  0  0  0  0
 25 27  1  0  0  0  0
 25 28  1  0  0  0  0
M  END
$$$$

  -OEChem-03222214033D

 28 27  0     1  0  0  0  0  0999 V2000
   -2.6130   -4.1929    0.1746 H   0  0  0  0  0  0  0  0  0  0  0  0
   -2.6049   -3.2003   -0.2846 C   0  0  0  0  0  0  0  0  0  0  0  0
   -3.4803   -2.6450    0.0603 H   0  0  0  0  0  0  0  0  0  0  0  0
   -2.6589   -3.3146   -1.3701 H   0  0  0  0  0  0  0  0  0  0  0  0
   -1.3375   -2.4594    0.0962 C   0  0  0  0  0  0  0  0  0  0  0  0
   -0.5554   -2.9597    0.8846 O   0  0  0  0  0  0  0  0  0  0  0  0
   -1.0839   -1.2201   -0.4556 N   0  0  0  0  0  0  0  0  0  0  0  0
   -1.6689   -0.9940   -1.2610 H   0  0  0  0  0  0  0  0  0  0  0  0
    0.2420   -0.5752   -0.4349 C   0  0  1  0  0  0  0  0  0  0  0  0
    0.9621   -1.2337   -0.9334 H   0  0  0  0  0  0  0  0  0  0  0  0
    0.1263    0.7666   -1.1981 C   0  0  0  0  0  0  0  0  0  0  0  0
   -0.9217    1.0761   -1.2779 H   0  0  0  0  0  0  0  0  0  0  0  0
    0.6446    1.5539   -0.6383 H   0  0  0  0  0  0  0  0  0  0  0  0
    0.7650    0.6955   -2.5996 C   0  0  0  0  0  0  0  0  0  0  0  0
    0.6816    1.6700   -3.0872 H   0  0  0  0  0  0  0  0  0  0  0  0
    1.8305    0.4694   -2.4955 H   0  0  0  0  0  0  0  0  0  0  0  0
    0.1370   -0.3545   -3.5198 C   0  0  0  0  0  0  0  0  0  0  0  0
   -1.0259   -0.6894   -3.3482 O   0  0  0  0  0  0  0  0  0  0  0  0
    0.9142   -0.8593   -4.5003 O   0  0  0  0  0  0  0  0  0  0  0  0
    0.3568   -1.4963   -4.9727 H   0  0  0  0  0  0  0  0  0  0  0  0
    0.8103   -0.3181    0.9801 C   0  0  0  0  0  0  0  0  0  0  0  0
    2.0231   -0.3212    1.1482 O   0  0  0  0  0  0  0  0  0  0  0  0
   -0.0047    0.2116    1.9635 N   0  0  0  0  0  0  0  0  0  0  0  0
   -1.0015    0.0856    1.8167 H   0  0  0  0  0  0  0  0  0  0  0  0
    0.4726    0.4806    3.3139 C   0  0  0  0  0  0  0  0  0  0  0  0
    1.3007    1.1969    3.2931 H   0  0  0  0  0  0  0  0  0  0  0  0
   -0.3322    0.9039    3.9224 H   0  0  0  0  0  0  0  0  0  0  0  0
    0.8187   -0.4441    3.7876 H   0  0  0  0  0  0  0  0  0  0  0  0
  1  2  1  0  0  0  0
  2  3  1  0  0  0  0
  2  4  1  0  0  0  0
  2  5  1  0  0  0  0
  5  6  2  0  0  0  0
  5  7  1  0  0  0  0
  7  8  1  0  0  0  0
  7  9  1  0  0  0  0
  9 10  1  0  0  0  0
  9 11  1  0  0  0  0
  9 21  1  0  0  0  0
 11 12  1  0  0  0  0
 11 13  1  0  0  0  0
 11 14  1  0  0  0  0
 14 15  1  0  0  0  0
 14 16  1  0  0  0  0
 14 17  1  0  0  0  0
 17 18  2  0  0  0  0
 17 19  1  0  0  0  0
 19 20  1  0  0  0  0
 21 22  2  0  0  0  0
 21 23  1  0  0  0  0
 23 24  1  0  0  0  0
 23 25  1  0  0  0  0
 25 26  1  0  0  0  0
 25 27  1  0  0  0  0
 25 28  1  0  0  0  0
M  END
$$$$

  -OEChem-03222214033D

 28 27  0     1  0  0  0  0  0999 V2000
   -2.6444   -4.1775    0.1736 H   0  0  0  0  0  0  0  0  0  0  0  0
   -2.6178   -3.1895   -0.2948 C   0  0  0  0  0  0  0  0  0  0  0  0
   -3.4941   -2.6222    0.0274 H   0  0  0  0  0  0  0  0  0  0  0  0
   -2.6514   -3.3141   -1.3801 H   0  0  0  0  0  0  0  0  0  0  0  0
   -1.3510   -2.4564    0.1029 C   0  0  0  0  0  0  0  0  0  0  0  0
   -0.5855   -2.9584    0.9065 O   0  0  0  0  0  0  0  0  0  0  0  0
   -1.0785   -1.2227   -0.4519 N   0  0  0  0  0  0  0  0  0  0  0  0
   -1.6561   -0.9892   -1.2612 H   0  0  0  0  0  0  0  0  0  0  0  0
    0.2516   -0.5884   -0.4196 C   0  0  1  0  0  0  0  0  0  0  0  0
    0.9696   -1.2552   -0.9097 H   0  0  0  0  0  0  0  0  0  0  0  0
    0.1418    0.7471   -1.1921 C   0  0  0  0  0  0  0  0  0  0  0  0
   -0.8990    1.0810   -1.2674 H   0  0  0  0  0  0  0  0  0  0  0  0
    0.6773    1.5251   -0.6359 H   0  0  0  0  0  0  0  0  0  0  0  0
    0.7929    0.6554   -2.5870 C   0  0  0  0  0  0  0  0  0  0  0  0
    0.9265    1.6666   -2.9804 H   0  0  0  0  0  0  0  0  0  0  0  0
    1.7859    0.2031   -2.5089 H   0  0  0  0  0  0  0  0  0  0  0  0
   -0.0342   -0.1287   -3.6108 C   0  0  0  0  0  0  0  0  0  0  0  0
   -1.1465   -0.5417   -3.3165 O   0  0  0  0  0  0  0  0  0  0  0  0
    0.5271   -0.3242   -4.8220 O   0  0  0  0  0  0  0  0  0  0  0  0
   -0.1234   -0.8319   -5.3307 H   0  0  0  0  0  0  0  0  0  0  0  0
    0.8082   -0.3268    0.9990 C   0  0  0  0  0  0  0  0  0  0  0  0
    2.0193   -0.3344    1.1780 O   0  0  0  0  0  0  0  0  0  0  0  0
   -0.0129    0.2157    1.9702 N   0  0  0  0  0  0  0  0  0  0  0  0
   -1.0089    0.0937    1.8153 H   0  0  0  0  0  0  0  0  0  0  0  0
    0.4534    0.5020    3.3208 C   0  0  0  0  0  0  0  0  0  0  0  0
    1.2790    1.2210    3.2973 H   0  0  0  0  0  0  0  0  0  0  0  0
   -0.3574    0.9292    3.9184 H   0  0  0  0  0  0  0  0  0  0  0  0
    0.7991   -0.4158    3.8081 H   0  0  0  0  0  0  0  0  0  0  0  0
  1  2  1  0  0  0  0
  2  3  1  0  0  0  0
  2  4  1  0  0  0  0
  2  5  1  0  0  0  0
  5  6  2  0  0  0  0
  5  7  1  0  0  0  0
  7  8  1  0  0  0  0
  7  9  1  0  0  0  0
  9 10  1  0  0  0  0
  9 11  1  0  0  0  0
  9 21  1  0  0  0  0
 11 12  1  0  0  0  0
 11 13  1  0  0  0  0
 11 14  1  0  0  0  0
 14 15  1  0  0  0  0
 14 16  1  0  0  0  0
 14 17  1  0  0  0  0
 17 18  2  0  0  0  0
 17 19  1  0  0  0  0
 19 20  1  0  0  0  0
 21 22  2  0  0  0  0
 21 23  1  0  0  0  0
 23 24  1  0  0  0  0
 23 25  1  0  0  0  0
 25 26  1  0  0  0  0
 25 27  1  0  0  0  0
 25 28  1  0  0  0  0
M  END
$$$$

  -OEChem-03222214033D

 28 27  0     1  0  0  0  0  0999 V2000
   -2.6731   -4.1626    0.1846 H   0  0  0  0  0  0  0  0  0  0  0  0
   -2.6334   -3.1778   -0.2893 C   0  0  0  0  0  0  0  0  0  0  0  0
   -3.5032   -2.5982    0.0284 H   0  0  0  0  0  0  0  0  0  0  0  0
   -2.6673   -3.3081   -1.3737 H   0  0  0  0  0  0  0  0  0  0  0  0
   -1.3582   -2.4582    0.1070 C   0  0  0  0  0  0  0  0  0  0  0  0
   -0.6036   -2.9620    0.9197 O   0  0  0  0  0  0  0  0  0  0  0  0
   -1.0658   -1.2335   -0.4578 N   0  0  0  0  0  0  0  0  0  0  0  0
   -1.6357   -0.9959   -1.2712 H   0  0  0  0  0  0  0  0  0  0  0  0
    0.2688   -0.6100   -0.4120 C   0  0  1  0  0  0  0  0  0  0  0  0
    0.9885   -1.2881   -0.8829 H   0  0  0  0  0  0  0  0  0  0  0  0
    0.1645    0.7150   -1.2015 C   0  0  0  0  0  0  0  0  0  0  0  0
   -0.8714    1.0643   -1.2766 H   0  0  0  0  0  0  0  0  0  0  0  0
    0.7081    1.4905   -0.6495 H   0  0  0  0  0  0  0  0  0  0  0  0
    0.8281    0.6070   -2.5903 C   0  0  0  0  0  0  0  0  0  0  0  0
    1.1803    1.6004   -2.8817 H   0  0  0  0  0  0  0  0  0  0  0  0
    1.7032   -0.0482   -2.5648 H   0  0  0  0  0  0  0  0  0  0  0  0
   -0.1373    0.1350   -3.6804 C   0  0  0  0  0  0  0  0  0  0  0  0
   -1.1724   -0.4367   -3.3692 O   0  0  0  0  0  0  0  0  0  0  0  0
    0.2170    0.3752   -4.9600 O   0  0  0  0  0  0  0  0  0  0  0  0
   -0.4973    0.0045   -5.5006 H   0  0  0  0  0  0  0  0  0  0  0  0
    0.8075   -0.3348    1.0114 C   0  0  0  0  0  0  0  0  0  0  0  0
    2.0160   -0.3496    1.2069 O   0  0  0  0  0  0  0  0  0  0  0  0
   -0.0219    0.2270    1.9647 N   0  0  0  0  0  0  0  0  0  0  0  0
   -1.0170    0.1126    1.7987 H   0  0  0  0  0  0  0  0  0  0  0  0
    0.4303    0.5331    3.3160 C   0  0  0  0  0  0  0  0  0  0  0  0
    1.2639    1.2428    3.2912 H   0  0  0  0  0  0  0  0  0  0  0  0
   -0.3833    0.9800    3.8951 H   0  0  0  0  0  0  0  0  0  0  0  0
    0.7599   -0.3792    3.8243 H   0  0  0  0  0  0  0  0  0  0  0  0
  1  2  1  0  0  0  0
  2  3  1  0  0  0  0
  2  4  1  0  0  0  0
  2  5  1  0  0  0  0
  5  6  2  0  0  0  0
  5  7  1  0  0  0  0
  7  8  1  0  0  0  0
  7  9  1  0  0  0  0
  9 10  1  0  0  0  0
  9 11  1  0  0  0  0
  9 21  1  0  0  0  0
 11 12  1  0  0  0  0
 11 13  1  0  0  0  0
 11 14  1  0  0  0  0
 14 15  1  0  0  0  0
 14 16  1  0  0  0  0
 14 17  1  0  0  0  0
 17 18  2  0  0  0  0
 17 19  1  0  0  0  0
 19 20  1  0  0  0  0
 21 22  2  0  0  0  0
 21 23  1  0  0  0  0
 23 24  1  0  0  0  0
 23 25  1  0  0  0  0
 25 26  1  0  0  0  0
 25 27  1  0  0  0  0
 25 28  1  0  0  0  0
M  END
$$$$

  -OEChem-03222214033D

 28 27  0     1  0  0  0  0  0999 V2000
   -2.7104   -4.1406    0.2311 H   0  0  0  0  0  0  0  0  0  0  0  0
   -2.6525   -3.1667   -0.2630 C   0  0  0  0  0  0  0  0  0  0  0  0
   -3.5066   -2.5613    0.0494 H   0  0  0  0  0  0  0  0  0  0  0  0
   -2.6979   -3.3183   -1.3443 H   0  0  0  0  0  0  0  0  0  0  0  0
   -1.3583   -2.4682    0.1090 C   0  0  0  0  0  0  0  0  0  0  0  0
   -0.6024   -2.9783    0.9164 O   0  0  0  0  0  0  0  0  0  0  0  0
   -1.0516   -1.2521   -0.4673 N   0  0  0  0  0  0  0  0  0  0  0  0
   -1.6365   -0.9937   -1.2620 H   0  0  0  0  0  0  0  0  0  0  0  0
    0.2855   -0.6331   -0.4161 C   0  0  1  0  0  0  0  0  0  0  0  0
    1.0093   -1.3191   -0.8682 H   0  0  0  0  0  0  0  0  0  0  0  0
    0.1852    0.6829   -1.2198 C   0  0  0  0  0  0  0  0  0  0  0  0
   -0.8501    1.0346   -1.2934 H   0  0  0  0  0  0  0  0  0  0  0  0
    0.7268    1.4626   -0.6716 H   0  0  0  0  0  0  0  0  0  0  0  0
    0.8549    0.5702   -2.6072 C   0  0  0  0  0  0  0  0  0  0  0  0
    1.4347    1.4798   -2.7883 H   0  0  0  0  0  0  0  0  0  0  0  0
    1.5533   -0.2683   -2.6636 H   0  0  0  0  0  0  0  0  0  0  0  0
   -0.1748    0.4510   -3.7294 C   0  0  0  0  0  0  0  0  0  0  0  0
   -1.1945   -0.1920   -3.5279 O   0  0  0  0  0  0  0  0  0  0  0  0
    0.0973    1.0619   -4.9016 O   0  0  0  0  0  0  0  0  0  0  0  0
   -0.6569    0.8641   -5.4776 H   0  0  0  0  0  0  0  0  0  0  0  0
    0.8092   -0.3427    1.0096 C   0  0  0  0  0  0  0  0  0  0  0  0
    2.0151   -0.3601    1.2196 O   0  0  0  0  0  0  0  0  0  0  0  0
   -0.0282    0.2338    1.9469 N   0  0  0  0  0  0  0  0  0  0  0  0
   -1.0223    0.1252    1.7714 H   0  0  0  0  0  0  0  0  0  0  0  0
    0.4120    0.5598    3.2975 C   0  0  0  0  0  0  0  0  0  0  0  0
    1.2462    1.2689    3.2688 H   0  0  0  0  0  0  0  0  0  0  0  0
   -0.4063    1.0154    3.8630 H   0  0  0  0  0  0  0  0  0  0  0  0
    0.7371   -0.3450    3.8221 H   0  0  0  0  0  0  0  0  0  0  0  0
  1  2  1  0  0  0  0
  2  3  1  0  0  0  0
  2  4  1  0  0  0  0
  2  5  1  0  0  0  0
  5  6  2  0  0  0  0
  5  7  1  0  0  0  0
  7  8  1  0  0  0  0
  7  9  1  0  0  0  0
  9 10  1  0  0  0  0
  9 11  1  0  0  0  0
  9 21  1  0  0  0  0
 11 12  1  0  0  0  0
 11 13  1  0  0  0  0
 11 14  1  0  0  0  0
 14 15  1  0  0  0  0
 14 16  1  0  0  0  0
 14 17  1  0  0  0  0
 17 18  2  0  0  0  0
 17 19  1  0  0  0  0
 19 20  1  0  0  0  0
 21 22  2  0  0  0  0
 21 23  1  0  0  0  0
 23 24  1  0  0  0  0
 23 25  1  0  0  0  0
 25 26  1  0  0  0  0
 25 27  1  0  0  0  0
 25 28  1  0  0  0  0
M  END
$$$$

  -OEChem-03222214033D

 28 27  0     1  0  0  0  0  0999 V2000
   -2.7201   -4.1379    0.2929 H   0  0  0  0  0  0  0  0  0  0  0  0
   -2.6714   -3.1624   -0.1994 C   0  0  0  0  0  0  0  0  0  0  0  0
   -3.5024   -2.5475    0.1542 H   0  0  0  0  0  0  0  0  0  0  0  0
   -2.7680   -3.3088   -1.2780 H   0  0  0  0  0  0  0  0  0  0  0  0
   -1.3522   -2.4833    0.1164 C   0  0  0  0  0  0  0  0  0  0  0  0
   -0.5681   -3.0075    0.8865 O   0  0  0  0  0  0  0  0  0  0  0  0
   -1.0516   -1.2698   -0.4694 N   0  0  0  0  0  0  0  0  0  0  0  0
   -1.6776   -0.9769   -1.2176 H   0  0  0  0  0  0  0  0  0  0  0  0
    0.2836   -0.6439   -0.4310 C   0  0  1  0  0  0  0  0  0  0  0  0
    1.0102   -1.3314   -0.8765 H   0  0  0  0  0  0  0  0  0  0  0  0
    0.1889    0.6679   -1.2427 C   0  0  0  0  0  0  0  0  0  0  0  0
   -0.8515    1.0029   -1.3188 H   0  0  0  0  0  0  0  0  0  0  0  0
    0.7169    1.4601   -0.6989 H   0  0  0  0  0  0  0  0  0  0  0  0
    0.8572    0.5544   -2.6335 C   0  0  0  0  0  0  0  0  0  0  0  0
    1.6595    1.2946   -2.7046 H   0  0  0  0  0  0  0  0  0  0  0  0
    1.3110   -0.4266   -2.7919 H   0  0  0  0  0  0  0  0  0  0  0  0
   -0.1331    0.8069   -3.7666 C   0  0  0  0  0  0  0  0  0  0  0  0
   -1.2138    0.2400   -3.7311 O   0  0  0  0  0  0  0  0  0  0  0  0
    0.2338    1.6453   -4.7588 O   0  0  0  0  0  0  0  0  0  0  0  0
   -0.5171    1.6633   -5.3718 H   0  0  0  0  0  0  0  0  0  0  0  0
    0.8074   -0.3438    0.9929 C   0  0  0  0  0  0  0  0  0  0  0  0
    2.0127   -0.3601    1.2052 O   0  0  0  0  0  0  0  0  0  0  0  0
   -0.0318    0.2335    1.9284 N   0  0  0  0  0  0  0  0  0  0  0  0
   -1.0259    0.1349    1.7481 H   0  0  0  0  0  0  0  0  0  0  0  0
    0.4054    0.5639    3.2789 C   0  0  0  0  0  0  0  0  0  0  0  0
    1.2309    1.2830    3.2498 H   0  0  0  0  0  0  0  0  0  0  0  0
   -0.4182    1.0091    3.8453 H   0  0  0  0  0  0  0  0  0  0  0  0
    0.7416   -0.3370    3.8032 H   0  0  0  0  0  0  0  0  0  0  0  0
  1  2  1  0  0  0  0
  2  3  1  0  0  0  0
  2  4  1  0  0  0  0
  2  5  1  0  0  0  0
  5  6  2  0  0  0  0
  5  7  1  0  0  0  0
  7  8  1  0  0  0  0
  7  9  1  0  0  0  0
  9 10  1  0  0  0  0
  9 11  1  0  0  0  0
  9 21  1  0  0  0  0
 11 12  1  0  0  0  0
 11 13  1  0  0  0  0
 11 14  1  0  0  0  0
 14 15  1  0  0  0  0
 14 16  1  0  0  0  0
 14 17  1  0  0  0  0
 17 18  2  0  0  0  0
 17 19  1  0  0  0  0
 19 20  1  0  0  0  0
 21 22  2  0  0  0  0
 21 23  1  0  0  0  0
 23 24  1  0  0  0  0
 23 25  1  0  0  0  0
 25 26  1  0  0  0  0
 25 27  1  0  0  0  0
 25 28  1  0  0  0  0
M  END
$$$$

  -OEChem-03222214033D

 28 27  0     1  0  0  0  0  0999 V2000
   -2.7462   -4.1192    0.3705 H   0  0  0  0  0  0  0  0  0  0  0  0
   -2.6896   -3.1610   -0.1541 C   0  0  0  0  0  0  0  0  0  0  0  0
   -3.5018   -2.5197    0.1963 H   0  0  0  0  0  0  0  0  0  0  0  0
   -2.8110   -3.3394   -1.2253 H   0  0  0  0  0  0  0  0  0  0  0  0
   -1.3521   -2.4973    0.1135 C   0  0  0  0  0  0  0  0  0  0  0  0
   -0.5425   -3.0342    0.8474 O   0  0  0  0  0  0  0  0  0  0  0  0
   -1.0631   -1.2815   -0.4736 N   0  0  0  0  0  0  0  0  0  0  0  0
   -1.7229   -0.9608   -1.1787 H   0  0  0  0  0  0  0  0  0  0  0  0
    0.2691   -0.6472   -0.4490 C   0  0  1  0  0  0  0  0  0  0  0  0
    0.9954   -1.3328   -0.8995 H   0  0  0  0  0  0  0  0  0  0  0  0
    0.1806    0.6648   -1.2611 C   0  0  0  0  0  0  0  0  0  0  0  0
   -0.8666    0.9731   -1.3530 H   0  0  0  0  0  0  0  0  0  0  0  0
    0.6883    1.4730   -0.7219 H   0  0  0  0  0  0  0  0  0  0  0  0
    0.8482    0.5398   -2.6493 C   0  0  0  0  0  0  0  0  0  0  0  0
    1.8242    1.0337   -2.6337 H   0  0  0  0  0  0  0  0  0  0  0  0
    1.0164   -0.5077   -2.9131 H   0  0  0  0  0  0  0  0  0  0  0  0
   -0.0129    1.1443   -3.7531 C   0  0  0  0  0  0  0  0  0  0  0  0
   -1.1398    0.7054   -3.9126 O   0  0  0  0  0  0  0  0  0  0  0  0
    0.5074    2.1451   -4.4947 O   0  0  0  0  0  0  0  0  0  0  0  0
   -0.1873    2.3853   -5.1267 H   0  0  0  0  0  0  0  0  0  0  0  0
    0.8049   -0.3458    0.9702 C   0  0  0  0  0  0  0  0  0  0  0  0
    2.0124   -0.3534    1.1702 O   0  0  0  0  0  0  0  0  0  0  0  0
   -0.0284    0.2250    1.9151 N   0  0  0  0  0  0  0  0  0  0  0  0
   -1.0240    0.1249    1.7457 H   0  0  0  0  0  0  0  0  0  0  0  0
    0.4233    0.5726    3.2566 C   0  0  0  0  0  0  0  0  0  0  0  0
    1.2310    1.3107    3.2094 H   0  0  0  0  0  0  0  0  0  0  0  0
   -0.4009    1.0016    3.8344 H   0  0  0  0  0  0  0  0  0  0  0  0
    0.7896   -0.3172    3.7797 H   0  0  0  0  0  0  0  0  0  0  0  0
  1  2  1  0  0  0  0
  2  3  1  0  0  0  0
  2  4  1  0  0  0  0
  2  5  1  0  0  0  0
  5  6  2  0  0  0  0
  5  7  1  0  0  0  0
  7  8  1  0  0  0  0
  7  9  1  0  0  0  0
  9 10  1  0  0  0  0
  9 11  1  0  0  0  0
  9 21  1  0  0  0  0
 11 12  1  0  0  0  0
 11 13  1  0  0  0  0
 11 14  1  0  0  0  0
 14 15  1  0  0  0  0
 14 16  1  0  0  0  0
 14 17  1  0  0  0  0
 17 18  2  0  0  0  0
 17 19  1  0  0  0  0
 19 20  1  0  0  0  0
 21 22  2  0  0  0  0
 21 23  1  0  0  0  0
 23 24  1  0  0  0  0
 23 25  1  0  0  0  0
 25 26  1  0  0  0  0
 25 27  1  0  0  0  0
 25 28  1  0  0  0  0
M  END
$$$$

  -OEChem-03222214033D

 28 27  0     1  0  0  0  0  0999 V2000
   -2.7502   -4.0949    0.4479 H   0  0  0  0  0  0  0  0  0  0  0  0
   -2.6878   -3.1639   -0.1228 C   0  0  0  0  0  0  0  0  0  0  0  0
   -3.4934   -2.4999    0.1993 H   0  0  0  0  0  0  0  0  0  0  0  0
   -2.8146   -3.3935   -1.1834 H   0  0  0  0  0  0  0  0  0  0  0  0
   -1.3432   -2.5000    0.1067 C   0  0  0  0  0  0  0  0  0  0  0  0
   -0.5079   -3.0449    0.8048 O   0  0  0  0  0  0  0  0  0  0  0  0
   -1.0739   -1.2771   -0.4758 N   0  0  0  0  0  0  0  0  0  0  0  0
   -1.7636   -0.9363   -1.1408 H   0  0  0  0  0  0  0  0  0  0  0  0
    0.2527   -0.6297   -0.4660 C   0  0  1  0  0  0  0  0  0  0  0  0
    0.9772   -1.3066   -0.9331 H   0  0  0  0  0  0  0  0  0  0  0  0
    0.1569    0.6841   -1.2725 C   0  0  0  0  0  0  0  0  0  0  0  0
   -0.8944    0.9749   -1.3731 H   0  0  0  0  0  0  0  0  0  0  0  0
    0.6555    1.5007   -0.7371 H   0  0  0  0  0  0  0  0  0  0  0  0
    0.8190    0.5496   -2.6587 C   0  0  0  0  0  0  0  0  0  0  0  0
    1.8849    0.7846   -2.5855 H   0  0  0  0  0  0  0  0  0  0  0  0
    0.7301   -0.4763   -3.0269 H   0  0  0  0  0  0  0  0  0  0  0  0
    0.1585    1.4524   -3.6942 C   0  0  0  0  0  0  0  0  0  0  0  0
   -1.0160    1.2632   -3.9609 O   0  0  0  0  0  0  0  0  0  0  0  0
    0.9013    2.4279   -4.2584 O   0  0  0  0  0  0  0  0  0  0  0  0
    0.3049    2.8811   -4.8737 H   0  0  0  0  0  0  0  0  0  0  0  0
    0.8054   -0.3335    0.9474 C   0  0  0  0  0  0  0  0  0  0  0  0
    2.0150   -0.3391    1.1338 O   0  0  0  0  0  0  0  0  0  0  0  0
   -0.0199    0.2223    1.9079 N   0  0  0  0  0  0  0  0  0  0  0  0
   -1.0170    0.1235    1.7472 H   0  0  0  0  0  0  0  0  0  0  0  0
    0.4445    0.5512    3.2495 C   0  0  0  0  0  0  0  0  0  0  0  0
    1.2469    1.2954    3.2065 H   0  0  0  0  0  0  0  0  0  0  0  0
   -0.3764    0.9644    3.8433 H   0  0  0  0  0  0  0  0  0  0  0  0
    0.8222   -0.3448    3.7534 H   0  0  0  0  0  0  0  0  0  0  0  0
  1  2  1  0  0  0  0
  2  3  1  0  0  0  0
  2  4  1  0  0  0  0
  2  5  1  0  0  0  0
  5  6  2  0  0  0  0
  5  7  1  0  0  0  0
  7  8  1  0  0  0  0
  7  9  1  0  0  0  0
  9 10  1  0  0  0  0
  9 11  1  0  0  0  0
  9 21  1  0  0  0  0
 11 12  1  0  0  0  0
 11 13  1  0  0  0  0
 11 14  1  0  0  0  0
 14 15  1  0  0  0  0
 14 16  1  0  0  0  0
 14 17  1  0  0  0  0
 17 18  2  0  0  0  0
 17 19  1  0  0  0  0
 19 20  1  0  0  0  0
 21 22  2  0  0  0  0
 21 23  1  0  0  0  0
 23 24  1  0  0  0  0
 23 25  1  0  0  0  0
 25 26  1  0  0  0  0
 25 27  1  0  0  0  0
 25 28  1  0  0  0  0
M  END
$$$$

  -OEChem-03222214033D

 28 27  0     1  0  0  0  0  0999 V2000
   -2.6274   -4.1785    0.2878 H   0  0  0  0  0  0  0  0  0  0  0  0
   -2.6313   -3.1838   -0.1672 C   0  0  0  0  0  0  0  0  0  0  0  0
   -3.4232   -2.5893    0.2943 H   0  0  0  0  0  0  0  0  0  0  0  0
   -2.8366   -3.2873   -1.2355 H   0  0  0  0  0  0  0  0  0  0  0  0
   -1.2877   -2.5110    0.0404 C   0  0  0  0  0  0  0  0  0  0  0  0
   -0.4137   -3.0787    0.6691 O   0  0  0  0  0  0  0  0  0  0  0  0
   -1.0608   -1.2551   -0.4869 N   0  0  0  0  0  0  0  0  0  0  0  0
   -1.7986   -0.8629   -1.0649 H   0  0  0  0  0  0  0  0  0  0  0  0
    0.2413   -0.5616   -0.4472 C   0  0  1  0  0  0  0  0  0  0  0  0
    0.9860   -1.1998   -0.9370 H   0  0  0  0  0  0  0  0  0  0  0  0
    0.1153    0.7718   -1.2151 C   0  0  0  0  0  0  0  0  0  0  0  0
   -0.9430    1.0299   -1.3290 H   0  0  0  0  0  0  0  0  0  0  0  0
    0.5818    1.5868   -0.6494 H   0  0  0  0  0  0  0  0  0  0  0  0
    0.8028    0.6844   -2.5941 C   0  0  0  0  0  0  0  0  0  0  0  0
    1.8881    0.6857   -2.4566 H   0  0  0  0  0  0  0  0  0  0  0  0
    0.5299   -0.2568   -3.0785 H   0  0  0  0  0  0  0  0  0  0  0  0
    0.4306    1.8095   -3.5609 C   0  0  0  0  0  0  0  0  0  0  0  0
   -0.4706    2.5820   -3.2832 O   0  0  0  0  0  0  0  0  0  0  0  0
    1.1307    1.8778   -4.7126 O   0  0  0  0  0  0  0  0  0  0  0  0
    0.7665    2.6413   -5.1863 H   0  0  0  0  0  0  0  0  0  0  0  0
    0.7866   -0.3057    0.9768 C   0  0  0  0  0  0  0  0  0  0  0  0
    1.9961   -0.2861    1.1630 O   0  0  0  0  0  0  0  0  0  0  0  0
   -0.0528    0.1790    1.9634 N   0  0  0  0  0  0  0  0  0  0  0  0
   -1.0482    0.0775    1.7948 H   0  0  0  0  0  0  0  0  0  0  0  0
    0.4057    0.4703    3.3159 C   0  0  0  0  0  0  0  0  0  0  0  0
    1.1974    1.2268    3.2982 H   0  0  0  0  0  0  0  0  0  0  0  0
   -0.4211    0.8526    3.9220 H   0  0  0  0  0  0  0  0  0  0  0  0
    0.7960   -0.4362    3.7906 H   0  0  0  0  0  0  0  0  0  0  0  0
  1  2  1  0  0  0  0
  2  3  1  0  0  0  0
  2  4  1  0  0  0  0
  2  5  1  0  0  0  0
  5  6  2  0  0  0  0
  5  7  1  0  0  0  0
  7  8  1  0  0  0  0
  7  9  1  0  0  0  0
  9 10  1  0  0  0  0
  9 11  1  0  0  0  0
  9 21  1  0  0  0  0
 11 12  1  0  0  0  0
 11 13  1  0  0  0  0
 11 14  1  0  0  0  0
 14 15  1  0  0  0  0
 14 16  1  0  0  0  0
 14 17  1  0  0  0  0
 17 18  2  0  0  0  0
 17 19  1  0  0  0  0
 19 20  1  0  0  0  0
 21 22  2  0  0  0  0
 21 23  1  0  0  0  0
 23 24  1  0  0  0  0
 23 25  1  0  0  0  0
 25 26  1  0  0  0  0
 25 27  1  0  0  0  0
 25 28  1  0  0  0  0
M  END
$$$$

  -OEChem-03222214033D

 28 27  0     1  0  0  0  0  0999 V2000
   -2.6858   -4.1317    0.3730 H   0  0  0  0  0  0  0  0  0  0  0  0
   -2.6558   -3.1673   -0.1422 C   0  0  0  0  0  0  0  0  0  0  0  0
   -3.4379   -2.5247    0.2692 H   0  0  0  0  0  0  0  0  0  0  0  0
   -2.8484   -3.3313   -1.2052 H   0  0  0  0  0  0  0  0  0  0  0  0
   -1.2974   -2.5186    0.0445 C   0  0  0  0  0  0  0  0  0  0  0  0
   -0.4261   -3.0983    0.6660 O   0  0  0  0  0  0  0  0  0  0  0  0
   -1.0545   -1.2713   -0.4957 N   0  0  0  0  0  0  0  0  0  0  0  0
   -1.7955   -0.8657   -1.0599 H   0  0  0  0  0  0  0  0  0  0  0  0
    0.2544   -0.5909   -0.4642 C   0  0  1  0  0  0  0  0  0  0  0  0
    0.9980   -1.2273   -0.9577 H   0  0  0  0  0  0  0  0  0  0  0  0
    0.1186    0.7386   -1.2293 C   0  0  0  0  0  0  0  0  0  0  0  0
   -0.8862    1.1535   -1.0937 H   0  0  0  0  0  0  0  0  0  0  0  0
    0.8261    1.4700   -0.8206 H   0  0  0  0  0  0  0  0  0  0  0  0
    0.4406    0.5529   -2.7249 C   0  0  0  0  0  0  0  0  0  0  0  0
    1.4640    0.1809   -2.8304 H   0  0  0  0  0  0  0  0  0  0  0  0
   -0.2317   -0.1880   -3.1645 H   0  0  0  0  0  0  0  0  0  0  0  0
    0.3187    1.8464   -3.5272 C   0  0  0  0  0  0  0  0  0  0  0  0
   -0.5433    2.6535   -3.2262 O   0  0  0  0  0  0  0  0  0  0  0  0
    1.1716    2.0249   -4.5574 O   0  0  0  0  0  0  0  0  0  0  0  0
    0.9418    2.8899   -4.9303 H   0  0  0  0  0  0  0  0  0  0  0  0
    0.8004   -0.3259    0.9580 C   0  0  0  0  0  0  0  0  0  0  0  0
    2.0093   -0.3201    1.1472 O   0  0  0  0  0  0  0  0  0  0  0  0
   -0.0343    0.1777    1.9392 N   0  0  0  0  0  0  0  0  0  0  0  0
   -1.0310    0.0929    1.7704 H   0  0  0  0  0  0  0  0  0  0  0  0
    0.4290    0.4972    3.2839 C   0  0  0  0  0  0  0  0  0  0  0  0
    1.1998    1.2744    3.2489 H   0  0  0  0  0  0  0  0  0  0  0  0
   -0.4018    0.8639    3.8940 H   0  0  0  0  0  0  0  0  0  0  0  0
    0.8476   -0.3928    3.7654 H   0  0  0  0  0  0  0  0  0  0  0  0
  1  2  1  0  0  0  0
  2  3  1  0  0  0  0
  2  4  1  0  0  0  0
  2  5  1  0  0  0  0
  5  6  2  0  0  0  0
  5  7  1  0  0  0  0
  7  8  1  0  0  0  0
  7  9  1  0  0  0  0
  9 10  1  0  0  0  0
  9 11  1  0  0  0  0
  9 21  1  0  0  0  0
 11 12  1  0  0  0  0
 11 13  1  0  0  0  0
 11 14  1  0  0  0  0
 14 15  1  0  0  0  0
 14 16  1  0  0  0  0
 14 17  1  0  0  0  0
 17 18  2  0  0  0  0
 17 19  1  0  0  0  0
 19 20  1  0  0  0  0
 21 22  2  0  0  0  0
 21 23  1  0  0  0  0
 23 24  1  0  0  0  0
 23 25  1  0  0  0  0
 25 26  1  0  0  0  0
 25 27  1  0  0  0  0
 25 28  1  0  0  0  0
M  END
$$$$

  -OEChem-03222214033D

 28 27  0     1  0  0  0  0  0999 V2000
   -2.6721   -4.1427    0.3598 H   0  0  0  0  0  0  0  0  0  0  0  0
   -2.6532   -3.1666   -0.1337 C   0  0  0  0  0  0  0  0  0  0  0  0
   -3.4297   -2.5364    0.3060 H   0  0  0  0  0  0  0  0  0  0  0  0
   -2.8641   -3.3065   -1.1966 H   0  0  0  0  0  0  0  0  0  0  0  0
   -1.2934   -2.5181    0.0452 C   0  0  0  0  0  0  0  0  0  0  0  0
   -0.4222   -3.0952    0.6691 O   0  0  0  0  0  0  0  0  0  0  0  0
   -1.0502   -1.2728   -0.5001 N   0  0  0  0  0  0  0  0  0  0  0  0
   -1.7895   -0.8714   -1.0690 H   0  0  0  0  0  0  0  0  0  0  0  0
    0.2595   -0.5936   -0.4700 C   0  0  1  0  0  0  0  0  0  0  0  0
    1.0035   -1.2330   -0.9589 H   0  0  0  0  0  0  0  0  0  0  0  0
    0.1217    0.7355   -1.2380 C   0  0  0  0  0  0  0  0  0  0  0  0
   -0.8748    1.1687   -1.0996 H   0  0  0  0  0  0  0  0  0  0  0  0
    0.8418    1.4523   -0.8247 H   0  0  0  0  0  0  0  0  0  0  0  0
    0.4387    0.5663   -2.7377 C   0  0  0  0  0  0  0  0  0  0  0  0
    1.3535   -0.0227   -2.8525 H   0  0  0  0  0  0  0  0  0  0  0  0
   -0.3705    0.0285   -3.2375 H   0  0  0  0  0  0  0  0  0  0  0  0
    0.6643    1.8994   -3.4481 C   0  0  0  0  0  0  0  0  0  0  0  0
    0.0160    2.8714   -3.1020 O   0  0  0  0  0  0  0  0  0  0  0  0
    1.5658    1.9305   -4.4517 O   0  0  0  0  0  0  0  0  0  0  0  0
    1.5661    2.8487   -4.7633 H   0  0  0  0  0  0  0  0  0  0  0  0
    0.8020   -0.3254    0.9534 C   0  0  0  0  0  0  0  0  0  0  0  0
    2.0098   -0.3329    1.1492 O   0  0  0  0  0  0  0  0  0  0  0  0
   -0.0339    0.1819    1.9317 N   0  0  0  0  0  0  0  0  0  0  0  0
   -1.0303    0.1092    1.7562 H   0  0  0  0  0  0  0  0  0  0  0  0
    0.4242    0.4901    3.2807 C   0  0  0  0  0  0  0  0  0  0  0  0
    1.2133    1.2488    3.2534 H   0  0  0  0  0  0  0  0  0  0  0  0
   -0.4035    0.8764    3.8831 H   0  0  0  0  0  0  0  0  0  0  0  0
    0.8178   -0.4096    3.7655 H   0  0  0  0  0  0  0  0  0  0  0  0
  1  2  1  0  0  0  0
  2  3  1  0  0  0  0
  2  4  1  0  0  0  0
  2  5  1  0  0  0  0
  5  6  2  0  0  0  0
  5  7  1  0  0  0  0
  7  8  1  0  0  0  0
  7  9  1  0  0  0  0
  9 10  1  0  0  0  0
  9 11  1  0  0  0  0
  9 21  1  0  0  0  0
 11 12  1  0  0  0  0
 11 13  1  0  0  0  0
 11 14  1  0  0  0  0
 14 15  1  0  0  0  0
 14 16  1  0  0  0  0
 14 17  1  0  0  0  0
 17 18  2  0  0  0  0
 17 19  1  0  0  0  0
 19 20  1  0  0  0  0
 21 22  2  0  0  0  0
 21 23  1  0  0  0  0
 23 24  1  0  0  0  0
 23 25  1  0  0  0  0
 25 26  1  0  0  0  0
 25 27  1  0  0  0  0
 25 28  1  0  0  0  0
M  END
$$$$

  -OEChem-03222214033D

 28 27  0     1  0  0  0  0  0999 V2000
   -2.6738   -4.1413    0.3602 H   0  0  0  0  0  0  0  0  0  0  0  0
   -2.6565   -3.1651   -0.1330 C   0  0  0  0  0  0  0  0  0  0  0  0
   -3.4339   -2.5356    0.3066 H   0  0  0  0  0  0  0  0  0  0  0  0
   -2.8669   -3.3057   -1.1960 H   0  0  0  0  0  0  0  0  0  0  0  0
   -1.2974   -2.5155    0.0468 C   0  0  0  0  0  0  0  0  0  0  0  0
   -0.4278   -3.0908    0.6743 O   0  0  0  0  0  0  0  0  0  0  0  0
   -1.0543   -1.2711   -0.5008 N   0  0  0  0  0  0  0  0  0  0  0  0
   -1.7893   -0.8774   -1.0803 H   0  0  0  0  0  0  0  0  0  0  0  0
    0.2579   -0.5966   -0.4792 C   0  0  1  0  0  0  0  0  0  0  0  0
    0.9982   -1.2389   -0.9693 H   0  0  0  0  0  0  0  0  0  0  0  0
    0.1159    0.7350   -1.2444 C   0  0  0  0  0  0  0  0  0  0  0  0
   -0.8725    1.1812   -1.0923 H   0  0  0  0  0  0  0  0  0  0  0  0
    0.8471    1.4393   -0.8281 H   0  0  0  0  0  0  0  0  0  0  0  0
    0.4172    0.5811   -2.7513 C   0  0  0  0  0  0  0  0  0  0  0  0
    1.1608   -0.2059   -2.9047 H   0  0  0  0  0  0  0  0  0  0  0  0
   -0.4877    0.2914   -3.2904 H   0  0  0  0  0  0  0  0  0  0  0  0
    0.9870    1.8553   -3.3692 C   0  0  0  0  0  0  0  0  0  0  0  0
    0.4743    2.9230   -3.0839 O   0  0  0  0  0  0  0  0  0  0  0  0
    2.0262    1.7358   -4.2219 O   0  0  0  0  0  0  0  0  0  0  0  0
    2.2411    2.6429   -4.4886 H   0  0  0  0  0  0  0  0  0  0  0  0
    0.8082   -0.3311    0.9419 C   0  0  0  0  0  0  0  0  0  0  0  0
    2.0170   -0.3406    1.1314 O   0  0  0  0  0  0  0  0  0  0  0  0
   -0.0216    0.1786    1.9242 N   0  0  0  0  0  0  0  0  0  0  0  0
   -1.0189    0.1006    1.7564 H   0  0  0  0  0  0  0  0  0  0  0  0
    0.4454    0.4872    3.2700 C   0  0  0  0  0  0  0  0  0  0  0  0
    1.2425    1.2375    3.2365 H   0  0  0  0  0  0  0  0  0  0  0  0
   -0.3756    0.8846    3.8743 H   0  0  0  0  0  0  0  0  0  0  0  0
    0.8316   -0.4148    3.7566 H   0  0  0  0  0  0  0  0  0  0  0  0
  1  2  1  0  0  0  0
  2  3  1  0  0  0  0
  2  4  1  0  0  0  0
  2  5  1  0  0  0  0
  5  6  2  0  0  0  0
  5  7  1  0  0  0  0
  7  8  1  0  0  0  0
  7  9  1  0  0  0  0
  9 10  1  0  0  0  0
  9 11  1  0  0  0  0
  9 21  1  0  0  0  0
 11 12  1  0  0  0  0
 11 13  1  0  0  0  0
 11 14  1  0  0  0  0
 14 15  1  0  0  0  0
 14 16  1  0  0  0  0
 14 17  1  0  0  0  0
 17 18  2  0  0  0  0
 17 19  1  0  0  0  0
 19 20  1  0  0  0  0
 21 22  2  0  0  0  0
 21 23  1  0  0  0  0
 23 24  1  0  0  0  0
 23 25  1  0  0  0  0
 25 26  1  0  0  0  0
 25 27  1  0  0  0  0
 25 28  1  0  0  0  0
M  END
$$$$

  -OEChem-03222214033D

 28 27  0     1  0  0  0  0  0999 V2000
   -2.6759   -4.1348    0.3639 H   0  0  0  0  0  0  0  0  0  0  0  0
   -2.6569   -3.1612   -0.1345 C   0  0  0  0  0  0  0  0  0  0  0  0
   -3.4326   -2.5280    0.3027 H   0  0  0  0  0  0  0  0  0  0  0  0
   -2.8688   -3.3067   -1.1965 H   0  0  0  0  0  0  0  0  0  0  0  0
   -1.2966   -2.5128    0.0399 C   0  0  0  0  0  0  0  0  0  0  0  0
   -0.4247   -3.0892    0.6632 O   0  0  0  0  0  0  0  0  0  0  0  0
   -1.0562   -1.2667   -0.5052 N   0  0  0  0  0  0  0  0  0  0  0  0
   -1.7924   -0.8744   -1.0840 H   0  0  0  0  0  0  0  0  0  0  0  0
    0.2571   -0.5935   -0.4911 C   0  0  1  0  0  0  0  0  0  0  0  0
    0.9954   -1.2334   -0.9871 H   0  0  0  0  0  0  0  0  0  0  0  0
    0.1122    0.7438   -1.2476 C   0  0  0  0  0  0  0  0  0  0  0  0
   -0.8764    1.1858   -1.0851 H   0  0  0  0  0  0  0  0  0  0  0  0
    0.8406    1.4472   -0.8247 H   0  0  0  0  0  0  0  0  0  0  0  0
    0.3996    0.6072   -2.7614 C   0  0  0  0  0  0  0  0  0  0  0  0
    0.9065   -0.3381   -2.9726 H   0  0  0  0  0  0  0  0  0  0  0  0
   -0.5393    0.6043   -3.3202 H   0  0  0  0  0  0  0  0  0  0  0  0
    1.2891    1.7274   -3.2931 C   0  0  0  0  0  0  0  0  0  0  0  0
    0.9456    2.8802   -3.1008 O   0  0  0  0  0  0  0  0  0  0  0  0
    2.4106    1.3884   -3.9630 O   0  0  0  0  0  0  0  0  0  0  0  0
    2.8326    2.2304   -4.1934 H   0  0  0  0  0  0  0  0  0  0  0  0
    0.8160   -0.3348    0.9283 C   0  0  0  0  0  0  0  0  0  0  0  0
    2.0258   -0.3438    1.1110 O   0  0  0  0  0  0  0  0  0  0  0  0
   -0.0083    0.1713    1.9171 N   0  0  0  0  0  0  0  0  0  0  0  0
   -1.0062    0.0837    1.7579 H   0  0  0  0  0  0  0  0  0  0  0  0
    0.4655    0.4702    3.2627 C   0  0  0  0  0  0  0  0  0  0  0  0
    1.2666    1.2163    3.2304 H   0  0  0  0  0  0  0  0  0  0  0  0
   -0.3508    0.8692    3.8722 H   0  0  0  0  0  0  0  0  0  0  0  0
    0.8482   -0.4364    3.7434 H   0  0  0  0  0  0  0  0  0  0  0  0
  1  2  1  0  0  0  0
  2  3  1  0  0  0  0
  2  4  1  0  0  0  0
  2  5  1  0  0  0  0
  5  6  2  0  0  0  0
  5  7  1  0  0  0  0
  7  8  1  0  0  0  0
  7  9  1  0  0  0  0
  9 10  1  0  0  0  0
  9 11  1  0  0  0  0
  9 21  1  0  0  0  0
 11 12  1  0  0  0  0
 11 13  1  0  0  0  0
 11 14  1  0  0  0  0
 14 15  1  0  0  0  0
 14 16  1  0  0  0  0
 14 17  1  0  0  0  0
 17 18  2  0  0  0  0
 17 19  1  0  0  0  0
 19 20  1  0  0  0  0
 21 22  2  0  0  0  0
 21 23  1  0  0  0  0
 23 24  1  0  0  0  0
 23 25  1  0  0  0  0
 25 26  1  0  0  0  0
 25 27  1  0  0  0  0
 25 28  1  0  0  0  0
M  END
$$$$

  -OEChem-03222214033D

 28 27  0     1  0  0  0  0  0999 V2000
   -2.6715   -4.1341    0.3377 H   0  0  0  0  0  0  0  0  0  0  0  0
   -2.6528   -3.1619   -0.1633 C   0  0  0  0  0  0  0  0  0  0  0  0
   -3.4396   -2.5338    0.2610 H   0  0  0  0  0  0  0  0  0  0  0  0
   -2.8481   -3.3120   -1.2278 H   0  0  0  0  0  0  0  0  0  0  0  0
   -1.3000   -2.5026    0.0278 C   0  0  0  0  0  0  0  0  0  0  0  0
   -0.4290   -3.0754    0.6556 O   0  0  0  0  0  0  0  0  0  0  0  0
   -1.0653   -1.2520   -0.5097 N   0  0  0  0  0  0  0  0  0  0  0  0
   -1.7977   -0.8693   -1.0996 H   0  0  0  0  0  0  0  0  0  0  0  0
    0.2488   -0.5794   -0.5041 C   0  0  1  0  0  0  0  0  0  0  0  0
    0.9822   -1.2136   -1.0156 H   0  0  0  0  0  0  0  0  0  0  0  0
    0.1027    0.7656   -1.2461 C   0  0  0  0  0  0  0  0  0  0  0  0
   -0.8933    1.1883   -1.0790 H   0  0  0  0  0  0  0  0  0  0  0  0
    0.8169    1.4814   -0.8198 H   0  0  0  0  0  0  0  0  0  0  0  0
    0.3770    0.6349   -2.7621 C   0  0  0  0  0  0  0  0  0  0  0  0
    0.5988   -0.4003   -3.0352 H   0  0  0  0  0  0  0  0  0  0  0  0
   -0.5137    0.9324   -3.3215 H   0  0  0  0  0  0  0  0  0  0  0  0
    1.5390    1.5118   -3.2151 C   0  0  0  0  0  0  0  0  0  0  0  0
    1.3916    2.7205   -3.1956 O   0  0  0  0  0  0  0  0  0  0  0  0
    2.6778    0.9068   -3.6118 O   0  0  0  0  0  0  0  0  0  0  0  0
    3.2906    1.6290   -3.8192 H   0  0  0  0  0  0  0  0  0  0  0  0
    0.8250   -0.3318    0.9103 C   0  0  0  0  0  0  0  0  0  0  0  0
    2.0371   -0.3363    1.0763 O   0  0  0  0  0  0  0  0  0  0  0  0
    0.0128    0.1670    1.9127 N   0  0  0  0  0  0  0  0  0  0  0  0
   -0.9864    0.0708    1.7680 H   0  0  0  0  0  0  0  0  0  0  0  0
    0.5043    0.4477    3.2559 C   0  0  0  0  0  0  0  0  0  0  0  0
    1.3023    1.1971    3.2234 H   0  0  0  0  0  0  0  0  0  0  0  0
   -0.3048    0.8345    3.8827 H   0  0  0  0  0  0  0  0  0  0  0  0
    0.8967   -0.4647    3.7176 H   0  0  0  0  0  0  0  0  0  0  0  0
  1  2  1  0  0  0  0
  2  3  1  0  0  0  0
  2  4  1  0  0  0  0
  2  5  1  0  0  0  0
  5  6  2  0  0  0  0
  5  7  1  0  0  0  0
  7  8  1  0  0  0  0
  7  9  1  0  0  0  0
  9 10  1  0  0  0  0
  9 11  1  0  0  0  0
  9 21  1  0  0  0  0
 11 12  1  0  0  0  0
 11 13  1  0  0  0  0
 11 14  1  0  0  0  0
 14 15  1  0  0  0  0
 14 16  1  0  0  0  0
 14 17  1  0  0  0  0
 17 18  2  0  0  0  0
 17 19  1  0  0  0  0
 19 20  1  0  0  0  0
 21 22  2  0  0  0  0
 21 23  1  0  0  0  0
 23 24  1  0  0  0  0
 23 25  1  0  0  0  0
 25 26  1  0  0  0  0
 25 27  1  0  0  0  0
 25 28  1  0  0  0  0
M  END
$$$$

  -OEChem-03222214033D

 28 27  0     1  0  0  0  0  0999 V2000
   -2.6665   -4.1211    0.3206 H   0  0  0  0  0  0  0  0  0  0  0  0
   -2.6426   -3.1578   -0.1970 C   0  0  0  0  0  0  0  0  0  0  0  0
   -3.4343   -2.5227    0.2077 H   0  0  0  0  0  0  0  0  0  0  0  0
   -2.8261   -3.3262   -1.2609 H   0  0  0  0  0  0  0  0  0  0  0  0
   -1.2917   -2.4956   -0.0021 C   0  0  0  0  0  0  0  0  0  0  0  0
   -0.4178   -3.0714    0.6189 O   0  0  0  0  0  0  0  0  0  0  0  0
   -1.0642   -1.2373   -0.5243 N   0  0  0  0  0  0  0  0  0  0  0  0
   -1.7988   -0.8534   -1.1108 H   0  0  0  0  0  0  0  0  0  0  0  0
    0.2486   -0.5618   -0.5189 C   0  0  1  0  0  0  0  0  0  0  0  0
    0.9794   -1.1856   -1.0472 H   0  0  0  0  0  0  0  0  0  0  0  0
    0.0983    0.7920   -1.2425 C   0  0  0  0  0  0  0  0  0  0  0  0
   -0.9069    1.1924   -1.0754 H   0  0  0  0  0  0  0  0  0  0  0  0
    0.7982    1.5214   -0.8154 H   0  0  0  0  0  0  0  0  0  0  0  0
    0.3671    0.6640   -2.7567 C   0  0  0  0  0  0  0  0  0  0  0  0
    0.3047   -0.3773   -3.0852 H   0  0  0  0  0  0  0  0  0  0  0  0
   -0.3949    1.2239   -3.3062 H   0  0  0  0  0  0  0  0  0  0  0  0
    1.7274    1.2334   -3.1394 C   0  0  0  0  0  0  0  0  0  0  0  0
    1.8233    2.4345   -3.3148 O   0  0  0  0  0  0  0  0  0  0  0  0
    2.7634    0.3771   -3.2547 O   0  0  0  0  0  0  0  0  0  0  0  0
    3.5325    0.9324   -3.4555 H   0  0  0  0  0  0  0  0  0  0  0  0
    0.8347   -0.3321    0.8944 C   0  0  0  0  0  0  0  0  0  0  0  0
    2.0479   -0.3310    1.0526 O   0  0  0  0  0  0  0  0  0  0  0  0
    0.0275    0.1511    1.9087 N   0  0  0  0  0  0  0  0  0  0  0  0
   -0.9718    0.0449    1.7719 H   0  0  0  0  0  0  0  0  0  0  0  0
    0.5271    0.4156    3.2524 C   0  0  0  0  0  0  0  0  0  0  0  0
    1.3166    1.1741    3.2254 H   0  0  0  0  0  0  0  0  0  0  0  0
   -0.2810    0.7834    3.8919 H   0  0  0  0  0  0  0  0  0  0  0  0
    0.9332   -0.4997    3.6962 H   0  0  0  0  0  0  0  0  0  0  0  0
  1  2  1  0  0  0  0
  2  3  1  0  0  0  0
  2  4  1  0  0  0  0
  2  5  1  0  0  0  0
  5  6  2  0  0  0  0
  5  7  1  0  0  0  0
  7  8  1  0  0  0  0
  7  9  1  0  0  0  0
  9 10  1  0  0  0  0
  9 11  1  0  0  0  0
  9 21  1  0  0  0  0
 11 12  1  0  0  0  0
 11 13  1  0  0  0  0
 11 14  1  0  0  0  0
 14 15  1  0  0  0  0
 14 16  1  0  0  0  0
 14 17  1  0  0  0  0
 17 18  2  0  0  0  0
 17 19  1  0  0  0  0
 19 20  1  0  0  0  0
 21 22  2  0  0  0  0
 21 23  1  0  0  0  0
 23 24  1  0  0  0  0
 23 25  1  0  0  0  0
 25 26  1  0  0  0  0
 25 27  1  0  0  0  0
 25 28  1  0  0  0  0
M  END
$$$$

  -OEChem-03222214033D

 28 27  0     1  0  0  0  0  0999 V2000
   -2.6526   -4.1236    0.2825 H   0  0  0  0  0  0  0  0  0  0  0  0
   -2.6268   -3.1617   -0.2380 C   0  0  0  0  0  0  0  0  0  0  0  0
   -3.4294   -2.5308    0.1514 H   0  0  0  0  0  0  0  0  0  0  0  0
   -2.7915   -3.3353   -1.3043 H   0  0  0  0  0  0  0  0  0  0  0  0
   -1.2840   -2.4894   -0.0233 C   0  0  0  0  0  0  0  0  0  0  0  0
   -0.4135   -3.0619    0.6055 O   0  0  0  0  0  0  0  0  0  0  0  0
   -1.0613   -1.2254   -0.5344 N   0  0  0  0  0  0  0  0  0  0  0  0
   -1.7919   -0.8451   -1.1280 H   0  0  0  0  0  0  0  0  0  0  0  0
    0.2507   -0.5478   -0.5234 C   0  0  1  0  0  0  0  0  0  0  0  0
    0.9787   -1.1689   -1.0590 H   0  0  0  0  0  0  0  0  0  0  0  0
    0.1032    0.8128   -1.2353 C   0  0  0  0  0  0  0  0  0  0  0  0
   -0.9042    1.2076   -1.0687 H   0  0  0  0  0  0  0  0  0  0  0  0
    0.8020    1.5422   -0.8066 H   0  0  0  0  0  0  0  0  0  0  0  0
    0.3749    0.6931   -2.7466 C   0  0  0  0  0  0  0  0  0  0  0  0
    0.0580   -0.2820   -3.1270 H   0  0  0  0  0  0  0  0  0  0  0  0
   -0.2015    1.4562   -3.2772 H   0  0  0  0  0  0  0  0  0  0  0  0
    1.8480    0.9136   -3.0681 C   0  0  0  0  0  0  0  0  0  0  0  0
    2.2276    2.0466   -3.3009 O   0  0  0  0  0  0  0  0  0  0  0  0
    2.6622   -0.1621   -3.0685 O   0  0  0  0  0  0  0  0  0  0  0  0
    3.5504    0.1897   -3.2352 H   0  0  0  0  0  0  0  0  0  0  0  0
    0.8383   -0.3304    0.8910 C   0  0  0  0  0  0  0  0  0  0  0  0
    2.0518   -0.3262    1.0476 O   0  0  0  0  0  0  0  0  0  0  0  0
    0.0305    0.1421    1.9098 N   0  0  0  0  0  0  0  0  0  0  0  0
   -0.9683    0.0296    1.7734 H   0  0  0  0  0  0  0  0  0  0  0  0
    0.5300    0.3922    3.2563 C   0  0  0  0  0  0  0  0  0  0  0  0
    1.3199    1.1506    3.2374 H   0  0  0  0  0  0  0  0  0  0  0  0
   -0.2782    0.7535    3.8992 H   0  0  0  0  0  0  0  0  0  0  0  0
    0.9357   -0.5276    3.6908 H   0  0  0  0  0  0  0  0  0  0  0  0
  1  2  1  0  0  0  0
  2  3  1  0  0  0  0
  2  4  1  0  0  0  0
  2  5  1  0  0  0  0
  5  6  2  0  0  0  0
  5  7  1  0  0  0  0
  7  8  1  0  0  0  0
  7  9  1  0  0  0  0
  9 10  1  0  0  0  0
  9 11  1  0  0  0  0
  9 21  1  0  0  0  0
 11 12  1  0  0  0  0
 11 13  1  0  0  0  0
 11 14  1  0  0  0  0
 14 15  1  0  0  0  0
 14 16  1  0  0  0  0
 14 17  1  0  0  0  0
 17 18  2  0  0  0  0
 17 19  1  0  0  0  0
 19 20  1  0  0  0  0
 21 22  2  0  0  0  0
 21 23  1  0  0  0  0
 23 24  1  0  0  0  0
 23 25  1  0  0  0  0
 25 26  1  0  0  0  0
 25 27  1  0  0  0  0
 25 28  1  0  0  0  0
M  END
$$$$

  -OEChem-03222214033D

 28 27  0     1  0  0  0  0  0999 V2000
   -2.6440   -4.1345    0.2373 H   0  0  0  0  0  0  0  0  0  0  0  0
   -2.6116   -3.1705   -0.2787 C   0  0  0  0  0  0  0  0  0  0  0  0
   -3.4284   -2.5467    0.0917 H   0  0  0  0  0  0  0  0  0  0  0  0
   -2.7470   -3.3410   -1.3496 H   0  0  0  0  0  0  0  0  0  0  0  0
   -1.2799   -2.4888   -0.0267 C   0  0  0  0  0  0  0  0  0  0  0  0
   -0.4241   -3.0540    0.6283 O   0  0  0  0  0  0  0  0  0  0  0  0
   -1.0510   -1.2247   -0.5348 N   0  0  0  0  0  0  0  0  0  0  0  0
   -1.7663   -0.8542   -1.1525 H   0  0  0  0  0  0  0  0  0  0  0  0
    0.2601   -0.5462   -0.5033 C   0  0  1  0  0  0  0  0  0  0  0  0
    0.9921   -1.1734   -1.0241 H   0  0  0  0  0  0  0  0  0  0  0  0
    0.1196    0.8130   -1.2223 C   0  0  0  0  0  0  0  0  0  0  0  0
   -0.8871    1.2135   -1.0652 H   0  0  0  0  0  0  0  0  0  0  0  0
    0.8204    1.5371   -0.7882 H   0  0  0  0  0  0  0  0  0  0  0  0
    0.4126    0.7080   -2.7305 C   0  0  0  0  0  0  0  0  0  0  0  0
   -0.1174   -0.1440   -3.1642 H   0  0  0  0  0  0  0  0  0  0  0  0
    0.0536    1.6114   -3.2317 H   0  0  0  0  0  0  0  0  0  0  0  0
    1.9041    0.5723   -3.0178 C   0  0  0  0  0  0  0  0  0  0  0  0
    2.5734    1.5867   -3.0812 O   0  0  0  0  0  0  0  0  0  0  0  0
    2.4102   -0.6669   -3.1893 O   0  0  0  0  0  0  0  0  0  0  0  0
    3.3642   -0.5351   -3.3066 H   0  0  0  0  0  0  0  0  0  0  0  0
    0.8306   -0.3249    0.9172 C   0  0  0  0  0  0  0  0  0  0  0  0
    2.0423   -0.3272    1.0868 O   0  0  0  0  0  0  0  0  0  0  0  0
    0.0136    0.1493    1.9277 N   0  0  0  0  0  0  0  0  0  0  0  0
   -0.9841    0.0367    1.7825 H   0  0  0  0  0  0  0  0  0  0  0  0
    0.5017    0.3936    3.2795 C   0  0  0  0  0  0  0  0  0  0  0  0
    1.3006    1.1427    3.2696 H   0  0  0  0  0  0  0  0  0  0  0  0
   -0.3084    0.7645    3.9143 H   0  0  0  0  0  0  0  0  0  0  0  0
    0.8918   -0.5312    3.7177 H   0  0  0  0  0  0  0  0  0  0  0  0
  1  2  1  0  0  0  0
  2  3  1  0  0  0  0
  2  4  1  0  0  0  0
  2  5  1  0  0  0  0
  5  6  2  0  0  0  0
  5  7  1  0  0  0  0
  7  8  1  0  0  0  0
  7  9  1  0  0  0  0
  9 10  1  0  0  0  0
  9 11  1  0  0  0  0
  9 21  1  0  0  0  0
 11 12  1  0  0  0  0
 11 13  1  0  0  0  0
 11 14  1  0  0  0  0
 14 15  1  0  0  0  0
 14 16  1  0  0  0  0
 14 17  1  0  0  0  0
 17 18  2  0  0  0  0
 17 19  1  0  0  0  0
 19 20  1  0  0  0  0
 21 22  2  0  0  0  0
 21 23  1  0  0  0  0
 23 24  1  0  0  0  0
 23 25  1  0  0  0  0
 25 26  1  0  0  0  0
 25 27  1  0  0  0  0
 25 28  1  0  0  0  0
M  END
$$$$

  -OEChem-03222214033D

 28 27  0     1  0  0  0  0  0999 V2000
   -2.6405   -4.1357    0.2121 H   0  0  0  0  0  0  0  0  0  0  0  0
   -2.6028   -3.1652   -0.2910 C   0  0  0  0  0  0  0  0  0  0  0  0
   -3.4263   -2.5475    0.0752 H   0  0  0  0  0  0  0  0  0  0  0  0
   -2.7221   -3.3225   -1.3657 H   0  0  0  0  0  0  0  0  0  0  0  0
   -1.2765   -2.4843   -0.0103 C   0  0  0  0  0  0  0  0  0  0  0  0
   -0.4424   -3.0434    0.6772 O   0  0  0  0  0  0  0  0  0  0  0  0
   -1.0295   -1.2279   -0.5290 N   0  0  0  0  0  0  0  0  0  0  0  0
   -1.7206   -0.8716   -1.1816 H   0  0  0  0  0  0  0  0  0  0  0  0
    0.2858   -0.5595   -0.4794 C   0  0  1  0  0  0  0  0  0  0  0  0
    1.0231   -1.2001   -0.9728 H   0  0  0  0  0  0  0  0  0  0  0  0
    0.1587    0.7964   -1.2115 C   0  0  0  0  0  0  0  0  0  0  0  0
   -0.8396    1.2175   -1.0549 H   0  0  0  0  0  0  0  0  0  0  0  0
    0.8739    1.5038   -0.7736 H   0  0  0  0  0  0  0  0  0  0  0  0
    0.4660    0.7146   -2.7202 C   0  0  0  0  0  0  0  0  0  0  0  0
   -0.2437    0.0381   -3.2030 H   0  0  0  0  0  0  0  0  0  0  0  0
    0.3375    1.7033   -3.1695 H   0  0  0  0  0  0  0  0  0  0  0  0
    1.8795    0.2304   -3.0273 C   0  0  0  0  0  0  0  0  0  0  0  0
    2.7881    1.0374   -2.9744 O   0  0  0  0  0  0  0  0  0  0  0  0
    2.0544   -1.0681   -3.3524 O   0  0  0  0  0  0  0  0  0  0  0  0
    3.0125   -1.1692   -3.4692 H   0  0  0  0  0  0  0  0  0  0  0  0
    0.8246   -0.3289    0.9522 C   0  0  0  0  0  0  0  0  0  0  0  0
    2.0307   -0.3514    1.1553 O   0  0  0  0  0  0  0  0  0  0  0  0
   -0.0133    0.1615    1.9374 N   0  0  0  0  0  0  0  0  0  0  0  0
   -1.0073    0.0556    1.7652 H   0  0  0  0  0  0  0  0  0  0  0  0
    0.4389    0.3947    3.3035 C   0  0  0  0  0  0  0  0  0  0  0  0
    1.2493    1.1313    3.3194 H   0  0  0  0  0  0  0  0  0  0  0  0
   -0.3843    0.7760    3.9152 H   0  0  0  0  0  0  0  0  0  0  0  0
    0.8022   -0.5370    3.7501 H   0  0  0  0  0  0  0  0  0  0  0  0
  1  2  1  0  0  0  0
  2  3  1  0  0  0  0
  2  4  1  0  0  0  0
  2  5  1  0  0  0  0
  5  6  2  0  0  0  0
  5  7  1  0  0  0  0
  7  8  1  0  0  0  0
  7  9  1  0  0  0  0
  9 10  1  0  0  0  0
  9 11  1  0  0  0  0
  9 21  1  0  0  0  0
 11 12  1  0  0  0  0
 11 13  1  0  0  0  0
 11 14  1  0  0  0  0
 14 15  1  0  0  0  0
 14 16  1  0  0  0  0
 14 17  1  0  0  0  0
 17 18  2  0  0  0  0
 17 19  1  0  0  0  0
 19 20  1  0  0  0  0
 21 22  2  0  0  0  0
 21 23  1  0  0  0  0
 23 24  1  0  0  0  0
 23 25  1  0  0  0  0
 25 26  1  0  0  0  0
 25 27  1  0  0  0  0
 25 28  1  0  0  0  0
M  END
$$$$

  -OEChem-03222214033D

 28 27  0     1  0  0  0  0  0999 V2000
   -2.6527   -4.1478    0.1673 H   0  0  0  0  0  0  0  0  0  0  0  0
   -2.6072   -3.1643   -0.3092 C   0  0  0  0  0  0  0  0  0  0  0  0
   -3.4382   -2.5573    0.0578 H   0  0  0  0  0  0  0  0  0  0  0  0
   -2.7070   -3.2938   -1.3896 H   0  0  0  0  0  0  0  0  0  0  0  0
   -1.2877   -2.4889    0.0134 C   0  0  0  0  0  0  0  0  0  0  0  0
   -0.4876   -3.0411    0.7455 O   0  0  0  0  0  0  0  0  0  0  0  0
   -1.0107   -1.2447   -0.5192 N   0  0  0  0  0  0  0  0  0  0  0  0
   -1.6664   -0.9084   -1.2175 H   0  0  0  0  0  0  0  0  0  0  0  0
    0.3126   -0.5939   -0.4507 C   0  0  1  0  0  0  0  0  0  0  0  0
    1.0563   -1.2487   -0.9134 H   0  0  0  0  0  0  0  0  0  0  0  0
    0.2055    0.7604   -1.1939 C   0  0  0  0  0  0  0  0  0  0  0  0
   -0.7819    1.2056   -1.0336 H   0  0  0  0  0  0  0  0  0  0  0  0
    0.9367    1.4464   -0.7485 H   0  0  0  0  0  0  0  0  0  0  0  0
    0.5237    0.7121   -2.7055 C   0  0  0  0  0  0  0  0  0  0  0  0
   -0.3228    0.2621   -3.2303 H   0  0  0  0  0  0  0  0  0  0  0  0
    0.6373    1.7323   -3.0832 H   0  0  0  0  0  0  0  0  0  0  0  0
    1.7696   -0.0840   -3.0795 C   0  0  0  0  0  0  0  0  0  0  0  0
    2.8480    0.4754   -3.0287 O   0  0  0  0  0  0  0  0  0  0  0  0
    1.6149   -1.3698   -3.4619 O   0  0  0  0  0  0  0  0  0  0  0  0
    2.5166   -1.6884   -3.6285 H   0  0  0  0  0  0  0  0  0  0  0  0
    0.8172   -0.3504    0.9924 C   0  0  0  0  0  0  0  0  0  0  0  0
    2.0175   -0.3793    1.2263 O   0  0  0  0  0  0  0  0  0  0  0  0
   -0.0393    0.1657    1.9485 N   0  0  0  0  0  0  0  0  0  0  0  0
   -1.0300    0.0612    1.7569 H   0  0  0  0  0  0  0  0  0  0  0  0
    0.3838    0.4270    3.3189 C   0  0  0  0  0  0  0  0  0  0  0  0
    1.2058    1.1506    3.3354 H   0  0  0  0  0  0  0  0  0  0  0  0
   -0.4469    0.8378    3.9004 H   0  0  0  0  0  0  0  0  0  0  0  0
    0.7206   -0.4985    3.7980 H   0  0  0  0  0  0  0  0  0  0  0  0
  1  2  1  0  0  0  0
  2  3  1  0  0  0  0
  2  4  1  0  0  0  0
  2  5  1  0  0  0  0
  5  6  2  0  0  0  0
  5  7  1  0  0  0  0
  7  8  1  0  0  0  0
  7  9  1  0  0  0  0
  9 10  1  0  0  0  0
  9 11  1  0  0  0  0
  9 21  1  0  0  0  0
 11 12  1  0  0  0  0
 11 13  1  0  0  0  0
 11 14  1  0  0  0  0
 14 15  1  0  0  0  0
 14 16  1  0  0  0  0
 14 17  1  0  0  0  0
 17 18  2  0  0  0  0
 17 19  1  0  0  0  0
 19 20  1  0  0  0  0
 21 22  2  0  0  0  0
 21 23  1  0  0  0  0
 23 24  1  0  0  0  0
 23 25  1  0  0  0  0
 25 26  1  0  0  0  0
 25 27  1  0  0  0  0
 25 28  1  0  0  0  0
M  END
$$$$

  -OEChem-03222214033D

 28 27  0     1  0  0  0  0  0999 V2000
   -2.6689   -4.1423    0.1644 H   0  0  0  0  0  0  0  0  0  0  0  0
   -2.6099   -3.1616   -0.3164 C   0  0  0  0  0  0  0  0  0  0  0  0
   -3.4507   -2.5521    0.0231 H   0  0  0  0  0  0  0  0  0  0  0  0
   -2.6783   -3.2973   -1.3985 H   0  0  0  0  0  0  0  0  0  0  0  0
   -1.3005   -2.4840    0.0400 C   0  0  0  0  0  0  0  0  0  0  0  0
   -0.5285   -3.0257    0.8094 O   0  0  0  0  0  0  0  0  0  0  0  0
   -0.9992   -1.2530   -0.5098 N   0  0  0  0  0  0  0  0  0  0  0  0
   -1.6213   -0.9425   -1.2495 H   0  0  0  0  0  0  0  0  0  0  0  0
    0.3318   -0.6203   -0.4303 C   0  0  1  0  0  0  0  0  0  0  0  0
    1.0797   -1.2891   -0.8648 H   0  0  0  0  0  0  0  0  0  0  0  0
    0.2510    0.7298   -1.1869 C   0  0  0  0  0  0  0  0  0  0  0  0
   -0.7256    1.1985   -1.0271 H   0  0  0  0  0  0  0  0  0  0  0  0
    0.9951    1.3979   -0.7363 H   0  0  0  0  0  0  0  0  0  0  0  0
    0.5797    0.6970   -2.6997 C   0  0  0  0  0  0  0  0  0  0  0  0
   -0.3466    0.5123   -3.2494 H   0  0  0  0  0  0  0  0  0  0  0  0
    0.9478    1.6797   -3.0086 H   0  0  0  0  0  0  0  0  0  0  0  0
    1.5789   -0.3621   -3.1525 C   0  0  0  0  0  0  0  0  0  0  0  0
    2.7555   -0.0619   -3.2113 O   0  0  0  0  0  0  0  0  0  0  0  0
    1.1045   -1.5835   -3.4820 O   0  0  0  0  0  0  0  0  0  0  0  0
    1.8923   -2.0978   -3.7218 H   0  0  0  0  0  0  0  0  0  0  0  0
    0.8096   -0.3621    1.0197 C   0  0  0  0  0  0  0  0  0  0  0  0
    2.0043   -0.4006    1.2800 O   0  0  0  0  0  0  0  0  0  0  0  0
   -0.0607    0.1807    1.9480 N   0  0  0  0  0  0  0  0  0  0  0  0
   -1.0478    0.0842    1.7350 H   0  0  0  0  0  0  0  0  0  0  0  0
    0.3332    0.4501    3.3254 C   0  0  0  0  0  0  0  0  0  0  0  0
    1.1583    1.1695    3.3545 H   0  0  0  0  0  0  0  0  0  0  0  0
   -0.5079    0.8694    3.8855 H   0  0  0  0  0  0  0  0  0  0  0  0
    0.6541   -0.4735    3.8187 H   0  0  0  0  0  0  0  0  0  0  0  0
  1  2  1  0  0  0  0
  2  3  1  0  0  0  0
  2  4  1  0  0  0  0
  2  5  1  0  0  0  0
  5  6  2  0  0  0  0
  5  7  1  0  0  0  0
  7  8  1  0  0  0  0
  7  9  1  0  0  0  0
  9 10  1  0  0  0  0
  9 11  1  0  0  0  0
  9 21  1  0  0  0  0
 11 12  1  0  0  0  0
 11 13  1  0  0  0  0
 11 14  1  0  0  0  0
 14 15  1  0  0  0  0
 14 16  1  0  0  0  0
 14 17  1  0  0  0  0
 17 18  2  0  0  0  0
 17 19  1  0  0  0  0
 19 20  1  0  0  0  0
 21 22  2  0  0  0  0
 21 23  1  0  0  0  0
 23 24  1  0  0  0  0
 23 25  1  0  0  0  0
 25 26  1  0  0  0  0
 25 27  1  0  0  0  0
 25 28  1  0  0  0  0
M  END
$$$$

  -OEChem-03222214033D

 28 27  0     1  0  0  0  0  0999 V2000
   -2.6905   -4.1343    0.1581 H   0  0  0  0  0  0  0  0  0  0  0  0
   -2.6193   -3.1559   -0.3258 C   0  0  0  0  0  0  0  0  0  0  0  0
   -3.4687   -2.5451   -0.0111 H   0  0  0  0  0  0  0  0  0  0  0  0
   -2.6602   -3.2969   -1.4086 H   0  0  0  0  0  0  0  0  0  0  0  0
   -1.3195   -2.4757    0.0601 C   0  0  0  0  0  0  0  0  0  0  0  0
   -0.5761   -3.0044    0.8660 O   0  0  0  0  0  0  0  0  0  0  0  0
   -0.9960   -1.2574   -0.5049 N   0  0  0  0  0  0  0  0  0  0  0  0
   -1.5810   -0.9784   -1.2870 H   0  0  0  0  0  0  0  0  0  0  0  0
    0.3424   -0.6415   -0.4172 C   0  0  1  0  0  0  0  0  0  0  0  0
    1.0920   -1.3220   -0.8315 H   0  0  0  0  0  0  0  0  0  0  0  0
    0.2879    0.7027   -1.1875 C   0  0  0  0  0  0  0  0  0  0  0  0
   -0.6854    1.1822   -1.0395 H   0  0  0  0  0  0  0  0  0  0  0  0
    1.0317    1.3674   -0.7314 H   0  0  0  0  0  0  0  0  0  0  0  0
    0.6295    0.6645   -2.7000 C   0  0  0  0  0  0  0  0  0  0  0  0
   -0.3008    0.7653   -3.2646 H   0  0  0  0  0  0  0  0  0  0  0  0
    1.2499    1.5312   -2.9481 H   0  0  0  0  0  0  0  0  0  0  0  0
    1.3217   -0.5915   -3.2196 C   0  0  0  0  0  0  0  0  0  0  0  0
    2.5202   -0.5571   -3.4204 O   0  0  0  0  0  0  0  0  0  0  0  0
    0.5596   -1.6839   -3.4507 O   0  0  0  0  0  0  0  0  0  0  0  0
    1.1862   -2.3573   -3.7618 H   0  0  0  0  0  0  0  0  0  0  0  0
    0.8025   -0.3687    1.0360 C   0  0  0  0  0  0  0  0  0  0  0  0
    1.9939   -0.4095    1.3112 O   0  0  0  0  0  0  0  0  0  0  0  0
   -0.0748    0.1990    1.9427 N   0  0  0  0  0  0  0  0  0  0  0  0
   -1.0597    0.1026    1.7186 H   0  0  0  0  0  0  0  0  0  0  0  0
    0.3014    0.4812    3.3225 C   0  0  0  0  0  0  0  0  0  0  0  0
    1.1316    1.1948    3.3556 H   0  0  0  0  0  0  0  0  0  0  0  0
   -0.5447    0.9128    3.8654 H   0  0  0  0  0  0  0  0  0  0  0  0
    0.6081   -0.4394    3.8306 H   0  0  0  0  0  0  0  0  0  0  0  0
  1  2  1  0  0  0  0
  2  3  1  0  0  0  0
  2  4  1  0  0  0  0
  2  5  1  0  0  0  0
  5  6  2  0  0  0  0
  5  7  1  0  0  0  0
  7  8  1  0  0  0  0
  7  9  1  0  0  0  0
  9 10  1  0  0  0  0
  9 11  1  0  0  0  0
  9 21  1  0  0  0  0
 11 12  1  0  0  0  0
 11 13  1  0  0  0  0
 11 14  1  0  0  0  0
 14 15  1  0  0  0  0
 14 16  1  0  0  0  0
 14 17  1  0  0  0  0
 17 18  2  0  0  0  0
 17 19  1  0  0  0  0
 19 20  1  0  0  0  0
 21 22  2  0  0  0  0
 21 23  1  0  0  0  0
 23 24  1  0  0  0  0
 23 25  1  0  0  0  0
 25 26  1  0  0  0  0
 25 27  1  0  0  0  0
 25 28  1  0  0  0  0
M  END
$$$$

  -OEChem-03222214033D

 28 27  0     1  0  0  0  0  0999 V2000
   -2.6380   -4.2027    0.3816 H   0  0  0  0  0  0  0  0  0  0  0  0
   -2.6123   -3.2487   -0.1525 C   0  0  0  0  0  0  0  0  0  0  0  0
   -3.4938   -2.6658    0.1242 H   0  0  0  0  0  0  0  0  0  0  0  0
   -2.6362   -3.4474   -1.2270 H   0  0  0  0  0  0  0  0  0  0  0  0
   -1.3514   -2.4847    0.2039 C   0  0  0  0  0  0  0  0  0  0  0  0
   -0.5819   -2.9393    1.0313 O   0  0  0  0  0  0  0  0  0  0  0  0
   -1.0937   -1.2767   -0.4138 N   0  0  0  0  0  0  0  0  0  0  0  0
   -1.6814   -1.0995   -1.2253 H   0  0  0  0  0  0  0  0  0  0  0  0
    0.2431   -0.6527   -0.4418 C   0  0  1  0  0  0  0  0  0  0  0  0
    0.9631   -1.3369   -0.9012 H   0  0  0  0  0  0  0  0  0  0  0  0
    0.1276    0.6759   -1.2322 C   0  0  0  0  0  0  0  0  0  0  0  0
   -0.8469    1.1342   -1.0331 H   0  0  0  0  0  0  0  0  0  0  0  0
    0.8805    1.3711   -0.8420 H   0  0  0  0  0  0  0  0  0  0  0  0
    0.3561    0.5971   -2.7651 C   0  0  0  0  0  0  0  0  0  0  0  0
   -0.5327    0.9758   -3.2769 H   0  0  0  0  0  0  0  0  0  0  0  0
    1.1847    1.2599   -3.0310 H   0  0  0  0  0  0  0  0  0  0  0  0
    0.6670   -0.7829   -3.3355 C   0  0  0  0  0  0  0  0  0  0  0  0
   -0.2571   -1.5718   -3.4456 O   0  0  0  0  0  0  0  0  0  0  0  0
    1.9409   -1.0721   -3.6733 O   0  0  0  0  0  0  0  0  0  0  0  0
    1.9274   -1.9916   -3.9807 H   0  0  0  0  0  0  0  0  0  0  0  0
    0.8194   -0.3427    0.9613 C   0  0  0  0  0  0  0  0  0  0  0  0
    2.0317   -0.3609    1.1302 O   0  0  0  0  0  0  0  0  0  0  0  0
    0.0166    0.2424    1.9236 N   0  0  0  0  0  0  0  0  0  0  0  0
   -0.9813    0.1122    1.7905 H   0  0  0  0  0  0  0  0  0  0  0  0
    0.5032    0.5462    3.2635 C   0  0  0  0  0  0  0  0  0  0  0  0
    1.3424    1.2484    3.2176 H   0  0  0  0  0  0  0  0  0  0  0  0
   -0.2926    1.0006    3.8614 H   0  0  0  0  0  0  0  0  0  0  0  0
    0.8368   -0.3686    3.7652 H   0  0  0  0  0  0  0  0  0  0  0  0
  1  2  1  0  0  0  0
  2  3  1  0  0  0  0
  2  4  1  0  0  0  0
  2  5  1  0  0  0  0
  5  6  2  0  0  0  0
  5  7  1  0  0  0  0
  7  8  1  0  0  0  0
  7  9  1  0  0  0  0
  9 10  1  0  0  0  0
  9 11  1  0  0  0  0
  9 21  1  0  0  0  0
 11 12  1  0  0  0  0
 11 13  1  0  0  0  0
 11 14  1  0  0  0  0
 14 15  1  0  0  0  0
 14 16  1  0  0  0  0
 14 17  1  0  0  0  0
 17 18  2  0  0  0  0
 17 19  1  0  0  0  0
 19 20  1  0  0  0  0
 21 22  2  0  0  0  0
 21 23  1  0  0  0  0
 23 24  1  0  0  0  0
 23 25  1  0  0  0  0
 25 26  1  0  0  0  0
 25 27  1  0  0  0  0
 25 28  1  0  0  0  0
M  END
$$$$

  -OEChem-03222214033D

 28 27  0     1  0  0  0  0  0999 V2000
   -2.6315   -4.2092    0.3224 H   0  0  0  0  0  0  0  0  0  0  0  0
   -2.6121   -3.2426   -0.1886 C   0  0  0  0  0  0  0  0  0  0  0  0
   -3.4941   -2.6695    0.1067 H   0  0  0  0  0  0  0  0  0  0  0  0
   -2.6415   -3.4150   -1.2675 H   0  0  0  0  0  0  0  0  0  0  0  0
   -1.3521   -2.4824    0.1788 C   0  0  0  0  0  0  0  0  0  0  0  0
   -0.5786   -2.9495    0.9955 O   0  0  0  0  0  0  0  0  0  0  0  0
   -1.0968   -1.2652   -0.4209 N   0  0  0  0  0  0  0  0  0  0  0  0
   -1.6782   -1.0860   -1.2387 H   0  0  0  0  0  0  0  0  0  0  0  0
    0.2385   -0.6371   -0.4423 C   0  0  1  0  0  0  0  0  0  0  0  0
    0.9583   -1.3089   -0.9219 H   0  0  0  0  0  0  0  0  0  0  0  0
    0.1254    0.7003   -1.2163 C   0  0  0  0  0  0  0  0  0  0  0  0
   -0.8624    1.1344   -1.0278 H   0  0  0  0  0  0  0  0  0  0  0  0
    0.8584    1.4100   -0.8145 H   0  0  0  0  0  0  0  0  0  0  0  0
    0.3601    0.6226   -2.7468 C   0  0  0  0  0  0  0  0  0  0  0  0
   -0.3707    1.2527   -3.2608 H   0  0  0  0  0  0  0  0  0  0  0  0
    1.3497    1.0356   -2.9633 H   0  0  0  0  0  0  0  0  0  0  0  0
    0.3134   -0.7745   -3.3601 C   0  0  0  0  0  0  0  0  0  0  0  0
   -0.7628   -1.3501   -3.3846 O   0  0  0  0  0  0  0  0  0  0  0  0
    1.4581   -1.3115   -3.8314 O   0  0  0  0  0  0  0  0  0  0  0  0
    1.2207   -2.1936   -4.1560 H   0  0  0  0  0  0  0  0  0  0  0  0
    0.8197   -0.3451    0.9620 C   0  0  0  0  0  0  0  0  0  0  0  0
    2.0330   -0.3593    1.1243 O   0  0  0  0  0  0  0  0  0  0  0  0
    0.0189    0.2246    1.9351 N   0  0  0  0  0  0  0  0  0  0  0  0
   -0.9795    0.0943    1.8045 H   0  0  0  0  0  0  0  0  0  0  0  0
    0.5112    0.5223    3.2742 C   0  0  0  0  0  0  0  0  0  0  0  0
    1.3502    1.2248    3.2281 H   0  0  0  0  0  0  0  0  0  0  0  0
   -0.2819    0.9740    3.8775 H   0  0  0  0  0  0  0  0  0  0  0  0
    0.8469   -0.3947    3.7700 H   0  0  0  0  0  0  0  0  0  0  0  0
  1  2  1  0  0  0  0
  2  3  1  0  0  0  0
  2  4  1  0  0  0  0
  2  5  1  0  0  0  0
  5  6  2  0  0  0  0
  5  7  1  0  0  0  0
  7  8  1  0  0  0  0
  7  9  1  0  0  0  0
  9 10  1  0  0  0  0
  9 11  1  0  0  0  0
  9 21  1  0  0  0  0
 11 12  1  0  0  0  0
 11 13  1  0  0  0  0
 11 14  1  0  0  0  0
 14 15  1  0  0  0  0
 14 16  1  0  0  0  0
 14 17  1  0  0  0  0
 17 18  2  0  0  0  0
 17 19  1  0  0  0  0
 19 20  1  0  0  0  0
 21 22  2  0  0  0  0
 21 23  1  0  0  0  0
 23 24  1  0  0  0  0
 23 25  1  0  0  0  0
 25 26  1  0  0  0  0
 25 27  1  0  0  0  0
 25 28  1  0  0  0  0
M  END
$$$$

  -OEChem-03222214033D

 28 27  0     1  0  0  0  0  0999 V2000
   -2.6300   -4.2048    0.2760 H   0  0  0  0  0  0  0  0  0  0  0  0
   -2.6123   -3.2300   -0.2195 C   0  0  0  0  0  0  0  0  0  0  0  0
   -3.4864   -2.6568    0.0986 H   0  0  0  0  0  0  0  0  0  0  0  0
   -2.6597   -3.3836   -1.3006 H   0  0  0  0  0  0  0  0  0  0  0  0
   -1.3428   -2.4828    0.1417 C   0  0  0  0  0  0  0  0  0  0  0  0
   -0.5556   -2.9701    0.9330 O   0  0  0  0  0  0  0  0  0  0  0  0
   -1.0925   -1.2547   -0.4360 N   0  0  0  0  0  0  0  0  0  0  0  0
   -1.6884   -1.0486   -1.2390 H   0  0  0  0  0  0  0  0  0  0  0  0
    0.2370   -0.6143   -0.4466 C   0  0  1  0  0  0  0  0  0  0  0  0
    0.9579   -1.2725   -0.9443 H   0  0  0  0  0  0  0  0  0  0  0  0
    0.1220    0.7281   -1.2088 C   0  0  0  0  0  0  0  0  0  0  0  0
   -0.8744    1.1483   -1.0345 H   0  0  0  0  0  0  0  0  0  0  0  0
    0.8421    1.4461   -0.7991 H   0  0  0  0  0  0  0  0  0  0  0  0
    0.3734    0.6384   -2.7329 C   0  0  0  0  0  0  0  0  0  0  0  0
   -0.1564    1.4477   -3.2422 H   0  0  0  0  0  0  0  0  0  0  0  0
    1.4425    0.7873   -2.9112 H   0  0  0  0  0  0  0  0  0  0  0  0
   -0.0105   -0.6897   -3.3820 C   0  0  0  0  0  0  0  0  0  0  0  0
   -1.1783   -1.0426   -3.3236 O   0  0  0  0  0  0  0  0  0  0  0  0
    0.9586   -1.4165   -3.9768 O   0  0  0  0  0  0  0  0  0  0  0  0
    0.5220   -2.2141   -4.3127 H   0  0  0  0  0  0  0  0  0  0  0  0
    0.8176   -0.3388    0.9605 C   0  0  0  0  0  0  0  0  0  0  0  0
    2.0313   -0.3436    1.1204 O   0  0  0  0  0  0  0  0  0  0  0  0
    0.0123    0.2084    1.9424 N   0  0  0  0  0  0  0  0  0  0  0  0
   -0.9852    0.0742    1.8096 H   0  0  0  0  0  0  0  0  0  0  0  0
    0.5031    0.4983    3.2836 C   0  0  0  0  0  0  0  0  0  0  0  0
    1.3337    1.2109    3.2433 H   0  0  0  0  0  0  0  0  0  0  0  0
   -0.2943    0.9348    3.8923 H   0  0  0  0  0  0  0  0  0  0  0  0
    0.8503   -0.4196    3.7698 H   0  0  0  0  0  0  0  0  0  0  0  0
  1  2  1  0  0  0  0
  2  3  1  0  0  0  0
  2  4  1  0  0  0  0
  2  5  1  0  0  0  0
  5  6  2  0  0  0  0
  5  7  1  0  0  0  0
  7  8  1  0  0  0  0
  7  9  1  0  0  0  0
  9 10  1  0  0  0  0
  9 11  1  0  0  0  0
  9 21  1  0  0  0  0
 11 12  1  0  0  0  0
 11 13  1  0  0  0  0
 11 14  1  0  0  0  0
 14 15  1  0  0  0  0
 14 16  1  0  0  0  0
 14 17  1  0  0  0  0
 17 18  2  0  0  0  0
 17 19  1  0  0  0  0
 19 20  1  0  0  0  0
 21 22  2  0  0  0  0
 21 23  1  0  0  0  0
 23 24  1  0  0  0  0
 23 25  1  0  0  0  0
 25 26  1  0  0  0  0
 25 27  1  0  0  0  0
 25 28  1  0  0  0  0
M  END
$$$$

  -OEChem-03222214033D

 28 27  0     1  0  0  0  0  0999 V2000
   -2.6309   -4.2008    0.2431 H   0  0  0  0  0  0  0  0  0  0  0  0
   -2.6206   -3.2128   -0.2259 C   0  0  0  0  0  0  0  0  0  0  0  0
   -3.4755   -2.6394    0.1403 H   0  0  0  0  0  0  0  0  0  0  0  0
   -2.7104   -3.3360   -1.3080 H   0  0  0  0  0  0  0  0  0  0  0  0
   -1.3301   -2.4892    0.1080 C   0  0  0  0  0  0  0  0  0  0  0  0
   -0.5227   -3.0022    0.8618 O   0  0  0  0  0  0  0  0  0  0  0  0
   -1.0827   -1.2514   -0.4499 N   0  0  0  0  0  0  0  0  0  0  0  0
   -1.7078   -0.9999   -1.2184 H   0  0  0  0  0  0  0  0  0  0  0  0
    0.2393   -0.5961   -0.4467 C   0  0  1  0  0  0  0  0  0  0  0  0
    0.9645   -1.2448   -0.9512 H   0  0  0  0  0  0  0  0  0  0  0  0
    0.1248    0.7474   -1.2042 C   0  0  0  0  0  0  0  0  0  0  0  0
   -0.8729    1.1697   -1.0429 H   0  0  0  0  0  0  0  0  0  0  0  0
    0.8444    1.4633   -0.7901 H   0  0  0  0  0  0  0  0  0  0  0  0
    0.4006    0.6401   -2.7205 C   0  0  0  0  0  0  0  0  0  0  0  0
    0.0947    1.5659   -3.2144 H   0  0  0  0  0  0  0  0  0  0  0  0
    1.4795    0.5324   -2.8669 H   0  0  0  0  0  0  0  0  0  0  0  0
   -0.2802   -0.5344   -3.4219 C   0  0  0  0  0  0  0  0  0  0  0  0
   -1.4729   -0.7190   -3.2331 O   0  0  0  0  0  0  0  0  0  0  0  0
    0.4748   -1.3174   -4.2205 O   0  0  0  0  0  0  0  0  0  0  0  0
   -0.1250   -1.9937   -4.5704 H   0  0  0  0  0  0  0  0  0  0  0  0
    0.8108   -0.3326    0.9659 C   0  0  0  0  0  0  0  0  0  0  0  0
    2.0238   -0.3277    1.1313 O   0  0  0  0  0  0  0  0  0  0  0  0
   -0.0043    0.1929    1.9517 N   0  0  0  0  0  0  0  0  0  0  0  0
   -1.0010    0.0609    1.8101 H   0  0  0  0  0  0  0  0  0  0  0  0
    0.4779    0.4770    3.2974 C   0  0  0  0  0  0  0  0  0  0  0  0
    1.3048    1.1944    3.2658 H   0  0  0  0  0  0  0  0  0  0  0  0
   -0.3247    0.9056    3.9050 H   0  0  0  0  0  0  0  0  0  0  0  0
    0.8276   -0.4421    3.7793 H   0  0  0  0  0  0  0  0  0  0  0  0
  1  2  1  0  0  0  0
  2  3  1  0  0  0  0
  2  4  1  0  0  0  0
  2  5  1  0  0  0  0
  5  6  2  0  0  0  0
  5  7  1  0  0  0  0
  7  8  1  0  0  0  0
  7  9  1  0  0  0  0
  9 10  1  0  0  0  0
  9 11  1  0  0  0  0
  9 21  1  0  0  0  0
 11 12  1  0  0  0  0
 11 13  1  0  0  0  0
 11 14  1  0  0  0  0
 14 15  1  0  0  0  0
 14 16  1  0  0  0  0
 14 17  1  0  0  0  0
 17 18  2  0  0  0  0
 17 19  1  0  0  0  0
 19 20  1  0  0  0  0
 21 22  2  0  0  0  0
 21 23  1  0  0  0  0
 23 24  1  0  0  0  0
 23 25  1  0  0  0  0
 25 26  1  0  0  0  0
 25 27  1  0  0  0  0
 25 28  1  0  0  0  0
M  END
$$$$

  -OEChem-03222214033D

 28 27  0     1  0  0  0  0  0999 V2000
   -2.6380   -4.1885    0.2305 H   0  0  0  0  0  0  0  0  0  0  0  0
   -2.6280   -3.1935   -0.2236 C   0  0  0  0  0  0  0  0  0  0  0  0
   -3.4705   -2.6181    0.1673 H   0  0  0  0  0  0  0  0  0  0  0  0
   -2.7391   -3.2992   -1.3054 H   0  0  0  0  0  0  0  0  0  0  0  0
   -1.3251   -2.4865    0.0963 C   0  0  0  0  0  0  0  0  0  0  0  0
   -0.5110   -3.0144    0.8324 O   0  0  0  0  0  0  0  0  0  0  0  0
   -1.0718   -1.2471   -0.4542 N   0  0  0  0  0  0  0  0  0  0  0  0
   -1.7126   -0.9643   -1.1990 H   0  0  0  0  0  0  0  0  0  0  0  0
    0.2471   -0.5885   -0.4391 C   0  0  1  0  0  0  0  0  0  0  0  0
    0.9754   -1.2361   -0.9399 H   0  0  0  0  0  0  0  0  0  0  0  0
    0.1337    0.7519   -1.1998 C   0  0  0  0  0  0  0  0  0  0  0  0
   -0.8587    1.1896   -1.0448 H   0  0  0  0  0  0  0  0  0  0  0  0
    0.8619    1.4602   -0.7879 H   0  0  0  0  0  0  0  0  0  0  0  0
    0.4282    0.6188   -2.7098 C   0  0  0  0  0  0  0  0  0  0  0  0
    0.3604    1.6044   -3.1771 H   0  0  0  0  0  0  0  0  0  0  0  0
    1.4560    0.2666   -2.8381 H   0  0  0  0  0  0  0  0  0  0  0  0
   -0.4977   -0.3291   -3.4736 C   0  0  0  0  0  0  0  0  0  0  0  0
   -1.6616   -0.4483   -3.1215 O   0  0  0  0  0  0  0  0  0  0  0  0
    0.0275   -0.9905   -4.5261 O   0  0  0  0  0  0  0  0  0  0  0  0
   -0.6956   -1.5247   -4.8882 H   0  0  0  0  0  0  0  0  0  0  0  0
    0.8066   -0.3278    0.9783 C   0  0  0  0  0  0  0  0  0  0  0  0
    2.0179   -0.3254    1.1554 O   0  0  0  0  0  0  0  0  0  0  0  0
   -0.0180    0.1924    1.9589 N   0  0  0  0  0  0  0  0  0  0  0  0
   -1.0139    0.0718    1.8025 H   0  0  0  0  0  0  0  0  0  0  0  0
    0.4489    0.4672    3.3118 C   0  0  0  0  0  0  0  0  0  0  0  0
    1.2707    1.1908    3.2947 H   0  0  0  0  0  0  0  0  0  0  0  0
   -0.3630    0.8840    3.9150 H   0  0  0  0  0  0  0  0  0  0  0  0
    0.8002   -0.4540    3.7887 H   0  0  0  0  0  0  0  0  0  0  0  0
  1  2  1  0  0  0  0
  2  3  1  0  0  0  0
  2  4  1  0  0  0  0
  2  5  1  0  0  0  0
  5  6  2  0  0  0  0
  5  7  1  0  0  0  0
  7  8  1  0  0  0  0
  7  9  1  0  0  0  0
  9 10  1  0  0  0  0
  9 11  1  0  0  0  0
  9 21  1  0  0  0  0
 11 12  1  0  0  0  0
 11 13  1  0  0  0  0
 11 14  1  0  0  0  0
 14 15  1  0  0  0  0
 14 16  1  0  0  0  0
 14 17  1  0  0  0  0
 17 18  2  0  0  0  0
 17 19  1  0  0  0  0
 19 20  1  0  0  0  0
 21 22  2  0  0  0  0
 21 23  1  0  0  0  0
 23 24  1  0  0  0  0
 23 25  1  0  0  0  0
 25 26  1  0  0  0  0
 25 27  1  0  0  0  0
 25 28  1  0  0  0  0
M  END
$$$$

  -OEChem-03222214033D

 28 27  0     1  0  0  0  0  0999 V2000
   -2.6552   -4.1768    0.2237 H   0  0  0  0  0  0  0  0  0  0  0  0
   -2.6387   -3.1767   -0.2185 C   0  0  0  0  0  0  0  0  0  0  0  0
   -3.4721   -2.5971    0.1858 H   0  0  0  0  0  0  0  0  0  0  0  0
   -2.7591   -3.2688   -1.3007 H   0  0  0  0  0  0  0  0  0  0  0  0
   -1.3265   -2.4859    0.0995 C   0  0  0  0  0  0  0  0  0  0  0  0
   -0.5182   -3.0216    0.8364 O   0  0  0  0  0  0  0  0  0  0  0  0
   -1.0593   -1.2506   -0.4530 N   0  0  0  0  0  0  0  0  0  0  0  0
   -1.7025   -0.9519   -1.1898 H   0  0  0  0  0  0  0  0  0  0  0  0
    0.2599   -0.5953   -0.4267 C   0  0  1  0  0  0  0  0  0  0  0  0
    0.9924   -1.2472   -0.9153 H   0  0  0  0  0  0  0  0  0  0  0  0
    0.1432    0.7375   -1.1985 C   0  0  0  0  0  0  0  0  0  0  0  0
   -0.8415    1.1925   -1.0442 H   0  0  0  0  0  0  0  0  0  0  0  0
    0.8816    1.4388   -0.7926 H   0  0  0  0  0  0  0  0  0  0  0  0
    0.4504    0.5805   -2.7046 C   0  0  0  0  0  0  0  0  0  0  0  0
    0.6157    1.5736   -3.1306 H   0  0  0  0  0  0  0  0  0  0  0  0
    1.3773    0.0146   -2.8339 H   0  0  0  0  0  0  0  0  0  0  0  0
   -0.6505   -0.0873   -3.5335 C   0  0  0  0  0  0  0  0  0  0  0  0
   -1.7517   -0.2922   -3.0454 O   0  0  0  0  0  0  0  0  0  0  0  0
   -0.3346   -0.4189   -4.8027 O   0  0  0  0  0  0  0  0  0  0  0  0
   -1.1359   -0.8165   -5.1763 H   0  0  0  0  0  0  0  0  0  0  0  0
    0.8051   -0.3277    0.9950 C   0  0  0  0  0  0  0  0  0  0  0  0
    2.0146   -0.3287    1.1848 O   0  0  0  0  0  0  0  0  0  0  0  0
   -0.0280    0.1998    1.9646 N   0  0  0  0  0  0  0  0  0  0  0  0
   -1.0226    0.0819    1.7985 H   0  0  0  0  0  0  0  0  0  0  0  0
    0.4258    0.4789    3.3212 C   0  0  0  0  0  0  0  0  0  0  0  0
    1.2545    1.1948    3.3098 H   0  0  0  0  0  0  0  0  0  0  0  0
   -0.3892    0.9071    3.9124 H   0  0  0  0  0  0  0  0  0  0  0  0
    0.7629   -0.4423    3.8081 H   0  0  0  0  0  0  0  0  0  0  0  0
  1  2  1  0  0  0  0
  2  3  1  0  0  0  0
  2  4  1  0  0  0  0
  2  5  1  0  0  0  0
  5  6  2  0  0  0  0
  5  7  1  0  0  0  0
  7  8  1  0  0  0  0
  7  9  1  0  0  0  0
  9 10  1  0  0  0  0
  9 11  1  0  0  0  0
  9 21  1  0  0  0  0
 11 12  1  0  0  0  0
 11 13  1  0  0  0  0
 11 14  1  0  0  0  0
 14 15  1  0  0  0  0
 14 16  1  0  0  0  0
 14 17  1  0  0  0  0
 17 18  2  0  0  0  0
 17 19  1  0  0  0  0
 19 20  1  0  0  0  0
 21 22  2  0  0  0  0
 21 23  1  0  0  0  0
 23 24  1  0  0  0  0
 23 25  1  0  0  0  0
 25 26  1  0  0  0  0
 25 27  1  0  0  0  0
 25 28  1  0  0  0  0
M  END
$$$$

  -OEChem-03222214033D

 28 27  0     1  0  0  0  0  0999 V2000
   -2.6773   -4.1659    0.2378 H   0  0  0  0  0  0  0  0  0  0  0  0
   -2.6445   -3.1746   -0.2228 C   0  0  0  0  0  0  0  0  0  0  0  0
   -3.4837   -2.5832    0.1509 H   0  0  0  0  0  0  0  0  0  0  0  0
   -2.7406   -3.2862   -1.3058 H   0  0  0  0  0  0  0  0  0  0  0  0
   -1.3360   -2.4854    0.1132 C   0  0  0  0  0  0  0  0  0  0  0  0
   -0.5486   -3.0116    0.8792 O   0  0  0  0  0  0  0  0  0  0  0  0
   -1.0485   -1.2615   -0.4542 N   0  0  0  0  0  0  0  0  0  0  0  0
   -1.6723   -0.9740   -1.2120 H   0  0  0  0  0  0  0  0  0  0  0  0
    0.2767   -0.6192   -0.4184 C   0  0  1  0  0  0  0  0  0  0  0  0
    1.0110   -1.2825   -0.8880 H   0  0  0  0  0  0  0  0  0  0  0  0
    0.1649    0.7036   -1.2058 C   0  0  0  0  0  0  0  0  0  0  0  0
   -0.8126    1.1755   -1.0544 H   0  0  0  0  0  0  0  0  0  0  0  0
    0.9121    1.3995   -0.8066 H   0  0  0  0  0  0  0  0  0  0  0  0
    0.4810    0.5220   -2.7078 C   0  0  0  0  0  0  0  0  0  0  0  0
    0.8857    1.4646   -3.0868 H   0  0  0  0  0  0  0  0  0  0  0  0
    1.2512   -0.2397   -2.8553 H   0  0  0  0  0  0  0  0  0  0  0  0
   -0.7349    0.1809   -3.5732 C   0  0  0  0  0  0  0  0  0  0  0  0
   -1.7536   -0.2516   -3.0551 O   0  0  0  0  0  0  0  0  0  0  0  0
   -0.6096    0.3754   -4.9025 O   0  0  0  0  0  0  0  0  0  0  0  0
   -1.4588    0.1085   -5.2864 H   0  0  0  0  0  0  0  0  0  0  0  0
    0.8059   -0.3341    1.0060 C   0  0  0  0  0  0  0  0  0  0  0  0
    2.0131   -0.3378    1.2100 O   0  0  0  0  0  0  0  0  0  0  0  0
   -0.0351    0.2172    1.9551 N   0  0  0  0  0  0  0  0  0  0  0  0
   -1.0281    0.0986    1.7801 H   0  0  0  0  0  0  0  0  0  0  0  0
    0.4039    0.5222    3.3109 C   0  0  0  0  0  0  0  0  0  0  0  0
    1.2315    1.2393    3.2950 H   0  0  0  0  0  0  0  0  0  0  0  0
   -0.4181    0.9597    3.8856 H   0  0  0  0  0  0  0  0  0  0  0  0
    0.7377   -0.3892    3.8181 H   0  0  0  0  0  0  0  0  0  0  0  0
  1  2  1  0  0  0  0
  2  3  1  0  0  0  0
  2  4  1  0  0  0  0
  2  5  1  0  0  0  0
  5  6  2  0  0  0  0
  5  7  1  0  0  0  0
  7  8  1  0  0  0  0
  7  9  1  0  0  0  0
  9 10  1  0  0  0  0
  9 11  1  0  0  0  0
  9 21  1  0  0  0  0
 11 12  1  0  0  0  0
 11 13  1  0  0  0  0
 11 14  1  0  0  0  0
 14 15  1  0  0  0  0
 14 16  1  0  0  0  0
 14 17  1  0  0  0  0
 17 18  2  0  0  0  0
 17 19  1  0  0  0  0
 19 20  1  0  0  0  0
 21 22  2  0  0  0  0
 21 23  1  0  0  0  0
 23 24  1  0  0  0  0
 23 25  1  0  0  0  0
 25 26  1  0  0  0  0
 25 27  1  0  0  0  0
 25 28  1  0  0  0  0
M  END
$$$$

  -OEChem-03222214033D

 28 27  0     1  0  0  0  0  0999 V2000
   -2.6959   -4.1487    0.2217 H   0  0  0  0  0  0  0  0  0  0  0  0
   -2.6504   -3.1595   -0.2424 C   0  0  0  0  0  0  0  0  0  0  0  0
   -3.4899   -2.5609    0.1188 H   0  0  0  0  0  0  0  0  0  0  0  0
   -2.7339   -3.2753   -1.3257 H   0  0  0  0  0  0  0  0  0  0  0  0
   -1.3406   -2.4786    0.1062 C   0  0  0  0  0  0  0  0  0  0  0  0
   -0.5734   -3.0009    0.8950 O   0  0  0  0  0  0  0  0  0  0  0  0
   -1.0278   -1.2673   -0.4755 N   0  0  0  0  0  0  0  0  0  0  0  0
   -1.6361   -0.9816   -1.2459 H   0  0  0  0  0  0  0  0  0  0  0  0
    0.3055   -0.6407   -0.4228 C   0  0  1  0  0  0  0  0  0  0  0  0
    1.0458   -1.3112   -0.8726 H   0  0  0  0  0  0  0  0  0  0  0  0
    0.1886    0.6705   -1.2231 C   0  0  0  0  0  0  0  0  0  0  0  0
   -0.7890    1.1437   -1.0755 H   0  0  0  0  0  0  0  0  0  0  0  0
    0.9331    1.3740   -0.8322 H   0  0  0  0  0  0  0  0  0  0  0  0
    0.5124    0.4602   -2.7189 C   0  0  0  0  0  0  0  0  0  0  0  0
    1.1481    1.2833   -3.0582 H   0  0  0  0  0  0  0  0  0  0  0  0
    1.0655   -0.4663   -2.8933 H   0  0  0  0  0  0  0  0  0  0  0  0
   -0.7497    0.4642   -3.5789 C   0  0  0  0  0  0  0  0  0  0  0  0
   -1.7380   -0.1278   -3.1695 O   0  0  0  0  0  0  0  0  0  0  0  0
   -0.7117    1.1193   -4.7582 O   0  0  0  0  0  0  0  0  0  0  0  0
   -1.5906    1.0011   -5.1499 H   0  0  0  0  0  0  0  0  0  0  0  0
    0.8127   -0.3377    1.0060 C   0  0  0  0  0  0  0  0  0  0  0  0
    2.0154   -0.3556    1.2332 O   0  0  0  0  0  0  0  0  0  0  0  0
   -0.0378    0.2407    1.9304 N   0  0  0  0  0  0  0  0  0  0  0  0
   -1.0293    0.1337    1.7403 H   0  0  0  0  0  0  0  0  0  0  0  0
    0.3829    0.5692    3.2866 C   0  0  0  0  0  0  0  0  0  0  0  0
    1.2161    1.2800    3.2690 H   0  0  0  0  0  0  0  0  0  0  0  0
   -0.4445    1.0237    3.8398 H   0  0  0  0  0  0  0  0  0  0  0  0
    0.7020   -0.3343    3.8169 H   0  0  0  0  0  0  0  0  0  0  0  0
  1  2  1  0  0  0  0
  2  3  1  0  0  0  0
  2  4  1  0  0  0  0
  2  5  1  0  0  0  0
  5  6  2  0  0  0  0
  5  7  1  0  0  0  0
  7  8  1  0  0  0  0
  7  9  1  0  0  0  0
  9 10  1  0  0  0  0
  9 11  1  0  0  0  0
  9 21  1  0  0  0  0
 11 12  1  0  0  0  0
 11 13  1  0  0  0  0
 11 14  1  0  0  0  0
 14 15  1  0  0  0  0
 14 16  1  0  0  0  0
 14 17  1  0  0  0  0
 17 18  2  0  0  0  0
 17 19  1  0  0  0  0
 19 20  1  0  0  0  0
 21 22  2  0  0  0  0
 21 23  1  0  0  0  0
 23 24  1  0  0  0  0
 23 25  1  0  0  0  0
 25 26  1  0  0  0  0
 25 27  1  0  0  0  0
 25 28  1  0  0  0  0
M  END
$$$$

  -OEChem-03222214033D

 28 27  0     1  0  0  0  0  0999 V2000
   -2.7156   -4.1290    0.2710 H   0  0  0  0  0  0  0  0  0  0  0  0
   -2.6660   -3.1444   -0.2023 C   0  0  0  0  0  0  0  0  0  0  0  0
   -3.4820   -2.5272    0.1808 H   0  0  0  0  0  0  0  0  0  0  0  0
   -2.7869   -3.2669   -1.2814 H   0  0  0  0  0  0  0  0  0  0  0  0
   -1.3329   -2.4866    0.0990 C   0  0  0  0  0  0  0  0  0  0  0  0
   -0.5445   -3.0245    0.8552 O   0  0  0  0  0  0  0  0  0  0  0  0
   -1.0233   -1.2757   -0.4856 N   0  0  0  0  0  0  0  0  0  0  0  0
   -1.6624   -0.9569   -1.2142 H   0  0  0  0  0  0  0  0  0  0  0  0
    0.3086   -0.6444   -0.4357 C   0  0  1  0  0  0  0  0  0  0  0  0
    1.0525   -1.3125   -0.8835 H   0  0  0  0  0  0  0  0  0  0  0  0
    0.1851    0.6611   -1.2408 C   0  0  0  0  0  0  0  0  0  0  0  0
   -0.8011    1.1163   -1.0939 H   0  0  0  0  0  0  0  0  0  0  0  0
    0.9155    1.3814   -0.8542 H   0  0  0  0  0  0  0  0  0  0  0  0
    0.5098    0.4392   -2.7352 C   0  0  0  0  0  0  0  0  0  0  0  0
    1.3569    1.0708   -3.0184 H   0  0  0  0  0  0  0  0  0  0  0  0
    0.7936   -0.5959   -2.9416 H   0  0  0  0  0  0  0  0  0  0  0  0
   -0.6797    0.7951   -3.6194 C   0  0  0  0  0  0  0  0  0  0  0  0
   -1.7559    0.2777   -3.3622 O   0  0  0  0  0  0  0  0  0  0  0  0
   -0.4920    1.6585   -4.6398 O   0  0  0  0  0  0  0  0  0  0  0  0
   -1.3564    1.7424   -5.0707 H   0  0  0  0  0  0  0  0  0  0  0  0
    0.8152   -0.3364    0.9920 C   0  0  0  0  0  0  0  0  0  0  0  0
    2.0176   -0.3541    1.2199 O   0  0  0  0  0  0  0  0  0  0  0  0
   -0.0361    0.2413    1.9162 N   0  0  0  0  0  0  0  0  0  0  0  0
   -1.0278    0.1427    1.7236 H   0  0  0  0  0  0  0  0  0  0  0  0
    0.3843    0.5742    3.2716 C   0  0  0  0  0  0  0  0  0  0  0  0
    1.2097    1.2936    3.2518 H   0  0  0  0  0  0  0  0  0  0  0  0
   -0.4464    1.0197    3.8271 H   0  0  0  0  0  0  0  0  0  0  0  0
    0.7147   -0.3258    3.8010 H   0  0  0  0  0  0  0  0  0  0  0  0
  1  2  1  0  0  0  0
  2  3  1  0  0  0  0
  2  4  1  0  0  0  0
  2  5  1  0  0  0  0
  5  6  2  0  0  0  0
  5  7  1  0  0  0  0
  7  8  1  0  0  0  0
  7  9  1  0  0  0  0
  9 10  1  0  0  0  0
  9 11  1  0  0  0  0
  9 21  1  0  0  0  0
 11 12  1  0  0  0  0
 11 13  1  0  0  0  0
 11 14  1  0  0  0  0
 14 15  1  0  0  0  0
 14 16  1  0  0  0  0
 14 17  1  0  0  0  0
 17 18  2  0  0  0  0
 17 19  1  0  0  0  0
 19 20  1  0  0  0  0
 21 22  2  0  0  0  0
 21 23  1  0  0  0  0
 23 24  1  0  0  0  0
 23 25  1  0  0  0  0
 25 26  1  0  0  0  0
 25 27  1  0  0  0  0
 25 28  1  0  0  0  0
M  END
$$$$

  -OEChem-03222214033D

 28 27  0     1  0  0  0  0  0999 V2000
   -2.7169   -4.1312    0.3359 H   0  0  0  0  0  0  0  0  0  0  0  0
   -2.6782   -3.1513   -0.1483 C   0  0  0  0  0  0  0  0  0  0  0  0
   -3.4782   -2.5267    0.2562 H   0  0  0  0  0  0  0  0  0  0  0  0
   -2.8353   -3.2836   -1.2215 H   0  0  0  0  0  0  0  0  0  0  0  0
   -1.3321   -2.4983    0.1024 C   0  0  0  0  0  0  0  0  0  0  0  0
   -0.5129   -3.0463    0.8173 O   0  0  0  0  0  0  0  0  0  0  0  0
   -1.0427   -1.2820   -0.4824 N   0  0  0  0  0  0  0  0  0  0  0  0
   -1.7205   -0.9349   -1.1583 H   0  0  0  0  0  0  0  0  0  0  0  0
    0.2845   -0.6384   -0.4515 C   0  0  1  0  0  0  0  0  0  0  0  0
    1.0250   -1.3043   -0.9089 H   0  0  0  0  0  0  0  0  0  0  0  0
    0.1683    0.6669   -1.2592 C   0  0  0  0  0  0  0  0  0  0  0  0
   -0.8292    1.0995   -1.1222 H   0  0  0  0  0  0  0  0  0  0  0  0
    0.8828    1.4040   -0.8742 H   0  0  0  0  0  0  0  0  0  0  0  0
    0.4905    0.4372   -2.7519 C   0  0  0  0  0  0  0  0  0  0  0  0
    1.4945    0.8100   -2.9744 H   0  0  0  0  0  0  0  0  0  0  0  0
    0.4748   -0.6281   -2.9974 H   0  0  0  0  0  0  0  0  0  0  0  0
   -0.5209    1.1273   -3.6586 C   0  0  0  0  0  0  0  0  0  0  0  0
   -1.6892    0.7868   -3.5731 O   0  0  0  0  0  0  0  0  0  0  0  0
   -0.0828    2.0827   -4.5054 O   0  0  0  0  0  0  0  0  0  0  0  0
   -0.8708    2.3856   -4.9820 H   0  0  0  0  0  0  0  0  0  0  0  0
    0.8094   -0.3320    0.9705 C   0  0  0  0  0  0  0  0  0  0  0  0
    2.0148   -0.3410    1.1818 O   0  0  0  0  0  0  0  0  0  0  0  0
   -0.0324    0.2338    1.9109 N   0  0  0  0  0  0  0  0  0  0  0  0
   -1.0265    0.1339    1.7324 H   0  0  0  0  0  0  0  0  0  0  0  0
    0.4069    0.5674    3.2602 C   0  0  0  0  0  0  0  0  0  0  0  0
    1.2170    1.3035    3.2290 H   0  0  0  0  0  0  0  0  0  0  0  0
   -0.4218    0.9927    3.8344 H   0  0  0  0  0  0  0  0  0  0  0  0
    0.7653   -0.3287    3.7780 H   0  0  0  0  0  0  0  0  0  0  0  0
  1  2  1  0  0  0  0
  2  3  1  0  0  0  0
  2  4  1  0  0  0  0
  2  5  1  0  0  0  0
  5  6  2  0  0  0  0
  5  7  1  0  0  0  0
  7  8  1  0  0  0  0
  7  9  1  0  0  0  0
  9 10  1  0  0  0  0
  9 11  1  0  0  0  0
  9 21  1  0  0  0  0
 11 12  1  0  0  0  0
 11 13  1  0  0  0  0
 11 14  1  0  0  0  0
 14 15  1  0  0  0  0
 14 16  1  0  0  0  0
 14 17  1  0  0  0  0
 17 18  2  0  0  0  0
 17 19  1  0  0  0  0
 19 20  1  0  0  0  0
 21 22  2  0  0  0  0
 21 23  1  0  0  0  0
 23 24  1  0  0  0  0
 23 25  1  0  0  0  0
 25 26  1  0  0  0  0
 25 27  1  0  0  0  0
 25 28  1  0  0  0  0
M  END
$$$$

  -OEChem-03222214033D

 28 27  0     1  0  0  0  0  0999 V2000
   -2.7275   -4.1207    0.4066 H   0  0  0  0  0  0  0  0  0  0  0  0
   -2.6856   -3.1616   -0.1176 C   0  0  0  0  0  0  0  0  0  0  0  0
   -3.4772   -2.5153    0.2687 H   0  0  0  0  0  0  0  0  0  0  0  0
   -2.8537   -3.3364   -1.1830 H   0  0  0  0  0  0  0  0  0  0  0  0
   -1.3318   -2.5105    0.0939 C   0  0  0  0  0  0  0  0  0  0  0  0
   -0.4896   -3.0659    0.7752 O   0  0  0  0  0  0  0  0  0  0  0  0
   -1.0607   -1.2872   -0.4861 N   0  0  0  0  0  0  0  0  0  0  0  0
   -1.7654   -0.9207   -1.1217 H   0  0  0  0  0  0  0  0  0  0  0  0
    0.2628   -0.6341   -0.4679 C   0  0  1  0  0  0  0  0  0  0  0  0
    0.9985   -1.2957   -0.9396 H   0  0  0  0  0  0  0  0  0  0  0  0
    0.1486    0.6760   -1.2679 C   0  0  0  0  0  0  0  0  0  0  0  0
   -0.8548    1.0965   -1.1370 H   0  0  0  0  0  0  0  0  0  0  0  0
    0.8567    1.4186   -0.8817 H   0  0  0  0  0  0  0  0  0  0  0  0
    0.4657    0.4462   -2.7583 C   0  0  0  0  0  0  0  0  0  0  0  0
    1.5411    0.5505   -2.9304 H   0  0  0  0  0  0  0  0  0  0  0  0
    0.1795   -0.5658   -3.0588 H   0  0  0  0  0  0  0  0  0  0  0  0
   -0.2965    1.4178   -3.6498 C   0  0  0  0  0  0  0  0  0  0  0  0
   -1.5109    1.3211   -3.6947 O   0  0  0  0  0  0  0  0  0  0  0  0
    0.4029    2.3462   -4.3354 O   0  0  0  0  0  0  0  0  0  0  0  0
   -0.2596    2.8565   -4.8259 H   0  0  0  0  0  0  0  0  0  0  0  0
    0.8060   -0.3341    0.9482 C   0  0  0  0  0  0  0  0  0  0  0  0
    2.0145   -0.3348    1.1414 O   0  0  0  0  0  0  0  0  0  0  0  0
   -0.0261    0.2190    1.9045 N   0  0  0  0  0  0  0  0  0  0  0  0
   -1.0224    0.1199    1.7392 H   0  0  0  0  0  0  0  0  0  0  0  0
    0.4330    0.5654    3.2437 C   0  0  0  0  0  0  0  0  0  0  0  0
    1.2179    1.3275    3.1943 H   0  0  0  0  0  0  0  0  0  0  0  0
   -0.3956    0.9630    3.8373 H   0  0  0  0  0  0  0  0  0  0  0  0
    0.8319   -0.3192    3.7515 H   0  0  0  0  0  0  0  0  0  0  0  0
  1  2  1  0  0  0  0
  2  3  1  0  0  0  0
  2  4  1  0  0  0  0
  2  5  1  0  0  0  0
  5  6  2  0  0  0  0
  5  7  1  0  0  0  0
  7  8  1  0  0  0  0
  7  9  1  0  0  0  0
  9 10  1  0  0  0  0
  9 11  1  0  0  0  0
  9 21  1  0  0  0  0
 11 12  1  0  0  0  0
 11 13  1  0  0  0  0
 11 14  1  0  0  0  0
 14 15  1  0  0  0  0
 14 16  1  0  0  0  0
 14 17  1  0  0  0  0
 17 18  2  0  0  0  0
 17 19  1  0  0  0  0
 19 20  1  0  0  0  0
 21 22  2  0  0  0  0
 21 23  1  0  0  0  0
 23 24  1  0  0  0  0
 23 25  1  0  0  0  0
 25 26  1  0  0  0  0
 25 27  1  0  0  0  0
 25 28  1  0  0  0  0
M  END
$$$$

  -OEChem-03222214033D

 28 27  0     1  0  0  0  0  0999 V2000
   -2.7230   -4.0999    0.4618 H   0  0  0  0  0  0  0  0  0  0  0  0
   -2.6779   -3.1606   -0.0971 C   0  0  0  0  0  0  0  0  0  0  0  0
   -3.4601   -2.4939    0.2736 H   0  0  0  0  0  0  0  0  0  0  0  0
   -2.8579   -3.3716   -1.1540 H   0  0  0  0  0  0  0  0  0  0  0  0
   -1.3165   -2.5147    0.0781 C   0  0  0  0  0  0  0  0  0  0  0  0
   -0.4528   -3.0810    0.7222 O   0  0  0  0  0  0  0  0  0  0  0  0
   -1.0631   -1.2828   -0.4919 N   0  0  0  0  0  0  0  0  0  0  0  0
   -1.7932   -0.8957   -1.0838 H   0  0  0  0  0  0  0  0  0  0  0  0
    0.2537   -0.6163   -0.4811 C   0  0  1  0  0  0  0  0  0  0  0  0
    0.9896   -1.2689   -0.9650 H   0  0  0  0  0  0  0  0  0  0  0  0
    0.1271    0.6984   -1.2719 C   0  0  0  0  0  0  0  0  0  0  0  0
   -0.8777    1.1151   -1.1397 H   0  0  0  0  0  0  0  0  0  0  0  0
    0.8363    1.4395   -0.8842 H   0  0  0  0  0  0  0  0  0  0  0  0
    0.4380    0.4763   -2.7628 C   0  0  0  0  0  0  0  0  0  0  0  0
    1.5137    0.3318   -2.8992 H   0  0  0  0  0  0  0  0  0  0  0  0
   -0.0678   -0.4228   -3.1252 H   0  0  0  0  0  0  0  0  0  0  0  0
   -0.0281    1.6507   -3.6139 C   0  0  0  0  0  0  0  0  0  0  0  0
   -1.2235    1.8798   -3.6724 O   0  0  0  0  0  0  0  0  0  0  0  0
    0.9029    2.3869   -4.2560 O   0  0  0  0  0  0  0  0  0  0  0  0
    0.4070    3.0754   -4.7248 H   0  0  0  0  0  0  0  0  0  0  0  0
    0.8064   -0.3261    0.9335 C   0  0  0  0  0  0  0  0  0  0  0  0
    2.0160   -0.3232    1.1184 O   0  0  0  0  0  0  0  0  0  0  0  0
   -0.0221    0.2079    1.9037 N   0  0  0  0  0  0  0  0  0  0  0  0
   -1.0190    0.1055    1.7447 H   0  0  0  0  0  0  0  0  0  0  0  0
    0.4449    0.5324    3.2456 C   0  0  0  0  0  0  0  0  0  0  0  0
    1.2386    1.2858    3.2038 H   0  0  0  0  0  0  0  0  0  0  0  0
   -0.3774    0.9322    3.8467 H   0  0  0  0  0  0  0  0  0  0  0  0
    0.8355   -0.3628    3.7411 H   0  0  0  0  0  0  0  0  0  0  0  0
  1  2  1  0  0  0  0
  2  3  1  0  0  0  0
  2  4  1  0  0  0  0
  2  5  1  0  0  0  0
  5  6  2  0  0  0  0
  5  7  1  0  0  0  0
  7  8  1  0  0  0  0
  7  9  1  0  0  0  0
  9 10  1  0  0  0  0
  9 11  1  0  0  0  0
  9 21  1  0  0  0  0
 11 12  1  0  0  0  0
 11 13  1  0  0  0  0
 11 14  1  0  0  0  0
 14 15  1  0  0  0  0
 14 16  1  0  0  0  0
 14 17  1  0  0  0  0
 17 18  2  0  0  0  0
 17 19  1  0  0  0  0
 19 20  1  0  0  0  0
 21 22  2  0  0  0  0
 21 23  1  0  0  0  0
 23 24  1  0  0  0  0
 23 25  1  0  0  0  0
 25 26  1  0  0  0  0
 25 27  1  0  0  0  0
 25 28  1  0  0  0  0
M  END
$$$$

  -OEChem-03222214033D

 28 27  0     1  0  0  0  0  0999 V2000
   -2.6851   -4.1277    0.4363 H   0  0  0  0  0  0  0  0  0  0  0  0
   -2.6659   -3.1663   -0.0851 C   0  0  0  0  0  0  0  0  0  0  0  0
   -3.4290   -2.5163    0.3495 H   0  0  0  0  0  0  0  0  0  0  0  0
   -2.8965   -3.3347   -1.1398 H   0  0  0  0  0  0  0  0  0  0  0  0
   -1.2967   -2.5271    0.0510 C   0  0  0  0  0  0  0  0  0  0  0  0
   -0.4091   -3.1104    0.6454 O   0  0  0  0  0  0  0  0  0  0  0  0
   -1.0624   -1.2831   -0.5005 N   0  0  0  0  0  0  0  0  0  0  0  0
   -1.8243   -0.8605   -1.0226 H   0  0  0  0  0  0  0  0  0  0  0  0
    0.2440   -0.5974   -0.4828 C   0  0  1  0  0  0  0  0  0  0  0  0
    0.9848   -1.2341   -0.9800 H   0  0  0  0  0  0  0  0  0  0  0  0
    0.1067    0.7220   -1.2595 C   0  0  0  0  0  0  0  0  0  0  0  0
   -0.7878    1.2601   -0.9260 H   0  0  0  0  0  0  0  0  0  0  0  0
    0.9719    1.3596   -1.0417 H   0  0  0  0  0  0  0  0  0  0  0  0
    0.0555    0.4771   -2.7795 C   0  0  0  0  0  0  0  0  0  0  0  0
    0.9716   -0.0272   -3.1002 H   0  0  0  0  0  0  0  0  0  0  0  0
   -0.7878   -0.1680   -3.0367 H   0  0  0  0  0  0  0  0  0  0  0  0
   -0.0816    1.7798   -3.5590 C   0  0  0  0  0  0  0  0  0  0  0  0
   -1.0241    2.5088   -3.3054 O   0  0  0  0  0  0  0  0  0  0  0  0
    0.8455    2.0629   -4.4978 O   0  0  0  0  0  0  0  0  0  0  0  0
    0.5849    2.9227   -4.8626 H   0  0  0  0  0  0  0  0  0  0  0  0
    0.8001   -0.3182    0.9324 C   0  0  0  0  0  0  0  0  0  0  0  0
    2.0098   -0.3157    1.1161 O   0  0  0  0  0  0  0  0  0  0  0  0
   -0.0287    0.1905    1.9162 N   0  0  0  0  0  0  0  0  0  0  0  0
   -1.0263    0.1068    1.7527 H   0  0  0  0  0  0  0  0  0  0  0  0
    0.4408    0.4967    3.2617 C   0  0  0  0  0  0  0  0  0  0  0  0
    1.2220    1.2635    3.2300 H   0  0  0  0  0  0  0  0  0  0  0  0
   -0.3842    0.8711    3.8753 H   0  0  0  0  0  0  0  0  0  0  0  0
    0.8483   -0.4016    3.7376 H   0  0  0  0  0  0  0  0  0  0  0  0
  1  2  1  0  0  0  0
  2  3  1  0  0  0  0
  2  4  1  0  0  0  0
  2  5  1  0  0  0  0
  5  6  2  0  0  0  0
  5  7  1  0  0  0  0
  7  8  1  0  0  0  0
  7  9  1  0  0  0  0
  9 10  1  0  0  0  0
  9 11  1  0  0  0  0
  9 21  1  0  0  0  0
 11 12  1  0  0  0  0
 11 13  1  0  0  0  0
 11 14  1  0  0  0  0
 14 15  1  0  0  0  0
 14 16  1  0  0  0  0
 14 17  1  0  0  0  0
 17 18  2  0  0  0  0
 17 19  1  0  0  0  0
 19 20  1  0  0  0  0
 21 22  2  0  0  0  0
 21 23  1  0  0  0  0
 23 24  1  0  0  0  0
 23 25  1  0  0  0  0
 25 26  1  0  0  0  0
 25 27  1  0  0  0  0
 25 28  1  0  0  0  0
M  END
$$$$

  -OEChem-03222214033D

 28 27  0     1  0  0  0  0  0999 V2000
   -2.6743   -4.1480    0.3661 H   0  0  0  0  0  0  0  0  0  0  0  0
   -2.6600   -3.1714   -0.1268 C   0  0  0  0  0  0  0  0  0  0  0  0
   -3.4321   -2.5409    0.3205 H   0  0  0  0  0  0  0  0  0  0  0  0
   -2.8806   -3.3112   -1.1879 H   0  0  0  0  0  0  0  0  0  0  0  0
   -1.2981   -2.5238    0.0389 C   0  0  0  0  0  0  0  0  0  0  0  0
   -0.4184   -3.1056    0.6462 O   0  0  0  0  0  0  0  0  0  0  0  0
   -1.0609   -1.2753   -0.5016 N   0  0  0  0  0  0  0  0  0  0  0  0
   -1.8124   -0.8600   -1.0436 H   0  0  0  0  0  0  0  0  0  0  0  0
    0.2469   -0.5922   -0.4716 C   0  0  1  0  0  0  0  0  0  0  0  0
    0.9893   -1.2268   -0.9693 H   0  0  0  0  0  0  0  0  0  0  0  0
    0.1169    0.7372   -1.2338 C   0  0  0  0  0  0  0  0  0  0  0  0
   -0.7660    1.2916   -0.8972 H   0  0  0  0  0  0  0  0  0  0  0  0
    0.9943    1.3537   -1.0032 H   0  0  0  0  0  0  0  0  0  0  0  0
    0.0700    0.5196   -2.7598 C   0  0  0  0  0  0  0  0  0  0  0  0
    0.8489   -0.1914   -3.0503 H   0  0  0  0  0  0  0  0  0  0  0  0
   -0.8936    0.0988   -3.0553 H   0  0  0  0  0  0  0  0  0  0  0  0
    0.3053    1.8089   -3.5427 C   0  0  0  0  0  0  0  0  0  0  0  0
   -0.1927    2.8433   -3.1354 O   0  0  0  0  0  0  0  0  0  0  0  0
    1.0452    1.7363   -4.6690 O   0  0  0  0  0  0  0  0  0  0  0  0
    1.0822    2.6446   -5.0069 H   0  0  0  0  0  0  0  0  0  0  0  0
    0.7970   -0.3260    0.9489 C   0  0  0  0  0  0  0  0  0  0  0  0
    2.0061   -0.3284    1.1370 O   0  0  0  0  0  0  0  0  0  0  0  0
   -0.0339    0.1763    1.9342 N   0  0  0  0  0  0  0  0  0  0  0  0
   -1.0314    0.1003    1.7669 H   0  0  0  0  0  0  0  0  0  0  0  0
    0.4346    0.4899    3.2785 C   0  0  0  0  0  0  0  0  0  0  0  0
    1.2178    1.2547    3.2429 H   0  0  0  0  0  0  0  0  0  0  0  0
   -0.3900    0.8707    3.8886 H   0  0  0  0  0  0  0  0  0  0  0  0
    0.8395   -0.4061    3.7608 H   0  0  0  0  0  0  0  0  0  0  0  0
  1  2  1  0  0  0  0
  2  3  1  0  0  0  0
  2  4  1  0  0  0  0
  2  5  1  0  0  0  0
  5  6  2  0  0  0  0
  5  7  1  0  0  0  0
  7  8  1  0  0  0  0
  7  9  1  0  0  0  0
  9 10  1  0  0  0  0
  9 11  1  0  0  0  0
  9 21  1  0  0  0  0
 11 12  1  0  0  0  0
 11 13  1  0  0  0  0
 11 14  1  0  0  0  0
 14 15  1  0  0  0  0
 14 16  1  0  0  0  0
 14 17  1  0  0  0  0
 17 18  2  0  0  0  0
 17 19  1  0  0  0  0
 19 20  1  0  0  0  0
 21 22  2  0  0  0  0
 21 23  1  0  0  0  0
 23 24  1  0  0  0  0
 23 25  1  0  0  0  0
 25 26  1  0  0  0  0
 25 27  1  0  0  0  0
 25 28  1  0  0  0  0
M  END
$$$$

  -OEChem-03222214033D

 28 27  0     1  0  0  0  0  0999 V2000
   -2.6760   -4.1406    0.3604 H   0  0  0  0  0  0  0  0  0  0  0  0
   -2.6615   -3.1637   -0.1315 C   0  0  0  0  0  0  0  0  0  0  0  0
   -3.4327   -2.5332    0.3175 H   0  0  0  0  0  0  0  0  0  0  0  0
   -2.8833   -3.3023   -1.1924 H   0  0  0  0  0  0  0  0  0  0  0  0
   -1.2991   -2.5174    0.0345 C   0  0  0  0  0  0  0  0  0  0  0  0
   -0.4213   -3.0991    0.6442 O   0  0  0  0  0  0  0  0  0  0  0  0
   -1.0611   -1.2683   -0.5045 N   0  0  0  0  0  0  0  0  0  0  0  0
   -1.8093   -0.8562   -1.0531 H   0  0  0  0  0  0  0  0  0  0  0  0
    0.2482   -0.5882   -0.4772 C   0  0  1  0  0  0  0  0  0  0  0  0
    0.9892   -1.2224   -0.9770 H   0  0  0  0  0  0  0  0  0  0  0  0
    0.1130    0.7427   -1.2370 C   0  0  0  0  0  0  0  0  0  0  0  0
   -0.7616    1.3057   -0.8941 H   0  0  0  0  0  0  0  0  0  0  0  0
    0.9971    1.3489   -1.0032 H   0  0  0  0  0  0  0  0  0  0  0  0
    0.0575    0.5366   -2.7666 C   0  0  0  0  0  0  0  0  0  0  0  0
    0.6421   -0.3460   -3.0424 H   0  0  0  0  0  0  0  0  0  0  0  0
   -0.9719    0.3665   -3.0900 H   0  0  0  0  0  0  0  0  0  0  0  0
    0.6364    1.7194   -3.5385 C   0  0  0  0  0  0  0  0  0  0  0  0
    0.3264    2.8470   -3.1979 O   0  0  0  0  0  0  0  0  0  0  0  0
    1.4537    1.4578   -4.5801 O   0  0  0  0  0  0  0  0  0  0  0  0
    1.7126    2.3273   -4.9229 H   0  0  0  0  0  0  0  0  0  0  0  0
    0.8024   -0.3264    0.9427 C   0  0  0  0  0  0  0  0  0  0  0  0
    2.0117   -0.3325    1.1284 O   0  0  0  0  0  0  0  0  0  0  0  0
   -0.0255    0.1753    1.9309 N   0  0  0  0  0  0  0  0  0  0  0  0
   -1.0231    0.0864    1.7701 H   0  0  0  0  0  0  0  0  0  0  0  0
    0.4463    0.4754    3.2771 C   0  0  0  0  0  0  0  0  0  0  0  0
    1.2437    1.2256    3.2461 H   0  0  0  0  0  0  0  0  0  0  0  0
   -0.3722    0.8694    3.8870 H   0  0  0  0  0  0  0  0  0  0  0  0
    0.8335   -0.4299    3.7566 H   0  0  0  0  0  0  0  0  0  0  0  0
  1  2  1  0  0  0  0
  2  3  1  0  0  0  0
  2  4  1  0  0  0  0
  2  5  1  0  0  0  0
  5  6  2  0  0  0  0
  5  7  1  0  0  0  0
  7  8  1  0  0  0  0
  7  9  1  0  0  0  0
  9 10  1  0  0  0  0
  9 11  1  0  0  0  0
  9 21  1  0  0  0  0
 11 12  1  0  0  0  0
 11 13  1  0  0  0  0
 11 14  1  0  0  0  0
 14 15  1  0  0  0  0
 14 16  1  0  0  0  0
 14 17  1  0  0  0  0
 17 18  2  0  0  0  0
 17 19  1  0  0  0  0
 19 20  1  0  0  0  0
 21 22  2  0  0  0  0
 21 23  1  0  0  0  0
 23 24  1  0  0  0  0
 23 25  1  0  0  0  0
 25 26  1  0  0  0  0
 25 27  1  0  0  0  0
 25 28  1  0  0  0  0
M  END
$$$$

  -OEChem-03222214033D

 28 27  0     1  0  0  0  0  0999 V2000
   -2.6848   -4.1366    0.3371 H   0  0  0  0  0  0  0  0  0  0  0  0
   -2.6674   -3.1589   -0.1532 C   0  0  0  0  0  0  0  0  0  0  0  0
   -3.4470   -2.5320    0.2862 H   0  0  0  0  0  0  0  0  0  0  0  0
   -2.8746   -3.2963   -1.2173 H   0  0  0  0  0  0  0  0  0  0  0  0
   -1.3096   -2.5077    0.0312 C   0  0  0  0  0  0  0  0  0  0  0  0
   -0.4372   -3.0863    0.6517 O   0  0  0  0  0  0  0  0  0  0  0  0
   -1.0702   -1.2576   -0.5047 N   0  0  0  0  0  0  0  0  0  0  0  0
   -1.8096   -0.8569   -1.0734 H   0  0  0  0  0  0  0  0  0  0  0  0
    0.2430   -0.5844   -0.4871 C   0  0  1  0  0  0  0  0  0  0  0  0
    0.9775   -1.2179   -0.9976 H   0  0  0  0  0  0  0  0  0  0  0  0
    0.1049    0.7524   -1.2371 C   0  0  0  0  0  0  0  0  0  0  0  0
   -0.7678    1.3109   -0.8823 H   0  0  0  0  0  0  0  0  0  0  0  0
    0.9881    1.3595   -1.0012 H   0  0  0  0  0  0  0  0  0  0  0  0
    0.0305    0.5587   -2.7689 C   0  0  0  0  0  0  0  0  0  0  0  0
    0.3564   -0.4495   -3.0409 H   0  0  0  0  0  0  0  0  0  0  0  0
   -1.0007    0.6739   -3.1118 H   0  0  0  0  0  0  0  0  0  0  0  0
    0.9159    1.5456   -3.5232 C   0  0  0  0  0  0  0  0  0  0  0  0
    0.7326    2.7368   -3.3492 O   0  0  0  0  0  0  0  0  0  0  0  0
    1.8583    1.0520   -4.3536 O   0  0  0  0  0  0  0  0  0  0  0  0
    2.3139    1.8300   -4.7107 H   0  0  0  0  0  0  0  0  0  0  0  0
    0.8122   -0.3317    0.9286 C   0  0  0  0  0  0  0  0  0  0  0  0
    2.0234   -0.3398    1.1012 O   0  0  0  0  0  0  0  0  0  0  0  0
   -0.0046    0.1698    1.9260 N   0  0  0  0  0  0  0  0  0  0  0  0
   -1.0035    0.0762    1.7765 H   0  0  0  0  0  0  0  0  0  0  0  0
    0.4809    0.4613    3.2692 C   0  0  0  0  0  0  0  0  0  0  0  0
    1.2807    1.2088    3.2340 H   0  0  0  0  0  0  0  0  0  0  0  0
   -0.3306    0.8555    3.8884 H   0  0  0  0  0  0  0  0  0  0  0  0
    0.8692   -0.4476    3.7412 H   0  0  0  0  0  0  0  0  0  0  0  0
  1  2  1  0  0  0  0
  2  3  1  0  0  0  0
  2  4  1  0  0  0  0
  2  5  1  0  0  0  0
  5  6  2  0  0  0  0
  5  7  1  0  0  0  0
  7  8  1  0  0  0  0
  7  9  1  0  0  0  0
  9 10  1  0  0  0  0
  9 11  1  0  0  0  0
  9 21  1  0  0  0  0
 11 12  1  0  0  0  0
 11 13  1  0  0  0  0
 11 14  1  0  0  0  0
 14 15  1  0  0  0  0
 14 16  1  0  0  0  0
 14 17  1  0  0  0  0
 17 18  2  0  0  0  0
 17 19  1  0  0  0  0
 19 20  1  0  0  0  0
 21 22  2  0  0  0  0
 21 23  1  0  0  0  0
 23 24  1  0  0  0  0
 23 25  1  0  0  0  0
 25 26  1  0  0  0  0
 25 27  1  0  0  0  0
 25 28  1  0  0  0  0
M  END
$$$$

  -OEChem-03222214033D

 28 27  0     1  0  0  0  0  0999 V2000
   -2.6968   -4.1264    0.3197 H   0  0  0  0  0  0  0  0  0  0  0  0
   -2.6729   -3.1556   -0.1838 C   0  0  0  0  0  0  0  0  0  0  0  0
   -3.4609   -2.5246    0.2338 H   0  0  0  0  0  0  0  0  0  0  0  0
   -2.8622   -3.3083   -1.2491 H   0  0  0  0  0  0  0  0  0  0  0  0
   -1.3195   -2.4993    0.0139 C   0  0  0  0  0  0  0  0  0  0  0  0
   -0.4478   -3.0799    0.6334 O   0  0  0  0  0  0  0  0  0  0  0  0
   -1.0827   -1.2445   -0.5126 N   0  0  0  0  0  0  0  0  0  0  0  0
   -1.8204   -0.8460   -1.0852 H   0  0  0  0  0  0  0  0  0  0  0  0
    0.2336   -0.5763   -0.5029 C   0  0  1  0  0  0  0  0  0  0  0  0
    0.9593   -1.2063   -1.0308 H   0  0  0  0  0  0  0  0  0  0  0  0
    0.0980    0.7695   -1.2367 C   0  0  0  0  0  0  0  0  0  0  0  0
   -0.7809    1.3105   -0.8709 H   0  0  0  0  0  0  0  0  0  0  0  0
    0.9715    1.3888   -0.9969 H   0  0  0  0  0  0  0  0  0  0  0  0
    0.0081    0.5884   -2.7687 C   0  0  0  0  0  0  0  0  0  0  0  0
    0.0369   -0.4705   -3.0405 H   0  0  0  0  0  0  0  0  0  0  0  0
   -0.9402    0.9933   -3.1320 H   0  0  0  0  0  0  0  0  0  0  0  0
    1.1428    1.3005   -3.4947 C   0  0  0  0  0  0  0  0  0  0  0  0
    1.1022    2.5143   -3.5783 O   0  0  0  0  0  0  0  0  0  0  0  0
    2.1440    0.5512   -4.0019 O   0  0  0  0  0  0  0  0  0  0  0  0
    2.7680    1.1865   -4.3859 H   0  0  0  0  0  0  0  0  0  0  0  0
    0.8212   -0.3394    0.9080 C   0  0  0  0  0  0  0  0  0  0  0  0
    2.0345   -0.3465    1.0652 O   0  0  0  0  0  0  0  0  0  0  0  0
    0.0173    0.1557    1.9190 N   0  0  0  0  0  0  0  0  0  0  0  0
   -0.9831    0.0568    1.7841 H   0  0  0  0  0  0  0  0  0  0  0  0
    0.5208    0.4397    3.2571 C   0  0  0  0  0  0  0  0  0  0  0  0
    1.3165    1.1912    3.2162 H   0  0  0  0  0  0  0  0  0  0  0  0
   -0.2834    0.8255    3.8907 H   0  0  0  0  0  0  0  0  0  0  0  0
    0.9198   -0.4708    3.7168 H   0  0  0  0  0  0  0  0  0  0  0  0
  1  2  1  0  0  0  0
  2  3  1  0  0  0  0
  2  4  1  0  0  0  0
  2  5  1  0  0  0  0
  5  6  2  0  0  0  0
  5  7  1  0  0  0  0
  7  8  1  0  0  0  0
  7  9  1  0  0  0  0
  9 10  1  0  0  0  0
  9 11  1  0  0  0  0
  9 21  1  0  0  0  0
 11 12  1  0  0  0  0
 11 13  1  0  0  0  0
 11 14  1  0  0  0  0
 14 15  1  0  0  0  0
 14 16  1  0  0  0  0
 14 17  1  0  0  0  0
 17 18  2  0  0  0  0
 17 19  1  0  0  0  0
 19 20  1  0  0  0  0
 21 22  2  0  0  0  0
 21 23  1  0  0  0  0
 23 24  1  0  0  0  0
 23 25  1  0  0  0  0
 25 26  1  0  0  0  0
 25 27  1  0  0  0  0
 25 28  1  0  0  0  0
M  END
$$$$

  -OEChem-03222214033D

 28 27  0     1  0  0  0  0  0999 V2000
   -2.7172   -4.0936    0.3329 H   0  0  0  0  0  0  0  0  0  0  0  0
   -2.6758   -3.1443   -0.2089 C   0  0  0  0  0  0  0  0  0  0  0  0
   -3.4655   -2.4907    0.1688 H   0  0  0  0  0  0  0  0  0  0  0  0
   -2.8473   -3.3382   -1.2704 H   0  0  0  0  0  0  0  0  0  0  0  0
   -1.3201   -2.4921   -0.0139 C   0  0  0  0  0  0  0  0  0  0  0  0
   -0.4480   -3.0774    0.6005 O   0  0  0  0  0  0  0  0  0  0  0  0
   -1.0856   -1.2319   -0.5286 N   0  0  0  0  0  0  0  0  0  0  0  0
   -1.8237   -0.8318   -1.0994 H   0  0  0  0  0  0  0  0  0  0  0  0
    0.2326   -0.5659   -0.5233 C   0  0  1  0  0  0  0  0  0  0  0  0
    0.9520   -1.1909   -1.0661 H   0  0  0  0  0  0  0  0  0  0  0  0
    0.1003    0.7895   -1.2397 C   0  0  0  0  0  0  0  0  0  0  0  0
   -0.7856    1.3124   -0.8647 H   0  0  0  0  0  0  0  0  0  0  0  0
    0.9657    1.4192   -0.9978 H   0  0  0  0  0  0  0  0  0  0  0  0
   -0.0003    0.6228   -2.7705 C   0  0  0  0  0  0  0  0  0  0  0  0
   -0.2591   -0.4039   -3.0427 H   0  0  0  0  0  0  0  0  0  0  0  0
   -0.7913    1.2739   -3.1536 H   0  0  0  0  0  0  0  0  0  0  0  0
    1.3025    1.0047   -3.4614 C   0  0  0  0  0  0  0  0  0  0  0  0
    1.4323    2.1443   -3.8686 O   0  0  0  0  0  0  0  0  0  0  0  0
    2.2550    0.0566   -3.5797 O   0  0  0  0  0  0  0  0  0  0  0  0
    3.0053    0.4988   -4.0063 H   0  0  0  0  0  0  0  0  0  0  0  0
    0.8303   -0.3473    0.8864 C   0  0  0  0  0  0  0  0  0  0  0  0
    2.0447   -0.3504    1.0357 O   0  0  0  0  0  0  0  0  0  0  0  0
    0.0322    0.1368    1.9073 N   0  0  0  0  0  0  0  0  0  0  0  0
   -0.9683    0.0319    1.7780 H   0  0  0  0  0  0  0  0  0  0  0  0
    0.5418    0.3940    3.2485 C   0  0  0  0  0  0  0  0  0  0  0  0
    1.3337    1.1499    3.2191 H   0  0  0  0  0  0  0  0  0  0  0  0
   -0.2607    0.7619    3.8948 H   0  0  0  0  0  0  0  0  0  0  0  0
    0.9476   -0.5244    3.6859 H   0  0  0  0  0  0  0  0  0  0  0  0
  1  2  1  0  0  0  0
  2  3  1  0  0  0  0
  2  4  1  0  0  0  0
  2  5  1  0  0  0  0
  5  6  2  0  0  0  0
  5  7  1  0  0  0  0
  7  8  1  0  0  0  0
  7  9  1  0  0  0  0
  9 10  1  0  0  0  0
  9 11  1  0  0  0  0
  9 21  1  0  0  0  0
 11 12  1  0  0  0  0
 11 13  1  0  0  0  0
 11 14  1  0  0  0  0
 14 15  1  0  0  0  0
 14 16  1  0  0  0  0
 14 17  1  0  0  0  0
 17 18  2  0  0  0  0
 17 19  1  0  0  0  0
 19 20  1  0  0  0  0
 21 22  2  0  0  0  0
 21 23  1  0  0  0  0
 23 24  1  0  0  0  0
 23 25  1  0  0  0  0
 25 26  1  0  0  0  0
 25 27  1  0  0  0  0
 25 28  1  0  0  0  0
M  END
$$$$

  -OEChem-03222214033D

 28 27  0     1  0  0  0  0  0999 V2000
   -2.6661   -4.1539    0.1726 H   0  0  0  0  0  0  0  0  0  0  0  0
   -2.6689   -3.1440   -0.2477 C   0  0  0  0  0  0  0  0  0  0  0  0
   -3.4555   -2.5629    0.2391 H   0  0  0  0  0  0  0  0  0  0  0  0
   -2.8817   -3.2109   -1.3172 H   0  0  0  0  0  0  0  0  0  0  0  0
   -1.3213   -2.4835   -0.0255 C   0  0  0  0  0  0  0  0  0  0  0  0
   -0.4597   -3.0628    0.6092 O   0  0  0  0  0  0  0  0  0  0  0  0
   -1.0842   -1.2216   -0.5349 N   0  0  0  0  0  0  0  0  0  0  0  0
   -1.8130   -0.8278   -1.1215 H   0  0  0  0  0  0  0  0  0  0  0  0
    0.2346   -0.5566   -0.5179 C   0  0  1  0  0  0  0  0  0  0  0  0
    0.9539   -1.1859   -1.0554 H   0  0  0  0  0  0  0  0  0  0  0  0
    0.1156    0.8015   -1.2344 C   0  0  0  0  0  0  0  0  0  0  0  0
   -0.7747    1.3230   -0.8682 H   0  0  0  0  0  0  0  0  0  0  0  0
    0.9786    1.4320   -0.9860 H   0  0  0  0  0  0  0  0  0  0  0  0
    0.0308    0.6430   -2.7654 C   0  0  0  0  0  0  0  0  0  0  0  0
   -0.4817   -0.2819   -3.0410 H   0  0  0  0  0  0  0  0  0  0  0  0
   -0.5433    1.4755   -3.1826 H   0  0  0  0  0  0  0  0  0  0  0  0
    1.4143    0.6611   -3.4040 C   0  0  0  0  0  0  0  0  0  0  0  0
    1.8571    1.7236   -3.7998 O   0  0  0  0  0  0  0  0  0  0  0  0
    2.0837   -0.5070   -3.4951 O   0  0  0  0  0  0  0  0  0  0  0  0
    2.9412   -0.2792   -3.8867 H   0  0  0  0  0  0  0  0  0  0  0  0
    0.8256   -0.3416    0.8948 C   0  0  0  0  0  0  0  0  0  0  0  0
    2.0393   -0.3490    1.0493 O   0  0  0  0  0  0  0  0  0  0  0  0
    0.0239    0.1408    1.9138 N   0  0  0  0  0  0  0  0  0  0  0  0
   -0.9759    0.0336    1.7806 H   0  0  0  0  0  0  0  0  0  0  0  0
    0.5283    0.3856    3.2595 C   0  0  0  0  0  0  0  0  0  0  0  0
    1.3342    1.1270    3.2383 H   0  0  0  0  0  0  0  0  0  0  0  0
   -0.2721    0.7669    3.9006 H   0  0  0  0  0  0  0  0  0  0  0  0
    0.9143   -0.5410    3.6974 H   0  0  0  0  0  0  0  0  0  0  0  0
  1  2  1  0  0  0  0
  2  3  1  0  0  0  0
  2  4  1  0  0  0  0
  2  5  1  0  0  0  0
  5  6  2  0  0  0  0
  5  7  1  0  0  0  0
  7  8  1  0  0  0  0
  7  9  1  0  0  0  0
  9 10  1  0  0  0  0
  9 11  1  0  0  0  0
  9 21  1  0  0  0  0
 11 12  1  0  0  0  0
 11 13  1  0  0  0  0
 11 14  1  0  0  0  0
 14 15  1  0  0  0  0
 14 16  1  0  0  0  0
 14 17  1  0  0  0  0
 17 18  2  0  0  0  0
 17 19  1  0  0  0  0
 19 20  1  0  0  0  0
 21 22  2  0  0  0  0
 21 23  1  0  0  0  0
 23 24  1  0  0  0  0
 23 25  1  0  0  0  0
 25 26  1  0  0  0  0
 25 27  1  0  0  0  0
 25 28  1  0  0  0  0
M  END
$$$$

  -OEChem-03222214033D

 28 27  0     1  0  0  0  0  0999 V2000
   -2.6997   -4.1056    0.2469 H   0  0  0  0  0  0  0  0  0  0  0  0
   -2.6457   -3.1534   -0.2885 C   0  0  0  0  0  0  0  0  0  0  0  0
   -3.4614   -2.5120    0.0536 H   0  0  0  0  0  0  0  0  0  0  0  0
   -2.7639   -3.3452   -1.3576 H   0  0  0  0  0  0  0  0  0  0  0  0
   -1.3097   -2.4836   -0.0270 C   0  0  0  0  0  0  0  0  0  0  0  0
   -0.4641   -3.0556    0.6355 O   0  0  0  0  0  0  0  0  0  0  0  0
   -1.0653   -1.2227   -0.5355 N   0  0  0  0  0  0  0  0  0  0  0  0
   -1.7732   -0.8461   -1.1575 H   0  0  0  0  0  0  0  0  0  0  0  0
    0.2532   -0.5587   -0.4993 C   0  0  1  0  0  0  0  0  0  0  0  0
    0.9799   -1.1913   -1.0210 H   0  0  0  0  0  0  0  0  0  0  0  0
    0.1405    0.8016   -1.2156 C   0  0  0  0  0  0  0  0  0  0  0  0
   -0.7486    1.3283   -0.8536 H   0  0  0  0  0  0  0  0  0  0  0  0
    1.0083    1.4227   -0.9611 H   0  0  0  0  0  0  0  0  0  0  0  0
    0.0733    0.6608   -2.7487 C   0  0  0  0  0  0  0  0  0  0  0  0
   -0.6493   -0.1066   -3.0360 H   0  0  0  0  0  0  0  0  0  0  0  0
   -0.2610    1.6080   -3.1816 H   0  0  0  0  0  0  0  0  0  0  0  0
    1.4304    0.3215   -3.3541 C   0  0  0  0  0  0  0  0  0  0  0  0
    2.1947    1.2333   -3.6090 O   0  0  0  0  0  0  0  0  0  0  0  0
    1.7185   -0.9775   -3.5797 O   0  0  0  0  0  0  0  0  0  0  0  0
    2.6250   -0.9778   -3.9255 H   0  0  0  0  0  0  0  0  0  0  0  0
    0.8213   -0.3416    0.9227 C   0  0  0  0  0  0  0  0  0  0  0  0
    2.0324   -0.3515    1.0965 O   0  0  0  0  0  0  0  0  0  0  0  0
    0.0039    0.1429    1.9281 N   0  0  0  0  0  0  0  0  0  0  0  0
   -0.9934    0.0310    1.7807 H   0  0  0  0  0  0  0  0  0  0  0  0
    0.4872    0.3872    3.2816 C   0  0  0  0  0  0  0  0  0  0  0  0
    1.2914    1.1307    3.2736 H   0  0  0  0  0  0  0  0  0  0  0  0
   -0.3237    0.7653    3.9114 H   0  0  0  0  0  0  0  0  0  0  0  0
    0.8690   -0.5391    3.7238 H   0  0  0  0  0  0  0  0  0  0  0  0
  1  2  1  0  0  0  0
  2  3  1  0  0  0  0
  2  4  1  0  0  0  0
  2  5  1  0  0  0  0
  5  6  2  0  0  0  0
  5  7  1  0  0  0  0
  7  8  1  0  0  0  0
  7  9  1  0  0  0  0
  9 10  1  0  0  0  0
  9 11  1  0  0  0  0
  9 21  1  0  0  0  0
 11 12  1  0  0  0  0
 11 13  1  0  0  0  0
 11 14  1  0  0  0  0
 14 15  1  0  0  0  0
 14 16  1  0  0  0  0
 14 17  1  0  0  0  0
 17 18  2  0  0  0  0
 17 19  1  0  0  0  0
 19 20  1  0  0  0  0
 21 22  2  0  0  0  0
 21 23  1  0  0  0  0
 23 24  1  0  0  0  0
 23 25  1  0  0  0  0
 25 26  1  0  0  0  0
 25 27  1  0  0  0  0
 25 28  1  0  0  0  0
M  END
$$$$

  -OEChem-03222214033D

 28 27  0     1  0  0  0  0  0999 V2000
   -2.6783   -4.1273    0.1877 H   0  0  0  0  0  0  0  0  0  0  0  0
   -2.6283   -3.1565   -0.3138 C   0  0  0  0  0  0  0  0  0  0  0  0
   -3.4575   -2.5372    0.0362 H   0  0  0  0  0  0  0  0  0  0  0  0
   -2.7268   -3.3130   -1.3907 H   0  0  0  0  0  0  0  0  0  0  0  0
   -1.3061   -2.4790   -0.0072 C   0  0  0  0  0  0  0  0  0  0  0  0
   -0.4900   -3.0366    0.7027 O   0  0  0  0  0  0  0  0  0  0  0  0
   -1.0439   -1.2270   -0.5285 N   0  0  0  0  0  0  0  0  0  0  0  0
   -1.7194   -0.8773   -1.2005 H   0  0  0  0  0  0  0  0  0  0  0  0
    0.2788   -0.5736   -0.4769 C   0  0  1  0  0  0  0  0  0  0  0  0
    1.0131   -1.2168   -0.9731 H   0  0  0  0  0  0  0  0  0  0  0  0
    0.1771    0.7845   -1.2028 C   0  0  0  0  0  0  0  0  0  0  0  0
   -0.7012    1.3303   -0.8431 H   0  0  0  0  0  0  0  0  0  0  0  0
    1.0579    1.3864   -0.9474 H   0  0  0  0  0  0  0  0  0  0  0  0
    0.1228    0.6618   -2.7394 C   0  0  0  0  0  0  0  0  0  0  0  0
   -0.7636    0.0972   -3.0377 H   0  0  0  0  0  0  0  0  0  0  0  0
    0.0387    1.6608   -3.1770 H   0  0  0  0  0  0  0  0  0  0  0  0
    1.3518   -0.0168   -3.3338 C   0  0  0  0  0  0  0  0  0  0  0  0
    2.3460    0.6558   -3.5294 O   0  0  0  0  0  0  0  0  0  0  0  0
    1.2757   -1.3348   -3.6174 O   0  0  0  0  0  0  0  0  0  0  0  0
    2.1563   -1.5696   -3.9510 H   0  0  0  0  0  0  0  0  0  0  0  0
    0.8182   -0.3446    0.9545 C   0  0  0  0  0  0  0  0  0  0  0  0
    2.0245   -0.3688    1.1573 O   0  0  0  0  0  0  0  0  0  0  0  0
   -0.0173    0.1586    1.9355 N   0  0  0  0  0  0  0  0  0  0  0  0
   -1.0115    0.0480    1.7666 H   0  0  0  0  0  0  0  0  0  0  0  0
    0.4361    0.4037    3.2990 C   0  0  0  0  0  0  0  0  0  0  0  0
    1.2462    1.1406    3.3073 H   0  0  0  0  0  0  0  0  0  0  0  0
   -0.3863    0.7902    3.9084 H   0  0  0  0  0  0  0  0  0  0  0  0
    0.7999   -0.5243    3.7528 H   0  0  0  0  0  0  0  0  0  0  0  0
  1  2  1  0  0  0  0
  2  3  1  0  0  0  0
  2  4  1  0  0  0  0
  2  5  1  0  0  0  0
  5  6  2  0  0  0  0
  5  7  1  0  0  0  0
  7  8  1  0  0  0  0
  7  9  1  0  0  0  0
  9 10  1  0  0  0  0
  9 11  1  0  0  0  0
  9 21  1  0  0  0  0
 11 12  1  0  0  0  0
 11 13  1  0  0  0  0
 11 14  1  0  0  0  0
 14 15  1  0  0  0  0
 14 16  1  0  0  0  0
 14 17  1  0  0  0  0
 17 18  2  0  0  0  0
 17 19  1  0  0  0  0
 19 20  1  0  0  0  0
 21 22  2  0  0  0  0
 21 23  1  0  0  0  0
 23 24  1  0  0  0  0
 23 25  1  0  0  0  0
 25 26  1  0  0  0  0
 25 27  1  0  0  0  0
 25 28  1  0  0  0  0
M  END
$$$$

  -OEChem-03222214033D

 28 27  0     1  0  0  0  0  0999 V2000
   -2.6800   -4.1316    0.1654 H   0  0  0  0  0  0  0  0  0  0  0  0
   -2.6201   -3.1593   -0.3320 C   0  0  0  0  0  0  0  0  0  0  0  0
   -3.4634   -2.5454   -0.0069 H   0  0  0  0  0  0  0  0  0  0  0  0
   -2.6835   -3.3138   -1.4119 H   0  0  0  0  0  0  0  0  0  0  0  0
   -1.3124   -2.4745    0.0175 C   0  0  0  0  0  0  0  0  0  0  0  0
   -0.5270   -3.0182    0.7717 O   0  0  0  0  0  0  0  0  0  0  0  0
   -1.0277   -1.2342   -0.5199 N   0  0  0  0  0  0  0  0  0  0  0  0
   -1.6643   -0.9165   -1.2440 H   0  0  0  0  0  0  0  0  0  0  0  0
    0.3017   -0.5964   -0.4538 C   0  0  1  0  0  0  0  0  0  0  0  0
    1.0418   -1.2531   -0.9219 H   0  0  0  0  0  0  0  0  0  0  0  0
    0.2185    0.7568   -1.1932 C   0  0  0  0  0  0  0  0  0  0  0  0
   -0.6458    1.3267   -0.8367 H   0  0  0  0  0  0  0  0  0  0  0  0
    1.1141    1.3348   -0.9342 H   0  0  0  0  0  0  0  0  0  0  0  0
    0.1786    0.6518   -2.7341 C   0  0  0  0  0  0  0  0  0  0  0  0
   -0.8177    0.3297   -3.0464 H   0  0  0  0  0  0  0  0  0  0  0  0
    0.3512    1.6412   -3.1674 H   0  0  0  0  0  0  0  0  0  0  0  0
    1.1888   -0.3213   -3.3308 C   0  0  0  0  0  0  0  0  0  0  0  0
    2.3188    0.0737   -3.5435 O   0  0  0  0  0  0  0  0  0  0  0  0
    0.7770   -1.5804   -3.5950 O   0  0  0  0  0  0  0  0  0  0  0  0
    1.5646   -2.0314   -3.9397 H   0  0  0  0  0  0  0  0  0  0  0  0
    0.8124   -0.3525    0.9864 C   0  0  0  0  0  0  0  0  0  0  0  0
    2.0137   -0.3833    1.2161 O   0  0  0  0  0  0  0  0  0  0  0  0
   -0.0387    0.1753    1.9407 N   0  0  0  0  0  0  0  0  0  0  0  0
   -1.0298    0.0673    1.7522 H   0  0  0  0  0  0  0  0  0  0  0  0
    0.3860    0.4294    3.3118 C   0  0  0  0  0  0  0  0  0  0  0  0
    1.2082    1.1523    3.3309 H   0  0  0  0  0  0  0  0  0  0  0  0
   -0.4442    0.8376    3.8959 H   0  0  0  0  0  0  0  0  0  0  0  0
    0.7224   -0.4987    3.7861 H   0  0  0  0  0  0  0  0  0  0  0  0
  1  2  1  0  0  0  0
  2  3  1  0  0  0  0
  2  4  1  0  0  0  0
  2  5  1  0  0  0  0
  5  6  2  0  0  0  0
  5  7  1  0  0  0  0
  7  8  1  0  0  0  0
  7  9  1  0  0  0  0
  9 10  1  0  0  0  0
  9 11  1  0  0  0  0
  9 21  1  0  0  0  0
 11 12  1  0  0  0  0
 11 13  1  0  0  0  0
 11 14  1  0  0  0  0
 14 15  1  0  0  0  0
 14 16  1  0  0  0  0
 14 17  1  0  0  0  0
 17 18  2  0  0  0  0
 17 19  1  0  0  0  0
 19 20  1  0  0  0  0
 21 22  2  0  0  0  0
 21 23  1  0  0  0  0
 23 24  1  0  0  0  0
 23 25  1  0  0  0  0
 25 26  1  0  0  0  0
 25 27  1  0  0  0  0
 25 28  1  0  0  0  0
M  END
$$$$

  -OEChem-03222214033D

 28 27  0     1  0  0  0  0  0999 V2000
   -2.6750   -4.1486    0.1331 H   0  0  0  0  0  0  0  0  0  0  0  0
   -2.6198   -3.1647   -0.3417 C   0  0  0  0  0  0  0  0  0  0  0  0
   -3.4750   -2.5685   -0.0155 H   0  0  0  0  0  0  0  0  0  0  0  0
   -2.6659   -3.2952   -1.4256 H   0  0  0  0  0  0  0  0  0  0  0  0
   -1.3264   -2.4718    0.0427 C   0  0  0  0  0  0  0  0  0  0  0  0
   -0.5700   -2.9999    0.8368 O   0  0  0  0  0  0  0  0  0  0  0  0
   -1.0216   -1.2442   -0.5120 N   0  0  0  0  0  0  0  0  0  0  0  0
   -1.6162   -0.9648   -1.2865 H   0  0  0  0  0  0  0  0  0  0  0  0
    0.3138   -0.6213   -0.4328 C   0  0  1  0  0  0  0  0  0  0  0  0
    1.0581   -1.2907   -0.8762 H   0  0  0  0  0  0  0  0  0  0  0  0
    0.2550    0.7236   -1.1904 C   0  0  0  0  0  0  0  0  0  0  0  0
   -0.6001    1.3136   -0.8440 H   0  0  0  0  0  0  0  0  0  0  0  0
    1.1590    1.2845   -0.9237 H   0  0  0  0  0  0  0  0  0  0  0  0
    0.2344    0.6269   -2.7351 C   0  0  0  0  0  0  0  0  0  0  0  0
   -0.8050    0.5745   -3.0683 H   0  0  0  0  0  0  0  0  0  0  0  0
    0.6634    1.5401   -3.1584 H   0  0  0  0  0  0  0  0  0  0  0  0
    0.9568   -0.5759   -3.3319 C   0  0  0  0  0  0  0  0  0  0  0  0
    2.1295   -0.4619   -3.6305 O   0  0  0  0  0  0  0  0  0  0  0  0
    0.2518   -1.7164   -3.5035 O   0  0  0  0  0  0  0  0  0  0  0  0
    0.8919   -2.3463   -3.8731 H   0  0  0  0  0  0  0  0  0  0  0  0
    0.8019   -0.3587    1.0122 C   0  0  0  0  0  0  0  0  0  0  0  0
    1.9992   -0.3958    1.2621 O   0  0  0  0  0  0  0  0  0  0  0  0
   -0.0594    0.1956    1.9421 N   0  0  0  0  0  0  0  0  0  0  0  0
   -1.0482    0.0916    1.7394 H   0  0  0  0  0  0  0  0  0  0  0  0
    0.3454    0.4685    3.3157 C   0  0  0  0  0  0  0  0  0  0  0  0
    1.1734    1.1850    3.3366 H   0  0  0  0  0  0  0  0  0  0  0  0
   -0.4902    0.8928    3.8801 H   0  0  0  0  0  0  0  0  0  0  0  0
    0.6667   -0.4547    3.8096 H   0  0  0  0  0  0  0  0  0  0  0  0
  1  2  1  0  0  0  0
  2  3  1  0  0  0  0
  2  4  1  0  0  0  0
  2  5  1  0  0  0  0
  5  6  2  0  0  0  0
  5  7  1  0  0  0  0
  7  8  1  0  0  0  0
  7  9  1  0  0  0  0
  9 10  1  0  0  0  0
  9 11  1  0  0  0  0
  9 21  1  0  0  0  0
 11 12  1  0  0  0  0
 11 13  1  0  0  0  0
 11 14  1  0  0  0  0
 14 15  1  0  0  0  0
 14 16  1  0  0  0  0
 14 17  1  0  0  0  0
 17 18  2  0  0  0  0
 17 19  1  0  0  0  0
 19 20  1  0  0  0  0
 21 22  2  0  0  0  0
 21 23  1  0  0  0  0
 23 24  1  0  0  0  0
 23 25  1  0  0  0  0
 25 26  1  0  0  0  0
 25 27  1  0  0  0  0
 25 28  1  0  0  0  0
M  END
$$$$

  -OEChem-03222214033D

 28 27  0     1  0  0  0  0  0999 V2000
   -2.6961   -4.1458    0.1420 H   0  0  0  0  0  0  0  0  0  0  0  0
   -2.6250   -3.1704   -0.3477 C   0  0  0  0  0  0  0  0  0  0  0  0
   -3.4934   -2.5707   -0.0656 H   0  0  0  0  0  0  0  0  0  0  0  0
   -2.6292   -3.3202   -1.4302 H   0  0  0  0  0  0  0  0  0  0  0  0
   -1.3492   -2.4665    0.0739 C   0  0  0  0  0  0  0  0  0  0  0  0
   -0.6263   -2.9741    0.9114 O   0  0  0  0  0  0  0  0  0  0  0  0
   -1.0220   -1.2537   -0.4996 N   0  0  0  0  0  0  0  0  0  0  0  0
   -1.5750   -1.0153   -1.3188 H   0  0  0  0  0  0  0  0  0  0  0  0
    0.3203   -0.6464   -0.4132 C   0  0  1  0  0  0  0  0  0  0  0  0
    1.0647   -1.3282   -0.8390 H   0  0  0  0  0  0  0  0  0  0  0  0
    0.2858    0.6872   -1.1922 C   0  0  0  0  0  0  0  0  0  0  0  0
   -0.5681    1.2882   -0.8621 H   0  0  0  0  0  0  0  0  0  0  0  0
    1.1896    1.2445   -0.9188 H   0  0  0  0  0  0  0  0  0  0  0  0
    0.2815    0.5822   -2.7388 C   0  0  0  0  0  0  0  0  0  0  0  0
   -0.7237    0.8136   -3.1002 H   0  0  0  0  0  0  0  0  0  0  0  0
    0.9524    1.3422   -3.1509 H   0  0  0  0  0  0  0  0  0  0  0  0
    0.6659   -0.7733   -3.3240 C   0  0  0  0  0  0  0  0  0  0  0  0
    1.8171   -0.9542   -3.6690 O   0  0  0  0  0  0  0  0  0  0  0  0
   -0.3008   -1.7125   -3.4368 O   0  0  0  0  0  0  0  0  0  0  0  0
    0.1532   -2.4792   -3.8239 H   0  0  0  0  0  0  0  0  0  0  0  0
    0.7934   -0.3627    1.0330 C   0  0  0  0  0  0  0  0  0  0  0  0
    1.9881   -0.3993    1.2952 O   0  0  0  0  0  0  0  0  0  0  0  0
   -0.0728    0.2199    1.9407 N   0  0  0  0  0  0  0  0  0  0  0  0
   -1.0602    0.1126    1.7320 H   0  0  0  0  0  0  0  0  0  0  0  0
    0.3202    0.5221    3.3114 C   0  0  0  0  0  0  0  0  0  0  0  0
    1.1494    1.2375    3.3239 H   0  0  0  0  0  0  0  0  0  0  0  0
   -0.5196    0.9601    3.8589 H   0  0  0  0  0  0  0  0  0  0  0  0
    0.6351   -0.3905    3.8285 H   0  0  0  0  0  0  0  0  0  0  0  0
  1  2  1  0  0  0  0
  2  3  1  0  0  0  0
  2  4  1  0  0  0  0
  2  5  1  0  0  0  0
  5  6  2  0  0  0  0
  5  7  1  0  0  0  0
  7  8  1  0  0  0  0
  7  9  1  0  0  0  0
  9 10  1  0  0  0  0
  9 11  1  0  0  0  0
  9 21  1  0  0  0  0
 11 12  1  0  0  0  0
 11 13  1  0  0  0  0
 11 14  1  0  0  0  0
 14 15  1  0  0  0  0
 14 16  1  0  0  0  0
 14 17  1  0  0  0  0
 17 18  2  0  0  0  0
 17 19  1  0  0  0  0
 19 20  1  0  0  0  0
 21 22  2  0  0  0  0
 21 23  1  0  0  0  0
 23 24  1  0  0  0  0
 23 25  1  0  0  0  0
 25 26  1  0  0  0  0
 25 27  1  0  0  0  0
 25 28  1  0  0  0  0
M  END
$$$$

  -OEChem-03222214033D

 28 27  0     1  0  0  0  0  0999 V2000
   -2.6317   -4.2088    0.4197 H   0  0  0  0  0  0  0  0  0  0  0  0
   -2.5910   -3.2791   -0.1549 C   0  0  0  0  0  0  0  0  0  0  0  0
   -3.4805   -2.6863    0.0704 H   0  0  0  0  0  0  0  0  0  0  0  0
   -2.5847   -3.5236   -1.2202 H   0  0  0  0  0  0  0  0  0  0  0  0
   -1.3411   -2.4979    0.2021 C   0  0  0  0  0  0  0  0  0  0  0  0
   -0.5547   -2.9500    1.0148 O   0  0  0  0  0  0  0  0  0  0  0  0
   -1.1063   -1.2814   -0.4071 N   0  0  0  0  0  0  0  0  0  0  0  0
   -1.7009   -1.1156   -1.2189 H   0  0  0  0  0  0  0  0  0  0  0  0
    0.2225   -0.6395   -0.4455 C   0  0  1  0  0  0  0  0  0  0  0  0
    0.9395   -1.3057   -0.9376 H   0  0  0  0  0  0  0  0  0  0  0  0
    0.0990    0.6890   -1.2259 C   0  0  0  0  0  0  0  0  0  0  0  0
   -0.7512    1.2560   -0.8315 H   0  0  0  0  0  0  0  0  0  0  0  0
    0.9968    1.2849   -1.0227 H   0  0  0  0  0  0  0  0  0  0  0  0
   -0.0343    0.5768   -2.7674 C   0  0  0  0  0  0  0  0  0  0  0  0
   -0.9597    1.0676   -3.0818 H   0  0  0  0  0  0  0  0  0  0  0  0
    0.7912    1.1243   -3.2311 H   0  0  0  0  0  0  0  0  0  0  0  0
   -0.0315   -0.8360   -3.3436 C   0  0  0  0  0  0  0  0  0  0  0  0
   -1.0832   -1.4556   -3.3345 O   0  0  0  0  0  0  0  0  0  0  0  0
    1.1286   -1.3391   -3.8149 O   0  0  0  0  0  0  0  0  0  0  0  0
    0.9241   -2.2388   -4.1131 H   0  0  0  0  0  0  0  0  0  0  0  0
    0.8182   -0.3323    0.9489 C   0  0  0  0  0  0  0  0  0  0  0  0
    2.0332   -0.3345    1.0979 O   0  0  0  0  0  0  0  0  0  0  0  0
    0.0220    0.2354    1.9268 N   0  0  0  0  0  0  0  0  0  0  0  0
   -0.9761    0.0936    1.8071 H   0  0  0  0  0  0  0  0  0  0  0  0
    0.5242    0.5405    3.2605 C   0  0  0  0  0  0  0  0  0  0  0  0
    1.3499    1.2576    3.2056 H   0  0  0  0  0  0  0  0  0  0  0  0
   -0.2700    0.9774    3.8731 H   0  0  0  0  0  0  0  0  0  0  0  0
    0.8814   -0.3709    3.7516 H   0  0  0  0  0  0  0  0  0  0  0  0
  1  2  1  0  0  0  0
  2  3  1  0  0  0  0
  2  4  1  0  0  0  0
  2  5  1  0  0  0  0
  5  6  2  0  0  0  0
  5  7  1  0  0  0  0
  7  8  1  0  0  0  0
  7  9  1  0  0  0  0
  9 10  1  0  0  0  0
  9 11  1  0  0  0  0
  9 21  1  0  0  0  0
 11 12  1  0  0  0  0
 11 13  1  0  0  0  0
 11 14  1  0  0  0  0
 14 15  1  0  0  0  0
 14 16  1  0  0  0  0
 14 17  1  0  0  0  0
 17 18  2  0  0  0  0
 17 19  1  0  0  0  0
 19 20  1  0  0  0  0
 21 22  2  0  0  0  0
 21 23  1  0  0  0  0
 23 24  1  0  0  0  0
 23 25  1  0  0  0  0
 25 26  1  0  0  0  0
 25 27  1  0  0  0  0
 25 28  1  0  0  0  0
M  END
$$$$

  -OEChem-03222214033D

 28 27  0     1  0  0  0  0  0999 V2000
   -2.6189   -4.2295    0.3649 H   0  0  0  0  0  0  0  0  0  0  0  0
   -2.6125   -3.2605   -0.1420 C   0  0  0  0  0  0  0  0  0  0  0  0
   -3.4726   -2.6789    0.1981 H   0  0  0  0  0  0  0  0  0  0  0  0
   -2.6965   -3.4260   -1.2191 H   0  0  0  0  0  0  0  0  0  0  0  0
   -1.3281   -2.5157    0.1680 C   0  0  0  0  0  0  0  0  0  0  0  0
   -0.5107   -3.0030    0.9279 O   0  0  0  0  0  0  0  0  0  0  0  0
   -1.0987   -1.2878   -0.4191 N   0  0  0  0  0  0  0  0  0  0  0  0
   -1.7275   -1.0755   -1.1954 H   0  0  0  0  0  0  0  0  0  0  0  0
    0.2212   -0.6265   -0.4472 C   0  0  1  0  0  0  0  0  0  0  0  0
    0.9430   -1.2804   -0.9499 H   0  0  0  0  0  0  0  0  0  0  0  0
    0.1023    0.7054   -1.2226 C   0  0  0  0  0  0  0  0  0  0  0  0
   -0.7727    1.2444   -0.8439 H   0  0  0  0  0  0  0  0  0  0  0  0
    0.9779    1.3249   -0.9953 H   0  0  0  0  0  0  0  0  0  0  0  0
   -0.0073    0.6012   -2.7665 C   0  0  0  0  0  0  0  0  0  0  0  0
   -0.7521    1.3168   -3.1256 H   0  0  0  0  0  0  0  0  0  0  0  0
    0.9537    0.8961   -3.1980 H   0  0  0  0  0  0  0  0  0  0  0  0
   -0.3447   -0.7754   -3.3320 C   0  0  0  0  0  0  0  0  0  0  0  0
   -1.5014   -1.1587   -3.2552 O   0  0  0  0  0  0  0  0  0  0  0  0
    0.6514   -1.5111   -3.8686 O   0  0  0  0  0  0  0  0  0  0  0  0
    0.2434   -2.3426   -4.1546 H   0  0  0  0  0  0  0  0  0  0  0  0
    0.8096   -0.3331    0.9526 C   0  0  0  0  0  0  0  0  0  0  0  0
    2.0243   -0.3210    1.1048 O   0  0  0  0  0  0  0  0  0  0  0  0
    0.0039    0.2078    1.9380 N   0  0  0  0  0  0  0  0  0  0  0  0
   -0.9932    0.0644    1.8120 H   0  0  0  0  0  0  0  0  0  0  0  0
    0.5006    0.5115    3.2740 C   0  0  0  0  0  0  0  0  0  0  0  0
    1.3074    1.2504    3.2249 H   0  0  0  0  0  0  0  0  0  0  0  0
   -0.3035    0.9211    3.8927 H   0  0  0  0  0  0  0  0  0  0  0  0
    0.8825   -0.3955    3.7547 H   0  0  0  0  0  0  0  0  0  0  0  0
  1  2  1  0  0  0  0
  2  3  1  0  0  0  0
  2  4  1  0  0  0  0
  2  5  1  0  0  0  0
  5  6  2  0  0  0  0
  5  7  1  0  0  0  0
  7  8  1  0  0  0  0
  7  9  1  0  0  0  0
  9 10  1  0  0  0  0
  9 11  1  0  0  0  0
  9 21  1  0  0  0  0
 11 12  1  0  0  0  0
 11 13  1  0  0  0  0
 11 14  1  0  0  0  0
 14 15  1  0  0  0  0
 14 16  1  0  0  0  0
 14 17  1  0  0  0  0
 17 18  2  0  0  0  0
 17 19  1  0  0  0  0
 19 20  1  0  0  0  0
 21 22  2  0  0  0  0
 21 23  1  0  0  0  0
 23 24  1  0  0  0  0
 23 25  1  0  0  0  0
 25 26  1  0  0  0  0
 25 27  1  0  0  0  0
 25 28  1  0  0  0  0
M  END
$$$$

  -OEChem-03222214033D

 28 27  0     1  0  0  0  0  0999 V2000
   -2.6468   -4.2000    0.4032 H   0  0  0  0  0  0  0  0  0  0  0  0
   -2.6245   -3.2449   -0.1291 C   0  0  0  0  0  0  0  0  0  0  0  0
   -3.4712   -2.6381    0.2004 H   0  0  0  0  0  0  0  0  0  0  0  0
   -2.7181   -3.4360   -1.2010 H   0  0  0  0  0  0  0  0  0  0  0  0
   -1.3238   -2.5185    0.1547 C   0  0  0  0  0  0  0  0  0  0  0  0
   -0.4877   -3.0276    0.8790 O   0  0  0  0  0  0  0  0  0  0  0  0
   -1.0971   -1.2842   -0.4190 N   0  0  0  0  0  0  0  0  0  0  0  0
   -1.7651   -1.0199   -1.1461 H   0  0  0  0  0  0  0  0  0  0  0  0
    0.2165   -0.6120   -0.4443 C   0  0  1  0  0  0  0  0  0  0  0  0
    0.9369   -1.2647   -0.9508 H   0  0  0  0  0  0  0  0  0  0  0  0
    0.1119    0.7190   -1.2236 C   0  0  0  0  0  0  0  0  0  0  0  0
   -0.7723    1.2543   -0.8611 H   0  0  0  0  0  0  0  0  0  0  0  0
    0.9817    1.3427   -0.9857 H   0  0  0  0  0  0  0  0  0  0  0  0
    0.0228    0.6076   -2.7671 C   0  0  0  0  0  0  0  0  0  0  0  0
   -0.4937    1.4854   -3.1645 H   0  0  0  0  0  0  0  0  0  0  0  0
    1.0422    0.6274   -3.1637 H   0  0  0  0  0  0  0  0  0  0  0  0
   -0.6452   -0.6450   -3.3277 C   0  0  0  0  0  0  0  0  0  0  0  0
   -1.8366   -0.8088   -3.1164 O   0  0  0  0  0  0  0  0  0  0  0  0
    0.1142   -1.5183   -4.0222 O   0  0  0  0  0  0  0  0  0  0  0  0
   -0.4829   -2.2318   -4.2939 H   0  0  0  0  0  0  0  0  0  0  0  0
    0.8042   -0.3275    0.9574 C   0  0  0  0  0  0  0  0  0  0  0  0
    2.0188   -0.3093    1.1092 O   0  0  0  0  0  0  0  0  0  0  0  0
   -0.0046    0.1972    1.9490 N   0  0  0  0  0  0  0  0  0  0  0  0
   -1.0017    0.0585    1.8178 H   0  0  0  0  0  0  0  0  0  0  0  0
    0.4887    0.4870    3.2894 C   0  0  0  0  0  0  0  0  0  0  0  0
    1.2893    1.2333    3.2504 H   0  0  0  0  0  0  0  0  0  0  0  0
   -0.3191    0.8811    3.9134 H   0  0  0  0  0  0  0  0  0  0  0  0
    0.8780   -0.4232    3.7580 H   0  0  0  0  0  0  0  0  0  0  0  0
  1  2  1  0  0  0  0
  2  3  1  0  0  0  0
  2  4  1  0  0  0  0
  2  5  1  0  0  0  0
  5  6  2  0  0  0  0
  5  7  1  0  0  0  0
  7  8  1  0  0  0  0
  7  9  1  0  0  0  0
  9 10  1  0  0  0  0
  9 11  1  0  0  0  0
  9 21  1  0  0  0  0
 11 12  1  0  0  0  0
 11 13  1  0  0  0  0
 11 14  1  0  0  0  0
 14 15  1  0  0  0  0
 14 16  1  0  0  0  0
 14 17  1  0  0  0  0
 17 18  2  0  0  0  0
 17 19  1  0  0  0  0
 19 20  1  0  0  0  0
 21 22  2  0  0  0  0
 21 23  1  0  0  0  0
 23 24  1  0  0  0  0
 23 25  1  0  0  0  0
 25 26  1  0  0  0  0
 25 27  1  0  0  0  0
 25 28  1  0  0  0  0
M  END
$$$$

  -OEChem-03222214033D

 28 27  0     1  0  0  0  0  0999 V2000
   -2.6443   -4.2100    0.3497 H   0  0  0  0  0  0  0  0  0  0  0  0
   -2.6424   -3.2229   -0.1210 C   0  0  0  0  0  0  0  0  0  0  0  0
   -3.4558   -2.6286    0.3021 H   0  0  0  0  0  0  0  0  0  0  0  0
   -2.8096   -3.3443   -1.1940 H   0  0  0  0  0  0  0  0  0  0  0  0
   -1.3145   -2.5311    0.1211 C   0  0  0  0  0  0  0  0  0  0  0  0
   -0.4595   -3.0718    0.7990 O   0  0  0  0  0  0  0  0  0  0  0  0
   -1.0840   -1.2890   -0.4330 N   0  0  0  0  0  0  0  0  0  0  0  0
   -1.7890   -0.9626   -1.0975 H   0  0  0  0  0  0  0  0  0  0  0  0
    0.2233   -0.6067   -0.4414 C   0  0  1  0  0  0  0  0  0  0  0  0
    0.9494   -1.2522   -0.9488 H   0  0  0  0  0  0  0  0  0  0  0  0
    0.1236    0.7289   -1.2130 C   0  0  0  0  0  0  0  0  0  0  0  0
   -0.7628    1.2668   -0.8598 H   0  0  0  0  0  0  0  0  0  0  0  0
    0.9944    1.3477   -0.9664 H   0  0  0  0  0  0  0  0  0  0  0  0
    0.0564    0.6108   -2.7556 C   0  0  0  0  0  0  0  0  0  0  0  0
   -0.2200    1.5805   -3.1777 H   0  0  0  0  0  0  0  0  0  0  0  0
    1.0610    0.3745   -3.1184 H   0  0  0  0  0  0  0  0  0  0  0  0
   -0.8889   -0.4438   -3.3263 C   0  0  0  0  0  0  0  0  0  0  0  0
   -2.0513   -0.4553   -2.9522 O   0  0  0  0  0  0  0  0  0  0  0  0
   -0.3902   -1.3176   -4.2264 O   0  0  0  0  0  0  0  0  0  0  0  0
   -1.1309   -1.8881   -4.4814 H   0  0  0  0  0  0  0  0  0  0  0  0
    0.7988   -0.3345    0.9671 C   0  0  0  0  0  0  0  0  0  0  0  0
    2.0119   -0.3099    1.1282 O   0  0  0  0  0  0  0  0  0  0  0  0
   -0.0213    0.1718    1.9587 N   0  0  0  0  0  0  0  0  0  0  0  0
   -1.0173    0.0380    1.8161 H   0  0  0  0  0  0  0  0  0  0  0  0
    0.4601    0.4668    3.3022 C   0  0  0  0  0  0  0  0  0  0  0  0
    1.2687    1.2047    3.2676 H   0  0  0  0  0  0  0  0  0  0  0  0
   -0.3506    0.8744    3.9136 H   0  0  0  0  0  0  0  0  0  0  0  0
    0.8350   -0.4437    3.7814 H   0  0  0  0  0  0  0  0  0  0  0  0
  1  2  1  0  0  0  0
  2  3  1  0  0  0  0
  2  4  1  0  0  0  0
  2  5  1  0  0  0  0
  5  6  2  0  0  0  0
  5  7  1  0  0  0  0
  7  8  1  0  0  0  0
  7  9  1  0  0  0  0
  9 10  1  0  0  0  0
  9 11  1  0  0  0  0
  9 21  1  0  0  0  0
 11 12  1  0  0  0  0
 11 13  1  0  0  0  0
 11 14  1  0  0  0  0
 14 15  1  0  0  0  0
 14 16  1  0  0  0  0
 14 17  1  0  0  0  0
 17 18  2  0  0  0  0
 17 19  1  0  0  0  0
 19 20  1  0  0  0  0
 21 22  2  0  0  0  0
 21 23  1  0  0  0  0
 23 24  1  0  0  0  0
 23 25  1  0  0  0  0
 25 26  1  0  0  0  0
 25 27  1  0  0  0  0
 25 28  1  0  0  0  0
M  END
$$$$

  -OEChem-03222214033D

 28 27  0     1  0  0  0  0  0999 V2000
   -2.6516   -4.1921    0.3475 H   0  0  0  0  0  0  0  0  0  0  0  0
   -2.6485   -3.2000   -0.1130 C   0  0  0  0  0  0  0  0  0  0  0  0
   -3.4384   -2.5973    0.3415 H   0  0  0  0  0  0  0  0  0  0  0  0
   -2.8504   -3.3070   -1.1815 H   0  0  0  0  0  0  0  0  0  0  0  0
   -1.3028   -2.5321    0.0947 C   0  0  0  0  0  0  0  0  0  0  0  0
   -0.4367   -3.0939    0.7407 O   0  0  0  0  0  0  0  0  0  0  0  0
   -1.0682   -1.2863   -0.4492 N   0  0  0  0  0  0  0  0  0  0  0  0
   -1.7959   -0.9162   -1.0645 H   0  0  0  0  0  0  0  0  0  0  0  0
    0.2353   -0.5992   -0.4415 C   0  0  1  0  0  0  0  0  0  0  0  0
    0.9686   -1.2404   -0.9437 H   0  0  0  0  0  0  0  0  0  0  0  0
    0.1373    0.7378   -1.2091 C   0  0  0  0  0  0  0  0  0  0  0  0
   -0.7430    1.2899   -0.8624 H   0  0  0  0  0  0  0  0  0  0  0  0
    1.0156    1.3457   -0.9634 H   0  0  0  0  0  0  0  0  0  0  0  0
    0.0871    0.5970   -2.7491 C   0  0  0  0  0  0  0  0  0  0  0  0
    0.0553    1.5947   -3.1942 H   0  0  0  0  0  0  0  0  0  0  0  0
    1.0146    0.1222   -3.0820 H   0  0  0  0  0  0  0  0  0  0  0  0
   -1.0800   -0.2038   -3.3258 C   0  0  0  0  0  0  0  0  0  0  0  0
   -2.1731   -0.1477   -2.7840 O   0  0  0  0  0  0  0  0  0  0  0  0
   -0.8412   -0.9367   -4.4336 O   0  0  0  0  0  0  0  0  0  0  0  0
   -1.6871   -1.3499   -4.6642 H   0  0  0  0  0  0  0  0  0  0  0  0
    0.7937   -0.3338    0.9749 C   0  0  0  0  0  0  0  0  0  0  0  0
    2.0047   -0.3108    1.1516 O   0  0  0  0  0  0  0  0  0  0  0  0
   -0.0388    0.1631    1.9609 N   0  0  0  0  0  0  0  0  0  0  0  0
   -1.0337    0.0386    1.8027 H   0  0  0  0  0  0  0  0  0  0  0  0
    0.4260    0.4487    3.3124 C   0  0  0  0  0  0  0  0  0  0  0  0
    1.2336    1.1881    3.2928 H   0  0  0  0  0  0  0  0  0  0  0  0
   -0.3925    0.8503    3.9173 H   0  0  0  0  0  0  0  0  0  0  0  0
    0.7964   -0.4648    3.7896 H   0  0  0  0  0  0  0  0  0  0  0  0
  1  2  1  0  0  0  0
  2  3  1  0  0  0  0
  2  4  1  0  0  0  0
  2  5  1  0  0  0  0
  5  6  2  0  0  0  0
  5  7  1  0  0  0  0
  7  8  1  0  0  0  0
  7  9  1  0  0  0  0
  9 10  1  0  0  0  0
  9 11  1  0  0  0  0
  9 21  1  0  0  0  0
 11 12  1  0  0  0  0
 11 13  1  0  0  0  0
 11 14  1  0  0  0  0
 14 15  1  0  0  0  0
 14 16  1  0  0  0  0
 14 17  1  0  0  0  0
 17 18  2  0  0  0  0
 17 19  1  0  0  0  0
 19 20  1  0  0  0  0
 21 22  2  0  0  0  0
 21 23  1  0  0  0  0
 23 24  1  0  0  0  0
 23 25  1  0  0  0  0
 25 26  1  0  0  0  0
 25 27  1  0  0  0  0
 25 28  1  0  0  0  0
M  END
$$$$

  -OEChem-03222214033D

 28 27  0     1  0  0  0  0  0999 V2000
   -2.6659   -4.1738    0.3339 H   0  0  0  0  0  0  0  0  0  0  0  0
   -2.6519   -3.1797   -0.1216 C   0  0  0  0  0  0  0  0  0  0  0  0
   -3.4341   -2.5700    0.3370 H   0  0  0  0  0  0  0  0  0  0  0  0
   -2.8570   -3.2792   -1.1904 H   0  0  0  0  0  0  0  0  0  0  0  0
   -1.2988   -2.5276    0.0878 C   0  0  0  0  0  0  0  0  0  0  0  0
   -0.4372   -3.0994    0.7312 O   0  0  0  0  0  0  0  0  0  0  0  0
   -1.0519   -1.2841   -0.4547 N   0  0  0  0  0  0  0  0  0  0  0  0
   -1.7835   -0.8938   -1.0526 H   0  0  0  0  0  0  0  0  0  0  0  0
    0.2517   -0.5996   -0.4339 C   0  0  1  0  0  0  0  0  0  0  0  0
    0.9908   -1.2404   -0.9277 H   0  0  0  0  0  0  0  0  0  0  0  0
    0.1454    0.7333   -1.2048 C   0  0  0  0  0  0  0  0  0  0  0  0
   -0.7256    1.3013   -0.8598 H   0  0  0  0  0  0  0  0  0  0  0  0
    1.0320    1.3331   -0.9683 H   0  0  0  0  0  0  0  0  0  0  0  0
    0.1033    0.5590   -2.7417 C   0  0  0  0  0  0  0  0  0  0  0  0
    0.3086    1.5280   -3.2041 H   0  0  0  0  0  0  0  0  0  0  0  0
    0.9027   -0.1219   -3.0475 H   0  0  0  0  0  0  0  0  0  0  0  0
   -1.2128    0.0515   -3.3363 C   0  0  0  0  0  0  0  0  0  0  0  0
   -2.2289    0.0342   -2.6590 O   0  0  0  0  0  0  0  0  0  0  0  0
   -1.1787   -0.3549   -4.6225 O   0  0  0  0  0  0  0  0  0  0  0  0
   -2.0853   -0.6221   -4.8377 H   0  0  0  0  0  0  0  0  0  0  0  0
    0.7958   -0.3312    0.9871 C   0  0  0  0  0  0  0  0  0  0  0  0
    2.0048   -0.3135    1.1774 O   0  0  0  0  0  0  0  0  0  0  0  0
   -0.0459    0.1698    1.9633 N   0  0  0  0  0  0  0  0  0  0  0  0
   -1.0398    0.0553    1.7918 H   0  0  0  0  0  0  0  0  0  0  0  0
    0.4042    0.4562    3.3194 C   0  0  0  0  0  0  0  0  0  0  0  0
    1.2126    1.1950    3.3080 H   0  0  0  0  0  0  0  0  0  0  0  0
   -0.4205    0.8591    3.9148 H   0  0  0  0  0  0  0  0  0  0  0  0
    0.7688   -0.4571    3.8014 H   0  0  0  0  0  0  0  0  0  0  0  0
  1  2  1  0  0  0  0
  2  3  1  0  0  0  0
  2  4  1  0  0  0  0
  2  5  1  0  0  0  0
  5  6  2  0  0  0  0
  5  7  1  0  0  0  0
  7  8  1  0  0  0  0
  7  9  1  0  0  0  0
  9 10  1  0  0  0  0
  9 11  1  0  0  0  0
  9 21  1  0  0  0  0
 11 12  1  0  0  0  0
 11 13  1  0  0  0  0
 11 14  1  0  0  0  0
 14 15  1  0  0  0  0
 14 16  1  0  0  0  0
 14 17  1  0  0  0  0
 17 18  2  0  0  0  0
 17 19  1  0  0  0  0
 19 20  1  0  0  0  0
 21 22  2  0  0  0  0
 21 23  1  0  0  0  0
 23 24  1  0  0  0  0
 23 25  1  0  0  0  0
 25 26  1  0  0  0  0
 25 27  1  0  0  0  0
 25 28  1  0  0  0  0
M  END
$$$$

  -OEChem-03222214033D

 28 27  0     1  0  0  0  0  0999 V2000
   -2.6680   -4.1769    0.3140 H   0  0  0  0  0  0  0  0  0  0  0  0
   -2.6512   -3.1803   -0.1359 C   0  0  0  0  0  0  0  0  0  0  0  0
   -3.4482   -2.5786    0.3074 H   0  0  0  0  0  0  0  0  0  0  0  0
   -2.8313   -3.2758   -1.2094 H   0  0  0  0  0  0  0  0  0  0  0  0
   -1.3076   -2.5201    0.1061 C   0  0  0  0  0  0  0  0  0  0  0  0
   -0.4646   -3.0793    0.7843 O   0  0  0  0  0  0  0  0  0  0  0  0
   -1.0456   -1.2864   -0.4510 N   0  0  0  0  0  0  0  0  0  0  0  0
   -1.7561   -0.9145   -1.0855 H   0  0  0  0  0  0  0  0  0  0  0  0
    0.2627   -0.6116   -0.4245 C   0  0  1  0  0  0  0  0  0  0  0  0
    1.0041   -1.2619   -0.9022 H   0  0  0  0  0  0  0  0  0  0  0  0
    0.1555    0.7087   -1.2142 C   0  0  0  0  0  0  0  0  0  0  0  0
   -0.7087    1.2925   -0.8779 H   0  0  0  0  0  0  0  0  0  0  0  0
    1.0476    1.3044   -0.9886 H   0  0  0  0  0  0  0  0  0  0  0  0
    0.1200    0.4963   -2.7467 C   0  0  0  0  0  0  0  0  0  0  0  0
    0.5606    1.3780   -3.2198 H   0  0  0  0  0  0  0  0  0  0  0  0
    0.7390   -0.3609   -3.0250 H   0  0  0  0  0  0  0  0  0  0  0  0
   -1.2718    0.3179   -3.3596 C   0  0  0  0  0  0  0  0  0  0  0  0
   -2.2298    0.0560   -2.6488 O   0  0  0  0  0  0  0  0  0  0  0  0
   -1.3653    0.4566   -4.6985 O   0  0  0  0  0  0  0  0  0  0  0  0
   -2.3008    0.3168   -4.9111 H   0  0  0  0  0  0  0  0  0  0  0  0
    0.7961   -0.3251    0.9974 C   0  0  0  0  0  0  0  0  0  0  0  0
    2.0038   -0.3105    1.1965 O   0  0  0  0  0  0  0  0  0  0  0  0
   -0.0498    0.1973    1.9588 N   0  0  0  0  0  0  0  0  0  0  0  0
   -1.0424    0.0758    1.7845 H   0  0  0  0  0  0  0  0  0  0  0  0
    0.3910    0.4954    3.3158 C   0  0  0  0  0  0  0  0  0  0  0  0
    1.2044    1.2287    3.3037 H   0  0  0  0  0  0  0  0  0  0  0  0
   -0.4360    0.9100    3.9000 H   0  0  0  0  0  0  0  0  0  0  0  0
    0.7448   -0.4151    3.8109 H   0  0  0  0  0  0  0  0  0  0  0  0
  1  2  1  0  0  0  0
  2  3  1  0  0  0  0
  2  4  1  0  0  0  0
  2  5  1  0  0  0  0
  5  6  2  0  0  0  0
  5  7  1  0  0  0  0
  7  8  1  0  0  0  0
  7  9  1  0  0  0  0
  9 10  1  0  0  0  0
  9 11  1  0  0  0  0
  9 21  1  0  0  0  0
 11 12  1  0  0  0  0
 11 13  1  0  0  0  0
 11 14  1  0  0  0  0
 14 15  1  0  0  0  0
 14 16  1  0  0  0  0
 14 17  1  0  0  0  0
 17 18  2  0  0  0  0
 17 19  1  0  0  0  0
 19 20  1  0  0  0  0
 21 22  2  0  0  0  0
 21 23  1  0  0  0  0
 23 24  1  0  0  0  0
 23 25  1  0  0  0  0
 25 26  1  0  0  0  0
 25 27  1  0  0  0  0
 25 28  1  0  0  0  0
M  END
$$$$

  -OEChem-03222214033D

 28 27  0     1  0  0  0  0  0999 V2000
   -2.6854   -4.1634    0.2823 H   0  0  0  0  0  0  0  0  0  0  0  0
   -2.6528   -3.1709   -0.1760 C   0  0  0  0  0  0  0  0  0  0  0  0
   -3.4619   -2.5639    0.2369 H   0  0  0  0  0  0  0  0  0  0  0  0
   -2.7997   -3.2762   -1.2537 H   0  0  0  0  0  0  0  0  0  0  0  0
   -1.3163   -2.5100    0.1021 C   0  0  0  0  0  0  0  0  0  0  0  0
   -0.5035   -3.0553    0.8269 O   0  0  0  0  0  0  0  0  0  0  0  0
   -1.0278   -1.2903   -0.4731 N   0  0  0  0  0  0  0  0  0  0  0  0
   -1.7027   -0.9459   -1.1604 H   0  0  0  0  0  0  0  0  0  0  0  0
    0.2905   -0.6332   -0.4293 C   0  0  1  0  0  0  0  0  0  0  0  0
    1.0374   -1.2905   -0.8883 H   0  0  0  0  0  0  0  0  0  0  0  0
    0.1741    0.6727   -1.2344 C   0  0  0  0  0  0  0  0  0  0  0  0
   -0.6966    1.2537   -0.9097 H   0  0  0  0  0  0  0  0  0  0  0  0
    1.0594    1.2823   -1.0191 H   0  0  0  0  0  0  0  0  0  0  0  0
    0.1453    0.4116   -2.7575 C   0  0  0  0  0  0  0  0  0  0  0  0
    0.8008    1.1371   -3.2479 H   0  0  0  0  0  0  0  0  0  0  0  0
    0.5272   -0.5837   -3.0000 H   0  0  0  0  0  0  0  0  0  0  0  0
   -1.2509    0.5716   -3.3548 C   0  0  0  0  0  0  0  0  0  0  0  0
   -2.1920    0.0328   -2.7921 O   0  0  0  0  0  0  0  0  0  0  0  0
   -1.3790    1.3001   -4.4836 O   0  0  0  0  0  0  0  0  0  0  0  0
   -2.3235    1.2795   -4.7017 H   0  0  0  0  0  0  0  0  0  0  0  0
    0.8031   -0.3245    0.9955 C   0  0  0  0  0  0  0  0  0  0  0  0
    2.0072   -0.3198    1.2153 O   0  0  0  0  0  0  0  0  0  0  0  0
   -0.0527    0.2301    1.9295 N   0  0  0  0  0  0  0  0  0  0  0  0
   -1.0437    0.1175    1.7408 H   0  0  0  0  0  0  0  0  0  0  0  0
    0.3695    0.5626    3.2843 C   0  0  0  0  0  0  0  0  0  0  0  0
    1.1868    1.2915    3.2643 H   0  0  0  0  0  0  0  0  0  0  0  0
   -0.4642    0.9968    3.8444 H   0  0  0  0  0  0  0  0  0  0  0  0
    0.7117   -0.3357    3.8092 H   0  0  0  0  0  0  0  0  0  0  0  0
  1  2  1  0  0  0  0
  2  3  1  0  0  0  0
  2  4  1  0  0  0  0
  2  5  1  0  0  0  0
  5  6  2  0  0  0  0
  5  7  1  0  0  0  0
  7  8  1  0  0  0  0
  7  9  1  0  0  0  0
  9 10  1  0  0  0  0
  9 11  1  0  0  0  0
  9 21  1  0  0  0  0
 11 12  1  0  0  0  0
 11 13  1  0  0  0  0
 11 14  1  0  0  0  0
 14 15  1  0  0  0  0
 14 16  1  0  0  0  0
 14 17  1  0  0  0  0
 17 18  2  0  0  0  0
 17 19  1  0  0  0  0
 19 20  1  0  0  0  0
 21 22  2  0  0  0  0
 21 23  1  0  0  0  0
 23 24  1  0  0  0  0
 23 25  1  0  0  0  0
 25 26  1  0  0  0  0
 25 27  1  0  0  0  0
 25 28  1  0  0  0  0
M  END
$$$$

  -OEChem-03222214033D

 28 27  0     1  0  0  0  0  0999 V2000
   -2.7075   -4.1273    0.2879 H   0  0  0  0  0  0  0  0  0  0  0  0
   -2.6654   -3.1373   -0.1748 C   0  0  0  0  0  0  0  0  0  0  0  0
   -3.4553   -2.5146    0.2520 H   0  0  0  0  0  0  0  0  0  0  0  0
   -2.8359   -3.2439   -1.2490 H   0  0  0  0  0  0  0  0  0  0  0  0
   -1.3117   -2.5006    0.0755 C   0  0  0  0  0  0  0  0  0  0  0  0
   -0.4930   -3.0625    0.7805 O   0  0  0  0  0  0  0  0  0  0  0  0
   -1.0146   -1.2814   -0.4970 N   0  0  0  0  0  0  0  0  0  0  0  0
   -1.7007   -0.9080   -1.1551 H   0  0  0  0  0  0  0  0  0  0  0  0
    0.3075   -0.6288   -0.4414 C   0  0  1  0  0  0  0  0  0  0  0  0
    1.0592   -1.2802   -0.9016 H   0  0  0  0  0  0  0  0  0  0  0  0
    0.1698    0.6698   -1.2464 C   0  0  0  0  0  0  0  0  0  0  0  0
   -0.7148    1.2289   -0.9203 H   0  0  0  0  0  0  0  0  0  0  0  0
    1.0386    1.3054   -1.0393 H   0  0  0  0  0  0  0  0  0  0  0  0
    0.1414    0.3764   -2.7631 C   0  0  0  0  0  0  0  0  0  0  0  0
    0.9757    0.8923   -3.2468 H   0  0  0  0  0  0  0  0  0  0  0  0
    0.2561   -0.6909   -2.9722 H   0  0  0  0  0  0  0  0  0  0  0  0
   -1.1590    0.8582   -3.3913 C   0  0  0  0  0  0  0  0  0  0  0  0
   -2.1991    0.3872   -2.9571 O   0  0  0  0  0  0  0  0  0  0  0  0
   -1.1080    1.7739   -4.3813 O   0  0  0  0  0  0  0  0  0  0  0  0
   -2.0300    1.9368   -4.6329 H   0  0  0  0  0  0  0  0  0  0  0  0
    0.8138   -0.3208    0.9855 C   0  0  0  0  0  0  0  0  0  0  0  0
    2.0165   -0.3219    1.2116 O   0  0  0  0  0  0  0  0  0  0  0  0
   -0.0441    0.2382    1.9152 N   0  0  0  0  0  0  0  0  0  0  0  0
   -1.0347    0.1305    1.7224 H   0  0  0  0  0  0  0  0  0  0  0  0
    0.3728    0.5708    3.2717 C   0  0  0  0  0  0  0  0  0  0  0  0
    1.1913    1.2984    3.2551 H   0  0  0  0  0  0  0  0  0  0  0  0
   -0.4626    1.0063    3.8281 H   0  0  0  0  0  0  0  0  0  0  0  0
    0.7115   -0.3279    3.7983 H   0  0  0  0  0  0  0  0  0  0  0  0
  1  2  1  0  0  0  0
  2  3  1  0  0  0  0
  2  4  1  0  0  0  0
  2  5  1  0  0  0  0
  5  6  2  0  0  0  0
  5  7  1  0  0  0  0
  7  8  1  0  0  0  0
  7  9  1  0  0  0  0
  9 10  1  0  0  0  0
  9 11  1  0  0  0  0
  9 21  1  0  0  0  0
 11 12  1  0  0  0  0
 11 13  1  0  0  0  0
 11 14  1  0  0  0  0
 14 15  1  0  0  0  0
 14 16  1  0  0  0  0
 14 17  1  0  0  0  0
 17 18  2  0  0  0  0
 17 19  1  0  0  0  0
 19 20  1  0  0  0  0
 21 22  2  0  0  0  0
 21 23  1  0  0  0  0
 23 24  1  0  0  0  0
 23 25  1  0  0  0  0
 25 26  1  0  0  0  0
 25 27  1  0  0  0  0
 25 28  1  0  0  0  0
M  END
$$$$

  -OEChem-03222214033D

 28 27  0     1  0  0  0  0  0999 V2000
   -2.7028   -4.1346    0.3573 H   0  0  0  0  0  0  0  0  0  0  0  0
   -2.6728   -3.1504   -0.1190 C   0  0  0  0  0  0  0  0  0  0  0  0
   -3.4485   -2.5211    0.3236 H   0  0  0  0  0  0  0  0  0  0  0  0
   -2.8754   -3.2706   -1.1861 H   0  0  0  0  0  0  0  0  0  0  0  0
   -1.3108   -2.5139    0.0829 C   0  0  0  0  0  0  0  0  0  0  0  0
   -0.4655   -3.0797    0.7520 O   0  0  0  0  0  0  0  0  0  0  0  0
   -1.0357   -1.2895   -0.4913 N   0  0  0  0  0  0  0  0  0  0  0  0
   -1.7539   -0.8954   -1.0968 H   0  0  0  0  0  0  0  0  0  0  0  0
    0.2820   -0.6262   -0.4553 C   0  0  1  0  0  0  0  0  0  0  0  0
    1.0281   -1.2773   -0.9249 H   0  0  0  0  0  0  0  0  0  0  0  0
    0.1515    0.6737   -1.2617 C   0  0  0  0  0  0  0  0  0  0  0  0
   -0.7446    1.2139   -0.9359 H   0  0  0  0  0  0  0  0  0  0  0  0
    1.0087    1.3239   -1.0523 H   0  0  0  0  0  0  0  0  0  0  0  0
    0.1173    0.3876   -2.7790 C   0  0  0  0  0  0  0  0  0  0  0  0
    1.0860    0.6376   -3.2213 H   0  0  0  0  0  0  0  0  0  0  0  0
   -0.0660   -0.6720   -2.9777 H   0  0  0  0  0  0  0  0  0  0  0  0
   -0.9760    1.1862   -3.4749 C   0  0  0  0  0  0  0  0  0  0  0  0
   -2.1324    0.9389   -3.1755 O   0  0  0  0  0  0  0  0  0  0  0  0
   -0.6221    2.1259   -4.3766 O   0  0  0  0  0  0  0  0  0  0  0  0
   -1.4553    2.5091   -4.6912 H   0  0  0  0  0  0  0  0  0  0  0  0
    0.8075   -0.3197    0.9652 C   0  0  0  0  0  0  0  0  0  0  0  0
    2.0131   -0.3184    1.1750 O   0  0  0  0  0  0  0  0  0  0  0  0
   -0.0394    0.2286    1.9112 N   0  0  0  0  0  0  0  0  0  0  0  0
   -1.0326    0.1260    1.7307 H   0  0  0  0  0  0  0  0  0  0  0  0
    0.3973    0.5578    3.2623 C   0  0  0  0  0  0  0  0  0  0  0  0
    1.2026    1.2996    3.2356 H   0  0  0  0  0  0  0  0  0  0  0  0
   -0.4346    0.9743    3.8381 H   0  0  0  0  0  0  0  0  0  0  0  0
    0.7615   -0.3387    3.7754 H   0  0  0  0  0  0  0  0  0  0  0  0
  1  2  1  0  0  0  0
  2  3  1  0  0  0  0
  2  4  1  0  0  0  0
  2  5  1  0  0  0  0
  5  6  2  0  0  0  0
  5  7  1  0  0  0  0
  7  8  1  0  0  0  0
  7  9  1  0  0  0  0
  9 10  1  0  0  0  0
  9 11  1  0  0  0  0
  9 21  1  0  0  0  0
 11 12  1  0  0  0  0
 11 13  1  0  0  0  0
 11 14  1  0  0  0  0
 14 15  1  0  0  0  0
 14 16  1  0  0  0  0
 14 17  1  0  0  0  0
 17 18  2  0  0  0  0
 17 19  1  0  0  0  0
 19 20  1  0  0  0  0
 21 22  2  0  0  0  0
 21 23  1  0  0  0  0
 23 24  1  0  0  0  0
 23 25  1  0  0  0  0
 25 26  1  0  0  0  0
 25 27  1  0  0  0  0
 25 28  1  0  0  0  0
M  END
$$$$

  -OEChem-03222214033D

 28 27  0     1  0  0  0  0  0999 V2000
   -2.7110   -4.1360    0.4299 H   0  0  0  0  0  0  0  0  0  0  0  0
   -2.6836   -3.1677   -0.0782 C   0  0  0  0  0  0  0  0  0  0  0  0
   -3.4502   -2.5212    0.3559 H   0  0  0  0  0  0  0  0  0  0  0  0
   -2.9022   -3.3211   -1.1377 H   0  0  0  0  0  0  0  0  0  0  0  0
   -1.3152   -2.5327    0.0827 C   0  0  0  0  0  0  0  0  0  0  0  0
   -0.4501   -3.1029    0.7216 O   0  0  0  0  0  0  0  0  0  0  0  0
   -1.0565   -1.3051   -0.4935 N   0  0  0  0  0  0  0  0  0  0  0  0
   -1.7954   -0.9011   -1.0641 H   0  0  0  0  0  0  0  0  0  0  0  0
    0.2585   -0.6348   -0.4749 C   0  0  1  0  0  0  0  0  0  0  0  0
    0.9988   -1.2861   -0.9539 H   0  0  0  0  0  0  0  0  0  0  0  0
    0.1361    0.6700   -1.2767 C   0  0  0  0  0  0  0  0  0  0  0  0
   -0.7636    1.2040   -0.9508 H   0  0  0  0  0  0  0  0  0  0  0  0
    0.9923    1.3212   -1.0651 H   0  0  0  0  0  0  0  0  0  0  0  0
    0.0927    0.3984   -2.7936 C   0  0  0  0  0  0  0  0  0  0  0  0
    1.1098    0.3741   -3.1949 H   0  0  0  0  0  0  0  0  0  0  0  0
   -0.3647   -0.5723   -3.0027 H   0  0  0  0  0  0  0  0  0  0  0  0
   -0.7201    1.4584   -3.5232 C   0  0  0  0  0  0  0  0  0  0  0  0
   -1.9305    1.4441   -3.3810 O   0  0  0  0  0  0  0  0  0  0  0  0
   -0.0675    2.3695   -4.2748 O   0  0  0  0  0  0  0  0  0  0  0  0
   -0.7573    2.9469   -4.6363 H   0  0  0  0  0  0  0  0  0  0  0  0
    0.8011   -0.3296    0.9398 C   0  0  0  0  0  0  0  0  0  0  0  0
    2.0093   -0.3191    1.1329 O   0  0  0  0  0  0  0  0  0  0  0  0
   -0.0356    0.2117    1.8989 N   0  0  0  0  0  0  0  0  0  0  0  0
   -1.0315    0.1154    1.7309 H   0  0  0  0  0  0  0  0  0  0  0  0
    0.4215    0.5649    3.2371 C   0  0  0  0  0  0  0  0  0  0  0  0
    1.1986    1.3350    3.1855 H   0  0  0  0  0  0  0  0  0  0  0  0
   -0.4106    0.9548    3.8312 H   0  0  0  0  0  0  0  0  0  0  0  0
    0.8300   -0.3145    3.7464 H   0  0  0  0  0  0  0  0  0  0  0  0
  1  2  1  0  0  0  0
  2  3  1  0  0  0  0
  2  4  1  0  0  0  0
  2  5  1  0  0  0  0
  5  6  2  0  0  0  0
  5  7  1  0  0  0  0
  7  8  1  0  0  0  0
  7  9  1  0  0  0  0
  9 10  1  0  0  0  0
  9 11  1  0  0  0  0
  9 21  1  0  0  0  0
 11 12  1  0  0  0  0
 11 13  1  0  0  0  0
 11 14  1  0  0  0  0
 14 15  1  0  0  0  0
 14 16  1  0  0  0  0
 14 17  1  0  0  0  0
 17 18  2  0  0  0  0
 17 19  1  0  0  0  0
 19 20  1  0  0  0  0
 21 22  2  0  0  0  0
 21 23  1  0  0  0  0
 23 24  1  0  0  0  0
 23 25  1  0  0  0  0
 25 26  1  0  0  0  0
 25 27  1  0  0  0  0
 25 28  1  0  0  0  0
M  END
$$$$

  -OEChem-03222214033D

 28 27  0     1  0  0  0  0  0999 V2000
   -2.7089   -4.1187    0.4731 H   0  0  0  0  0  0  0  0  0  0  0  0
   -2.6786   -3.1696   -0.0699 C   0  0  0  0  0  0  0  0  0  0  0  0
   -3.4463   -2.5075    0.3375 H   0  0  0  0  0  0  0  0  0  0  0  0
   -2.8928   -3.3611   -1.1242 H   0  0  0  0  0  0  0  0  0  0  0  0
   -1.3100   -2.5310    0.0734 C   0  0  0  0  0  0  0  0  0  0  0  0
   -0.4327   -3.1040    0.6928 O   0  0  0  0  0  0  0  0  0  0  0  0
   -1.0653   -1.2970   -0.4954 N   0  0  0  0  0  0  0  0  0  0  0  0
   -1.8175   -0.8853   -1.0411 H   0  0  0  0  0  0  0  0  0  0  0  0
    0.2460   -0.6198   -0.4848 C   0  0  1  0  0  0  0  0  0  0  0  0
    0.9837   -1.2658   -0.9748 H   0  0  0  0  0  0  0  0  0  0  0  0
    0.1163    0.6903   -1.2772 C   0  0  0  0  0  0  0  0  0  0  0  0
   -0.7819    1.2247   -0.9477 H   0  0  0  0  0  0  0  0  0  0  0  0
    0.9758    1.3376   -1.0666 H   0  0  0  0  0  0  0  0  0  0  0  0
    0.0639    0.4271   -2.7937 C   0  0  0  0  0  0  0  0  0  0  0  0
    1.0584    0.1503   -3.1553 H   0  0  0  0  0  0  0  0  0  0  0  0
   -0.6128   -0.4010   -3.0198 H   0  0  0  0  0  0  0  0  0  0  0  0
   -0.4262    1.6538   -3.5511 C   0  0  0  0  0  0  0  0  0  0  0  0
   -1.5965    1.9700   -3.4293 O   0  0  0  0  0  0  0  0  0  0  0  0
    0.4556    2.3379   -4.3096 O   0  0  0  0  0  0  0  0  0  0  0  0
   -0.0496    3.0728   -4.6899 H   0  0  0  0  0  0  0  0  0  0  0  0
    0.8013   -0.3239    0.9269 C   0  0  0  0  0  0  0  0  0  0  0  0
    2.0111   -0.3166    1.1099 O   0  0  0  0  0  0  0  0  0  0  0  0
   -0.0272    0.2045    1.9002 N   0  0  0  0  0  0  0  0  0  0  0  0
   -1.0245    0.1116    1.7397 H   0  0  0  0  0  0  0  0  0  0  0  0
    0.4424    0.5377    3.2392 C   0  0  0  0  0  0  0  0  0  0  0  0
    1.2010    1.3263    3.1937 H   0  0  0  0  0  0  0  0  0  0  0  0
   -0.3890    0.8940    3.8549 H   0  0  0  0  0  0  0  0  0  0  0  0
    0.8794   -0.3431    3.7218 H   0  0  0  0  0  0  0  0  0  0  0  0
  1  2  1  0  0  0  0
  2  3  1  0  0  0  0
  2  4  1  0  0  0  0
  2  5  1  0  0  0  0
  5  6  2  0  0  0  0
  5  7  1  0  0  0  0
  7  8  1  0  0  0  0
  7  9  1  0  0  0  0
  9 10  1  0  0  0  0
  9 11  1  0  0  0  0
  9 21  1  0  0  0  0
 11 12  1  0  0  0  0
 11 13  1  0  0  0  0
 11 14  1  0  0  0  0
 14 15  1  0  0  0  0
 14 16  1  0  0  0  0
 14 17  1  0  0  0  0
 17 18  2  0  0  0  0
 17 19  1  0  0  0  0
 19 20  1  0  0  0  0
 21 22  2  0  0  0  0
 21 23  1  0  0  0  0
 23 24  1  0  0  0  0
 23 25  1  0  0  0  0
 25 26  1  0  0  0  0
 25 27  1  0  0  0  0
 25 28  1  0  0  0  0
M  END
$$$$

  -OEChem-03222214033D

 28 27  0     1  0  0  0  0  0999 V2000
   -2.6660   -4.1630    0.4946 H   0  0  0  0  0  0  0  0  0  0  0  0
   -2.6718   -3.1999   -0.0239 C   0  0  0  0  0  0  0  0  0  0  0  0
   -3.4200   -2.5548    0.4425 H   0  0  0  0  0  0  0  0  0  0  0  0
   -2.9425   -3.3660   -1.0694 H   0  0  0  0  0  0  0  0  0  0  0  0
   -1.3017   -2.5543    0.0612 C   0  0  0  0  0  0  0  0  0  0  0  0
   -0.3892   -3.1336    0.6208 O   0  0  0  0  0  0  0  0  0  0  0  0
   -1.0945   -1.3067   -0.4931 N   0  0  0  0  0  0  0  0  0  0  0  0
   -1.8843   -0.8731   -0.9617 H   0  0  0  0  0  0  0  0  0  0  0  0
    0.2034   -0.6037   -0.4965 C   0  0  1  0  0  0  0  0  0  0  0  0
    0.9347   -1.2436   -1.0038 H   0  0  0  0  0  0  0  0  0  0  0  0
    0.0792    0.7099   -1.2861 C   0  0  0  0  0  0  0  0  0  0  0  0
   -0.6516    1.3624   -0.7953 H   0  0  0  0  0  0  0  0  0  0  0  0
    1.0458    1.2274   -1.2672 H   0  0  0  0  0  0  0  0  0  0  0  0
   -0.3341    0.4804   -2.7522 C   0  0  0  0  0  0  0  0  0  0  0  0
    0.4104   -0.1466   -3.2512 H   0  0  0  0  0  0  0  0  0  0  0  0
   -1.2972   -0.0310   -2.8140 H   0  0  0  0  0  0  0  0  0  0  0  0
   -0.4469    1.8022   -3.4997 C   0  0  0  0  0  0  0  0  0  0  0  0
   -1.3923    2.5257   -3.2425 O   0  0  0  0  0  0  0  0  0  0  0  0
    0.5069    2.1147   -4.4018 O   0  0  0  0  0  0  0  0  0  0  0  0
    0.2584    2.9870   -4.7444 H   0  0  0  0  0  0  0  0  0  0  0  0
    0.7849   -0.3156    0.9060 C   0  0  0  0  0  0  0  0  0  0  0  0
    1.9979   -0.2915    1.0638 O   0  0  0  0  0  0  0  0  0  0  0  0
   -0.0311    0.1834    1.9051 N   0  0  0  0  0  0  0  0  0  0  0  0
   -1.0307    0.0870    1.7619 H   0  0  0  0  0  0  0  0  0  0  0  0
    0.4615    0.5082    3.2380 C   0  0  0  0  0  0  0  0  0  0  0  0
    1.2204    1.2960    3.1850 H   0  0  0  0  0  0  0  0  0  0  0  0
   -0.3591    0.8622    3.8691 H   0  0  0  0  0  0  0  0  0  0  0  0
    0.9047   -0.3764    3.7075 H   0  0  0  0  0  0  0  0  0  0  0  0
  1  2  1  0  0  0  0
  2  3  1  0  0  0  0
  2  4  1  0  0  0  0
  2  5  1  0  0  0  0
  5  6  2  0  0  0  0
  5  7  1  0  0  0  0
  7  8  1  0  0  0  0
  7  9  1  0  0  0  0
  9 10  1  0  0  0  0
  9 11  1  0  0  0  0
  9 21  1  0  0  0  0
 11 12  1  0  0  0  0
 11 13  1  0  0  0  0
 11 14  1  0  0  0  0
 14 15  1  0  0  0  0
 14 16  1  0  0  0  0
 14 17  1  0  0  0  0
 17 18  2  0  0  0  0
 17 19  1  0  0  0  0
 19 20  1  0  0  0  0
 21 22  2  0  0  0  0
 21 23  1  0  0  0  0
 23 24  1  0  0  0  0
 23 25  1  0  0  0  0
 25 26  1  0  0  0  0
 25 27  1  0  0  0  0
 25 28  1  0  0  0  0
M  END
$$$$

  -OEChem-03222214033D

 28 27  0     1  0  0  0  0  0999 V2000
   -2.6675   -4.1523    0.4058 H   0  0  0  0  0  0  0  0  0  0  0  0
   -2.6630   -3.1788   -0.0931 C   0  0  0  0  0  0  0  0  0  0  0  0
   -3.4190   -2.5422    0.3727 H   0  0  0  0  0  0  0  0  0  0  0  0
   -2.9153   -3.3234   -1.1464 H   0  0  0  0  0  0  0  0  0  0  0  0
   -1.2938   -2.5372    0.0295 C   0  0  0  0  0  0  0  0  0  0  0  0
   -0.3936   -3.1278    0.5968 O   0  0  0  0  0  0  0  0  0  0  0  0
   -1.0738   -1.2812   -0.5005 N   0  0  0  0  0  0  0  0  0  0  0  0
   -1.8497   -0.8443   -0.9878 H   0  0  0  0  0  0  0  0  0  0  0  0
    0.2261   -0.5827   -0.4707 C   0  0  1  0  0  0  0  0  0  0  0  0
    0.9647   -1.2149   -0.9770 H   0  0  0  0  0  0  0  0  0  0  0  0
    0.1095    0.7438   -1.2396 C   0  0  0  0  0  0  0  0  0  0  0  0
   -0.6180    1.4011   -0.7509 H   0  0  0  0  0  0  0  0  0  0  0  0
    1.0823    1.2486   -1.2012 H   0  0  0  0  0  0  0  0  0  0  0  0
   -0.2859    0.5331   -2.7160 C   0  0  0  0  0  0  0  0  0  0  0  0
    0.3154   -0.2770   -3.1389 H   0  0  0  0  0  0  0  0  0  0  0  0
   -1.3371    0.2486   -2.7971 H   0  0  0  0  0  0  0  0  0  0  0  0
   -0.0530    1.7798   -3.5651 C   0  0  0  0  0  0  0  0  0  0  0  0
   -0.3466    2.8685   -3.1044 O   0  0  0  0  0  0  0  0  0  0  0  0
    0.4518    1.6118   -4.8052 O   0  0  0  0  0  0  0  0  0  0  0  0
    0.5269    2.5069   -5.1710 H   0  0  0  0  0  0  0  0  0  0  0  0
    0.7870   -0.3189    0.9453 C   0  0  0  0  0  0  0  0  0  0  0  0
    1.9974   -0.3088    1.1233 O   0  0  0  0  0  0  0  0  0  0  0  0
   -0.0416    0.1669    1.9408 N   0  0  0  0  0  0  0  0  0  0  0  0
   -1.0394    0.0812    1.7807 H   0  0  0  0  0  0  0  0  0  0  0  0
    0.4330    0.4725    3.2848 C   0  0  0  0  0  0  0  0  0  0  0  0
    1.2083    1.2453    3.2517 H   0  0  0  0  0  0  0  0  0  0  0  0
   -0.3914    0.8392    3.9035 H   0  0  0  0  0  0  0  0  0  0  0  0
    0.8496   -0.4242    3.7557 H   0  0  0  0  0  0  0  0  0  0  0  0
  1  2  1  0  0  0  0
  2  3  1  0  0  0  0
  2  4  1  0  0  0  0
  2  5  1  0  0  0  0
  5  6  2  0  0  0  0
  5  7  1  0  0  0  0
  7  8  1  0  0  0  0
  7  9  1  0  0  0  0
  9 10  1  0  0  0  0
  9 11  1  0  0  0  0
  9 21  1  0  0  0  0
 11 12  1  0  0  0  0
 11 13  1  0  0  0  0
 11 14  1  0  0  0  0
 14 15  1  0  0  0  0
 14 16  1  0  0  0  0
 14 17  1  0  0  0  0
 17 18  2  0  0  0  0
 17 19  1  0  0  0  0
 19 20  1  0  0  0  0
 21 22  2  0  0  0  0
 21 23  1  0  0  0  0
 23 24  1  0  0  0  0
 23 25  1  0  0  0  0
 25 26  1  0  0  0  0
 25 27  1  0  0  0  0
 25 28  1  0  0  0  0
M  END
$$$$

  -OEChem-03222214033D

 28 27  0     1  0  0  0  0  0999 V2000
   -2.6763   -4.1485    0.3659 H   0  0  0  0  0  0  0  0  0  0  0  0
   -2.6686   -3.1703   -0.1234 C   0  0  0  0  0  0  0  0  0  0  0  0
   -3.4367   -2.5427    0.3346 H   0  0  0  0  0  0  0  0  0  0  0  0
   -2.9002   -3.3066   -1.1825 H   0  0  0  0  0  0  0  0  0  0  0  0
   -1.3061   -2.5216    0.0311 C   0  0  0  0  0  0  0  0  0  0  0  0
   -0.4186   -3.1053    0.6248 O   0  0  0  0  0  0  0  0  0  0  0  0
   -1.0794   -1.2663   -0.4980 N   0  0  0  0  0  0  0  0  0  0  0  0
   -1.8379   -0.8475   -1.0267 H   0  0  0  0  0  0  0  0  0  0  0  0
    0.2259   -0.5777   -0.4723 C   0  0  1  0  0  0  0  0  0  0  0  0
    0.9596   -1.2110   -0.9845 H   0  0  0  0  0  0  0  0  0  0  0  0
    0.1067    0.7524   -1.2346 C   0  0  0  0  0  0  0  0  0  0  0  0
   -0.6072    1.4192   -0.7394 H   0  0  0  0  0  0  0  0  0  0  0  0
    1.0868    1.2441   -1.1999 H   0  0  0  0  0  0  0  0  0  0  0  0
   -0.3030    0.5487   -2.7095 C   0  0  0  0  0  0  0  0  0  0  0  0
    0.0872   -0.4080   -3.0693 H   0  0  0  0  0  0  0  0  0  0  0  0
   -1.3910    0.5229   -2.8028 H   0  0  0  0  0  0  0  0  0  0  0  0
    0.2484    1.6374   -3.6256 C   0  0  0  0  0  0  0  0  0  0  0  0
    0.1406    2.8007   -3.2820 O   0  0  0  0  0  0  0  0  0  0  0  0
    0.8177    1.2569   -4.7886 O   0  0  0  0  0  0  0  0  0  0  0  0
    1.1070    2.0811   -5.2100 H   0  0  0  0  0  0  0  0  0  0  0  0
    0.7942   -0.3208    0.9422 C   0  0  0  0  0  0  0  0  0  0  0  0
    2.0054   -0.3197    1.1152 O   0  0  0  0  0  0  0  0  0  0  0  0
   -0.0270    0.1692    1.9418 N   0  0  0  0  0  0  0  0  0  0  0  0
   -1.0255    0.0746    1.7904 H   0  0  0  0  0  0  0  0  0  0  0  0
    0.4562    0.4637    3.2853 C   0  0  0  0  0  0  0  0  0  0  0  0
    1.2442    1.2237    3.2515 H   0  0  0  0  0  0  0  0  0  0  0  0
   -0.3602    0.8427    3.9073 H   0  0  0  0  0  0  0  0  0  0  0  0
    0.8591   -0.4407    3.7534 H   0  0  0  0  0  0  0  0  0  0  0  0
  1  2  1  0  0  0  0
  2  3  1  0  0  0  0
  2  4  1  0  0  0  0
  2  5  1  0  0  0  0
  5  6  2  0  0  0  0
  5  7  1  0  0  0  0
  7  8  1  0  0  0  0
  7  9  1  0  0  0  0
  9 10  1  0  0  0  0
  9 11  1  0  0  0  0
  9 21  1  0  0  0  0
 11 12  1  0  0  0  0
 11 13  1  0  0  0  0
 11 14  1  0  0  0  0
 14 15  1  0  0  0  0
 14 16  1  0  0  0  0
 14 17  1  0  0  0  0
 17 18  2  0  0  0  0
 17 19  1  0  0  0  0
 19 20  1  0  0  0  0
 21 22  2  0  0  0  0
 21 23  1  0  0  0  0
 23 24  1  0  0  0  0
 23 25  1  0  0  0  0
 25 26  1  0  0  0  0
 25 27  1  0  0  0  0
 25 28  1  0  0  0  0
M  END
$$$$

  -OEChem-03222214033D

 28 27  0     1  0  0  0  0  0999 V2000
   -2.6970   -4.1359    0.3759 H   0  0  0  0  0  0  0  0  0  0  0  0
   -2.6853   -3.1651   -0.1279 C   0  0  0  0  0  0  0  0  0  0  0  0
   -3.4546   -2.5297    0.3172 H   0  0  0  0  0  0  0  0  0  0  0  0
   -2.9123   -3.3164   -1.1858 H   0  0  0  0  0  0  0  0  0  0  0  0
   -1.3225   -2.5165    0.0237 C   0  0  0  0  0  0  0  0  0  0  0  0
   -0.4350   -3.1001    0.6177 O   0  0  0  0  0  0  0  0  0  0  0  0
   -1.0963   -1.2603   -0.5039 N   0  0  0  0  0  0  0  0  0  0  0  0
   -1.8530   -0.8444   -1.0376 H   0  0  0  0  0  0  0  0  0  0  0  0
    0.2142   -0.5803   -0.4915 C   0  0  1  0  0  0  0  0  0  0  0  0
    0.9369   -1.2151   -1.0173 H   0  0  0  0  0  0  0  0  0  0  0  0
    0.0962    0.7566   -1.2425 C   0  0  0  0  0  0  0  0  0  0  0  0
   -0.6102    1.4200   -0.7323 H   0  0  0  0  0  0  0  0  0  0  0  0
    1.0774    1.2460   -1.2065 H   0  0  0  0  0  0  0  0  0  0  0  0
   -0.3338    0.5754   -2.7155 C   0  0  0  0  0  0  0  0  0  0  0  0
   -0.2070   -0.4674   -3.0212 H   0  0  0  0  0  0  0  0  0  0  0  0
   -1.3893    0.8319   -2.8357 H   0  0  0  0  0  0  0  0  0  0  0  0
    0.4977    1.4336   -3.6627 C   0  0  0  0  0  0  0  0  0  0  0  0
    0.4327    2.6440   -3.5502 O   0  0  0  0  0  0  0  0  0  0  0  0
    1.2676    0.8121   -4.5804 O   0  0  0  0  0  0  0  0  0  0  0  0
    1.7203    1.5260   -5.0559 H   0  0  0  0  0  0  0  0  0  0  0  0
    0.8013   -0.3334    0.9169 C   0  0  0  0  0  0  0  0  0  0  0  0
    2.0147   -0.3329    1.0740 O   0  0  0  0  0  0  0  0  0  0  0  0
   -0.0068    0.1578    1.9264 N   0  0  0  0  0  0  0  0  0  0  0  0
   -1.0070    0.0619    1.7873 H   0  0  0  0  0  0  0  0  0  0  0  0
    0.4925    0.4480    3.2646 C   0  0  0  0  0  0  0  0  0  0  0  0
    1.2805    1.2074    3.2234 H   0  0  0  0  0  0  0  0  0  0  0  0
   -0.3164    0.8261    3.8967 H   0  0  0  0  0  0  0  0  0  0  0  0
    0.9004   -0.4579    3.7254 H   0  0  0  0  0  0  0  0  0  0  0  0
  1  2  1  0  0  0  0
  2  3  1  0  0  0  0
  2  4  1  0  0  0  0
  2  5  1  0  0  0  0
  5  6  2  0  0  0  0
  5  7  1  0  0  0  0
  7  8  1  0  0  0  0
  7  9  1  0  0  0  0
  9 10  1  0  0  0  0
  9 11  1  0  0  0  0
  9 21  1  0  0  0  0
 11 12  1  0  0  0  0
 11 13  1  0  0  0  0
 11 14  1  0  0  0  0
 14 15  1  0  0  0  0
 14 16  1  0  0  0  0
 14 17  1  0  0  0  0
 17 18  2  0  0  0  0
 17 19  1  0  0  0  0
 19 20  1  0  0  0  0
 21 22  2  0  0  0  0
 21 23  1  0  0  0  0
 23 24  1  0  0  0  0
 23 25  1  0  0  0  0
 25 26  1  0  0  0  0
 25 27  1  0  0  0  0
 25 28  1  0  0  0  0
M  END
$$$$

  -OEChem-03222214033D

 28 27  0     1  0  0  0  0  0999 V2000
   -2.7082   -4.1298    0.3462 H   0  0  0  0  0  0  0  0  0  0  0  0
   -2.6989   -3.1521   -0.1445 C   0  0  0  0  0  0  0  0  0  0  0  0
   -3.4662   -2.5228    0.3126 H   0  0  0  0  0  0  0  0  0  0  0  0
   -2.9306   -3.2891   -1.2034 H   0  0  0  0  0  0  0  0  0  0  0  0
   -1.3352   -2.5050    0.0089 C   0  0  0  0  0  0  0  0  0  0  0  0
   -0.4470   -3.0924    0.5979 O   0  0  0  0  0  0  0  0  0  0  0  0
   -1.1106   -1.2450   -0.5104 N   0  0  0  0  0  0  0  0  0  0  0  0
   -1.8689   -0.8270   -1.0403 H   0  0  0  0  0  0  0  0  0  0  0  0
    0.2025   -0.5688   -0.5080 C   0  0  1  0  0  0  0  0  0  0  0  0
    0.9161   -1.2042   -1.0458 H   0  0  0  0  0  0  0  0  0  0  0  0
    0.0901    0.7723   -1.2539 C   0  0  0  0  0  0  0  0  0  0  0  0
   -0.6235    1.4206   -0.7342 H   0  0  0  0  0  0  0  0  0  0  0  0
    1.0644    1.2751   -1.2127 H   0  0  0  0  0  0  0  0  0  0  0  0
   -0.3502    0.6060   -2.7268 C   0  0  0  0  0  0  0  0  0  0  0  0
   -0.5102   -0.4471   -2.9730 H   0  0  0  0  0  0  0  0  0  0  0  0
   -1.2938    1.1326   -2.8934 H   0  0  0  0  0  0  0  0  0  0  0  0
    0.6919    1.1569   -3.6927 C   0  0  0  0  0  0  0  0  0  0  0  0
    0.6921    2.3527   -3.9195 O   0  0  0  0  0  0  0  0  0  0  0  0
    1.5695    0.2932   -4.2448 O   0  0  0  0  0  0  0  0  0  0  0  0
    2.1517    0.8394   -4.7957 H   0  0  0  0  0  0  0  0  0  0  0  0
    0.8059   -0.3366    0.8965 C   0  0  0  0  0  0  0  0  0  0  0  0
    2.0209   -0.3354    1.0392 O   0  0  0  0  0  0  0  0  0  0  0  0
    0.0110    0.1476    1.9200 N   0  0  0  0  0  0  0  0  0  0  0  0
   -0.9900    0.0408    1.7956 H   0  0  0  0  0  0  0  0  0  0  0  0
    0.5261    0.4108    3.2582 C   0  0  0  0  0  0  0  0  0  0  0  0
    1.3239    1.1602    3.2223 H   0  0  0  0  0  0  0  0  0  0  0  0
   -0.2719    0.7898    3.9037 H   0  0  0  0  0  0  0  0  0  0  0  0
    0.9260   -0.5074    3.7015 H   0  0  0  0  0  0  0  0  0  0  0  0
  1  2  1  0  0  0  0
  2  3  1  0  0  0  0
  2  4  1  0  0  0  0
  2  5  1  0  0  0  0
  5  6  2  0  0  0  0
  5  7  1  0  0  0  0
  7  8  1  0  0  0  0
  7  9  1  0  0  0  0
  9 10  1  0  0  0  0
  9 11  1  0  0  0  0
  9 21  1  0  0  0  0
 11 12  1  0  0  0  0
 11 13  1  0  0  0  0
 11 14  1  0  0  0  0
 14 15  1  0  0  0  0
 14 16  1  0  0  0  0
 14 17  1  0  0  0  0
 17 18  2  0  0  0  0
 17 19  1  0  0  0  0
 19 20  1  0  0  0  0
 21 22  2  0  0  0  0
 21 23  1  0  0  0  0
 23 24  1  0  0  0  0
 23 25  1  0  0  0  0
 25 26  1  0  0  0  0
 25 27  1  0  0  0  0
 25 28  1  0  0  0  0
M  END
$$$$

  -OEChem-03222214033D

 28 27  0     1  0  0  0  0  0999 V2000
   -2.7322   -4.1252    0.3022 H   0  0  0  0  0  0  0  0  0  0  0  0
   -2.7190   -3.1416   -0.1761 C   0  0  0  0  0  0  0  0  0  0  0  0
   -3.4865   -2.5163    0.2862 H   0  0  0  0  0  0  0  0  0  0  0  0
   -2.9471   -3.2648   -1.2375 H   0  0  0  0  0  0  0  0  0  0  0  0
   -1.3544   -2.5002   -0.0095 C   0  0  0  0  0  0  0  0  0  0  0  0
   -0.4735   -3.0925    0.5855 O   0  0  0  0  0  0  0  0  0  0  0  0
   -1.1231   -1.2385   -0.5217 N   0  0  0  0  0  0  0  0  0  0  0  0
   -1.8753   -0.8210   -1.0604 H   0  0  0  0  0  0  0  0  0  0  0  0
    0.1957   -0.5730   -0.5236 C   0  0  1  0  0  0  0  0  0  0  0  0
    0.8996   -1.2111   -1.0711 H   0  0  0  0  0  0  0  0  0  0  0  0
    0.0993    0.7776   -1.2563 C   0  0  0  0  0  0  0  0  0  0  0  0
   -0.6181    1.4123   -0.7255 H   0  0  0  0  0  0  0  0  0  0  0  0
    1.0698    1.2869   -1.2076 H   0  0  0  0  0  0  0  0  0  0  0  0
   -0.3483    0.6417   -2.7290 C   0  0  0  0  0  0  0  0  0  0  0  0
   -0.7954   -0.3345   -2.9295 H   0  0  0  0  0  0  0  0  0  0  0  0
   -1.1022    1.4032   -2.9493 H   0  0  0  0  0  0  0  0  0  0  0  0
    0.8231    0.8389   -3.6829 C   0  0  0  0  0  0  0  0  0  0  0  0
    0.9283    1.9038   -4.2626 O   0  0  0  0  0  0  0  0  0  0  0  0
    1.6900   -0.1836   -3.8375 O   0  0  0  0  0  0  0  0  0  0  0  0
    2.3639    0.1435   -4.4532 H   0  0  0  0  0  0  0  0  0  0  0  0
    0.8097   -0.3559    0.8786 C   0  0  0  0  0  0  0  0  0  0  0  0
    2.0257   -0.3576    1.0133 O   0  0  0  0  0  0  0  0  0  0  0  0
    0.0235    0.1275    1.9093 N   0  0  0  0  0  0  0  0  0  0  0  0
   -0.9784    0.0202    1.7923 H   0  0  0  0  0  0  0  0  0  0  0  0
    0.5488    0.3840    3.2449 C   0  0  0  0  0  0  0  0  0  0  0  0
    1.3637    1.1148    3.2037 H   0  0  0  0  0  0  0  0  0  0  0  0
   -0.2382    0.7843    3.8910 H   0  0  0  0  0  0  0  0  0  0  0  0
    0.9284   -0.5417    3.6903 H   0  0  0  0  0  0  0  0  0  0  0  0
  1  2  1  0  0  0  0
  2  3  1  0  0  0  0
  2  4  1  0  0  0  0
  2  5  1  0  0  0  0
  5  6  2  0  0  0  0
  5  7  1  0  0  0  0
  7  8  1  0  0  0  0
  7  9  1  0  0  0  0
  9 10  1  0  0  0  0
  9 11  1  0  0  0  0
  9 21  1  0  0  0  0
 11 12  1  0  0  0  0
 11 13  1  0  0  0  0
 11 14  1  0  0  0  0
 14 15  1  0  0  0  0
 14 16  1  0  0  0  0
 14 17  1  0  0  0  0
 17 18  2  0  0  0  0
 17 19  1  0  0  0  0
 19 20  1  0  0  0  0
 21 22  2  0  0  0  0
 21 23  1  0  0  0  0
 23 24  1  0  0  0  0
 23 25  1  0  0  0  0
 25 26  1  0  0  0  0
 25 27  1  0  0  0  0
 25 28  1  0  0  0  0
M  END
$$$$

  -OEChem-03222214033D

 28 27  0     1  0  0  0  0  0999 V2000
   -2.6352   -4.2080    0.5315 H   0  0  0  0  0  0  0  0  0  0  0  0
   -2.6263   -3.2823   -0.0513 C   0  0  0  0  0  0  0  0  0  0  0  0
   -3.4652   -2.6590    0.2669 H   0  0  0  0  0  0  0  0  0  0  0  0
   -2.7450   -3.5325   -1.1084 H   0  0  0  0  0  0  0  0  0  0  0  0
   -1.3180   -2.5446    0.1621 C   0  0  0  0  0  0  0  0  0  0  0  0
   -0.4606   -3.0250    0.8799 O   0  0  0  0  0  0  0  0  0  0  0  0
   -1.1141   -1.3234   -0.4501 N   0  0  0  0  0  0  0  0  0  0  0  0
   -1.8330   -1.0260   -1.1015 H   0  0  0  0  0  0  0  0  0  0  0  0
    0.1895   -0.6304   -0.4916 C   0  0  1  0  0  0  0  0  0  0  0  0
    0.9122   -1.2977   -0.9765 H   0  0  0  0  0  0  0  0  0  0  0  0
    0.0816    0.6572   -1.3305 C   0  0  0  0  0  0  0  0  0  0  0  0
   -0.6598    1.3118   -0.8605 H   0  0  0  0  0  0  0  0  0  0  0  0
    1.0387    1.1923   -1.3090 H   0  0  0  0  0  0  0  0  0  0  0  0
   -0.3414    0.4009   -2.7930 C   0  0  0  0  0  0  0  0  0  0  0  0
   -1.0256   -0.4462   -2.8789 H   0  0  0  0  0  0  0  0  0  0  0  0
   -0.8651    1.2840   -3.1688 H   0  0  0  0  0  0  0  0  0  0  0  0
    0.8660    0.1757   -3.6946 C   0  0  0  0  0  0  0  0  0  0  0  0
    1.0375   -0.9391   -4.1513 O   0  0  0  0  0  0  0  0  0  0  0  0
    1.6796    1.2211   -3.9544 O   0  0  0  0  0  0  0  0  0  0  0  0
    2.3818    0.8607   -4.5180 H   0  0  0  0  0  0  0  0  0  0  0  0
    0.7830   -0.2855    0.8937 C   0  0  0  0  0  0  0  0  0  0  0  0
    1.9977   -0.2379    1.0347 O   0  0  0  0  0  0  0  0  0  0  0  0
   -0.0263    0.2620    1.8728 N   0  0  0  0  0  0  0  0  0  0  0  0
   -1.0215    0.0975    1.7635 H   0  0  0  0  0  0  0  0  0  0  0  0
    0.4792    0.6308    3.1893 C   0  0  0  0  0  0  0  0  0  0  0  0
    1.2565    1.3973    3.1011 H   0  0  0  0  0  0  0  0  0  0  0  0
   -0.3301    1.0316    3.8070 H   0  0  0  0  0  0  0  0  0  0  0  0
    0.9029   -0.2437    3.6946 H   0  0  0  0  0  0  0  0  0  0  0  0
  1  2  1  0  0  0  0
  2  3  1  0  0  0  0
  2  4  1  0  0  0  0
  2  5  1  0  0  0  0
  5  6  2  0  0  0  0
  5  7  1  0  0  0  0
  7  8  1  0  0  0  0
  7  9  1  0  0  0  0
  9 10  1  0  0  0  0
  9 11  1  0  0  0  0
  9 21  1  0  0  0  0
 11 12  1  0  0  0  0
 11 13  1  0  0  0  0
 11 14  1  0  0  0  0
 14 15  1  0  0  0  0
 14 16  1  0  0  0  0
 14 17  1  0  0  0  0
 17 18  2  0  0  0  0
 17 19  1  0  0  0  0
 19 20  1  0  0  0  0
 21 22  2  0  0  0  0
 21 23  1  0  0  0  0
 23 24  1  0  0  0  0
 23 25  1  0  0  0  0
 25 26  1  0  0  0  0
 25 27  1  0  0  0  0
 25 28  1  0  0  0  0
M  END
$$$$

  -OEChem-03222214033D

 28 27  0     1  0  0  0  0  0999 V2000
   -2.7474   -4.0963    0.2628 H   0  0  0  0  0  0  0  0  0  0  0  0
   -2.6823   -3.1521   -0.2857 C   0  0  0  0  0  0  0  0  0  0  0  0
   -3.5004   -2.5028    0.0352 H   0  0  0  0  0  0  0  0  0  0  0  0
   -2.7861   -3.3588   -1.3538 H   0  0  0  0  0  0  0  0  0  0  0  0
   -1.3476   -2.4837   -0.0152 C   0  0  0  0  0  0  0  0  0  0  0  0
   -0.5074   -3.0557    0.6542 O   0  0  0  0  0  0  0  0  0  0  0  0
   -1.0996   -1.2236   -0.5232 N   0  0  0  0  0  0  0  0  0  0  0  0
   -1.8048   -0.8480   -1.1484 H   0  0  0  0  0  0  0  0  0  0  0  0
    0.2227   -0.5671   -0.4919 C   0  0  1  0  0  0  0  0  0  0  0  0
    0.9357   -1.2133   -1.0166 H   0  0  0  0  0  0  0  0  0  0  0  0
    0.1544    0.7893   -1.2221 C   0  0  0  0  0  0  0  0  0  0  0  0
   -0.5658    1.4304   -0.7033 H   0  0  0  0  0  0  0  0  0  0  0  0
    1.1312    1.2847   -1.1598 H   0  0  0  0  0  0  0  0  0  0  0  0
   -0.2586    0.6737   -2.7039 C   0  0  0  0  0  0  0  0  0  0  0  0
   -1.1347    0.0345   -2.8276 H   0  0  0  0  0  0  0  0  0  0  0  0
   -0.5253    1.6671   -3.0760 H   0  0  0  0  0  0  0  0  0  0  0  0
    0.8768    0.1400   -3.5682 C   0  0  0  0  0  0  0  0  0  0  0  0
    1.6691    0.9322   -4.0423 O   0  0  0  0  0  0  0  0  0  0  0  0
    0.9457   -1.1933   -3.7677 O   0  0  0  0  0  0  0  0  0  0  0  0
    1.7408   -1.3260   -4.3079 H   0  0  0  0  0  0  0  0  0  0  0  0
    0.8032   -0.3527    0.9250 C   0  0  0  0  0  0  0  0  0  0  0  0
    2.0158   -0.3613    1.0882 O   0  0  0  0  0  0  0  0  0  0  0  0
   -0.0055    0.1366    1.9350 N   0  0  0  0  0  0  0  0  0  0  0  0
   -1.0040    0.0233    1.7960 H   0  0  0  0  0  0  0  0  0  0  0  0
    0.4878    0.3891    3.2832 C   0  0  0  0  0  0  0  0  0  0  0  0
    1.2980    1.1258    3.2638 H   0  0  0  0  0  0  0  0  0  0  0  0
   -0.3168    0.7801    3.9131 H   0  0  0  0  0  0  0  0  0  0  0  0
    0.8640   -0.5362    3.7323 H   0  0  0  0  0  0  0  0  0  0  0  0
  1  2  1  0  0  0  0
  2  3  1  0  0  0  0
  2  4  1  0  0  0  0
  2  5  1  0  0  0  0
  5  6  2  0  0  0  0
  5  7  1  0  0  0  0
  7  8  1  0  0  0  0
  7  9  1  0  0  0  0
  9 10  1  0  0  0  0
  9 11  1  0  0  0  0
  9 21  1  0  0  0  0
 11 12  1  0  0  0  0
 11 13  1  0  0  0  0
 11 14  1  0  0  0  0
 14 15  1  0  0  0  0
 14 16  1  0  0  0  0
 14 17  1  0  0  0  0
 17 18  2  0  0  0  0
 17 19  1  0  0  0  0
 19 20  1  0  0  0  0
 21 22  2  0  0  0  0
 21 23  1  0  0  0  0
 23 24  1  0  0  0  0
 23 25  1  0  0  0  0
 25 26  1  0  0  0  0
 25 27  1  0  0  0  0
 25 28  1  0  0  0  0
M  END
$$$$

  -OEChem-03222214033D

 28 27  0     1  0  0  0  0  0999 V2000
   -2.7105   -4.1269    0.1834 H   0  0  0  0  0  0  0  0  0  0  0  0
   -2.6573   -3.1587   -0.3228 C   0  0  0  0  0  0  0  0  0  0  0  0
   -3.4947   -2.5415    0.0109 H   0  0  0  0  0  0  0  0  0  0  0  0
   -2.7378   -3.3213   -1.4004 H   0  0  0  0  0  0  0  0  0  0  0  0
   -1.3433   -2.4733    0.0004 C   0  0  0  0  0  0  0  0  0  0  0  0
   -0.5335   -3.0247    0.7227 O   0  0  0  0  0  0  0  0  0  0  0  0
   -1.0813   -1.2210   -0.5200 N   0  0  0  0  0  0  0  0  0  0  0  0
   -1.7446   -0.8870   -1.2112 H   0  0  0  0  0  0  0  0  0  0  0  0
    0.2448   -0.5736   -0.4716 C   0  0  1  0  0  0  0  0  0  0  0  0
    0.9657   -1.2287   -0.9731 H   0  0  0  0  0  0  0  0  0  0  0  0
    0.1859    0.7785   -1.2120 C   0  0  0  0  0  0  0  0  0  0  0  0
   -0.5244    1.4380   -0.7025 H   0  0  0  0  0  0  0  0  0  0  0  0
    1.1724    1.2540   -1.1514 H   0  0  0  0  0  0  0  0  0  0  0  0
   -0.2104    0.6628   -2.6986 C   0  0  0  0  0  0  0  0  0  0  0  0
   -1.2141    0.2442   -2.7972 H   0  0  0  0  0  0  0  0  0  0  0  0
   -0.2309    1.6625   -3.1419 H   0  0  0  0  0  0  0  0  0  0  0  0
    0.7602   -0.1945   -3.5013 C   0  0  0  0  0  0  0  0  0  0  0  0
    1.7754    0.3200   -3.9297 O   0  0  0  0  0  0  0  0  0  0  0  0
    0.4439   -1.4931   -3.6940 O   0  0  0  0  0  0  0  0  0  0  0  0
    1.1920   -1.8600   -4.1919 H   0  0  0  0  0  0  0  0  0  0  0  0
    0.7991   -0.3461    0.9538 C   0  0  0  0  0  0  0  0  0  0  0  0
    2.0080   -0.3652    1.1416 O   0  0  0  0  0  0  0  0  0  0  0  0
   -0.0249    0.1611    1.9424 N   0  0  0  0  0  0  0  0  0  0  0  0
   -1.0210    0.0482    1.7855 H   0  0  0  0  0  0  0  0  0  0  0  0
    0.4436    0.4071    3.3006 C   0  0  0  0  0  0  0  0  0  0  0  0
    1.2600    1.1371    3.2986 H   0  0  0  0  0  0  0  0  0  0  0  0
   -0.3696    0.8030    3.9162 H   0  0  0  0  0  0  0  0  0  0  0  0
    0.8037   -0.5221    3.7548 H   0  0  0  0  0  0  0  0  0  0  0  0
  1  2  1  0  0  0  0
  2  3  1  0  0  0  0
  2  4  1  0  0  0  0
  2  5  1  0  0  0  0
  5  6  2  0  0  0  0
  5  7  1  0  0  0  0
  7  8  1  0  0  0  0
  7  9  1  0  0  0  0
  9 10  1  0  0  0  0
  9 11  1  0  0  0  0
  9 21  1  0  0  0  0
 11 12  1  0  0  0  0
 11 13  1  0  0  0  0
 11 14  1  0  0  0  0
 14 15  1  0  0  0  0
 14 16  1  0  0  0  0
 14 17  1  0  0  0  0
 17 18  2  0  0  0  0
 17 19  1  0  0  0  0
 19 20  1  0  0  0  0
 21 22  2  0  0  0  0
 21 23  1  0  0  0  0
 23 24  1  0  0  0  0
 23 25  1  0  0  0  0
 25 26  1  0  0  0  0
 25 27  1  0  0  0  0
 25 28  1  0  0  0  0
M  END
$$$$

  -OEChem-03222214033D

 28 27  0     1  0  0  0  0  0999 V2000
   -2.6829   -4.1574    0.1167 H   0  0  0  0  0  0  0  0  0  0  0  0
   -2.6412   -3.1700   -0.3522 C   0  0  0  0  0  0  0  0  0  0  0  0
   -3.5019   -2.5855   -0.0189 H   0  0  0  0  0  0  0  0  0  0  0  0
   -2.6905   -3.2950   -1.4366 H   0  0  0  0  0  0  0  0  0  0  0  0
   -1.3537   -2.4653    0.0306 C   0  0  0  0  0  0  0  0  0  0  0  0
   -0.5851   -2.9925    0.8134 O   0  0  0  0  0  0  0  0  0  0  0  0
   -1.0680   -1.2271   -0.5104 N   0  0  0  0  0  0  0  0  0  0  0  0
   -1.6738   -0.9473   -1.2755 H   0  0  0  0  0  0  0  0  0  0  0  0
    0.2670   -0.5999   -0.4461 C   0  0  1  0  0  0  0  0  0  0  0  0
    0.9926   -1.2683   -0.9227 H   0  0  0  0  0  0  0  0  0  0  0  0
    0.2270    0.7465   -1.1988 C   0  0  0  0  0  0  0  0  0  0  0  0
   -0.4667    1.4292   -0.6973 H   0  0  0  0  0  0  0  0  0  0  0  0
    1.2261    1.1944   -1.1366 H   0  0  0  0  0  0  0  0  0  0  0  0
   -0.1545    0.6406   -2.6914 C   0  0  0  0  0  0  0  0  0  0  0  0
   -1.2307    0.4772   -2.7833 H   0  0  0  0  0  0  0  0  0  0  0  0
    0.0729    1.5880   -3.1887 H   0  0  0  0  0  0  0  0  0  0  0  0
    0.5597   -0.4814   -3.4355 C   0  0  0  0  0  0  0  0  0  0  0  0
    1.6806   -0.2794   -3.8603 O   0  0  0  0  0  0  0  0  0  0  0  0
   -0.0928   -1.6558   -3.5811 O   0  0  0  0  0  0  0  0  0  0  0  0
    0.5330   -2.2265   -4.0561 H   0  0  0  0  0  0  0  0  0  0  0  0
    0.7945   -0.3536    0.9869 C   0  0  0  0  0  0  0  0  0  0  0  0
    1.9991   -0.3826    1.1999 O   0  0  0  0  0  0  0  0  0  0  0  0
   -0.0432    0.1853    1.9465 N   0  0  0  0  0  0  0  0  0  0  0  0
   -1.0366    0.0691    1.7744 H   0  0  0  0  0  0  0  0  0  0  0  0
    0.4010    0.4550    3.3082 C   0  0  0  0  0  0  0  0  0  0  0  0
    1.2195    1.1825    3.3071 H   0  0  0  0  0  0  0  0  0  0  0  0
   -0.4221    0.8644    3.9013 H   0  0  0  0  0  0  0  0  0  0  0  0
    0.7502   -0.4667    3.7857 H   0  0  0  0  0  0  0  0  0  0  0  0
  1  2  1  0  0  0  0
  2  3  1  0  0  0  0
  2  4  1  0  0  0  0
  2  5  1  0  0  0  0
  5  6  2  0  0  0  0
  5  7  1  0  0  0  0
  7  8  1  0  0  0  0
  7  9  1  0  0  0  0
  9 10  1  0  0  0  0
  9 11  1  0  0  0  0
  9 21  1  0  0  0  0
 11 12  1  0  0  0  0
 11 13  1  0  0  0  0
 11 14  1  0  0  0  0
 14 15  1  0  0  0  0
 14 16  1  0  0  0  0
 14 17  1  0  0  0  0
 17 18  2  0  0  0  0
 17 19  1  0  0  0  0
 19 20  1  0  0  0  0
 21 22  2  0  0  0  0
 21 23  1  0  0  0  0
 23 24  1  0  0  0  0
 23 25  1  0  0  0  0
 25 26  1  0  0  0  0
 25 27  1  0  0  0  0
 25 28  1  0  0  0  0
M  END
$$$$

  -OEChem-03222214033D

 28 27  0     1  0  0  0  0  0999 V2000
   -2.6755   -4.1722    0.1228 H   0  0  0  0  0  0  0  0  0  0  0  0
   -2.6341   -3.1814   -0.3386 C   0  0  0  0  0  0  0  0  0  0  0  0
   -3.5016   -2.6037   -0.0111 H   0  0  0  0  0  0  0  0  0  0  0  0
   -2.6701   -3.2984   -1.4245 H   0  0  0  0  0  0  0  0  0  0  0  0
   -1.3569   -2.4705    0.0654 C   0  0  0  0  0  0  0  0  0  0  0  0
   -0.6115   -2.9812    0.8810 O   0  0  0  0  0  0  0  0  0  0  0  0
   -1.0548   -1.2461   -0.4969 N   0  0  0  0  0  0  0  0  0  0  0  0
   -1.6288   -1.0015   -1.2996 H   0  0  0  0  0  0  0  0  0  0  0  0
    0.2828   -0.6254   -0.4234 C   0  0  1  0  0  0  0  0  0  0  0  0
    1.0145   -1.3044   -0.8763 H   0  0  0  0  0  0  0  0  0  0  0  0
    0.2579    0.7071   -1.2013 C   0  0  0  0  0  0  0  0  0  0  0  0
   -0.4304    1.4068   -0.7155 H   0  0  0  0  0  0  0  0  0  0  0  0
    1.2623    1.1415   -1.1316 H   0  0  0  0  0  0  0  0  0  0  0  0
   -0.1014    0.6021   -2.7024 C   0  0  0  0  0  0  0  0  0  0  0  0
   -1.1837    0.7052   -2.8137 H   0  0  0  0  0  0  0  0  0  0  0  0
    0.3591    1.4344   -3.2426 H   0  0  0  0  0  0  0  0  0  0  0  0
    0.3060   -0.7034   -3.3772 C   0  0  0  0  0  0  0  0  0  0  0  0
    1.4429   -0.8146   -3.7919 O   0  0  0  0  0  0  0  0  0  0  0  0
   -0.6222   -1.6818   -3.4763 O   0  0  0  0  0  0  0  0  0  0  0  0
   -0.1593   -2.4072   -3.9277 H   0  0  0  0  0  0  0  0  0  0  0  0
    0.7869   -0.3523    1.0133 C   0  0  0  0  0  0  0  0  0  0  0  0
    1.9877   -0.3794    1.2472 O   0  0  0  0  0  0  0  0  0  0  0  0
   -0.0642    0.2115    1.9468 N   0  0  0  0  0  0  0  0  0  0  0  0
   -1.0550    0.0983    1.7586 H   0  0  0  0  0  0  0  0  0  0  0  0
    0.3564    0.5017    3.3119 C   0  0  0  0  0  0  0  0  0  0  0  0
    1.1805    1.2228    3.3142 H   0  0  0  0  0  0  0  0  0  0  0  0
   -0.4742    0.9279    3.8823 H   0  0  0  0  0  0  0  0  0  0  0  0
    0.6885   -0.4142    3.8123 H   0  0  0  0  0  0  0  0  0  0  0  0
  1  2  1  0  0  0  0
  2  3  1  0  0  0  0
  2  4  1  0  0  0  0
  2  5  1  0  0  0  0
  5  6  2  0  0  0  0
  5  7  1  0  0  0  0
  7  8  1  0  0  0  0
  7  9  1  0  0  0  0
  9 10  1  0  0  0  0
  9 11  1  0  0  0  0
  9 21  1  0  0  0  0
 11 12  1  0  0  0  0
 11 13  1  0  0  0  0
 11 14  1  0  0  0  0
 14 15  1  0  0  0  0
 14 16  1  0  0  0  0
 14 17  1  0  0  0  0
 17 18  2  0  0  0  0
 17 19  1  0  0  0  0
 19 20  1  0  0  0  0
 21 22  2  0  0  0  0
 21 23  1  0  0  0  0
 23 24  1  0  0  0  0
 23 25  1  0  0  0  0
 25 26  1  0  0  0  0
 25 27  1  0  0  0  0
 25 28  1  0  0  0  0
M  END
$$$$

  -OEChem-03222214033D

 28 27  0     1  0  0  0  0  0999 V2000
   -2.6919   -4.1783    0.2027 H   0  0  0  0  0  0  0  0  0  0  0  0
   -2.6371   -3.2030   -0.2889 C   0  0  0  0  0  0  0  0  0  0  0  0
   -3.5053   -2.6097    0.0072 H   0  0  0  0  0  0  0  0  0  0  0  0
   -2.6582   -3.3536   -1.3707 H   0  0  0  0  0  0  0  0  0  0  0  0
   -1.3603   -2.4883    0.1104 C   0  0  0  0  0  0  0  0  0  0  0  0
   -0.6265   -2.9809    0.9473 O   0  0  0  0  0  0  0  0  0  0  0  0
   -1.0485   -1.2778   -0.4758 N   0  0  0  0  0  0  0  0  0  0  0  0
   -1.6125   -1.0519   -1.2932 H   0  0  0  0  0  0  0  0  0  0  0  0
    0.2900   -0.6577   -0.4023 C   0  0  1  0  0  0  0  0  0  0  0  0
    1.0238   -1.3463   -0.8375 H   0  0  0  0  0  0  0  0  0  0  0  0
    0.2841    0.6596   -1.2078 C   0  0  0  0  0  0  0  0  0  0  0  0
   -0.4072    1.3675   -0.7381 H   0  0  0  0  0  0  0  0  0  0  0  0
    1.2882    1.0920   -1.1235 H   0  0  0  0  0  0  0  0  0  0  0  0
   -0.0509    0.5609   -2.7182 C   0  0  0  0  0  0  0  0  0  0  0  0
   -1.0645    0.9396   -2.8740 H   0  0  0  0  0  0  0  0  0  0  0  0
    0.6241    1.2157   -3.2776 H   0  0  0  0  0  0  0  0  0  0  0  0
    0.0095   -0.8331   -3.3360 C   0  0  0  0  0  0  0  0  0  0  0  0
    1.0739   -1.2323   -3.7651 O   0  0  0  0  0  0  0  0  0  0  0  0
   -1.1302   -1.5605   -3.3842 O   0  0  0  0  0  0  0  0  0  0  0  0
   -0.8693   -2.3791   -3.8390 H   0  0  0  0  0  0  0  0  0  0  0  0
    0.7781   -0.3541    1.0337 C   0  0  0  0  0  0  0  0  0  0  0  0
    1.9764   -0.3740    1.2815 O   0  0  0  0  0  0  0  0  0  0  0  0
   -0.0840    0.2313    1.9430 N   0  0  0  0  0  0  0  0  0  0  0  0
   -1.0722    0.1104    1.7458 H   0  0  0  0  0  0  0  0  0  0  0  0
    0.3193    0.5550    3.3057 C   0  0  0  0  0  0  0  0  0  0  0  0
    1.1446    1.2749    3.3015 H   0  0  0  0  0  0  0  0  0  0  0  0
   -0.5187    0.9963    3.8534 H   0  0  0  0  0  0  0  0  0  0  0  0
    0.6427   -0.3485    3.8334 H   0  0  0  0  0  0  0  0  0  0  0  0
  1  2  1  0  0  0  0
  2  3  1  0  0  0  0
  2  4  1  0  0  0  0
  2  5  1  0  0  0  0
  5  6  2  0  0  0  0
  5  7  1  0  0  0  0
  7  8  1  0  0  0  0
  7  9  1  0  0  0  0
  9 10  1  0  0  0  0
  9 11  1  0  0  0  0
  9 21  1  0  0  0  0
 11 12  1  0  0  0  0
 11 13  1  0  0  0  0
 11 14  1  0  0  0  0
 14 15  1  0  0  0  0
 14 16  1  0  0  0  0
 14 17  1  0  0  0  0
 17 18  2  0  0  0  0
 17 19  1  0  0  0  0
 19 20  1  0  0  0  0
 21 22  2  0  0  0  0
 21 23  1  0  0  0  0
 23 24  1  0  0  0  0
 23 25  1  0  0  0  0
 25 26  1  0  0  0  0
 25 27  1  0  0  0  0
 25 28  1  0  0  0  0
M  END
$$$$

  -OEChem-03222214033D

 28 27  0     1  0  0  0  0  0999 V2000
   -2.6958   -4.1932    0.2954 H   0  0  0  0  0  0  0  0  0  0  0  0
   -2.6423   -3.2272   -0.2145 C   0  0  0  0  0  0  0  0  0  0  0  0
   -3.4983   -2.6203    0.0896 H   0  0  0  0  0  0  0  0  0  0  0  0
   -2.6880   -3.3965   -1.2926 H   0  0  0  0  0  0  0  0  0  0  0  0
   -1.3508   -2.5183    0.1454 C   0  0  0  0  0  0  0  0  0  0  0  0
   -0.5985   -3.0091    0.9668 O   0  0  0  0  0  0  0  0  0  0  0  0
   -1.0478   -1.3126   -0.4548 N   0  0  0  0  0  0  0  0  0  0  0  0
   -1.6463   -1.0623   -1.2412 H   0  0  0  0  0  0  0  0  0  0  0  0
    0.2826   -0.6751   -0.3902 C   0  0  1  0  0  0  0  0  0  0  0  0
    1.0191   -1.3700   -0.8112 H   0  0  0  0  0  0  0  0  0  0  0  0
    0.2948    0.6247   -1.2254 C   0  0  0  0  0  0  0  0  0  0  0  0
   -0.4192    1.3253   -0.7794 H   0  0  0  0  0  0  0  0  0  0  0  0
    1.2882    1.0762   -1.1194 H   0  0  0  0  0  0  0  0  0  0  0  0
   -0.0107    0.5219   -2.7444 C   0  0  0  0  0  0  0  0  0  0  0  0
   -0.8709    1.1573   -2.9714 H   0  0  0  0  0  0  0  0  0  0  0  0
    0.8403    0.9316   -3.2972 H   0  0  0  0  0  0  0  0  0  0  0  0
   -0.3021   -0.8650   -3.3110 C   0  0  0  0  0  0  0  0  0  0  0  0
    0.6174   -1.5062   -3.7797 O   0  0  0  0  0  0  0  0  0  0  0  0
   -1.5789   -1.3123   -3.2847 O   0  0  0  0  0  0  0  0  0  0  0  0
   -1.5405   -2.1631   -3.7536 H   0  0  0  0  0  0  0  0  0  0  0  0
    0.7632   -0.3476    1.0430 C   0  0  0  0  0  0  0  0  0  0  0  0
    1.9615   -0.3440    1.2915 O   0  0  0  0  0  0  0  0  0  0  0  0
   -0.1084    0.2382    1.9434 N   0  0  0  0  0  0  0  0  0  0  0  0
   -1.0949    0.1063    1.7448 H   0  0  0  0  0  0  0  0  0  0  0  0
    0.2883    0.5850    3.3026 C   0  0  0  0  0  0  0  0  0  0  0  0
    1.1071    1.3123    3.2901 H   0  0  0  0  0  0  0  0  0  0  0  0
   -0.5548    1.0260    3.8429 H   0  0  0  0  0  0  0  0  0  0  0  0
    0.6192   -0.3080    3.8435 H   0  0  0  0  0  0  0  0  0  0  0  0
  1  2  1  0  0  0  0
  2  3  1  0  0  0  0
  2  4  1  0  0  0  0
  2  5  1  0  0  0  0
  5  6  2  0  0  0  0
  5  7  1  0  0  0  0
  7  8  1  0  0  0  0
  7  9  1  0  0  0  0
  9 10  1  0  0  0  0
  9 11  1  0  0  0  0
  9 21  1  0  0  0  0
 11 12  1  0  0  0  0
 11 13  1  0  0  0  0
 11 14  1  0  0  0  0
 14 15  1  0  0  0  0
 14 16  1  0  0  0  0
 14 17  1  0  0  0  0
 17 18  2  0  0  0  0
 17 19  1  0  0  0  0
 19 20  1  0  0  0  0
 21 22  2  0  0  0  0
 21 23  1  0  0  0  0
 23 24  1  0  0  0  0
 23 25  1  0  0  0  0
 25 26  1  0  0  0  0
 25 27  1  0  0  0  0
 25 28  1  0  0  0  0
M  END
$$$$

  -OEChem-03222214033D

 28 27  0     1  0  0  0  0  0999 V2000
   -2.7142   -4.1884    0.4072 H   0  0  0  0  0  0  0  0  0  0  0  0
   -2.6556   -3.2408   -0.1359 C   0  0  0  0  0  0  0  0  0  0  0  0
   -3.4938   -2.6085    0.1665 H   0  0  0  0  0  0  0  0  0  0  0  0
   -2.7280   -3.4451   -1.2067 H   0  0  0  0  0  0  0  0  0  0  0  0
   -1.3437   -2.5446    0.1709 C   0  0  0  0  0  0  0  0  0  0  0  0
   -0.5626   -3.0406    0.9619 O   0  0  0  0  0  0  0  0  0  0  0  0
   -1.0535   -1.3404   -0.4382 N   0  0  0  0  0  0  0  0  0  0  0  0
   -1.7011   -1.0466   -1.1692 H   0  0  0  0  0  0  0  0  0  0  0  0
    0.2678   -0.6843   -0.3879 C   0  0  1  0  0  0  0  0  0  0  0  0
    1.0052   -1.3838   -0.7993 H   0  0  0  0  0  0  0  0  0  0  0  0
    0.2934    0.5987   -1.2502 C   0  0  0  0  0  0  0  0  0  0  0  0
   -0.4452    1.2890   -0.8287 H   0  0  0  0  0  0  0  0  0  0  0  0
    1.2740    1.0741   -1.1294 H   0  0  0  0  0  0  0  0  0  0  0  0
    0.0101    0.4783   -2.7727 C   0  0  0  0  0  0  0  0  0  0  0  0
   -0.6307    1.3092   -3.0789 H   0  0  0  0  0  0  0  0  0  0  0  0
    0.9619    0.6019   -3.2990 H   0  0  0  0  0  0  0  0  0  0  0  0
   -0.6164   -0.8135   -3.2907 C   0  0  0  0  0  0  0  0  0  0  0  0
    0.0988   -1.6294   -3.8383 O   0  0  0  0  0  0  0  0  0  0  0  0
   -1.9507   -0.9834   -3.1418 O   0  0  0  0  0  0  0  0  0  0  0  0
   -2.1405   -1.8056   -3.6243 H   0  0  0  0  0  0  0  0  0  0  0  0
    0.7518   -0.3383    1.0396 C   0  0  0  0  0  0  0  0  0  0  0  0
    1.9517   -0.3110    1.2796 O   0  0  0  0  0  0  0  0  0  0  0  0
   -0.1226    0.2428    1.9402 N   0  0  0  0  0  0  0  0  0  0  0  0
   -1.1086    0.0983    1.7484 H   0  0  0  0  0  0  0  0  0  0  0  0
    0.2773    0.6116    3.2926 C   0  0  0  0  0  0  0  0  0  0  0  0
    1.0859    1.3495    3.2658 H   0  0  0  0  0  0  0  0  0  0  0  0
   -0.5686    1.0483    3.8319 H   0  0  0  0  0  0  0  0  0  0  0  0
    0.6235   -0.2700    3.8425 H   0  0  0  0  0  0  0  0  0  0  0  0
  1  2  1  0  0  0  0
  2  3  1  0  0  0  0
  2  4  1  0  0  0  0
  2  5  1  0  0  0  0
  5  6  2  0  0  0  0
  5  7  1  0  0  0  0
  7  8  1  0  0  0  0
  7  9  1  0  0  0  0
  9 10  1  0  0  0  0
  9 11  1  0  0  0  0
  9 21  1  0  0  0  0
 11 12  1  0  0  0  0
 11 13  1  0  0  0  0
 11 14  1  0  0  0  0
 14 15  1  0  0  0  0
 14 16  1  0  0  0  0
 14 17  1  0  0  0  0
 17 18  2  0  0  0  0
 17 19  1  0  0  0  0
 19 20  1  0  0  0  0
 21 22  2  0  0  0  0
 21 23  1  0  0  0  0
 23 24  1  0  0  0  0
 23 25  1  0  0  0  0
 25 26  1  0  0  0  0
 25 27  1  0  0  0  0
 25 28  1  0  0  0  0
M  END
$$$$

  -OEChem-03222214033D

 28 27  0     1  0  0  0  0  0999 V2000
   -2.7884   -4.0990    0.6035 H   0  0  0  0  0  0  0  0  0  0  0  0
   -2.6773   -3.2321   -0.0541 C   0  0  0  0  0  0  0  0  0  0  0  0
   -3.4974   -2.5369    0.1397 H   0  0  0  0  0  0  0  0  0  0  0  0
   -2.7296   -3.5692   -1.0921 H   0  0  0  0  0  0  0  0  0  0  0  0
   -1.3458   -2.5517    0.2007 C   0  0  0  0  0  0  0  0  0  0  0  0
   -0.5406   -3.0567    0.9613 O   0  0  0  0  0  0  0  0  0  0  0  0
   -1.0588   -1.3562   -0.4268 N   0  0  0  0  0  0  0  0  0  0  0  0
   -1.7481   -1.0192   -1.0982 H   0  0  0  0  0  0  0  0  0  0  0  0
    0.2580   -0.6934   -0.3949 C   0  0  1  0  0  0  0  0  0  0  0  0
    0.9937   -1.4023   -0.7924 H   0  0  0  0  0  0  0  0  0  0  0  0
    0.2963    0.5704   -1.2860 C   0  0  0  0  0  0  0  0  0  0  0  0
   -0.4471    1.2682   -0.8861 H   0  0  0  0  0  0  0  0  0  0  0  0
    1.2759    1.0486   -1.1691 H   0  0  0  0  0  0  0  0  0  0  0  0
    0.0220    0.4163   -2.8062 C   0  0  0  0  0  0  0  0  0  0  0  0
   -0.3693    1.3621   -3.1897 H   0  0  0  0  0  0  0  0  0  0  0  0
    0.9863    0.2476   -3.2961 H   0  0  0  0  0  0  0  0  0  0  0  0
   -0.9092   -0.7011   -3.2701 C   0  0  0  0  0  0  0  0  0  0  0  0
   -0.4502   -1.5986   -3.9491 O   0  0  0  0  0  0  0  0  0  0  0  0
   -2.2201   -0.6223   -2.9420 O   0  0  0  0  0  0  0  0  0  0  0  0
   -2.6350   -1.3489   -3.4366 H   0  0  0  0  0  0  0  0  0  0  0  0
    0.7434   -0.3239    1.0259 C   0  0  0  0  0  0  0  0  0  0  0  0
    1.9431   -0.2966    1.2666 O   0  0  0  0  0  0  0  0  0  0  0  0
   -0.1316    0.2658    1.9203 N   0  0  0  0  0  0  0  0  0  0  0  0
   -1.1182    0.1307    1.7249 H   0  0  0  0  0  0  0  0  0  0  0  0
    0.2669    0.6508    3.2685 C   0  0  0  0  0  0  0  0  0  0  0  0
    1.0700    1.3945    3.2340 H   0  0  0  0  0  0  0  0  0  0  0  0
   -0.5818    1.0861    3.8044 H   0  0  0  0  0  0  0  0  0  0  0  0
    0.6201   -0.2228    3.8267 H   0  0  0  0  0  0  0  0  0  0  0  0
  1  2  1  0  0  0  0
  2  3  1  0  0  0  0
  2  4  1  0  0  0  0
  2  5  1  0  0  0  0
  5  6  2  0  0  0  0
  5  7  1  0  0  0  0
  7  8  1  0  0  0  0
  7  9  1  0  0  0  0
  9 10  1  0  0  0  0
  9 11  1  0  0  0  0
  9 21  1  0  0  0  0
 11 12  1  0  0  0  0
 11 13  1  0  0  0  0
 11 14  1  0  0  0  0
 14 15  1  0  0  0  0
 14 16  1  0  0  0  0
 14 17  1  0  0  0  0
 17 18  2  0  0  0  0
 17 19  1  0  0  0  0
 19 20  1  0  0  0  0
 21 22  2  0  0  0  0
 21 23  1  0  0  0  0
 23 24  1  0  0  0  0
 23 25  1  0  0  0  0
 25 26  1  0  0  0  0
 25 27  1  0  0  0  0
 25 28  1  0  0  0  0
M  END
$$$$

  -OEChem-03222214033D

 28 27  0     1  0  0  0  0  0999 V2000
   -2.6176   -4.2313    0.5127 H   0  0  0  0  0  0  0  0  0  0  0  0
   -2.6359   -3.2544    0.0211 C   0  0  0  0  0  0  0  0  0  0  0  0
   -3.4005   -2.6348    0.4958 H   0  0  0  0  0  0  0  0  0  0  0  0
   -2.8925   -3.3942   -1.0316 H   0  0  0  0  0  0  0  0  0  0  0  0
   -1.2797   -2.5860    0.1379 C   0  0  0  0  0  0  0  0  0  0  0  0
   -0.3673   -3.1515    0.7129 O   0  0  0  0  0  0  0  0  0  0  0  0
   -1.0860   -1.3358   -0.4115 N   0  0  0  0  0  0  0  0  0  0  0  0
   -1.8760   -0.9302   -0.9170 H   0  0  0  0  0  0  0  0  0  0  0  0
    0.1987   -0.6151   -0.4341 C   0  0  1  0  0  0  0  0  0  0  0  0
    0.9273   -1.2590   -0.9400 H   0  0  0  0  0  0  0  0  0  0  0  0
    0.1191    0.7130   -1.2256 C   0  0  0  0  0  0  0  0  0  0  0  0
   -0.6116    1.3543   -0.7210 H   0  0  0  0  0  0  0  0  0  0  0  0
    1.0901    1.2164   -1.1550 H   0  0  0  0  0  0  0  0  0  0  0  0
   -0.2709    0.6425   -2.7260 C   0  0  0  0  0  0  0  0  0  0  0  0
   -0.4808    1.6539   -3.0834 H   0  0  0  0  0  0  0  0  0  0  0  0
    0.6034    0.2817   -3.2758 H   0  0  0  0  0  0  0  0  0  0  0  0
   -1.4442   -0.2474   -3.1284 C   0  0  0  0  0  0  0  0  0  0  0  0
   -2.5012   -0.1345   -2.5274 O   0  0  0  0  0  0  0  0  0  0  0  0
   -1.2583   -1.1175   -4.1435 O   0  0  0  0  0  0  0  0  0  0  0  0
   -2.1083   -1.5661   -4.2678 H   0  0  0  0  0  0  0  0  0  0  0  0
    0.7796   -0.3334    0.9700 C   0  0  0  0  0  0  0  0  0  0  0  0
    1.9927   -0.2798    1.1237 O   0  0  0  0  0  0  0  0  0  0  0  0
   -0.0452    0.1430    1.9728 N   0  0  0  0  0  0  0  0  0  0  0  0
   -1.0409    0.0067    1.8315 H   0  0  0  0  0  0  0  0  0  0  0  0
    0.4386    0.4467    3.3136 C   0  0  0  0  0  0  0  0  0  0  0  0
    1.2245    1.2087    3.2750 H   0  0  0  0  0  0  0  0  0  0  0  0
   -0.3785    0.8272    3.9339 H   0  0  0  0  0  0  0  0  0  0  0  0
    0.8444   -0.4541    3.7861 H   0  0  0  0  0  0  0  0  0  0  0  0
  1  2  1  0  0  0  0
  2  3  1  0  0  0  0
  2  4  1  0  0  0  0
  2  5  1  0  0  0  0
  5  6  2  0  0  0  0
  5  7  1  0  0  0  0
  7  8  1  0  0  0  0
  7  9  1  0  0  0  0
  9 10  1  0  0  0  0
  9 11  1  0  0  0  0
  9 21  1  0  0  0  0
 11 12  1  0  0  0  0
 11 13  1  0  0  0  0
 11 14  1  0  0  0  0
 14 15  1  0  0  0  0
 14 16  1  0  0  0  0
 14 17  1  0  0  0  0
 17 18  2  0  0  0  0
 17 19  1  0  0  0  0
 19 20  1  0  0  0  0
 21 22  2  0  0  0  0
 21 23  1  0  0  0  0
 23 24  1  0  0  0  0
 23 25  1  0  0  0  0
 25 26  1  0  0  0  0
 25 27  1  0  0  0  0
 25 28  1  0  0  0  0
M  END
$$$$

  -OEChem-03222214033D

 28 27  0     1  0  0  0  0  0999 V2000
   -2.6370   -4.2052    0.4792 H   0  0  0  0  0  0  0  0  0  0  0  0
   -2.6490   -3.2190    0.0064 C   0  0  0  0  0  0  0  0  0  0  0  0
   -3.3858   -2.5931    0.5155 H   0  0  0  0  0  0  0  0  0  0  0  0
   -2.9398   -3.3335   -1.0407 H   0  0  0  0  0  0  0  0  0  0  0  0
   -1.2762   -2.5808    0.0949 C   0  0  0  0  0  0  0  0  0  0  0  0
   -0.3598   -3.1729    0.6359 O   0  0  0  0  0  0  0  0  0  0  0  0
   -1.0723   -1.3252   -0.4380 N   0  0  0  0  0  0  0  0  0  0  0  0
   -1.8754   -0.8753   -0.8815 H   0  0  0  0  0  0  0  0  0  0  0  0
    0.2124   -0.6062   -0.4356 C   0  0  1  0  0  0  0  0  0  0  0  0
    0.9471   -1.2443   -0.9399 H   0  0  0  0  0  0  0  0  0  0  0  0
    0.1331    0.7262   -1.2171 C   0  0  0  0  0  0  0  0  0  0  0  0
   -0.5911    1.3798   -0.7186 H   0  0  0  0  0  0  0  0  0  0  0  0
    1.1098    1.2187   -1.1500 H   0  0  0  0  0  0  0  0  0  0  0  0
   -0.2445    0.6252   -2.7169 C   0  0  0  0  0  0  0  0  0  0  0  0
   -0.2225    1.6284   -3.1501 H   0  0  0  0  0  0  0  0  0  0  0  0
    0.5280    0.0374   -3.2207 H   0  0  0  0  0  0  0  0  0  0  0  0
   -1.5960    0.0059   -3.0717 C   0  0  0  0  0  0  0  0  0  0  0  0
   -2.5456    0.1627   -2.3201 O   0  0  0  0  0  0  0  0  0  0  0  0
   -1.6757   -0.6859   -4.2279 O   0  0  0  0  0  0  0  0  0  0  0  0
   -2.5983   -0.9742   -4.3006 H   0  0  0  0  0  0  0  0  0  0  0  0
    0.7773   -0.3385    0.9774 C   0  0  0  0  0  0  0  0  0  0  0  0
    1.9888   -0.2931    1.1461 O   0  0  0  0  0  0  0  0  0  0  0  0
   -0.0567    0.1293    1.9769 N   0  0  0  0  0  0  0  0  0  0  0  0
   -1.0523    0.0084    1.8214 H   0  0  0  0  0  0  0  0  0  0  0  0
    0.4145    0.4282    3.3236 C   0  0  0  0  0  0  0  0  0  0  0  0
    1.1995    1.1913    3.2954 H   0  0  0  0  0  0  0  0  0  0  0  0
   -0.4085    0.8051    3.9381 H   0  0  0  0  0  0  0  0  0  0  0  0
    0.8174   -0.4739    3.7959 H   0  0  0  0  0  0  0  0  0  0  0  0
  1  2  1  0  0  0  0
  2  3  1  0  0  0  0
  2  4  1  0  0  0  0
  2  5  1  0  0  0  0
  5  6  2  0  0  0  0
  5  7  1  0  0  0  0
  7  8  1  0  0  0  0
  7  9  1  0  0  0  0
  9 10  1  0  0  0  0
  9 11  1  0  0  0  0
  9 21  1  0  0  0  0
 11 12  1  0  0  0  0
 11 13  1  0  0  0  0
 11 14  1  0  0  0  0
 14 15  1  0  0  0  0
 14 16  1  0  0  0  0
 14 17  1  0  0  0  0
 17 18  2  0  0  0  0
 17 19  1  0  0  0  0
 19 20  1  0  0  0  0
 21 22  2  0  0  0  0
 21 23  1  0  0  0  0
 23 24  1  0  0  0  0
 23 25  1  0  0  0  0
 25 26  1  0  0  0  0
 25 27  1  0  0  0  0
 25 28  1  0  0  0  0
M  END
$$$$

  -OEChem-03222214033D

 28 27  0     1  0  0  0  0  0999 V2000
   -2.6440   -4.1838    0.4580 H   0  0  0  0  0  0  0  0  0  0  0  0
   -2.6487   -3.1955   -0.0106 C   0  0  0  0  0  0  0  0  0  0  0  0
   -3.3780   -2.5649    0.5034 H   0  0  0  0  0  0  0  0  0  0  0  0
   -2.9442   -3.3031   -1.0569 H   0  0  0  0  0  0  0  0  0  0  0  0
   -1.2695   -2.5705    0.0749 C   0  0  0  0  0  0  0  0  0  0  0  0
   -0.3570   -3.1729    0.6112 O   0  0  0  0  0  0  0  0  0  0  0  0
   -1.0546   -1.3155   -0.4551 N   0  0  0  0  0  0  0  0  0  0  0  0
   -1.8580   -0.8469   -0.8782 H   0  0  0  0  0  0  0  0  0  0  0  0
    0.2321   -0.6007   -0.4351 C   0  0  1  0  0  0  0  0  0  0  0  0
    0.9734   -1.2354   -0.9338 H   0  0  0  0  0  0  0  0  0  0  0  0
    0.1426    0.7304   -1.2134 C   0  0  0  0  0  0  0  0  0  0  0  0
   -0.5715    1.3981   -0.7188 H   0  0  0  0  0  0  0  0  0  0  0  0
    1.1243    1.2148   -1.1583 H   0  0  0  0  0  0  0  0  0  0  0  0
   -0.2325    0.5866   -2.7094 C   0  0  0  0  0  0  0  0  0  0  0  0
    0.0084    1.5258   -3.2142 H   0  0  0  0  0  0  0  0  0  0  0  0
    0.3928   -0.1915   -3.1561 H   0  0  0  0  0  0  0  0  0  0  0  0
   -1.6931    0.2689   -3.0400 C   0  0  0  0  0  0  0  0  0  0  0  0
   -2.5512    0.3417   -2.1742 O   0  0  0  0  0  0  0  0  0  0  0  0
   -1.9624   -0.0788   -4.3158 O   0  0  0  0  0  0  0  0  0  0  0  0
   -2.9209   -0.2188   -4.3540 H   0  0  0  0  0  0  0  0  0  0  0  0
    0.7812   -0.3332    0.9838 C   0  0  0  0  0  0  0  0  0  0  0  0
    1.9905   -0.2924    1.1674 O   0  0  0  0  0  0  0  0  0  0  0  0
   -0.0636    0.1382    1.9723 N   0  0  0  0  0  0  0  0  0  0  0  0
   -1.0578    0.0261    1.8018 H   0  0  0  0  0  0  0  0  0  0  0  0
    0.3903    0.4303    3.3259 C   0  0  0  0  0  0  0  0  0  0  0  0
    1.1796    1.1893    3.3111 H   0  0  0  0  0  0  0  0  0  0  0  0
   -0.4394    0.8091    3.9301 H   0  0  0  0  0  0  0  0  0  0  0  0
    0.7816   -0.4756    3.8008 H   0  0  0  0  0  0  0  0  0  0  0  0
  1  2  1  0  0  0  0
  2  3  1  0  0  0  0
  2  4  1  0  0  0  0
  2  5  1  0  0  0  0
  5  6  2  0  0  0  0
  5  7  1  0  0  0  0
  7  8  1  0  0  0  0
  7  9  1  0  0  0  0
  9 10  1  0  0  0  0
  9 11  1  0  0  0  0
  9 21  1  0  0  0  0
 11 12  1  0  0  0  0
 11 13  1  0  0  0  0
 11 14  1  0  0  0  0
 14 15  1  0  0  0  0
 14 16  1  0  0  0  0
 14 17  1  0  0  0  0
 17 18  2  0  0  0  0
 17 19  1  0  0  0  0
 19 20  1  0  0  0  0
 21 22  2  0  0  0  0
 21 23  1  0  0  0  0
 23 24  1  0  0  0  0
 23 25  1  0  0  0  0
 25 26  1  0  0  0  0
 25 27  1  0  0  0  0
 25 28  1  0  0  0  0
M  END
$$$$

  -OEChem-03222214033D

 28 27  0     1  0  0  0  0  0999 V2000
   -2.6458   -4.1816    0.4293 H   0  0  0  0  0  0  0  0  0  0  0  0
   -2.6442   -3.1908   -0.0333 C   0  0  0  0  0  0  0  0  0  0  0  0
   -3.3854   -2.5654    0.4697 H   0  0  0  0  0  0  0  0  0  0  0  0
   -2.9179   -3.2924   -1.0862 H   0  0  0  0  0  0  0  0  0  0  0  0
   -1.2692   -2.5619    0.0840 C   0  0  0  0  0  0  0  0  0  0  0  0
   -0.3714   -3.1541    0.6558 O   0  0  0  0  0  0  0  0  0  0  0  0
   -1.0412   -1.3150   -0.4583 N   0  0  0  0  0  0  0  0  0  0  0  0
   -1.8290   -0.8623   -0.9263 H   0  0  0  0  0  0  0  0  0  0  0  0
    0.2482   -0.6055   -0.4310 C   0  0  1  0  0  0  0  0  0  0  0  0
    0.9944   -1.2441   -0.9170 H   0  0  0  0  0  0  0  0  0  0  0  0
    0.1470    0.7141   -1.2232 C   0  0  0  0  0  0  0  0  0  0  0  0
   -0.5645    1.3919   -0.7388 H   0  0  0  0  0  0  0  0  0  0  0  0
    1.1289    1.1991   -1.1810 H   0  0  0  0  0  0  0  0  0  0  0  0
   -0.2264    0.5232   -2.7137 C   0  0  0  0  0  0  0  0  0  0  0  0
    0.2223    1.3438   -3.2803 H   0  0  0  0  0  0  0  0  0  0  0  0
    0.2108   -0.4054   -3.0904 H   0  0  0  0  0  0  0  0  0  0  0  0
   -1.7219    0.5303   -3.0436 C   0  0  0  0  0  0  0  0  0  0  0  0
   -2.5495    0.3583   -2.1623 O   0  0  0  0  0  0  0  0  0  0  0  0
   -2.0540    0.7247   -4.3369 O   0  0  0  0  0  0  0  0  0  0  0  0
   -3.0230    0.7080   -4.3643 H   0  0  0  0  0  0  0  0  0  0  0  0
    0.7845   -0.3207    0.9894 C   0  0  0  0  0  0  0  0  0  0  0  0
    1.9922   -0.2860    1.1849 O   0  0  0  0  0  0  0  0  0  0  0  0
   -0.0676    0.1679    1.9630 N   0  0  0  0  0  0  0  0  0  0  0  0
   -1.0603    0.0559    1.7836 H   0  0  0  0  0  0  0  0  0  0  0  0
    0.3729    0.4633    3.3205 C   0  0  0  0  0  0  0  0  0  0  0  0
    1.1675    1.2169    3.3114 H   0  0  0  0  0  0  0  0  0  0  0  0
   -0.4610    0.8504    3.9138 H   0  0  0  0  0  0  0  0  0  0  0  0
    0.7531   -0.4432    3.8033 H   0  0  0  0  0  0  0  0  0  0  0  0
  1  2  1  0  0  0  0
  2  3  1  0  0  0  0
  2  4  1  0  0  0  0
  2  5  1  0  0  0  0
  5  6  2  0  0  0  0
  5  7  1  0  0  0  0
  7  8  1  0  0  0  0
  7  9  1  0  0  0  0
  9 10  1  0  0  0  0
  9 11  1  0  0  0  0
  9 21  1  0  0  0  0
 11 12  1  0  0  0  0
 11 13  1  0  0  0  0
 11 14  1  0  0  0  0
 14 15  1  0  0  0  0
 14 16  1  0  0  0  0
 14 17  1  0  0  0  0
 17 18  2  0  0  0  0
 17 19  1  0  0  0  0
 19 20  1  0  0  0  0
 21 22  2  0  0  0  0
 21 23  1  0  0  0  0
 23 24  1  0  0  0  0
 23 25  1  0  0  0  0
 25 26  1  0  0  0  0
 25 27  1  0  0  0  0
 25 28  1  0  0  0  0
M  END
$$$$

  -OEChem-03222214033D

 28 27  0     1  0  0  0  0  0999 V2000
   -2.6583   -4.1866    0.3683 H   0  0  0  0  0  0  0  0  0  0  0  0
   -2.6462   -3.1935   -0.0896 C   0  0  0  0  0  0  0  0  0  0  0  0
   -3.4163   -2.5779    0.3812 H   0  0  0  0  0  0  0  0  0  0  0  0
   -2.8714   -3.2938   -1.1542 H   0  0  0  0  0  0  0  0  0  0  0  0
   -1.2849   -2.5504    0.0928 C   0  0  0  0  0  0  0  0  0  0  0  0
   -0.4200   -3.1176    0.7361 O   0  0  0  0  0  0  0  0  0  0  0  0
   -1.0326   -1.3182   -0.4717 N   0  0  0  0  0  0  0  0  0  0  0  0
   -1.7805   -0.9111   -1.0380 H   0  0  0  0  0  0  0  0  0  0  0  0
    0.2661   -0.6222   -0.4345 C   0  0  1  0  0  0  0  0  0  0  0  0
    1.0170   -1.2696   -0.9016 H   0  0  0  0  0  0  0  0  0  0  0  0
    0.1546    0.6774   -1.2517 C   0  0  0  0  0  0  0  0  0  0  0  0
   -0.5692    1.3558   -0.7862 H   0  0  0  0  0  0  0  0  0  0  0  0
    1.1286    1.1789   -1.2210 H   0  0  0  0  0  0  0  0  0  0  0  0
   -0.2141    0.4184   -2.7310 C   0  0  0  0  0  0  0  0  0  0  0  0
    0.4192    1.0482   -3.3626 H   0  0  0  0  0  0  0  0  0  0  0  0
   -0.0150   -0.6199   -3.0107 H   0  0  0  0  0  0  0  0  0  0  0  0
   -1.6681    0.7578   -3.0501 C   0  0  0  0  0  0  0  0  0  0  0  0
   -2.5457    0.2353   -2.3809 O   0  0  0  0  0  0  0  0  0  0  0  0
   -1.9161    1.6201   -4.0582 O   0  0  0  0  0  0  0  0  0  0  0  0
   -2.8813    1.7023   -4.1011 H   0  0  0  0  0  0  0  0  0  0  0  0
    0.7871   -0.3087    0.9853 C   0  0  0  0  0  0  0  0  0  0  0  0
    1.9930   -0.2708    1.1913 O   0  0  0  0  0  0  0  0  0  0  0  0
   -0.0728    0.2134    1.9345 N   0  0  0  0  0  0  0  0  0  0  0  0
   -1.0634    0.0836    1.7549 H   0  0  0  0  0  0  0  0  0  0  0  0
    0.3571    0.5515    3.2856 C   0  0  0  0  0  0  0  0  0  0  0  0
    1.1508    1.3055    3.2589 H   0  0  0  0  0  0  0  0  0  0  0  0
   -0.4817    0.9561    3.8599 H   0  0  0  0  0  0  0  0  0  0  0  0
    0.7341   -0.3388    3.8000 H   0  0  0  0  0  0  0  0  0  0  0  0
  1  2  1  0  0  0  0
  2  3  1  0  0  0  0
  2  4  1  0  0  0  0
  2  5  1  0  0  0  0
  5  6  2  0  0  0  0
  5  7  1  0  0  0  0
  7  8  1  0  0  0  0
  7  9  1  0  0  0  0
  9 10  1  0  0  0  0
  9 11  1  0  0  0  0
  9 21  1  0  0  0  0
 11 12  1  0  0  0  0
 11 13  1  0  0  0  0
 11 14  1  0  0  0  0
 14 15  1  0  0  0  0
 14 16  1  0  0  0  0
 14 17  1  0  0  0  0
 17 18  2  0  0  0  0
 17 19  1  0  0  0  0
 19 20  1  0  0  0  0
 21 22  2  0  0  0  0
 21 23  1  0  0  0  0
 23 24  1  0  0  0  0
 23 25  1  0  0  0  0
 25 26  1  0  0  0  0
 25 27  1  0  0  0  0
 25 28  1  0  0  0  0
M  END
$$$$

  -OEChem-03222214033D

 28 27  0     1  0  0  0  0  0999 V2000
   -2.6803   -4.1509    0.3677 H   0  0  0  0  0  0  0  0  0  0  0  0
   -2.6586   -3.1608   -0.0964 C   0  0  0  0  0  0  0  0  0  0  0  0
   -3.4138   -2.5313    0.3801 H   0  0  0  0  0  0  0  0  0  0  0  0
   -2.8977   -3.2641   -1.1576 H   0  0  0  0  0  0  0  0  0  0  0  0
   -1.2857   -2.5374    0.0670 C   0  0  0  0  0  0  0  0  0  0  0  0
   -0.4205   -3.1167    0.6984 O   0  0  0  0  0  0  0  0  0  0  0  0
   -1.0234   -1.3065   -0.4968 N   0  0  0  0  0  0  0  0  0  0  0  0
   -1.7731   -0.8783   -1.0424 H   0  0  0  0  0  0  0  0  0  0  0  0
    0.2819   -0.6186   -0.4478 C   0  0  1  0  0  0  0  0  0  0  0  0
    1.0351   -1.2615   -0.9176 H   0  0  0  0  0  0  0  0  0  0  0  0
    0.1480    0.6741   -1.2644 C   0  0  0  0  0  0  0  0  0  0  0  0
   -0.5916    1.3323   -0.7939 H   0  0  0  0  0  0  0  0  0  0  0  0
    1.1070    1.2044   -1.2415 H   0  0  0  0  0  0  0  0  0  0  0  0
   -0.2252    0.3835   -2.7368 C   0  0  0  0  0  0  0  0  0  0  0  0
    0.5514    0.7932   -3.3892 H   0  0  0  0  0  0  0  0  0  0  0  0
   -0.2789   -0.6894   -2.9419 H   0  0  0  0  0  0  0  0  0  0  0  0
   -1.5517    1.0294   -3.1073 C   0  0  0  0  0  0  0  0  0  0  0  0
   -2.5489    0.6090   -2.5420 O   0  0  0  0  0  0  0  0  0  0  0  0
   -1.5691    2.0264   -4.0167 O   0  0  0  0  0  0  0  0  0  0  0  0
   -2.4984    2.2911   -4.0962 H   0  0  0  0  0  0  0  0  0  0  0  0
    0.7976   -0.3060    0.9741 C   0  0  0  0  0  0  0  0  0  0  0  0
    2.0023   -0.2811    1.1874 O   0  0  0  0  0  0  0  0  0  0  0  0
   -0.0624    0.2242    1.9188 N   0  0  0  0  0  0  0  0  0  0  0  0
   -1.0534    0.1080    1.7334 H   0  0  0  0  0  0  0  0  0  0  0  0
    0.3633    0.5604    3.2717 C   0  0  0  0  0  0  0  0  0  0  0  0
    1.1640    1.3072    3.2491 H   0  0  0  0  0  0  0  0  0  0  0  0
   -0.4752    0.9736    3.8404 H   0  0  0  0  0  0  0  0  0  0  0  0
    0.7295   -0.3322    3.7896 H   0  0  0  0  0  0  0  0  0  0  0  0
  1  2  1  0  0  0  0
  2  3  1  0  0  0  0
  2  4  1  0  0  0  0
  2  5  1  0  0  0  0
  5  6  2  0  0  0  0
  5  7  1  0  0  0  0
  7  8  1  0  0  0  0
  7  9  1  0  0  0  0
  9 10  1  0  0  0  0
  9 11  1  0  0  0  0
  9 21  1  0  0  0  0
 11 12  1  0  0  0  0
 11 13  1  0  0  0  0
 11 14  1  0  0  0  0
 14 15  1  0  0  0  0
 14 16  1  0  0  0  0
 14 17  1  0  0  0  0
 17 18  2  0  0  0  0
 17 19  1  0  0  0  0
 19 20  1  0  0  0  0
 21 22  2  0  0  0  0
 21 23  1  0  0  0  0
 23 24  1  0  0  0  0
 23 25  1  0  0  0  0
 25 26  1  0  0  0  0
 25 27  1  0  0  0  0
 25 28  1  0  0  0  0
M  END
$$$$

  -OEChem-03222214033D

 28 27  0     1  0  0  0  0  0999 V2000
   -2.6723   -4.1758    0.4294 H   0  0  0  0  0  0  0  0  0  0  0  0
   -2.6673   -3.1896   -0.0438 C   0  0  0  0  0  0  0  0  0  0  0  0
   -3.4149   -2.5606    0.4453 H   0  0  0  0  0  0  0  0  0  0  0  0
   -2.9310   -3.3045   -1.0979 H   0  0  0  0  0  0  0  0  0  0  0  0
   -1.2942   -2.5577    0.0826 C   0  0  0  0  0  0  0  0  0  0  0  0
   -0.4113   -3.1322    0.6931 O   0  0  0  0  0  0  0  0  0  0  0  0
   -1.0509   -1.3258   -0.4895 N   0  0  0  0  0  0  0  0  0  0  0  0
   -1.8162   -0.8962   -1.0063 H   0  0  0  0  0  0  0  0  0  0  0  0
    0.2528   -0.6329   -0.4636 C   0  0  1  0  0  0  0  0  0  0  0  0
    0.9984   -1.2796   -0.9407 H   0  0  0  0  0  0  0  0  0  0  0  0
    0.1298    0.6632   -1.2795 C   0  0  0  0  0  0  0  0  0  0  0  0
   -0.6162    1.3066   -0.7991 H   0  0  0  0  0  0  0  0  0  0  0  0
    1.0831    1.2036   -1.2511 H   0  0  0  0  0  0  0  0  0  0  0  0
   -0.2543    0.4015   -2.7544 C   0  0  0  0  0  0  0  0  0  0  0  0
    0.6282    0.5353   -3.3862 H   0  0  0  0  0  0  0  0  0  0  0  0
   -0.6028   -0.6224   -2.9103 H   0  0  0  0  0  0  0  0  0  0  0  0
   -1.3474    1.3513   -3.2204 C   0  0  0  0  0  0  0  0  0  0  0  0
   -2.4679    1.1772   -2.7719 O   0  0  0  0  0  0  0  0  0  0  0  0
   -1.0320    2.3389   -4.0841 O   0  0  0  0  0  0  0  0  0  0  0  0
   -1.8584    2.8220   -4.2381 H   0  0  0  0  0  0  0  0  0  0  0  0
    0.7898   -0.3168    0.9501 C   0  0  0  0  0  0  0  0  0  0  0  0
    1.9974   -0.2883    1.1449 O   0  0  0  0  0  0  0  0  0  0  0  0
   -0.0567    0.2114    1.9081 N   0  0  0  0  0  0  0  0  0  0  0  0
   -1.0510    0.1033    1.7369 H   0  0  0  0  0  0  0  0  0  0  0  0
    0.3919    0.5672    3.2486 C   0  0  0  0  0  0  0  0  0  0  0  0
    1.1696    1.3369    3.2015 H   0  0  0  0  0  0  0  0  0  0  0  0
   -0.4438    0.9585    3.8363 H   0  0  0  0  0  0  0  0  0  0  0  0
    0.7967   -0.3116    3.7619 H   0  0  0  0  0  0  0  0  0  0  0  0
  1  2  1  0  0  0  0
  2  3  1  0  0  0  0
  2  4  1  0  0  0  0
  2  5  1  0  0  0  0
  5  6  2  0  0  0  0
  5  7  1  0  0  0  0
  7  8  1  0  0  0  0
  7  9  1  0  0  0  0
  9 10  1  0  0  0  0
  9 11  1  0  0  0  0
  9 21  1  0  0  0  0
 11 12  1  0  0  0  0
 11 13  1  0  0  0  0
 11 14  1  0  0  0  0
 14 15  1  0  0  0  0
 14 16  1  0  0  0  0
 14 17  1  0  0  0  0
 17 18  2  0  0  0  0
 17 19  1  0  0  0  0
 19 20  1  0  0  0  0
 21 22  2  0  0  0  0
 21 23  1  0  0  0  0
 23 24  1  0  0  0  0
 23 25  1  0  0  0  0
 25 26  1  0  0  0  0
 25 27  1  0  0  0  0
 25 28  1  0  0  0  0
M  END
$$$$

  -OEChem-03222214033D

 28 27  0     1  0  0  0  0  0999 V2000
   -2.6637   -4.1775    0.5020 H   0  0  0  0  0  0  0  0  0  0  0  0
   -2.6654   -3.2092   -0.0069 C   0  0  0  0  0  0  0  0  0  0  0  0
   -3.4080   -2.5636    0.4681 H   0  0  0  0  0  0  0  0  0  0  0  0
   -2.9409   -3.3631   -1.0530 H   0  0  0  0  0  0  0  0  0  0  0  0
   -1.2913   -2.5723    0.0797 C   0  0  0  0  0  0  0  0  0  0  0  0
   -0.3872   -3.1483    0.6564 O   0  0  0  0  0  0  0  0  0  0  0  0
   -1.0712   -1.3341   -0.4895 N   0  0  0  0  0  0  0  0  0  0  0  0
   -1.8565   -0.8981   -0.9664 H   0  0  0  0  0  0  0  0  0  0  0  0
    0.2265   -0.6302   -0.4806 C   0  0  1  0  0  0  0  0  0  0  0  0
    0.9677   -1.2744   -0.9679 H   0  0  0  0  0  0  0  0  0  0  0  0
    0.1075    0.6709   -1.2918 C   0  0  0  0  0  0  0  0  0  0  0  0
   -0.6441    1.3047   -0.8074 H   0  0  0  0  0  0  0  0  0  0  0  0
    1.0583    1.2156   -1.2593 H   0  0  0  0  0  0  0  0  0  0  0  0
   -0.2832    0.4302   -2.7670 C   0  0  0  0  0  0  0  0  0  0  0  0
    0.6209    0.2853   -3.3649 H   0  0  0  0  0  0  0  0  0  0  0  0
   -0.8926   -0.4688   -2.8820 H   0  0  0  0  0  0  0  0  0  0  0  0
   -1.0794    1.6005   -3.3266 C   0  0  0  0  0  0  0  0  0  0  0  0
   -2.2402    1.7162   -2.9744 O   0  0  0  0  0  0  0  0  0  0  0  0
   -0.4657    2.4572   -4.1694 O   0  0  0  0  0  0  0  0  0  0  0  0
   -1.1349    3.1222   -4.3932 H   0  0  0  0  0  0  0  0  0  0  0  0
    0.7813   -0.3200    0.9278 C   0  0  0  0  0  0  0  0  0  0  0  0
    1.9913   -0.2837    1.1055 O   0  0  0  0  0  0  0  0  0  0  0  0
   -0.0553    0.1937    1.9021 N   0  0  0  0  0  0  0  0  0  0  0  0
   -1.0514    0.0814    1.7453 H   0  0  0  0  0  0  0  0  0  0  0  0
    0.4108    0.5545    3.2353 C   0  0  0  0  0  0  0  0  0  0  0  0
    1.1900    1.3219    3.1753 H   0  0  0  0  0  0  0  0  0  0  0  0
   -0.4166    0.9514    3.8311 H   0  0  0  0  0  0  0  0  0  0  0  0
    0.8199   -0.3227    3.7478 H   0  0  0  0  0  0  0  0  0  0  0  0
  1  2  1  0  0  0  0
  2  3  1  0  0  0  0
  2  4  1  0  0  0  0
  2  5  1  0  0  0  0
  5  6  2  0  0  0  0
  5  7  1  0  0  0  0
  7  8  1  0  0  0  0
  7  9  1  0  0  0  0
  9 10  1  0  0  0  0
  9 11  1  0  0  0  0
  9 21  1  0  0  0  0
 11 12  1  0  0  0  0
 11 13  1  0  0  0  0
 11 14  1  0  0  0  0
 14 15  1  0  0  0  0
 14 16  1  0  0  0  0
 14 17  1  0  0  0  0
 17 18  2  0  0  0  0
 17 19  1  0  0  0  0
 19 20  1  0  0  0  0
 21 22  2  0  0  0  0
 21 23  1  0  0  0  0
 23 24  1  0  0  0  0
 23 25  1  0  0  0  0
 25 26  1  0  0  0  0
 25 27  1  0  0  0  0
 25 28  1  0  0  0  0
M  END
$$$$

  -OEChem-03222214033D

 28 27  0     1  0  0  0  0  0999 V2000
   -2.6662   -4.1725    0.5244 H   0  0  0  0  0  0  0  0  0  0  0  0
   -2.6716   -3.2116    0.0019 C   0  0  0  0  0  0  0  0  0  0  0  0
   -3.4137   -2.5612    0.4709 H   0  0  0  0  0  0  0  0  0  0  0  0
   -2.9507   -3.3809   -1.0408 H   0  0  0  0  0  0  0  0  0  0  0  0
   -1.2981   -2.5714    0.0745 C   0  0  0  0  0  0  0  0  0  0  0  0
   -0.3859   -3.1478    0.6377 O   0  0  0  0  0  0  0  0  0  0  0  0
   -1.0883   -1.3299   -0.4920 N   0  0  0  0  0  0  0  0  0  0  0  0
   -1.8796   -0.8948   -0.9577 H   0  0  0  0  0  0  0  0  0  0  0  0
    0.2084   -0.6245   -0.4956 C   0  0  1  0  0  0  0  0  0  0  0  0
    0.9439   -1.2679   -0.9923 H   0  0  0  0  0  0  0  0  0  0  0  0
    0.0873    0.6806   -1.3006 C   0  0  0  0  0  0  0  0  0  0  0  0
   -0.6564    1.3227   -0.8152 H   0  0  0  0  0  0  0  0  0  0  0  0
    1.0446    1.2147   -1.2767 H   0  0  0  0  0  0  0  0  0  0  0  0
   -0.3161    0.4440   -2.7698 C   0  0  0  0  0  0  0  0  0  0  0  0
    0.5352    0.0414   -3.3259 H   0  0  0  0  0  0  0  0  0  0  0  0
   -1.1316   -0.2781   -2.8485 H   0  0  0  0  0  0  0  0  0  0  0  0
   -0.7776    1.7405   -3.4200 C   0  0  0  0  0  0  0  0  0  0  0  0
   -1.9143    2.1163   -3.1952 O   0  0  0  0  0  0  0  0  0  0  0  0
    0.0935    2.4196   -4.1954 O   0  0  0  0  0  0  0  0  0  0  0  0
   -0.3873    3.2076   -4.4920 H   0  0  0  0  0  0  0  0  0  0  0  0
    0.7802   -0.3200    0.9073 C   0  0  0  0  0  0  0  0  0  0  0  0
    1.9922   -0.2830    1.0698 O   0  0  0  0  0  0  0  0  0  0  0  0
   -0.0432    0.1884    1.8958 N   0  0  0  0  0  0  0  0  0  0  0  0
   -1.0416    0.0805    1.7519 H   0  0  0  0  0  0  0  0  0  0  0  0
    0.4430    0.5474    3.2222 C   0  0  0  0  0  0  0  0  0  0  0  0
    1.1946    1.3409    3.1528 H   0  0  0  0  0  0  0  0  0  0  0  0
   -0.3824    0.9081    3.8433 H   0  0  0  0  0  0  0  0  0  0  0  0
    0.8933   -0.3221    3.7127 H   0  0  0  0  0  0  0  0  0  0  0  0
  1  2  1  0  0  0  0
  2  3  1  0  0  0  0
  2  4  1  0  0  0  0
  2  5  1  0  0  0  0
  5  6  2  0  0  0  0
  5  7  1  0  0  0  0
  7  8  1  0  0  0  0
  7  9  1  0  0  0  0
  9 10  1  0  0  0  0
  9 11  1  0  0  0  0
  9 21  1  0  0  0  0
 11 12  1  0  0  0  0
 11 13  1  0  0  0  0
 11 14  1  0  0  0  0
 14 15  1  0  0  0  0
 14 16  1  0  0  0  0
 14 17  1  0  0  0  0
 17 18  2  0  0  0  0
 17 19  1  0  0  0  0
 19 20  1  0  0  0  0
 21 22  2  0  0  0  0
 21 23  1  0  0  0  0
 23 24  1  0  0  0  0
 23 25  1  0  0  0  0
 25 26  1  0  0  0  0
 25 27  1  0  0  0  0
 25 28  1  0  0  0  0
M  END
$$$$

  -OEChem-03222214033D

 28 27  0     1  0  0  0  0  0999 V2000
   -2.6135   -4.2347    0.4790 H   0  0  0  0  0  0  0  0  0  0  0  0
   -2.6605   -3.2463    0.0130 C   0  0  0  0  0  0  0  0  0  0  0  0
   -3.4019   -2.6433    0.5423 H   0  0  0  0  0  0  0  0  0  0  0  0
   -2.9707   -3.3643   -1.0281 H   0  0  0  0  0  0  0  0  0  0  0  0
   -1.3016   -2.5751    0.0765 C   0  0  0  0  0  0  0  0  0  0  0  0
   -0.3659   -3.1430    0.6086 O   0  0  0  0  0  0  0  0  0  0  0  0
   -1.1310   -1.3176   -0.4679 N   0  0  0  0  0  0  0  0  0  0  0  0
   -1.9438   -0.8873   -0.8974 H   0  0  0  0  0  0  0  0  0  0  0  0
    0.1533   -0.5890   -0.4903 C   0  0  1  0  0  0  0  0  0  0  0  0
    0.8755   -1.2304   -1.0087 H   0  0  0  0  0  0  0  0  0  0  0  0
    0.0404    0.7210   -1.2948 C   0  0  0  0  0  0  0  0  0  0  0  0
   -0.4878    1.4662   -0.6894 H   0  0  0  0  0  0  0  0  0  0  0  0
    1.0499    1.1073   -1.4788 H   0  0  0  0  0  0  0  0  0  0  0  0
   -0.6990    0.5642   -2.6384 C   0  0  0  0  0  0  0  0  0  0  0  0
   -0.1756   -0.1631   -3.2655 H   0  0  0  0  0  0  0  0  0  0  0  0
   -1.7203    0.2078   -2.4896 H   0  0  0  0  0  0  0  0  0  0  0  0
   -0.7715    1.8944   -3.3755 C   0  0  0  0  0  0  0  0  0  0  0  0
   -1.6219    2.6941   -3.0294 O   0  0  0  0  0  0  0  0  0  0  0  0
    0.1105    2.1271   -4.3701 O   0  0  0  0  0  0  0  0  0  0  0  0
   -0.0966    3.0180   -4.6920 H   0  0  0  0  0  0  0  0  0  0  0  0
    0.7641   -0.3018    0.8999 C   0  0  0  0  0  0  0  0  0  0  0  0
    1.9799   -0.2506    1.0263 O   0  0  0  0  0  0  0  0  0  0  0  0
   -0.0363    0.1721    1.9236 N   0  0  0  0  0  0  0  0  0  0  0  0
   -1.0365    0.0497    1.8078 H   0  0  0  0  0  0  0  0  0  0  0  0
    0.4838    0.4981    3.2459 C   0  0  0  0  0  0  0  0  0  0  0  0
    1.2364    1.2909    3.1776 H   0  0  0  0  0  0  0  0  0  0  0  0
   -0.3248    0.8466    3.8955 H   0  0  0  0  0  0  0  0  0  0  0  0
    0.9427   -0.3844    3.7044 H   0  0  0  0  0  0  0  0  0  0  0  0
  1  2  1  0  0  0  0
  2  3  1  0  0  0  0
  2  4  1  0  0  0  0
  2  5  1  0  0  0  0
  5  6  2  0  0  0  0
  5  7  1  0  0  0  0
  7  8  1  0  0  0  0
  7  9  1  0  0  0  0
  9 10  1  0  0  0  0
  9 11  1  0  0  0  0
  9 21  1  0  0  0  0
 11 12  1  0  0  0  0
 11 13  1  0  0  0  0
 11 14  1  0  0  0  0
 14 15  1  0  0  0  0
 14 16  1  0  0  0  0
 14 17  1  0  0  0  0
 17 18  2  0  0  0  0
 17 19  1  0  0  0  0
 19 20  1  0  0  0  0
 21 22  2  0  0  0  0
 21 23  1  0  0  0  0
 23 24  1  0  0  0  0
 23 25  1  0  0  0  0
 25 26  1  0  0  0  0
 25 27  1  0  0  0  0
 25 28  1  0  0  0  0
M  END
$$$$

  -OEChem-03222214033D

 28 27  0     1  0  0  0  0  0999 V2000
   -2.6521   -4.1865    0.4080 H   0  0  0  0  0  0  0  0  0  0  0  0
   -2.6618   -3.2094   -0.0835 C   0  0  0  0  0  0  0  0  0  0  0  0
   -3.4283   -2.5882    0.3856 H   0  0  0  0  0  0  0  0  0  0  0  0
   -2.9096   -3.3499   -1.1383 H   0  0  0  0  0  0  0  0  0  0  0  0
   -1.3034   -2.5469    0.0465 C   0  0  0  0  0  0  0  0  0  0  0  0
   -0.3959   -3.1253    0.6148 O   0  0  0  0  0  0  0  0  0  0  0  0
   -1.1033   -1.2844   -0.4759 N   0  0  0  0  0  0  0  0  0  0  0  0
   -1.8864   -0.8584   -0.9603 H   0  0  0  0  0  0  0  0  0  0  0  0
    0.1903   -0.5723   -0.4574 C   0  0  1  0  0  0  0  0  0  0  0  0
    0.9179   -1.2109   -0.9717 H   0  0  0  0  0  0  0  0  0  0  0  0
    0.0963    0.7514   -1.2403 C   0  0  0  0  0  0  0  0  0  0  0  0
   -0.4268    1.5019   -0.6370 H   0  0  0  0  0  0  0  0  0  0  0  0
    1.1149    1.1217   -1.4067 H   0  0  0  0  0  0  0  0  0  0  0  0
   -0.6256    0.6090   -2.5977 C   0  0  0  0  0  0  0  0  0  0  0  0
   -0.2504   -0.2803   -3.1128 H   0  0  0  0  0  0  0  0  0  0  0  0
   -1.7011    0.4885   -2.4526 H   0  0  0  0  0  0  0  0  0  0  0  0
   -0.3980    1.8109   -3.5107 C   0  0  0  0  0  0  0  0  0  0  0  0
   -0.4251    2.9297   -3.0306 O   0  0  0  0  0  0  0  0  0  0  0  0
   -0.1970    1.5726   -4.8237 O   0  0  0  0  0  0  0  0  0  0  0  0
   -0.0684    2.4475   -5.2221 H   0  0  0  0  0  0  0  0  0  0  0  0
    0.7731   -0.3111    0.9498 C   0  0  0  0  0  0  0  0  0  0  0  0
    1.9863   -0.2857    1.1058 O   0  0  0  0  0  0  0  0  0  0  0  0
   -0.0437    0.1599    1.9619 N   0  0  0  0  0  0  0  0  0  0  0  0
   -1.0425    0.0535    1.8218 H   0  0  0  0  0  0  0  0  0  0  0  0
    0.4511    0.4660    3.2983 C   0  0  0  0  0  0  0  0  0  0  0  0
    1.2120    1.2525    3.2546 H   0  0  0  0  0  0  0  0  0  0  0  0
   -0.3677    0.8149    3.9346 H   0  0  0  0  0  0  0  0  0  0  0  0
    0.8923   -0.4256    3.7564 H   0  0  0  0  0  0  0  0  0  0  0  0
  1  2  1  0  0  0  0
  2  3  1  0  0  0  0
  2  4  1  0  0  0  0
  2  5  1  0  0  0  0
  5  6  2  0  0  0  0
  5  7  1  0  0  0  0
  7  8  1  0  0  0  0
  7  9  1  0  0  0  0
  9 10  1  0  0  0  0
  9 11  1  0  0  0  0
  9 21  1  0  0  0  0
 11 12  1  0  0  0  0
 11 13  1  0  0  0  0
 11 14  1  0  0  0  0
 14 15  1  0  0  0  0
 14 16  1  0  0  0  0
 14 17  1  0  0  0  0
 17 18  2  0  0  0  0
 17 19  1  0  0  0  0
 19 20  1  0  0  0  0
 21 22  2  0  0  0  0
 21 23  1  0  0  0  0
 23 24  1  0  0  0  0
 23 25  1  0  0  0  0
 25 26  1  0  0  0  0
 25 27  1  0  0  0  0
 25 28  1  0  0  0  0
M  END
$$$$

  -OEChem-03222214033D

 28 27  0     1  0  0  0  0  0999 V2000
   -2.6708   -4.1745    0.3827 H   0  0  0  0  0  0  0  0  0  0  0  0
   -2.6754   -3.1953   -0.1047 C   0  0  0  0  0  0  0  0  0  0  0  0
   -3.4471   -2.5765    0.3592 H   0  0  0  0  0  0  0  0  0  0  0  0
   -2.9116   -3.3314   -1.1627 H   0  0  0  0  0  0  0  0  0  0  0  0
   -1.3185   -2.5334    0.0425 C   0  0  0  0  0  0  0  0  0  0  0  0
   -0.4197   -3.1115    0.6246 O   0  0  0  0  0  0  0  0  0  0  0  0
   -1.1107   -1.2717   -0.4790 N   0  0  0  0  0  0  0  0  0  0  0  0
   -1.8802   -0.8555   -0.9930 H   0  0  0  0  0  0  0  0  0  0  0  0
    0.1886   -0.5697   -0.4616 C   0  0  1  0  0  0  0  0  0  0  0  0
    0.9112   -1.2101   -0.9807 H   0  0  0  0  0  0  0  0  0  0  0  0
    0.0923    0.7568   -1.2394 C   0  0  0  0  0  0  0  0  0  0  0  0
   -0.4178    1.5144   -0.6344 H   0  0  0  0  0  0  0  0  0  0  0  0
    1.1151    1.1148   -1.4085 H   0  0  0  0  0  0  0  0  0  0  0  0
   -0.6393    0.6219   -2.5936 C   0  0  0  0  0  0  0  0  0  0  0  0
   -0.4660   -0.3779   -3.0028 H   0  0  0  0  0  0  0  0  0  0  0  0
   -1.7160    0.7531   -2.4634 H   0  0  0  0  0  0  0  0  0  0  0  0
   -0.1375    1.6243   -3.6290 C   0  0  0  0  0  0  0  0  0  0  0  0
   -0.0203    2.7915   -3.3033 O   0  0  0  0  0  0  0  0  0  0  0  0
    0.1375    1.1691   -4.8693 O   0  0  0  0  0  0  0  0  0  0  0  0
    0.4443    1.9473   -5.3604 H   0  0  0  0  0  0  0  0  0  0  0  0
    0.7780   -0.3137    0.9442 C   0  0  0  0  0  0  0  0  0  0  0  0
    1.9919   -0.2995    1.0957 O   0  0  0  0  0  0  0  0  0  0  0  0
   -0.0299    0.1630    1.9608 N   0  0  0  0  0  0  0  0  0  0  0  0
   -1.0300    0.0596    1.8269 H   0  0  0  0  0  0  0  0  0  0  0  0
    0.4746    0.4570    3.2967 C   0  0  0  0  0  0  0  0  0  0  0  0
    1.2506    1.2287    3.2528 H   0  0  0  0  0  0  0  0  0  0  0  0
   -0.3353    0.8201    3.9367 H   0  0  0  0  0  0  0  0  0  0  0  0
    0.9003   -0.4439    3.7511 H   0  0  0  0  0  0  0  0  0  0  0  0
  1  2  1  0  0  0  0
  2  3  1  0  0  0  0
  2  4  1  0  0  0  0
  2  5  1  0  0  0  0
  5  6  2  0  0  0  0
  5  7  1  0  0  0  0
  7  8  1  0  0  0  0
  7  9  1  0  0  0  0
  9 10  1  0  0  0  0
  9 11  1  0  0  0  0
  9 21  1  0  0  0  0
 11 12  1  0  0  0  0
 11 13  1  0  0  0  0
 11 14  1  0  0  0  0
 14 15  1  0  0  0  0
 14 16  1  0  0  0  0
 14 17  1  0  0  0  0
 17 18  2  0  0  0  0
 17 19  1  0  0  0  0
 19 20  1  0  0  0  0
 21 22  2  0  0  0  0
 21 23  1  0  0  0  0
 23 24  1  0  0  0  0
 23 25  1  0  0  0  0
 25 26  1  0  0  0  0
 25 27  1  0  0  0  0
 25 28  1  0  0  0  0
M  END
$$$$

  -OEChem-03222214033D

 28 27  0     1  0  0  0  0  0999 V2000
   -2.6926   -4.1618    0.3956 H   0  0  0  0  0  0  0  0  0  0  0  0
   -2.6959   -3.1866   -0.0999 C   0  0  0  0  0  0  0  0  0  0  0  0
   -3.4648   -2.5617    0.3604 H   0  0  0  0  0  0  0  0  0  0  0  0
   -2.9355   -3.3309   -1.1561 H   0  0  0  0  0  0  0  0  0  0  0  0
   -1.3368   -2.5271    0.0382 C   0  0  0  0  0  0  0  0  0  0  0  0
   -0.4347   -3.1074    0.6130 O   0  0  0  0  0  0  0  0  0  0  0  0
   -1.1314   -1.2640   -0.4810 N   0  0  0  0  0  0  0  0  0  0  0  0
   -1.9041   -0.8466   -0.9896 H   0  0  0  0  0  0  0  0  0  0  0  0
    0.1717   -0.5679   -0.4804 C   0  0  1  0  0  0  0  0  0  0  0  0
    0.8829   -1.2113   -1.0116 H   0  0  0  0  0  0  0  0  0  0  0  0
    0.0790    0.7632   -1.2525 C   0  0  0  0  0  0  0  0  0  0  0  0
   -0.4211    1.5179   -0.6358 H   0  0  0  0  0  0  0  0  0  0  0  0
    1.1029    1.1186   -1.4213 H   0  0  0  0  0  0  0  0  0  0  0  0
   -0.6676    0.6546   -2.6029 C   0  0  0  0  0  0  0  0  0  0  0  0
   -0.7492   -0.3919   -2.9101 H   0  0  0  0  0  0  0  0  0  0  0  0
   -1.6786    1.0600   -2.5116 H   0  0  0  0  0  0  0  0  0  0  0  0
    0.0680    1.3873   -3.7194 C   0  0  0  0  0  0  0  0  0  0  0  0
    0.1741    2.5973   -3.6425 O   0  0  0  0  0  0  0  0  0  0  0  0
    0.5665    0.6605   -4.7414 O   0  0  0  0  0  0  0  0  0  0  0  0
    1.0017    1.3050   -5.3211 H   0  0  0  0  0  0  0  0  0  0  0  0
    0.7807   -0.3228    0.9189 C   0  0  0  0  0  0  0  0  0  0  0  0
    1.9966   -0.3053    1.0532 O   0  0  0  0  0  0  0  0  0  0  0  0
   -0.0139    0.1518    1.9471 N   0  0  0  0  0  0  0  0  0  0  0  0
   -1.0150    0.0399    1.8284 H   0  0  0  0  0  0  0  0  0  0  0  0
    0.5079    0.4334    3.2790 C   0  0  0  0  0  0  0  0  0  0  0  0
    1.2828    1.2059    3.2318 H   0  0  0  0  0  0  0  0  0  0  0  0
   -0.2937    0.7903    3.9326 H   0  0  0  0  0  0  0  0  0  0  0  0
    0.9395   -0.4714    3.7203 H   0  0  0  0  0  0  0  0  0  0  0  0
  1  2  1  0  0  0  0
  2  3  1  0  0  0  0
  2  4  1  0  0  0  0
  2  5  1  0  0  0  0
  5  6  2  0  0  0  0
  5  7  1  0  0  0  0
  7  8  1  0  0  0  0
  7  9  1  0  0  0  0
  9 10  1  0  0  0  0
  9 11  1  0  0  0  0
  9 21  1  0  0  0  0
 11 12  1  0  0  0  0
 11 13  1  0  0  0  0
 11 14  1  0  0  0  0
 14 15  1  0  0  0  0
 14 16  1  0  0  0  0
 14 17  1  0  0  0  0
 17 18  2  0  0  0  0
 17 19  1  0  0  0  0
 19 20  1  0  0  0  0
 21 22  2  0  0  0  0
 21 23  1  0  0  0  0
 23 24  1  0  0  0  0
 23 25  1  0  0  0  0
 25 26  1  0  0  0  0
 25 27  1  0  0  0  0
 25 28  1  0  0  0  0
M  END
$$$$

  -OEChem-03222214033D

 28 27  0     1  0  0  0  0  0999 V2000
   -2.7357   -4.1480    0.4023 H   0  0  0  0  0  0  0  0  0  0  0  0
   -2.7417   -3.1707   -0.0889 C   0  0  0  0  0  0  0  0  0  0  0  0
   -3.4970   -2.5425    0.3892 H   0  0  0  0  0  0  0  0  0  0  0  0
   -3.0026   -3.3091   -1.1409 H   0  0  0  0  0  0  0  0  0  0  0  0
   -1.3750   -2.5222    0.0262 C   0  0  0  0  0  0  0  0  0  0  0  0
   -0.4686   -3.1111    0.5852 O   0  0  0  0  0  0  0  0  0  0  0  0
   -1.1683   -1.2580   -0.4901 N   0  0  0  0  0  0  0  0  0  0  0  0
   -1.9471   -0.8307   -0.9810 H   0  0  0  0  0  0  0  0  0  0  0  0
    0.1424   -0.5758   -0.5146 C   0  0  1  0  0  0  0  0  0  0  0  0
    0.8336   -1.2258   -1.0642 H   0  0  0  0  0  0  0  0  0  0  0  0
    0.0648    0.7627   -1.2776 C   0  0  0  0  0  0  0  0  0  0  0  0
   -0.4294    1.5030   -0.6395 H   0  0  0  0  0  0  0  0  0  0  0  0
    1.0874    1.1235   -1.4426 H   0  0  0  0  0  0  0  0  0  0  0  0
   -0.7008    0.7002   -2.6216 C   0  0  0  0  0  0  0  0  0  0  0  0
   -1.0676   -0.3066   -2.8307 H   0  0  0  0  0  0  0  0  0  0  0  0
   -1.5639    1.3712   -2.5874 H   0  0  0  0  0  0  0  0  0  0  0  0
    0.1945    1.0984   -3.7887 C   0  0  0  0  0  0  0  0  0  0  0  0
    0.0425    2.1987   -4.2859 O   0  0  0  0  0  0  0  0  0  0  0  0
    1.1111    0.2061   -4.2191 O   0  0  0  0  0  0  0  0  0  0  0  0
    1.5805    0.6505   -4.9421 H   0  0  0  0  0  0  0  0  0  0  0  0
    0.7829   -0.3474    0.8736 C   0  0  0  0  0  0  0  0  0  0  0  0
    2.0015   -0.3335    0.9815 O   0  0  0  0  0  0  0  0  0  0  0  0
    0.0138    0.1284    1.9206 N   0  0  0  0  0  0  0  0  0  0  0  0
   -0.9894    0.0120    1.8259 H   0  0  0  0  0  0  0  0  0  0  0  0
    0.5657    0.3921    3.2440 C   0  0  0  0  0  0  0  0  0  0  0  0
    1.3574    1.1466    3.1867 H   0  0  0  0  0  0  0  0  0  0  0  0
   -0.2156    0.7645    3.9135 H   0  0  0  0  0  0  0  0  0  0  0  0
    0.9841   -0.5244    3.6733 H   0  0  0  0  0  0  0  0  0  0  0  0
  1  2  1  0  0  0  0
  2  3  1  0  0  0  0
  2  4  1  0  0  0  0
  2  5  1  0  0  0  0
  5  6  2  0  0  0  0
  5  7  1  0  0  0  0
  7  8  1  0  0  0  0
  7  9  1  0  0  0  0
  9 10  1  0  0  0  0
  9 11  1  0  0  0  0
  9 21  1  0  0  0  0
 11 12  1  0  0  0  0
 11 13  1  0  0  0  0
 11 14  1  0  0  0  0
 14 15  1  0  0  0  0
 14 16  1  0  0  0  0
 14 17  1  0  0  0  0
 17 18  2  0  0  0  0
 17 19  1  0  0  0  0
 19 20  1  0  0  0  0
 21 22  2  0  0  0  0
 21 23  1  0  0  0  0
 23 24  1  0  0  0  0
 23 25  1  0  0  0  0
 25 26  1  0  0  0  0
 25 27  1  0  0  0  0
 25 28  1  0  0  0  0
M  END
$$$$

  -OEChem-03222214033D

 28 27  0     1  0  0  0  0  0999 V2000
   -2.6465   -4.1937    0.3846 H   0  0  0  0  0  0  0  0  0  0  0  0
   -2.6529   -3.2053   -0.0839 C   0  0  0  0  0  0  0  0  0  0  0  0
   -3.4243   -2.5960    0.3927 H   0  0  0  0  0  0  0  0  0  0  0  0
   -2.8911   -3.3216   -1.1439 H   0  0  0  0  0  0  0  0  0  0  0  0
   -1.2963   -2.5453    0.0742 C   0  0  0  0  0  0  0  0  0  0  0  0
   -0.4125   -3.1139    0.6874 O   0  0  0  0  0  0  0  0  0  0  0  0
   -1.0746   -1.2945   -0.4683 N   0  0  0  0  0  0  0  0  0  0  0  0
   -1.8375   -0.8821   -0.9950 H   0  0  0  0  0  0  0  0  0  0  0  0
    0.2262   -0.5933   -0.4388 C   0  0  1  0  0  0  0  0  0  0  0  0
    0.9595   -1.2489   -0.9231 H   0  0  0  0  0  0  0  0  0  0  0  0
    0.1861    0.7237   -1.2451 C   0  0  0  0  0  0  0  0  0  0  0  0
   -0.3811    1.4519   -0.6558 H   0  0  0  0  0  0  0  0  0  0  0  0
    1.2028    1.1245   -1.3244 H   0  0  0  0  0  0  0  0  0  0  0  0
   -0.4968    0.6280   -2.6405 C   0  0  0  0  0  0  0  0  0  0  0  0
   -1.1248   -0.2595   -2.7224 H   0  0  0  0  0  0  0  0  0  0  0  0
   -1.1505    1.4960   -2.7594 H   0  0  0  0  0  0  0  0  0  0  0  0
    0.4457    0.6276   -3.8474 C   0  0  0  0  0  0  0  0  0  0  0  0
    1.6347    0.8487   -3.7147 O   0  0  0  0  0  0  0  0  0  0  0  0
   -0.1233    0.3713   -5.0437 O   0  0  0  0  0  0  0  0  0  0  0  0
    0.6093    0.4070   -5.6788 H   0  0  0  0  0  0  0  0  0  0  0  0
    0.7710   -0.3183    0.9824 C   0  0  0  0  0  0  0  0  0  0  0  0
    1.9777   -0.3032    1.1814 O   0  0  0  0  0  0  0  0  0  0  0  0
   -0.0740    0.1739    1.9613 N   0  0  0  0  0  0  0  0  0  0  0  0
   -1.0669    0.0508    1.7960 H   0  0  0  0  0  0  0  0  0  0  0  0
    0.3792    0.4678    3.3155 C   0  0  0  0  0  0  0  0  0  0  0  0
    1.1731    1.2220    3.2995 H   0  0  0  0  0  0  0  0  0  0  0  0
   -0.4491    0.8541    3.9168 H   0  0  0  0  0  0  0  0  0  0  0  0
    0.7645   -0.4385    3.7946 H   0  0  0  0  0  0  0  0  0  0  0  0
  1  2  1  0  0  0  0
  2  3  1  0  0  0  0
  2  4  1  0  0  0  0
  2  5  1  0  0  0  0
  5  6  2  0  0  0  0
  5  7  1  0  0  0  0
  7  8  1  0  0  0  0
  7  9  1  0  0  0  0
  9 10  1  0  0  0  0
  9 11  1  0  0  0  0
  9 21  1  0  0  0  0
 11 12  1  0  0  0  0
 11 13  1  0  0  0  0
 11 14  1  0  0  0  0
 14 15  1  0  0  0  0
 14 16  1  0  0  0  0
 14 17  1  0  0  0  0
 17 18  2  0  0  0  0
 17 19  1  0  0  0  0
 19 20  1  0  0  0  0
 21 22  2  0  0  0  0
 21 23  1  0  0  0  0
 23 24  1  0  0  0  0
 23 25  1  0  0  0  0
 25 26  1  0  0  0  0
 25 27  1  0  0  0  0
 25 28  1  0  0  0  0
M  END
$$$$

  -OEChem-03222214033D

 28 27  0     1  0  0  0  0  0999 V2000
   -2.5861   -4.2724    0.5631 H   0  0  0  0  0  0  0  0  0  0  0  0
   -2.6105   -3.3431   -0.0134 C   0  0  0  0  0  0  0  0  0  0  0  0
   -3.4643   -2.7467    0.3169 H   0  0  0  0  0  0  0  0  0  0  0  0
   -2.7323   -3.5898   -1.0710 H   0  0  0  0  0  0  0  0  0  0  0  0
   -1.3225   -2.5685    0.1920 C   0  0  0  0  0  0  0  0  0  0  0  0
   -0.4440   -3.0286    0.8978 O   0  0  0  0  0  0  0  0  0  0  0  0
   -1.1608   -1.3373   -0.4133 N   0  0  0  0  0  0  0  0  0  0  0  0
   -1.8887   -1.0702   -1.0671 H   0  0  0  0  0  0  0  0  0  0  0  0
    0.1292   -0.6200   -0.4812 C   0  0  1  0  0  0  0  0  0  0  0  0
    0.8395   -1.2904   -0.9793 H   0  0  0  0  0  0  0  0  0  0  0  0
    0.0378    0.6672   -1.3304 C   0  0  0  0  0  0  0  0  0  0  0  0
   -0.4962    1.4174   -0.7377 H   0  0  0  0  0  0  0  0  0  0  0  0
    1.0467    1.0605   -1.5029 H   0  0  0  0  0  0  0  0  0  0  0  0
   -0.7101    0.5188   -2.6747 C   0  0  0  0  0  0  0  0  0  0  0  0
   -1.5372   -0.1905   -2.6241 H   0  0  0  0  0  0  0  0  0  0  0  0
   -1.1367    1.4891   -2.9430 H   0  0  0  0  0  0  0  0  0  0  0  0
    0.2382    0.1237   -3.7992 C   0  0  0  0  0  0  0  0  0  0  0  0
    0.1603   -1.0094   -4.2365 O   0  0  0  0  0  0  0  0  0  0  0  0
    1.1096    1.0443   -4.2630 O   0  0  0  0  0  0  0  0  0  0  0  0
    1.6189    0.5879   -4.9509 H   0  0  0  0  0  0  0  0  0  0  0  0
    0.7564   -0.2765    0.8899 C   0  0  0  0  0  0  0  0  0  0  0  0
    1.9737   -0.2033    0.9931 O   0  0  0  0  0  0  0  0  0  0  0  0
   -0.0331    0.2475    1.8979 N   0  0  0  0  0  0  0  0  0  0  0  0
   -1.0274    0.0612    1.8180 H   0  0  0  0  0  0  0  0  0  0  0  0
    0.5051    0.6082    3.2040 C   0  0  0  0  0  0  0  0  0  0  0  0
    1.2703    1.3852    3.1030 H   0  0  0  0  0  0  0  0  0  0  0  0
   -0.2911    0.9920    3.8490 H   0  0  0  0  0  0  0  0  0  0  0  0
    0.9535   -0.2666    3.6871 H   0  0  0  0  0  0  0  0  0  0  0  0
  1  2  1  0  0  0  0
  2  3  1  0  0  0  0
  2  4  1  0  0  0  0
  2  5  1  0  0  0  0
  5  6  2  0  0  0  0
  5  7  1  0  0  0  0
  7  8  1  0  0  0  0
  7  9  1  0  0  0  0
  9 10  1  0  0  0  0
  9 11  1  0  0  0  0
  9 21  1  0  0  0  0
 11 12  1  0  0  0  0
 11 13  1  0  0  0  0
 11 14  1  0  0  0  0
 14 15  1  0  0  0  0
 14 16  1  0  0  0  0
 14 17  1  0  0  0  0
 17 18  2  0  0  0  0
 17 19  1  0  0  0  0
 19 20  1  0  0  0  0
 21 22  2  0  0  0  0
 21 23  1  0  0  0  0
 23 24  1  0  0  0  0
 23 25  1  0  0  0  0
 25 26  1  0  0  0  0
 25 27  1  0  0  0  0
 25 28  1  0  0  0  0
M  END
$$$$

  -OEChem-03222214033D

 28 27  0     1  0  0  0  0  0999 V2000
   -2.7635   -4.1257    0.2609 H   0  0  0  0  0  0  0  0  0  0  0  0
   -2.7115   -3.1711   -0.2705 C   0  0  0  0  0  0  0  0  0  0  0  0
   -3.5441   -2.5427    0.0544 H   0  0  0  0  0  0  0  0  0  0  0  0
   -2.8018   -3.3609   -1.3428 H   0  0  0  0  0  0  0  0  0  0  0  0
   -1.3928   -2.4815    0.0240 C   0  0  0  0  0  0  0  0  0  0  0  0
   -0.5630   -3.0328    0.7233 O   0  0  0  0  0  0  0  0  0  0  0  0
   -1.1499   -1.2244   -0.4938 N   0  0  0  0  0  0  0  0  0  0  0  0
   -1.8312   -0.8915   -1.1670 H   0  0  0  0  0  0  0  0  0  0  0  0
    0.1760   -0.5734   -0.4751 C   0  0  1  0  0  0  0  0  0  0  0  0
    0.8696   -1.2431   -0.9968 H   0  0  0  0  0  0  0  0  0  0  0  0
    0.1638    0.7729   -1.2333 C   0  0  0  0  0  0  0  0  0  0  0  0
   -0.3406    1.5138   -0.6040 H   0  0  0  0  0  0  0  0  0  0  0  0
    1.1960    1.1176   -1.3695 H   0  0  0  0  0  0  0  0  0  0  0  0
   -0.5557    0.7475   -2.5984 C   0  0  0  0  0  0  0  0  0  0  0  0
   -1.5394    0.2799   -2.5386 H   0  0  0  0  0  0  0  0  0  0  0  0
   -0.7131    1.7783   -2.9293 H   0  0  0  0  0  0  0  0  0  0  0  0
    0.2830    0.0438   -3.6568 C   0  0  0  0  0  0  0  0  0  0  0  0
    1.0783    0.6978   -4.3044 O   0  0  0  0  0  0  0  0  0  0  0  0
    0.0991   -1.2836   -3.8218 O   0  0  0  0  0  0  0  0  0  0  0  0
    0.7354   -1.5404   -4.5085 H   0  0  0  0  0  0  0  0  0  0  0  0
    0.7738   -0.3520    0.9333 C   0  0  0  0  0  0  0  0  0  0  0  0
    1.9887   -0.3580    1.0794 O   0  0  0  0  0  0  0  0  0  0  0  0
   -0.0208    0.1475    1.9495 N   0  0  0  0  0  0  0  0  0  0  0  0
   -1.0205    0.0257    1.8256 H   0  0  0  0  0  0  0  0  0  0  0  0
    0.4905    0.3989    3.2913 C   0  0  0  0  0  0  0  0  0  0  0  0
    1.3126    1.1218    3.2600 H   0  0  0  0  0  0  0  0  0  0  0  0
   -0.3003    0.8066    3.9281 H   0  0  0  0  0  0  0  0  0  0  0  0
    0.8557   -0.5304    3.7411 H   0  0  0  0  0  0  0  0  0  0  0  0
  1  2  1  0  0  0  0
  2  3  1  0  0  0  0
  2  4  1  0  0  0  0
  2  5  1  0  0  0  0
  5  6  2  0  0  0  0
  5  7  1  0  0  0  0
  7  8  1  0  0  0  0
  7  9  1  0  0  0  0
  9 10  1  0  0  0  0
  9 11  1  0  0  0  0
  9 21  1  0  0  0  0
 11 12  1  0  0  0  0
 11 13  1  0  0  0  0
 11 14  1  0  0  0  0
 14 15  1  0  0  0  0
 14 16  1  0  0  0  0
 14 17  1  0  0  0  0
 17 18  2  0  0  0  0
 17 19  1  0  0  0  0
 19 20  1  0  0  0  0
 21 22  2  0  0  0  0
 21 23  1  0  0  0  0
 23 24  1  0  0  0  0
 23 25  1  0  0  0  0
 25 26  1  0  0  0  0
 25 27  1  0  0  0  0
 25 28  1  0  0  0  0
M  END
$$$$

  -OEChem-03222214033D

 28 27  0     1  0  0  0  0  0999 V2000
   -2.7159   -4.1607    0.1488 H   0  0  0  0  0  0  0  0  0  0  0  0
   -2.6766   -3.1807   -0.3356 C   0  0  0  0  0  0  0  0  0  0  0  0
   -3.5432   -2.5965   -0.0173 H   0  0  0  0  0  0  0  0  0  0  0  0
   -2.7174   -3.3225   -1.4185 H   0  0  0  0  0  0  0  0  0  0  0  0
   -1.3964   -2.4614    0.0447 C   0  0  0  0  0  0  0  0  0  0  0  0
   -0.6141   -2.9836    0.8176 O   0  0  0  0  0  0  0  0  0  0  0  0
   -1.1331   -1.2153   -0.4892 N   0  0  0  0  0  0  0  0  0  0  0  0
   -1.7470   -0.9480   -1.2521 H   0  0  0  0  0  0  0  0  0  0  0  0
    0.2014   -0.5832   -0.4506 C   0  0  1  0  0  0  0  0  0  0  0  0
    0.9005   -1.2628   -0.9516 H   0  0  0  0  0  0  0  0  0  0  0  0
    0.1999    0.7582   -1.2175 C   0  0  0  0  0  0  0  0  0  0  0  0
   -0.2910    1.5190   -0.6009 H   0  0  0  0  0  0  0  0  0  0  0  0
    1.2389    1.0786   -1.3608 H   0  0  0  0  0  0  0  0  0  0  0  0
   -0.5096    0.7183   -2.5866 C   0  0  0  0  0  0  0  0  0  0  0  0
   -1.5702    0.4862   -2.4704 H   0  0  0  0  0  0  0  0  0  0  0  0
   -0.4481    1.7089   -3.0465 H   0  0  0  0  0  0  0  0  0  0  0  0
    0.1261   -0.2854   -3.5393 C   0  0  0  0  0  0  0  0  0  0  0  0
    1.1151    0.0430   -4.1655 O   0  0  0  0  0  0  0  0  0  0  0  0
   -0.4453   -1.5063   -3.6331 O   0  0  0  0  0  0  0  0  0  0  0  0
    0.1133   -1.9914   -4.2623 H   0  0  0  0  0  0  0  0  0  0  0  0
    0.7740   -0.3476    0.9663 C   0  0  0  0  0  0  0  0  0  0  0  0
    1.9855   -0.3694    1.1368 O   0  0  0  0  0  0  0  0  0  0  0  0
   -0.0331    0.1792    1.9583 N   0  0  0  0  0  0  0  0  0  0  0  0
   -1.0315    0.0635    1.8178 H   0  0  0  0  0  0  0  0  0  0  0  0
    0.4556    0.4380    3.3070 C   0  0  0  0  0  0  0  0  0  0  0  0
    1.2650    1.1753    3.2869 H   0  0  0  0  0  0  0  0  0  0  0  0
   -0.3510    0.8299    3.9337 H   0  0  0  0  0  0  0  0  0  0  0  0
    0.8323   -0.4850    3.7605 H   0  0  0  0  0  0  0  0  0  0  0  0
  1  2  1  0  0  0  0
  2  3  1  0  0  0  0
  2  4  1  0  0  0  0
  2  5  1  0  0  0  0
  5  6  2  0  0  0  0
  5  7  1  0  0  0  0
  7  8  1  0  0  0  0
  7  9  1  0  0  0  0
  9 10  1  0  0  0  0
  9 11  1  0  0  0  0
  9 21  1  0  0  0  0
 11 12  1  0  0  0  0
 11 13  1  0  0  0  0
 11 14  1  0  0  0  0
 14 15  1  0  0  0  0
 14 16  1  0  0  0  0
 14 17  1  0  0  0  0
 17 18  2  0  0  0  0
 17 19  1  0  0  0  0
 19 20  1  0  0  0  0
 21 22  2  0  0  0  0
 21 23  1  0  0  0  0
 23 24  1  0  0  0  0
 23 25  1  0  0  0  0
 25 26  1  0  0  0  0
 25 27  1  0  0  0  0
 25 28  1  0  0  0  0
M  END
$$$$

  -OEChem-03222214033D

 28 27  0     1  0  0  0  0  0999 V2000
   -2.6855   -4.1863    0.1233 H   0  0  0  0  0  0  0  0  0  0  0  0
   -2.6590   -3.1912   -0.3300 C   0  0  0  0  0  0  0  0  0  0  0  0
   -3.5320   -2.6272    0.0067 H   0  0  0  0  0  0  0  0  0  0  0  0
   -2.6997   -3.2994   -1.4166 H   0  0  0  0  0  0  0  0  0  0  0  0
   -1.3879   -2.4677    0.0717 C   0  0  0  0  0  0  0  0  0  0  0  0
   -0.6291   -2.9760    0.8764 O   0  0  0  0  0  0  0  0  0  0  0  0
   -1.1057   -1.2348   -0.4820 N   0  0  0  0  0  0  0  0  0  0  0  0
   -1.6875   -0.9989   -1.2818 H   0  0  0  0  0  0  0  0  0  0  0  0
    0.2320   -0.6096   -0.4280 C   0  0  1  0  0  0  0  0  0  0  0  0
    0.9415   -1.2960   -0.9047 H   0  0  0  0  0  0  0  0  0  0  0  0
    0.2363    0.7213   -1.2127 C   0  0  0  0  0  0  0  0  0  0  0  0
   -0.2446    1.5000   -0.6109 H   0  0  0  0  0  0  0  0  0  0  0  0
    1.2813    1.0214   -1.3543 H   0  0  0  0  0  0  0  0  0  0  0  0
   -0.4537    0.6792   -2.5936 C   0  0  0  0  0  0  0  0  0  0  0  0
   -1.5383    0.6910   -2.4612 H   0  0  0  0  0  0  0  0  0  0  0  0
   -0.1876    1.5786   -3.1564 H   0  0  0  0  0  0  0  0  0  0  0  0
   -0.0831   -0.5410   -3.4286 C   0  0  0  0  0  0  0  0  0  0  0  0
    0.9901   -0.5569   -3.9985 O   0  0  0  0  0  0  0  0  0  0  0  0
   -0.9716   -1.5588   -3.4838 O   0  0  0  0  0  0  0  0  0  0  0  0
   -0.5451   -2.2204   -4.0537 H   0  0  0  0  0  0  0  0  0  0  0  0
    0.7741   -0.3493    0.9967 C   0  0  0  0  0  0  0  0  0  0  0  0
    1.9814   -0.3702    1.1957 O   0  0  0  0  0  0  0  0  0  0  0  0
   -0.0543    0.2018    1.9575 N   0  0  0  0  0  0  0  0  0  0  0  0
   -1.0491    0.0813    1.7960 H   0  0  0  0  0  0  0  0  0  0  0  0
    0.4014    0.4858    3.3125 C   0  0  0  0  0  0  0  0  0  0  0  0
    1.2185    1.2149    3.2976 H   0  0  0  0  0  0  0  0  0  0  0  0
   -0.4175    0.8995    3.9086 H   0  0  0  0  0  0  0  0  0  0  0  0
    0.7562   -0.4304    3.7965 H   0  0  0  0  0  0  0  0  0  0  0  0
  1  2  1  0  0  0  0
  2  3  1  0  0  0  0
  2  4  1  0  0  0  0
  2  5  1  0  0  0  0
  5  6  2  0  0  0  0
  5  7  1  0  0  0  0
  7  8  1  0  0  0  0
  7  9  1  0  0  0  0
  9 10  1  0  0  0  0
  9 11  1  0  0  0  0
  9 21  1  0  0  0  0
 11 12  1  0  0  0  0
 11 13  1  0  0  0  0
 11 14  1  0  0  0  0
 14 15  1  0  0  0  0
 14 16  1  0  0  0  0
 14 17  1  0  0  0  0
 17 18  2  0  0  0  0
 17 19  1  0  0  0  0
 19 20  1  0  0  0  0
 21 22  2  0  0  0  0
 21 23  1  0  0  0  0
 23 24  1  0  0  0  0
 23 25  1  0  0  0  0
 25 26  1  0  0  0  0
 25 27  1  0  0  0  0
 25 28  1  0  0  0  0
M  END
$$$$

  -OEChem-03222214033D

 28 27  0     1  0  0  0  0  0999 V2000
   -2.6820   -4.2050    0.2105 H   0  0  0  0  0  0  0  0  0  0  0  0
   -2.6503   -3.2207   -0.2656 C   0  0  0  0  0  0  0  0  0  0  0  0
   -3.5153   -2.6410    0.0650 H   0  0  0  0  0  0  0  0  0  0  0  0
   -2.7012   -3.3532   -1.3490 H   0  0  0  0  0  0  0  0  0  0  0  0
   -1.3698   -2.4998    0.1104 C   0  0  0  0  0  0  0  0  0  0  0  0
   -0.6091   -2.9979    0.9196 O   0  0  0  0  0  0  0  0  0  0  0  0
   -1.0858   -1.2763   -0.4630 N   0  0  0  0  0  0  0  0  0  0  0  0
   -1.6784   -1.0388   -1.2565 H   0  0  0  0  0  0  0  0  0  0  0  0
    0.2461   -0.6384   -0.4052 C   0  0  1  0  0  0  0  0  0  0  0  0
    0.9660   -1.3301   -0.8587 H   0  0  0  0  0  0  0  0  0  0  0  0
    0.2586    0.6761   -1.2192 C   0  0  0  0  0  0  0  0  0  0  0  0
   -0.2229    1.4678   -0.6353 H   0  0  0  0  0  0  0  0  0  0  0  0
    1.3086    0.9651   -1.3442 H   0  0  0  0  0  0  0  0  0  0  0  0
   -0.3968    0.6450   -2.6214 C   0  0  0  0  0  0  0  0  0  0  0  0
   -1.4512    0.9154   -2.5207 H   0  0  0  0  0  0  0  0  0  0  0  0
    0.0708    1.4046   -3.2546 H   0  0  0  0  0  0  0  0  0  0  0  0
   -0.3349   -0.6971   -3.3443 C   0  0  0  0  0  0  0  0  0  0  0  0
    0.7067   -1.0212   -3.8792 O   0  0  0  0  0  0  0  0  0  0  0  0
   -1.4456   -1.4694   -3.3512 O   0  0  0  0  0  0  0  0  0  0  0  0
   -1.1933   -2.2446   -3.8808 H   0  0  0  0  0  0  0  0  0  0  0  0
    0.7655   -0.3458    1.0219 C   0  0  0  0  0  0  0  0  0  0  0  0
    1.9699   -0.3512    1.2389 O   0  0  0  0  0  0  0  0  0  0  0  0
   -0.0814    0.2165    1.9598 N   0  0  0  0  0  0  0  0  0  0  0  0
   -1.0727    0.0861    1.7854 H   0  0  0  0  0  0  0  0  0  0  0  0
    0.3514    0.5280    3.3163 C   0  0  0  0  0  0  0  0  0  0  0  0
    1.1725    1.2525    3.3009 H   0  0  0  0  0  0  0  0  0  0  0  0
   -0.4761    0.9584    3.8879 H   0  0  0  0  0  0  0  0  0  0  0  0
    0.6923   -0.3793    3.8262 H   0  0  0  0  0  0  0  0  0  0  0  0
  1  2  1  0  0  0  0
  2  3  1  0  0  0  0
  2  4  1  0  0  0  0
  2  5  1  0  0  0  0
  5  6  2  0  0  0  0
  5  7  1  0  0  0  0
  7  8  1  0  0  0  0
  7  9  1  0  0  0  0
  9 10  1  0  0  0  0
  9 11  1  0  0  0  0
  9 21  1  0  0  0  0
 11 12  1  0  0  0  0
 11 13  1  0  0  0  0
 11 14  1  0  0  0  0
 14 15  1  0  0  0  0
 14 16  1  0  0  0  0
 14 17  1  0  0  0  0
 17 18  2  0  0  0  0
 17 19  1  0  0  0  0
 19 20  1  0  0  0  0
 21 22  2  0  0  0  0
 21 23  1  0  0  0  0
 23 24  1  0  0  0  0
 23 25  1  0  0  0  0
 25 26  1  0  0  0  0
 25 27  1  0  0  0  0
 25 28  1  0  0  0  0
M  END
$$$$

  -OEChem-03222214033D

 28 27  0     1  0  0  0  0  0999 V2000
   -2.7088   -4.1999    0.3940 H   0  0  0  0  0  0  0  0  0  0  0  0
   -2.6420   -3.2665   -0.1723 C   0  0  0  0  0  0  0  0  0  0  0  0
   -3.4978   -2.6373    0.0836 H   0  0  0  0  0  0  0  0  0  0  0  0
   -2.6754   -3.4997   -1.2390 H   0  0  0  0  0  0  0  0  0  0  0  0
   -1.3494   -2.5457    0.1600 C   0  0  0  0  0  0  0  0  0  0  0  0
   -0.5657   -3.0387    0.9501 O   0  0  0  0  0  0  0  0  0  0  0  0
   -1.0772   -1.3285   -0.4318 N   0  0  0  0  0  0  0  0  0  0  0  0
   -1.7107   -1.0637   -1.1852 H   0  0  0  0  0  0  0  0  0  0  0  0
    0.2443   -0.6697   -0.3845 C   0  0  1  0  0  0  0  0  0  0  0  0
    0.9701   -1.3676   -0.8194 H   0  0  0  0  0  0  0  0  0  0  0  0
    0.2724    0.6267   -1.2289 C   0  0  0  0  0  0  0  0  0  0  0  0
   -0.2197    1.4233   -0.6608 H   0  0  0  0  0  0  0  0  0  0  0  0
    1.3255    0.9146   -1.3279 H   0  0  0  0  0  0  0  0  0  0  0  0
   -0.3462    0.6139   -2.6524 C   0  0  0  0  0  0  0  0  0  0  0  0
   -1.2971    1.1522   -2.6172 H   0  0  0  0  0  0  0  0  0  0  0  0
    0.3095    1.1717   -3.3274 H   0  0  0  0  0  0  0  0  0  0  0  0
   -0.6267   -0.7478   -3.2814 C   0  0  0  0  0  0  0  0  0  0  0  0
    0.2825   -1.3235   -3.8454 O   0  0  0  0  0  0  0  0  0  0  0  0
   -1.8798   -1.2503   -3.1921 O   0  0  0  0  0  0  0  0  0  0  0  0
   -1.8437   -2.0714   -3.7116 H   0  0  0  0  0  0  0  0  0  0  0  0
    0.7535   -0.3468    1.0396 C   0  0  0  0  0  0  0  0  0  0  0  0
    1.9572   -0.3228    1.2596 O   0  0  0  0  0  0  0  0  0  0  0  0
   -0.1068    0.2173    1.9643 N   0  0  0  0  0  0  0  0  0  0  0  0
   -1.0957    0.0744    1.7861 H   0  0  0  0  0  0  0  0  0  0  0  0
    0.3147    0.5720    3.3139 C   0  0  0  0  0  0  0  0  0  0  0  0
    1.1194    1.3142    3.2830 H   0  0  0  0  0  0  0  0  0  0  0  0
   -0.5240    0.9987    3.8722 H   0  0  0  0  0  0  0  0  0  0  0  0
    0.6737   -0.3143    3.8477 H   0  0  0  0  0  0  0  0  0  0  0  0
  1  2  1  0  0  0  0
  2  3  1  0  0  0  0
  2  4  1  0  0  0  0
  2  5  1  0  0  0  0
  5  6  2  0  0  0  0
  5  7  1  0  0  0  0
  7  8  1  0  0  0  0
  7  9  1  0  0  0  0
  9 10  1  0  0  0  0
  9 11  1  0  0  0  0
  9 21  1  0  0  0  0
 11 12  1  0  0  0  0
 11 13  1  0  0  0  0
 11 14  1  0  0  0  0
 14 15  1  0  0  0  0
 14 16  1  0  0  0  0
 14 17  1  0  0  0  0
 17 18  2  0  0  0  0
 17 19  1  0  0  0  0
 19 20  1  0  0  0  0
 21 22  2  0  0  0  0
 21 23  1  0  0  0  0
 23 24  1  0  0  0  0
 23 25  1  0  0  0  0
 25 26  1  0  0  0  0
 25 27  1  0  0  0  0
 25 28  1  0  0  0  0
M  END
$$$$

  -OEChem-03222214033D

 28 27  0     1  0  0  0  0  0999 V2000
   -2.6709   -4.2458    0.4784 H   0  0  0  0  0  0  0  0  0  0  0  0
   -2.6370   -3.3004   -0.0706 C   0  0  0  0  0  0  0  0  0  0  0  0
   -3.4745   -2.6764    0.2503 H   0  0  0  0  0  0  0  0  0  0  0  0
   -2.7347   -3.5110   -1.1382 H   0  0  0  0  0  0  0  0  0  0  0  0
   -1.3251   -2.5882    0.1987 C   0  0  0  0  0  0  0  0  0  0  0  0
   -0.5089   -3.0829    0.9544 O   0  0  0  0  0  0  0  0  0  0  0  0
   -1.0721   -1.3731   -0.4057 N   0  0  0  0  0  0  0  0  0  0  0  0
   -1.7617   -1.0620   -1.0891 H   0  0  0  0  0  0  0  0  0  0  0  0
    0.2338   -0.6861   -0.3727 C   0  0  1  0  0  0  0  0  0  0  0  0
    0.9680   -1.3848   -0.7910 H   0  0  0  0  0  0  0  0  0  0  0  0
    0.2685    0.5913   -1.2483 C   0  0  0  0  0  0  0  0  0  0  0  0
   -0.2561    1.3793   -0.6973 H   0  0  0  0  0  0  0  0  0  0  0  0
    1.3163    0.9055   -1.3193 H   0  0  0  0  0  0  0  0  0  0  0  0
   -0.3184    0.5777   -2.6890 C   0  0  0  0  0  0  0  0  0  0  0  0
   -1.0928    1.3470   -2.7517 H   0  0  0  0  0  0  0  0  0  0  0  0
    0.4753    0.8743   -3.3815 H   0  0  0  0  0  0  0  0  0  0  0  0
   -0.9249   -0.7161   -3.2240 C   0  0  0  0  0  0  0  0  0  0  0  0
   -0.2135   -1.4723   -3.8553 O   0  0  0  0  0  0  0  0  0  0  0  0
   -2.2363   -0.9560   -2.9918 O   0  0  0  0  0  0  0  0  0  0  0  0
   -2.4236   -1.7647   -3.4977 H   0  0  0  0  0  0  0  0  0  0  0  0
    0.7381   -0.3363    1.0467 C   0  0  0  0  0  0  0  0  0  0  0  0
    1.9415   -0.2835    1.2633 O   0  0  0  0  0  0  0  0  0  0  0  0
   -0.1308    0.2193    1.9685 N   0  0  0  0  0  0  0  0  0  0  0  0
   -1.1178    0.0591    1.7951 H   0  0  0  0  0  0  0  0  0  0  0  0
    0.2896    0.6008    3.3111 C   0  0  0  0  0  0  0  0  0  0  0  0
    1.0789    1.3586    3.2652 H   0  0  0  0  0  0  0  0  0  0  0  0
   -0.5544    1.0177    3.8689 H   0  0  0  0  0  0  0  0  0  0  0  0
    0.6697   -0.2711    3.8541 H   0  0  0  0  0  0  0  0  0  0  0  0
  1  2  1  0  0  0  0
  2  3  1  0  0  0  0
  2  4  1  0  0  0  0
  2  5  1  0  0  0  0
  5  6  2  0  0  0  0
  5  7  1  0  0  0  0
  7  8  1  0  0  0  0
  7  9  1  0  0  0  0
  9 10  1  0  0  0  0
  9 11  1  0  0  0  0
  9 21  1  0  0  0  0
 11 12  1  0  0  0  0
 11 13  1  0  0  0  0
 11 14  1  0  0  0  0
 14 15  1  0  0  0  0
 14 16  1  0  0  0  0
 14 17  1  0  0  0  0
 17 18  2  0  0  0  0
 17 19  1  0  0  0  0
 19 20  1  0  0  0  0
 21 22  2  0  0  0  0
 21 23  1  0  0  0  0
 23 24  1  0  0  0  0
 23 25  1  0  0  0  0
 25 26  1  0  0  0  0
 25 27  1  0  0  0  0
 25 28  1  0  0  0  0
M  END
$$$$

  -OEChem-03222214033D

 28 27  0     1  0  0  0  0  0999 V2000
   -2.6552   -4.2471    0.5989 H   0  0  0  0  0  0  0  0  0  0  0  0
   -2.6338   -3.3120    0.0317 C   0  0  0  0  0  0  0  0  0  0  0  0
   -3.4425   -2.6674    0.3844 H   0  0  0  0  0  0  0  0  0  0  0  0
   -2.7905   -3.5393   -1.0254 H   0  0  0  0  0  0  0  0  0  0  0  0
   -1.2973   -2.6198    0.2184 C   0  0  0  0  0  0  0  0  0  0  0  0
   -0.4409   -3.1281    0.9187 O   0  0  0  0  0  0  0  0  0  0  0  0
   -1.0676   -1.4036   -0.3925 N   0  0  0  0  0  0  0  0  0  0  0  0
   -1.8128   -1.0429   -0.9869 H   0  0  0  0  0  0  0  0  0  0  0  0
    0.2236   -0.6930   -0.3789 C   0  0  1  0  0  0  0  0  0  0  0  0
    0.9630   -1.3891   -0.7920 H   0  0  0  0  0  0  0  0  0  0  0  0
    0.2547    0.5722   -1.2743 C   0  0  0  0  0  0  0  0  0  0  0  0
   -0.3010    1.3465   -0.7345 H   0  0  0  0  0  0  0  0  0  0  0  0
    1.2936    0.9172   -1.3313 H   0  0  0  0  0  0  0  0  0  0  0  0
   -0.3221    0.5476   -2.7199 C   0  0  0  0  0  0  0  0  0  0  0  0
   -0.8689    1.4788   -2.8908 H   0  0  0  0  0  0  0  0  0  0  0  0
    0.5284    0.5523   -3.4090 H   0  0  0  0  0  0  0  0  0  0  0  0
   -1.2263   -0.6023   -3.1546 C   0  0  0  0  0  0  0  0  0  0  0  0
   -0.7698   -1.4586   -3.8864 O   0  0  0  0  0  0  0  0  0  0  0  0
   -2.5132   -0.6005   -2.7361 O   0  0  0  0  0  0  0  0  0  0  0  0
   -2.9250   -1.3335   -3.2243 H   0  0  0  0  0  0  0  0  0  0  0  0
    0.7326   -0.3290    1.0350 C   0  0  0  0  0  0  0  0  0  0  0  0
    1.9362   -0.2530    1.2427 O   0  0  0  0  0  0  0  0  0  0  0  0
   -0.1398    0.2130    1.9618 N   0  0  0  0  0  0  0  0  0  0  0  0
   -1.1258    0.0416    1.7938 H   0  0  0  0  0  0  0  0  0  0  0  0
    0.2824    0.6090    3.2997 C   0  0  0  0  0  0  0  0  0  0  0  0
    1.0561    1.3822    3.2451 H   0  0  0  0  0  0  0  0  0  0  0  0
   -0.5659    1.0120    3.8609 H   0  0  0  0  0  0  0  0  0  0  0  0
    0.6834   -0.2522    3.8448 H   0  0  0  0  0  0  0  0  0  0  0  0
  1  2  1  0  0  0  0
  2  3  1  0  0  0  0
  2  4  1  0  0  0  0
  2  5  1  0  0  0  0
  5  6  2  0  0  0  0
  5  7  1  0  0  0  0
  7  8  1  0  0  0  0
  7  9  1  0  0  0  0
  9 10  1  0  0  0  0
  9 11  1  0  0  0  0
  9 21  1  0  0  0  0
 11 12  1  0  0  0  0
 11 13  1  0  0  0  0
 11 14  1  0  0  0  0
 14 15  1  0  0  0  0
 14 16  1  0  0  0  0
 14 17  1  0  0  0  0
 17 18  2  0  0  0  0
 17 19  1  0  0  0  0
 19 20  1  0  0  0  0
 21 22  2  0  0  0  0
 21 23  1  0  0  0  0
 23 24  1  0  0  0  0
 23 25  1  0  0  0  0
 25 26  1  0  0  0  0
 25 27  1  0  0  0  0
 25 28  1  0  0  0  0
M  END
$$$$

  -OEChem-03222214033D

 28 27  0     1  0  0  0  0  0999 V2000
   -2.6443   -4.2447    0.6596 H   0  0  0  0  0  0  0  0  0  0  0  0
   -2.6409   -3.3039    0.1018 C   0  0  0  0  0  0  0  0  0  0  0  0
   -3.4185   -2.6519    0.5064 H   0  0  0  0  0  0  0  0  0  0  0  0
   -2.8606   -3.5171   -0.9473 H   0  0  0  0  0  0  0  0  0  0  0  0
   -1.2858   -2.6330    0.2191 C   0  0  0  0  0  0  0  0  0  0  0  0
   -0.3969   -3.1605    0.8623 O   0  0  0  0  0  0  0  0  0  0  0  0
   -1.0724   -1.4149   -0.3932 N   0  0  0  0  0  0  0  0  0  0  0  0
   -1.8593   -1.0074   -0.8957 H   0  0  0  0  0  0  0  0  0  0  0  0
    0.2117   -0.6942   -0.4006 C   0  0  1  0  0  0  0  0  0  0  0  0
    0.9484   -1.3885   -0.8214 H   0  0  0  0  0  0  0  0  0  0  0  0
    0.2314    0.5667   -1.3029 C   0  0  0  0  0  0  0  0  0  0  0  0
   -0.3286    1.3389   -0.7643 H   0  0  0  0  0  0  0  0  0  0  0  0
    1.2668    0.9197   -1.3719 H   0  0  0  0  0  0  0  0  0  0  0  0
   -0.3600    0.5248   -2.7408 C   0  0  0  0  0  0  0  0  0  0  0  0
   -0.6713    1.5359   -3.0159 H   0  0  0  0  0  0  0  0  0  0  0  0
    0.4573    0.2492   -3.4148 H   0  0  0  0  0  0  0  0  0  0  0  0
   -1.5193   -0.4169   -3.0571 C   0  0  0  0  0  0  0  0  0  0  0  0
   -1.3542   -1.2859   -3.8908 O   0  0  0  0  0  0  0  0  0  0  0  0
   -2.7015   -0.2156   -2.4297 O   0  0  0  0  0  0  0  0  0  0  0  0
   -3.3181   -0.8194   -2.8772 H   0  0  0  0  0  0  0  0  0  0  0  0
    0.7393   -0.3274    1.0055 C   0  0  0  0  0  0  0  0  0  0  0  0
    1.9454   -0.2471    1.1963 O   0  0  0  0  0  0  0  0  0  0  0  0
   -0.1219    0.2065    1.9473 N   0  0  0  0  0  0  0  0  0  0  0  0
   -1.1107    0.0442    1.7884 H   0  0  0  0  0  0  0  0  0  0  0  0
    0.3174    0.6042    3.2794 C   0  0  0  0  0  0  0  0  0  0  0  0
    1.0814    1.3862    3.2142 H   0  0  0  0  0  0  0  0  0  0  0  0
   -0.5265    0.9954    3.8555 H   0  0  0  0  0  0  0  0  0  0  0  0
    0.7369   -0.2538    3.8154 H   0  0  0  0  0  0  0  0  0  0  0  0
  1  2  1  0  0  0  0
  2  3  1  0  0  0  0
  2  4  1  0  0  0  0
  2  5  1  0  0  0  0
  5  6  2  0  0  0  0
  5  7  1  0  0  0  0
  7  8  1  0  0  0  0
  7  9  1  0  0  0  0
  9 10  1  0  0  0  0
  9 11  1  0  0  0  0
  9 21  1  0  0  0  0
 11 12  1  0  0  0  0
 11 13  1  0  0  0  0
 11 14  1  0  0  0  0
 14 15  1  0  0  0  0
 14 16  1  0  0  0  0
 14 17  1  0  0  0  0
 17 18  2  0  0  0  0
 17 19  1  0  0  0  0
 19 20  1  0  0  0  0
 21 22  2  0  0  0  0
 21 23  1  0  0  0  0
 23 24  1  0  0  0  0
 23 25  1  0  0  0  0
 25 26  1  0  0  0  0
 25 27  1  0  0  0  0
 25 28  1  0  0  0  0
M  END
$$$$

  -OEChem-03222214033D

 28 27  0     1  0  0  0  0  0999 V2000
   -2.2863   -4.5269    0.7117 H   0  0  0  0  0  0  0  0  0  0  0  0
   -2.4273   -3.5863    0.1719 C   0  0  0  0  0  0  0  0  0  0  0  0
   -3.3369   -3.1025    0.5356 H   0  0  0  0  0  0  0  0  0  0  0  0
   -2.5421   -3.8061   -0.8928 H   0  0  0  0  0  0  0  0  0  0  0  0
   -1.2337   -2.6756    0.3861 C   0  0  0  0  0  0  0  0  0  0  0  0
   -0.3593   -2.9929    1.1728 O   0  0  0  0  0  0  0  0  0  0  0  0
   -1.1581   -1.4860   -0.3110 N   0  0  0  0  0  0  0  0  0  0  0  0
   -1.8261   -1.4501   -1.0804 H   0  0  0  0  0  0  0  0  0  0  0  0
    0.1032   -0.7345   -0.4850 C   0  0  1  0  0  0  0  0  0  0  0  0
    0.8104   -1.4260   -0.9573 H   0  0  0  0  0  0  0  0  0  0  0  0
    0.0149    0.5226   -1.3993 C   0  0  0  0  0  0  0  0  0  0  0  0
   -0.4729    1.3079   -0.8116 H   0  0  0  0  0  0  0  0  0  0  0  0
    1.0372    0.8653   -1.5978 H   0  0  0  0  0  0  0  0  0  0  0  0
   -0.7351    0.4543   -2.7562 C   0  0  0  0  0  0  0  0  0  0  0  0
   -0.8519    1.4662   -3.1532 H   0  0  0  0  0  0  0  0  0  0  0  0
   -0.1014   -0.0917   -3.4627 H   0  0  0  0  0  0  0  0  0  0  0  0
   -2.0945   -0.2323   -2.7524 C   0  0  0  0  0  0  0  0  0  0  0  0
   -2.1398   -1.4199   -3.0222 O   0  0  0  0  0  0  0  0  0  0  0  0
   -3.1638    0.4986   -2.3444 O   0  0  0  0  0  0  0  0  0  0  0  0
   -2.8842    1.4081   -2.1729 H   0  0  0  0  0  0  0  0  0  0  0  0
    0.7602   -0.2879    0.8431 C   0  0  0  0  0  0  0  0  0  0  0  0
    1.9744   -0.1373    0.8879 O   0  0  0  0  0  0  0  0  0  0  0  0
   -0.0203    0.2699    1.8395 N   0  0  0  0  0  0  0  0  0  0  0  0
   -0.9974   -0.0070    1.8225 H   0  0  0  0  0  0  0  0  0  0  0  0
    0.5442    0.7306    3.1022 C   0  0  0  0  0  0  0  0  0  0  0  0
    1.2899    1.5135    2.9277 H   0  0  0  0  0  0  0  0  0  0  0  0
   -0.2429    1.1430    3.7406 H   0  0  0  0  0  0  0  0  0  0  0  0
    1.0232   -0.0997    3.6319 H   0  0  0  0  0  0  0  0  0  0  0  0
  1  2  1  0  0  0  0
  2  3  1  0  0  0  0
  2  4  1  0  0  0  0
  2  5  1  0  0  0  0
  5  6  2  0  0  0  0
  5  7  1  0  0  0  0
  7  8  1  0  0  0  0
  7  9  1  0  0  0  0
  9 10  1  0  0  0  0
  9 11  1  0  0  0  0
  9 21  1  0  0  0  0
 11 12  1  0  0  0  0
 11 13  1  0  0  0  0
 11 14  1  0  0  0  0
 14 15  1  0  0  0  0
 14 16  1  0  0  0  0
 14 17  1  0  0  0  0
 17 18  2  0  0  0  0
 17 19  1  0  0  0  0
 19 20  1  0  0  0  0
 21 22  2  0  0  0  0
 21 23  1  0  0  0  0
 23 24  1  0  0  0  0
 23 25  1  0  0  0  0
 25 26  1  0  0  0  0
 25 27  1  0  0  0  0
 25 28  1  0  0  0  0
M  END
$$$$

  -OEChem-03222214033D

 28 27  0     1  0  0  0  0  0999 V2000
   -2.5516   -4.2391    0.6200 H   0  0  0  0  0  0  0  0  0  0  0  0
   -2.6017   -3.2645    0.1262 C   0  0  0  0  0  0  0  0  0  0  0  0
   -3.2875   -2.6221    0.6837 H   0  0  0  0  0  0  0  0  0  0  0  0
   -2.9845   -3.4019   -0.8879 H   0  0  0  0  0  0  0  0  0  0  0  0
   -1.2235   -2.6338    0.0760 C   0  0  0  0  0  0  0  0  0  0  0  0
   -0.2555   -3.2452    0.4908 O   0  0  0  0  0  0  0  0  0  0  0  0
   -1.0735   -1.3621   -0.4363 N   0  0  0  0  0  0  0  0  0  0  0  0
   -1.9296   -0.8634   -0.6832 H   0  0  0  0  0  0  0  0  0  0  0  0
    0.1907   -0.6085   -0.4458 C   0  0  1  0  0  0  0  0  0  0  0  0
    0.9223   -1.2343   -0.9699 H   0  0  0  0  0  0  0  0  0  0  0  0
    0.1091    0.7318   -1.2192 C   0  0  0  0  0  0  0  0  0  0  0  0
   -0.4136    1.4570   -0.5859 H   0  0  0  0  0  0  0  0  0  0  0  0
    1.1314    1.1034   -1.3522 H   0  0  0  0  0  0  0  0  0  0  0  0
   -0.5912    0.7335   -2.6037 C   0  0  0  0  0  0  0  0  0  0  0  0
   -0.5203    1.7394   -3.0257 H   0  0  0  0  0  0  0  0  0  0  0  0
   -0.0301    0.0645   -3.2623 H   0  0  0  0  0  0  0  0  0  0  0  0
   -2.0602    0.3159   -2.6783 C   0  0  0  0  0  0  0  0  0  0  0  0
   -2.7836    0.4682   -1.7063 O   0  0  0  0  0  0  0  0  0  0  0  0
   -2.4951   -0.1981   -3.8478 O   0  0  0  0  0  0  0  0  0  0  0  0
   -3.4412   -0.3696   -3.7261 H   0  0  0  0  0  0  0  0  0  0  0  0
    0.7793   -0.3540    0.9596 C   0  0  0  0  0  0  0  0  0  0  0  0
    1.9922   -0.2838    1.1068 O   0  0  0  0  0  0  0  0  0  0  0  0
   -0.0457    0.0707    1.9855 N   0  0  0  0  0  0  0  0  0  0  0  0
   -1.0441   -0.0353    1.8377 H   0  0  0  0  0  0  0  0  0  0  0  0
    0.4433    0.3719    3.3250 C   0  0  0  0  0  0  0  0  0  0  0  0
    1.1880    1.1741    3.2907 H   0  0  0  0  0  0  0  0  0  0  0  0
   -0.3824    0.6960    3.9655 H   0  0  0  0  0  0  0  0  0  0  0  0
    0.9024   -0.5162    3.7721 H   0  0  0  0  0  0  0  0  0  0  0  0
  1  2  1  0  0  0  0
  2  3  1  0  0  0  0
  2  4  1  0  0  0  0
  2  5  1  0  0  0  0
  5  6  2  0  0  0  0
  5  7  1  0  0  0  0
  7  8  1  0  0  0  0
  7  9  1  0  0  0  0
  9 10  1  0  0  0  0
  9 11  1  0  0  0  0
  9 21  1  0  0  0  0
 11 12  1  0  0  0  0
 11 13  1  0  0  0  0
 11 14  1  0  0  0  0
 14 15  1  0  0  0  0
 14 16  1  0  0  0  0
 14 17  1  0  0  0  0
 17 18  2  0  0  0  0
 17 19  1  0  0  0  0
 19 20  1  0  0  0  0
 21 22  2  0  0  0  0
 21 23  1  0  0  0  0
 23 24  1  0  0  0  0
 23 25  1  0  0  0  0
 25 26  1  0  0  0  0
 25 27  1  0  0  0  0
 25 28  1  0  0  0  0
M  END
$$$$

  -OEChem-03222214033D

 28 27  0     1  0  0  0  0  0999 V2000
   -2.5859   -4.2147    0.5584 H   0  0  0  0  0  0  0  0  0  0  0  0
   -2.6217   -3.2269    0.0903 C   0  0  0  0  0  0  0  0  0  0  0  0
   -3.2982   -2.5894    0.6645 H   0  0  0  0  0  0  0  0  0  0  0  0
   -3.0064   -3.3327   -0.9268 H   0  0  0  0  0  0  0  0  0  0  0  0
   -1.2343   -2.6150    0.0564 C   0  0  0  0  0  0  0  0  0  0  0  0
   -0.2806   -3.2386    0.4864 O   0  0  0  0  0  0  0  0  0  0  0  0
   -1.0583   -1.3480   -0.4598 N   0  0  0  0  0  0  0  0  0  0  0  0
   -1.9040   -0.8334   -0.7105 H   0  0  0  0  0  0  0  0  0  0  0  0
    0.2139   -0.6076   -0.4345 C   0  0  1  0  0  0  0  0  0  0  0  0
    0.9560   -1.2378   -0.9382 H   0  0  0  0  0  0  0  0  0  0  0  0
    0.1392    0.7259   -1.2153 C   0  0  0  0  0  0  0  0  0  0  0  0
   -0.3809    1.4717   -0.6038 H   0  0  0  0  0  0  0  0  0  0  0  0
    1.1651    1.0860   -1.3517 H   0  0  0  0  0  0  0  0  0  0  0  0
   -0.5439    0.6654   -2.6047 C   0  0  0  0  0  0  0  0  0  0  0  0
   -0.2800    1.5738   -3.1528 H   0  0  0  0  0  0  0  0  0  0  0  0
   -0.1315   -0.1810   -3.1609 H   0  0  0  0  0  0  0  0  0  0  0  0
   -2.0709    0.5578   -2.6406 C   0  0  0  0  0  0  0  0  0  0  0  0
   -2.7197    0.6108   -1.6075 O   0  0  0  0  0  0  0  0  0  0  0  0
   -2.6356    0.4070   -3.8567 O   0  0  0  0  0  0  0  0  0  0  0  0
   -3.5923    0.3812   -3.7024 H   0  0  0  0  0  0  0  0  0  0  0  0
    0.7670   -0.3467    0.9837 C   0  0  0  0  0  0  0  0  0  0  0  0
    1.9762   -0.2938    1.1643 O   0  0  0  0  0  0  0  0  0  0  0  0
   -0.0799    0.0956    1.9840 N   0  0  0  0  0  0  0  0  0  0  0  0
   -1.0759    0.0210    1.8038 H   0  0  0  0  0  0  0  0  0  0  0  0
    0.3764    0.4086    3.3323 C   0  0  0  0  0  0  0  0  0  0  0  0
    1.1234    1.2090    3.3084 H   0  0  0  0  0  0  0  0  0  0  0  0
   -0.4641    0.7405    3.9491 H   0  0  0  0  0  0  0  0  0  0  0  0
    0.8229   -0.4757    3.7992 H   0  0  0  0  0  0  0  0  0  0  0  0
  1  2  1  0  0  0  0
  2  3  1  0  0  0  0
  2  4  1  0  0  0  0
  2  5  1  0  0  0  0
  5  6  2  0  0  0  0
  5  7  1  0  0  0  0
  7  8  1  0  0  0  0
  7  9  1  0  0  0  0
  9 10  1  0  0  0  0
  9 11  1  0  0  0  0
  9 21  1  0  0  0  0
 11 12  1  0  0  0  0
 11 13  1  0  0  0  0
 11 14  1  0  0  0  0
 14 15  1  0  0  0  0
 14 16  1  0  0  0  0
 14 17  1  0  0  0  0
 17 18  2  0  0  0  0
 17 19  1  0  0  0  0
 19 20  1  0  0  0  0
 21 22  2  0  0  0  0
 21 23  1  0  0  0  0
 23 24  1  0  0  0  0
 23 25  1  0  0  0  0
 25 26  1  0  0  0  0
 25 27  1  0  0  0  0
 25 28  1  0  0  0  0
M  END
$$$$

  -OEChem-03222214033D

 28 27  0     1  0  0  0  0  0999 V2000
   -2.5879   -4.2099    0.5330 H   0  0  0  0  0  0  0  0  0  0  0  0
   -2.6147   -3.2239    0.0605 C   0  0  0  0  0  0  0  0  0  0  0  0
   -3.3094   -2.5870    0.6134 H   0  0  0  0  0  0  0  0  0  0  0  0
   -2.9715   -3.3350   -0.9663 H   0  0  0  0  0  0  0  0  0  0  0  0
   -1.2294   -2.6062    0.0625 C   0  0  0  0  0  0  0  0  0  0  0  0
   -0.2872   -3.2184    0.5324 O   0  0  0  0  0  0  0  0  0  0  0  0
   -1.0414   -1.3471   -0.4674 N   0  0  0  0  0  0  0  0  0  0  0  0
   -1.8781   -0.8466   -0.7728 H   0  0  0  0  0  0  0  0  0  0  0  0
    0.2316   -0.6071   -0.4364 C   0  0  1  0  0  0  0  0  0  0  0  0
    0.9816   -1.2380   -0.9273 H   0  0  0  0  0  0  0  0  0  0  0  0
    0.1403    0.7136   -1.2333 C   0  0  0  0  0  0  0  0  0  0  0  0
   -0.3812    1.4707   -0.6369 H   0  0  0  0  0  0  0  0  0  0  0  0
    1.1633    1.0771   -1.3830 H   0  0  0  0  0  0  0  0  0  0  0  0
   -0.5454    0.5934   -2.6165 C   0  0  0  0  0  0  0  0  0  0  0  0
   -0.1123    1.3534   -3.2729 H   0  0  0  0  0  0  0  0  0  0  0  0
   -0.3212   -0.3807   -3.0600 H   0  0  0  0  0  0  0  0  0  0  0  0
   -2.0616    0.8077   -2.6341 C   0  0  0  0  0  0  0  0  0  0  0  0
   -2.7231    0.5929   -1.6306 O   0  0  0  0  0  0  0  0  0  0  0  0
   -2.6034    1.2257   -3.7971 O   0  0  0  0  0  0  0  0  0  0  0  0
   -3.5537    1.3154   -3.6263 H   0  0  0  0  0  0  0  0  0  0  0  0
    0.7694   -0.3259    0.9835 C   0  0  0  0  0  0  0  0  0  0  0  0
    1.9765   -0.2695    1.1767 O   0  0  0  0  0  0  0  0  0  0  0  0
   -0.0894    0.1315    1.9664 N   0  0  0  0  0  0  0  0  0  0  0  0
   -1.0825    0.0355    1.7795 H   0  0  0  0  0  0  0  0  0  0  0  0
    0.3493    0.4463    3.3200 C   0  0  0  0  0  0  0  0  0  0  0  0
    1.1147    1.2296    3.3036 H   0  0  0  0  0  0  0  0  0  0  0  0
   -0.4945    0.8028    3.9183 H   0  0  0  0  0  0  0  0  0  0  0  0
    0.7663   -0.4439    3.8028 H   0  0  0  0  0  0  0  0  0  0  0  0
  1  2  1  0  0  0  0
  2  3  1  0  0  0  0
  2  4  1  0  0  0  0
  2  5  1  0  0  0  0
  5  6  2  0  0  0  0
  5  7  1  0  0  0  0
  7  8  1  0  0  0  0
  7  9  1  0  0  0  0
  9 10  1  0  0  0  0
  9 11  1  0  0  0  0
  9 21  1  0  0  0  0
 11 12  1  0  0  0  0
 11 13  1  0  0  0  0
 11 14  1  0  0  0  0
 14 15  1  0  0  0  0
 14 16  1  0  0  0  0
 14 17  1  0  0  0  0
 17 18  2  0  0  0  0
 17 19  1  0  0  0  0
 19 20  1  0  0  0  0
 21 22  2  0  0  0  0
 21 23  1  0  0  0  0
 23 24  1  0  0  0  0
 23 25  1  0  0  0  0
 25 26  1  0  0  0  0
 25 27  1  0  0  0  0
 25 28  1  0  0  0  0
M  END
$$$$

  -OEChem-03222214033D

 28 27  0     1  0  0  0  0  0999 V2000
   -2.6018   -4.2106    0.4775 H   0  0  0  0  0  0  0  0  0  0  0  0
   -2.6184   -3.2234    0.0074 C   0  0  0  0  0  0  0  0  0  0  0  0
   -3.3431   -2.5953    0.5309 H   0  0  0  0  0  0  0  0  0  0  0  0
   -2.9284   -3.3346   -1.0343 H   0  0  0  0  0  0  0  0  0  0  0  0
   -1.2417   -2.5909    0.0729 C   0  0  0  0  0  0  0  0  0  0  0  0
   -0.3247   -3.1745    0.6224 O   0  0  0  0  0  0  0  0  0  0  0  0
   -1.0343   -1.3458   -0.4819 N   0  0  0  0  0  0  0  0  0  0  0  0
   -1.8444   -0.8862   -0.9041 H   0  0  0  0  0  0  0  0  0  0  0  0
    0.2448   -0.6117   -0.4455 C   0  0  1  0  0  0  0  0  0  0  0  0
    1.0013   -1.2491   -0.9172 H   0  0  0  0  0  0  0  0  0  0  0  0
    0.1329    0.6845   -1.2726 C   0  0  0  0  0  0  0  0  0  0  0  0
   -0.4054    1.4463   -0.6973 H   0  0  0  0  0  0  0  0  0  0  0  0
    1.1470    1.0665   -1.4354 H   0  0  0  0  0  0  0  0  0  0  0  0
   -0.5521    0.4829   -2.6446 C   0  0  0  0  0  0  0  0  0  0  0  0
    0.0140    1.0365   -3.3992 H   0  0  0  0  0  0  0  0  0  0  0  0
   -0.5412   -0.5673   -2.9492 H   0  0  0  0  0  0  0  0  0  0  0  0
   -1.9810    1.0145   -2.6632 C   0  0  0  0  0  0  0  0  0  0  0  0
   -2.7949    0.4816   -1.9254 O   0  0  0  0  0  0  0  0  0  0  0  0
   -2.2791    2.0450   -3.4819 O   0  0  0  0  0  0  0  0  0  0  0  0
   -3.2216    2.2255   -3.3425 H   0  0  0  0  0  0  0  0  0  0  0  0
    0.7670   -0.2968    0.9731 C   0  0  0  0  0  0  0  0  0  0  0  0
    1.9723   -0.2356    1.1749 O   0  0  0  0  0  0  0  0  0  0  0  0
   -0.0997    0.1909    1.9346 N   0  0  0  0  0  0  0  0  0  0  0  0
   -1.0900    0.0643    1.7518 H   0  0  0  0  0  0  0  0  0  0  0  0
    0.3298    0.5299    3.2855 C   0  0  0  0  0  0  0  0  0  0  0  0
    1.1004    1.3077    3.2597 H   0  0  0  0  0  0  0  0  0  0  0  0
   -0.5162    0.9038    3.8699 H   0  0  0  0  0  0  0  0  0  0  0  0
    0.7377   -0.3529    3.7892 H   0  0  0  0  0  0  0  0  0  0  0  0
  1  2  1  0  0  0  0
  2  3  1  0  0  0  0
  2  4  1  0  0  0  0
  2  5  1  0  0  0  0
  5  6  2  0  0  0  0
  5  7  1  0  0  0  0
  7  8  1  0  0  0  0
  7  9  1  0  0  0  0
  9 10  1  0  0  0  0
  9 11  1  0  0  0  0
  9 21  1  0  0  0  0
 11 12  1  0  0  0  0
 11 13  1  0  0  0  0
 11 14  1  0  0  0  0
 14 15  1  0  0  0  0
 14 16  1  0  0  0  0
 14 17  1  0  0  0  0
 17 18  2  0  0  0  0
 17 19  1  0  0  0  0
 19 20  1  0  0  0  0
 21 22  2  0  0  0  0
 21 23  1  0  0  0  0
 23 24  1  0  0  0  0
 23 25  1  0  0  0  0
 25 26  1  0  0  0  0
 25 27  1  0  0  0  0
 25 28  1  0  0  0  0
M  END
$$$$

  -OEChem-03222214033D

 28 27  0     1  0  0  0  0  0999 V2000
   -2.6121   -4.2067    0.4858 H   0  0  0  0  0  0  0  0  0  0  0  0
   -2.6309   -3.2201    0.0143 C   0  0  0  0  0  0  0  0  0  0  0  0
   -3.3506   -2.5906    0.5428 H   0  0  0  0  0  0  0  0  0  0  0  0
   -2.9497   -3.3331   -1.0246 H   0  0  0  0  0  0  0  0  0  0  0  0
   -1.2521   -2.5904    0.0681 C   0  0  0  0  0  0  0  0  0  0  0  0
   -0.3326   -3.1771    0.6094 O   0  0  0  0  0  0  0  0  0  0  0  0
   -1.0444   -1.3455   -0.4888 N   0  0  0  0  0  0  0  0  0  0  0  0
   -1.8548   -0.8770   -0.8946 H   0  0  0  0  0  0  0  0  0  0  0  0
    0.2398   -0.6166   -0.4557 C   0  0  1  0  0  0  0  0  0  0  0  0
    0.9931   -1.2533   -0.9336 H   0  0  0  0  0  0  0  0  0  0  0  0
    0.1164    0.6767   -1.2821 C   0  0  0  0  0  0  0  0  0  0  0  0
   -0.4301    1.4235   -0.6946 H   0  0  0  0  0  0  0  0  0  0  0  0
    1.1220    1.0800   -1.4468 H   0  0  0  0  0  0  0  0  0  0  0  0
   -0.5785    0.4727   -2.6513 C   0  0  0  0  0  0  0  0  0  0  0  0
    0.1078    0.7926   -3.4404 H   0  0  0  0  0  0  0  0  0  0  0  0
   -0.8129   -0.5750   -2.8544 H   0  0  0  0  0  0  0  0  0  0  0  0
   -1.8429    1.3095   -2.7641 C   0  0  0  0  0  0  0  0  0  0  0  0
   -2.7904    0.9700   -2.0743 O   0  0  0  0  0  0  0  0  0  0  0  0
   -1.8613    2.3744   -3.5929 O   0  0  0  0  0  0  0  0  0  0  0  0
   -2.7472    2.7586   -3.5046 H   0  0  0  0  0  0  0  0  0  0  0  0
    0.7720   -0.3017    0.9592 C   0  0  0  0  0  0  0  0  0  0  0  0
    1.9785   -0.2471    1.1546 O   0  0  0  0  0  0  0  0  0  0  0  0
   -0.0869    0.1919    1.9245 N   0  0  0  0  0  0  0  0  0  0  0  0
   -1.0797    0.0808    1.7451 H   0  0  0  0  0  0  0  0  0  0  0  0
    0.3519    0.5431    3.2693 C   0  0  0  0  0  0  0  0  0  0  0  0
    1.1210    1.3219    3.2310 H   0  0  0  0  0  0  0  0  0  0  0  0
   -0.4908    0.9210    3.8562 H   0  0  0  0  0  0  0  0  0  0  0  0
    0.7647   -0.3348    3.7778 H   0  0  0  0  0  0  0  0  0  0  0  0
  1  2  1  0  0  0  0
  2  3  1  0  0  0  0
  2  4  1  0  0  0  0
  2  5  1  0  0  0  0
  5  6  2  0  0  0  0
  5  7  1  0  0  0  0
  7  8  1  0  0  0  0
  7  9  1  0  0  0  0
  9 10  1  0  0  0  0
  9 11  1  0  0  0  0
  9 21  1  0  0  0  0
 11 12  1  0  0  0  0
 11 13  1  0  0  0  0
 11 14  1  0  0  0  0
 14 15  1  0  0  0  0
 14 16  1  0  0  0  0
 14 17  1  0  0  0  0
 17 18  2  0  0  0  0
 17 19  1  0  0  0  0
 19 20  1  0  0  0  0
 21 22  2  0  0  0  0
 21 23  1  0  0  0  0
 23 24  1  0  0  0  0
 23 25  1  0  0  0  0
 25 26  1  0  0  0  0
 25 27  1  0  0  0  0
 25 28  1  0  0  0  0
M  END
$$$$

  -OEChem-03222214033D

 28 27  0     1  0  0  0  0  0999 V2000
   -2.5874   -4.2500    0.5246 H   0  0  0  0  0  0  0  0  0  0  0  0
   -2.6303   -3.2606    0.0602 C   0  0  0  0  0  0  0  0  0  0  0  0
   -3.3480   -2.6457    0.6083 H   0  0  0  0  0  0  0  0  0  0  0  0
   -2.9692   -3.3722   -0.9726 H   0  0  0  0  0  0  0  0  0  0  0  0
   -1.2598   -2.6109    0.0891 C   0  0  0  0  0  0  0  0  0  0  0  0
   -0.3234   -3.1850    0.6143 O   0  0  0  0  0  0  0  0  0  0  0  0
   -1.0791   -1.3635   -0.4736 N   0  0  0  0  0  0  0  0  0  0  0  0
   -1.9009   -0.9090   -0.8656 H   0  0  0  0  0  0  0  0  0  0  0  0
    0.1986   -0.6235   -0.4688 C   0  0  1  0  0  0  0  0  0  0  0  0
    0.9443   -1.2635   -0.9546 H   0  0  0  0  0  0  0  0  0  0  0  0
    0.0852    0.6700   -1.3000 C   0  0  0  0  0  0  0  0  0  0  0  0
   -0.4711    1.4011   -0.7018 H   0  0  0  0  0  0  0  0  0  0  0  0
    1.0870    1.0867   -1.4553 H   0  0  0  0  0  0  0  0  0  0  0  0
   -0.6145    0.5009   -2.6724 C   0  0  0  0  0  0  0  0  0  0  0  0
    0.1426    0.5276   -3.4612 H   0  0  0  0  0  0  0  0  0  0  0  0
   -1.1287   -0.4569   -2.7694 H   0  0  0  0  0  0  0  0  0  0  0  0
   -1.6245    1.6102   -2.9251 C   0  0  0  0  0  0  0  0  0  0  0  0
   -2.6864    1.5470   -2.3299 O   0  0  0  0  0  0  0  0  0  0  0  0
   -1.3002    2.6080   -3.7739 O   0  0  0  0  0  0  0  0  0  0  0  0
   -2.0678    3.2001   -3.7823 H   0  0  0  0  0  0  0  0  0  0  0  0
    0.7576   -0.3047    0.9357 C   0  0  0  0  0  0  0  0  0  0  0  0
    1.9676   -0.2376    1.1043 O   0  0  0  0  0  0  0  0  0  0  0  0
   -0.0836    0.1809    1.9207 N   0  0  0  0  0  0  0  0  0  0  0  0
   -1.0792    0.0629    1.7646 H   0  0  0  0  0  0  0  0  0  0  0  0
    0.3831    0.5461    3.2526 C   0  0  0  0  0  0  0  0  0  0  0  0
    1.1207    1.3535    3.1932 H   0  0  0  0  0  0  0  0  0  0  0  0
   -0.4550    0.8899    3.8663 H   0  0  0  0  0  0  0  0  0  0  0  0
    0.8439   -0.3163    3.7458 H   0  0  0  0  0  0  0  0  0  0  0  0
  1  2  1  0  0  0  0
  2  3  1  0  0  0  0
  2  4  1  0  0  0  0
  2  5  1  0  0  0  0
  5  6  2  0  0  0  0
  5  7  1  0  0  0  0
  7  8  1  0  0  0  0
  7  9  1  0  0  0  0
  9 10  1  0  0  0  0
  9 11  1  0  0  0  0
  9 21  1  0  0  0  0
 11 12  1  0  0  0  0
 11 13  1  0  0  0  0
 11 14  1  0  0  0  0
 14 15  1  0  0  0  0
 14 16  1  0  0  0  0
 14 17  1  0  0  0  0
 17 18  2  0  0  0  0
 17 19  1  0  0  0  0
 19 20  1  0  0  0  0
 21 22  2  0  0  0  0
 21 23  1  0  0  0  0
 23 24  1  0  0  0  0
 23 25  1  0  0  0  0
 25 26  1  0  0  0  0
 25 27  1  0  0  0  0
 25 28  1  0  0  0  0
M  END
$$$$

  -OEChem-03222214033D

 28 27  0     1  0  0  0  0  0999 V2000
   -2.6071   -4.2239    0.3973 H   0  0  0  0  0  0  0  0  0  0  0  0
   -2.6353   -3.2281   -0.0543 C   0  0  0  0  0  0  0  0  0  0  0  0
   -3.3743   -2.6230    0.4761 H   0  0  0  0  0  0  0  0  0  0  0  0
   -2.9354   -3.3255   -1.1003 H   0  0  0  0  0  0  0  0  0  0  0  0
   -1.2681   -2.5770    0.0346 C   0  0  0  0  0  0  0  0  0  0  0  0
   -0.3437   -3.1704    0.5586 O   0  0  0  0  0  0  0  0  0  0  0  0
   -1.0776   -1.3086   -0.4769 N   0  0  0  0  0  0  0  0  0  0  0  0
   -1.8867   -0.8486   -0.8819 H   0  0  0  0  0  0  0  0  0  0  0  0
    0.2046   -0.5775   -0.4290 C   0  0  1  0  0  0  0  0  0  0  0  0
    0.9485   -1.2134   -0.9228 H   0  0  0  0  0  0  0  0  0  0  0  0
    0.1447    0.7460   -1.2220 C   0  0  0  0  0  0  0  0  0  0  0  0
   -0.4228    1.4517   -0.6057 H   0  0  0  0  0  0  0  0  0  0  0  0
    1.1549    1.1573   -1.3290 H   0  0  0  0  0  0  0  0  0  0  0  0
   -0.5195    0.6455   -2.6232 C   0  0  0  0  0  0  0  0  0  0  0  0
    0.2483    0.3772   -3.3538 H   0  0  0  0  0  0  0  0  0  0  0  0
   -1.2708   -0.1438   -2.6499 H   0  0  0  0  0  0  0  0  0  0  0  0
   -1.2235    1.9153   -3.1070 C   0  0  0  0  0  0  0  0  0  0  0  0
   -1.2330    2.9209   -2.4204 O   0  0  0  0  0  0  0  0  0  0  0  0
   -1.8331    1.8402   -4.3081 O   0  0  0  0  0  0  0  0  0  0  0  0
   -2.2066    2.7230   -4.4569 H   0  0  0  0  0  0  0  0  0  0  0  0
    0.7530   -0.3172    0.9923 C   0  0  0  0  0  0  0  0  0  0  0  0
    1.9620   -0.2852    1.1768 O   0  0  0  0  0  0  0  0  0  0  0  0
   -0.0895    0.1352    1.9918 N   0  0  0  0  0  0  0  0  0  0  0  0
   -1.0855    0.0493    1.8224 H   0  0  0  0  0  0  0  0  0  0  0  0
    0.3745    0.4439    3.3386 C   0  0  0  0  0  0  0  0  0  0  0  0
    1.1376    1.2290    3.3109 H   0  0  0  0  0  0  0  0  0  0  0  0
   -0.4579    0.7957    3.9554 H   0  0  0  0  0  0  0  0  0  0  0  0
    0.8035   -0.4475    3.8084 H   0  0  0  0  0  0  0  0  0  0  0  0
  1  2  1  0  0  0  0
  2  3  1  0  0  0  0
  2  4  1  0  0  0  0
  2  5  1  0  0  0  0
  5  6  2  0  0  0  0
  5  7  1  0  0  0  0
  7  8  1  0  0  0  0
  7  9  1  0  0  0  0
  9 10  1  0  0  0  0
  9 11  1  0  0  0  0
  9 21  1  0  0  0  0
 11 12  1  0  0  0  0
 11 13  1  0  0  0  0
 11 14  1  0  0  0  0
 14 15  1  0  0  0  0
 14 16  1  0  0  0  0
 14 17  1  0  0  0  0
 17 18  2  0  0  0  0
 17 19  1  0  0  0  0
 19 20  1  0  0  0  0
 21 22  2  0  0  0  0
 21 23  1  0  0  0  0
 23 24  1  0  0  0  0
 23 25  1  0  0  0  0
 25 26  1  0  0  0  0
 25 27  1  0  0  0  0
 25 28  1  0  0  0  0
M  END
$$$$

  -OEChem-03222214033D

 28 27  0     1  0  0  0  0  0999 V2000
   -2.6109   -4.2217    0.3838 H   0  0  0  0  0  0  0  0  0  0  0  0
   -2.6356   -3.2261   -0.0685 C   0  0  0  0  0  0  0  0  0  0  0  0
   -3.3831   -2.6224    0.4516 H   0  0  0  0  0  0  0  0  0  0  0  0
   -2.9216   -3.3247   -1.1185 H   0  0  0  0  0  0  0  0  0  0  0  0
   -1.2714   -2.5716    0.0381 C   0  0  0  0  0  0  0  0  0  0  0  0
   -0.3546   -3.1595    0.5812 O   0  0  0  0  0  0  0  0  0  0  0  0
   -1.0761   -1.3067   -0.4802 N   0  0  0  0  0  0  0  0  0  0  0  0
   -1.8767   -0.8585   -0.9133 H   0  0  0  0  0  0  0  0  0  0  0  0
    0.2079   -0.5786   -0.4347 C   0  0  1  0  0  0  0  0  0  0  0  0
    0.9520   -1.2164   -0.9261 H   0  0  0  0  0  0  0  0  0  0  0  0
    0.1457    0.7425   -1.2304 C   0  0  0  0  0  0  0  0  0  0  0  0
   -0.4201    1.4627   -0.6286 H   0  0  0  0  0  0  0  0  0  0  0  0
    1.1587    1.1448   -1.3468 H   0  0  0  0  0  0  0  0  0  0  0  0
   -0.5236    0.6247   -2.6233 C   0  0  0  0  0  0  0  0  0  0  0  0
    0.1571    0.1028   -3.3012 H   0  0  0  0  0  0  0  0  0  0  0  0
   -1.4428    0.0408   -2.5677 H   0  0  0  0  0  0  0  0  0  0  0  0
   -0.9081    1.9637   -3.2543 C   0  0  0  0  0  0  0  0  0  0  0  0
   -0.7132    3.0057   -2.6550 O   0  0  0  0  0  0  0  0  0  0  0  0
   -1.4792    1.9126   -4.4756 O   0  0  0  0  0  0  0  0  0  0  0  0
   -1.6420    2.8381   -4.7163 H   0  0  0  0  0  0  0  0  0  0  0  0
    0.7542   -0.3119    0.9864 C   0  0  0  0  0  0  0  0  0  0  0  0
    1.9628   -0.2845    1.1744 O   0  0  0  0  0  0  0  0  0  0  0  0
   -0.0898    0.1482    1.9813 N   0  0  0  0  0  0  0  0  0  0  0  0
   -1.0854    0.0576    1.8113 H   0  0  0  0  0  0  0  0  0  0  0  0
    0.3714    0.4624    3.3281 C   0  0  0  0  0  0  0  0  0  0  0  0
    1.1377    1.2445    3.2987 H   0  0  0  0  0  0  0  0  0  0  0  0
   -0.4616    0.8207    3.9403 H   0  0  0  0  0  0  0  0  0  0  0  0
    0.7953   -0.4281    3.8042 H   0  0  0  0  0  0  0  0  0  0  0  0
  1  2  1  0  0  0  0
  2  3  1  0  0  0  0
  2  4  1  0  0  0  0
  2  5  1  0  0  0  0
  5  6  2  0  0  0  0
  5  7  1  0  0  0  0
  7  8  1  0  0  0  0
  7  9  1  0  0  0  0
  9 10  1  0  0  0  0
  9 11  1  0  0  0  0
  9 21  1  0  0  0  0
 11 12  1  0  0  0  0
 11 13  1  0  0  0  0
 11 14  1  0  0  0  0
 14 15  1  0  0  0  0
 14 16  1  0  0  0  0
 14 17  1  0  0  0  0
 17 18  2  0  0  0  0
 17 19  1  0  0  0  0
 19 20  1  0  0  0  0
 21 22  2  0  0  0  0
 21 23  1  0  0  0  0
 23 24  1  0  0  0  0
 23 25  1  0  0  0  0
 25 26  1  0  0  0  0
 25 27  1  0  0  0  0
 25 28  1  0  0  0  0
M  END
$$$$

  -OEChem-03222214033D

 28 27  0     1  0  0  0  0  0999 V2000
   -2.5931   -4.2547    0.3752 H   0  0  0  0  0  0  0  0  0  0  0  0
   -2.6297   -3.2600   -0.0783 C   0  0  0  0  0  0  0  0  0  0  0  0
   -3.4127   -2.6783    0.4138 H   0  0  0  0  0  0  0  0  0  0  0  0
   -2.8744   -3.3673   -1.1378 H   0  0  0  0  0  0  0  0  0  0  0  0
   -1.2891   -2.5669    0.0778 C   0  0  0  0  0  0  0  0  0  0  0  0
   -0.3816   -3.1239    0.6670 O   0  0  0  0  0  0  0  0  0  0  0  0
   -1.1053   -1.3029   -0.4476 N   0  0  0  0  0  0  0  0  0  0  0  0
   -1.8839   -0.9056   -0.9617 H   0  0  0  0  0  0  0  0  0  0  0  0
    0.1796   -0.5731   -0.4252 C   0  0  1  0  0  0  0  0  0  0  0  0
    0.9103   -1.2228   -0.9208 H   0  0  0  0  0  0  0  0  0  0  0  0
    0.1290    0.7436   -1.2352 C   0  0  0  0  0  0  0  0  0  0  0  0
   -0.1742    1.5557   -0.5643 H   0  0  0  0  0  0  0  0  0  0  0  0
    1.1420    0.9772   -1.5830 H   0  0  0  0  0  0  0  0  0  0  0  0
   -0.8433    0.7310   -2.4381 C   0  0  0  0  0  0  0  0  0  0  0  0
   -0.5582   -0.0727   -3.1225 H   0  0  0  0  0  0  0  0  0  0  0  0
   -1.8642    0.5467   -2.0990 H   0  0  0  0  0  0  0  0  0  0  0  0
   -0.8761    2.0415   -3.2251 C   0  0  0  0  0  0  0  0  0  0  0  0
   -0.2833    3.0213   -2.8116 O   0  0  0  0  0  0  0  0  0  0  0  0
   -1.6004    2.0442   -4.3633 O   0  0  0  0  0  0  0  0  0  0  0  0
   -1.5021    2.9410   -4.7205 H   0  0  0  0  0  0  0  0  0  0  0  0
    0.7506   -0.3019    0.9854 C   0  0  0  0  0  0  0  0  0  0  0  0
    1.9620   -0.2639    1.1514 O   0  0  0  0  0  0  0  0  0  0  0  0
   -0.0797    0.1599    1.9906 N   0  0  0  0  0  0  0  0  0  0  0  0
   -1.0756    0.0385    1.8426 H   0  0  0  0  0  0  0  0  0  0  0  0
    0.4007    0.4692    3.3315 C   0  0  0  0  0  0  0  0  0  0  0  0
    1.1675    1.2503    3.2936 H   0  0  0  0  0  0  0  0  0  0  0  0
   -0.4235    0.8266    3.9560 H   0  0  0  0  0  0  0  0  0  0  0  0
    0.8298   -0.4235    3.7988 H   0  0  0  0  0  0  0  0  0  0  0  0
  1  2  1  0  0  0  0
  2  3  1  0  0  0  0
  2  4  1  0  0  0  0
  2  5  1  0  0  0  0
  5  6  2  0  0  0  0
  5  7  1  0  0  0  0
  7  8  1  0  0  0  0
  7  9  1  0  0  0  0
  9 10  1  0  0  0  0
  9 11  1  0  0  0  0
  9 21  1  0  0  0  0
 11 12  1  0  0  0  0
 11 13  1  0  0  0  0
 11 14  1  0  0  0  0
 14 15  1  0  0  0  0
 14 16  1  0  0  0  0
 14 17  1  0  0  0  0
 17 18  2  0  0  0  0
 17 19  1  0  0  0  0
 19 20  1  0  0  0  0
 21 22  2  0  0  0  0
 21 23  1  0  0  0  0
 23 24  1  0  0  0  0
 23 25  1  0  0  0  0
 25 26  1  0  0  0  0
 25 27  1  0  0  0  0
 25 28  1  0  0  0  0
M  END
$$$$

  -OEChem-03222214033D

 28 27  0     1  0  0  0  0  0999 V2000
   -2.6288   -4.2099    0.4396 H   0  0  0  0  0  0  0  0  0  0  0  0
   -2.6488   -3.2396   -0.0652 C   0  0  0  0  0  0  0  0  0  0  0  0
   -3.4289   -2.6242    0.3891 H   0  0  0  0  0  0  0  0  0  0  0  0
   -2.8844   -3.3977   -1.1204 H   0  0  0  0  0  0  0  0  0  0  0  0
   -1.3016   -2.5553    0.0684 C   0  0  0  0  0  0  0  0  0  0  0  0
   -0.3872   -3.1192    0.6400 O   0  0  0  0  0  0  0  0  0  0  0  0
   -1.1212   -1.2888   -0.4521 N   0  0  0  0  0  0  0  0  0  0  0  0
   -1.9031   -0.8865   -0.9576 H   0  0  0  0  0  0  0  0  0  0  0  0
    0.1662   -0.5634   -0.4423 C   0  0  1  0  0  0  0  0  0  0  0  0
    0.8888   -1.2086   -0.9558 H   0  0  0  0  0  0  0  0  0  0  0  0
    0.0925    0.7582   -1.2402 C   0  0  0  0  0  0  0  0  0  0  0  0
   -0.1899    1.5763   -0.5676 H   0  0  0  0  0  0  0  0  0  0  0  0
    1.0985    0.9834   -1.6132 H   0  0  0  0  0  0  0  0  0  0  0  0
   -0.9055    0.7388   -2.4193 C   0  0  0  0  0  0  0  0  0  0  0  0
   -0.7776   -0.1904   -2.9822 H   0  0  0  0  0  0  0  0  0  0  0  0
   -1.9331    0.7804   -2.0515 H   0  0  0  0  0  0  0  0  0  0  0  0
   -0.7000    1.8974   -3.3928 C   0  0  0  0  0  0  0  0  0  0  0  0
   -0.3406    2.9792   -2.9652 O   0  0  0  0  0  0  0  0  0  0  0  0
   -0.9526    1.6644   -4.6977 O   0  0  0  0  0  0  0  0  0  0  0  0
   -0.7621    2.5045   -5.1440 H   0  0  0  0  0  0  0  0  0  0  0  0
    0.7590   -0.3011    0.9610 C   0  0  0  0  0  0  0  0  0  0  0  0
    1.9730   -0.2728    1.1088 O   0  0  0  0  0  0  0  0  0  0  0  0
   -0.0529    0.1583    1.9824 N   0  0  0  0  0  0  0  0  0  0  0  0
   -1.0520    0.0468    1.8482 H   0  0  0  0  0  0  0  0  0  0  0  0
    0.4495    0.4467    3.3200 C   0  0  0  0  0  0  0  0  0  0  0  0
    1.2122    1.2318    3.2822 H   0  0  0  0  0  0  0  0  0  0  0  0
   -0.3652    0.7892    3.9652 H   0  0  0  0  0  0  0  0  0  0  0  0
    0.8909   -0.4519    3.7639 H   0  0  0  0  0  0  0  0  0  0  0  0
  1  2  1  0  0  0  0
  2  3  1  0  0  0  0
  2  4  1  0  0  0  0
  2  5  1  0  0  0  0
  5  6  2  0  0  0  0
  5  7  1  0  0  0  0
  7  8  1  0  0  0  0
  7  9  1  0  0  0  0
  9 10  1  0  0  0  0
  9 11  1  0  0  0  0
  9 21  1  0  0  0  0
 11 12  1  0  0  0  0
 11 13  1  0  0  0  0
 11 14  1  0  0  0  0
 14 15  1  0  0  0  0
 14 16  1  0  0  0  0
 14 17  1  0  0  0  0
 17 18  2  0  0  0  0
 17 19  1  0  0  0  0
 19 20  1  0  0  0  0
 21 22  2  0  0  0  0
 21 23  1  0  0  0  0
 23 24  1  0  0  0  0
 23 25  1  0  0  0  0
 25 26  1  0  0  0  0
 25 27  1  0  0  0  0
 25 28  1  0  0  0  0
M  END
$$$$

  -OEChem-03222214033D

 28 27  0     1  0  0  0  0  0999 V2000
   -2.6456   -4.2112    0.4176 H   0  0  0  0  0  0  0  0  0  0  0  0
   -2.6702   -3.2312   -0.0675 C   0  0  0  0  0  0  0  0  0  0  0  0
   -3.4478   -2.6259    0.4040 H   0  0  0  0  0  0  0  0  0  0  0  0
   -2.9129   -3.3688   -1.1238 H   0  0  0  0  0  0  0  0  0  0  0  0
   -1.3229   -2.5479    0.0701 C   0  0  0  0  0  0  0  0  0  0  0  0
   -0.4108   -3.1129    0.6445 O   0  0  0  0  0  0  0  0  0  0  0  0
   -1.1383   -1.2822   -0.4507 N   0  0  0  0  0  0  0  0  0  0  0  0
   -1.9181   -0.8787   -0.9591 H   0  0  0  0  0  0  0  0  0  0  0  0
    0.1541   -0.5649   -0.4513 C   0  0  1  0  0  0  0  0  0  0  0  0
    0.8677   -1.2137   -0.9729 H   0  0  0  0  0  0  0  0  0  0  0  0
    0.0791    0.7590   -1.2453 C   0  0  0  0  0  0  0  0  0  0  0  0
   -0.1822    1.5834   -0.5726 H   0  0  0  0  0  0  0  0  0  0  0  0
    1.0864    0.9682   -1.6248 H   0  0  0  0  0  0  0  0  0  0  0  0
   -0.9290    0.7572   -2.4180 C   0  0  0  0  0  0  0  0  0  0  0  0
   -0.9953   -0.2481   -2.8438 H   0  0  0  0  0  0  0  0  0  0  0  0
   -1.9225    1.0492   -2.0692 H   0  0  0  0  0  0  0  0  0  0  0  0
   -0.5029    1.6825   -3.5547 C   0  0  0  0  0  0  0  0  0  0  0  0
   -0.1212    2.8064   -3.2843 O   0  0  0  0  0  0  0  0  0  0  0  0
   -0.5869    1.2118   -4.8169 O   0  0  0  0  0  0  0  0  0  0  0  0
   -0.2689    1.9376   -5.3768 H   0  0  0  0  0  0  0  0  0  0  0  0
    0.7615   -0.3073    0.9466 C   0  0  0  0  0  0  0  0  0  0  0  0
    1.9772   -0.2762    1.0802 O   0  0  0  0  0  0  0  0  0  0  0  0
   -0.0384    0.1565    1.9755 N   0  0  0  0  0  0  0  0  0  0  0  0
   -1.0384    0.0376    1.8553 H   0  0  0  0  0  0  0  0  0  0  0  0
    0.4793    0.4435    3.3077 C   0  0  0  0  0  0  0  0  0  0  0  0
    1.2400    1.2300    3.2628 H   0  0  0  0  0  0  0  0  0  0  0  0
   -0.3281    0.7832    3.9633 H   0  0  0  0  0  0  0  0  0  0  0  0
    0.9277   -0.4548    3.7452 H   0  0  0  0  0  0  0  0  0  0  0  0
  1  2  1  0  0  0  0
  2  3  1  0  0  0  0
  2  4  1  0  0  0  0
  2  5  1  0  0  0  0
  5  6  2  0  0  0  0
  5  7  1  0  0  0  0
  7  8  1  0  0  0  0
  7  9  1  0  0  0  0
  9 10  1  0  0  0  0
  9 11  1  0  0  0  0
  9 21  1  0  0  0  0
 11 12  1  0  0  0  0
 11 13  1  0  0  0  0
 11 14  1  0  0  0  0
 14 15  1  0  0  0  0
 14 16  1  0  0  0  0
 14 17  1  0  0  0  0
 17 18  2  0  0  0  0
 17 19  1  0  0  0  0
 19 20  1  0  0  0  0
 21 22  2  0  0  0  0
 21 23  1  0  0  0  0
 23 24  1  0  0  0  0
 23 25  1  0  0  0  0
 25 26  1  0  0  0  0
 25 27  1  0  0  0  0
 25 28  1  0  0  0  0
M  END
$$$$

  -OEChem-03222214033D

 28 27  0     1  0  0  0  0  0999 V2000
   -2.6671   -4.2086    0.4240 H   0  0  0  0  0  0  0  0  0  0  0  0
   -2.6957   -3.2261   -0.0563 C   0  0  0  0  0  0  0  0  0  0  0  0
   -3.4639   -2.6201    0.4298 H   0  0  0  0  0  0  0  0  0  0  0  0
   -2.9553   -3.3578   -1.1096 H   0  0  0  0  0  0  0  0  0  0  0  0
   -1.3439   -2.5488    0.0635 C   0  0  0  0  0  0  0  0  0  0  0  0
   -0.4226   -3.1225    0.6138 O   0  0  0  0  0  0  0  0  0  0  0  0
   -1.1642   -1.2799   -0.4508 N   0  0  0  0  0  0  0  0  0  0  0  0
   -1.9573   -0.8605   -0.9245 H   0  0  0  0  0  0  0  0  0  0  0  0
    0.1292   -0.5654   -0.4658 C   0  0  1  0  0  0  0  0  0  0  0  0
    0.8325   -1.2167   -0.9983 H   0  0  0  0  0  0  0  0  0  0  0  0
    0.0609    0.7618   -1.2571 C   0  0  0  0  0  0  0  0  0  0  0  0
   -0.1945    1.5799   -0.5747 H   0  0  0  0  0  0  0  0  0  0  0  0
    1.0716    0.9707   -1.6283 H   0  0  0  0  0  0  0  0  0  0  0  0
   -0.9497    0.7951   -2.4309 C   0  0  0  0  0  0  0  0  0  0  0  0
   -1.2516   -0.2160   -2.7134 H   0  0  0  0  0  0  0  0  0  0  0  0
   -1.8469    1.3500   -2.1445 H   0  0  0  0  0  0  0  0  0  0  0  0
   -0.3454    1.4212   -3.6832 C   0  0  0  0  0  0  0  0  0  0  0  0
    0.0031    2.5863   -3.6369 O   0  0  0  0  0  0  0  0  0  0  0  0
   -0.2294    0.6539   -4.7876 O   0  0  0  0  0  0  0  0  0  0  0  0
    0.1826    1.2290   -5.4514 H   0  0  0  0  0  0  0  0  0  0  0  0
    0.7572   -0.3192    0.9252 C   0  0  0  0  0  0  0  0  0  0  0  0
    1.9747   -0.2856    1.0400 O   0  0  0  0  0  0  0  0  0  0  0  0
   -0.0268    0.1388    1.9691 N   0  0  0  0  0  0  0  0  0  0  0  0
   -1.0285    0.0178    1.8659 H   0  0  0  0  0  0  0  0  0  0  0  0
    0.5140    0.4277    3.2918 C   0  0  0  0  0  0  0  0  0  0  0  0
    1.2724    1.2155    3.2323 H   0  0  0  0  0  0  0  0  0  0  0  0
   -0.2819    0.7669    3.9615 H   0  0  0  0  0  0  0  0  0  0  0  0
    0.9718   -0.4695    3.7218 H   0  0  0  0  0  0  0  0  0  0  0  0
  1  2  1  0  0  0  0
  2  3  1  0  0  0  0
  2  4  1  0  0  0  0
  2  5  1  0  0  0  0
  5  6  2  0  0  0  0
  5  7  1  0  0  0  0
  7  8  1  0  0  0  0
  7  9  1  0  0  0  0
  9 10  1  0  0  0  0
  9 11  1  0  0  0  0
  9 21  1  0  0  0  0
 11 12  1  0  0  0  0
 11 13  1  0  0  0  0
 11 14  1  0  0  0  0
 14 15  1  0  0  0  0
 14 16  1  0  0  0  0
 14 17  1  0  0  0  0
 17 18  2  0  0  0  0
 17 19  1  0  0  0  0
 19 20  1  0  0  0  0
 21 22  2  0  0  0  0
 21 23  1  0  0  0  0
 23 24  1  0  0  0  0
 23 25  1  0  0  0  0
 25 26  1  0  0  0  0
 25 27  1  0  0  0  0
 25 28  1  0  0  0  0
M  END
$$$$

  -OEChem-03222214033D

 28 27  0     1  0  0  0  0  0999 V2000
   -2.7231   -4.2003    0.4094 H   0  0  0  0  0  0  0  0  0  0  0  0
   -2.7559   -3.2026   -0.0376 C   0  0  0  0  0  0  0  0  0  0  0  0
   -3.5013   -2.6046    0.4919 H   0  0  0  0  0  0  0  0  0  0  0  0
   -3.0510   -3.2982   -1.0853 H   0  0  0  0  0  0  0  0  0  0  0  0
   -1.3934   -2.5427    0.0599 C   0  0  0  0  0  0  0  0  0  0  0  0
   -0.4721   -3.1254    0.6009 O   0  0  0  0  0  0  0  0  0  0  0  0
   -1.2087   -1.2739   -0.4532 N   0  0  0  0  0  0  0  0  0  0  0  0
   -2.0044   -0.8495   -0.9177 H   0  0  0  0  0  0  0  0  0  0  0  0
    0.0930   -0.5762   -0.4999 C   0  0  1  0  0  0  0  0  0  0  0  0
    0.7723   -1.2367   -1.0521 H   0  0  0  0  0  0  0  0  0  0  0  0
    0.0402    0.7580   -1.2840 C   0  0  0  0  0  0  0  0  0  0  0  0
   -0.2039    1.5601   -0.5788 H   0  0  0  0  0  0  0  0  0  0  0  0
    1.0499    0.9723   -1.6544 H   0  0  0  0  0  0  0  0  0  0  0  0
   -0.9849    0.8477   -2.4440 C   0  0  0  0  0  0  0  0  0  0  0  0
   -1.5498   -0.0753   -2.5741 H   0  0  0  0  0  0  0  0  0  0  0  0
   -1.7001    1.6508   -2.2416 H   0  0  0  0  0  0  0  0  0  0  0  0
   -0.2900    1.1196   -3.7726 C   0  0  0  0  0  0  0  0  0  0  0  0
   -0.4275    2.2142   -4.2856 O   0  0  0  0  0  0  0  0  0  0  0  0
    0.4348    0.1233   -4.3242 O   0  0  0  0  0  0  0  0  0  0  0  0
    0.7963    0.4950   -5.1438 H   0  0  0  0  0  0  0  0  0  0  0  0
    0.7577   -0.3471    0.8769 C   0  0  0  0  0  0  0  0  0  0  0  0
    1.9778   -0.3126    0.9600 O   0  0  0  0  0  0  0  0  0  0  0  0
    0.0020    0.1145    1.9397 N   0  0  0  0  0  0  0  0  0  0  0  0
   -1.0010   -0.0158    1.8635 H   0  0  0  0  0  0  0  0  0  0  0  0
    0.5749    0.3855    3.2526 C   0  0  0  0  0  0  0  0  0  0  0  0
    1.3633    1.1421    3.1791 H   0  0  0  0  0  0  0  0  0  0  0  0
   -0.1962    0.7589    3.9331 H   0  0  0  0  0  0  0  0  0  0  0  0
    1.0028   -0.5282    3.6786 H   0  0  0  0  0  0  0  0  0  0  0  0
  1  2  1  0  0  0  0
  2  3  1  0  0  0  0
  2  4  1  0  0  0  0
  2  5  1  0  0  0  0
  5  6  2  0  0  0  0
  5  7  1  0  0  0  0
  7  8  1  0  0  0  0
  7  9  1  0  0  0  0
  9 10  1  0  0  0  0
  9 11  1  0  0  0  0
  9 21  1  0  0  0  0
 11 12  1  0  0  0  0
 11 13  1  0  0  0  0
 11 14  1  0  0  0  0
 14 15  1  0  0  0  0
 14 16  1  0  0  0  0
 14 17  1  0  0  0  0
 17 18  2  0  0  0  0
 17 19  1  0  0  0  0
 19 20  1  0  0  0  0
 21 22  2  0  0  0  0
 21 23  1  0  0  0  0
 23 24  1  0  0  0  0
 23 25  1  0  0  0  0
 25 26  1  0  0  0  0
 25 27  1  0  0  0  0
 25 28  1  0  0  0  0
M  END
$$$$

  -OEChem-03222214033D

 28 27  0     1  0  0  0  0  0999 V2000
   -2.7423   -4.1728    0.4243 H   0  0  0  0  0  0  0  0  0  0  0  0
   -2.7478   -3.2063   -0.0880 C   0  0  0  0  0  0  0  0  0  0  0  0
   -3.5339   -2.5840    0.3459 H   0  0  0  0  0  0  0  0  0  0  0  0
   -2.9639   -3.3716   -1.1463 H   0  0  0  0  0  0  0  0  0  0  0  0
   -1.3995   -2.5276    0.0656 C   0  0  0  0  0  0  0  0  0  0  0  0
   -0.4980   -3.0954    0.6541 O   0  0  0  0  0  0  0  0  0  0  0  0
   -1.2068   -1.2605   -0.4500 N   0  0  0  0  0  0  0  0  0  0  0  0
   -1.9751   -0.8701   -0.9841 H   0  0  0  0  0  0  0  0  0  0  0  0
    0.1002   -0.5718   -0.4851 C   0  0  1  0  0  0  0  0  0  0  0  0
    0.7789   -1.2423   -1.0254 H   0  0  0  0  0  0  0  0  0  0  0  0
    0.0828    0.7625   -1.2728 C   0  0  0  0  0  0  0  0  0  0  0  0
   -0.1795    1.5556   -0.5637 H   0  0  0  0  0  0  0  0  0  0  0  0
    1.1005    0.9831   -1.6171 H   0  0  0  0  0  0  0  0  0  0  0  0
   -0.9170    0.8782   -2.4505 C   0  0  0  0  0  0  0  0  0  0  0  0
   -1.7133    0.1359   -2.4198 H   0  0  0  0  0  0  0  0  0  0  0  0
   -1.3951    1.8617   -2.4117 H   0  0  0  0  0  0  0  0  0  0  0  0
   -0.1990    0.7639   -3.7887 C   0  0  0  0  0  0  0  0  0  0  0  0
    0.1618    1.7827   -4.3476 O   0  0  0  0  0  0  0  0  0  0  0  0
    0.0022   -0.4729   -4.2902 O   0  0  0  0  0  0  0  0  0  0  0  0
    0.4863   -0.3332   -5.1193 H   0  0  0  0  0  0  0  0  0  0  0  0
    0.7502   -0.3454    0.8995 C   0  0  0  0  0  0  0  0  0  0  0  0
    1.9696   -0.3190    0.9966 O   0  0  0  0  0  0  0  0  0  0  0  0
   -0.0154    0.1227    1.9522 N   0  0  0  0  0  0  0  0  0  0  0  0
   -1.0175   -0.0083    1.8643 H   0  0  0  0  0  0  0  0  0  0  0  0
    0.5424    0.3820    3.2739 C   0  0  0  0  0  0  0  0  0  0  0  0
    1.3316    1.1392    3.2162 H   0  0  0  0  0  0  0  0  0  0  0  0
   -0.2367    0.7492    3.9485 H   0  0  0  0  0  0  0  0  0  0  0  0
    0.9653   -0.5356    3.6966 H   0  0  0  0  0  0  0  0  0  0  0  0
  1  2  1  0  0  0  0
  2  3  1  0  0  0  0
  2  4  1  0  0  0  0
  2  5  1  0  0  0  0
  5  6  2  0  0  0  0
  5  7  1  0  0  0  0
  7  8  1  0  0  0  0
  7  9  1  0  0  0  0
  9 10  1  0  0  0  0
  9 11  1  0  0  0  0
  9 21  1  0  0  0  0
 11 12  1  0  0  0  0
 11 13  1  0  0  0  0
 11 14  1  0  0  0  0
 14 15  1  0  0  0  0
 14 16  1  0  0  0  0
 14 17  1  0  0  0  0
 17 18  2  0  0  0  0
 17 19  1  0  0  0  0
 19 20  1  0  0  0  0
 21 22  2  0  0  0  0
 21 23  1  0  0  0  0
 23 24  1  0  0  0  0
 23 25  1  0  0  0  0
 25 26  1  0  0  0  0
 25 27  1  0  0  0  0
 25 28  1  0  0  0  0
M  END
$$$$

  -OEChem-03222214033D

 28 27  0     1  0  0  0  0  0999 V2000
   -2.5141   -4.3484    0.5424 H   0  0  0  0  0  0  0  0  0  0  0  0
   -2.5798   -3.4009   -0.0003 C   0  0  0  0  0  0  0  0  0  0  0  0
   -3.4547   -2.8517    0.3556 H   0  0  0  0  0  0  0  0  0  0  0  0
   -2.6990   -3.6147   -1.0654 H   0  0  0  0  0  0  0  0  0  0  0  0
   -1.3231   -2.5823    0.2267 C   0  0  0  0  0  0  0  0  0  0  0  0
   -0.4420   -3.0126    0.9483 O   0  0  0  0  0  0  0  0  0  0  0  0
   -1.1973   -1.3447   -0.3741 N   0  0  0  0  0  0  0  0  0  0  0  0
   -1.8978   -1.1456   -1.0801 H   0  0  0  0  0  0  0  0  0  0  0  0
    0.0837   -0.6131   -0.4629 C   0  0  1  0  0  0  0  0  0  0  0  0
    0.7841   -1.2843   -0.9736 H   0  0  0  0  0  0  0  0  0  0  0  0
   -0.0017    0.6802   -1.3131 C   0  0  0  0  0  0  0  0  0  0  0  0
   -0.2872    1.4957   -0.6397 H   0  0  0  0  0  0  0  0  0  0  0  0
    0.9967    0.9261   -1.6941 H   0  0  0  0  0  0  0  0  0  0  0  0
   -1.0301    0.6858   -2.4670 C   0  0  0  0  0  0  0  0  0  0  0  0
   -1.9456    0.1416   -2.2350 H   0  0  0  0  0  0  0  0  0  0  0  0
   -1.3258    1.7216   -2.6549 H   0  0  0  0  0  0  0  0  0  0  0  0
   -0.4160    0.1671   -3.7590 C   0  0  0  0  0  0  0  0  0  0  0  0
   -0.7182   -0.9574   -4.1140 O   0  0  0  0  0  0  0  0  0  0  0  0
    0.4265    0.9674   -4.4458 O   0  0  0  0  0  0  0  0  0  0  0  0
    0.7095    0.4436   -5.2114 H   0  0  0  0  0  0  0  0  0  0  0  0
    0.7369   -0.2740    0.8976 C   0  0  0  0  0  0  0  0  0  0  0  0
    1.9554   -0.1870    0.9742 O   0  0  0  0  0  0  0  0  0  0  0  0
   -0.0368    0.2333    1.9256 N   0  0  0  0  0  0  0  0  0  0  0  0
   -1.0295    0.0305    1.8650 H   0  0  0  0  0  0  0  0  0  0  0  0
    0.5237    0.5817    3.2253 C   0  0  0  0  0  0  0  0  0  0  0  0
    1.2822    1.3646    3.1197 H   0  0  0  0  0  0  0  0  0  0  0  0
   -0.2623    0.9527    3.8898 H   0  0  0  0  0  0  0  0  0  0  0  0
    0.9858   -0.2962    3.6894 H   0  0  0  0  0  0  0  0  0  0  0  0
  1  2  1  0  0  0  0
  2  3  1  0  0  0  0
  2  4  1  0  0  0  0
  2  5  1  0  0  0  0
  5  6  2  0  0  0  0
  5  7  1  0  0  0  0
  7  8  1  0  0  0  0
  7  9  1  0  0  0  0
  9 10  1  0  0  0  0
  9 11  1  0  0  0  0
  9 21  1  0  0  0  0
 11 12  1  0  0  0  0
 11 13  1  0  0  0  0
 11 14  1  0  0  0  0
 14 15  1  0  0  0  0
 14 16  1  0  0  0  0
 14 17  1  0  0  0  0
 17 18  2  0  0  0  0
 17 19  1  0  0  0  0
 19 20  1  0  0  0  0
 21 22  2  0  0  0  0
 21 23  1  0  0  0  0
 23 24  1  0  0  0  0
 23 25  1  0  0  0  0
 25 26  1  0  0  0  0
 25 27  1  0  0  0  0
 25 28  1  0  0  0  0
M  END
$$$$

  -OEChem-03222214033D

 28 27  0     1  0  0  0  0  0999 V2000
   -2.7705   -4.1465    0.2666 H   0  0  0  0  0  0  0  0  0  0  0  0
   -2.7158   -3.1959   -0.2717 C   0  0  0  0  0  0  0  0  0  0  0  0
   -3.5835   -2.5892   -0.0024 H   0  0  0  0  0  0  0  0  0  0  0  0
   -2.7389   -3.3980   -1.3453 H   0  0  0  0  0  0  0  0  0  0  0  0
   -1.4367   -2.4650    0.0890 C   0  0  0  0  0  0  0  0  0  0  0  0
   -0.6401   -2.9785    0.8530 O   0  0  0  0  0  0  0  0  0  0  0  0
   -1.1916   -1.2178   -0.4515 N   0  0  0  0  0  0  0  0  0  0  0  0
   -1.8114   -0.9708   -1.2164 H   0  0  0  0  0  0  0  0  0  0  0  0
    0.1435   -0.5841   -0.4471 C   0  0  1  0  0  0  0  0  0  0  0  0
    0.8193   -1.2800   -0.9576 H   0  0  0  0  0  0  0  0  0  0  0  0
    0.1754    0.7488   -1.2369 C   0  0  0  0  0  0  0  0  0  0  0  0
   -0.0702    1.5607   -0.5437 H   0  0  0  0  0  0  0  0  0  0  0  0
    1.1981    0.9309   -1.5881 H   0  0  0  0  0  0  0  0  0  0  0  0
   -0.8102    0.8552   -2.4192 C   0  0  0  0  0  0  0  0  0  0  0  0
   -1.8268    0.5759   -2.1381 H   0  0  0  0  0  0  0  0  0  0  0  0
   -0.8519    1.9004   -2.7399 H   0  0  0  0  0  0  0  0  0  0  0  0
   -0.3436    0.0313   -3.6105 C   0  0  0  0  0  0  0  0  0  0  0  0
    0.4220    0.5298   -4.4131 O   0  0  0  0  0  0  0  0  0  0  0  0
   -0.8095   -1.2333   -3.7080 O   0  0  0  0  0  0  0  0  0  0  0  0
   -0.3844   -1.5913   -4.5045 H   0  0  0  0  0  0  0  0  0  0  0  0
    0.7523   -0.3496    0.9549 C   0  0  0  0  0  0  0  0  0  0  0  0
    1.9684   -0.3655    1.0920 O   0  0  0  0  0  0  0  0  0  0  0  0
   -0.0309    0.1750    1.9669 N   0  0  0  0  0  0  0  0  0  0  0  0
   -1.0317    0.0490    1.8528 H   0  0  0  0  0  0  0  0  0  0  0  0
    0.4899    0.4284    3.3046 C   0  0  0  0  0  0  0  0  0  0  0  0
    1.3076    1.1560    3.2672 H   0  0  0  0  0  0  0  0  0  0  0  0
   -0.2984    0.8305    3.9482 H   0  0  0  0  0  0  0  0  0  0  0  0
    0.8645   -0.4993    3.7506 H   0  0  0  0  0  0  0  0  0  0  0  0
  1  2  1  0  0  0  0
  2  3  1  0  0  0  0
  2  4  1  0  0  0  0
  2  5  1  0  0  0  0
  5  6  2  0  0  0  0
  5  7  1  0  0  0  0
  7  8  1  0  0  0  0
  7  9  1  0  0  0  0
  9 10  1  0  0  0  0
  9 11  1  0  0  0  0
  9 21  1  0  0  0  0
 11 12  1  0  0  0  0
 11 13  1  0  0  0  0
 11 14  1  0  0  0  0
 14 15  1  0  0  0  0
 14 16  1  0  0  0  0
 14 17  1  0  0  0  0
 17 18  2  0  0  0  0
 17 19  1  0  0  0  0
 19 20  1  0  0  0  0
 21 22  2  0  0  0  0
 21 23  1  0  0  0  0
 23 24  1  0  0  0  0
 23 25  1  0  0  0  0
 25 26  1  0  0  0  0
 25 27  1  0  0  0  0
 25 28  1  0  0  0  0
M  END
$$$$

  -OEChem-03222214033D

 28 27  0     1  0  0  0  0  0999 V2000
   -2.7199   -4.1804    0.1947 H   0  0  0  0  0  0  0  0  0  0  0  0
   -2.6885   -3.2008   -0.2908 C   0  0  0  0  0  0  0  0  0  0  0  0
   -3.5632   -2.6251    0.0209 H   0  0  0  0  0  0  0  0  0  0  0  0
   -2.7212   -3.3443   -1.3737 H   0  0  0  0  0  0  0  0  0  0  0  0
   -1.4198   -2.4660    0.0975 C   0  0  0  0  0  0  0  0  0  0  0  0
   -0.6488   -2.9668    0.8953 O   0  0  0  0  0  0  0  0  0  0  0  0
   -1.1566   -1.2293   -0.4574 N   0  0  0  0  0  0  0  0  0  0  0  0
   -1.7408   -1.0141   -1.2622 H   0  0  0  0  0  0  0  0  0  0  0  0
    0.1815   -0.6015   -0.4301 C   0  0  1  0  0  0  0  0  0  0  0  0
    0.8707   -1.3001   -0.9187 H   0  0  0  0  0  0  0  0  0  0  0  0
    0.2129    0.7257   -1.2290 C   0  0  0  0  0  0  0  0  0  0  0  0
   -0.0268    1.5518   -0.5508 H   0  0  0  0  0  0  0  0  0  0  0  0
    1.2371    0.8908   -1.5840 H   0  0  0  0  0  0  0  0  0  0  0  0
   -0.7604    0.8141   -2.4228 C   0  0  0  0  0  0  0  0  0  0  0  0
   -1.7966    0.7551   -2.0812 H   0  0  0  0  0  0  0  0  0  0  0  0
   -0.6399    1.7882   -2.9057 H   0  0  0  0  0  0  0  0  0  0  0  0
   -0.5047   -0.2644   -3.4676 C   0  0  0  0  0  0  0  0  0  0  0  0
    0.4105   -0.1193   -4.2541 O   0  0  0  0  0  0  0  0  0  0  0  0
   -1.3145   -1.3472   -3.4566 O   0  0  0  0  0  0  0  0  0  0  0  0
   -0.9850   -1.9031   -4.1827 H   0  0  0  0  0  0  0  0  0  0  0  0
    0.7569   -0.3467    0.9827 C   0  0  0  0  0  0  0  0  0  0  0  0
    1.9685   -0.3715    1.1531 O   0  0  0  0  0  0  0  0  0  0  0  0
   -0.0487    0.1983    1.9659 N   0  0  0  0  0  0  0  0  0  0  0  0
   -1.0473    0.0839    1.8242 H   0  0  0  0  0  0  0  0  0  0  0  0
    0.4370    0.4633    3.3144 C   0  0  0  0  0  0  0  0  0  0  0  0
    1.2518    1.1947    3.2922 H   0  0  0  0  0  0  0  0  0  0  0  0
   -0.3690    0.8653    3.9355 H   0  0  0  0  0  0  0  0  0  0  0  0
    0.8047   -0.4592    3.7764 H   0  0  0  0  0  0  0  0  0  0  0  0
  1  2  1  0  0  0  0
  2  3  1  0  0  0  0
  2  4  1  0  0  0  0
  2  5  1  0  0  0  0
  5  6  2  0  0  0  0
  5  7  1  0  0  0  0
  7  8  1  0  0  0  0
  7  9  1  0  0  0  0
  9 10  1  0  0  0  0
  9 11  1  0  0  0  0
  9 21  1  0  0  0  0
 11 12  1  0  0  0  0
 11 13  1  0  0  0  0
 11 14  1  0  0  0  0
 14 15  1  0  0  0  0
 14 16  1  0  0  0  0
 14 17  1  0  0  0  0
 17 18  2  0  0  0  0
 17 19  1  0  0  0  0
 19 20  1  0  0  0  0
 21 22  2  0  0  0  0
 21 23  1  0  0  0  0
 23 24  1  0  0  0  0
 23 25  1  0  0  0  0
 25 26  1  0  0  0  0
 25 27  1  0  0  0  0
 25 28  1  0  0  0  0
M  END
$$$$

  -OEChem-03222214033D

 28 27  0     1  0  0  0  0  0999 V2000
   -2.6815   -4.2219    0.2350 H   0  0  0  0  0  0  0  0  0  0  0  0
   -2.6720   -3.2305   -0.2269 C   0  0  0  0  0  0  0  0  0  0  0  0
   -3.5313   -2.6629    0.1378 H   0  0  0  0  0  0  0  0  0  0  0  0
   -2.7536   -3.3476   -1.3101 H   0  0  0  0  0  0  0  0  0  0  0  0
   -1.3868   -2.5047    0.1223 C   0  0  0  0  0  0  0  0  0  0  0  0
   -0.6011   -3.0060    0.9053 O   0  0  0  0  0  0  0  0  0  0  0  0
   -1.1255   -1.2733   -0.4451 N   0  0  0  0  0  0  0  0  0  0  0  0
   -1.7416   -1.0312   -1.2194 H   0  0  0  0  0  0  0  0  0  0  0  0
    0.2037   -0.6259   -0.4101 C   0  0  1  0  0  0  0  0  0  0  0  0
    0.9081   -1.3253   -0.8757 H   0  0  0  0  0  0  0  0  0  0  0  0
    0.2395    0.6871   -1.2329 C   0  0  0  0  0  0  0  0  0  0  0  0
    0.0005    1.5290   -0.5742 H   0  0  0  0  0  0  0  0  0  0  0  0
    1.2714    0.8328   -1.5731 H   0  0  0  0  0  0  0  0  0  0  0  0
   -0.6982    0.7777   -2.4575 C   0  0  0  0  0  0  0  0  0  0  0  0
   -1.7208    0.9565   -2.1149 H   0  0  0  0  0  0  0  0  0  0  0  0
   -0.4076    1.6359   -3.0700 H   0  0  0  0  0  0  0  0  0  0  0  0
   -0.6990   -0.4667   -3.3394 C   0  0  0  0  0  0  0  0  0  0  0  0
    0.2669   -0.6823   -4.0443 O   0  0  0  0  0  0  0  0  0  0  0  0
   -1.7772   -1.2815   -3.2863 O   0  0  0  0  0  0  0  0  0  0  0  0
   -1.5819   -1.9788   -3.9352 H   0  0  0  0  0  0  0  0  0  0  0  0
    0.7514   -0.3443    1.0084 C   0  0  0  0  0  0  0  0  0  0  0  0
    1.9603   -0.3402    1.1985 O   0  0  0  0  0  0  0  0  0  0  0  0
   -0.0802    0.2020    1.9691 N   0  0  0  0  0  0  0  0  0  0  0  0
   -1.0740    0.0671    1.8129 H   0  0  0  0  0  0  0  0  0  0  0  0
    0.3778    0.5042    3.3195 C   0  0  0  0  0  0  0  0  0  0  0  0
    1.1879    1.2407    3.2945 H   0  0  0  0  0  0  0  0  0  0  0  0
   -0.4429    0.9162    3.9143 H   0  0  0  0  0  0  0  0  0  0  0  0
    0.7427   -0.4038    3.8114 H   0  0  0  0  0  0  0  0  0  0  0  0
  1  2  1  0  0  0  0
  2  3  1  0  0  0  0
  2  4  1  0  0  0  0
  2  5  1  0  0  0  0
  5  6  2  0  0  0  0
  5  7  1  0  0  0  0
  7  8  1  0  0  0  0
  7  9  1  0  0  0  0
  9 10  1  0  0  0  0
  9 11  1  0  0  0  0
  9 21  1  0  0  0  0
 11 12  1  0  0  0  0
 11 13  1  0  0  0  0
 11 14  1  0  0  0  0
 14 15  1  0  0  0  0
 14 16  1  0  0  0  0
 14 17  1  0  0  0  0
 17 18  2  0  0  0  0
 17 19  1  0  0  0  0
 19 20  1  0  0  0  0
 21 22  2  0  0  0  0
 21 23  1  0  0  0  0
 23 24  1  0  0  0  0
 23 25  1  0  0  0  0
 25 26  1  0  0  0  0
 25 27  1  0  0  0  0
 25 28  1  0  0  0  0
M  END
$$$$

  -OEChem-03222214033D

 28 27  0     1  0  0  0  0  0999 V2000
   -2.6598   -4.2550    0.3734 H   0  0  0  0  0  0  0  0  0  0  0  0
   -2.6530   -3.2786   -0.1195 C   0  0  0  0  0  0  0  0  0  0  0  0
   -3.4934   -2.6892    0.2550 H   0  0  0  0  0  0  0  0  0  0  0  0
   -2.7718   -3.4278   -1.1950 H   0  0  0  0  0  0  0  0  0  0  0  0
   -1.3474   -2.5604    0.1642 C   0  0  0  0  0  0  0  0  0  0  0  0
   -0.5295   -3.0619    0.9132 O   0  0  0  0  0  0  0  0  0  0  0  0
   -1.1035   -1.3321   -0.4172 N   0  0  0  0  0  0  0  0  0  0  0  0
   -1.7750   -1.0465   -1.1286 H   0  0  0  0  0  0  0  0  0  0  0  0
    0.2080   -0.6518   -0.3864 C   0  0  1  0  0  0  0  0  0  0  0  0
    0.9271   -1.3515   -0.8289 H   0  0  0  0  0  0  0  0  0  0  0  0
    0.2484    0.6408   -1.2433 C   0  0  0  0  0  0  0  0  0  0  0  0
    0.0012    1.4951   -0.6035 H   0  0  0  0  0  0  0  0  0  0  0  0
    1.2903    0.7754   -1.5558 H   0  0  0  0  0  0  0  0  0  0  0  0
   -0.6420    0.7458   -2.5077 C   0  0  0  0  0  0  0  0  0  0  0  0
   -1.6022    1.1792   -2.2155 H   0  0  0  0  0  0  0  0  0  0  0  0
   -0.1787    1.4406   -3.2145 H   0  0  0  0  0  0  0  0  0  0  0  0
   -0.9413   -0.5594   -3.2398 C   0  0  0  0  0  0  0  0  0  0  0  0
   -0.0700   -1.0465   -3.9322 O   0  0  0  0  0  0  0  0  0  0  0  0
   -2.1645   -1.1166   -3.0868 O   0  0  0  0  0  0  0  0  0  0  0  0
   -2.1516   -1.8859   -3.6814 H   0  0  0  0  0  0  0  0  0  0  0  0
    0.7391   -0.3363    1.0310 C   0  0  0  0  0  0  0  0  0  0  0  0
    1.9462   -0.2945    1.2276 O   0  0  0  0  0  0  0  0  0  0  0  0
   -0.1118    0.2029    1.9788 N   0  0  0  0  0  0  0  0  0  0  0  0
   -1.1017    0.0465    1.8182 H   0  0  0  0  0  0  0  0  0  0  0  0
    0.3312    0.5410    3.3257 C   0  0  0  0  0  0  0  0  0  0  0  0
    1.1299    1.2894    3.2911 H   0  0  0  0  0  0  0  0  0  0  0  0
   -0.5002    0.9527    3.9055 H   0  0  0  0  0  0  0  0  0  0  0  0
    0.7065   -0.3507    3.8392 H   0  0  0  0  0  0  0  0  0  0  0  0
  1  2  1  0  0  0  0
  2  3  1  0  0  0  0
  2  4  1  0  0  0  0
  2  5  1  0  0  0  0
  5  6  2  0  0  0  0
  5  7  1  0  0  0  0
  7  8  1  0  0  0  0
  7  9  1  0  0  0  0
  9 10  1  0  0  0  0
  9 11  1  0  0  0  0
  9 21  1  0  0  0  0
 11 12  1  0  0  0  0
 11 13  1  0  0  0  0
 11 14  1  0  0  0  0
 14 15  1  0  0  0  0
 14 16  1  0  0  0  0
 14 17  1  0  0  0  0
 17 18  2  0  0  0  0
 17 19  1  0  0  0  0
 19 20  1  0  0  0  0
 21 22  2  0  0  0  0
 21 23  1  0  0  0  0
 23 24  1  0  0  0  0
 23 25  1  0  0  0  0
 25 26  1  0  0  0  0
 25 27  1  0  0  0  0
 25 28  1  0  0  0  0
M  END
$$$$

  -OEChem-03222214033D

 28 27  0     1  0  0  0  0  0999 V2000
   -2.6264   -4.2912    0.5181 H   0  0  0  0  0  0  0  0  0  0  0  0
   -2.6256   -3.3326   -0.0089 C   0  0  0  0  0  0  0  0  0  0  0  0
   -3.4481   -2.7216    0.3702 H   0  0  0  0  0  0  0  0  0  0  0  0
   -2.7782   -3.5182   -1.0746 H   0  0  0  0  0  0  0  0  0  0  0  0
   -1.3051   -2.6188    0.2084 C   0  0  0  0  0  0  0  0  0  0  0  0
   -0.4511   -3.1216    0.9155 O   0  0  0  0  0  0  0  0  0  0  0  0
   -1.0869   -1.3919   -0.3852 N   0  0  0  0  0  0  0  0  0  0  0  0
   -1.8188   -1.0597   -1.0117 H   0  0  0  0  0  0  0  0  0  0  0  0
    0.2042   -0.6774   -0.3680 C   0  0  1  0  0  0  0  0  0  0  0  0
    0.9358   -1.3744   -0.7937 H   0  0  0  0  0  0  0  0  0  0  0  0
    0.2463    0.5979   -1.2537 C   0  0  0  0  0  0  0  0  0  0  0  0
   -0.0202    1.4548   -0.6249 H   0  0  0  0  0  0  0  0  0  0  0  0
    1.2955    0.7399   -1.5371 H   0  0  0  0  0  0  0  0  0  0  0  0
   -0.6064    0.7159   -2.5487 C   0  0  0  0  0  0  0  0  0  0  0  0
   -1.4376    1.3961   -2.3435 H   0  0  0  0  0  0  0  0  0  0  0  0
    0.0034    1.1885   -3.3245 H   0  0  0  0  0  0  0  0  0  0  0  0
   -1.2162   -0.5512   -3.1408 C   0  0  0  0  0  0  0  0  0  0  0  0
   -0.5348   -1.2268   -3.8859 O   0  0  0  0  0  0  0  0  0  0  0  0
   -2.4950   -0.8606   -2.8244 O   0  0  0  0  0  0  0  0  0  0  0  0
   -2.6975   -1.6335   -3.3784 H   0  0  0  0  0  0  0  0  0  0  0  0
    0.7265   -0.3330    1.0460 C   0  0  0  0  0  0  0  0  0  0  0  0
    1.9321   -0.2517    1.2409 O   0  0  0  0  0  0  0  0  0  0  0  0
   -0.1388    0.1933    1.9883 N   0  0  0  0  0  0  0  0  0  0  0  0
   -1.1253    0.0173    1.8285 H   0  0  0  0  0  0  0  0  0  0  0  0
    0.2953    0.5780    3.3256 C   0  0  0  0  0  0  0  0  0  0  0  0
    1.0719    1.3482    3.2705 H   0  0  0  0  0  0  0  0  0  0  0  0
   -0.5472    0.9801    3.8963 H   0  0  0  0  0  0  0  0  0  0  0  0
    0.6973   -0.2887    3.8608 H   0  0  0  0  0  0  0  0  0  0  0  0
  1  2  1  0  0  0  0
  2  3  1  0  0  0  0
  2  4  1  0  0  0  0
  2  5  1  0  0  0  0
  5  6  2  0  0  0  0
  5  7  1  0  0  0  0
  7  8  1  0  0  0  0
  7  9  1  0  0  0  0
  9 10  1  0  0  0  0
  9 11  1  0  0  0  0
  9 21  1  0  0  0  0
 11 12  1  0  0  0  0
 11 13  1  0  0  0  0
 11 14  1  0  0  0  0
 14 15  1  0  0  0  0
 14 16  1  0  0  0  0
 14 17  1  0  0  0  0
 17 18  2  0  0  0  0
 17 19  1  0  0  0  0
 19 20  1  0  0  0  0
 21 22  2  0  0  0  0
 21 23  1  0  0  0  0
 23 24  1  0  0  0  0
 23 25  1  0  0  0  0
 25 26  1  0  0  0  0
 25 27  1  0  0  0  0
 25 28  1  0  0  0  0
M  END
$$$$

  -OEChem-03222214033D

 28 27  0     1  0  0  0  0  0999 V2000
   -2.5731   -4.3191    0.6430 H   0  0  0  0  0  0  0  0  0  0  0  0
   -2.5975   -3.3674    0.1043 C   0  0  0  0  0  0  0  0  0  0  0  0
   -3.3939   -2.7470    0.5219 H   0  0  0  0  0  0  0  0  0  0  0  0
   -2.8113   -3.5657   -0.9487 H   0  0  0  0  0  0  0  0  0  0  0  0
   -1.2624   -2.6598    0.2363 C   0  0  0  0  0  0  0  0  0  0  0  0
   -0.3654   -3.1682    0.8838 O   0  0  0  0  0  0  0  0  0  0  0  0
   -1.0767   -1.4314   -0.3651 N   0  0  0  0  0  0  0  0  0  0  0  0
   -1.8653   -1.0535   -0.8880 H   0  0  0  0  0  0  0  0  0  0  0  0
    0.1946   -0.6860   -0.3667 C   0  0  1  0  0  0  0  0  0  0  0  0
    0.9356   -1.3768   -0.7865 H   0  0  0  0  0  0  0  0  0  0  0  0
    0.2274    0.5762   -1.2731 C   0  0  0  0  0  0  0  0  0  0  0  0
   -0.0782    1.4227   -0.6482 H   0  0  0  0  0  0  0  0  0  0  0  0
    1.2777    0.7527   -1.5318 H   0  0  0  0  0  0  0  0  0  0  0  0
   -0.6085    0.6916   -2.5832 C   0  0  0  0  0  0  0  0  0  0  0  0
   -1.2496    1.5733   -2.4998 H   0  0  0  0  0  0  0  0  0  0  0  0
    0.0870    0.8890   -3.4047 H   0  0  0  0  0  0  0  0  0  0  0  0
   -1.5031   -0.4625   -3.0252 C   0  0  0  0  0  0  0  0  0  0  0  0
   -1.0717   -1.2513   -3.8429 O   0  0  0  0  0  0  0  0  0  0  0  0
   -2.7526   -0.5423   -2.5118 O   0  0  0  0  0  0  0  0  0  0  0  0
   -3.1729   -1.2613   -3.0135 H   0  0  0  0  0  0  0  0  0  0  0  0
    0.7201   -0.3223    1.0411 C   0  0  0  0  0  0  0  0  0  0  0  0
    1.9249   -0.2153    1.2274 O   0  0  0  0  0  0  0  0  0  0  0  0
   -0.1496    0.1867    1.9887 N   0  0  0  0  0  0  0  0  0  0  0  0
   -1.1344   -0.0013    1.8330 H   0  0  0  0  0  0  0  0  0  0  0  0
    0.2852    0.5830    3.3222 C   0  0  0  0  0  0  0  0  0  0  0  0
    1.0471    1.3674    3.2610 H   0  0  0  0  0  0  0  0  0  0  0  0
   -0.5613    0.9710    3.8967 H   0  0  0  0  0  0  0  0  0  0  0  0
    0.7058   -0.2751    3.8571 H   0  0  0  0  0  0  0  0  0  0  0  0
  1  2  1  0  0  0  0
  2  3  1  0  0  0  0
  2  4  1  0  0  0  0
  2  5  1  0  0  0  0
  5  6  2  0  0  0  0
  5  7  1  0  0  0  0
  7  8  1  0  0  0  0
  7  9  1  0  0  0  0
  9 10  1  0  0  0  0
  9 11  1  0  0  0  0
  9 21  1  0  0  0  0
 11 12  1  0  0  0  0
 11 13  1  0  0  0  0
 11 14  1  0  0  0  0
 14 15  1  0  0  0  0
 14 16  1  0  0  0  0
 14 17  1  0  0  0  0
 17 18  2  0  0  0  0
 17 19  1  0  0  0  0
 19 20  1  0  0  0  0
 21 22  2  0  0  0  0
 21 23  1  0  0  0  0
 23 24  1  0  0  0  0
 23 25  1  0  0  0  0
 25 26  1  0  0  0  0
 25 27  1  0  0  0  0
 25 28  1  0  0  0  0
M  END
$$$$

  -OEChem-03222214033D

 28 27  0     1  0  0  0  0  0999 V2000
   -2.4666   -4.3518    0.7656 H   0  0  0  0  0  0  0  0  0  0  0  0
   -2.5365   -3.4008    0.2297 C   0  0  0  0  0  0  0  0  0  0  0  0
   -3.2985   -2.7818    0.7090 H   0  0  0  0  0  0  0  0  0  0  0  0
   -2.8328   -3.6007   -0.8029 H   0  0  0  0  0  0  0  0  0  0  0  0
   -1.1969   -2.6900    0.2533 C   0  0  0  0  0  0  0  0  0  0  0  0
   -0.2468   -3.1981    0.8203 O   0  0  0  0  0  0  0  0  0  0  0  0
   -1.0665   -1.4577   -0.3542 N   0  0  0  0  0  0  0  0  0  0  0  0
   -1.9101   -1.0508   -0.7541 H   0  0  0  0  0  0  0  0  0  0  0  0
    0.1810   -0.6775   -0.4025 C   0  0  1  0  0  0  0  0  0  0  0  0
    0.9252   -1.3518   -0.8427 H   0  0  0  0  0  0  0  0  0  0  0  0
    0.1597    0.5795   -1.3177 C   0  0  0  0  0  0  0  0  0  0  0  0
   -0.1746    1.4075   -0.6824 H   0  0  0  0  0  0  0  0  0  0  0  0
    1.1965    0.8041   -1.5929 H   0  0  0  0  0  0  0  0  0  0  0  0
   -0.7130    0.6747   -2.6058 C   0  0  0  0  0  0  0  0  0  0  0  0
   -1.1461    1.6773   -2.6524 H   0  0  0  0  0  0  0  0  0  0  0  0
   -0.0329    0.5878   -3.4592 H   0  0  0  0  0  0  0  0  0  0  0  0
   -1.8450   -0.3178   -2.8558 C   0  0  0  0  0  0  0  0  0  0  0  0
   -1.7157   -1.1397   -3.7419 O   0  0  0  0  0  0  0  0  0  0  0  0
   -2.9673   -0.2148   -2.1067 O   0  0  0  0  0  0  0  0  0  0  0  0
   -3.5925   -0.8335   -2.5205 H   0  0  0  0  0  0  0  0  0  0  0  0
    0.7432   -0.2993    0.9871 C   0  0  0  0  0  0  0  0  0  0  0  0
    1.9501   -0.1621    1.1347 O   0  0  0  0  0  0  0  0  0  0  0  0
   -0.1081    0.1847    1.9644 N   0  0  0  0  0  0  0  0  0  0  0  0
   -1.0944   -0.0152    1.8360 H   0  0  0  0  0  0  0  0  0  0  0  0
    0.3580    0.5977    3.2825 C   0  0  0  0  0  0  0  0  0  0  0  0
    1.1000    1.3984    3.1943 H   0  0  0  0  0  0  0  0  0  0  0  0
   -0.4791    0.9700    3.8806 H   0  0  0  0  0  0  0  0  0  0  0  0
    0.8134   -0.2477    3.8089 H   0  0  0  0  0  0  0  0  0  0  0  0
  1  2  1  0  0  0  0
  2  3  1  0  0  0  0
  2  4  1  0  0  0  0
  2  5  1  0  0  0  0
  5  6  2  0  0  0  0
  5  7  1  0  0  0  0
  7  8  1  0  0  0  0
  7  9  1  0  0  0  0
  9 10  1  0  0  0  0
  9 11  1  0  0  0  0
  9 21  1  0  0  0  0
 11 12  1  0  0  0  0
 11 13  1  0  0  0  0
 11 14  1  0  0  0  0
 14 15  1  0  0  0  0
 14 16  1  0  0  0  0
 14 17  1  0  0  0  0
 17 18  2  0  0  0  0
 17 19  1  0  0  0  0
 19 20  1  0  0  0  0
 21 22  2  0  0  0  0
 21 23  1  0  0  0  0
 23 24  1  0  0  0  0
 23 25  1  0  0  0  0
 25 26  1  0  0  0  0
 25 27  1  0  0  0  0
 25 28  1  0  0  0  0
M  END
$$$$

  -OEChem-03222214033D

 28 27  0     1  0  0  0  0  0999 V2000
   -2.3395   -4.3639    0.9140 H   0  0  0  0  0  0  0  0  0  0  0  0
   -2.4474   -3.4351    0.3464 C   0  0  0  0  0  0  0  0  0  0  0  0
   -3.2051   -2.8137    0.8293 H   0  0  0  0  0  0  0  0  0  0  0  0
   -2.7746   -3.6795   -0.6673 H   0  0  0  0  0  0  0  0  0  0  0  0
   -1.1231   -2.6974    0.2969 C   0  0  0  0  0  0  0  0  0  0  0  0
   -0.1383   -3.1745    0.8308 O   0  0  0  0  0  0  0  0  0  0  0  0
   -1.0439   -1.4778   -0.3441 N   0  0  0  0  0  0  0  0  0  0  0  0
   -1.9187   -1.0786   -0.6772 H   0  0  0  0  0  0  0  0  0  0  0  0
    0.1718   -0.6516   -0.4159 C   0  0  1  0  0  0  0  0  0  0  0  0
    0.9411   -1.3090   -0.8379 H   0  0  0  0  0  0  0  0  0  0  0  0
    0.1041    0.5765   -1.3671 C   0  0  0  0  0  0  0  0  0  0  0  0
   -0.2708    1.4065   -0.7582 H   0  0  0  0  0  0  0  0  0  0  0  0
    1.1297    0.8391   -1.6504 H   0  0  0  0  0  0  0  0  0  0  0  0
   -0.7744    0.5874   -2.6522 C   0  0  0  0  0  0  0  0  0  0  0  0
   -1.0277    1.6248   -2.8865 H   0  0  0  0  0  0  0  0  0  0  0  0
   -0.1440    0.2222   -3.4691 H   0  0  0  0  0  0  0  0  0  0  0  0
   -2.0667   -0.2234   -2.7092 C   0  0  0  0  0  0  0  0  0  0  0  0
   -2.2076   -1.0340   -3.6041 O   0  0  0  0  0  0  0  0  0  0  0  0
   -3.0260    0.0270   -1.7880 O   0  0  0  0  0  0  0  0  0  0  0  0
   -3.7984   -0.4758   -2.0971 H   0  0  0  0  0  0  0  0  0  0  0  0
    0.7211   -0.2140    0.9611 C   0  0  0  0  0  0  0  0  0  0  0  0
    1.9230   -0.0349    1.1042 O   0  0  0  0  0  0  0  0  0  0  0  0
   -0.1442    0.2639    1.9290 N   0  0  0  0  0  0  0  0  0  0  0  0
   -1.1272    0.0482    1.8016 H   0  0  0  0  0  0  0  0  0  0  0  0
    0.3103    0.7369    3.2308 C   0  0  0  0  0  0  0  0  0  0  0  0
    1.0119    1.5697    3.1137 H   0  0  0  0  0  0  0  0  0  0  0  0
   -0.5393    1.0853    3.8256 H   0  0  0  0  0  0  0  0  0  0  0  0
    0.8102   -0.0701    3.7768 H   0  0  0  0  0  0  0  0  0  0  0  0
  1  2  1  0  0  0  0
  2  3  1  0  0  0  0
  2  4  1  0  0  0  0
  2  5  1  0  0  0  0
  5  6  2  0  0  0  0
  5  7  1  0  0  0  0
  7  8  1  0  0  0  0
  7  9  1  0  0  0  0
  9 10  1  0  0  0  0
  9 11  1  0  0  0  0
  9 21  1  0  0  0  0
 11 12  1  0  0  0  0
 11 13  1  0  0  0  0
 11 14  1  0  0  0  0
 14 15  1  0  0  0  0
 14 16  1  0  0  0  0
 14 17  1  0  0  0  0
 17 18  2  0  0  0  0
 17 19  1  0  0  0  0
 19 20  1  0  0  0  0
 21 22  2  0  0  0  0
 21 23  1  0  0  0  0
 23 24  1  0  0  0  0
 23 25  1  0  0  0  0
 25 26  1  0  0  0  0
 25 27  1  0  0  0  0
 25 28  1  0  0  0  0
M  END
$$$$

  -OEChem-03222214033D

 28 27  0     1  0  0  0  0  0999 V2000
   -2.4800   -4.2769    0.6678 H   0  0  0  0  0  0  0  0  0  0  0  0
   -2.5625   -3.2890    0.2056 C   0  0  0  0  0  0  0  0  0  0  0  0
   -3.1971   -2.6590    0.8332 H   0  0  0  0  0  0  0  0  0  0  0  0
   -3.0267   -3.3977   -0.7776 H   0  0  0  0  0  0  0  0  0  0  0  0
   -1.1879   -2.6640    0.0617 C   0  0  0  0  0  0  0  0  0  0  0  0
   -0.1959   -3.2878    0.3935 O   0  0  0  0  0  0  0  0  0  0  0  0
   -1.0696   -1.3844   -0.4405 N   0  0  0  0  0  0  0  0  0  0  0  0
   -1.9408   -0.8639   -0.5430 H   0  0  0  0  0  0  0  0  0  0  0  0
    0.1837   -0.6116   -0.4314 C   0  0  1  0  0  0  0  0  0  0  0  0
    0.9238   -1.2346   -0.9469 H   0  0  0  0  0  0  0  0  0  0  0  0
    0.1215    0.7282   -1.2141 C   0  0  0  0  0  0  0  0  0  0  0  0
   -0.1792    1.5137   -0.5116 H   0  0  0  0  0  0  0  0  0  0  0  0
    1.1394    0.9700   -1.5397 H   0  0  0  0  0  0  0  0  0  0  0  0
   -0.8254    0.8414   -2.4384 C   0  0  0  0  0  0  0  0  0  0  0  0
   -0.6974    1.8320   -2.8823 H   0  0  0  0  0  0  0  0  0  0  0  0
   -0.4988    0.1084   -3.1811 H   0  0  0  0  0  0  0  0  0  0  0  0
   -2.3264    0.6329   -2.2284 C   0  0  0  0  0  0  0  0  0  0  0  0
   -2.8049    0.7129   -1.1078 O   0  0  0  0  0  0  0  0  0  0  0  0
   -3.0657    0.3778   -3.3281 O   0  0  0  0  0  0  0  0  0  0  0  0
   -3.9838    0.3169   -3.0227 H   0  0  0  0  0  0  0  0  0  0  0  0
    0.7566   -0.3628    0.9816 C   0  0  0  0  0  0  0  0  0  0  0  0
    1.9672   -0.2964    1.1471 O   0  0  0  0  0  0  0  0  0  0  0  0
   -0.0829    0.0395    2.0049 N   0  0  0  0  0  0  0  0  0  0  0  0
   -1.0810   -0.0037    1.8259 H   0  0  0  0  0  0  0  0  0  0  0  0
    0.3871    0.3495    3.3489 C   0  0  0  0  0  0  0  0  0  0  0  0
    1.0921    1.1871    3.3250 H   0  0  0  0  0  0  0  0  0  0  0  0
   -0.4551    0.6253    3.9907 H   0  0  0  0  0  0  0  0  0  0  0  0
    0.8874   -0.5202    3.7880 H   0  0  0  0  0  0  0  0  0  0  0  0
  1  2  1  0  0  0  0
  2  3  1  0  0  0  0
  2  4  1  0  0  0  0
  2  5  1  0  0  0  0
  5  6  2  0  0  0  0
  5  7  1  0  0  0  0
  7  8  1  0  0  0  0
  7  9  1  0  0  0  0
  9 10  1  0  0  0  0
  9 11  1  0  0  0  0
  9 21  1  0  0  0  0
 11 12  1  0  0  0  0
 11 13  1  0  0  0  0
 11 14  1  0  0  0  0
 14 15  1  0  0  0  0
 14 16  1  0  0  0  0
 14 17  1  0  0  0  0
 17 18  2  0  0  0  0
 17 19  1  0  0  0  0
 19 20  1  0  0  0  0
 21 22  2  0  0  0  0
 21 23  1  0  0  0  0
 23 24  1  0  0  0  0
 23 25  1  0  0  0  0
 25 26  1  0  0  0  0
 25 27  1  0  0  0  0
 25 28  1  0  0  0  0
M  END
$$$$

  -OEChem-03222214033D

 28 27  0     1  0  0  0  0  0999 V2000
   -2.5039   -4.2365    0.6482 H   0  0  0  0  0  0  0  0  0  0  0  0
   -2.5700   -3.2594    0.1612 C   0  0  0  0  0  0  0  0  0  0  0  0
   -3.2126   -2.6104    0.7608 H   0  0  0  0  0  0  0  0  0  0  0  0
   -3.0149   -3.3884   -0.8283 H   0  0  0  0  0  0  0  0  0  0  0  0
   -1.1884   -2.6469    0.0306 C   0  0  0  0  0  0  0  0  0  0  0  0
   -0.2055   -3.2798    0.3727 O   0  0  0  0  0  0  0  0  0  0  0  0
   -1.0516   -1.3697   -0.4728 N   0  0  0  0  0  0  0  0  0  0  0  0
   -1.9159   -0.8393   -0.5844 H   0  0  0  0  0  0  0  0  0  0  0  0
    0.2086   -0.6073   -0.4402 C   0  0  1  0  0  0  0  0  0  0  0  0
    0.9558   -1.2284   -0.9477 H   0  0  0  0  0  0  0  0  0  0  0  0
    0.1374    0.7319   -1.2179 C   0  0  0  0  0  0  0  0  0  0  0  0
   -0.1530    1.5312   -0.5269 H   0  0  0  0  0  0  0  0  0  0  0  0
    1.1512    0.9659   -1.5608 H   0  0  0  0  0  0  0  0  0  0  0  0
   -0.8201    0.7880   -2.4346 C   0  0  0  0  0  0  0  0  0  0  0  0
   -0.5572    1.6660   -3.0306 H   0  0  0  0  0  0  0  0  0  0  0  0
   -0.6497   -0.0922   -3.0608 H   0  0  0  0  0  0  0  0  0  0  0  0
   -2.3207    0.8853   -2.1433 C   0  0  0  0  0  0  0  0  0  0  0  0
   -2.7349    0.8187   -0.9964 O   0  0  0  0  0  0  0  0  0  0  0  0
   -3.1321    1.0391   -3.2102 O   0  0  0  0  0  0  0  0  0  0  0  0
   -4.0303    1.1071   -2.8518 H   0  0  0  0  0  0  0  0  0  0  0  0
    0.7582   -0.3579    0.9813 C   0  0  0  0  0  0  0  0  0  0  0  0
    1.9660   -0.3016    1.1684 O   0  0  0  0  0  0  0  0  0  0  0  0
   -0.0973    0.0555    1.9866 N   0  0  0  0  0  0  0  0  0  0  0  0
   -1.0922    0.0224    1.7871 H   0  0  0  0  0  0  0  0  0  0  0  0
    0.3492    0.3731    3.3369 C   0  0  0  0  0  0  0  0  0  0  0  0
    1.1032    1.1671    3.3158 H   0  0  0  0  0  0  0  0  0  0  0  0
   -0.4942    0.7158    3.9439 H   0  0  0  0  0  0  0  0  0  0  0  0
    0.7835   -0.5125    3.8127 H   0  0  0  0  0  0  0  0  0  0  0  0
  1  2  1  0  0  0  0
  2  3  1  0  0  0  0
  2  4  1  0  0  0  0
  2  5  1  0  0  0  0
  5  6  2  0  0  0  0
  5  7  1  0  0  0  0
  7  8  1  0  0  0  0
  7  9  1  0  0  0  0
  9 10  1  0  0  0  0
  9 11  1  0  0  0  0
  9 21  1  0  0  0  0
 11 12  1  0  0  0  0
 11 13  1  0  0  0  0
 11 14  1  0  0  0  0
 14 15  1  0  0  0  0
 14 16  1  0  0  0  0
 14 17  1  0  0  0  0
 17 18  2  0  0  0  0
 17 19  1  0  0  0  0
 19 20  1  0  0  0  0
 21 22  2  0  0  0  0
 21 23  1  0  0  0  0
 23 24  1  0  0  0  0
 23 25  1  0  0  0  0
 25 26  1  0  0  0  0
 25 27  1  0  0  0  0
 25 28  1  0  0  0  0
M  END
$$$$

  -OEChem-03222214033D

 28 27  0     1  0  0  0  0  0999 V2000
   -2.5015   -4.2542    0.6052 H   0  0  0  0  0  0  0  0  0  0  0  0
   -2.5611   -3.2695    0.1333 C   0  0  0  0  0  0  0  0  0  0  0  0
   -3.2220   -2.6335    0.7270 H   0  0  0  0  0  0  0  0  0  0  0  0
   -2.9805   -3.3836   -0.8690 H   0  0  0  0  0  0  0  0  0  0  0  0
   -1.1806   -2.6472    0.0483 C   0  0  0  0  0  0  0  0  0  0  0  0
   -0.2078   -3.2576    0.4541 O   0  0  0  0  0  0  0  0  0  0  0  0
   -1.0348   -1.3811   -0.4786 N   0  0  0  0  0  0  0  0  0  0  0  0
   -1.8976   -0.8725   -0.6782 H   0  0  0  0  0  0  0  0  0  0  0  0
    0.2204   -0.6099   -0.4470 C   0  0  1  0  0  0  0  0  0  0  0  0
    0.9793   -1.2314   -0.9363 H   0  0  0  0  0  0  0  0  0  0  0  0
    0.1262    0.7103   -1.2512 C   0  0  0  0  0  0  0  0  0  0  0  0
   -0.1734    1.5251   -0.5822 H   0  0  0  0  0  0  0  0  0  0  0  0
    1.1353    0.9491   -1.6049 H   0  0  0  0  0  0  0  0  0  0  0  0
   -0.8352    0.6979   -2.4648 C   0  0  0  0  0  0  0  0  0  0  0  0
   -0.4511    1.4063   -3.2045 H   0  0  0  0  0  0  0  0  0  0  0  0
   -0.8389   -0.2871   -2.9391 H   0  0  0  0  0  0  0  0  0  0  0  0
   -2.2736    1.1168   -2.1504 C   0  0  0  0  0  0  0  0  0  0  0  0
   -2.8137    0.7015   -1.1374 O   0  0  0  0  0  0  0  0  0  0  0  0
   -2.8878    1.9330   -3.0323 O   0  0  0  0  0  0  0  0  0  0  0  0
   -3.7733    2.0923   -2.6708 H   0  0  0  0  0  0  0  0  0  0  0  0
    0.7517   -0.3249    0.9747 C   0  0  0  0  0  0  0  0  0  0  0  0
    1.9568   -0.2450    1.1713 O   0  0  0  0  0  0  0  0  0  0  0  0
   -0.1188    0.1052    1.9599 N   0  0  0  0  0  0  0  0  0  0  0  0
   -1.1107    0.0161    1.7625 H   0  0  0  0  0  0  0  0  0  0  0  0
    0.3094    0.4352    3.3134 C   0  0  0  0  0  0  0  0  0  0  0  0
    1.0441    1.2471    3.2966 H   0  0  0  0  0  0  0  0  0  0  0  0
   -0.5468    0.7581    3.9133 H   0  0  0  0  0  0  0  0  0  0  0  0
    0.7614   -0.4386    3.7945 H   0  0  0  0  0  0  0  0  0  0  0  0
  1  2  1  0  0  0  0
  2  3  1  0  0  0  0
  2  4  1  0  0  0  0
  2  5  1  0  0  0  0
  5  6  2  0  0  0  0
  5  7  1  0  0  0  0
  7  8  1  0  0  0  0
  7  9  1  0  0  0  0
  9 10  1  0  0  0  0
  9 11  1  0  0  0  0
  9 21  1  0  0  0  0
 11 12  1  0  0  0  0
 11 13  1  0  0  0  0
 11 14  1  0  0  0  0
 14 15  1  0  0  0  0
 14 16  1  0  0  0  0
 14 17  1  0  0  0  0
 17 18  2  0  0  0  0
 17 19  1  0  0  0  0
 19 20  1  0  0  0  0
 21 22  2  0  0  0  0
 21 23  1  0  0  0  0
 23 24  1  0  0  0  0
 23 25  1  0  0  0  0
 25 26  1  0  0  0  0
 25 27  1  0  0  0  0
 25 28  1  0  0  0  0
M  END
$$$$

  -OEChem-03222214033D

 28 27  0     1  0  0  0  0  0999 V2000
   -2.5240   -4.2479    0.5580 H   0  0  0  0  0  0  0  0  0  0  0  0
   -2.5743   -3.2628    0.0859 C   0  0  0  0  0  0  0  0  0  0  0  0
   -3.2629   -2.6337    0.6551 H   0  0  0  0  0  0  0  0  0  0  0  0
   -2.9541   -3.3790   -0.9320 H   0  0  0  0  0  0  0  0  0  0  0  0
   -1.1971   -2.6285    0.0546 C   0  0  0  0  0  0  0  0  0  0  0  0
   -0.2386   -3.2220    0.5156 O   0  0  0  0  0  0  0  0  0  0  0  0
   -1.0359   -1.3721   -0.4909 N   0  0  0  0  0  0  0  0  0  0  0  0
   -1.8873   -0.8786   -0.7654 H   0  0  0  0  0  0  0  0  0  0  0  0
    0.2261   -0.6063   -0.4581 C   0  0  1  0  0  0  0  0  0  0  0  0
    0.9885   -1.2317   -0.9370 H   0  0  0  0  0  0  0  0  0  0  0  0
    0.1082    0.6951   -1.2839 C   0  0  0  0  0  0  0  0  0  0  0  0
   -0.1981    1.5193   -0.6293 H   0  0  0  0  0  0  0  0  0  0  0  0
    1.1092    0.9451   -1.6524 H   0  0  0  0  0  0  0  0  0  0  0  0
   -0.8632    0.6118   -2.4864 C   0  0  0  0  0  0  0  0  0  0  0  0
   -0.3952    1.1123   -3.3389 H   0  0  0  0  0  0  0  0  0  0  0  0
   -1.0545   -0.4166   -2.8030 H   0  0  0  0  0  0  0  0  0  0  0  0
   -2.1704    1.3369   -2.2017 C   0  0  0  0  0  0  0  0  0  0  0  0
   -2.9135    0.8323   -1.3747 O   0  0  0  0  0  0  0  0  0  0  0  0
   -2.4433    2.4875   -2.8521 O   0  0  0  0  0  0  0  0  0  0  0  0
   -3.3063    2.7787   -2.5198 H   0  0  0  0  0  0  0  0  0  0  0  0
    0.7507   -0.2964    0.9607 C   0  0  0  0  0  0  0  0  0  0  0  0
    1.9548   -0.2147    1.1606 O   0  0  0  0  0  0  0  0  0  0  0  0
   -0.1238    0.1578    1.9314 N   0  0  0  0  0  0  0  0  0  0  0  0
   -1.1140    0.0452    1.7389 H   0  0  0  0  0  0  0  0  0  0  0  0
    0.2992    0.5057    3.2819 C   0  0  0  0  0  0  0  0  0  0  0  0
    1.0441    1.3082    3.2566 H   0  0  0  0  0  0  0  0  0  0  0  0
   -0.5570    0.8496    3.8700 H   0  0  0  0  0  0  0  0  0  0  0  0
    0.7368   -0.3654    3.7810 H   0  0  0  0  0  0  0  0  0  0  0  0
  1  2  1  0  0  0  0
  2  3  1  0  0  0  0
  2  4  1  0  0  0  0
  2  5  1  0  0  0  0
  5  6  2  0  0  0  0
  5  7  1  0  0  0  0
  7  8  1  0  0  0  0
  7  9  1  0  0  0  0
  9 10  1  0  0  0  0
  9 11  1  0  0  0  0
  9 21  1  0  0  0  0
 11 12  1  0  0  0  0
 11 13  1  0  0  0  0
 11 14  1  0  0  0  0
 14 15  1  0  0  0  0
 14 16  1  0  0  0  0
 14 17  1  0  0  0  0
 17 18  2  0  0  0  0
 17 19  1  0  0  0  0
 19 20  1  0  0  0  0
 21 22  2  0  0  0  0
 21 23  1  0  0  0  0
 23 24  1  0  0  0  0
 23 25  1  0  0  0  0
 25 26  1  0  0  0  0
 25 27  1  0  0  0  0
 25 28  1  0  0  0  0
M  END
$$$$

  -OEChem-03222214033D

 28 27  0     1  0  0  0  0  0999 V2000
   -2.5060   -4.2894    0.5766 H   0  0  0  0  0  0  0  0  0  0  0  0
   -2.5773   -3.3013    0.1130 C   0  0  0  0  0  0  0  0  0  0  0  0
   -3.2684   -2.6883    0.6964 H   0  0  0  0  0  0  0  0  0  0  0  0
   -2.9686   -3.4162   -0.9006 H   0  0  0  0  0  0  0  0  0  0  0  0
   -1.2098   -2.6460    0.0694 C   0  0  0  0  0  0  0  0  0  0  0  0
   -0.2400   -3.2263    0.5226 O   0  0  0  0  0  0  0  0  0  0  0  0
   -1.0695   -1.3861   -0.4763 N   0  0  0  0  0  0  0  0  0  0  0  0
   -1.9243   -0.9094   -0.7581 H   0  0  0  0  0  0  0  0  0  0  0  0
    0.1878   -0.6116   -0.4640 C   0  0  1  0  0  0  0  0  0  0  0  0
    0.9435   -1.2380   -0.9526 H   0  0  0  0  0  0  0  0  0  0  0  0
    0.0703    0.6876   -1.2939 C   0  0  0  0  0  0  0  0  0  0  0  0
   -0.2411    1.4986   -0.6251 H   0  0  0  0  0  0  0  0  0  0  0  0
    1.0705    0.9527   -1.6545 H   0  0  0  0  0  0  0  0  0  0  0  0
   -0.9028    0.6318   -2.5003 C   0  0  0  0  0  0  0  0  0  0  0  0
   -0.3392    0.8733   -3.4059 H   0  0  0  0  0  0  0  0  0  0  0  0
   -1.3318   -0.3573   -2.6696 H   0  0  0  0  0  0  0  0  0  0  0  0
   -2.0178    1.6565   -2.3654 C   0  0  0  0  0  0  0  0  0  0  0  0
   -2.9056    1.4035   -1.5686 O   0  0  0  0  0  0  0  0  0  0  0  0
   -1.9710    2.7855   -3.1034 O   0  0  0  0  0  0  0  0  0  0  0  0
   -2.7589    3.2923   -2.8534 H   0  0  0  0  0  0  0  0  0  0  0  0
    0.7398   -0.2998    0.9448 C   0  0  0  0  0  0  0  0  0  0  0  0
    1.9476   -0.2069    1.1164 O   0  0  0  0  0  0  0  0  0  0  0  0
   -0.1141    0.1475    1.9372 N   0  0  0  0  0  0  0  0  0  0  0  0
   -1.1086    0.0370    1.7681 H   0  0  0  0  0  0  0  0  0  0  0  0
    0.3408    0.5159    3.2721 C   0  0  0  0  0  0  0  0  0  0  0  0
    1.0646    1.3359    3.2183 H   0  0  0  0  0  0  0  0  0  0  0  0
   -0.5054    0.8435    3.8834 H   0  0  0  0  0  0  0  0  0  0  0  0
    0.8144   -0.3402    3.7643 H   0  0  0  0  0  0  0  0  0  0  0  0
  1  2  1  0  0  0  0
  2  3  1  0  0  0  0
  2  4  1  0  0  0  0
  2  5  1  0  0  0  0
  5  6  2  0  0  0  0
  5  7  1  0  0  0  0
  7  8  1  0  0  0  0
  7  9  1  0  0  0  0
  9 10  1  0  0  0  0
  9 11  1  0  0  0  0
  9 21  1  0  0  0  0
 11 12  1  0  0  0  0
 11 13  1  0  0  0  0
 11 14  1  0  0  0  0
 14 15  1  0  0  0  0
 14 16  1  0  0  0  0
 14 17  1  0  0  0  0
 17 18  2  0  0  0  0
 17 19  1  0  0  0  0
 19 20  1  0  0  0  0
 21 22  2  0  0  0  0
 21 23  1  0  0  0  0
 23 24  1  0  0  0  0
 23 25  1  0  0  0  0
 25 26  1  0  0  0  0
 25 27  1  0  0  0  0
 25 28  1  0  0  0  0
M  END
$$$$

  -OEChem-03222214033D

 28 27  0     1  0  0  0  0  0999 V2000
   -2.4932   -4.3329    0.5676 H   0  0  0  0  0  0  0  0  0  0  0  0
   -2.5835   -3.3356    0.1276 C   0  0  0  0  0  0  0  0  0  0  0  0
   -3.2774   -2.7460    0.7313 H   0  0  0  0  0  0  0  0  0  0  0  0
   -2.9832   -3.4339   -0.8846 H   0  0  0  0  0  0  0  0  0  0  0  0
   -1.2265   -2.6587    0.0860 C   0  0  0  0  0  0  0  0  0  0  0  0
   -0.2479   -3.2251    0.5370 O   0  0  0  0  0  0  0  0  0  0  0  0
   -1.1060   -1.3957   -0.4582 N   0  0  0  0  0  0  0  0  0  0  0  0
   -1.9658   -0.9363   -0.7469 H   0  0  0  0  0  0  0  0  0  0  0  0
    0.1462   -0.6137   -0.4706 C   0  0  1  0  0  0  0  0  0  0  0  0
    0.8930   -1.2425   -0.9695 H   0  0  0  0  0  0  0  0  0  0  0  0
    0.0339    0.6859   -1.3039 C   0  0  0  0  0  0  0  0  0  0  0  0
   -0.2899    1.4806   -0.6214 H   0  0  0  0  0  0  0  0  0  0  0  0
    1.0326    0.9683   -1.6557 H   0  0  0  0  0  0  0  0  0  0  0  0
   -0.9426    0.6600   -2.5096 C   0  0  0  0  0  0  0  0  0  0  0  0
   -0.3606    0.5945   -3.4332 H   0  0  0  0  0  0  0  0  0  0  0  0
   -1.6127   -0.1996   -2.5065 H   0  0  0  0  0  0  0  0  0  0  0  0
   -1.7996    1.9165   -2.5595 C   0  0  0  0  0  0  0  0  0  0  0  0
   -2.7698    1.9636   -1.8238 O   0  0  0  0  0  0  0  0  0  0  0  0
   -1.4442    2.9157   -3.3939 O   0  0  0  0  0  0  0  0  0  0  0  0
   -2.1065    3.6112   -3.2599 H   0  0  0  0  0  0  0  0  0  0  0  0
    0.7283   -0.3027    0.9268 C   0  0  0  0  0  0  0  0  0  0  0  0
    1.9388   -0.1977    1.0691 O   0  0  0  0  0  0  0  0  0  0  0  0
   -0.1043    0.1362    1.9406 N   0  0  0  0  0  0  0  0  0  0  0  0
   -1.1013    0.0126    1.7998 H   0  0  0  0  0  0  0  0  0  0  0  0
    0.3824    0.5213    3.2593 C   0  0  0  0  0  0  0  0  0  0  0  0
    1.0780    1.3635    3.1801 H   0  0  0  0  0  0  0  0  0  0  0  0
   -0.4529    0.8232    3.8983 H   0  0  0  0  0  0  0  0  0  0  0  0
    0.8993   -0.3182    3.7364 H   0  0  0  0  0  0  0  0  0  0  0  0
  1  2  1  0  0  0  0
  2  3  1  0  0  0  0
  2  4  1  0  0  0  0
  2  5  1  0  0  0  0
  5  6  2  0  0  0  0
  5  7  1  0  0  0  0
  7  8  1  0  0  0  0
  7  9  1  0  0  0  0
  9 10  1  0  0  0  0
  9 11  1  0  0  0  0
  9 21  1  0  0  0  0
 11 12  1  0  0  0  0
 11 13  1  0  0  0  0
 11 14  1  0  0  0  0
 14 15  1  0  0  0  0
 14 16  1  0  0  0  0
 14 17  1  0  0  0  0
 17 18  2  0  0  0  0
 17 19  1  0  0  0  0
 19 20  1  0  0  0  0
 21 22  2  0  0  0  0
 21 23  1  0  0  0  0
 23 24  1  0  0  0  0
 23 25  1  0  0  0  0
 25 26  1  0  0  0  0
 25 27  1  0  0  0  0
 25 28  1  0  0  0  0
M  END
$$$$

  -OEChem-03222214033D

 28 27  0     1  0  0  0  0  0999 V2000
   -2.5143   -4.2988    0.4431 H   0  0  0  0  0  0  0  0  0  0  0  0
   -2.5600   -3.3314   -0.0655 C   0  0  0  0  0  0  0  0  0  0  0  0
   -3.3387   -2.7248    0.4027 H   0  0  0  0  0  0  0  0  0  0  0  0
   -2.8170   -3.4985   -1.1143 H   0  0  0  0  0  0  0  0  0  0  0  0
   -1.2200   -2.6274    0.0340 C   0  0  0  0  0  0  0  0  0  0  0  0
   -0.2915   -3.1655    0.6082 O   0  0  0  0  0  0  0  0  0  0  0  0
   -1.0608   -1.3705   -0.5159 N   0  0  0  0  0  0  0  0  0  0  0  0
   -1.8786   -0.9490   -0.9441 H   0  0  0  0  0  0  0  0  0  0  0  0
    0.1904   -0.5885   -0.4494 C   0  0  1  0  0  0  0  0  0  0  0  0
    0.9685   -1.2284   -0.8820 H   0  0  0  0  0  0  0  0  0  0  0  0
    0.1592    0.7009   -1.3065 C   0  0  0  0  0  0  0  0  0  0  0  0
   -0.2215    1.5022   -0.6625 H   0  0  0  0  0  0  0  0  0  0  0  0
    1.1845    0.9770   -1.5781 H   0  0  0  0  0  0  0  0  0  0  0  0
   -0.7173    0.6692   -2.5831 C   0  0  0  0  0  0  0  0  0  0  0  0
   -0.1265    0.2897   -3.4223 H   0  0  0  0  0  0  0  0  0  0  0  0
   -1.5851    0.0194   -2.4773 H   0  0  0  0  0  0  0  0  0  0  0  0
   -1.2570    2.0547   -2.9138 C   0  0  0  0  0  0  0  0  0  0  0  0
   -0.7435    2.6819   -3.8203 O   0  0  0  0  0  0  0  0  0  0  0  0
   -2.2936    2.5173   -2.1816 O   0  0  0  0  0  0  0  0  0  0  0  0
   -2.4764    3.4000   -2.5413 H   0  0  0  0  0  0  0  0  0  0  0  0
    0.6717   -0.2618    0.9828 C   0  0  0  0  0  0  0  0  0  0  0  0
    1.8693   -0.1587    1.2094 O   0  0  0  0  0  0  0  0  0  0  0  0
   -0.2294    0.1883    1.9310 N   0  0  0  0  0  0  0  0  0  0  0  0
   -1.2112    0.0287    1.7329 H   0  0  0  0  0  0  0  0  0  0  0  0
    0.1656    0.5414    3.2892 C   0  0  0  0  0  0  0  0  0  0  0  0
    0.9218    1.3336    3.2760 H   0  0  0  0  0  0  0  0  0  0  0  0
   -0.6993    0.9022    3.8542 H   0  0  0  0  0  0  0  0  0  0  0  0
    0.5795   -0.3315    3.8051 H   0  0  0  0  0  0  0  0  0  0  0  0
  1  2  1  0  0  0  0
  2  3  1  0  0  0  0
  2  4  1  0  0  0  0
  2  5  1  0  0  0  0
  5  6  2  0  0  0  0
  5  7  1  0  0  0  0
  7  8  1  0  0  0  0
  7  9  1  0  0  0  0
  9 10  1  0  0  0  0
  9 11  1  0  0  0  0
  9 21  1  0  0  0  0
 11 12  1  0  0  0  0
 11 13  1  0  0  0  0
 11 14  1  0  0  0  0
 14 15  1  0  0  0  0
 14 16  1  0  0  0  0
 14 17  1  0  0  0  0
 17 18  2  0  0  0  0
 17 19  1  0  0  0  0
 19 20  1  0  0  0  0
 21 22  2  0  0  0  0
 21 23  1  0  0  0  0
 23 24  1  0  0  0  0
 23 25  1  0  0  0  0
 25 26  1  0  0  0  0
 25 27  1  0  0  0  0
 25 28  1  0  0  0  0
M  END
$$$$

  -OEChem-03222214033D

 28 27  0     1  0  0  0  0  0999 V2000
   -2.5670   -4.2805    0.3962 H   0  0  0  0  0  0  0  0  0  0  0  0
   -2.6163   -3.2835   -0.0511 C   0  0  0  0  0  0  0  0  0  0  0  0
   -3.3854   -2.7045    0.4655 H   0  0  0  0  0  0  0  0  0  0  0  0
   -2.8896   -3.3852   -1.1041 H   0  0  0  0  0  0  0  0  0  0  0  0
   -1.2724   -2.5907    0.0719 C   0  0  0  0  0  0  0  0  0  0  0  0
   -0.3494   -3.1503    0.6341 O   0  0  0  0  0  0  0  0  0  0  0  0
   -1.1028   -1.3238   -0.4514 N   0  0  0  0  0  0  0  0  0  0  0  0
   -1.9025   -0.9112   -0.9188 H   0  0  0  0  0  0  0  0  0  0  0  0
    0.1721   -0.5776   -0.4224 C   0  0  1  0  0  0  0  0  0  0  0  0
    0.9111   -1.2253   -0.9084 H   0  0  0  0  0  0  0  0  0  0  0  0
    0.1338    0.7346   -1.2429 C   0  0  0  0  0  0  0  0  0  0  0  0
   -0.1957    1.5322   -0.5670 H   0  0  0  0  0  0  0  0  0  0  0  0
    1.1516    0.9880   -1.5614 H   0  0  0  0  0  0  0  0  0  0  0  0
   -0.8097    0.7405   -2.4724 C   0  0  0  0  0  0  0  0  0  0  0  0
   -0.3780    0.1211   -3.2630 H   0  0  0  0  0  0  0  0  0  0  0  0
   -1.7843    0.3251   -2.2157 H   0  0  0  0  0  0  0  0  0  0  0  0
   -1.0914    2.1348   -3.0350 C   0  0  0  0  0  0  0  0  0  0  0  0
   -0.4768    3.1008   -2.6208 O   0  0  0  0  0  0  0  0  0  0  0  0
   -2.0423    2.2209   -3.9884 O   0  0  0  0  0  0  0  0  0  0  0  0
   -2.0691    3.1604   -4.2295 H   0  0  0  0  0  0  0  0  0  0  0  0
    0.7327   -0.3005    0.9917 C   0  0  0  0  0  0  0  0  0  0  0  0
    1.9429   -0.2480    1.1626 O   0  0  0  0  0  0  0  0  0  0  0  0
   -0.1056    0.1496    1.9959 N   0  0  0  0  0  0  0  0  0  0  0  0
   -1.1007    0.0267    1.8442 H   0  0  0  0  0  0  0  0  0  0  0  0
    0.3691    0.4682    3.3370 C   0  0  0  0  0  0  0  0  0  0  0  0
    1.1082    1.2756    3.3000 H   0  0  0  0  0  0  0  0  0  0  0  0
   -0.4641    0.7931    3.9673 H   0  0  0  0  0  0  0  0  0  0  0  0
    0.8316   -0.4112    3.7977 H   0  0  0  0  0  0  0  0  0  0  0  0
  1  2  1  0  0  0  0
  2  3  1  0  0  0  0
  2  4  1  0  0  0  0
  2  5  1  0  0  0  0
  5  6  2  0  0  0  0
  5  7  1  0  0  0  0
  7  8  1  0  0  0  0
  7  9  1  0  0  0  0
  9 10  1  0  0  0  0
  9 11  1  0  0  0  0
  9 21  1  0  0  0  0
 11 12  1  0  0  0  0
 11 13  1  0  0  0  0
 11 14  1  0  0  0  0
 14 15  1  0  0  0  0
 14 16  1  0  0  0  0
 14 17  1  0  0  0  0
 17 18  2  0  0  0  0
 17 19  1  0  0  0  0
 19 20  1  0  0  0  0
 21 22  2  0  0  0  0
 21 23  1  0  0  0  0
 23 24  1  0  0  0  0
 23 25  1  0  0  0  0
 25 26  1  0  0  0  0
 25 27  1  0  0  0  0
 25 28  1  0  0  0  0
M  END
$$$$

  -OEChem-03222214033D

 28 27  0     1  0  0  0  0  0999 V2000
   -2.5714   -4.2798    0.3668 H   0  0  0  0  0  0  0  0  0  0  0  0
   -2.6138   -3.2867   -0.0896 C   0  0  0  0  0  0  0  0  0  0  0  0
   -3.4220   -2.7196    0.3783 H   0  0  0  0  0  0  0  0  0  0  0  0
   -2.8251   -3.4001   -1.1556 H   0  0  0  0  0  0  0  0  0  0  0  0
   -1.2927   -2.5668    0.1049 C   0  0  0  0  0  0  0  0  0  0  0  0
   -0.3978   -3.0999    0.7339 O   0  0  0  0  0  0  0  0  0  0  0  0
   -1.1154   -1.3043   -0.4266 N   0  0  0  0  0  0  0  0  0  0  0  0
   -1.8660   -0.9526   -1.0107 H   0  0  0  0  0  0  0  0  0  0  0  0
    0.1695   -0.5724   -0.4126 C   0  0  1  0  0  0  0  0  0  0  0  0
    0.8982   -1.2280   -0.9036 H   0  0  0  0  0  0  0  0  0  0  0  0
    0.1250    0.7420   -1.2346 C   0  0  0  0  0  0  0  0  0  0  0  0
    0.0949    1.5917   -0.5423 H   0  0  0  0  0  0  0  0  0  0  0  0
    1.0604    0.8274   -1.7994 H   0  0  0  0  0  0  0  0  0  0  0  0
   -1.0751    0.8811   -2.1999 C   0  0  0  0  0  0  0  0  0  0  0  0
   -1.0649    0.0520   -2.9126 H   0  0  0  0  0  0  0  0  0  0  0  0
   -2.0108    0.8449   -1.6375 H   0  0  0  0  0  0  0  0  0  0  0  0
   -1.0886    2.1869   -2.9956 C   0  0  0  0  0  0  0  0  0  0  0  0
   -0.2274    3.0277   -2.8133 O   0  0  0  0  0  0  0  0  0  0  0  0
   -2.0952    2.3429   -3.8802 O   0  0  0  0  0  0  0  0  0  0  0  0
   -1.9392    3.2114   -4.2841 H   0  0  0  0  0  0  0  0  0  0  0  0
    0.7450   -0.2969    0.9963 C   0  0  0  0  0  0  0  0  0  0  0  0
    1.9573   -0.2545    1.1560 O   0  0  0  0  0  0  0  0  0  0  0  0
   -0.0818    0.1664    2.0039 N   0  0  0  0  0  0  0  0  0  0  0  0
   -1.0769    0.0284    1.8649 H   0  0  0  0  0  0  0  0  0  0  0  0
    0.4044    0.4669    3.3449 C   0  0  0  0  0  0  0  0  0  0  0  0
    1.1775    1.2418    3.3084 H   0  0  0  0  0  0  0  0  0  0  0  0
   -0.4152    0.8287    3.9728 H   0  0  0  0  0  0  0  0  0  0  0  0
    0.8279   -0.4308    3.8080 H   0  0  0  0  0  0  0  0  0  0  0  0
  1  2  1  0  0  0  0
  2  3  1  0  0  0  0
  2  4  1  0  0  0  0
  2  5  1  0  0  0  0
  5  6  2  0  0  0  0
  5  7  1  0  0  0  0
  7  8  1  0  0  0  0
  7  9  1  0  0  0  0
  9 10  1  0  0  0  0
  9 11  1  0  0  0  0
  9 21  1  0  0  0  0
 11 12  1  0  0  0  0
 11 13  1  0  0  0  0
 11 14  1  0  0  0  0
 14 15  1  0  0  0  0
 14 16  1  0  0  0  0
 14 17  1  0  0  0  0
 17 18  2  0  0  0  0
 17 19  1  0  0  0  0
 19 20  1  0  0  0  0
 21 22  2  0  0  0  0
 21 23  1  0  0  0  0
 23 24  1  0  0  0  0
 23 25  1  0  0  0  0
 25 26  1  0  0  0  0
 25 27  1  0  0  0  0
 25 28  1  0  0  0  0
M  END
$$$$

  -OEChem-03222214033D

 28 27  0     1  0  0  0  0  0999 V2000
   -2.5998   -4.2491    0.4239 H   0  0  0  0  0  0  0  0  0  0  0  0
   -2.6333   -3.2705   -0.0640 C   0  0  0  0  0  0  0  0  0  0  0  0
   -3.4267   -2.6766    0.3957 H   0  0  0  0  0  0  0  0  0  0  0  0
   -2.8598   -3.4141   -1.1233 H   0  0  0  0  0  0  0  0  0  0  0  0
   -1.2987   -2.5661    0.0906 C   0  0  0  0  0  0  0  0  0  0  0  0
   -0.3863   -3.1165    0.6783 O   0  0  0  0  0  0  0  0  0  0  0  0
   -1.1263   -1.2990   -0.4315 N   0  0  0  0  0  0  0  0  0  0  0  0
   -1.9003   -0.9172   -0.9643 H   0  0  0  0  0  0  0  0  0  0  0  0
    0.1587   -0.5674   -0.4258 C   0  0  1  0  0  0  0  0  0  0  0  0
    0.8823   -1.2179   -0.9314 H   0  0  0  0  0  0  0  0  0  0  0  0
    0.1008    0.7538   -1.2347 C   0  0  0  0  0  0  0  0  0  0  0  0
    0.0926    1.6067   -0.5461 H   0  0  0  0  0  0  0  0  0  0  0  0
    1.0274    0.8274   -1.8156 H   0  0  0  0  0  0  0  0  0  0  0  0
   -1.1115    0.8991   -2.1833 C   0  0  0  0  0  0  0  0  0  0  0  0
   -1.2402   -0.0277   -2.7492 H   0  0  0  0  0  0  0  0  0  0  0  0
   -2.0210    1.0843   -1.6067 H   0  0  0  0  0  0  0  0  0  0  0  0
   -0.9526    2.0201   -3.2099 C   0  0  0  0  0  0  0  0  0  0  0  0
   -0.1970    2.9474   -2.9834 O   0  0  0  0  0  0  0  0  0  0  0  0
   -1.6935    1.9293   -4.3340 O   0  0  0  0  0  0  0  0  0  0  0  0
   -1.4593    2.7160   -4.8516 H   0  0  0  0  0  0  0  0  0  0  0  0
    0.7499   -0.3043    0.9785 C   0  0  0  0  0  0  0  0  0  0  0  0
    1.9638   -0.2617    1.1252 O   0  0  0  0  0  0  0  0  0  0  0  0
   -0.0655    0.1502    1.9993 N   0  0  0  0  0  0  0  0  0  0  0  0
   -1.0627    0.0183    1.8701 H   0  0  0  0  0  0  0  0  0  0  0  0
    0.4373    0.4498    3.3343 C   0  0  0  0  0  0  0  0  0  0  0  0
    1.1993    1.2352    3.2897 H   0  0  0  0  0  0  0  0  0  0  0  0
   -0.3771    0.7975    3.9769 H   0  0  0  0  0  0  0  0  0  0  0  0
    0.8796   -0.4446    3.7860 H   0  0  0  0  0  0  0  0  0  0  0  0
  1  2  1  0  0  0  0
  2  3  1  0  0  0  0
  2  4  1  0  0  0  0
  2  5  1  0  0  0  0
  5  6  2  0  0  0  0
  5  7  1  0  0  0  0
  7  8  1  0  0  0  0
  7  9  1  0  0  0  0
  9 10  1  0  0  0  0
  9 11  1  0  0  0  0
  9 21  1  0  0  0  0
 11 12  1  0  0  0  0
 11 13  1  0  0  0  0
 11 14  1  0  0  0  0
 14 15  1  0  0  0  0
 14 16  1  0  0  0  0
 14 17  1  0  0  0  0
 17 18  2  0  0  0  0
 17 19  1  0  0  0  0
 19 20  1  0  0  0  0
 21 22  2  0  0  0  0
 21 23  1  0  0  0  0
 23 24  1  0  0  0  0
 23 25  1  0  0  0  0
 25 26  1  0  0  0  0
 25 27  1  0  0  0  0
 25 28  1  0  0  0  0
M  END
$$$$

  -OEChem-03222214033D

 28 27  0     1  0  0  0  0  0999 V2000
   -2.6125   -4.2486    0.4456 H   0  0  0  0  0  0  0  0  0  0  0  0
   -2.6552   -3.2652   -0.0316 C   0  0  0  0  0  0  0  0  0  0  0  0
   -3.4322   -2.6720    0.4562 H   0  0  0  0  0  0  0  0  0  0  0  0
   -2.9128   -3.3977   -1.0852 H   0  0  0  0  0  0  0  0  0  0  0  0
   -1.3131   -2.5688    0.0903 C   0  0  0  0  0  0  0  0  0  0  0  0
   -0.3862   -3.1281    0.6459 O   0  0  0  0  0  0  0  0  0  0  0  0
   -1.1500   -1.2988   -0.4273 N   0  0  0  0  0  0  0  0  0  0  0  0
   -1.9463   -0.8970   -0.9104 H   0  0  0  0  0  0  0  0  0  0  0  0
    0.1332   -0.5646   -0.4417 C   0  0  1  0  0  0  0  0  0  0  0  0
    0.8480   -1.2133   -0.9617 H   0  0  0  0  0  0  0  0  0  0  0  0
    0.0675    0.7608   -1.2446 C   0  0  0  0  0  0  0  0  0  0  0  0
    0.0825    1.6140   -0.5565 H   0  0  0  0  0  0  0  0  0  0  0  0
    0.9901    0.8223   -1.8336 H   0  0  0  0  0  0  0  0  0  0  0  0
   -1.1516    0.9333   -2.1836 C   0  0  0  0  0  0  0  0  0  0  0  0
   -1.4576   -0.0365   -2.5831 H   0  0  0  0  0  0  0  0  0  0  0  0
   -1.9948    1.3643   -1.6377 H   0  0  0  0  0  0  0  0  0  0  0  0
   -0.8358    1.7997   -3.4007 C   0  0  0  0  0  0  0  0  0  0  0  0
   -0.2009    2.8266   -3.2461 O   0  0  0  0  0  0  0  0  0  0  0  0
   -1.2948    1.3861   -4.6008 O   0  0  0  0  0  0  0  0  0  0  0  0
   -0.9894    2.0579   -5.2307 H   0  0  0  0  0  0  0  0  0  0  0  0
    0.7481   -0.3085    0.9536 C   0  0  0  0  0  0  0  0  0  0  0  0
    1.9640   -0.2584    1.0788 O   0  0  0  0  0  0  0  0  0  0  0  0
   -0.0511    0.1383    1.9904 N   0  0  0  0  0  0  0  0  0  0  0  0
   -1.0499    0.0038    1.8775 H   0  0  0  0  0  0  0  0  0  0  0  0
    0.4735    0.4308    3.3186 C   0  0  0  0  0  0  0  0  0  0  0  0
    1.2216    1.2291    3.2680 H   0  0  0  0  0  0  0  0  0  0  0  0
   -0.3332    0.7572    3.9816 H   0  0  0  0  0  0  0  0  0  0  0  0
    0.9395   -0.4612    3.7507 H   0  0  0  0  0  0  0  0  0  0  0  0
  1  2  1  0  0  0  0
  2  3  1  0  0  0  0
  2  4  1  0  0  0  0
  2  5  1  0  0  0  0
  5  6  2  0  0  0  0
  5  7  1  0  0  0  0
  7  8  1  0  0  0  0
  7  9  1  0  0  0  0
  9 10  1  0  0  0  0
  9 11  1  0  0  0  0
  9 21  1  0  0  0  0
 11 12  1  0  0  0  0
 11 13  1  0  0  0  0
 11 14  1  0  0  0  0
 14 15  1  0  0  0  0
 14 16  1  0  0  0  0
 14 17  1  0  0  0  0
 17 18  2  0  0  0  0
 17 19  1  0  0  0  0
 19 20  1  0  0  0  0
 21 22  2  0  0  0  0
 21 23  1  0  0  0  0
 23 24  1  0  0  0  0
 23 25  1  0  0  0  0
 25 26  1  0  0  0  0
 25 27  1  0  0  0  0
 25 28  1  0  0  0  0
M  END
$$$$

  -OEChem-03222214033D

 28 27  0     1  0  0  0  0  0999 V2000
   -2.6360   -4.2445    0.4790 H   0  0  0  0  0  0  0  0  0  0  0  0
   -2.6889   -3.2606    0.0041 C   0  0  0  0  0  0  0  0  0  0  0  0
   -3.4480   -2.6644    0.5154 H   0  0  0  0  0  0  0  0  0  0  0  0
   -2.9787   -3.3912   -1.0414 H   0  0  0  0  0  0  0  0  0  0  0  0
   -1.3412   -2.5694    0.0866 C   0  0  0  0  0  0  0  0  0  0  0  0
   -0.3990   -3.1343    0.6101 O   0  0  0  0  0  0  0  0  0  0  0  0
   -1.1923   -1.2944   -0.4226 N   0  0  0  0  0  0  0  0  0  0  0  0
   -2.0061   -0.8810   -0.8647 H   0  0  0  0  0  0  0  0  0  0  0  0
    0.0888   -0.5587   -0.4621 C   0  0  1  0  0  0  0  0  0  0  0  0
    0.7882   -1.2103   -0.9993 H   0  0  0  0  0  0  0  0  0  0  0  0
    0.0275    0.7707   -1.2622 C   0  0  0  0  0  0  0  0  0  0  0  0
    0.0530    1.6147   -0.5631 H   0  0  0  0  0  0  0  0  0  0  0  0
    0.9532    0.8332   -1.8465 H   0  0  0  0  0  0  0  0  0  0  0  0
   -1.1903    0.9877   -2.1976 C   0  0  0  0  0  0  0  0  0  0  0  0
   -1.7108    0.0529   -2.4082 H   0  0  0  0  0  0  0  0  0  0  0  0
   -1.9039    1.6749   -1.7352 H   0  0  0  0  0  0  0  0  0  0  0  0
   -0.7597    1.5351   -3.5538 C   0  0  0  0  0  0  0  0  0  0  0  0
   -0.3544    2.6808   -3.6123 O   0  0  0  0  0  0  0  0  0  0  0  0
   -0.8448    0.7200   -4.6267 O   0  0  0  0  0  0  0  0  0  0  0  0
   -0.5119    1.2470   -5.3701 H   0  0  0  0  0  0  0  0  0  0  0  0
    0.7376   -0.3157    0.9204 C   0  0  0  0  0  0  0  0  0  0  0  0
    1.9561   -0.2561    1.0129 O   0  0  0  0  0  0  0  0  0  0  0  0
   -0.0355    0.1196    1.9819 N   0  0  0  0  0  0  0  0  0  0  0  0
   -1.0357   -0.0254    1.8971 H   0  0  0  0  0  0  0  0  0  0  0  0
    0.5241    0.3986    3.2990 C   0  0  0  0  0  0  0  0  0  0  0  0
    1.2661    1.2019    3.2379 H   0  0  0  0  0  0  0  0  0  0  0  0
   -0.2655    0.7118    3.9887 H   0  0  0  0  0  0  0  0  0  0  0  0
    1.0070   -0.4959    3.7067 H   0  0  0  0  0  0  0  0  0  0  0  0
  1  2  1  0  0  0  0
  2  3  1  0  0  0  0
  2  4  1  0  0  0  0
  2  5  1  0  0  0  0
  5  6  2  0  0  0  0
  5  7  1  0  0  0  0
  7  8  1  0  0  0  0
  7  9  1  0  0  0  0
  9 10  1  0  0  0  0
  9 11  1  0  0  0  0
  9 21  1  0  0  0  0
 11 12  1  0  0  0  0
 11 13  1  0  0  0  0
 11 14  1  0  0  0  0
 14 15  1  0  0  0  0
 14 16  1  0  0  0  0
 14 17  1  0  0  0  0
 17 18  2  0  0  0  0
 17 19  1  0  0  0  0
 19 20  1  0  0  0  0
 21 22  2  0  0  0  0
 21 23  1  0  0  0  0
 23 24  1  0  0  0  0
 23 25  1  0  0  0  0
 25 26  1  0  0  0  0
 25 27  1  0  0  0  0
 25 28  1  0  0  0  0
M  END
$$$$

  -OEChem-03222214033D

 28 27  0     1  0  0  0  0  0999 V2000
   -2.6842   -4.2273    0.4788 H   0  0  0  0  0  0  0  0  0  0  0  0
   -2.7250   -3.2504   -0.0115 C   0  0  0  0  0  0  0  0  0  0  0  0
   -3.5030   -2.6503    0.4663 H   0  0  0  0  0  0  0  0  0  0  0  0
   -2.9798   -3.3966   -1.0641 H   0  0  0  0  0  0  0  0  0  0  0  0
   -1.3829   -2.5528    0.1047 C   0  0  0  0  0  0  0  0  0  0  0  0
   -0.4536   -3.1115    0.6573 O   0  0  0  0  0  0  0  0  0  0  0  0
   -1.2249   -1.2809   -0.4105 N   0  0  0  0  0  0  0  0  0  0  0  0
   -2.0179   -0.8971   -0.9116 H   0  0  0  0  0  0  0  0  0  0  0  0
    0.0667   -0.5647   -0.4694 C   0  0  1  0  0  0  0  0  0  0  0  0
    0.7477   -1.2307   -1.0123 H   0  0  0  0  0  0  0  0  0  0  0  0
    0.0332    0.7666   -1.2712 C   0  0  0  0  0  0  0  0  0  0  0  0
    0.0639    1.5963   -0.5561 H   0  0  0  0  0  0  0  0  0  0  0  0
    0.9656    0.8321   -1.8446 H   0  0  0  0  0  0  0  0  0  0  0  0
   -1.1774    1.0359   -2.2049 C   0  0  0  0  0  0  0  0  0  0  0  0
   -1.9170    0.2377   -2.1950 H   0  0  0  0  0  0  0  0  0  0  0  0
   -1.6848    1.9505   -1.8838 H   0  0  0  0  0  0  0  0  0  0  0  0
   -0.7286    1.2118   -3.6501 C   0  0  0  0  0  0  0  0  0  0  0  0
   -0.4543    2.3300   -4.0427 O   0  0  0  0  0  0  0  0  0  0  0  0
   -0.6556    0.1103   -4.4269 O   0  0  0  0  0  0  0  0  0  0  0  0
   -0.3373    0.4286   -5.2864 H   0  0  0  0  0  0  0  0  0  0  0  0
    0.7340   -0.3308    0.9062 C   0  0  0  0  0  0  0  0  0  0  0  0
    1.9542   -0.2850    0.9848 O   0  0  0  0  0  0  0  0  0  0  0  0
   -0.0224    0.1170    1.9742 N   0  0  0  0  0  0  0  0  0  0  0  0
   -1.0242   -0.0242    1.9003 H   0  0  0  0  0  0  0  0  0  0  0  0
    0.5525    0.3775    3.2883 C   0  0  0  0  0  0  0  0  0  0  0  0
    1.3238    1.1523    3.2232 H   0  0  0  0  0  0  0  0  0  0  0  0
   -0.2226    0.7215    3.9797 H   0  0  0  0  0  0  0  0  0  0  0  0
    1.0030   -0.5339    3.6960 H   0  0  0  0  0  0  0  0  0  0  0  0
  1  2  1  0  0  0  0
  2  3  1  0  0  0  0
  2  4  1  0  0  0  0
  2  5  1  0  0  0  0
  5  6  2  0  0  0  0
  5  7  1  0  0  0  0
  7  8  1  0  0  0  0
  7  9  1  0  0  0  0
  9 10  1  0  0  0  0
  9 11  1  0  0  0  0
  9 21  1  0  0  0  0
 11 12  1  0  0  0  0
 11 13  1  0  0  0  0
 11 14  1  0  0  0  0
 14 15  1  0  0  0  0
 14 16  1  0  0  0  0
 14 17  1  0  0  0  0
 17 18  2  0  0  0  0
 17 19  1  0  0  0  0
 19 20  1  0  0  0  0
 21 22  2  0  0  0  0
 21 23  1  0  0  0  0
 23 24  1  0  0  0  0
 23 25  1  0  0  0  0
 25 26  1  0  0  0  0
 25 27  1  0  0  0  0
 25 28  1  0  0  0  0
M  END
$$$$

  -OEChem-03222214033D

 28 27  0     1  0  0  0  0  0999 V2000
   -2.7406   -4.1955    0.4397 H   0  0  0  0  0  0  0  0  0  0  0  0
   -2.7334   -3.2471   -0.1053 C   0  0  0  0  0  0  0  0  0  0  0  0
   -3.5741   -2.6393    0.2374 H   0  0  0  0  0  0  0  0  0  0  0  0
   -2.8505   -3.4536   -1.1719 H   0  0  0  0  0  0  0  0  0  0  0  0
   -1.4274   -2.5158    0.1401 C   0  0  0  0  0  0  0  0  0  0  0  0
   -0.5599   -3.0372    0.8162 O   0  0  0  0  0  0  0  0  0  0  0  0
   -1.2368   -1.2584   -0.3999 N   0  0  0  0  0  0  0  0  0  0  0  0
   -1.9357   -0.9766   -1.0782 H   0  0  0  0  0  0  0  0  0  0  0  0
    0.0785   -0.5858   -0.4529 C   0  0  1  0  0  0  0  0  0  0  0  0
    0.7467   -1.2744   -0.9835 H   0  0  0  0  0  0  0  0  0  0  0  0
    0.0861    0.7455   -1.2569 C   0  0  0  0  0  0  0  0  0  0  0  0
    0.1189    1.5673   -0.5325 H   0  0  0  0  0  0  0  0  0  0  0  0
    1.0240    0.8067   -1.8216 H   0  0  0  0  0  0  0  0  0  0  0  0
   -1.1147    1.0473   -2.1892 C   0  0  0  0  0  0  0  0  0  0  0  0
   -2.0118    0.4771   -1.9554 H   0  0  0  0  0  0  0  0  0  0  0  0
   -1.3831    2.1017   -2.0712 H   0  0  0  0  0  0  0  0  0  0  0  0
   -0.7450    0.8397   -3.6514 C   0  0  0  0  0  0  0  0  0  0  0  0
   -0.2856    1.7728   -4.2822 O   0  0  0  0  0  0  0  0  0  0  0  0
   -0.9473   -0.3878   -4.1756 O   0  0  0  0  0  0  0  0  0  0  0  0
   -0.6370   -0.3214   -5.0928 H   0  0  0  0  0  0  0  0  0  0  0  0
    0.7356   -0.3484    0.9279 C   0  0  0  0  0  0  0  0  0  0  0  0
    1.9560   -0.3319    1.0180 O   0  0  0  0  0  0  0  0  0  0  0  0
   -0.0210    0.1432    1.9763 N   0  0  0  0  0  0  0  0  0  0  0  0
   -1.0234    0.0067    1.8968 H   0  0  0  0  0  0  0  0  0  0  0  0
    0.5453    0.4080    3.2931 C   0  0  0  0  0  0  0  0  0  0  0  0
    1.3271    1.1723    3.2279 H   0  0  0  0  0  0  0  0  0  0  0  0
   -0.2316    0.7681    3.9743 H   0  0  0  0  0  0  0  0  0  0  0  0
    0.9802   -0.5054    3.7131 H   0  0  0  0  0  0  0  0  0  0  0  0
  1  2  1  0  0  0  0
  2  3  1  0  0  0  0
  2  4  1  0  0  0  0
  2  5  1  0  0  0  0
  5  6  2  0  0  0  0
  5  7  1  0  0  0  0
  7  8  1  0  0  0  0
  7  9  1  0  0  0  0
  9 10  1  0  0  0  0
  9 11  1  0  0  0  0
  9 21  1  0  0  0  0
 11 12  1  0  0  0  0
 11 13  1  0  0  0  0
 11 14  1  0  0  0  0
 14 15  1  0  0  0  0
 14 16  1  0  0  0  0
 14 17  1  0  0  0  0
 17 18  2  0  0  0  0
 17 19  1  0  0  0  0
 19 20  1  0  0  0  0
 21 22  2  0  0  0  0
 21 23  1  0  0  0  0
 23 24  1  0  0  0  0
 23 25  1  0  0  0  0
 25 26  1  0  0  0  0
 25 27  1  0  0  0  0
 25 28  1  0  0  0  0
M  END
$$$$

  -OEChem-03222214033D

 28 27  0     1  0  0  0  0  0999 V2000
   -2.7653   -4.1718    0.3448 H   0  0  0  0  0  0  0  0  0  0  0  0
   -2.7314   -3.2188   -0.1911 C   0  0  0  0  0  0  0  0  0  0  0  0
   -3.5930   -2.6171    0.1075 H   0  0  0  0  0  0  0  0  0  0  0  0
   -2.7874   -3.4175   -1.2642 H   0  0  0  0  0  0  0  0  0  0  0  0
   -1.4452   -2.4829    0.1337 C   0  0  0  0  0  0  0  0  0  0  0  0
   -0.6279   -2.9913    0.8790 O   0  0  0  0  0  0  0  0  0  0  0  0
   -1.2184   -1.2358   -0.4153 N   0  0  0  0  0  0  0  0  0  0  0  0
   -1.8518   -0.9989   -1.1730 H   0  0  0  0  0  0  0  0  0  0  0  0
    0.1123   -0.5920   -0.4399 C   0  0  1  0  0  0  0  0  0  0  0  0
    0.7822   -1.2912   -0.9539 H   0  0  0  0  0  0  0  0  0  0  0  0
    0.1394    0.7371   -1.2453 C   0  0  0  0  0  0  0  0  0  0  0  0
    0.1671    1.5638   -0.5264 H   0  0  0  0  0  0  0  0  0  0  0  0
    1.0765    0.7924   -1.8116 H   0  0  0  0  0  0  0  0  0  0  0  0
   -1.0607    1.0177   -2.1784 C   0  0  0  0  0  0  0  0  0  0  0  0
   -2.0129    0.6707   -1.7764 H   0  0  0  0  0  0  0  0  0  0  0  0
   -1.1565    2.1023   -2.2876 H   0  0  0  0  0  0  0  0  0  0  0  0
   -0.8240    0.4540   -3.5711 C   0  0  0  0  0  0  0  0  0  0  0  0
   -0.2604    1.1375   -4.4042 O   0  0  0  0  0  0  0  0  0  0  0  0
   -1.2573   -0.8040   -3.8046 O   0  0  0  0  0  0  0  0  0  0  0  0
   -1.0012   -0.9864   -4.7234 H   0  0  0  0  0  0  0  0  0  0  0  0
    0.7419   -0.3515    0.9527 C   0  0  0  0  0  0  0  0  0  0  0  0
    1.9600   -0.3582    1.0703 O   0  0  0  0  0  0  0  0  0  0  0  0
   -0.0293    0.1689    1.9760 N   0  0  0  0  0  0  0  0  0  0  0  0
   -1.0310    0.0389    1.8764 H   0  0  0  0  0  0  0  0  0  0  0  0
    0.5091    0.4319    3.3047 C   0  0  0  0  0  0  0  0  0  0  0  0
    1.3376    1.1460    3.2492 H   0  0  0  0  0  0  0  0  0  0  0  0
   -0.2664    0.8553    3.9499 H   0  0  0  0  0  0  0  0  0  0  0  0
    0.8731   -0.4954    3.7595 H   0  0  0  0  0  0  0  0  0  0  0  0
  1  2  1  0  0  0  0
  2  3  1  0  0  0  0
  2  4  1  0  0  0  0
  2  5  1  0  0  0  0
  5  6  2  0  0  0  0
  5  7  1  0  0  0  0
  7  8  1  0  0  0  0
  7  9  1  0  0  0  0
  9 10  1  0  0  0  0
  9 11  1  0  0  0  0
  9 21  1  0  0  0  0
 11 12  1  0  0  0  0
 11 13  1  0  0  0  0
 11 14  1  0  0  0  0
 14 15  1  0  0  0  0
 14 16  1  0  0  0  0
 14 17  1  0  0  0  0
 17 18  2  0  0  0  0
 17 19  1  0  0  0  0
 19 20  1  0  0  0  0
 21 22  2  0  0  0  0
 21 23  1  0  0  0  0
 23 24  1  0  0  0  0
 23 25  1  0  0  0  0
 25 26  1  0  0  0  0
 25 27  1  0  0  0  0
 25 28  1  0  0  0  0
M  END
$$$$

  -OEChem-03222214033D

 28 27  0     1  0  0  0  0  0999 V2000
   -2.7635   -4.1611    0.2996 H   0  0  0  0  0  0  0  0  0  0  0  0
   -2.7169   -3.2060   -0.2315 C   0  0  0  0  0  0  0  0  0  0  0  0
   -3.5853   -2.6049    0.0485 H   0  0  0  0  0  0  0  0  0  0  0  0
   -2.7467   -3.3994   -1.3065 H   0  0  0  0  0  0  0  0  0  0  0  0
   -1.4396   -2.4708    0.1267 C   0  0  0  0  0  0  0  0  0  0  0  0
   -0.6500   -2.9717    0.9063 O   0  0  0  0  0  0  0  0  0  0  0  0
   -1.1915   -1.2319   -0.4308 N   0  0  0  0  0  0  0  0  0  0  0  0
   -1.7882   -1.0206   -1.2285 H   0  0  0  0  0  0  0  0  0  0  0  0
    0.1453   -0.5997   -0.4298 C   0  0  1  0  0  0  0  0  0  0  0  0
    0.8239   -1.3037   -0.9251 H   0  0  0  0  0  0  0  0  0  0  0  0
    0.1838    0.7257   -1.2402 C   0  0  0  0  0  0  0  0  0  0  0  0
    0.2126    1.5627   -0.5336 H   0  0  0  0  0  0  0  0  0  0  0  0
    1.1203    0.7657   -1.8086 H   0  0  0  0  0  0  0  0  0  0  0  0
   -1.0084    0.9852   -2.1849 C   0  0  0  0  0  0  0  0  0  0  0  0
   -1.9658    0.8488   -1.6774 H   0  0  0  0  0  0  0  0  0  0  0  0
   -0.9721    2.0304   -2.5064 H   0  0  0  0  0  0  0  0  0  0  0  0
   -0.9397    0.1229   -3.4370 C   0  0  0  0  0  0  0  0  0  0  0  0
   -0.2709    0.4962   -4.3810 O   0  0  0  0  0  0  0  0  0  0  0  0
   -1.6327   -1.0381   -3.4248 O   0  0  0  0  0  0  0  0  0  0  0  0
   -1.4552   -1.4349   -4.2941 H   0  0  0  0  0  0  0  0  0  0  0  0
    0.7431   -0.3493    0.9751 C   0  0  0  0  0  0  0  0  0  0  0  0
    1.9577   -0.3686    1.1240 O   0  0  0  0  0  0  0  0  0  0  0  0
   -0.0479    0.1888    1.9739 N   0  0  0  0  0  0  0  0  0  0  0  0
   -1.0480    0.0685    1.8487 H   0  0  0  0  0  0  0  0  0  0  0  0
    0.4587    0.4462    3.3161 C   0  0  0  0  0  0  0  0  0  0  0  0
    1.2823    1.1673    3.2837 H   0  0  0  0  0  0  0  0  0  0  0  0
   -0.3341    0.8579    3.9479 H   0  0  0  0  0  0  0  0  0  0  0  0
    0.8205   -0.4815    3.7721 H   0  0  0  0  0  0  0  0  0  0  0  0
  1  2  1  0  0  0  0
  2  3  1  0  0  0  0
  2  4  1  0  0  0  0
  2  5  1  0  0  0  0
  5  6  2  0  0  0  0
  5  7  1  0  0  0  0
  7  8  1  0  0  0  0
  7  9  1  0  0  0  0
  9 10  1  0  0  0  0
  9 11  1  0  0  0  0
  9 21  1  0  0  0  0
 11 12  1  0  0  0  0
 11 13  1  0  0  0  0
 11 14  1  0  0  0  0
 14 15  1  0  0  0  0
 14 16  1  0  0  0  0
 14 17  1  0  0  0  0
 17 18  2  0  0  0  0
 17 19  1  0  0  0  0
 19 20  1  0  0  0  0
 21 22  2  0  0  0  0
 21 23  1  0  0  0  0
 23 24  1  0  0  0  0
 23 25  1  0  0  0  0
 25 26  1  0  0  0  0
 25 27  1  0  0  0  0
 25 28  1  0  0  0  0
M  END
$$$$

  -OEChem-03222214033D

 28 27  0     1  0  0  0  0  0999 V2000
   -2.7091   -4.2155    0.2865 H   0  0  0  0  0  0  0  0  0  0  0  0
   -2.6962   -3.2324   -0.1928 C   0  0  0  0  0  0  0  0  0  0  0  0
   -3.5521   -2.6549    0.1645 H   0  0  0  0  0  0  0  0  0  0  0  0
   -2.7816   -3.3677   -1.2736 H   0  0  0  0  0  0  0  0  0  0  0  0
   -1.4064   -2.5064    0.1384 C   0  0  0  0  0  0  0  0  0  0  0  0
   -0.6060   -3.0109    0.9044 O   0  0  0  0  0  0  0  0  0  0  0  0
   -1.1569   -1.2715   -0.4265 N   0  0  0  0  0  0  0  0  0  0  0  0
   -1.7882   -1.0268   -1.1884 H   0  0  0  0  0  0  0  0  0  0  0  0
    0.1719   -0.6220   -0.4126 C   0  0  1  0  0  0  0  0  0  0  0  0
    0.8667   -1.3254   -0.8864 H   0  0  0  0  0  0  0  0  0  0  0  0
    0.2155    0.6930   -1.2396 C   0  0  0  0  0  0  0  0  0  0  0  0
    0.2443    1.5443   -0.5503 H   0  0  0  0  0  0  0  0  0  0  0  0
    1.1587    0.7105   -1.7975 H   0  0  0  0  0  0  0  0  0  0  0  0
   -0.9490    0.9482   -2.2200 C   0  0  0  0  0  0  0  0  0  0  0  0
   -1.8896    1.0301   -1.6694 H   0  0  0  0  0  0  0  0  0  0  0  0
   -0.7865    1.9060   -2.7225 H   0  0  0  0  0  0  0  0  0  0  0  0
   -1.0838   -0.1290   -3.2907 C   0  0  0  0  0  0  0  0  0  0  0  0
   -0.2845   -0.1469   -4.2059 O   0  0  0  0  0  0  0  0  0  0  0  0
   -2.0875   -1.0265   -3.1626 O   0  0  0  0  0  0  0  0  0  0  0  0
   -2.0027   -1.5935   -3.9481 H   0  0  0  0  0  0  0  0  0  0  0  0
    0.7419   -0.3494    0.9994 C   0  0  0  0  0  0  0  0  0  0  0  0
    1.9537   -0.3449    1.1700 O   0  0  0  0  0  0  0  0  0  0  0  0
   -0.0752    0.1889    1.9768 N   0  0  0  0  0  0  0  0  0  0  0  0
   -1.0712    0.0544    1.8360 H   0  0  0  0  0  0  0  0  0  0  0  0
    0.4048    0.4876    3.3201 C   0  0  0  0  0  0  0  0  0  0  0  0
    1.2072    1.2320    3.2837 H   0  0  0  0  0  0  0  0  0  0  0  0
   -0.4085    0.8882    3.9324 H   0  0  0  0  0  0  0  0  0  0  0  0
    0.7873   -0.4197    3.7997 H   0  0  0  0  0  0  0  0  0  0  0  0
  1  2  1  0  0  0  0
  2  3  1  0  0  0  0
  2  4  1  0  0  0  0
  2  5  1  0  0  0  0
  5  6  2  0  0  0  0
  5  7  1  0  0  0  0
  7  8  1  0  0  0  0
  7  9  1  0  0  0  0
  9 10  1  0  0  0  0
  9 11  1  0  0  0  0
  9 21  1  0  0  0  0
 11 12  1  0  0  0  0
 11 13  1  0  0  0  0
 11 14  1  0  0  0  0
 14 15  1  0  0  0  0
 14 16  1  0  0  0  0
 14 17  1  0  0  0  0
 17 18  2  0  0  0  0
 17 19  1  0  0  0  0
 19 20  1  0  0  0  0
 21 22  2  0  0  0  0
 21 23  1  0  0  0  0
 23 24  1  0  0  0  0
 23 25  1  0  0  0  0
 25 26  1  0  0  0  0
 25 27  1  0  0  0  0
 25 28  1  0  0  0  0
M  END
$$$$

  -OEChem-03222214033D

 28 27  0     1  0  0  0  0  0999 V2000
   -2.6737   -4.2461    0.4194 H   0  0  0  0  0  0  0  0  0  0  0  0
   -2.6634   -3.2810   -0.0950 C   0  0  0  0  0  0  0  0  0  0  0  0
   -3.4968   -2.6775    0.2721 H   0  0  0  0  0  0  0  0  0  0  0  0
   -2.7901   -3.4525   -1.1664 H   0  0  0  0  0  0  0  0  0  0  0  0
   -1.3507   -2.5662    0.1631 C   0  0  0  0  0  0  0  0  0  0  0  0
   -0.5100   -3.0798    0.8780 O   0  0  0  0  0  0  0  0  0  0  0  0
   -1.1239   -1.3294   -0.4066 N   0  0  0  0  0  0  0  0  0  0  0  0
   -1.8261   -1.0229   -1.0785 H   0  0  0  0  0  0  0  0  0  0  0  0
    0.1828   -0.6392   -0.3928 C   0  0  1  0  0  0  0  0  0  0  0  0
    0.8969   -1.3371   -0.8460 H   0  0  0  0  0  0  0  0  0  0  0  0
    0.2249    0.6590   -1.2481 C   0  0  0  0  0  0  0  0  0  0  0  0
    0.2463    1.5248   -0.5767 H   0  0  0  0  0  0  0  0  0  0  0  0
    1.1814    0.6580   -1.7832 H   0  0  0  0  0  0  0  0  0  0  0  0
   -0.8977    0.9194   -2.2810 C   0  0  0  0  0  0  0  0  0  0  0  0
   -1.7962    1.2412   -1.7477 H   0  0  0  0  0  0  0  0  0  0  0  0
   -0.5975    1.7433   -2.9346 H   0  0  0  0  0  0  0  0  0  0  0  0
   -1.2744   -0.2738   -3.1552 C   0  0  0  0  0  0  0  0  0  0  0  0
   -0.5000   -0.6214   -4.0243 O   0  0  0  0  0  0  0  0  0  0  0  0
   -2.4528   -0.8952   -2.9209 O   0  0  0  0  0  0  0  0  0  0  0  0
   -2.5092   -1.5711   -3.6180 H   0  0  0  0  0  0  0  0  0  0  0  0
    0.7324   -0.3397    1.0215 C   0  0  0  0  0  0  0  0  0  0  0  0
    1.9419   -0.2919    1.2010 O   0  0  0  0  0  0  0  0  0  0  0  0
   -0.1080    0.1793    1.9896 N   0  0  0  0  0  0  0  0  0  0  0  0
   -1.0995    0.0214    1.8415 H   0  0  0  0  0  0  0  0  0  0  0  0
    0.3536    0.5114    3.3319 C   0  0  0  0  0  0  0  0  0  0  0  0
    1.1394    1.2733    3.2904 H   0  0  0  0  0  0  0  0  0  0  0  0
   -0.4738    0.9038    3.9306 H   0  0  0  0  0  0  0  0  0  0  0  0
    0.7528   -0.3787    3.8299 H   0  0  0  0  0  0  0  0  0  0  0  0
  1  2  1  0  0  0  0
  2  3  1  0  0  0  0
  2  4  1  0  0  0  0
  2  5  1  0  0  0  0
  5  6  2  0  0  0  0
  5  7  1  0  0  0  0
  7  8  1  0  0  0  0
  7  9  1  0  0  0  0
  9 10  1  0  0  0  0
  9 11  1  0  0  0  0
  9 21  1  0  0  0  0
 11 12  1  0  0  0  0
 11 13  1  0  0  0  0
 11 14  1  0  0  0  0
 14 15  1  0  0  0  0
 14 16  1  0  0  0  0
 14 17  1  0  0  0  0
 17 18  2  0  0  0  0
 17 19  1  0  0  0  0
 19 20  1  0  0  0  0
 21 22  2  0  0  0  0
 21 23  1  0  0  0  0
 23 24  1  0  0  0  0
 23 25  1  0  0  0  0
 25 26  1  0  0  0  0
 25 27  1  0  0  0  0
 25 28  1  0  0  0  0
M  END
$$$$

  -OEChem-03222214033D

 28 27  0     1  0  0  0  0  0999 V2000
   -2.5983   -4.3023    0.5515 H   0  0  0  0  0  0  0  0  0  0  0  0
   -2.6169   -3.3398    0.0323 C   0  0  0  0  0  0  0  0  0  0  0  0
   -3.4211   -2.7298    0.4502 H   0  0  0  0  0  0  0  0  0  0  0  0
   -2.8142   -3.5164   -1.0276 H   0  0  0  0  0  0  0  0  0  0  0  0
   -1.2865   -2.6314    0.2002 C   0  0  0  0  0  0  0  0  0  0  0  0
   -0.3998   -3.1487    0.8544 O   0  0  0  0  0  0  0  0  0  0  0  0
   -1.0934   -1.3944   -0.3808 N   0  0  0  0  0  0  0  0  0  0  0  0
   -1.8644   -1.0331   -0.9401 H   0  0  0  0  0  0  0  0  0  0  0  0
    0.1873   -0.6615   -0.3759 C   0  0  1  0  0  0  0  0  0  0  0  0
    0.9205   -1.3519   -0.8095 H   0  0  0  0  0  0  0  0  0  0  0  0
    0.2238    0.6198   -1.2595 C   0  0  0  0  0  0  0  0  0  0  0  0
    0.2371    1.4964   -0.6022 H   0  0  0  0  0  0  0  0  0  0  0  0
    1.1936    0.6069   -1.7700 H   0  0  0  0  0  0  0  0  0  0  0  0
   -0.8571    0.8935   -2.3401 C   0  0  0  0  0  0  0  0  0  0  0  0
   -1.6644    1.4623   -1.8707 H   0  0  0  0  0  0  0  0  0  0  0  0
   -0.4255    1.5339   -3.1149 H   0  0  0  0  0  0  0  0  0  0  0  0
   -1.5053   -0.3075   -3.0228 C   0  0  0  0  0  0  0  0  0  0  0  0
   -0.8900   -0.8680   -3.9078 O   0  0  0  0  0  0  0  0  0  0  0  0
   -2.7394   -0.6915   -2.6220 O   0  0  0  0  0  0  0  0  0  0  0  0
   -2.9827   -1.4004   -3.2416 H   0  0  0  0  0  0  0  0  0  0  0  0
    0.7208   -0.3305    1.0373 C   0  0  0  0  0  0  0  0  0  0  0  0
    1.9271   -0.2395    1.2223 O   0  0  0  0  0  0  0  0  0  0  0  0
   -0.1412    0.1690    1.9970 N   0  0  0  0  0  0  0  0  0  0  0  0
   -1.1282   -0.0075    1.8406 H   0  0  0  0  0  0  0  0  0  0  0  0
    0.3010    0.5341    3.3373 C   0  0  0  0  0  0  0  0  0  0  0  0
    1.0671    1.3154    3.2900 H   0  0  0  0  0  0  0  0  0  0  0  0
   -0.5411    0.9144    3.9235 H   0  0  0  0  0  0  0  0  0  0  0  0
    0.7189   -0.3376    3.8521 H   0  0  0  0  0  0  0  0  0  0  0  0
  1  2  1  0  0  0  0
  2  3  1  0  0  0  0
  2  4  1  0  0  0  0
  2  5  1  0  0  0  0
  5  6  2  0  0  0  0
  5  7  1  0  0  0  0
  7  8  1  0  0  0  0
  7  9  1  0  0  0  0
  9 10  1  0  0  0  0
  9 11  1  0  0  0  0
  9 21  1  0  0  0  0
 11 12  1  0  0  0  0
 11 13  1  0  0  0  0
 11 14  1  0  0  0  0
 14 15  1  0  0  0  0
 14 16  1  0  0  0  0
 14 17  1  0  0  0  0
 17 18  2  0  0  0  0
 17 19  1  0  0  0  0
 19 20  1  0  0  0  0
 21 22  2  0  0  0  0
 21 23  1  0  0  0  0
 23 24  1  0  0  0  0
 23 25  1  0  0  0  0
 25 26  1  0  0  0  0
 25 27  1  0  0  0  0
 25 28  1  0  0  0  0
M  END
$$$$

  -OEChem-03222214033D

 28 27  0     1  0  0  0  0  0999 V2000
   -2.5154   -4.3479    0.6770 H   0  0  0  0  0  0  0  0  0  0  0  0
   -2.5637   -3.3909    0.1495 C   0  0  0  0  0  0  0  0  0  0  0  0
   -3.3382   -2.7736    0.6104 H   0  0  0  0  0  0  0  0  0  0  0  0
   -2.8272   -3.5781   -0.8941 H   0  0  0  0  0  0  0  0  0  0  0  0
   -1.2230   -2.6859    0.2254 C   0  0  0  0  0  0  0  0  0  0  0  0
   -0.2937   -3.2060    0.8155 O   0  0  0  0  0  0  0  0  0  0  0  0
   -1.0689   -1.4464   -0.3622 N   0  0  0  0  0  0  0  0  0  0  0  0
   -1.8944   -1.0439   -0.8022 H   0  0  0  0  0  0  0  0  0  0  0  0
    0.1872   -0.6760   -0.3709 C   0  0  1  0  0  0  0  0  0  0  0  0
    0.9353   -1.3549   -0.7975 H   0  0  0  0  0  0  0  0  0  0  0  0
    0.2072    0.5957   -1.2718 C   0  0  0  0  0  0  0  0  0  0  0  0
    0.1984    1.4734   -0.6156 H   0  0  0  0  0  0  0  0  0  0  0  0
    1.1872    0.5975   -1.7620 H   0  0  0  0  0  0  0  0  0  0  0  0
   -0.8532    0.8743   -2.3782 C   0  0  0  0  0  0  0  0  0  0  0  0
   -1.5163    1.6619   -2.0100 H   0  0  0  0  0  0  0  0  0  0  0  0
   -0.3368    1.2837   -3.2516 H   0  0  0  0  0  0  0  0  0  0  0  0
   -1.7604   -0.2518   -2.8636 C   0  0  0  0  0  0  0  0  0  0  0  0
   -1.3810   -0.9411   -3.7894 O   0  0  0  0  0  0  0  0  0  0  0  0
   -2.9595   -0.4224   -2.2593 O   0  0  0  0  0  0  0  0  0  0  0  0
   -3.4051   -1.1005   -2.7951 H   0  0  0  0  0  0  0  0  0  0  0  0
    0.7152   -0.3249    1.0396 C   0  0  0  0  0  0  0  0  0  0  0  0
    1.9185   -0.1994    1.2222 O   0  0  0  0  0  0  0  0  0  0  0  0
   -0.1589    0.1509    2.0006 N   0  0  0  0  0  0  0  0  0  0  0  0
   -1.1423   -0.0425    1.8433 H   0  0  0  0  0  0  0  0  0  0  0  0
    0.2741    0.5426    3.3364 C   0  0  0  0  0  0  0  0  0  0  0  0
    1.0260    1.3369    3.2796 H   0  0  0  0  0  0  0  0  0  0  0  0
   -0.5760    0.9159    3.9154 H   0  0  0  0  0  0  0  0  0  0  0  0
    0.7063   -0.3139    3.8646 H   0  0  0  0  0  0  0  0  0  0  0  0
  1  2  1  0  0  0  0
  2  3  1  0  0  0  0
  2  4  1  0  0  0  0
  2  5  1  0  0  0  0
  5  6  2  0  0  0  0
  5  7  1  0  0  0  0
  7  8  1  0  0  0  0
  7  9  1  0  0  0  0
  9 10  1  0  0  0  0
  9 11  1  0  0  0  0
  9 21  1  0  0  0  0
 11 12  1  0  0  0  0
 11 13  1  0  0  0  0
 11 14  1  0  0  0  0
 14 15  1  0  0  0  0
 14 16  1  0  0  0  0
 14 17  1  0  0  0  0
 17 18  2  0  0  0  0
 17 19  1  0  0  0  0
 19 20  1  0  0  0  0
 21 22  2  0  0  0  0
 21 23  1  0  0  0  0
 23 24  1  0  0  0  0
 23 25  1  0  0  0  0
 25 26  1  0  0  0  0
 25 27  1  0  0  0  0
 25 28  1  0  0  0  0
M  END
$$$$

  -OEChem-03222214033D

 28 27  0     1  0  0  0  0  0999 V2000
   -2.2156   -4.3409    1.2483 H   0  0  0  0  0  0  0  0  0  0  0  0
   -2.3646   -3.4558    0.6232 C   0  0  0  0  0  0  0  0  0  0  0  0
   -3.1184   -2.8178    1.0903 H   0  0  0  0  0  0  0  0  0  0  0  0
   -2.7225   -3.7750   -0.3589 H   0  0  0  0  0  0  0  0  0  0  0  0
   -1.0593   -2.6982    0.4736 C   0  0  0  0  0  0  0  0  0  0  0  0
   -0.0450   -3.1202    0.9985 O   0  0  0  0  0  0  0  0  0  0  0  0
   -1.0326   -1.5217   -0.2474 N   0  0  0  0  0  0  0  0  0  0  0  0
   -1.9330   -1.1525   -0.5426 H   0  0  0  0  0  0  0  0  0  0  0  0
    0.1559   -0.6672   -0.4002 C   0  0  1  0  0  0  0  0  0  0  0  0
    0.9340   -1.3400   -0.7804 H   0  0  0  0  0  0  0  0  0  0  0  0
    0.0660    0.4844   -1.4482 C   0  0  0  0  0  0  0  0  0  0  0  0
   -0.0464    1.4089   -0.8705 H   0  0  0  0  0  0  0  0  0  0  0  0
    1.0435    0.5547   -1.9380 H   0  0  0  0  0  0  0  0  0  0  0  0
   -1.0307    0.5741   -2.5541 C   0  0  0  0  0  0  0  0  0  0  0  0
   -1.3498    1.6167   -2.6338 H   0  0  0  0  0  0  0  0  0  0  0  0
   -0.5450    0.3227   -3.5022 H   0  0  0  0  0  0  0  0  0  0  0  0
   -2.2953   -0.2769   -2.4820 C   0  0  0  0  0  0  0  0  0  0  0  0
   -2.4857   -1.1140   -3.3424 O   0  0  0  0  0  0  0  0  0  0  0  0
   -3.1746   -0.0397   -1.4814 O   0  0  0  0  0  0  0  0  0  0  0  0
   -3.9559   -0.5709   -1.7102 H   0  0  0  0  0  0  0  0  0  0  0  0
    0.7166   -0.1269    0.9359 C   0  0  0  0  0  0  0  0  0  0  0  0
    1.9153    0.0924    1.0458 O   0  0  0  0  0  0  0  0  0  0  0  0
   -0.1448    0.3864    1.8891 N   0  0  0  0  0  0  0  0  0  0  0  0
   -1.1259    0.1494    1.7876 H   0  0  0  0  0  0  0  0  0  0  0  0
    0.3183    0.9486    3.1519 C   0  0  0  0  0  0  0  0  0  0  0  0
    0.9690    1.8112    2.9725 H   0  0  0  0  0  0  0  0  0  0  0  0
   -0.5331    1.2789    3.7547 H   0  0  0  0  0  0  0  0  0  0  0  0
    0.8773    0.1985    3.7215 H   0  0  0  0  0  0  0  0  0  0  0  0
  1  2  1  0  0  0  0
  2  3  1  0  0  0  0
  2  4  1  0  0  0  0
  2  5  1  0  0  0  0
  5  6  2  0  0  0  0
  5  7  1  0  0  0  0
  7  8  1  0  0  0  0
  7  9  1  0  0  0  0
  9 10  1  0  0  0  0
  9 11  1  0  0  0  0
  9 21  1  0  0  0  0
 11 12  1  0  0  0  0
 11 13  1  0  0  0  0
 11 14  1  0  0  0  0
 14 15  1  0  0  0  0
 14 16  1  0  0  0  0
 14 17  1  0  0  0  0
 17 18  2  0  0  0  0
 17 19  1  0  0  0  0
 19 20  1  0  0  0  0
 21 22  2  0  0  0  0
 21 23  1  0  0  0  0
 23 24  1  0  0  0  0
 23 25  1  0  0  0  0
 25 26  1  0  0  0  0
 25 27  1  0  0  0  0
 25 28  1  0  0  0  0
M  END
$$$$

  -OEChem-03222214033D

 28 27  0     1  0  0  0  0  0999 V2000
   -1.8941   -4.5537    0.4992 H   0  0  0  0  0  0  0  0  0  0  0  0
   -2.1623   -3.5586    0.1328 C   0  0  0  0  0  0  0  0  0  0  0  0
   -2.7963   -3.0694    0.8761 H   0  0  0  0  0  0  0  0  0  0  0  0
   -2.7208   -3.6648   -0.8002 H   0  0  0  0  0  0  0  0  0  0  0  0
   -0.9109   -2.7361   -0.1065 C   0  0  0  0  0  0  0  0  0  0  0  0
    0.1879   -3.2450    0.0236 O   0  0  0  0  0  0  0  0  0  0  0  0
   -1.0273   -1.4071   -0.4594 N   0  0  0  0  0  0  0  0  0  0  0  0
   -1.9630   -1.0116   -0.3748 H   0  0  0  0  0  0  0  0  0  0  0  0
    0.1050   -0.4670   -0.4951 C   0  0  1  0  0  0  0  0  0  0  0  0
    0.8502   -0.9412   -1.1447 H   0  0  0  0  0  0  0  0  0  0  0  0
   -0.1684    0.9320   -1.1294 C   0  0  0  0  0  0  0  0  0  0  0  0
   -0.2356    1.6365   -0.2925 H   0  0  0  0  0  0  0  0  0  0  0  0
    0.7238    1.2189   -1.6967 H   0  0  0  0  0  0  0  0  0  0  0  0
   -1.4196    1.2427   -2.0040 C   0  0  0  0  0  0  0  0  0  0  0  0
   -1.6229    2.3157   -1.9523 H   0  0  0  0  0  0  0  0  0  0  0  0
   -1.1387    1.0230   -3.0382 H   0  0  0  0  0  0  0  0  0  0  0  0
   -2.7395    0.5137   -1.7665 C   0  0  0  0  0  0  0  0  0  0  0  0
   -3.1592    0.4044   -0.6252 O   0  0  0  0  0  0  0  0  0  0  0  0
   -3.3946    0.0317   -2.8441 O   0  0  0  0  0  0  0  0  0  0  0  0
   -4.2199   -0.3494   -2.5078 H   0  0  0  0  0  0  0  0  0  0  0  0
    0.8064   -0.2966    0.8720 C   0  0  0  0  0  0  0  0  0  0  0  0
    2.0067   -0.0635    0.9169 O   0  0  0  0  0  0  0  0  0  0  0  0
    0.0501   -0.1343    2.0190 N   0  0  0  0  0  0  0  0  0  0  0  0
   -0.9463   -0.3127    1.9436 H   0  0  0  0  0  0  0  0  0  0  0  0
    0.6335    0.1029    3.3332 C   0  0  0  0  0  0  0  0  0  0  0  0
    1.2201    1.0276    3.3317 H   0  0  0  0  0  0  0  0  0  0  0  0
   -0.1547    0.1959    4.0863 H   0  0  0  0  0  0  0  0  0  0  0  0
    1.2878   -0.7286    3.6160 H   0  0  0  0  0  0  0  0  0  0  0  0
  1  2  1  0  0  0  0
  2  3  1  0  0  0  0
  2  4  1  0  0  0  0
  2  5  1  0  0  0  0
  5  6  2  0  0  0  0
  5  7  1  0  0  0  0
  7  8  1  0  0  0  0
  7  9  1  0  0  0  0
  9 10  1  0  0  0  0
  9 11  1  0  0  0  0
  9 21  1  0  0  0  0
 11 12  1  0  0  0  0
 11 13  1  0  0  0  0
 11 14  1  0  0  0  0
 14 15  1  0  0  0  0
 14 16  1  0  0  0  0
 14 17  1  0  0  0  0
 17 18  2  0  0  0  0
 17 19  1  0  0  0  0
 19 20  1  0  0  0  0
 21 22  2  0  0  0  0
 21 23  1  0  0  0  0
 23 24  1  0  0  0  0
 23 25  1  0  0  0  0
 25 26  1  0  0  0  0
 25 27  1  0  0  0  0
 25 28  1  0  0  0  0
M  END
$$$$

  -OEChem-03222214033D

 28 27  0     1  0  0  0  0  0999 V2000
   -2.3689   -4.3359    0.7295 H   0  0  0  0  0  0  0  0  0  0  0  0
   -2.4912   -3.3500    0.2720 C   0  0  0  0  0  0  0  0  0  0  0  0
   -3.0924   -2.7259    0.9375 H   0  0  0  0  0  0  0  0  0  0  0  0
   -3.0140   -3.4657   -0.6804 H   0  0  0  0  0  0  0  0  0  0  0  0
   -1.1354   -2.7105    0.0418 C   0  0  0  0  0  0  0  0  0  0  0  0
   -0.1180   -3.3354    0.2822 O   0  0  0  0  0  0  0  0  0  0  0  0
   -1.0641   -1.4187   -0.4386 N   0  0  0  0  0  0  0  0  0  0  0  0
   -1.9438   -0.9052   -0.4267 H   0  0  0  0  0  0  0  0  0  0  0  0
    0.1747   -0.6219   -0.4355 C   0  0  1  0  0  0  0  0  0  0  0  0
    0.9178   -1.2285   -0.9666 H   0  0  0  0  0  0  0  0  0  0  0  0
    0.1086    0.7367   -1.1963 C   0  0  0  0  0  0  0  0  0  0  0  0
    0.0657    1.5267   -0.4379 H   0  0  0  0  0  0  0  0  0  0  0  0
    1.0594    0.8685   -1.7239 H   0  0  0  0  0  0  0  0  0  0  0  0
   -1.0458    1.0565   -2.1868 C   0  0  0  0  0  0  0  0  0  0  0  0
   -0.9967    2.1168   -2.4479 H   0  0  0  0  0  0  0  0  0  0  0  0
   -0.8494    0.4898   -3.1015 H   0  0  0  0  0  0  0  0  0  0  0  0
   -2.4890    0.7471   -1.7889 C   0  0  0  0  0  0  0  0  0  0  0  0
   -2.8074    0.7660   -0.6102 O   0  0  0  0  0  0  0  0  0  0  0  0
   -3.3603    0.4762   -2.7831 O   0  0  0  0  0  0  0  0  0  0  0  0
   -4.2227    0.3568   -2.3566 H   0  0  0  0  0  0  0  0  0  0  0  0
    0.7553   -0.4002    0.9795 C   0  0  0  0  0  0  0  0  0  0  0  0
    1.9656   -0.3226    1.1408 O   0  0  0  0  0  0  0  0  0  0  0  0
   -0.0854   -0.0401    2.0177 N   0  0  0  0  0  0  0  0  0  0  0  0
   -1.0824   -0.0293    1.8253 H   0  0  0  0  0  0  0  0  0  0  0  0
    0.3881    0.2891    3.3557 C   0  0  0  0  0  0  0  0  0  0  0  0
    1.0510    1.1602    3.3248 H   0  0  0  0  0  0  0  0  0  0  0  0
   -0.4571    0.5207    4.0107 H   0  0  0  0  0  0  0  0  0  0  0  0
    0.9367   -0.5566    3.7841 H   0  0  0  0  0  0  0  0  0  0  0  0
  1  2  1  0  0  0  0
  2  3  1  0  0  0  0
  2  4  1  0  0  0  0
  2  5  1  0  0  0  0
  5  6  2  0  0  0  0
  5  7  1  0  0  0  0
  7  8  1  0  0  0  0
  7  9  1  0  0  0  0
  9 10  1  0  0  0  0
  9 11  1  0  0  0  0
  9 21  1  0  0  0  0
 11 12  1  0  0  0  0
 11 13  1  0  0  0  0
 11 14  1  0  0  0  0
 14 15  1  0  0  0  0
 14 16  1  0  0  0  0
 14 17  1  0  0  0  0
 17 18  2  0  0  0  0
 17 19  1  0  0  0  0
 19 20  1  0  0  0  0
 21 22  2  0  0  0  0
 21 23  1  0  0  0  0
 23 24  1  0  0  0  0
 23 25  1  0  0  0  0
 25 26  1  0  0  0  0
 25 27  1  0  0  0  0
 25 28  1  0  0  0  0
M  END
$$$$

  -OEChem-03222214033D

 28 27  0     1  0  0  0  0  0999 V2000
   -2.4164   -4.2964    0.6709 H   0  0  0  0  0  0  0  0  0  0  0  0
   -2.5175   -3.2952    0.2425 C   0  0  0  0  0  0  0  0  0  0  0  0
   -3.0786   -2.6689    0.9402 H   0  0  0  0  0  0  0  0  0  0  0  0
   -3.0692   -3.3683   -0.6978 H   0  0  0  0  0  0  0  0  0  0  0  0
   -1.1477   -2.6942   -0.0070 C   0  0  0  0  0  0  0  0  0  0  0  0
   -0.1446   -3.3453    0.2242 O   0  0  0  0  0  0  0  0  0  0  0  0
   -1.0478   -1.4048   -0.4890 N   0  0  0  0  0  0  0  0  0  0  0  0
   -1.9142   -0.8702   -0.4610 H   0  0  0  0  0  0  0  0  0  0  0  0
    0.2064   -0.6314   -0.4531 C   0  0  1  0  0  0  0  0  0  0  0  0
    0.9563   -1.2391   -0.9733 H   0  0  0  0  0  0  0  0  0  0  0  0
    0.1472    0.7329   -1.1987 C   0  0  0  0  0  0  0  0  0  0  0  0
    0.1211    1.5330   -0.4499 H   0  0  0  0  0  0  0  0  0  0  0  0
    1.0891    0.8505   -1.7451 H   0  0  0  0  0  0  0  0  0  0  0  0
   -1.0223    1.0084   -2.1791 C   0  0  0  0  0  0  0  0  0  0  0  0
   -0.8684    1.9918   -2.6313 H   0  0  0  0  0  0  0  0  0  0  0  0
   -0.9721    0.2691   -2.9833 H   0  0  0  0  0  0  0  0  0  0  0  0
   -2.4488    0.9835   -1.6239 C   0  0  0  0  0  0  0  0  0  0  0  0
   -2.6408    0.9034   -0.4202 O   0  0  0  0  0  0  0  0  0  0  0  0
   -3.4500    1.0523   -2.5259 O   0  0  0  0  0  0  0  0  0  0  0  0
   -4.2718    1.0640   -2.0117 H   0  0  0  0  0  0  0  0  0  0  0  0
    0.7507   -0.4197    0.9773 C   0  0  0  0  0  0  0  0  0  0  0  0
    1.9568   -0.3696    1.1763 O   0  0  0  0  0  0  0  0  0  0  0  0
   -0.1154   -0.0424    1.9881 N   0  0  0  0  0  0  0  0  0  0  0  0
   -1.0979    0.0484    1.7448 H   0  0  0  0  0  0  0  0  0  0  0  0
    0.3260    0.3253    3.3271 C   0  0  0  0  0  0  0  0  0  0  0  0
    0.9546    1.2210    3.2906 H   0  0  0  0  0  0  0  0  0  0  0  0
   -0.5371    0.5322    3.9670 H   0  0  0  0  0  0  0  0  0  0  0  0
    0.9012   -0.4908    3.7772 H   0  0  0  0  0  0  0  0  0  0  0  0
  1  2  1  0  0  0  0
  2  3  1  0  0  0  0
  2  4  1  0  0  0  0
  2  5  1  0  0  0  0
  5  6  2  0  0  0  0
  5  7  1  0  0  0  0
  7  8  1  0  0  0  0
  7  9  1  0  0  0  0
  9 10  1  0  0  0  0
  9 11  1  0  0  0  0
  9 21  1  0  0  0  0
 11 12  1  0  0  0  0
 11 13  1  0  0  0  0
 11 14  1  0  0  0  0
 14 15  1  0  0  0  0
 14 16  1  0  0  0  0
 14 17  1  0  0  0  0
 17 18  2  0  0  0  0
 17 19  1  0  0  0  0
 19 20  1  0  0  0  0
 21 22  2  0  0  0  0
 21 23  1  0  0  0  0
 23 24  1  0  0  0  0
 23 25  1  0  0  0  0
 25 26  1  0  0  0  0
 25 27  1  0  0  0  0
 25 28  1  0  0  0  0
M  END
$$$$

  -OEChem-03222214033D

 28 27  0     1  0  0  0  0  0999 V2000
   -2.4299   -4.2762    0.6440 H   0  0  0  0  0  0  0  0  0  0  0  0
   -2.5183   -3.2784    0.2050 C   0  0  0  0  0  0  0  0  0  0  0  0
   -3.0911   -2.6441    0.8856 H   0  0  0  0  0  0  0  0  0  0  0  0
   -3.0512   -3.3575   -0.7454 H   0  0  0  0  0  0  0  0  0  0  0  0
   -1.1412   -2.6851   -0.0223 C   0  0  0  0  0  0  0  0  0  0  0  0
   -0.1455   -3.3373    0.2369 O   0  0  0  0  0  0  0  0  0  0  0  0
   -1.0251   -1.4033   -0.5202 N   0  0  0  0  0  0  0  0  0  0  0  0
   -1.8894   -0.8634   -0.5223 H   0  0  0  0  0  0  0  0  0  0  0  0
    0.2322   -0.6346   -0.4680 C   0  0  1  0  0  0  0  0  0  0  0  0
    0.9937   -1.2401   -0.9737 H   0  0  0  0  0  0  0  0  0  0  0  0
    0.1587    0.7257   -1.2149 C   0  0  0  0  0  0  0  0  0  0  0  0
    0.1408    1.5418   -0.4833 H   0  0  0  0  0  0  0  0  0  0  0  0
    1.0908    0.8360   -1.7796 H   0  0  0  0  0  0  0  0  0  0  0  0
   -1.0270    0.9421   -2.1868 C   0  0  0  0  0  0  0  0  0  0  0  0
   -0.7923    1.8030   -2.8190 H   0  0  0  0  0  0  0  0  0  0  0  0
   -1.1230    0.0743   -2.8450 H   0  0  0  0  0  0  0  0  0  0  0  0
   -2.3879    1.2201   -1.5394 C   0  0  0  0  0  0  0  0  0  0  0  0
   -2.5868    0.9256   -0.3704 O   0  0  0  0  0  0  0  0  0  0  0  0
   -3.3280    1.7830   -2.3264 O   0  0  0  0  0  0  0  0  0  0  0  0
   -4.1066    1.9068   -1.7619 H   0  0  0  0  0  0  0  0  0  0  0  0
    0.7440   -0.4066    0.9713 C   0  0  0  0  0  0  0  0  0  0  0  0
    1.9451   -0.3590    1.1988 O   0  0  0  0  0  0  0  0  0  0  0  0
   -0.1461   -0.0120    1.9544 N   0  0  0  0  0  0  0  0  0  0  0  0
   -1.1212    0.0841    1.6823 H   0  0  0  0  0  0  0  0  0  0  0  0
    0.2621    0.3723    3.2991 C   0  0  0  0  0  0  0  0  0  0  0  0
    0.8950    1.2650    3.2671 H   0  0  0  0  0  0  0  0  0  0  0  0
   -0.6161    0.5909    3.9138 H   0  0  0  0  0  0  0  0  0  0  0  0
    0.8223   -0.4396    3.7749 H   0  0  0  0  0  0  0  0  0  0  0  0
  1  2  1  0  0  0  0
  2  3  1  0  0  0  0
  2  4  1  0  0  0  0
  2  5  1  0  0  0  0
  5  6  2  0  0  0  0
  5  7  1  0  0  0  0
  7  8  1  0  0  0  0
  7  9  1  0  0  0  0
  9 10  1  0  0  0  0
  9 11  1  0  0  0  0
  9 21  1  0  0  0  0
 11 12  1  0  0  0  0
 11 13  1  0  0  0  0
 11 14  1  0  0  0  0
 14 15  1  0  0  0  0
 14 16  1  0  0  0  0
 14 17  1  0  0  0  0
 17 18  2  0  0  0  0
 17 19  1  0  0  0  0
 19 20  1  0  0  0  0
 21 22  2  0  0  0  0
 21 23  1  0  0  0  0
 23 24  1  0  0  0  0
 23 25  1  0  0  0  0
 25 26  1  0  0  0  0
 25 27  1  0  0  0  0
 25 28  1  0  0  0  0
M  END
$$$$

  -OEChem-03222214033D

 28 27  0     1  0  0  0  0  0999 V2000
   -2.4177   -4.3060    0.6046 H   0  0  0  0  0  0  0  0  0  0  0  0
   -2.5066   -3.3123    0.1566 C   0  0  0  0  0  0  0  0  0  0  0  0
   -3.1460   -2.6950    0.7922 H   0  0  0  0  0  0  0  0  0  0  0  0
   -2.9693   -3.4098   -0.8284 H   0  0  0  0  0  0  0  0  0  0  0  0
   -1.1368   -2.6751    0.0242 C   0  0  0  0  0  0  0  0  0  0  0  0
   -0.1440   -3.2746    0.3969 O   0  0  0  0  0  0  0  0  0  0  0  0
   -1.0237   -1.4065   -0.5055 N   0  0  0  0  0  0  0  0  0  0  0  0
   -1.9017   -0.9055   -0.6521 H   0  0  0  0  0  0  0  0  0  0  0  0
    0.2173   -0.6090   -0.4689 C   0  0  1  0  0  0  0  0  0  0  0  0
    0.9928   -1.2166   -0.9500 H   0  0  0  0  0  0  0  0  0  0  0  0
    0.1091    0.7138   -1.2736 C   0  0  0  0  0  0  0  0  0  0  0  0
    0.0685    1.5657   -0.5846 H   0  0  0  0  0  0  0  0  0  0  0  0
    1.0383    0.8219   -1.8436 H   0  0  0  0  0  0  0  0  0  0  0  0
   -1.0817    0.8196   -2.2542 C   0  0  0  0  0  0  0  0  0  0  0  0
   -0.7947    1.4909   -3.0687 H   0  0  0  0  0  0  0  0  0  0  0  0
   -1.3146   -0.1453   -2.7122 H   0  0  0  0  0  0  0  0  0  0  0  0
   -2.3248    1.4129   -1.5981 C   0  0  0  0  0  0  0  0  0  0  0  0
   -2.9156    0.7358   -0.7717 O   0  0  0  0  0  0  0  0  0  0  0  0
   -2.7078    2.6574   -1.9527 O   0  0  0  0  0  0  0  0  0  0  0  0
   -3.5010    2.8485   -1.4287 H   0  0  0  0  0  0  0  0  0  0  0  0
    0.7268   -0.3190    0.9598 C   0  0  0  0  0  0  0  0  0  0  0  0
    1.9265   -0.2051    1.1707 O   0  0  0  0  0  0  0  0  0  0  0  0
   -0.1673    0.0897    1.9330 N   0  0  0  0  0  0  0  0  0  0  0  0
   -1.1552   -0.0044    1.7171 H   0  0  0  0  0  0  0  0  0  0  0  0
    0.2346    0.4607    3.2835 C   0  0  0  0  0  0  0  0  0  0  0  0
    0.9080    1.3239    3.2587 H   0  0  0  0  0  0  0  0  0  0  0  0
   -0.6434    0.7245    3.8809 H   0  0  0  0  0  0  0  0  0  0  0  0
    0.7488   -0.3737    3.7722 H   0  0  0  0  0  0  0  0  0  0  0  0
  1  2  1  0  0  0  0
  2  3  1  0  0  0  0
  2  4  1  0  0  0  0
  2  5  1  0  0  0  0
  5  6  2  0  0  0  0
  5  7  1  0  0  0  0
  7  8  1  0  0  0  0
  7  9  1  0  0  0  0
  9 10  1  0  0  0  0
  9 11  1  0  0  0  0
  9 21  1  0  0  0  0
 11 12  1  0  0  0  0
 11 13  1  0  0  0  0
 11 14  1  0  0  0  0
 14 15  1  0  0  0  0
 14 16  1  0  0  0  0
 14 17  1  0  0  0  0
 17 18  2  0  0  0  0
 17 19  1  0  0  0  0
 19 20  1  0  0  0  0
 21 22  2  0  0  0  0
 21 23  1  0  0  0  0
 23 24  1  0  0  0  0
 23 25  1  0  0  0  0
 25 26  1  0  0  0  0
 25 27  1  0  0  0  0
 25 28  1  0  0  0  0
M  END
$$$$

  -OEChem-03222214033D

 28 27  0     1  0  0  0  0  0999 V2000
   -2.4224   -4.3056    0.6115 H   0  0  0  0  0  0  0  0  0  0  0  0
   -2.5159   -3.3183    0.1501 C   0  0  0  0  0  0  0  0  0  0  0  0
   -3.1667   -2.6996    0.7725 H   0  0  0  0  0  0  0  0  0  0  0  0
   -2.9680   -3.4330   -0.8379 H   0  0  0  0  0  0  0  0  0  0  0  0
   -1.1501   -2.6713    0.0224 C   0  0  0  0  0  0  0  0  0  0  0  0
   -0.1554   -3.2674    0.3945 O   0  0  0  0  0  0  0  0  0  0  0  0
   -1.0409   -1.4016   -0.5079 N   0  0  0  0  0  0  0  0  0  0  0  0
   -1.9163   -0.9017   -0.6580 H   0  0  0  0  0  0  0  0  0  0  0  0
    0.2025   -0.6055   -0.4750 C   0  0  1  0  0  0  0  0  0  0  0  0
    0.9749   -1.2122   -0.9622 H   0  0  0  0  0  0  0  0  0  0  0  0
    0.0833    0.7153   -1.2783 C   0  0  0  0  0  0  0  0  0  0  0  0
    0.0509    1.5664   -0.5874 H   0  0  0  0  0  0  0  0  0  0  0  0
    1.0081    0.8274   -1.8547 H   0  0  0  0  0  0  0  0  0  0  0  0
   -1.1156    0.8127   -2.2539 C   0  0  0  0  0  0  0  0  0  0  0  0
   -0.7604    1.2814   -3.1761 H   0  0  0  0  0  0  0  0  0  0  0  0
   -1.5212   -0.1566   -2.5498 H   0  0  0  0  0  0  0  0  0  0  0  0
   -2.2073    1.7118   -1.6961 C   0  0  0  0  0  0  0  0  0  0  0  0
   -2.8610    1.2655   -0.7670 O   0  0  0  0  0  0  0  0  0  0  0  0
   -2.3965    2.9378   -2.2278 O   0  0  0  0  0  0  0  0  0  0  0  0
   -3.1227    3.3336   -1.7216 H   0  0  0  0  0  0  0  0  0  0  0  0
    0.7238   -0.3138    0.9496 C   0  0  0  0  0  0  0  0  0  0  0  0
    1.9264   -0.2176    1.1525 O   0  0  0  0  0  0  0  0  0  0  0  0
   -0.1581    0.0984    1.9326 N   0  0  0  0  0  0  0  0  0  0  0  0
   -1.1490    0.0449    1.7172 H   0  0  0  0  0  0  0  0  0  0  0  0
    0.2603    0.4750    3.2766 C   0  0  0  0  0  0  0  0  0  0  0  0
    0.9508    1.3242    3.2395 H   0  0  0  0  0  0  0  0  0  0  0  0
   -0.6080    0.7622    3.8772 H   0  0  0  0  0  0  0  0  0  0  0  0
    0.7610   -0.3650    3.7697 H   0  0  0  0  0  0  0  0  0  0  0  0
  1  2  1  0  0  0  0
  2  3  1  0  0  0  0
  2  4  1  0  0  0  0
  2  5  1  0  0  0  0
  5  6  2  0  0  0  0
  5  7  1  0  0  0  0
  7  8  1  0  0  0  0
  7  9  1  0  0  0  0
  9 10  1  0  0  0  0
  9 11  1  0  0  0  0
  9 21  1  0  0  0  0
 11 12  1  0  0  0  0
 11 13  1  0  0  0  0
 11 14  1  0  0  0  0
 14 15  1  0  0  0  0
 14 16  1  0  0  0  0
 14 17  1  0  0  0  0
 17 18  2  0  0  0  0
 17 19  1  0  0  0  0
 19 20  1  0  0  0  0
 21 22  2  0  0  0  0
 21 23  1  0  0  0  0
 23 24  1  0  0  0  0
 23 25  1  0  0  0  0
 25 26  1  0  0  0  0
 25 27  1  0  0  0  0
 25 28  1  0  0  0  0
M  END
$$$$

  -OEChem-03222214033D

 28 27  0     1  0  0  0  0  0999 V2000
   -2.4012   -4.3593    0.6015 H   0  0  0  0  0  0  0  0  0  0  0  0
   -2.5165   -3.3656    0.1595 C   0  0  0  0  0  0  0  0  0  0  0  0
   -3.1849   -2.7759    0.7912 H   0  0  0  0  0  0  0  0  0  0  0  0
   -2.9615   -3.4720   -0.8328 H   0  0  0  0  0  0  0  0  0  0  0  0
   -1.1658   -2.6839    0.0514 C   0  0  0  0  0  0  0  0  0  0  0  0
   -0.1616   -3.2560    0.4341 O   0  0  0  0  0  0  0  0  0  0  0  0
   -1.0817   -1.4096   -0.4731 N   0  0  0  0  0  0  0  0  0  0  0  0
   -1.9631   -0.9393   -0.6615 H   0  0  0  0  0  0  0  0  0  0  0  0
    0.1517   -0.5982   -0.4691 C   0  0  1  0  0  0  0  0  0  0  0  0
    0.9147   -1.2061   -0.9696 H   0  0  0  0  0  0  0  0  0  0  0  0
    0.0308    0.7170   -1.2842 C   0  0  0  0  0  0  0  0  0  0  0  0
   -0.0085    1.5575   -0.5808 H   0  0  0  0  0  0  0  0  0  0  0  0
    0.9600    0.8429   -1.8508 H   0  0  0  0  0  0  0  0  0  0  0  0
   -1.1650    0.8437   -2.2664 C   0  0  0  0  0  0  0  0  0  0  0  0
   -0.7652    1.0249   -3.2681 H   0  0  0  0  0  0  0  0  0  0  0  0
   -1.7727   -0.0571   -2.3468 H   0  0  0  0  0  0  0  0  0  0  0  0
   -2.0589    2.0215   -1.9093 C   0  0  0  0  0  0  0  0  0  0  0  0
   -2.8199    1.8753   -0.9685 O   0  0  0  0  0  0  0  0  0  0  0  0
   -1.9651    3.1601   -2.6279 O   0  0  0  0  0  0  0  0  0  0  0  0
   -2.6034    3.7711   -2.2286 H   0  0  0  0  0  0  0  0  0  0  0  0
    0.7137   -0.3036    0.9403 C   0  0  0  0  0  0  0  0  0  0  0  0
    1.9211   -0.1901    1.1018 O   0  0  0  0  0  0  0  0  0  0  0  0
   -0.1377    0.0948    1.9553 N   0  0  0  0  0  0  0  0  0  0  0  0
   -1.1342    0.0124    1.7825 H   0  0  0  0  0  0  0  0  0  0  0  0
    0.3247    0.4682    3.2859 C   0  0  0  0  0  0  0  0  0  0  0  0
    1.0009    1.3278    3.2294 H   0  0  0  0  0  0  0  0  0  0  0  0
   -0.5248    0.7387    3.9202 H   0  0  0  0  0  0  0  0  0  0  0  0
    0.8553   -0.3676    3.7541 H   0  0  0  0  0  0  0  0  0  0  0  0
  1  2  1  0  0  0  0
  2  3  1  0  0  0  0
  2  4  1  0  0  0  0
  2  5  1  0  0  0  0
  5  6  2  0  0  0  0
  5  7  1  0  0  0  0
  7  8  1  0  0  0  0
  7  9  1  0  0  0  0
  9 10  1  0  0  0  0
  9 11  1  0  0  0  0
  9 21  1  0  0  0  0
 11 12  1  0  0  0  0
 11 13  1  0  0  0  0
 11 14  1  0  0  0  0
 14 15  1  0  0  0  0
 14 16  1  0  0  0  0
 14 17  1  0  0  0  0
 17 18  2  0  0  0  0
 17 19  1  0  0  0  0
 19 20  1  0  0  0  0
 21 22  2  0  0  0  0
 21 23  1  0  0  0  0
 23 24  1  0  0  0  0
 23 25  1  0  0  0  0
 25 26  1  0  0  0  0
 25 27  1  0  0  0  0
 25 28  1  0  0  0  0
M  END
$$$$

  -OEChem-03222214033D

 28 27  0     1  0  0  0  0  0999 V2000
   -2.4807   -4.3405    0.4093 H   0  0  0  0  0  0  0  0  0  0  0  0
   -2.5563   -3.3430   -0.0333 C   0  0  0  0  0  0  0  0  0  0  0  0
   -3.2939   -2.7647    0.5279 H   0  0  0  0  0  0  0  0  0  0  0  0
   -2.8910   -3.4439   -1.0685 H   0  0  0  0  0  0  0  0  0  0  0  0
   -1.2080   -2.6493    0.0117 C   0  0  0  0  0  0  0  0  0  0  0  0
   -0.2538   -3.2063    0.5223 O   0  0  0  0  0  0  0  0  0  0  0  0
   -1.0707   -1.3803   -0.5160 N   0  0  0  0  0  0  0  0  0  0  0  0
   -1.9162   -0.9343   -0.8558 H   0  0  0  0  0  0  0  0  0  0  0  0
    0.1718   -0.5848   -0.4436 C   0  0  1  0  0  0  0  0  0  0  0  0
    0.9525   -1.2172   -0.8830 H   0  0  0  0  0  0  0  0  0  0  0  0
    0.1510    0.7195   -1.2877 C   0  0  0  0  0  0  0  0  0  0  0  0
    0.0526    1.5567   -0.5865 H   0  0  0  0  0  0  0  0  0  0  0  0
    1.1296    0.8404   -1.7653 H   0  0  0  0  0  0  0  0  0  0  0  0
   -0.9553    0.8777   -2.3656 C   0  0  0  0  0  0  0  0  0  0  0  0
   -0.5160    0.7113   -3.3538 H   0  0  0  0  0  0  0  0  0  0  0  0
   -1.7675    0.1617   -2.2569 H   0  0  0  0  0  0  0  0  0  0  0  0
   -1.5842    2.2644   -2.3199 C   0  0  0  0  0  0  0  0  0  0  0  0
   -1.2983    3.0681   -3.1866 O   0  0  0  0  0  0  0  0  0  0  0  0
   -2.4454    2.5291   -1.3134 O   0  0  0  0  0  0  0  0  0  0  0  0
   -2.7199    3.4488   -1.4589 H   0  0  0  0  0  0  0  0  0  0  0  0
    0.6534   -0.2837    0.9948 C   0  0  0  0  0  0  0  0  0  0  0  0
    1.8500   -0.1715    1.2222 O   0  0  0  0  0  0  0  0  0  0  0  0
   -0.2506    0.1352    1.9546 N   0  0  0  0  0  0  0  0  0  0  0  0
   -1.2343    0.0058    1.7446 H   0  0  0  0  0  0  0  0  0  0  0  0
    0.1419    0.4985    3.3106 C   0  0  0  0  0  0  0  0  0  0  0  0
    0.8363    1.3453    3.2948 H   0  0  0  0  0  0  0  0  0  0  0  0
   -0.7371    0.7847    3.8961 H   0  0  0  0  0  0  0  0  0  0  0  0
    0.6295   -0.3475    3.8068 H   0  0  0  0  0  0  0  0  0  0  0  0
  1  2  1  0  0  0  0
  2  3  1  0  0  0  0
  2  4  1  0  0  0  0
  2  5  1  0  0  0  0
  5  6  2  0  0  0  0
  5  7  1  0  0  0  0
  7  8  1  0  0  0  0
  7  9  1  0  0  0  0
  9 10  1  0  0  0  0
  9 11  1  0  0  0  0
  9 21  1  0  0  0  0
 11 12  1  0  0  0  0
 11 13  1  0  0  0  0
 11 14  1  0  0  0  0
 14 15  1  0  0  0  0
 14 16  1  0  0  0  0
 14 17  1  0  0  0  0
 17 18  2  0  0  0  0
 17 19  1  0  0  0  0
 19 20  1  0  0  0  0
 21 22  2  0  0  0  0
 21 23  1  0  0  0  0
 23 24  1  0  0  0  0
 23 25  1  0  0  0  0
 25 26  1  0  0  0  0
 25 27  1  0  0  0  0
 25 28  1  0  0  0  0
M  END
$$$$

  -OEChem-03222214033D

 28 27  0     1  0  0  0  0  0999 V2000
   -2.4780   -4.3477    0.4655 H   0  0  0  0  0  0  0  0  0  0  0  0
   -2.5287   -3.3952   -0.0698 C   0  0  0  0  0  0  0  0  0  0  0  0
   -3.3495   -2.8041    0.3430 H   0  0  0  0  0  0  0  0  0  0  0  0
   -2.7260   -3.5962   -1.1255 H   0  0  0  0  0  0  0  0  0  0  0  0
   -1.2196   -2.6433    0.0786 C   0  0  0  0  0  0  0  0  0  0  0  0
   -0.2960   -3.1454    0.6918 O   0  0  0  0  0  0  0  0  0  0  0  0
   -1.0842   -1.3865   -0.4781 N   0  0  0  0  0  0  0  0  0  0  0  0
   -1.8775   -1.0323   -0.9999 H   0  0  0  0  0  0  0  0  0  0  0  0
    0.1590   -0.5889   -0.4367 C   0  0  1  0  0  0  0  0  0  0  0  0
    0.9362   -1.2259   -0.8750 H   0  0  0  0  0  0  0  0  0  0  0  0
    0.1185    0.7029   -1.2989 C   0  0  0  0  0  0  0  0  0  0  0  0
    0.0152    1.5481   -0.6078 H   0  0  0  0  0  0  0  0  0  0  0  0
    1.0869    0.8286   -1.7960 H   0  0  0  0  0  0  0  0  0  0  0  0
   -1.0106    0.8309   -2.3515 C   0  0  0  0  0  0  0  0  0  0  0  0
   -0.6932    0.3744   -3.2939 H   0  0  0  0  0  0  0  0  0  0  0  0
   -1.9278    0.3375   -2.0339 H   0  0  0  0  0  0  0  0  0  0  0  0
   -1.3885    2.2899   -2.5750 C   0  0  0  0  0  0  0  0  0  0  0  0
   -0.9922    2.8471   -3.5808 O   0  0  0  0  0  0  0  0  0  0  0  0
   -2.1592    2.8927   -1.6440 O   0  0  0  0  0  0  0  0  0  0  0  0
   -2.2713    3.8022   -1.9634 H   0  0  0  0  0  0  0  0  0  0  0  0
    0.6573   -0.2543    0.9890 C   0  0  0  0  0  0  0  0  0  0  0  0
    1.8568   -0.1339    1.1971 O   0  0  0  0  0  0  0  0  0  0  0  0
   -0.2365    0.1862    1.9487 N   0  0  0  0  0  0  0  0  0  0  0  0
   -1.2193    0.0186    1.7619 H   0  0  0  0  0  0  0  0  0  0  0  0
    0.1711    0.5634    3.2966 C   0  0  0  0  0  0  0  0  0  0  0  0
    0.8894    1.3896    3.2636 H   0  0  0  0  0  0  0  0  0  0  0  0
   -0.6973    0.8863    3.8787 H   0  0  0  0  0  0  0  0  0  0  0  0
    0.6356   -0.2870    3.8071 H   0  0  0  0  0  0  0  0  0  0  0  0
  1  2  1  0  0  0  0
  2  3  1  0  0  0  0
  2  4  1  0  0  0  0
  2  5  1  0  0  0  0
  5  6  2  0  0  0  0
  5  7  1  0  0  0  0
  7  8  1  0  0  0  0
  7  9  1  0  0  0  0
  9 10  1  0  0  0  0
  9 11  1  0  0  0  0
  9 21  1  0  0  0  0
 11 12  1  0  0  0  0
 11 13  1  0  0  0  0
 11 14  1  0  0  0  0
 14 15  1  0  0  0  0
 14 16  1  0  0  0  0
 14 17  1  0  0  0  0
 17 18  2  0  0  0  0
 17 19  1  0  0  0  0
 19 20  1  0  0  0  0
 21 22  2  0  0  0  0
 21 23  1  0  0  0  0
 23 24  1  0  0  0  0
 23 25  1  0  0  0  0
 25 26  1  0  0  0  0
 25 27  1  0  0  0  0
 25 28  1  0  0  0  0
M  END
$$$$

  -OEChem-03222214033D

 28 27  0     1  0  0  0  0  0999 V2000
   -2.5577   -4.3031    0.4063 H   0  0  0  0  0  0  0  0  0  0  0  0
   -2.5920   -3.3312   -0.0943 C   0  0  0  0  0  0  0  0  0  0  0  0
   -3.4228   -2.7536    0.3177 H   0  0  0  0  0  0  0  0  0  0  0  0
   -2.7615   -3.4926   -1.1616 H   0  0  0  0  0  0  0  0  0  0  0  0
   -1.2857   -2.5897    0.1183 C   0  0  0  0  0  0  0  0  0  0  0  0
   -0.3940   -3.1048    0.7666 O   0  0  0  0  0  0  0  0  0  0  0  0
   -1.1168   -1.3308   -0.4248 N   0  0  0  0  0  0  0  0  0  0  0  0
   -1.8565   -1.0062   -1.0374 H   0  0  0  0  0  0  0  0  0  0  0  0
    0.1628   -0.5896   -0.4110 C   0  0  1  0  0  0  0  0  0  0  0  0
    0.8981   -1.2468   -0.8901 H   0  0  0  0  0  0  0  0  0  0  0  0
    0.1308    0.7203   -1.2439 C   0  0  0  0  0  0  0  0  0  0  0  0
    0.0855    1.5632   -0.5439 H   0  0  0  0  0  0  0  0  0  0  0  0
    1.0770    0.8168   -1.7887 H   0  0  0  0  0  0  0  0  0  0  0  0
   -1.0496    0.8800   -2.2330 C   0  0  0  0  0  0  0  0  0  0  0  0
   -0.9151    0.2066   -3.0834 H   0  0  0  0  0  0  0  0  0  0  0  0
   -1.9905    0.6298   -1.7404 H   0  0  0  0  0  0  0  0  0  0  0  0
   -1.2274    2.3079   -2.7491 C   0  0  0  0  0  0  0  0  0  0  0  0
   -0.2962    3.0908   -2.7098 O   0  0  0  0  0  0  0  0  0  0  0  0
   -2.4425    2.6306   -3.2395 O   0  0  0  0  0  0  0  0  0  0  0  0
   -2.3593    3.5558   -3.5201 H   0  0  0  0  0  0  0  0  0  0  0  0
    0.7259   -0.2984    0.9999 C   0  0  0  0  0  0  0  0  0  0  0  0
    1.9365   -0.2409    1.1667 O   0  0  0  0  0  0  0  0  0  0  0  0
   -0.1119    0.1673    1.9972 N   0  0  0  0  0  0  0  0  0  0  0  0
   -1.1055    0.0227    1.8528 H   0  0  0  0  0  0  0  0  0  0  0  0
    0.3639    0.5020    3.3336 C   0  0  0  0  0  0  0  0  0  0  0  0
    1.1150    1.2975    3.2844 H   0  0  0  0  0  0  0  0  0  0  0  0
   -0.4660    0.8509    3.9555 H   0  0  0  0  0  0  0  0  0  0  0  0
    0.8119   -0.3762    3.8108 H   0  0  0  0  0  0  0  0  0  0  0  0
  1  2  1  0  0  0  0
  2  3  1  0  0  0  0
  2  4  1  0  0  0  0
  2  5  1  0  0  0  0
  5  6  2  0  0  0  0
  5  7  1  0  0  0  0
  7  8  1  0  0  0  0
  7  9  1  0  0  0  0
  9 10  1  0  0  0  0
  9 11  1  0  0  0  0
  9 21  1  0  0  0  0
 11 12  1  0  0  0  0
 11 13  1  0  0  0  0
 11 14  1  0  0  0  0
 14 15  1  0  0  0  0
 14 16  1  0  0  0  0
 14 17  1  0  0  0  0
 17 18  2  0  0  0  0
 17 19  1  0  0  0  0
 19 20  1  0  0  0  0
 21 22  2  0  0  0  0
 21 23  1  0  0  0  0
 23 24  1  0  0  0  0
 23 25  1  0  0  0  0
 25 26  1  0  0  0  0
 25 27  1  0  0  0  0
 25 28  1  0  0  0  0
M  END
$$$$

  -OEChem-03222214033D

 28 27  0     1  0  0  0  0  0999 V2000
   -2.5567   -4.2883    0.3687 H   0  0  0  0  0  0  0  0  0  0  0  0
   -2.5988   -3.2967   -0.0911 C   0  0  0  0  0  0  0  0  0  0  0  0
   -3.4163   -2.7329    0.3644 H   0  0  0  0  0  0  0  0  0  0  0  0
   -2.7949   -3.4142   -1.1595 H   0  0  0  0  0  0  0  0  0  0  0  0
   -1.2844   -2.5687    0.1181 C   0  0  0  0  0  0  0  0  0  0  0  0
   -0.3963   -3.0927    0.7642 O   0  0  0  0  0  0  0  0  0  0  0  0
   -1.1057   -1.3102   -0.4228 N   0  0  0  0  0  0  0  0  0  0  0  0
   -1.8484   -0.9716   -1.0249 H   0  0  0  0  0  0  0  0  0  0  0  0
    0.1804   -0.5789   -0.4146 C   0  0  1  0  0  0  0  0  0  0  0  0
    0.9163   -1.2321   -0.8982 H   0  0  0  0  0  0  0  0  0  0  0  0
    0.1306    0.7389   -1.2355 C   0  0  0  0  0  0  0  0  0  0  0  0
    0.3945    1.5816   -0.5851 H   0  0  0  0  0  0  0  0  0  0  0  0
    0.9062    0.6868   -2.0081 H   0  0  0  0  0  0  0  0  0  0  0  0
   -1.2247    1.0571   -1.9090 C   0  0  0  0  0  0  0  0  0  0  0  0
   -1.4892    0.2508   -2.5978 H   0  0  0  0  0  0  0  0  0  0  0  0
   -2.0036    1.1343   -1.1461 H   0  0  0  0  0  0  0  0  0  0  0  0
   -1.2350    2.3612   -2.7077 C   0  0  0  0  0  0  0  0  0  0  0  0
   -0.2286    3.0411   -2.7894 O   0  0  0  0  0  0  0  0  0  0  0  0
   -2.4002    2.6956   -3.3001 O   0  0  0  0  0  0  0  0  0  0  0  0
   -2.2169    3.5343   -3.7527 H   0  0  0  0  0  0  0  0  0  0  0  0
    0.7450   -0.2999    0.9986 C   0  0  0  0  0  0  0  0  0  0  0  0
    1.9559   -0.2544    1.1673 O   0  0  0  0  0  0  0  0  0  0  0  0
   -0.0896    0.1669    1.9981 N   0  0  0  0  0  0  0  0  0  0  0  0
   -1.0824    0.0172    1.8551 H   0  0  0  0  0  0  0  0  0  0  0  0
    0.3870    0.4628    3.3436 C   0  0  0  0  0  0  0  0  0  0  0  0
    1.1602    1.2379    3.3149 H   0  0  0  0  0  0  0  0  0  0  0  0
   -0.4372    0.8224    3.9669 H   0  0  0  0  0  0  0  0  0  0  0  0
    0.8073   -0.4364    3.8067 H   0  0  0  0  0  0  0  0  0  0  0  0
  1  2  1  0  0  0  0
  2  3  1  0  0  0  0
  2  4  1  0  0  0  0
  2  5  1  0  0  0  0
  5  6  2  0  0  0  0
  5  7  1  0  0  0  0
  7  8  1  0  0  0  0
  7  9  1  0  0  0  0
  9 10  1  0  0  0  0
  9 11  1  0  0  0  0
  9 21  1  0  0  0  0
 11 12  1  0  0  0  0
 11 13  1  0  0  0  0
 11 14  1  0  0  0  0
 14 15  1  0  0  0  0
 14 16  1  0  0  0  0
 14 17  1  0  0  0  0
 17 18  2  0  0  0  0
 17 19  1  0  0  0  0
 19 20  1  0  0  0  0
 21 22  2  0  0  0  0
 21 23  1  0  0  0  0
 23 24  1  0  0  0  0
 23 25  1  0  0  0  0
 25 26  1  0  0  0  0
 25 27  1  0  0  0  0
 25 28  1  0  0  0  0
M  END
$$$$

  -OEChem-03222214033D

 28 27  0     1  0  0  0  0  0999 V2000
   -2.5675   -4.2825    0.4066 H   0  0  0  0  0  0  0  0  0  0  0  0
   -2.6120   -3.2933   -0.0584 C   0  0  0  0  0  0  0  0  0  0  0  0
   -3.4128   -2.7189    0.4134 H   0  0  0  0  0  0  0  0  0  0  0  0
   -2.8356   -3.4151   -1.1211 H   0  0  0  0  0  0  0  0  0  0  0  0
   -1.2862   -2.5766    0.1144 C   0  0  0  0  0  0  0  0  0  0  0  0
   -0.3800   -3.1140    0.7231 O   0  0  0  0  0  0  0  0  0  0  0  0
   -1.1151   -1.3153   -0.4217 N   0  0  0  0  0  0  0  0  0  0  0  0
   -1.8836   -0.9518   -0.9745 H   0  0  0  0  0  0  0  0  0  0  0  0
    0.1691   -0.5814   -0.4259 C   0  0  1  0  0  0  0  0  0  0  0  0
    0.9003   -1.2308   -0.9219 H   0  0  0  0  0  0  0  0  0  0  0  0
    0.1128    0.7440   -1.2345 C   0  0  0  0  0  0  0  0  0  0  0  0
    0.4024    1.5861   -0.5945 H   0  0  0  0  0  0  0  0  0  0  0  0
    0.8757    0.6736   -2.0183 H   0  0  0  0  0  0  0  0  0  0  0  0
   -1.2448    1.0823   -1.8959 C   0  0  0  0  0  0  0  0  0  0  0  0
   -1.6316    0.2014   -2.4137 H   0  0  0  0  0  0  0  0  0  0  0  0
   -1.9665    1.3825   -1.1321 H   0  0  0  0  0  0  0  0  0  0  0  0
   -1.1608    2.1810   -2.9554 C   0  0  0  0  0  0  0  0  0  0  0  0
   -0.1831    2.9037   -3.0125 O   0  0  0  0  0  0  0  0  0  0  0  0
   -2.2155    2.3001   -3.7884 O   0  0  0  0  0  0  0  0  0  0  0  0
   -1.9867    3.0375   -4.3762 H   0  0  0  0  0  0  0  0  0  0  0  0
    0.7475   -0.3099    0.9832 C   0  0  0  0  0  0  0  0  0  0  0  0
    1.9598   -0.2658    1.1421 O   0  0  0  0  0  0  0  0  0  0  0  0
   -0.0789    0.1493    1.9932 N   0  0  0  0  0  0  0  0  0  0  0  0
   -1.0740    0.0101    1.8554 H   0  0  0  0  0  0  0  0  0  0  0  0
    0.4089    0.4540    3.3327 C   0  0  0  0  0  0  0  0  0  0  0  0
    1.1697    1.2410    3.2940 H   0  0  0  0  0  0  0  0  0  0  0  0
   -0.4132    0.8018    3.9654 H   0  0  0  0  0  0  0  0  0  0  0  0
    0.8482   -0.4382    3.7913 H   0  0  0  0  0  0  0  0  0  0  0  0
  1  2  1  0  0  0  0
  2  3  1  0  0  0  0
  2  4  1  0  0  0  0
  2  5  1  0  0  0  0
  5  6  2  0  0  0  0
  5  7  1  0  0  0  0
  7  8  1  0  0  0  0
  7  9  1  0  0  0  0
  9 10  1  0  0  0  0
  9 11  1  0  0  0  0
  9 21  1  0  0  0  0
 11 12  1  0  0  0  0
 11 13  1  0  0  0  0
 11 14  1  0  0  0  0
 14 15  1  0  0  0  0
 14 16  1  0  0  0  0
 14 17  1  0  0  0  0
 17 18  2  0  0  0  0
 17 19  1  0  0  0  0
 19 20  1  0  0  0  0
 21 22  2  0  0  0  0
 21 23  1  0  0  0  0
 23 24  1  0  0  0  0
 23 25  1  0  0  0  0
 25 26  1  0  0  0  0
 25 27  1  0  0  0  0
 25 28  1  0  0  0  0
M  END
$$$$

  -OEChem-03222214033D

 28 27  0     1  0  0  0  0  0999 V2000
   -2.5757   -4.2749    0.4906 H   0  0  0  0  0  0  0  0  0  0  0  0
   -2.6295   -3.2975    0.0025 C   0  0  0  0  0  0  0  0  0  0  0  0
   -3.4110   -2.7063    0.4857 H   0  0  0  0  0  0  0  0  0  0  0  0
   -2.8883   -3.4442   -1.0488 H   0  0  0  0  0  0  0  0  0  0  0  0
   -1.2944   -2.5859    0.1136 C   0  0  0  0  0  0  0  0  0  0  0  0
   -0.3609   -3.1303    0.6730 O   0  0  0  0  0  0  0  0  0  0  0  0
   -1.1482   -1.3174   -0.4137 N   0  0  0  0  0  0  0  0  0  0  0  0
   -1.9460   -0.9404   -0.9130 H   0  0  0  0  0  0  0  0  0  0  0  0
    0.1286   -0.5719   -0.4441 C   0  0  1  0  0  0  0  0  0  0  0  0
    0.8508   -1.2163   -0.9595 H   0  0  0  0  0  0  0  0  0  0  0  0
    0.0644    0.7619   -1.2416 C   0  0  0  0  0  0  0  0  0  0  0  0
    0.3789    1.5975   -0.6051 H   0  0  0  0  0  0  0  0  0  0  0  0
    0.8182    0.6820   -2.0334 H   0  0  0  0  0  0  0  0  0  0  0  0
   -1.2899    1.1406   -1.8934 C   0  0  0  0  0  0  0  0  0  0  0  0
   -1.8293    0.2469   -2.2095 H   0  0  0  0  0  0  0  0  0  0  0  0
   -1.9145    1.6840   -1.1797 H   0  0  0  0  0  0  0  0  0  0  0  0
   -1.1188    1.9727   -3.1630 C   0  0  0  0  0  0  0  0  0  0  0  0
   -0.2978    2.8711   -3.1775 O   0  0  0  0  0  0  0  0  0  0  0  0
   -1.9073    1.6737   -4.2171 O   0  0  0  0  0  0  0  0  0  0  0  0
   -1.6499    2.3052   -4.9076 H   0  0  0  0  0  0  0  0  0  0  0  0
    0.7378   -0.3117    0.9542 C   0  0  0  0  0  0  0  0  0  0  0  0
    1.9531   -0.2553    1.0834 O   0  0  0  0  0  0  0  0  0  0  0  0
   -0.0670    0.1282    1.9900 N   0  0  0  0  0  0  0  0  0  0  0  0
   -1.0641   -0.0168    1.8750 H   0  0  0  0  0  0  0  0  0  0  0  0
    0.4521    0.4137    3.3222 C   0  0  0  0  0  0  0  0  0  0  0  0
    1.2074    1.2055    3.2784 H   0  0  0  0  0  0  0  0  0  0  0  0
   -0.3558    0.7457    3.9812 H   0  0  0  0  0  0  0  0  0  0  0  0
    0.9080   -0.4831    3.7552 H   0  0  0  0  0  0  0  0  0  0  0  0
  1  2  1  0  0  0  0
  2  3  1  0  0  0  0
  2  4  1  0  0  0  0
  2  5  1  0  0  0  0
  5  6  2  0  0  0  0
  5  7  1  0  0  0  0
  7  8  1  0  0  0  0
  7  9  1  0  0  0  0
  9 10  1  0  0  0  0
  9 11  1  0  0  0  0
  9 21  1  0  0  0  0
 11 12  1  0  0  0  0
 11 13  1  0  0  0  0
 11 14  1  0  0  0  0
 14 15  1  0  0  0  0
 14 16  1  0  0  0  0
 14 17  1  0  0  0  0
 17 18  2  0  0  0  0
 17 19  1  0  0  0  0
 19 20  1  0  0  0  0
 21 22  2  0  0  0  0
 21 23  1  0  0  0  0
 23 24  1  0  0  0  0
 23 25  1  0  0  0  0
 25 26  1  0  0  0  0
 25 27  1  0  0  0  0
 25 28  1  0  0  0  0
M  END
$$$$

  -OEChem-03222214033D

 28 27  0     1  0  0  0  0  0999 V2000
   -2.6125   -4.2685    0.5175 H   0  0  0  0  0  0  0  0  0  0  0  0
   -2.6610   -3.3020    0.0076 C   0  0  0  0  0  0  0  0  0  0  0  0
   -3.4642   -2.7103    0.4530 H   0  0  0  0  0  0  0  0  0  0  0  0
   -2.8843   -3.4734   -1.0482 H   0  0  0  0  0  0  0  0  0  0  0  0
   -1.3385   -2.5721    0.1469 C   0  0  0  0  0  0  0  0  0  0  0  0
   -0.4145   -3.0992    0.7379 O   0  0  0  0  0  0  0  0  0  0  0  0
   -1.1961   -1.3070   -0.3898 N   0  0  0  0  0  0  0  0  0  0  0  0
   -1.9655   -0.9838   -0.9648 H   0  0  0  0  0  0  0  0  0  0  0  0
    0.0887   -0.5772   -0.4569 C   0  0  1  0  0  0  0  0  0  0  0  0
    0.7888   -1.2320   -0.9891 H   0  0  0  0  0  0  0  0  0  0  0  0
    0.0334    0.7640   -1.2475 C   0  0  0  0  0  0  0  0  0  0  0  0
    0.3803    1.5846   -0.6085 H   0  0  0  0  0  0  0  0  0  0  0  0
    0.7779    0.6772   -2.0475 H   0  0  0  0  0  0  0  0  0  0  0  0
   -1.3161    1.2043   -1.8758 C   0  0  0  0  0  0  0  0  0  0  0  0
   -2.0376    0.3917   -1.9343 H   0  0  0  0  0  0  0  0  0  0  0  0
   -1.7637    1.9960   -1.2687 H   0  0  0  0  0  0  0  0  0  0  0  0
   -1.1328    1.7078   -3.3033 C   0  0  0  0  0  0  0  0  0  0  0  0
   -0.5523    2.7624   -3.4781 O   0  0  0  0  0  0  0  0  0  0  0  0
   -1.6197    0.9508   -4.3097 O   0  0  0  0  0  0  0  0  0  0  0  0
   -1.3908    1.4345   -5.1193 H   0  0  0  0  0  0  0  0  0  0  0  0
    0.7339   -0.3232    0.9266 C   0  0  0  0  0  0  0  0  0  0  0  0
    1.9526   -0.2748    1.0255 O   0  0  0  0  0  0  0  0  0  0  0  0
   -0.0432    0.1277    1.9784 N   0  0  0  0  0  0  0  0  0  0  0  0
   -1.0424   -0.0213    1.8873 H   0  0  0  0  0  0  0  0  0  0  0  0
    0.5069    0.3997    3.3007 C   0  0  0  0  0  0  0  0  0  0  0  0
    1.2788    1.1746    3.2436 H   0  0  0  0  0  0  0  0  0  0  0  0
   -0.2812    0.7490    3.9744 H   0  0  0  0  0  0  0  0  0  0  0  0
    0.9501   -0.5079    3.7240 H   0  0  0  0  0  0  0  0  0  0  0  0
  1  2  1  0  0  0  0
  2  3  1  0  0  0  0
  2  4  1  0  0  0  0
  2  5  1  0  0  0  0
  5  6  2  0  0  0  0
  5  7  1  0  0  0  0
  7  8  1  0  0  0  0
  7  9  1  0  0  0  0
  9 10  1  0  0  0  0
  9 11  1  0  0  0  0
  9 21  1  0  0  0  0
 11 12  1  0  0  0  0
 11 13  1  0  0  0  0
 11 14  1  0  0  0  0
 14 15  1  0  0  0  0
 14 16  1  0  0  0  0
 14 17  1  0  0  0  0
 17 18  2  0  0  0  0
 17 19  1  0  0  0  0
 19 20  1  0  0  0  0
 21 22  2  0  0  0  0
 21 23  1  0  0  0  0
 23 24  1  0  0  0  0
 23 25  1  0  0  0  0
 25 26  1  0  0  0  0
 25 27  1  0  0  0  0
 25 28  1  0  0  0  0
M  END
$$$$

  -OEChem-03222214033D

 28 27  0     1  0  0  0  0  0999 V2000
   -2.6906   -4.2269    0.5040 H   0  0  0  0  0  0  0  0  0  0  0  0
   -2.7028   -3.2783   -0.0407 C   0  0  0  0  0  0  0  0  0  0  0  0
   -3.5379   -2.6753    0.3236 H   0  0  0  0  0  0  0  0  0  0  0  0
   -2.8465   -3.4860   -1.1037 H   0  0  0  0  0  0  0  0  0  0  0  0
   -1.3958   -2.5381    0.1712 C   0  0  0  0  0  0  0  0  0  0  0  0
   -0.5117   -3.0494    0.8331 O   0  0  0  0  0  0  0  0  0  0  0  0
   -1.2256   -1.2826   -0.3806 N   0  0  0  0  0  0  0  0  0  0  0  0
   -1.9324   -1.0180   -1.0584 H   0  0  0  0  0  0  0  0  0  0  0  0
    0.0803   -0.5929   -0.4550 C   0  0  1  0  0  0  0  0  0  0  0  0
    0.7612   -1.2682   -0.9868 H   0  0  0  0  0  0  0  0  0  0  0  0
    0.0543    0.7484   -1.2484 C   0  0  0  0  0  0  0  0  0  0  0  0
    0.4088    1.5537   -0.5941 H   0  0  0  0  0  0  0  0  0  0  0  0
    0.8049    0.6667   -2.0431 H   0  0  0  0  0  0  0  0  0  0  0  0
   -1.2873    1.2280   -1.8667 C   0  0  0  0  0  0  0  0  0  0  0  0
   -2.1346    0.5852   -1.6384 H   0  0  0  0  0  0  0  0  0  0  0  0
   -1.5283    2.2121   -1.4534 H   0  0  0  0  0  0  0  0  0  0  0  0
   -1.1875    1.3667   -3.3798 C   0  0  0  0  0  0  0  0  0  0  0  0
   -0.8067    2.4215   -3.8504 O   0  0  0  0  0  0  0  0  0  0  0  0
   -1.5258    0.2951   -4.1280 O   0  0  0  0  0  0  0  0  0  0  0  0
   -1.3807    0.5762   -5.0457 H   0  0  0  0  0  0  0  0  0  0  0  0
    0.7348   -0.3446    0.9257 C   0  0  0  0  0  0  0  0  0  0  0  0
    1.9549   -0.3190    1.0182 O   0  0  0  0  0  0  0  0  0  0  0  0
   -0.0278    0.1396    1.9730 N   0  0  0  0  0  0  0  0  0  0  0  0
   -1.0288   -0.0042    1.8906 H   0  0  0  0  0  0  0  0  0  0  0  0
    0.5331    0.4067    3.2915 C   0  0  0  0  0  0  0  0  0  0  0  0
    1.3147    1.1713    3.2284 H   0  0  0  0  0  0  0  0  0  0  0  0
   -0.2467    0.7674    3.9690 H   0  0  0  0  0  0  0  0  0  0  0  0
    0.9669   -0.5058    3.7143 H   0  0  0  0  0  0  0  0  0  0  0  0
  1  2  1  0  0  0  0
  2  3  1  0  0  0  0
  2  4  1  0  0  0  0
  2  5  1  0  0  0  0
  5  6  2  0  0  0  0
  5  7  1  0  0  0  0
  7  8  1  0  0  0  0
  7  9  1  0  0  0  0
  9 10  1  0  0  0  0
  9 11  1  0  0  0  0
  9 21  1  0  0  0  0
 11 12  1  0  0  0  0
 11 13  1  0  0  0  0
 11 14  1  0  0  0  0
 14 15  1  0  0  0  0
 14 16  1  0  0  0  0
 14 17  1  0  0  0  0
 17 18  2  0  0  0  0
 17 19  1  0  0  0  0
 19 20  1  0  0  0  0
 21 22  2  0  0  0  0
 21 23  1  0  0  0  0
 23 24  1  0  0  0  0
 23 25  1  0  0  0  0
 25 26  1  0  0  0  0
 25 27  1  0  0  0  0
 25 28  1  0  0  0  0
M  END
$$$$

  -OEChem-03222214033D

 28 27  0     1  0  0  0  0  0999 V2000
   -2.7444   -4.1829    0.4342 H   0  0  0  0  0  0  0  0  0  0  0  0
   -2.7246   -3.2367   -0.1143 C   0  0  0  0  0  0  0  0  0  0  0  0
   -3.5782   -2.6312    0.1994 H   0  0  0  0  0  0  0  0  0  0  0  0
   -2.8082   -3.4483   -1.1830 H   0  0  0  0  0  0  0  0  0  0  0  0
   -1.4302   -2.4980    0.1677 C   0  0  0  0  0  0  0  0  0  0  0  0
   -0.5907   -3.0035    0.8898 O   0  0  0  0  0  0  0  0  0  0  0  0
   -1.2206   -1.2522   -0.3917 N   0  0  0  0  0  0  0  0  0  0  0  0
   -1.8758   -1.0126   -1.1306 H   0  0  0  0  0  0  0  0  0  0  0  0
    0.1034   -0.5959   -0.4428 C   0  0  1  0  0  0  0  0  0  0  0  0
    0.7790   -1.2870   -0.9603 H   0  0  0  0  0  0  0  0  0  0  0  0
    0.1029    0.7386   -1.2460 C   0  0  0  0  0  0  0  0  0  0  0  0
    0.4357    1.5426   -0.5789 H   0  0  0  0  0  0  0  0  0  0  0  0
    0.8670    0.6686   -2.0286 H   0  0  0  0  0  0  0  0  0  0  0  0
   -1.2367    1.2064   -1.8707 C   0  0  0  0  0  0  0  0  0  0  0  0
   -2.1194    0.7692   -1.4049 H   0  0  0  0  0  0  0  0  0  0  0  0
   -1.3221    2.2862   -1.7139 H   0  0  0  0  0  0  0  0  0  0  0  0
   -1.2623    0.9750   -3.3740 C   0  0  0  0  0  0  0  0  0  0  0  0
   -0.9048    1.8650   -4.1217 O   0  0  0  0  0  0  0  0  0  0  0  0
   -1.6846   -0.2350   -3.8005 O   0  0  0  0  0  0  0  0  0  0  0  0
   -1.6132   -0.1943   -4.7680 H   0  0  0  0  0  0  0  0  0  0  0  0
    0.7397   -0.3485    0.9464 C   0  0  0  0  0  0  0  0  0  0  0  0
    1.9584   -0.3535    1.0595 O   0  0  0  0  0  0  0  0  0  0  0  0
   -0.0287    0.1659    1.9747 N   0  0  0  0  0  0  0  0  0  0  0  0
   -1.0308    0.0395    1.8758 H   0  0  0  0  0  0  0  0  0  0  0  0
    0.5136    0.4131    3.3048 C   0  0  0  0  0  0  0  0  0  0  0  0
    1.3280    1.1438    3.2578 H   0  0  0  0  0  0  0  0  0  0  0  0
   -0.2652    0.8081    3.9637 H   0  0  0  0  0  0  0  0  0  0  0  0
    0.8988   -0.5157    3.7390 H   0  0  0  0  0  0  0  0  0  0  0  0
  1  2  1  0  0  0  0
  2  3  1  0  0  0  0
  2  4  1  0  0  0  0
  2  5  1  0  0  0  0
  5  6  2  0  0  0  0
  5  7  1  0  0  0  0
  7  8  1  0  0  0  0
  7  9  1  0  0  0  0
  9 10  1  0  0  0  0
  9 11  1  0  0  0  0
  9 21  1  0  0  0  0
 11 12  1  0  0  0  0
 11 13  1  0  0  0  0
 11 14  1  0  0  0  0
 14 15  1  0  0  0  0
 14 16  1  0  0  0  0
 14 17  1  0  0  0  0
 17 18  2  0  0  0  0
 17 19  1  0  0  0  0
 19 20  1  0  0  0  0
 21 22  2  0  0  0  0
 21 23  1  0  0  0  0
 23 24  1  0  0  0  0
 23 25  1  0  0  0  0
 25 26  1  0  0  0  0
 25 27  1  0  0  0  0
 25 28  1  0  0  0  0
M  END
$$$$

  -OEChem-03222214033D

 28 27  0     1  0  0  0  0  0999 V2000
   -2.7806   -4.1564    0.3571 H   0  0  0  0  0  0  0  0  0  0  0  0
   -2.7320   -3.2081   -0.1859 C   0  0  0  0  0  0  0  0  0  0  0  0
   -3.5952   -2.5989    0.0925 H   0  0  0  0  0  0  0  0  0  0  0  0
   -2.7698   -3.4142   -1.2584 H   0  0  0  0  0  0  0  0  0  0  0  0
   -1.4480   -2.4762    0.1550 C   0  0  0  0  0  0  0  0  0  0  0  0
   -0.6487   -2.9791    0.9234 O   0  0  0  0  0  0  0  0  0  0  0  0
   -1.2028   -1.2399   -0.4091 N   0  0  0  0  0  0  0  0  0  0  0  0
   -1.8161   -1.0187   -1.1923 H   0  0  0  0  0  0  0  0  0  0  0  0
    0.1341   -0.6076   -0.4313 C   0  0  1  0  0  0  0  0  0  0  0  0
    0.8122   -1.3080   -0.9324 H   0  0  0  0  0  0  0  0  0  0  0  0
    0.1534    0.7229   -1.2390 C   0  0  0  0  0  0  0  0  0  0  0  0
    0.4781    1.5312   -0.5733 H   0  0  0  0  0  0  0  0  0  0  0  0
    0.9186    0.6496   -2.0203 H   0  0  0  0  0  0  0  0  0  0  0  0
   -1.1858    1.1682   -1.8697 C   0  0  0  0  0  0  0  0  0  0  0  0
   -2.0483    0.9349   -1.2423 H   0  0  0  0  0  0  0  0  0  0  0  0
   -1.1679    2.2579   -1.9666 H   0  0  0  0  0  0  0  0  0  0  0  0
   -1.3606    0.6031   -3.2705 C   0  0  0  0  0  0  0  0  0  0  0  0
   -0.9773    1.2446   -4.2296 O   0  0  0  0  0  0  0  0  0  0  0  0
   -1.9393   -0.6151   -3.3677 O   0  0  0  0  0  0  0  0  0  0  0  0
   -1.9490   -0.8035   -4.3211 H   0  0  0  0  0  0  0  0  0  0  0  0
    0.7432   -0.3570    0.9694 C   0  0  0  0  0  0  0  0  0  0  0  0
    1.9591   -0.3738    1.1075 O   0  0  0  0  0  0  0  0  0  0  0  0
   -0.0403    0.1815    1.9738 N   0  0  0  0  0  0  0  0  0  0  0  0
   -1.0411    0.0580    1.8584 H   0  0  0  0  0  0  0  0  0  0  0  0
    0.4774    0.4522    3.3091 C   0  0  0  0  0  0  0  0  0  0  0  0
    1.3109    1.1609    3.2614 H   0  0  0  0  0  0  0  0  0  0  0  0
   -0.3060    0.8858    3.9380 H   0  0  0  0  0  0  0  0  0  0  0  0
    0.8282   -0.4733    3.7779 H   0  0  0  0  0  0  0  0  0  0  0  0
  1  2  1  0  0  0  0
  2  3  1  0  0  0  0
  2  4  1  0  0  0  0
  2  5  1  0  0  0  0
  5  6  2  0  0  0  0
  5  7  1  0  0  0  0
  7  8  1  0  0  0  0
  7  9  1  0  0  0  0
  9 10  1  0  0  0  0
  9 11  1  0  0  0  0
  9 21  1  0  0  0  0
 11 12  1  0  0  0  0
 11 13  1  0  0  0  0
 11 14  1  0  0  0  0
 14 15  1  0  0  0  0
 14 16  1  0  0  0  0
 14 17  1  0  0  0  0
 17 18  2  0  0  0  0
 17 19  1  0  0  0  0
 19 20  1  0  0  0  0
 21 22  2  0  0  0  0
 21 23  1  0  0  0  0
 23 24  1  0  0  0  0
 23 25  1  0  0  0  0
 25 26  1  0  0  0  0
 25 27  1  0  0  0  0
 25 28  1  0  0  0  0
M  END
$$$$

  -OEChem-03222214033D

 28 27  0     1  0  0  0  0  0999 V2000
   -2.7667   -4.1642    0.3875 H   0  0  0  0  0  0  0  0  0  0  0  0
   -2.7180   -3.2174   -0.1581 C   0  0  0  0  0  0  0  0  0  0  0  0
   -3.5640   -2.5945    0.1420 H   0  0  0  0  0  0  0  0  0  0  0  0
   -2.7881   -3.4242   -1.2287 H   0  0  0  0  0  0  0  0  0  0  0  0
   -1.4143   -2.5051    0.1475 C   0  0  0  0  0  0  0  0  0  0  0  0
   -0.6005   -3.0211    0.8914 O   0  0  0  0  0  0  0  0  0  0  0  0
   -1.1669   -1.2696   -0.4168 N   0  0  0  0  0  0  0  0  0  0  0  0
   -1.8127   -1.0137   -1.1636 H   0  0  0  0  0  0  0  0  0  0  0  0
    0.1621   -0.6207   -0.4206 C   0  0  1  0  0  0  0  0  0  0  0  0
    0.8567   -1.3196   -0.9013 H   0  0  0  0  0  0  0  0  0  0  0  0
    0.1916    0.7023   -1.2402 C   0  0  0  0  0  0  0  0  0  0  0  0
    0.5026    1.5199   -0.5797 H   0  0  0  0  0  0  0  0  0  0  0  0
    0.9690    0.6162   -2.0077 H   0  0  0  0  0  0  0  0  0  0  0  0
   -1.1282    1.1385   -1.9123 C   0  0  0  0  0  0  0  0  0  0  0  0
   -1.9575    1.1028   -1.2012 H   0  0  0  0  0  0  0  0  0  0  0  0
   -1.0290    2.1801   -2.2320 H   0  0  0  0  0  0  0  0  0  0  0  0
   -1.4605    0.3104   -3.1485 C   0  0  0  0  0  0  0  0  0  0  0  0
   -0.9272    0.5934   -4.2032 O   0  0  0  0  0  0  0  0  0  0  0  0
   -2.3344   -0.7124   -3.0083 O   0  0  0  0  0  0  0  0  0  0  0  0
   -2.4104   -1.0860   -3.9031 H   0  0  0  0  0  0  0  0  0  0  0  0
    0.7404   -0.3570    0.9903 C   0  0  0  0  0  0  0  0  0  0  0  0
    1.9532   -0.3563    1.1544 O   0  0  0  0  0  0  0  0  0  0  0  0
   -0.0701    0.1757    1.9761 N   0  0  0  0  0  0  0  0  0  0  0  0
   -1.0676    0.0478    1.8391 H   0  0  0  0  0  0  0  0  0  0  0  0
    0.4182    0.4705    3.3174 C   0  0  0  0  0  0  0  0  0  0  0  0
    1.2127    1.2233    3.2793 H   0  0  0  0  0  0  0  0  0  0  0  0
   -0.3942    0.8588    3.9391 H   0  0  0  0  0  0  0  0  0  0  0  0
    0.8142   -0.4357    3.7881 H   0  0  0  0  0  0  0  0  0  0  0  0
  1  2  1  0  0  0  0
  2  3  1  0  0  0  0
  2  4  1  0  0  0  0
  2  5  1  0  0  0  0
  5  6  2  0  0  0  0
  5  7  1  0  0  0  0
  7  8  1  0  0  0  0
  7  9  1  0  0  0  0
  9 10  1  0  0  0  0
  9 11  1  0  0  0  0
  9 21  1  0  0  0  0
 11 12  1  0  0  0  0
 11 13  1  0  0  0  0
 11 14  1  0  0  0  0
 14 15  1  0  0  0  0
 14 16  1  0  0  0  0
 14 17  1  0  0  0  0
 17 18  2  0  0  0  0
 17 19  1  0  0  0  0
 19 20  1  0  0  0  0
 21 22  2  0  0  0  0
 21 23  1  0  0  0  0
 23 24  1  0  0  0  0
 23 25  1  0  0  0  0
 25 26  1  0  0  0  0
 25 27  1  0  0  0  0
 25 28  1  0  0  0  0
M  END
$$$$

  -OEChem-03222214033D

 28 27  0     1  0  0  0  0  0999 V2000
   -2.6739   -4.2404    0.4189 H   0  0  0  0  0  0  0  0  0  0  0  0
   -2.6757   -3.2626   -0.0710 C   0  0  0  0  0  0  0  0  0  0  0  0
   -3.4909   -2.6634    0.3414 H   0  0  0  0  0  0  0  0  0  0  0  0
   -2.8433   -3.4066   -1.1409 H   0  0  0  0  0  0  0  0  0  0  0  0
   -1.3496   -2.5624    0.1560 C   0  0  0  0  0  0  0  0  0  0  0  0
   -0.4915   -3.0918    0.8381 O   0  0  0  0  0  0  0  0  0  0  0  0
   -1.1283   -1.3223   -0.4084 N   0  0  0  0  0  0  0  0  0  0  0  0
   -1.8545   -0.9934   -1.0429 H   0  0  0  0  0  0  0  0  0  0  0  0
    0.1773   -0.6292   -0.4079 C   0  0  1  0  0  0  0  0  0  0  0  0
    0.8938   -1.3194   -0.8686 H   0  0  0  0  0  0  0  0  0  0  0  0
    0.2073    0.6802   -1.2498 C   0  0  0  0  0  0  0  0  0  0  0  0
    0.5074    1.5129   -0.6034 H   0  0  0  0  0  0  0  0  0  0  0  0
    1.0001    0.5720   -1.9986 H   0  0  0  0  0  0  0  0  0  0  0  0
   -1.0828    1.1130   -1.9820 C   0  0  0  0  0  0  0  0  0  0  0  0
   -1.8695    1.3020   -1.2466 H   0  0  0  0  0  0  0  0  0  0  0  0
   -0.8953    2.0548   -2.5056 H   0  0  0  0  0  0  0  0  0  0  0  0
   -1.5953    0.1015   -3.0035 C   0  0  0  0  0  0  0  0  0  0  0  0
   -0.9788   -0.0370   -4.0413 O   0  0  0  0  0  0  0  0  0  0  0  0
   -2.7098   -0.6037   -2.7041 O   0  0  0  0  0  0  0  0  0  0  0  0
   -2.8791   -1.1341   -3.5017 H   0  0  0  0  0  0  0  0  0  0  0  0
    0.7323   -0.3427    1.0074 C   0  0  0  0  0  0  0  0  0  0  0  0
    1.9424   -0.2968    1.1839 O   0  0  0  0  0  0  0  0  0  0  0  0
   -0.1058    0.1651    1.9836 N   0  0  0  0  0  0  0  0  0  0  0  0
   -1.0976    0.0089    1.8363 H   0  0  0  0  0  0  0  0  0  0  0  0
    0.3597    0.4819    3.3282 C   0  0  0  0  0  0  0  0  0  0  0  0
    1.1506    1.2386    3.2924 H   0  0  0  0  0  0  0  0  0  0  0  0
   -0.4638    0.8746    3.9321 H   0  0  0  0  0  0  0  0  0  0  0  0
    0.7534   -0.4154    3.8173 H   0  0  0  0  0  0  0  0  0  0  0  0
  1  2  1  0  0  0  0
  2  3  1  0  0  0  0
  2  4  1  0  0  0  0
  2  5  1  0  0  0  0
  5  6  2  0  0  0  0
  5  7  1  0  0  0  0
  7  8  1  0  0  0  0
  7  9  1  0  0  0  0
  9 10  1  0  0  0  0
  9 11  1  0  0  0  0
  9 21  1  0  0  0  0
 11 12  1  0  0  0  0
 11 13  1  0  0  0  0
 11 14  1  0  0  0  0
 14 15  1  0  0  0  0
 14 16  1  0  0  0  0
 14 17  1  0  0  0  0
 17 18  2  0  0  0  0
 17 19  1  0  0  0  0
 19 20  1  0  0  0  0
 21 22  2  0  0  0  0
 21 23  1  0  0  0  0
 23 24  1  0  0  0  0
 23 25  1  0  0  0  0
 25 26  1  0  0  0  0
 25 27  1  0  0  0  0
 25 28  1  0  0  0  0
M  END
$$$$

  -OEChem-03222214033D

 28 27  0     1  0  0  0  0  0999 V2000
   -2.5897   -4.2901    0.5660 H   0  0  0  0  0  0  0  0  0  0  0  0
   -2.6163   -3.3232    0.0553 C   0  0  0  0  0  0  0  0  0  0  0  0
   -3.3943   -2.7057    0.5103 H   0  0  0  0  0  0  0  0  0  0  0  0
   -2.8596   -3.4883   -0.9969 H   0  0  0  0  0  0  0  0  0  0  0  0
   -1.2703   -2.6341    0.1729 C   0  0  0  0  0  0  0  0  0  0  0  0
   -0.3611   -3.1722    0.7778 O   0  0  0  0  0  0  0  0  0  0  0  0
   -1.0888   -1.3902   -0.3970 N   0  0  0  0  0  0  0  0  0  0  0  0
   -1.8885   -0.9993   -0.8918 H   0  0  0  0  0  0  0  0  0  0  0  0
    0.1877   -0.6492   -0.3982 C   0  0  1  0  0  0  0  0  0  0  0  0
    0.9277   -1.3265   -0.8411 H   0  0  0  0  0  0  0  0  0  0  0  0
    0.2095    0.6503   -1.2594 C   0  0  0  0  0  0  0  0  0  0  0  0
    0.5067    1.4936   -0.6256 H   0  0  0  0  0  0  0  0  0  0  0  0
    1.0157    0.5199   -1.9899 H   0  0  0  0  0  0  0  0  0  0  0  0
   -1.0448    1.0982   -2.0511 C   0  0  0  0  0  0  0  0  0  0  0  0
   -1.7598    1.5284   -1.3445 H   0  0  0  0  0  0  0  0  0  0  0  0
   -0.7592    1.8942   -2.7449 H   0  0  0  0  0  0  0  0  0  0  0  0
   -1.7769    0.0201   -2.8449 C   0  0  0  0  0  0  0  0  0  0  0  0
   -1.2726   -0.3794   -3.8754 O   0  0  0  0  0  0  0  0  0  0  0  0
   -2.9554   -0.4443   -2.3695 O   0  0  0  0  0  0  0  0  0  0  0  0
   -3.2740   -1.0464   -3.0636 H   0  0  0  0  0  0  0  0  0  0  0  0
    0.7200   -0.3367    1.0203 C   0  0  0  0  0  0  0  0  0  0  0  0
    1.9258   -0.2468    1.2087 O   0  0  0  0  0  0  0  0  0  0  0  0
   -0.1442    0.1426    1.9884 N   0  0  0  0  0  0  0  0  0  0  0  0
   -1.1310   -0.0289    1.8274 H   0  0  0  0  0  0  0  0  0  0  0  0
    0.2970    0.4893    3.3338 C   0  0  0  0  0  0  0  0  0  0  0  0
    1.0617    1.2725    3.2976 H   0  0  0  0  0  0  0  0  0  0  0  0
   -0.5455    0.8598    3.9255 H   0  0  0  0  0  0  0  0  0  0  0  0
    0.7163   -0.3888    3.8363 H   0  0  0  0  0  0  0  0  0  0  0  0
  1  2  1  0  0  0  0
  2  3  1  0  0  0  0
  2  4  1  0  0  0  0
  2  5  1  0  0  0  0
  5  6  2  0  0  0  0
  5  7  1  0  0  0  0
  7  8  1  0  0  0  0
  7  9  1  0  0  0  0
  9 10  1  0  0  0  0
  9 11  1  0  0  0  0
  9 21  1  0  0  0  0
 11 12  1  0  0  0  0
 11 13  1  0  0  0  0
 11 14  1  0  0  0  0
 14 15  1  0  0  0  0
 14 16  1  0  0  0  0
 14 17  1  0  0  0  0
 17 18  2  0  0  0  0
 17 19  1  0  0  0  0
 19 20  1  0  0  0  0
 21 22  2  0  0  0  0
 21 23  1  0  0  0  0
 23 24  1  0  0  0  0
 23 25  1  0  0  0  0
 25 26  1  0  0  0  0
 25 27  1  0  0  0  0
 25 28  1  0  0  0  0
M  END
$$$$

  -OEChem-03222214033D

 28 27  0     1  0  0  0  0  0999 V2000
   -2.4838   -4.3473    0.6864 H   0  0  0  0  0  0  0  0  0  0  0  0
   -2.5446   -3.3869    0.1664 C   0  0  0  0  0  0  0  0  0  0  0  0
   -3.2957   -2.7661    0.6604 H   0  0  0  0  0  0  0  0  0  0  0  0
   -2.8502   -3.5658   -0.8673 H   0  0  0  0  0  0  0  0  0  0  0  0
   -1.1959   -2.6937    0.1938 C   0  0  0  0  0  0  0  0  0  0  0  0
   -0.2465   -3.2287    0.7365 O   0  0  0  0  0  0  0  0  0  0  0  0
   -1.0572   -1.4473   -0.3826 N   0  0  0  0  0  0  0  0  0  0  0  0
   -1.9051   -1.0225   -0.7523 H   0  0  0  0  0  0  0  0  0  0  0  0
    0.1923   -0.6653   -0.3895 C   0  0  1  0  0  0  0  0  0  0  0  0
    0.9522   -1.3280   -0.8211 H   0  0  0  0  0  0  0  0  0  0  0  0
    0.1977    0.6265   -1.2664 C   0  0  0  0  0  0  0  0  0  0  0  0
    0.4929    1.4770   -0.6412 H   0  0  0  0  0  0  0  0  0  0  0  0
    1.0138    0.4855   -1.9838 H   0  0  0  0  0  0  0  0  0  0  0  0
   -1.0306    1.0861   -2.1015 C   0  0  0  0  0  0  0  0  0  0  0  0
   -1.6323    1.7433   -1.4677 H   0  0  0  0  0  0  0  0  0  0  0  0
   -0.6744    1.6936   -2.9386 H   0  0  0  0  0  0  0  0  0  0  0  0
   -1.9850    0.0336   -2.6565 C   0  0  0  0  0  0  0  0  0  0  0  0
   -1.6928   -0.5152   -3.7003 O   0  0  0  0  0  0  0  0  0  0  0  0
   -3.1209   -0.2374   -1.9729 O   0  0  0  0  0  0  0  0  0  0  0  0
   -3.6143   -0.8410   -2.5542 H   0  0  0  0  0  0  0  0  0  0  0  0
    0.7103   -0.3314    1.0292 C   0  0  0  0  0  0  0  0  0  0  0  0
    1.9119   -0.2053    1.2228 O   0  0  0  0  0  0  0  0  0  0  0  0
   -0.1717    0.1219    1.9940 N   0  0  0  0  0  0  0  0  0  0  0  0
   -1.1542   -0.0671    1.8267 H   0  0  0  0  0  0  0  0  0  0  0  0
    0.2522    0.4942    3.3382 C   0  0  0  0  0  0  0  0  0  0  0  0
    0.9999    1.2936    3.2978 H   0  0  0  0  0  0  0  0  0  0  0  0
   -0.6028    0.8533    3.9188 H   0  0  0  0  0  0  0  0  0  0  0  0
    0.6865   -0.3684    3.8546 H   0  0  0  0  0  0  0  0  0  0  0  0
  1  2  1  0  0  0  0
  2  3  1  0  0  0  0
  2  4  1  0  0  0  0
  2  5  1  0  0  0  0
  5  6  2  0  0  0  0
  5  7  1  0  0  0  0
  7  8  1  0  0  0  0
  7  9  1  0  0  0  0
  9 10  1  0  0  0  0
  9 11  1  0  0  0  0
  9 21  1  0  0  0  0
 11 12  1  0  0  0  0
 11 13  1  0  0  0  0
 11 14  1  0  0  0  0
 14 15  1  0  0  0  0
 14 16  1  0  0  0  0
 14 17  1  0  0  0  0
 17 18  2  0  0  0  0
 17 19  1  0  0  0  0
 19 20  1  0  0  0  0
 21 22  2  0  0  0  0
 21 23  1  0  0  0  0
 23 24  1  0  0  0  0
 23 25  1  0  0  0  0
 25 26  1  0  0  0  0
 25 27  1  0  0  0  0
 25 28  1  0  0  0  0
M  END
$$$$

  -OEChem-03222214033D

 28 27  0     1  0  0  0  0  0999 V2000
   -2.2455   -4.4211    0.9094 H   0  0  0  0  0  0  0  0  0  0  0  0
   -2.3864   -3.4763    0.3767 C   0  0  0  0  0  0  0  0  0  0  0  0
   -3.1142   -2.8701    0.9208 H   0  0  0  0  0  0  0  0  0  0  0  0
   -2.7732   -3.6911   -0.6224 H   0  0  0  0  0  0  0  0  0  0  0  0
   -1.0673   -2.7360    0.2704 C   0  0  0  0  0  0  0  0  0  0  0  0
   -0.0544   -3.2252    0.7366 O   0  0  0  0  0  0  0  0  0  0  0  0
   -1.0264   -1.5006   -0.3438 N   0  0  0  0  0  0  0  0  0  0  0  0
   -1.9242   -1.0946   -0.5957 H   0  0  0  0  0  0  0  0  0  0  0  0
    0.1766   -0.6552   -0.4278 C   0  0  1  0  0  0  0  0  0  0  0  0
    0.9504   -1.2933   -0.8715 H   0  0  0  0  0  0  0  0  0  0  0  0
    0.0920    0.6100   -1.3404 C   0  0  0  0  0  0  0  0  0  0  0  0
    0.3755    1.4852   -0.7446 H   0  0  0  0  0  0  0  0  0  0  0  0
    0.8941    0.4836   -2.0759 H   0  0  0  0  0  0  0  0  0  0  0  0
   -1.1711    1.0207   -2.1563 C   0  0  0  0  0  0  0  0  0  0  0  0
   -1.6236    1.8742   -1.6443 H   0  0  0  0  0  0  0  0  0  0  0  0
   -0.8410    1.3839   -3.1344 H   0  0  0  0  0  0  0  0  0  0  0  0
   -2.3056    0.0288   -2.3906 C   0  0  0  0  0  0  0  0  0  0  0  0
   -2.3121   -0.6070   -3.4259 O   0  0  0  0  0  0  0  0  0  0  0  0
   -3.2714   -0.0866   -1.4497 O   0  0  0  0  0  0  0  0  0  0  0  0
   -3.9434   -0.6573   -1.8600 H   0  0  0  0  0  0  0  0  0  0  0  0
    0.7352   -0.2579    0.9588 C   0  0  0  0  0  0  0  0  0  0  0  0
    1.9359   -0.0687    1.0996 O   0  0  0  0  0  0  0  0  0  0  0  0
   -0.1283    0.1734    1.9502 N   0  0  0  0  0  0  0  0  0  0  0  0
   -1.1101   -0.0456    1.8197 H   0  0  0  0  0  0  0  0  0  0  0  0
    0.3292    0.6015    3.2663 C   0  0  0  0  0  0  0  0  0  0  0  0
    1.0126    1.4527    3.1777 H   0  0  0  0  0  0  0  0  0  0  0  0
   -0.5218    0.9072    3.8822 H   0  0  0  0  0  0  0  0  0  0  0  0
    0.8504   -0.2172    3.7737 H   0  0  0  0  0  0  0  0  0  0  0  0
  1  2  1  0  0  0  0
  2  3  1  0  0  0  0
  2  4  1  0  0  0  0
  2  5  1  0  0  0  0
  5  6  2  0  0  0  0
  5  7  1  0  0  0  0
  7  8  1  0  0  0  0
  7  9  1  0  0  0  0
  9 10  1  0  0  0  0
  9 11  1  0  0  0  0
  9 21  1  0  0  0  0
 11 12  1  0  0  0  0
 11 13  1  0  0  0  0
 11 14  1  0  0  0  0
 14 15  1  0  0  0  0
 14 16  1  0  0  0  0
 14 17  1  0  0  0  0
 17 18  2  0  0  0  0
 17 19  1  0  0  0  0
 19 20  1  0  0  0  0
 21 22  2  0  0  0  0
 21 23  1  0  0  0  0
 23 24  1  0  0  0  0
 23 25  1  0  0  0  0
 25 26  1  0  0  0  0
 25 27  1  0  0  0  0
 25 28  1  0  0  0  0
M  END
$$$$

  -OEChem-03222214033D

 28 27  0     1  0  0  0  0  0999 V2000
   -1.9378   -4.6001    0.9901 H   0  0  0  0  0  0  0  0  0  0  0  0
   -2.1455   -3.6969    0.4093 C   0  0  0  0  0  0  0  0  0  0  0  0
   -3.0852   -3.2614    0.7568 H   0  0  0  0  0  0  0  0  0  0  0  0
   -2.2472   -3.9723   -0.6435 H   0  0  0  0  0  0  0  0  0  0  0  0
   -1.0186   -2.6959    0.5774 C   0  0  0  0  0  0  0  0  0  0  0  0
   -0.1279   -2.9160    1.3782 O   0  0  0  0  0  0  0  0  0  0  0  0
   -1.0223   -1.5429   -0.1828 N   0  0  0  0  0  0  0  0  0  0  0  0
   -1.6690   -1.5912   -0.9689 H   0  0  0  0  0  0  0  0  0  0  0  0
    0.1647   -0.6867   -0.3667 C   0  0  1  0  0  0  0  0  0  0  0  0
    0.9544   -1.3380   -0.7588 H   0  0  0  0  0  0  0  0  0  0  0  0
    0.0187    0.5081   -1.3712 C   0  0  0  0  0  0  0  0  0  0  0  0
    0.2875    1.4290   -0.8402 H   0  0  0  0  0  0  0  0  0  0  0  0
    0.8102    0.3626   -2.1144 H   0  0  0  0  0  0  0  0  0  0  0  0
   -1.2760    0.8518   -2.1755 C   0  0  0  0  0  0  0  0  0  0  0  0
   -1.5518    1.8810   -1.9276 H   0  0  0  0  0  0  0  0  0  0  0  0
   -1.0191    0.8485   -3.2387 H   0  0  0  0  0  0  0  0  0  0  0  0
   -2.5445    0.0187   -2.0366 C   0  0  0  0  0  0  0  0  0  0  0  0
   -2.5708   -1.1001   -2.5204 O   0  0  0  0  0  0  0  0  0  0  0  0
   -3.5833    0.5585   -1.3640 O   0  0  0  0  0  0  0  0  0  0  0  0
   -4.3023   -0.0893   -1.4216 H   0  0  0  0  0  0  0  0  0  0  0  0
    0.7156   -0.1185    0.9646 C   0  0  0  0  0  0  0  0  0  0  0  0
    1.9131    0.1139    1.0707 O   0  0  0  0  0  0  0  0  0  0  0  0
   -0.1563    0.4067    1.9008 N   0  0  0  0  0  0  0  0  0  0  0  0
   -1.1221    0.1047    1.8182 H   0  0  0  0  0  0  0  0  0  0  0  0
    0.2962    0.9664    3.1679 C   0  0  0  0  0  0  0  0  0  0  0  0
    0.9532    1.8254    2.9957 H   0  0  0  0  0  0  0  0  0  0  0  0
   -0.5600    1.3021    3.7607 H   0  0  0  0  0  0  0  0  0  0  0  0
    0.8446    0.2133    3.7437 H   0  0  0  0  0  0  0  0  0  0  0  0
  1  2  1  0  0  0  0
  2  3  1  0  0  0  0
  2  4  1  0  0  0  0
  2  5  1  0  0  0  0
  5  6  2  0  0  0  0
  5  7  1  0  0  0  0
  7  8  1  0  0  0  0
  7  9  1  0  0  0  0
  9 10  1  0  0  0  0
  9 11  1  0  0  0  0
  9 21  1  0  0  0  0
 11 12  1  0  0  0  0
 11 13  1  0  0  0  0
 11 14  1  0  0  0  0
 14 15  1  0  0  0  0
 14 16  1  0  0  0  0
 14 17  1  0  0  0  0
 17 18  2  0  0  0  0
 17 19  1  0  0  0  0
 19 20  1  0  0  0  0
 21 22  2  0  0  0  0
 21 23  1  0  0  0  0
 23 24  1  0  0  0  0
 23 25  1  0  0  0  0
 25 26  1  0  0  0  0
 25 27  1  0  0  0  0
 25 28  1  0  0  0  0
M  END
$$$$

  -OEChem-03222214033D

 28 27  0     1  0  0  0  0  0999 V2000
   -2.0530   -4.5923    0.1852 H   0  0  0  0  0  0  0  0  0  0  0  0
   -2.2648   -3.5771   -0.1628 C   0  0  0  0  0  0  0  0  0  0  0  0
   -3.1016   -3.1754    0.4135 H   0  0  0  0  0  0  0  0  0  0  0  0
   -2.5428   -3.6186   -1.2186 H   0  0  0  0  0  0  0  0  0  0  0  0
   -1.0417   -2.6984    0.0183 C   0  0  0  0  0  0  0  0  0  0  0  0
   -0.0307   -3.1639    0.5115 O   0  0  0  0  0  0  0  0  0  0  0  0
   -1.0879   -1.3799   -0.3911 N   0  0  0  0  0  0  0  0  0  0  0  0
   -1.8818   -1.1546   -0.9849 H   0  0  0  0  0  0  0  0  0  0  0  0
    0.0980   -0.5074   -0.4839 C   0  0  1  0  0  0  0  0  0  0  0  0
    0.8121   -1.0236   -1.1361 H   0  0  0  0  0  0  0  0  0  0  0  0
   -0.1303    0.9175   -1.0937 C   0  0  0  0  0  0  0  0  0  0  0  0
    0.2024    1.6480   -0.3469 H   0  0  0  0  0  0  0  0  0  0  0  0
    0.5711    1.0161   -1.9293 H   0  0  0  0  0  0  0  0  0  0  0  0
   -1.5100    1.4480   -1.5898 C   0  0  0  0  0  0  0  0  0  0  0  0
   -1.6062    2.4946   -1.2857 H   0  0  0  0  0  0  0  0  0  0  0  0
   -1.4868    1.4419   -2.6832 H   0  0  0  0  0  0  0  0  0  0  0  0
   -2.7960    0.7328   -1.1934 C   0  0  0  0  0  0  0  0  0  0  0  0
   -3.3379    1.0560   -0.1544 O   0  0  0  0  0  0  0  0  0  0  0  0
   -3.2668   -0.2481   -1.9960 O   0  0  0  0  0  0  0  0  0  0  0  0
   -4.1346   -0.4812   -1.6256 H   0  0  0  0  0  0  0  0  0  0  0  0
    0.8190   -0.3340    0.8758 C   0  0  0  0  0  0  0  0  0  0  0  0
    2.0318   -0.1689    0.9012 O   0  0  0  0  0  0  0  0  0  0  0  0
    0.0811   -0.0880    2.0191 N   0  0  0  0  0  0  0  0  0  0  0  0
   -0.9167   -0.2689    1.9582 H   0  0  0  0  0  0  0  0  0  0  0  0
    0.6876    0.1032    3.3297 C   0  0  0  0  0  0  0  0  0  0  0  0
    1.3635    0.9647    3.3176 H   0  0  0  0  0  0  0  0  0  0  0  0
   -0.0860    0.2832    4.0821 H   0  0  0  0  0  0  0  0  0  0  0  0
    1.2557   -0.7868    3.6205 H   0  0  0  0  0  0  0  0  0  0  0  0
  1  2  1  0  0  0  0
  2  3  1  0  0  0  0
  2  4  1  0  0  0  0
  2  5  1  0  0  0  0
  5  6  2  0  0  0  0
  5  7  1  0  0  0  0
  7  8  1  0  0  0  0
  7  9  1  0  0  0  0
  9 10  1  0  0  0  0
  9 11  1  0  0  0  0
  9 21  1  0  0  0  0
 11 12  1  0  0  0  0
 11 13  1  0  0  0  0
 11 14  1  0  0  0  0
 14 15  1  0  0  0  0
 14 16  1  0  0  0  0
 14 17  1  0  0  0  0
 17 18  2  0  0  0  0
 17 19  1  0  0  0  0
 19 20  1  0  0  0  0
 21 22  2  0  0  0  0
 21 23  1  0  0  0  0
 23 24  1  0  0  0  0
 23 25  1  0  0  0  0
 25 26  1  0  0  0  0
 25 27  1  0  0  0  0
 25 28  1  0  0  0  0
M  END
$$$$

  -OEChem-03222214033D

 28 27  0     1  0  0  0  0  0999 V2000
   -2.4647   -4.4099    0.4496 H   0  0  0  0  0  0  0  0  0  0  0  0
   -2.5443   -3.4127    0.0069 C   0  0  0  0  0  0  0  0  0  0  0  0
   -3.3448   -2.8667    0.5116 H   0  0  0  0  0  0  0  0  0  0  0  0
   -2.7929   -3.5174   -1.0521 H   0  0  0  0  0  0  0  0  0  0  0  0
   -1.2326   -2.6670    0.1618 C   0  0  0  0  0  0  0  0  0  0  0  0
   -0.2997   -3.1959    0.7378 O   0  0  0  0  0  0  0  0  0  0  0  0
   -1.1076   -1.3975   -0.3677 N   0  0  0  0  0  0  0  0  0  0  0  0
   -1.8612   -1.1148   -0.9898 H   0  0  0  0  0  0  0  0  0  0  0  0
    0.1628   -0.6474   -0.4278 C   0  0  1  0  0  0  0  0  0  0  0  0
    0.8781   -1.2798   -0.9662 H   0  0  0  0  0  0  0  0  0  0  0  0
    0.1084    0.7285   -1.1718 C   0  0  0  0  0  0  0  0  0  0  0  0
    0.4359    1.4994   -0.4641 H   0  0  0  0  0  0  0  0  0  0  0  0
    0.8724    0.7030   -1.9561 H   0  0  0  0  0  0  0  0  0  0  0  0
   -1.1963    1.2859   -1.8070 C   0  0  0  0  0  0  0  0  0  0  0  0
   -1.1329    2.3772   -1.8466 H   0  0  0  0  0  0  0  0  0  0  0  0
   -1.2387    0.9325   -2.8410 H   0  0  0  0  0  0  0  0  0  0  0  0
   -2.5262    0.9115   -1.1624 C   0  0  0  0  0  0  0  0  0  0  0  0
   -2.8097    1.4132   -0.0916 O   0  0  0  0  0  0  0  0  0  0  0  0
   -3.3042   -0.0076   -1.7769 O   0  0  0  0  0  0  0  0  0  0  0  0
   -4.1229   -0.0328   -1.2538 H   0  0  0  0  0  0  0  0  0  0  0  0
    0.7761   -0.4045    0.9731 C   0  0  0  0  0  0  0  0  0  0  0  0
    1.9923   -0.3564    1.1044 O   0  0  0  0  0  0  0  0  0  0  0  0
   -0.0324    0.0199    2.0116 N   0  0  0  0  0  0  0  0  0  0  0  0
   -1.0348    0.0125    1.8449 H   0  0  0  0  0  0  0  0  0  0  0  0
    0.4688    0.3467    3.3395 C   0  0  0  0  0  0  0  0  0  0  0  0
    1.1800    1.1777    3.2873 H   0  0  0  0  0  0  0  0  0  0  0  0
   -0.3577    0.6398    3.9938 H   0  0  0  0  0  0  0  0  0  0  0  0
    0.9707   -0.5205    3.7815 H   0  0  0  0  0  0  0  0  0  0  0  0
  1  2  1  0  0  0  0
  2  3  1  0  0  0  0
  2  4  1  0  0  0  0
  2  5  1  0  0  0  0
  5  6  2  0  0  0  0
  5  7  1  0  0  0  0
  7  8  1  0  0  0  0
  7  9  1  0  0  0  0
  9 10  1  0  0  0  0
  9 11  1  0  0  0  0
  9 21  1  0  0  0  0
 11 12  1  0  0  0  0
 11 13  1  0  0  0  0
 11 14  1  0  0  0  0
 14 15  1  0  0  0  0
 14 16  1  0  0  0  0
 14 17  1  0  0  0  0
 17 18  2  0  0  0  0
 17 19  1  0  0  0  0
 19 20  1  0  0  0  0
 21 22  2  0  0  0  0
 21 23  1  0  0  0  0
 23 24  1  0  0  0  0
 23 25  1  0  0  0  0
 25 26  1  0  0  0  0
 25 27  1  0  0  0  0
 25 28  1  0  0  0  0
M  END
$$$$

  -OEChem-03222214033D

 28 27  0     1  0  0  0  0  0999 V2000
   -2.3436   -4.3322    0.6850 H   0  0  0  0  0  0  0  0  0  0  0  0
   -2.4649   -3.3238    0.2795 C   0  0  0  0  0  0  0  0  0  0  0  0
   -2.9838   -2.7084    1.0182 H   0  0  0  0  0  0  0  0  0  0  0  0
   -3.0687   -3.3798   -0.6294 H   0  0  0  0  0  0  0  0  0  0  0  0
   -1.1087   -2.7226   -0.0364 C   0  0  0  0  0  0  0  0  0  0  0  0
   -0.0974   -3.3818    0.1266 O   0  0  0  0  0  0  0  0  0  0  0  0
   -1.0314   -1.4281   -0.5105 N   0  0  0  0  0  0  0  0  0  0  0  0
   -1.8933   -0.9001   -0.4041 H   0  0  0  0  0  0  0  0  0  0  0  0
    0.2222   -0.6509   -0.4753 C   0  0  1  0  0  0  0  0  0  0  0  0
    0.9796   -1.2421   -1.0037 H   0  0  0  0  0  0  0  0  0  0  0  0
    0.1576    0.7387   -1.1812 C   0  0  0  0  0  0  0  0  0  0  0  0
    0.4273    1.5043   -0.4445 H   0  0  0  0  0  0  0  0  0  0  0  0
    0.9481    0.7565   -1.9387 H   0  0  0  0  0  0  0  0  0  0  0  0
   -1.1511    1.2328   -1.8564 C   0  0  0  0  0  0  0  0  0  0  0  0
   -1.0366    2.2900   -2.1096 H   0  0  0  0  0  0  0  0  0  0  0  0
   -1.2591    0.6848   -2.7968 H   0  0  0  0  0  0  0  0  0  0  0  0
   -2.4762    1.0753   -1.1072 C   0  0  0  0  0  0  0  0  0  0  0  0
   -2.4780    0.8990    0.1017 O   0  0  0  0  0  0  0  0  0  0  0  0
   -3.6049    1.1423   -1.8430 O   0  0  0  0  0  0  0  0  0  0  0  0
   -4.3404    1.0760   -1.2144 H   0  0  0  0  0  0  0  0  0  0  0  0
    0.7525   -0.4663    0.9655 C   0  0  0  0  0  0  0  0  0  0  0  0
    1.9559   -0.4350    1.1838 O   0  0  0  0  0  0  0  0  0  0  0  0
   -0.1293   -0.1083    1.9702 N   0  0  0  0  0  0  0  0  0  0  0  0
   -1.0880    0.0838    1.6841 H   0  0  0  0  0  0  0  0  0  0  0  0
    0.2999    0.2794    3.3073 C   0  0  0  0  0  0  0  0  0  0  0  0
    0.8809    1.2067    3.2696 H   0  0  0  0  0  0  0  0  0  0  0  0
   -0.5697    0.4384    3.9520 H   0  0  0  0  0  0  0  0  0  0  0  0
    0.9191   -0.5064    3.7532 H   0  0  0  0  0  0  0  0  0  0  0  0
  1  2  1  0  0  0  0
  2  3  1  0  0  0  0
  2  4  1  0  0  0  0
  2  5  1  0  0  0  0
  5  6  2  0  0  0  0
  5  7  1  0  0  0  0
  7  8  1  0  0  0  0
  7  9  1  0  0  0  0
  9 10  1  0  0  0  0
  9 11  1  0  0  0  0
  9 21  1  0  0  0  0
 11 12  1  0  0  0  0
 11 13  1  0  0  0  0
 11 14  1  0  0  0  0
 14 15  1  0  0  0  0
 14 16  1  0  0  0  0
 14 17  1  0  0  0  0
 17 18  2  0  0  0  0
 17 19  1  0  0  0  0
 19 20  1  0  0  0  0
 21 22  2  0  0  0  0
 21 23  1  0  0  0  0
 23 24  1  0  0  0  0
 23 25  1  0  0  0  0
 25 26  1  0  0  0  0
 25 27  1  0  0  0  0
 25 28  1  0  0  0  0
M  END
$$$$

  -OEChem-03222214033D

 28 27  0     1  0  0  0  0  0999 V2000
   -2.3855   -4.2939    0.6394 H   0  0  0  0  0  0  0  0  0  0  0  0
   -2.4905   -3.2860    0.2279 C   0  0  0  0  0  0  0  0  0  0  0  0
   -3.0192   -2.6635    0.9536 H   0  0  0  0  0  0  0  0  0  0  0  0
   -3.0759   -3.3408   -0.6929 H   0  0  0  0  0  0  0  0  0  0  0  0
   -1.1236   -2.6969   -0.0627 C   0  0  0  0  0  0  0  0  0  0  0  0
   -0.1219   -3.3658    0.1195 O   0  0  0  0  0  0  0  0  0  0  0  0
   -1.0245   -1.4032   -0.5349 N   0  0  0  0  0  0  0  0  0  0  0  0
   -1.8816   -0.8634   -0.4444 H   0  0  0  0  0  0  0  0  0  0  0  0
    0.2362   -0.6392   -0.4689 C   0  0  1  0  0  0  0  0  0  0  0  0
    0.9995   -1.2344   -0.9838 H   0  0  0  0  0  0  0  0  0  0  0  0
    0.1716    0.7410   -1.1856 C   0  0  0  0  0  0  0  0  0  0  0  0
    0.4321    1.5259   -0.4659 H   0  0  0  0  0  0  0  0  0  0  0  0
    0.9590    0.7490   -1.9468 H   0  0  0  0  0  0  0  0  0  0  0  0
   -1.1515    1.1691   -1.8713 C   0  0  0  0  0  0  0  0  0  0  0  0
   -0.9910    2.1417   -2.3445 H   0  0  0  0  0  0  0  0  0  0  0  0
   -1.3749    0.4547   -2.6682 H   0  0  0  0  0  0  0  0  0  0  0  0
   -2.4033    1.2913   -0.9955 C   0  0  0  0  0  0  0  0  0  0  0  0
   -2.3734    0.9677    0.1818 O   0  0  0  0  0  0  0  0  0  0  0  0
   -3.5155    1.7545   -1.6019 O   0  0  0  0  0  0  0  0  0  0  0  0
   -4.1966    1.7990   -0.9130 H   0  0  0  0  0  0  0  0  0  0  0  0
    0.7477   -0.4516    0.9781 C   0  0  0  0  0  0  0  0  0  0  0  0
    1.9485   -0.4385    1.2120 O   0  0  0  0  0  0  0  0  0  0  0  0
   -0.1411   -0.0798    1.9711 N   0  0  0  0  0  0  0  0  0  0  0  0
   -1.0896    0.1384    1.6674 H   0  0  0  0  0  0  0  0  0  0  0  0
    0.2794    0.3156    3.3086 C   0  0  0  0  0  0  0  0  0  0  0  0
    0.8808    1.2297    3.2665 H   0  0  0  0  0  0  0  0  0  0  0  0
   -0.5945    0.5014    3.9401 H   0  0  0  0  0  0  0  0  0  0  0  0
    0.8760   -0.4775    3.7717 H   0  0  0  0  0  0  0  0  0  0  0  0
  1  2  1  0  0  0  0
  2  3  1  0  0  0  0
  2  4  1  0  0  0  0
  2  5  1  0  0  0  0
  5  6  2  0  0  0  0
  5  7  1  0  0  0  0
  7  8  1  0  0  0  0
  7  9  1  0  0  0  0
  9 10  1  0  0  0  0
  9 11  1  0  0  0  0
  9 21  1  0  0  0  0
 11 12  1  0  0  0  0
 11 13  1  0  0  0  0
 11 14  1  0  0  0  0
 14 15  1  0  0  0  0
 14 16  1  0  0  0  0
 14 17  1  0  0  0  0
 17 18  2  0  0  0  0
 17 19  1  0  0  0  0
 19 20  1  0  0  0  0
 21 22  2  0  0  0  0
 21 23  1  0  0  0  0
 23 24  1  0  0  0  0
 23 25  1  0  0  0  0
 25 26  1  0  0  0  0
 25 27  1  0  0  0  0
 25 28  1  0  0  0  0
M  END
$$$$

  -OEChem-03222214033D

 28 27  0     1  0  0  0  0  0999 V2000
   -2.3658   -4.2983    0.6459 H   0  0  0  0  0  0  0  0  0  0  0  0
   -2.4703   -3.3023    0.2063 C   0  0  0  0  0  0  0  0  0  0  0  0
   -3.0309   -2.6694    0.8984 H   0  0  0  0  0  0  0  0  0  0  0  0
   -3.0247   -3.3872   -0.7313 H   0  0  0  0  0  0  0  0  0  0  0  0
   -1.1022   -2.7021   -0.0543 C   0  0  0  0  0  0  0  0  0  0  0  0
   -0.0975   -3.3512    0.1772 O   0  0  0  0  0  0  0  0  0  0  0  0
   -1.0042   -1.4198   -0.5557 N   0  0  0  0  0  0  0  0  0  0  0  0
   -1.8720   -0.8871   -0.5188 H   0  0  0  0  0  0  0  0  0  0  0  0
    0.2457   -0.6381   -0.4906 C   0  0  1  0  0  0  0  0  0  0  0  0
    1.0274   -1.2269   -0.9847 H   0  0  0  0  0  0  0  0  0  0  0  0
    0.1547    0.7301   -1.2243 C   0  0  0  0  0  0  0  0  0  0  0  0
    0.4147    1.5392   -0.5317 H   0  0  0  0  0  0  0  0  0  0  0  0
    0.9298    0.7277   -1.9981 H   0  0  0  0  0  0  0  0  0  0  0  0
   -1.1868    1.0921   -1.9063 C   0  0  0  0  0  0  0  0  0  0  0  0
   -1.0050    1.9342   -2.5803 H   0  0  0  0  0  0  0  0  0  0  0  0
   -1.5360    0.2610   -2.5244 H   0  0  0  0  0  0  0  0  0  0  0  0
   -2.3029    1.5115   -0.9446 C   0  0  0  0  0  0  0  0  0  0  0  0
   -2.4957    0.8703    0.0771 O   0  0  0  0  0  0  0  0  0  0  0  0
   -3.0398    2.5879   -1.2891 O   0  0  0  0  0  0  0  0  0  0  0  0
   -3.6810    2.7109   -0.5721 H   0  0  0  0  0  0  0  0  0  0  0  0
    0.7263   -0.4116    0.9609 C   0  0  0  0  0  0  0  0  0  0  0  0
    1.9218   -0.3562    1.2156 O   0  0  0  0  0  0  0  0  0  0  0  0
   -0.1896   -0.0292    1.9249 N   0  0  0  0  0  0  0  0  0  0  0  0
   -1.1506    0.1064    1.6132 H   0  0  0  0  0  0  0  0  0  0  0  0
    0.1879    0.3877    3.2685 C   0  0  0  0  0  0  0  0  0  0  0  0
    0.7993    1.2953    3.2305 H   0  0  0  0  0  0  0  0  0  0  0  0
   -0.7057    0.5944    3.8652 H   0  0  0  0  0  0  0  0  0  0  0  0
    0.7599   -0.4023    3.7668 H   0  0  0  0  0  0  0  0  0  0  0  0
  1  2  1  0  0  0  0
  2  3  1  0  0  0  0
  2  4  1  0  0  0  0
  2  5  1  0  0  0  0
  5  6  2  0  0  0  0
  5  7  1  0  0  0  0
  7  8  1  0  0  0  0
  7  9  1  0  0  0  0
  9 10  1  0  0  0  0
  9 11  1  0  0  0  0
  9 21  1  0  0  0  0
 11 12  1  0  0  0  0
 11 13  1  0  0  0  0
 11 14  1  0  0  0  0
 14 15  1  0  0  0  0
 14 16  1  0  0  0  0
 14 17  1  0  0  0  0
 17 18  2  0  0  0  0
 17 19  1  0  0  0  0
 19 20  1  0  0  0  0
 21 22  2  0  0  0  0
 21 23  1  0  0  0  0
 23 24  1  0  0  0  0
 23 25  1  0  0  0  0
 25 26  1  0  0  0  0
 25 27  1  0  0  0  0
 25 28  1  0  0  0  0
M  END
$$$$

  -OEChem-03222214033D

 28 27  0     1  0  0  0  0  0999 V2000
   -2.3624   -4.2968    0.6397 H   0  0  0  0  0  0  0  0  0  0  0  0
   -2.4676   -3.3086    0.1831 C   0  0  0  0  0  0  0  0  0  0  0  0
   -3.0546   -2.6737    0.8509 H   0  0  0  0  0  0  0  0  0  0  0  0
   -2.9957   -3.4146   -0.7674 H   0  0  0  0  0  0  0  0  0  0  0  0
   -1.1008   -2.6937   -0.0494 C   0  0  0  0  0  0  0  0  0  0  0  0
   -0.0946   -3.3231    0.2249 O   0  0  0  0  0  0  0  0  0  0  0  0
   -1.0044   -1.4199   -0.5730 N   0  0  0  0  0  0  0  0  0  0  0  0
   -1.8790   -0.8978   -0.5877 H   0  0  0  0  0  0  0  0  0  0  0  0
    0.2393   -0.6255   -0.5112 C   0  0  1  0  0  0  0  0  0  0  0  0
    1.0324   -1.2095   -0.9930 H   0  0  0  0  0  0  0  0  0  0  0  0
    0.1269    0.7336   -1.2558 C   0  0  0  0  0  0  0  0  0  0  0  0
    0.3895    1.5617   -0.5864 H   0  0  0  0  0  0  0  0  0  0  0  0
    0.8898    0.7249   -2.0418 H   0  0  0  0  0  0  0  0  0  0  0  0
   -1.2325    1.0315   -1.9288 C   0  0  0  0  0  0  0  0  0  0  0  0
   -1.0534    1.7125   -2.7658 H   0  0  0  0  0  0  0  0  0  0  0  0
   -1.7043    0.1433   -2.3548 H   0  0  0  0  0  0  0  0  0  0  0  0
   -2.1722    1.7449   -0.9658 C   0  0  0  0  0  0  0  0  0  0  0  0
   -2.5621    1.1107    0.0033 O   0  0  0  0  0  0  0  0  0  0  0  0
   -2.5214    3.0244   -1.2141 O   0  0  0  0  0  0  0  0  0  0  0  0
   -3.1062    3.2852   -0.4859 H   0  0  0  0  0  0  0  0  0  0  0  0
    0.7034   -0.3678    0.9402 C   0  0  0  0  0  0  0  0  0  0  0  0
    1.8958   -0.2983    1.2045 O   0  0  0  0  0  0  0  0  0  0  0  0
   -0.2246    0.0248    1.8890 N   0  0  0  0  0  0  0  0  0  0  0  0
   -1.1849    0.1445    1.5711 H   0  0  0  0  0  0  0  0  0  0  0  0
    0.1379    0.4561    3.2324 C   0  0  0  0  0  0  0  0  0  0  0  0
    0.7581    1.3576    3.1921 H   0  0  0  0  0  0  0  0  0  0  0  0
   -0.7619    0.6784    3.8137 H   0  0  0  0  0  0  0  0  0  0  0  0
    0.6958   -0.3323    3.7488 H   0  0  0  0  0  0  0  0  0  0  0  0
  1  2  1  0  0  0  0
  2  3  1  0  0  0  0
  2  4  1  0  0  0  0
  2  5  1  0  0  0  0
  5  6  2  0  0  0  0
  5  7  1  0  0  0  0
  7  8  1  0  0  0  0
  7  9  1  0  0  0  0
  9 10  1  0  0  0  0
  9 11  1  0  0  0  0
  9 21  1  0  0  0  0
 11 12  1  0  0  0  0
 11 13  1  0  0  0  0
 11 14  1  0  0  0  0
 14 15  1  0  0  0  0
 14 16  1  0  0  0  0
 14 17  1  0  0  0  0
 17 18  2  0  0  0  0
 17 19  1  0  0  0  0
 19 20  1  0  0  0  0
 21 22  2  0  0  0  0
 21 23  1  0  0  0  0
 23 24  1  0  0  0  0
 23 25  1  0  0  0  0
 25 26  1  0  0  0  0
 25 27  1  0  0  0  0
 25 28  1  0  0  0  0
M  END
$$$$

  -OEChem-03222214033D

 28 27  0     1  0  0  0  0  0999 V2000
   -2.3499   -4.3520    0.6119 H   0  0  0  0  0  0  0  0  0  0  0  0
   -2.4675   -3.3564    0.1745 C   0  0  0  0  0  0  0  0  0  0  0  0
   -3.0698   -2.7449    0.8507 H   0  0  0  0  0  0  0  0  0  0  0  0
   -2.9863   -3.4515   -0.7823 H   0  0  0  0  0  0  0  0  0  0  0  0
   -1.1084   -2.7160   -0.0342 C   0  0  0  0  0  0  0  0  0  0  0  0
   -0.0961   -3.3264    0.2588 O   0  0  0  0  0  0  0  0  0  0  0  0
   -1.0261   -1.4410   -0.5586 N   0  0  0  0  0  0  0  0  0  0  0  0
   -1.9081   -0.9420   -0.6276 H   0  0  0  0  0  0  0  0  0  0  0  0
    0.2099   -0.6344   -0.5120 C   0  0  1  0  0  0  0  0  0  0  0  0
    1.0015   -1.2133   -1.0027 H   0  0  0  0  0  0  0  0  0  0  0  0
    0.0867    0.7273   -1.2507 C   0  0  0  0  0  0  0  0  0  0  0  0
    0.3670    1.5495   -0.5810 H   0  0  0  0  0  0  0  0  0  0  0  0
    0.8447    0.7187   -2.0413 H   0  0  0  0  0  0  0  0  0  0  0  0
   -1.2732    1.0485   -1.9208 C   0  0  0  0  0  0  0  0  0  0  0  0
   -1.0681    1.5147   -2.8889 H   0  0  0  0  0  0  0  0  0  0  0  0
   -1.8896    0.1756   -2.1367 H   0  0  0  0  0  0  0  0  0  0  0  0
   -2.0470    2.0660   -1.0963 C   0  0  0  0  0  0  0  0  0  0  0  0
   -2.4652    1.6894   -0.0131 O   0  0  0  0  0  0  0  0  0  0  0  0
   -2.2259    3.3138   -1.5782 O   0  0  0  0  0  0  0  0  0  0  0  0
   -2.7212    3.7901   -0.8939 H   0  0  0  0  0  0  0  0  0  0  0  0
    0.6932   -0.3684    0.9326 C   0  0  0  0  0  0  0  0  0  0  0  0
    1.8897   -0.2977    1.1780 O   0  0  0  0  0  0  0  0  0  0  0  0
   -0.2202    0.0182    1.8984 N   0  0  0  0  0  0  0  0  0  0  0  0
   -1.1764    0.1727    1.5878 H   0  0  0  0  0  0  0  0  0  0  0  0
    0.1719    0.4865    3.2211 C   0  0  0  0  0  0  0  0  0  0  0  0
    0.7559    1.4094    3.1434 H   0  0  0  0  0  0  0  0  0  0  0  0
   -0.7152    0.6860    3.8297 H   0  0  0  0  0  0  0  0  0  0  0  0
    0.7762   -0.2711    3.7314 H   0  0  0  0  0  0  0  0  0  0  0  0
  1  2  1  0  0  0  0
  2  3  1  0  0  0  0
  2  4  1  0  0  0  0
  2  5  1  0  0  0  0
  5  6  2  0  0  0  0
  5  7  1  0  0  0  0
  7  8  1  0  0  0  0
  7  9  1  0  0  0  0
  9 10  1  0  0  0  0
  9 11  1  0  0  0  0
  9 21  1  0  0  0  0
 11 12  1  0  0  0  0
 11 13  1  0  0  0  0
 11 14  1  0  0  0  0
 14 15  1  0  0  0  0
 14 16  1  0  0  0  0
 14 17  1  0  0  0  0
 17 18  2  0  0  0  0
 17 19  1  0  0  0  0
 19 20  1  0  0  0  0
 21 22  2  0  0  0  0
 21 23  1  0  0  0  0
 23 24  1  0  0  0  0
 23 25  1  0  0  0  0
 25 26  1  0  0  0  0
 25 27  1  0  0  0  0
 25 28  1  0  0  0  0
M  END
$$$$

  -OEChem-03222214033D

 28 27  0     1  0  0  0  0  0999 V2000
   -2.3288   -4.4116    0.5786 H   0  0  0  0  0  0  0  0  0  0  0  0
   -2.4703   -3.4124    0.1567 C   0  0  0  0  0  0  0  0  0  0  0  0
   -3.1215   -2.8400    0.8214 H   0  0  0  0  0  0  0  0  0  0  0  0
   -2.9497   -3.5088   -0.8204 H   0  0  0  0  0  0  0  0  0  0  0  0
   -1.1313   -2.7146    0.0109 C   0  0  0  0  0  0  0  0  0  0  0  0
   -0.1088   -3.2866    0.3419 O   0  0  0  0  0  0  0  0  0  0  0  0
   -1.0777   -1.4319   -0.4992 N   0  0  0  0  0  0  0  0  0  0  0  0
   -1.9706   -0.9698   -0.6357 H   0  0  0  0  0  0  0  0  0  0  0  0
    0.1452   -0.6037   -0.4903 C   0  0  1  0  0  0  0  0  0  0  0  0
    0.9215   -1.1872   -0.9996 H   0  0  0  0  0  0  0  0  0  0  0  0
    0.0151    0.7420   -1.2600 C   0  0  0  0  0  0  0  0  0  0  0  0
    0.2816    1.5652   -0.5857 H   0  0  0  0  0  0  0  0  0  0  0  0
    0.7854    0.7408   -2.0387 H   0  0  0  0  0  0  0  0  0  0  0  0
   -1.3393    1.0734   -1.9427 C   0  0  0  0  0  0  0  0  0  0  0  0
   -1.1593    1.2285   -3.0102 H   0  0  0  0  0  0  0  0  0  0  0  0
   -2.0831    0.2820   -1.8719 H   0  0  0  0  0  0  0  0  0  0  0  0
   -1.9370    2.3550   -1.3810 C   0  0  0  0  0  0  0  0  0  0  0  0
   -2.5099    2.2793   -0.3081 O   0  0  0  0  0  0  0  0  0  0  0  0
   -1.7962    3.5031   -2.0761 O   0  0  0  0  0  0  0  0  0  0  0  0
   -2.2256    4.1855   -1.5373 H   0  0  0  0  0  0  0  0  0  0  0  0
    0.6930   -0.3333    0.9308 C   0  0  0  0  0  0  0  0  0  0  0  0
    1.8984   -0.2234    1.1089 O   0  0  0  0  0  0  0  0  0  0  0  0
   -0.1714    0.0326    1.9474 N   0  0  0  0  0  0  0  0  0  0  0  0
   -1.1618    0.0638    1.7275 H   0  0  0  0  0  0  0  0  0  0  0  0
    0.2776    0.4616    3.2657 C   0  0  0  0  0  0  0  0  0  0  0  0
    0.8779    1.3741    3.1885 H   0  0  0  0  0  0  0  0  0  0  0  0
   -0.5826    0.6658    3.9105 H   0  0  0  0  0  0  0  0  0  0  0  0
    0.8835   -0.3199    3.7362 H   0  0  0  0  0  0  0  0  0  0  0  0
  1  2  1  0  0  0  0
  2  3  1  0  0  0  0
  2  4  1  0  0  0  0
  2  5  1  0  0  0  0
  5  6  2  0  0  0  0
  5  7  1  0  0  0  0
  7  8  1  0  0  0  0
  7  9  1  0  0  0  0
  9 10  1  0  0  0  0
  9 11  1  0  0  0  0
  9 21  1  0  0  0  0
 11 12  1  0  0  0  0
 11 13  1  0  0  0  0
 11 14  1  0  0  0  0
 14 15  1  0  0  0  0
 14 16  1  0  0  0  0
 14 17  1  0  0  0  0
 17 18  2  0  0  0  0
 17 19  1  0  0  0  0
 19 20  1  0  0  0  0
 21 22  2  0  0  0  0
 21 23  1  0  0  0  0
 23 24  1  0  0  0  0
 23 25  1  0  0  0  0
 25 26  1  0  0  0  0
 25 27  1  0  0  0  0
 25 28  1  0  0  0  0
M  END
$$$$

  -OEChem-03222214033D

 28 27  0     1  0  0  0  0  0999 V2000
   -2.4927   -4.3583    0.4299 H   0  0  0  0  0  0  0  0  0  0  0  0
   -2.5243   -3.4142   -0.1216 C   0  0  0  0  0  0  0  0  0  0  0  0
   -3.3849   -2.8358    0.2225 H   0  0  0  0  0  0  0  0  0  0  0  0
   -2.6409   -3.6334   -1.1857 H   0  0  0  0  0  0  0  0  0  0  0  0
   -1.2458   -2.6313    0.1105 C   0  0  0  0  0  0  0  0  0  0  0  0
   -0.3592   -3.1066    0.7955 O   0  0  0  0  0  0  0  0  0  0  0  0
   -1.0971   -1.3822   -0.4608 N   0  0  0  0  0  0  0  0  0  0  0  0
   -1.8188   -1.1077   -1.1172 H   0  0  0  0  0  0  0  0  0  0  0  0
    0.1580   -0.6019   -0.4289 C   0  0  1  0  0  0  0  0  0  0  0  0
    0.9349   -1.2405   -0.8656 H   0  0  0  0  0  0  0  0  0  0  0  0
    0.1190    0.7087   -1.2706 C   0  0  0  0  0  0  0  0  0  0  0  0
    0.3592    1.5462   -0.6041 H   0  0  0  0  0  0  0  0  0  0  0  0
    0.9366    0.6678   -1.9984 H   0  0  0  0  0  0  0  0  0  0  0  0
   -1.1854    1.0609   -2.0352 C   0  0  0  0  0  0  0  0  0  0  0  0
   -1.0616    0.8355   -3.0987 H   0  0  0  0  0  0  0  0  0  0  0  0
   -2.0483    0.5023   -1.6775 H   0  0  0  0  0  0  0  0  0  0  0  0
   -1.5503    2.5298   -1.8572 C   0  0  0  0  0  0  0  0  0  0  0  0
   -1.3696    3.2916   -2.7878 O   0  0  0  0  0  0  0  0  0  0  0  0
   -2.0732    2.9118   -0.6722 O   0  0  0  0  0  0  0  0  0  0  0  0
   -2.2194    3.8671   -0.7593 H   0  0  0  0  0  0  0  0  0  0  0  0
    0.6482   -0.2694    1.0013 C   0  0  0  0  0  0  0  0  0  0  0  0
    1.8480   -0.1720    1.2217 O   0  0  0  0  0  0  0  0  0  0  0  0
   -0.2477    0.1873    1.9508 N   0  0  0  0  0  0  0  0  0  0  0  0
   -1.2327    0.0587    1.7439 H   0  0  0  0  0  0  0  0  0  0  0  0
    0.1495    0.5654    3.3010 C   0  0  0  0  0  0  0  0  0  0  0  0
    0.8652    1.3937    3.2718 H   0  0  0  0  0  0  0  0  0  0  0  0
   -0.7236    0.8850    3.8776 H   0  0  0  0  0  0  0  0  0  0  0  0
    0.6137   -0.2835    3.8144 H   0  0  0  0  0  0  0  0  0  0  0  0
  1  2  1  0  0  0  0
  2  3  1  0  0  0  0
  2  4  1  0  0  0  0
  2  5  1  0  0  0  0
  5  6  2  0  0  0  0
  5  7  1  0  0  0  0
  7  8  1  0  0  0  0
  7  9  1  0  0  0  0
  9 10  1  0  0  0  0
  9 11  1  0  0  0  0
  9 21  1  0  0  0  0
 11 12  1  0  0  0  0
 11 13  1  0  0  0  0
 11 14  1  0  0  0  0
 14 15  1  0  0  0  0
 14 16  1  0  0  0  0
 14 17  1  0  0  0  0
 17 18  2  0  0  0  0
 17 19  1  0  0  0  0
 19 20  1  0  0  0  0
 21 22  2  0  0  0  0
 21 23  1  0  0  0  0
 23 24  1  0  0  0  0
 23 25  1  0  0  0  0
 25 26  1  0  0  0  0
 25 27  1  0  0  0  0
 25 28  1  0  0  0  0
M  END
$$$$

  -OEChem-03222214033D

 28 27  0     1  0  0  0  0  0999 V2000
   -2.5122   -4.3278    0.4418 H   0  0  0  0  0  0  0  0  0  0  0  0
   -2.5381   -3.3823   -0.1078 C   0  0  0  0  0  0  0  0  0  0  0  0
   -3.3993   -2.8022    0.2323 H   0  0  0  0  0  0  0  0  0  0  0  0
   -2.6492   -3.5991   -1.1730 H   0  0  0  0  0  0  0  0  0  0  0  0
   -1.2587   -2.6035    0.1335 C   0  0  0  0  0  0  0  0  0  0  0  0
   -0.3825   -3.0775    0.8323 O   0  0  0  0  0  0  0  0  0  0  0  0
   -1.1012   -1.3555   -0.4379 N   0  0  0  0  0  0  0  0  0  0  0  0
   -1.8098   -1.0884   -1.1127 H   0  0  0  0  0  0  0  0  0  0  0  0
    0.1668   -0.5946   -0.4236 C   0  0  1  0  0  0  0  0  0  0  0  0
    0.9272   -1.2426   -0.8751 H   0  0  0  0  0  0  0  0  0  0  0  0
    0.1187    0.7102   -1.2711 C   0  0  0  0  0  0  0  0  0  0  0  0
    0.3529    1.5524   -0.6084 H   0  0  0  0  0  0  0  0  0  0  0  0
    0.9237    0.6768   -2.0132 H   0  0  0  0  0  0  0  0  0  0  0  0
   -1.2084    1.0394   -1.9993 C   0  0  0  0  0  0  0  0  0  0  0  0
   -1.2314    0.5606   -2.9819 H   0  0  0  0  0  0  0  0  0  0  0  0
   -2.0689    0.6889   -1.4275 H   0  0  0  0  0  0  0  0  0  0  0  0
   -1.4057    2.5440   -2.1541 C   0  0  0  0  0  0  0  0  0  0  0  0
   -0.5904    3.1730   -2.8019 O   0  0  0  0  0  0  0  0  0  0  0  0
   -2.4777    3.1095   -1.5596 O   0  0  0  0  0  0  0  0  0  0  0  0
   -2.4092    4.0544   -1.7699 H   0  0  0  0  0  0  0  0  0  0  0  0
    0.6899   -0.2701    0.9968 C   0  0  0  0  0  0  0  0  0  0  0  0
    1.8951   -0.1905    1.1926 O   0  0  0  0  0  0  0  0  0  0  0  0
   -0.1796    0.2000    1.9644 N   0  0  0  0  0  0  0  0  0  0  0  0
   -1.1659    0.0323    1.7964 H   0  0  0  0  0  0  0  0  0  0  0  0
    0.2548    0.5329    3.3155 C   0  0  0  0  0  0  0  0  0  0  0  0
    1.0041    1.3314    3.2923 H   0  0  0  0  0  0  0  0  0  0  0  0
   -0.5950    0.8762    3.9132 H   0  0  0  0  0  0  0  0  0  0  0  0
    0.6912   -0.3454    3.8032 H   0  0  0  0  0  0  0  0  0  0  0  0
  1  2  1  0  0  0  0
  2  3  1  0  0  0  0
  2  4  1  0  0  0  0
  2  5  1  0  0  0  0
  5  6  2  0  0  0  0
  5  7  1  0  0  0  0
  7  8  1  0  0  0  0
  7  9  1  0  0  0  0
  9 10  1  0  0  0  0
  9 11  1  0  0  0  0
  9 21  1  0  0  0  0
 11 12  1  0  0  0  0
 11 13  1  0  0  0  0
 11 14  1  0  0  0  0
 14 15  1  0  0  0  0
 14 16  1  0  0  0  0
 14 17  1  0  0  0  0
 17 18  2  0  0  0  0
 17 19  1  0  0  0  0
 19 20  1  0  0  0  0
 21 22  2  0  0  0  0
 21 23  1  0  0  0  0
 23 24  1  0  0  0  0
 23 25  1  0  0  0  0
 25 26  1  0  0  0  0
 25 27  1  0  0  0  0
 25 28  1  0  0  0  0
M  END
$$$$

  -OEChem-03222214033D

 28 27  0     1  0  0  0  0  0999 V2000
   -2.5505   -4.3018    0.4019 H   0  0  0  0  0  0  0  0  0  0  0  0
   -2.5757   -3.3370   -0.1131 C   0  0  0  0  0  0  0  0  0  0  0  0
   -3.4204   -2.7579    0.2676 H   0  0  0  0  0  0  0  0  0  0  0  0
   -2.7144   -3.5141   -1.1824 H   0  0  0  0  0  0  0  0  0  0  0  0
   -1.2796   -2.5858    0.1249 C   0  0  0  0  0  0  0  0  0  0  0  0
   -0.4035   -3.0885    0.8032 O   0  0  0  0  0  0  0  0  0  0  0  0
   -1.1025   -1.3329   -0.4297 N   0  0  0  0  0  0  0  0  0  0  0  0
   -1.8208   -1.0292   -1.0784 H   0  0  0  0  0  0  0  0  0  0  0  0
    0.1810   -0.5973   -0.4166 C   0  0  1  0  0  0  0  0  0  0  0  0
    0.9247   -1.2504   -0.8881 H   0  0  0  0  0  0  0  0  0  0  0  0
    0.1361    0.7174   -1.2445 C   0  0  0  0  0  0  0  0  0  0  0  0
    0.3879    1.5559   -0.5837 H   0  0  0  0  0  0  0  0  0  0  0  0
    0.9230    0.6777   -2.0060 H   0  0  0  0  0  0  0  0  0  0  0  0
   -1.2099    1.0434   -1.9346 C   0  0  0  0  0  0  0  0  0  0  0  0
   -1.3706    0.3721   -2.7821 H   0  0  0  0  0  0  0  0  0  0  0  0
   -2.0288    0.9091   -1.2235 H   0  0  0  0  0  0  0  0  0  0  0  0
   -1.3077    2.4889   -2.4211 C   0  0  0  0  0  0  0  0  0  0  0  0
   -0.2955    3.0993   -2.7118 O   0  0  0  0  0  0  0  0  0  0  0  0
   -2.5442    3.0202   -2.5195 O   0  0  0  0  0  0  0  0  0  0  0  0
   -2.4017    3.9233   -2.8449 H   0  0  0  0  0  0  0  0  0  0  0  0
    0.7277   -0.3016    1.0007 C   0  0  0  0  0  0  0  0  0  0  0  0
    1.9363   -0.2425    1.1820 O   0  0  0  0  0  0  0  0  0  0  0  0
   -0.1220    0.1730    1.9836 N   0  0  0  0  0  0  0  0  0  0  0  0
   -1.1124    0.0152    1.8314 H   0  0  0  0  0  0  0  0  0  0  0  0
    0.3373    0.5123    3.3248 C   0  0  0  0  0  0  0  0  0  0  0  0
    1.0887    1.3080    3.2822 H   0  0  0  0  0  0  0  0  0  0  0  0
   -0.5004    0.8632    3.9348 H   0  0  0  0  0  0  0  0  0  0  0  0
    0.7792   -0.3640    3.8108 H   0  0  0  0  0  0  0  0  0  0  0  0
  1  2  1  0  0  0  0
  2  3  1  0  0  0  0
  2  4  1  0  0  0  0
  2  5  1  0  0  0  0
  5  6  2  0  0  0  0
  5  7  1  0  0  0  0
  7  8  1  0  0  0  0
  7  9  1  0  0  0  0
  9 10  1  0  0  0  0
  9 11  1  0  0  0  0
  9 21  1  0  0  0  0
 11 12  1  0  0  0  0
 11 13  1  0  0  0  0
 11 14  1  0  0  0  0
 14 15  1  0  0  0  0
 14 16  1  0  0  0  0
 14 17  1  0  0  0  0
 17 18  2  0  0  0  0
 17 19  1  0  0  0  0
 19 20  1  0  0  0  0
 21 22  2  0  0  0  0
 21 23  1  0  0  0  0
 23 24  1  0  0  0  0
 23 25  1  0  0  0  0
 25 26  1  0  0  0  0
 25 27  1  0  0  0  0
 25 28  1  0  0  0  0
M  END
$$$$

  -OEChem-03222214033D

 28 27  0     1  0  0  0  0  0999 V2000
   -2.5477   -4.2877    0.3689 H   0  0  0  0  0  0  0  0  0  0  0  0
   -2.5865   -3.2981   -0.0957 C   0  0  0  0  0  0  0  0  0  0  0  0
   -3.4093   -2.7330    0.3487 H   0  0  0  0  0  0  0  0  0  0  0  0
   -2.7714   -3.4208   -1.1656 H   0  0  0  0  0  0  0  0  0  0  0  0
   -1.2760   -2.5669    0.1246 C   0  0  0  0  0  0  0  0  0  0  0  0
   -0.3999   -3.0810    0.7945 O   0  0  0  0  0  0  0  0  0  0  0  0
   -1.0896   -1.3160   -0.4312 N   0  0  0  0  0  0  0  0  0  0  0  0
   -1.8162   -0.9981   -1.0633 H   0  0  0  0  0  0  0  0  0  0  0  0
    0.1996   -0.5902   -0.4261 C   0  0  1  0  0  0  0  0  0  0  0  0
    0.9455   -1.2369   -0.9031 H   0  0  0  0  0  0  0  0  0  0  0  0
    0.1414    0.7335   -1.2361 C   0  0  0  0  0  0  0  0  0  0  0  0
    0.6805    1.5204   -0.6941 H   0  0  0  0  0  0  0  0  0  0  0  0
    0.6849    0.5743   -2.1742 H   0  0  0  0  0  0  0  0  0  0  0  0
   -1.2771    1.2437   -1.5824 C   0  0  0  0  0  0  0  0  0  0  0  0
   -1.8037    0.5008   -2.1856 H   0  0  0  0  0  0  0  0  0  0  0  0
   -1.8399    1.4050   -0.6592 H   0  0  0  0  0  0  0  0  0  0  0  0
   -1.2930    2.5488   -2.3787 C   0  0  0  0  0  0  0  0  0  0  0  0
   -0.2499    3.0649   -2.7357 O   0  0  0  0  0  0  0  0  0  0  0  0
   -2.5062    3.0679   -2.6600 O   0  0  0  0  0  0  0  0  0  0  0  0
   -2.3202    3.8789   -3.1594 H   0  0  0  0  0  0  0  0  0  0  0  0
    0.7462   -0.3033    0.9930 C   0  0  0  0  0  0  0  0  0  0  0  0
    1.9550   -0.2643    1.1786 O   0  0  0  0  0  0  0  0  0  0  0  0
   -0.0997    0.1747    1.9778 N   0  0  0  0  0  0  0  0  0  0  0  0
   -1.0900    0.0180    1.8252 H   0  0  0  0  0  0  0  0  0  0  0  0
    0.3610    0.4670    3.3296 C   0  0  0  0  0  0  0  0  0  0  0  0
    1.1400    1.2365    3.3113 H   0  0  0  0  0  0  0  0  0  0  0  0
   -0.4685    0.8325    3.9422 H   0  0  0  0  0  0  0  0  0  0  0  0
    0.7688   -0.4351    3.7982 H   0  0  0  0  0  0  0  0  0  0  0  0
  1  2  1  0  0  0  0
  2  3  1  0  0  0  0
  2  4  1  0  0  0  0
  2  5  1  0  0  0  0
  5  6  2  0  0  0  0
  5  7  1  0  0  0  0
  7  8  1  0  0  0  0
  7  9  1  0  0  0  0
  9 10  1  0  0  0  0
  9 11  1  0  0  0  0
  9 21  1  0  0  0  0
 11 12  1  0  0  0  0
 11 13  1  0  0  0  0
 11 14  1  0  0  0  0
 14 15  1  0  0  0  0
 14 16  1  0  0  0  0
 14 17  1  0  0  0  0
 17 18  2  0  0  0  0
 17 19  1  0  0  0  0
 19 20  1  0  0  0  0
 21 22  2  0  0  0  0
 21 23  1  0  0  0  0
 23 24  1  0  0  0  0
 23 25  1  0  0  0  0
 25 26  1  0  0  0  0
 25 27  1  0  0  0  0
 25 28  1  0  0  0  0
M  END
$$$$

  -OEChem-03222214033D

 28 27  0     1  0  0  0  0  0999 V2000
   -2.5381   -4.3102    0.3990 H   0  0  0  0  0  0  0  0  0  0  0  0
   -2.5904   -3.3214   -0.0661 C   0  0  0  0  0  0  0  0  0  0  0  0
   -3.4138   -2.7631    0.3855 H   0  0  0  0  0  0  0  0  0  0  0  0
   -2.7848   -3.4472   -1.1340 H   0  0  0  0  0  0  0  0  0  0  0  0
   -1.2839   -2.5786    0.1414 C   0  0  0  0  0  0  0  0  0  0  0  0
   -0.3952   -3.0881    0.7982 O   0  0  0  0  0  0  0  0  0  0  0  0
   -1.1137   -1.3256   -0.4157 N   0  0  0  0  0  0  0  0  0  0  0  0
   -1.8475   -1.0188   -1.0444 H   0  0  0  0  0  0  0  0  0  0  0  0
    0.1728   -0.5956   -0.4321 C   0  0  1  0  0  0  0  0  0  0  0  0
    0.9116   -1.2412   -0.9212 H   0  0  0  0  0  0  0  0  0  0  0  0
    0.1139    0.7360   -1.2309 C   0  0  0  0  0  0  0  0  0  0  0  0
    0.6821    1.5158   -0.7093 H   0  0  0  0  0  0  0  0  0  0  0  0
    0.6377    0.5537   -2.1759 H   0  0  0  0  0  0  0  0  0  0  0  0
   -1.2949    1.2841   -1.5690 C   0  0  0  0  0  0  0  0  0  0  0  0
   -1.9272    0.4890   -1.9657 H   0  0  0  0  0  0  0  0  0  0  0  0
   -1.7636    1.6770   -0.6631 H   0  0  0  0  0  0  0  0  0  0  0  0
   -1.2937    2.3755   -2.6404 C   0  0  0  0  0  0  0  0  0  0  0  0
   -0.2495    2.9008   -2.9808 O   0  0  0  0  0  0  0  0  0  0  0  0
   -2.4909    2.7066   -3.1673 O   0  0  0  0  0  0  0  0  0  0  0  0
   -2.2943    3.4050   -3.8116 H   0  0  0  0  0  0  0  0  0  0  0  0
    0.7413   -0.3112    0.9791 C   0  0  0  0  0  0  0  0  0  0  0  0
    1.9527   -0.2642    1.1444 O   0  0  0  0  0  0  0  0  0  0  0  0
   -0.0903    0.1611    1.9787 N   0  0  0  0  0  0  0  0  0  0  0  0
   -1.0826    0.0018    1.8414 H   0  0  0  0  0  0  0  0  0  0  0  0
    0.3916    0.4613    3.3215 C   0  0  0  0  0  0  0  0  0  0  0  0
    1.1661    1.2350    3.2873 H   0  0  0  0  0  0  0  0  0  0  0  0
   -0.4296    0.8249    3.9465 H   0  0  0  0  0  0  0  0  0  0  0  0
    0.8123   -0.4368    3.7863 H   0  0  0  0  0  0  0  0  0  0  0  0
  1  2  1  0  0  0  0
  2  3  1  0  0  0  0
  2  4  1  0  0  0  0
  2  5  1  0  0  0  0
  5  6  2  0  0  0  0
  5  7  1  0  0  0  0
  7  8  1  0  0  0  0
  7  9  1  0  0  0  0
  9 10  1  0  0  0  0
  9 11  1  0  0  0  0
  9 21  1  0  0  0  0
 11 12  1  0  0  0  0
 11 13  1  0  0  0  0
 11 14  1  0  0  0  0
 14 15  1  0  0  0  0
 14 16  1  0  0  0  0
 14 17  1  0  0  0  0
 17 18  2  0  0  0  0
 17 19  1  0  0  0  0
 19 20  1  0  0  0  0
 21 22  2  0  0  0  0
 21 23  1  0  0  0  0
 23 24  1  0  0  0  0
 23 25  1  0  0  0  0
 25 26  1  0  0  0  0
 25 27  1  0  0  0  0
 25 28  1  0  0  0  0
M  END
$$$$

  -OEChem-03222214033D

 28 27  0     1  0  0  0  0  0999 V2000
   -2.5890   -4.2789    0.4900 H   0  0  0  0  0  0  0  0  0  0  0  0
   -2.6137   -3.3258   -0.0462 C   0  0  0  0  0  0  0  0  0  0  0  0
   -3.4495   -2.7322    0.3315 H   0  0  0  0  0  0  0  0  0  0  0  0
   -2.7671   -3.5257   -1.1094 H   0  0  0  0  0  0  0  0  0  0  0  0
   -1.3098   -2.5777    0.1581 C   0  0  0  0  0  0  0  0  0  0  0  0
   -0.4166   -3.0848    0.8103 O   0  0  0  0  0  0  0  0  0  0  0  0
   -1.1485   -1.3236   -0.3994 N   0  0  0  0  0  0  0  0  0  0  0  0
   -1.8769   -1.0391   -1.0450 H   0  0  0  0  0  0  0  0  0  0  0  0
    0.1415   -0.6009   -0.4468 C   0  0  1  0  0  0  0  0  0  0  0  0
    0.8645   -1.2471   -0.9584 H   0  0  0  0  0  0  0  0  0  0  0  0
    0.0781    0.7465   -1.2229 C   0  0  0  0  0  0  0  0  0  0  0  0
    0.6851    1.5088   -0.7194 H   0  0  0  0  0  0  0  0  0  0  0  0
    0.5699    0.5564   -2.1837 H   0  0  0  0  0  0  0  0  0  0  0  0
   -1.3215    1.3444   -1.5258 C   0  0  0  0  0  0  0  0  0  0  0  0
   -2.0700    0.5657   -1.6645 H   0  0  0  0  0  0  0  0  0  0  0  0
   -1.6437    1.9691   -0.6886 H   0  0  0  0  0  0  0  0  0  0  0  0
   -1.3439    2.1702   -2.8106 C   0  0  0  0  0  0  0  0  0  0  0  0
   -0.4208    2.9270   -3.0472 O   0  0  0  0  0  0  0  0  0  0  0  0
   -2.4039    2.0163   -3.6324 O   0  0  0  0  0  0  0  0  0  0  0  0
   -2.2325    2.6181   -4.3743 H   0  0  0  0  0  0  0  0  0  0  0  0
    0.7431   -0.3279    0.9530 C   0  0  0  0  0  0  0  0  0  0  0  0
    1.9582   -0.2864    1.0917 O   0  0  0  0  0  0  0  0  0  0  0  0
   -0.0654    0.1434    1.9716 N   0  0  0  0  0  0  0  0  0  0  0  0
   -1.0609   -0.0115    1.8541 H   0  0  0  0  0  0  0  0  0  0  0  0
    0.4442    0.4446    3.3034 C   0  0  0  0  0  0  0  0  0  0  0  0
    1.2108    1.2251    3.2532 H   0  0  0  0  0  0  0  0  0  0  0  0
   -0.3659    0.7996    3.9474 H   0  0  0  0  0  0  0  0  0  0  0  0
    0.8822   -0.4512    3.7564 H   0  0  0  0  0  0  0  0  0  0  0  0
  1  2  1  0  0  0  0
  2  3  1  0  0  0  0
  2  4  1  0  0  0  0
  2  5  1  0  0  0  0
  5  6  2  0  0  0  0
  5  7  1  0  0  0  0
  7  8  1  0  0  0  0
  7  9  1  0  0  0  0
  9 10  1  0  0  0  0
  9 11  1  0  0  0  0
  9 21  1  0  0  0  0
 11 12  1  0  0  0  0
 11 13  1  0  0  0  0
 11 14  1  0  0  0  0
 14 15  1  0  0  0  0
 14 16  1  0  0  0  0
 14 17  1  0  0  0  0
 17 18  2  0  0  0  0
 17 19  1  0  0  0  0
 19 20  1  0  0  0  0
 21 22  2  0  0  0  0
 21 23  1  0  0  0  0
 23 24  1  0  0  0  0
 23 25  1  0  0  0  0
 25 26  1  0  0  0  0
 25 27  1  0  0  0  0
 25 28  1  0  0  0  0
M  END
$$$$

  -OEChem-03222214033D

 28 27  0     1  0  0  0  0  0999 V2000
   -2.6581   -4.2446    0.4866 H   0  0  0  0  0  0  0  0  0  0  0  0
   -2.6798   -3.2885   -0.0441 C   0  0  0  0  0  0  0  0  0  0  0  0
   -3.5193   -2.6983    0.3308 H   0  0  0  0  0  0  0  0  0  0  0  0
   -2.8246   -3.4819   -1.1097 H   0  0  0  0  0  0  0  0  0  0  0  0
   -1.3782   -2.5408    0.1747 C   0  0  0  0  0  0  0  0  0  0  0  0
   -0.4926   -3.0485    0.8372 O   0  0  0  0  0  0  0  0  0  0  0  0
   -1.2116   -1.2861   -0.3798 N   0  0  0  0  0  0  0  0  0  0  0  0
   -1.9203   -1.0227   -1.0572 H   0  0  0  0  0  0  0  0  0  0  0  0
    0.0906   -0.5901   -0.4588 C   0  0  1  0  0  0  0  0  0  0  0  0
    0.7844   -1.2460   -0.9972 H   0  0  0  0  0  0  0  0  0  0  0  0
    0.0279    0.7644   -1.2232 C   0  0  0  0  0  0  0  0  0  0  0  0
    0.6618    1.5085   -0.7261 H   0  0  0  0  0  0  0  0  0  0  0  0
    0.4990    0.5770   -2.1947 H   0  0  0  0  0  0  0  0  0  0  0  0
   -1.3628    1.4036   -1.4856 C   0  0  0  0  0  0  0  0  0  0  0  0
   -2.1917    0.7167   -1.3264 H   0  0  0  0  0  0  0  0  0  0  0  0
   -1.5083    2.2400   -0.7955 H   0  0  0  0  0  0  0  0  0  0  0  0
   -1.4803    1.9082   -2.9178 C   0  0  0  0  0  0  0  0  0  0  0  0
   -1.2334    3.0759   -3.1509 O   0  0  0  0  0  0  0  0  0  0  0  0
   -1.8556    1.0221   -3.8651 O   0  0  0  0  0  0  0  0  0  0  0  0
   -1.8590    1.5294   -4.6926 H   0  0  0  0  0  0  0  0  0  0  0  0
    0.7417   -0.3377    0.9230 C   0  0  0  0  0  0  0  0  0  0  0  0
    1.9617   -0.3175    1.0187 O   0  0  0  0  0  0  0  0  0  0  0  0
   -0.0221    0.1438    1.9707 N   0  0  0  0  0  0  0  0  0  0  0  0
   -1.0232    0.0026    1.8863 H   0  0  0  0  0  0  0  0  0  0  0  0
    0.5376    0.4060    3.2908 C   0  0  0  0  0  0  0  0  0  0  0  0
    1.3377    1.1514    3.2278 H   0  0  0  0  0  0  0  0  0  0  0  0
   -0.2371    0.7899    3.9612 H   0  0  0  0  0  0  0  0  0  0  0  0
    0.9471   -0.5138    3.7218 H   0  0  0  0  0  0  0  0  0  0  0  0
  1  2  1  0  0  0  0
  2  3  1  0  0  0  0
  2  4  1  0  0  0  0
  2  5  1  0  0  0  0
  5  6  2  0  0  0  0
  5  7  1  0  0  0  0
  7  8  1  0  0  0  0
  7  9  1  0  0  0  0
  9 10  1  0  0  0  0
  9 11  1  0  0  0  0
  9 21  1  0  0  0  0
 11 12  1  0  0  0  0
 11 13  1  0  0  0  0
 11 14  1  0  0  0  0
 14 15  1  0  0  0  0
 14 16  1  0  0  0  0
 14 17  1  0  0  0  0
 17 18  2  0  0  0  0
 17 19  1  0  0  0  0
 19 20  1  0  0  0  0
 21 22  2  0  0  0  0
 21 23  1  0  0  0  0
 23 24  1  0  0  0  0
 23 25  1  0  0  0  0
 25 26  1  0  0  0  0
 25 27  1  0  0  0  0
 25 28  1  0  0  0  0
M  END
$$$$

  -OEChem-03222214033D

 28 27  0     1  0  0  0  0  0999 V2000
   -2.7228   -4.1875    0.4813 H   0  0  0  0  0  0  0  0  0  0  0  0
   -2.7112   -3.2417   -0.0680 C   0  0  0  0  0  0  0  0  0  0  0  0
   -3.5444   -2.6252    0.2774 H   0  0  0  0  0  0  0  0  0  0  0  0
   -2.8382   -3.4522   -1.1327 H   0  0  0  0  0  0  0  0  0  0  0  0
   -1.3981   -2.5191    0.1653 C   0  0  0  0  0  0  0  0  0  0  0  0
   -0.5359   -3.0354    0.8518 O   0  0  0  0  0  0  0  0  0  0  0  0
   -1.1994   -1.2713   -0.3935 N   0  0  0  0  0  0  0  0  0  0  0  0
   -1.8827   -1.0067   -1.0978 H   0  0  0  0  0  0  0  0  0  0  0  0
    0.1156   -0.5985   -0.4533 C   0  0  1  0  0  0  0  0  0  0  0  0
    0.8075   -1.2669   -0.9788 H   0  0  0  0  0  0  0  0  0  0  0  0
    0.0741    0.7500   -1.2289 C   0  0  0  0  0  0  0  0  0  0  0  0
    0.6889    1.4912   -0.7046 H   0  0  0  0  0  0  0  0  0  0  0  0
    0.5758    0.5784   -2.1880 H   0  0  0  0  0  0  0  0  0  0  0  0
   -1.3140    1.3889   -1.5061 C   0  0  0  0  0  0  0  0  0  0  0  0
   -2.1462    0.8477   -1.0584 H   0  0  0  0  0  0  0  0  0  0  0  0
   -1.3281    2.3869   -1.0574 H   0  0  0  0  0  0  0  0  0  0  0  0
   -1.5720    1.5431   -2.9979 C   0  0  0  0  0  0  0  0  0  0  0  0
   -1.3537    2.6136   -3.5320 O   0  0  0  0  0  0  0  0  0  0  0  0
   -2.0356    0.4600   -3.6582 O   0  0  0  0  0  0  0  0  0  0  0  0
   -2.1210    0.7510   -4.5805 H   0  0  0  0  0  0  0  0  0  0  0  0
    0.7471   -0.3482    0.9376 C   0  0  0  0  0  0  0  0  0  0  0  0
    1.9655   -0.3439    1.0535 O   0  0  0  0  0  0  0  0  0  0  0  0
   -0.0275    0.1534    1.9680 N   0  0  0  0  0  0  0  0  0  0  0  0
   -1.0287    0.0224    1.8675 H   0  0  0  0  0  0  0  0  0  0  0  0
    0.5123    0.4102    3.2976 C   0  0  0  0  0  0  0  0  0  0  0  0
    1.3213    1.1468    3.2485 H   0  0  0  0  0  0  0  0  0  0  0  0
   -0.2696    0.8024    3.9550 H   0  0  0  0  0  0  0  0  0  0  0  0
    0.9044   -0.5141    3.7351 H   0  0  0  0  0  0  0  0  0  0  0  0
  1  2  1  0  0  0  0
  2  3  1  0  0  0  0
  2  4  1  0  0  0  0
  2  5  1  0  0  0  0
  5  6  2  0  0  0  0
  5  7  1  0  0  0  0
  7  8  1  0  0  0  0
  7  9  1  0  0  0  0
  9 10  1  0  0  0  0
  9 11  1  0  0  0  0
  9 21  1  0  0  0  0
 11 12  1  0  0  0  0
 11 13  1  0  0  0  0
 11 14  1  0  0  0  0
 14 15  1  0  0  0  0
 14 16  1  0  0  0  0
 14 17  1  0  0  0  0
 17 18  2  0  0  0  0
 17 19  1  0  0  0  0
 19 20  1  0  0  0  0
 21 22  2  0  0  0  0
 21 23  1  0  0  0  0
 23 24  1  0  0  0  0
 23 25  1  0  0  0  0
 25 26  1  0  0  0  0
 25 27  1  0  0  0  0
 25 28  1  0  0  0  0
M  END
$$$$

  -OEChem-03222214033D

 28 27  0     1  0  0  0  0  0999 V2000
   -2.7872   -4.1355    0.4291 H   0  0  0  0  0  0  0  0  0  0  0  0
   -2.7360   -3.1999   -0.1353 C   0  0  0  0  0  0  0  0  0  0  0  0
   -3.5812   -2.5697    0.1517 H   0  0  0  0  0  0  0  0  0  0  0  0
   -2.8050   -3.4282   -1.2017 H   0  0  0  0  0  0  0  0  0  0  0  0
   -1.4301   -2.4857    0.1571 C   0  0  0  0  0  0  0  0  0  0  0  0
   -0.6084   -3.0026    0.8914 O   0  0  0  0  0  0  0  0  0  0  0  0
   -1.1890   -1.2486   -0.4078 N   0  0  0  0  0  0  0  0  0  0  0  0
   -1.8351   -0.9916   -1.1526 H   0  0  0  0  0  0  0  0  0  0  0  0
    0.1439   -0.6085   -0.4428 C   0  0  1  0  0  0  0  0  0  0  0  0
    0.8324   -1.2919   -0.9529 H   0  0  0  0  0  0  0  0  0  0  0  0
    0.1263    0.7324   -1.2296 C   0  0  0  0  0  0  0  0  0  0  0  0
    0.7225    1.4729   -0.6833 H   0  0  0  0  0  0  0  0  0  0  0  0
    0.6468    0.5759   -2.1812 H   0  0  0  0  0  0  0  0  0  0  0  0
   -1.2650    1.3537   -1.5104 C   0  0  0  0  0  0  0  0  0  0  0  0
   -2.0442    0.9988   -0.8342 H   0  0  0  0  0  0  0  0  0  0  0  0
   -1.1919    2.4323   -1.3410 H   0  0  0  0  0  0  0  0  0  0  0  0
   -1.6828    1.1577   -2.9590 C   0  0  0  0  0  0  0  0  0  0  0  0
   -1.5110    2.0535   -3.7629 O   0  0  0  0  0  0  0  0  0  0  0  0
   -2.2306   -0.0372   -3.2751 O   0  0  0  0  0  0  0  0  0  0  0  0
   -2.4168    0.0238   -4.2268 H   0  0  0  0  0  0  0  0  0  0  0  0
    0.7529   -0.3592    0.9581 C   0  0  0  0  0  0  0  0  0  0  0  0
    1.9690   -0.3721    1.0963 O   0  0  0  0  0  0  0  0  0  0  0  0
   -0.0323    0.1716    1.9654 N   0  0  0  0  0  0  0  0  0  0  0  0
   -1.0327    0.0457    1.8506 H   0  0  0  0  0  0  0  0  0  0  0  0
    0.4867    0.4426    3.3001 C   0  0  0  0  0  0  0  0  0  0  0  0
    1.3188    1.1529    3.2515 H   0  0  0  0  0  0  0  0  0  0  0  0
   -0.2965    0.8743    3.9302 H   0  0  0  0  0  0  0  0  0  0  0  0
    0.8402   -0.4824    3.7677 H   0  0  0  0  0  0  0  0  0  0  0  0
  1  2  1  0  0  0  0
  2  3  1  0  0  0  0
  2  4  1  0  0  0  0
  2  5  1  0  0  0  0
  5  6  2  0  0  0  0
  5  7  1  0  0  0  0
  7  8  1  0  0  0  0
  7  9  1  0  0  0  0
  9 10  1  0  0  0  0
  9 11  1  0  0  0  0
  9 21  1  0  0  0  0
 11 12  1  0  0  0  0
 11 13  1  0  0  0  0
 11 14  1  0  0  0  0
 14 15  1  0  0  0  0
 14 16  1  0  0  0  0
 14 17  1  0  0  0  0
 17 18  2  0  0  0  0
 17 19  1  0  0  0  0
 19 20  1  0  0  0  0
 21 22  2  0  0  0  0
 21 23  1  0  0  0  0
 23 24  1  0  0  0  0
 23 25  1  0  0  0  0
 25 26  1  0  0  0  0
 25 27  1  0  0  0  0
 25 28  1  0  0  0  0
M  END
$$$$

  -OEChem-03222214033D

 28 27  0     1  0  0  0  0  0999 V2000
   -2.4666   -4.3519    0.4711 H   0  0  0  0  0  0  0  0  0  0  0  0
   -2.5002   -3.4126   -0.0882 C   0  0  0  0  0  0  0  0  0  0  0  0
   -3.3879   -2.8528    0.2160 H   0  0  0  0  0  0  0  0  0  0  0  0
   -2.5701   -3.6398   -1.1550 H   0  0  0  0  0  0  0  0  0  0  0  0
   -1.2520   -2.5953    0.1848 C   0  0  0  0  0  0  0  0  0  0  0  0
   -0.3708   -3.0465    0.8943 O   0  0  0  0  0  0  0  0  0  0  0  0
   -1.1308   -1.3385   -0.3724 N   0  0  0  0  0  0  0  0  0  0  0  0
   -1.8266   -1.1309   -1.0917 H   0  0  0  0  0  0  0  0  0  0  0  0
    0.1381   -0.5817   -0.4364 C   0  0  1  0  0  0  0  0  0  0  0  0
    0.8699   -1.2005   -0.9683 H   0  0  0  0  0  0  0  0  0  0  0  0
   -0.0154    0.7545   -1.2174 C   0  0  0  0  0  0  0  0  0  0  0  0
    0.5197    1.5444   -0.6774 H   0  0  0  0  0  0  0  0  0  0  0  0
    0.4900    0.6520   -2.1841 H   0  0  0  0  0  0  0  0  0  0  0  0
   -1.4635    1.2382   -1.4588 C   0  0  0  0  0  0  0  0  0  0  0  0
   -2.1178    0.9999   -0.6161 H   0  0  0  0  0  0  0  0  0  0  0  0
   -1.4505    2.3284   -1.5438 H   0  0  0  0  0  0  0  0  0  0  0  0
   -2.0410    0.6986   -2.7605 C   0  0  0  0  0  0  0  0  0  0  0  0
   -2.5972   -0.3863   -2.7196 O   0  0  0  0  0  0  0  0  0  0  0  0
   -1.8984    1.4247   -3.8890 O   0  0  0  0  0  0  0  0  0  0  0  0
   -2.3205    0.9047   -4.5903 H   0  0  0  0  0  0  0  0  0  0  0  0
    0.7594   -0.2892    0.9501 C   0  0  0  0  0  0  0  0  0  0  0  0
    1.9746   -0.1846    1.0549 O   0  0  0  0  0  0  0  0  0  0  0  0
   -0.0444    0.1619    1.9813 N   0  0  0  0  0  0  0  0  0  0  0  0
   -1.0298   -0.0649    1.8936 H   0  0  0  0  0  0  0  0  0  0  0  0
    0.4829    0.4696    3.3049 C   0  0  0  0  0  0  0  0  0  0  0  0
    1.2363    1.2621    3.2441 H   0  0  0  0  0  0  0  0  0  0  0  0
   -0.3218    0.8109    3.9630 H   0  0  0  0  0  0  0  0  0  0  0  0
    0.9427   -0.4196    3.7492 H   0  0  0  0  0  0  0  0  0  0  0  0
  1  2  1  0  0  0  0
  2  3  1  0  0  0  0
  2  4  1  0  0  0  0
  2  5  1  0  0  0  0
  5  6  2  0  0  0  0
  5  7  1  0  0  0  0
  7  8  1  0  0  0  0
  7  9  1  0  0  0  0
  9 10  1  0  0  0  0
  9 11  1  0  0  0  0
  9 21  1  0  0  0  0
 11 12  1  0  0  0  0
 11 13  1  0  0  0  0
 11 14  1  0  0  0  0
 14 15  1  0  0  0  0
 14 16  1  0  0  0  0
 14 17  1  0  0  0  0
 17 18  2  0  0  0  0
 17 19  1  0  0  0  0
 19 20  1  0  0  0  0
 21 22  2  0  0  0  0
 21 23  1  0  0  0  0
 23 24  1  0  0  0  0
 23 25  1  0  0  0  0
 25 26  1  0  0  0  0
 25 27  1  0  0  0  0
 25 28  1  0  0  0  0
M  END
$$$$

  -OEChem-03222214033D

 28 27  0     1  0  0  0  0  0999 V2000
   -2.4452   -4.4104    0.4493 H   0  0  0  0  0  0  0  0  0  0  0  0
   -2.4898   -3.4542   -0.0797 C   0  0  0  0  0  0  0  0  0  0  0  0
   -3.4087   -2.9362    0.2048 H   0  0  0  0  0  0  0  0  0  0  0  0
   -2.5069   -3.6481   -1.1551 H   0  0  0  0  0  0  0  0  0  0  0  0
   -1.2837   -2.6052    0.2736 C   0  0  0  0  0  0  0  0  0  0  0  0
   -0.4864   -3.0030    1.1038 O   0  0  0  0  0  0  0  0  0  0  0  0
   -1.1137   -1.3811   -0.3421 N   0  0  0  0  0  0  0  0  0  0  0  0
   -1.7026   -1.2645   -1.1672 H   0  0  0  0  0  0  0  0  0  0  0  0
    0.1795   -0.6711   -0.3919 C   0  0  1  0  0  0  0  0  0  0  0  0
    0.9085   -1.3376   -0.8666 H   0  0  0  0  0  0  0  0  0  0  0  0
    0.1185    0.6452   -1.2234 C   0  0  0  0  0  0  0  0  0  0  0  0
    0.6886    1.4223   -0.7011 H   0  0  0  0  0  0  0  0  0  0  0  0
    0.6464    0.4634   -2.1658 H   0  0  0  0  0  0  0  0  0  0  0  0
   -1.2724    1.2352   -1.5731 C   0  0  0  0  0  0  0  0  0  0  0  0
   -1.8849    1.2766   -0.6688 H   0  0  0  0  0  0  0  0  0  0  0  0
   -1.1187    2.2667   -1.9025 H   0  0  0  0  0  0  0  0  0  0  0  0
   -2.0809    0.5406   -2.6728 C   0  0  0  0  0  0  0  0  0  0  0  0
   -1.8957   -0.6369   -2.9269 O   0  0  0  0  0  0  0  0  0  0  0  0
   -3.0027    1.2929   -3.3086 O   0  0  0  0  0  0  0  0  0  0  0  0
   -3.4022    0.7101   -3.9729 H   0  0  0  0  0  0  0  0  0  0  0  0
    0.7553   -0.3332    1.0049 C   0  0  0  0  0  0  0  0  0  0  0  0
    1.9684   -0.2637    1.1557 O   0  0  0  0  0  0  0  0  0  0  0  0
   -0.0733    0.1921    1.9797 N   0  0  0  0  0  0  0  0  0  0  0  0
   -1.0595   -0.0188    1.8637 H   0  0  0  0  0  0  0  0  0  0  0  0
    0.4104    0.5319    3.3119 C   0  0  0  0  0  0  0  0  0  0  0  0
    1.1963    1.2922    3.2532 H   0  0  0  0  0  0  0  0  0  0  0  0
   -0.4067    0.9291    3.9216 H   0  0  0  0  0  0  0  0  0  0  0  0
    0.8161   -0.3559    3.8085 H   0  0  0  0  0  0  0  0  0  0  0  0
  1  2  1  0  0  0  0
  2  3  1  0  0  0  0
  2  4  1  0  0  0  0
  2  5  1  0  0  0  0
  5  6  2  0  0  0  0
  5  7  1  0  0  0  0
  7  8  1  0  0  0  0
  7  9  1  0  0  0  0
  9 10  1  0  0  0  0
  9 11  1  0  0  0  0
  9 21  1  0  0  0  0
 11 12  1  0  0  0  0
 11 13  1  0  0  0  0
 11 14  1  0  0  0  0
 14 15  1  0  0  0  0
 14 16  1  0  0  0  0
 14 17  1  0  0  0  0
 17 18  2  0  0  0  0
 17 19  1  0  0  0  0
 19 20  1  0  0  0  0
 21 22  2  0  0  0  0
 21 23  1  0  0  0  0
 23 24  1  0  0  0  0
 23 25  1  0  0  0  0
 25 26  1  0  0  0  0
 25 27  1  0  0  0  0
 25 28  1  0  0  0  0
M  END
$$$$

  -OEChem-03222214033D

 28 27  0     1  0  0  0  0  0999 V2000
   -2.4243   -4.4359    0.4632 H   0  0  0  0  0  0  0  0  0  0  0  0
   -2.4686   -3.4826   -0.0711 C   0  0  0  0  0  0  0  0  0  0  0  0
   -3.3918   -2.9669    0.2037 H   0  0  0  0  0  0  0  0  0  0  0  0
   -2.4765   -3.6826   -1.1456 H   0  0  0  0  0  0  0  0  0  0  0  0
   -1.2692   -2.6263    0.2884 C   0  0  0  0  0  0  0  0  0  0  0  0
   -0.4823   -3.0124    1.1337 O   0  0  0  0  0  0  0  0  0  0  0  0
   -1.0950   -1.4096   -0.3412 N   0  0  0  0  0  0  0  0  0  0  0  0
   -1.6647   -1.3164   -1.1813 H   0  0  0  0  0  0  0  0  0  0  0  0
    0.1970   -0.6975   -0.3834 C   0  0  1  0  0  0  0  0  0  0  0  0
    0.9340   -1.3691   -0.8386 H   0  0  0  0  0  0  0  0  0  0  0  0
    0.1598    0.6177   -1.2219 C   0  0  0  0  0  0  0  0  0  0  0  0
    0.7479    1.3887   -0.7103 H   0  0  0  0  0  0  0  0  0  0  0  0
    0.6888    0.4053   -2.1572 H   0  0  0  0  0  0  0  0  0  0  0  0
   -1.2045    1.2473   -1.6148 C   0  0  0  0  0  0  0  0  0  0  0  0
   -1.7252    1.5200   -0.6930 H   0  0  0  0  0  0  0  0  0  0  0  0
   -1.0041    2.1744   -2.1584 H   0  0  0  0  0  0  0  0  0  0  0  0
   -2.1851    0.4383   -2.4665 C   0  0  0  0  0  0  0  0  0  0  0  0
   -1.8537   -0.6349   -2.9395 O   0  0  0  0  0  0  0  0  0  0  0  0
   -3.4097    0.9743   -2.6479 O   0  0  0  0  0  0  0  0  0  0  0  0
   -3.8800    0.3616   -3.2346 H   0  0  0  0  0  0  0  0  0  0  0  0
    0.7488   -0.3433    1.0194 C   0  0  0  0  0  0  0  0  0  0  0  0
    1.9591   -0.2726    1.1907 O   0  0  0  0  0  0  0  0  0  0  0  0
   -0.0967    0.1905    1.9750 N   0  0  0  0  0  0  0  0  0  0  0  0
   -1.0811   -0.0204    1.8447 H   0  0  0  0  0  0  0  0  0  0  0  0
    0.3647    0.5499    3.3098 C   0  0  0  0  0  0  0  0  0  0  0  0
    1.1494    1.3116    3.2528 H   0  0  0  0  0  0  0  0  0  0  0  0
   -0.4627    0.9536    3.9010 H   0  0  0  0  0  0  0  0  0  0  0  0
    0.7651   -0.3298    3.8249 H   0  0  0  0  0  0  0  0  0  0  0  0
  1  2  1  0  0  0  0
  2  3  1  0  0  0  0
  2  4  1  0  0  0  0
  2  5  1  0  0  0  0
  5  6  2  0  0  0  0
  5  7  1  0  0  0  0
  7  8  1  0  0  0  0
  7  9  1  0  0  0  0
  9 10  1  0  0  0  0
  9 11  1  0  0  0  0
  9 21  1  0  0  0  0
 11 12  1  0  0  0  0
 11 13  1  0  0  0  0
 11 14  1  0  0  0  0
 14 15  1  0  0  0  0
 14 16  1  0  0  0  0
 14 17  1  0  0  0  0
 17 18  2  0  0  0  0
 17 19  1  0  0  0  0
 19 20  1  0  0  0  0
 21 22  2  0  0  0  0
 21 23  1  0  0  0  0
 23 24  1  0  0  0  0
 23 25  1  0  0  0  0
 25 26  1  0  0  0  0
 25 27  1  0  0  0  0
 25 28  1  0  0  0  0
M  END
$$$$

  -OEChem-03222214033D

 28 27  0     1  0  0  0  0  0999 V2000
   -2.3621   -4.4859    0.5113 H   0  0  0  0  0  0  0  0  0  0  0  0
   -2.4274   -3.5344   -0.0239 C   0  0  0  0  0  0  0  0  0  0  0  0
   -3.3537   -3.0311    0.2629 H   0  0  0  0  0  0  0  0  0  0  0  0
   -2.4472   -3.7365   -1.0977 H   0  0  0  0  0  0  0  0  0  0  0  0
   -1.2357   -2.6603    0.3167 C   0  0  0  0  0  0  0  0  0  0  0  0
   -0.4340   -3.0319    1.1544 O   0  0  0  0  0  0  0  0  0  0  0  0
   -1.0831   -1.4468   -0.3247 N   0  0  0  0  0  0  0  0  0  0  0  0
   -1.6650   -1.3665   -1.1576 H   0  0  0  0  0  0  0  0  0  0  0  0
    0.1954   -0.7124   -0.3777 C   0  0  1  0  0  0  0  0  0  0  0  0
    0.9423   -1.3808   -0.8214 H   0  0  0  0  0  0  0  0  0  0  0  0
    0.1624    0.5990   -1.2261 C   0  0  0  0  0  0  0  0  0  0  0  0
    0.7712    1.3666   -0.7339 H   0  0  0  0  0  0  0  0  0  0  0  0
    0.6852    0.3534   -2.1566 H   0  0  0  0  0  0  0  0  0  0  0  0
   -1.1743    1.2655   -1.6608 C   0  0  0  0  0  0  0  0  0  0  0  0
   -1.5790    1.7707   -0.7794 H   0  0  0  0  0  0  0  0  0  0  0  0
   -0.9471    2.0401   -2.3979 H   0  0  0  0  0  0  0  0  0  0  0  0
   -2.3109    0.4192   -2.2318 C   0  0  0  0  0  0  0  0  0  0  0  0
   -2.0571   -0.6095   -2.8342 O   0  0  0  0  0  0  0  0  0  0  0  0
   -3.5689    0.8673   -2.0377 O   0  0  0  0  0  0  0  0  0  0  0  0
   -4.1461    0.2450   -2.5069 H   0  0  0  0  0  0  0  0  0  0  0  0
    0.7375   -0.3388    1.0240 C   0  0  0  0  0  0  0  0  0  0  0  0
    1.9462   -0.2497    1.1990 O   0  0  0  0  0  0  0  0  0  0  0  0
   -0.1191    0.1862    1.9745 N   0  0  0  0  0  0  0  0  0  0  0  0
   -1.1008   -0.0334    1.8380 H   0  0  0  0  0  0  0  0  0  0  0  0
    0.3309    0.5500    3.3121 C   0  0  0  0  0  0  0  0  0  0  0  0
    1.1028    1.3250    3.2604 H   0  0  0  0  0  0  0  0  0  0  0  0
   -0.5060    0.9374    3.9009 H   0  0  0  0  0  0  0  0  0  0  0  0
    0.7434   -0.3244    3.8269 H   0  0  0  0  0  0  0  0  0  0  0  0
  1  2  1  0  0  0  0
  2  3  1  0  0  0  0
  2  4  1  0  0  0  0
  2  5  1  0  0  0  0
  5  6  2  0  0  0  0
  5  7  1  0  0  0  0
  7  8  1  0  0  0  0
  7  9  1  0  0  0  0
  9 10  1  0  0  0  0
  9 11  1  0  0  0  0
  9 21  1  0  0  0  0
 11 12  1  0  0  0  0
 11 13  1  0  0  0  0
 11 14  1  0  0  0  0
 14 15  1  0  0  0  0
 14 16  1  0  0  0  0
 14 17  1  0  0  0  0
 17 18  2  0  0  0  0
 17 19  1  0  0  0  0
 19 20  1  0  0  0  0
 21 22  2  0  0  0  0
 21 23  1  0  0  0  0
 23 24  1  0  0  0  0
 23 25  1  0  0  0  0
 25 26  1  0  0  0  0
 25 27  1  0  0  0  0
 25 28  1  0  0  0  0
M  END
$$$$

  -OEChem-03222214033D

 28 27  0     1  0  0  0  0  0999 V2000
   -2.2822   -4.5361    0.5791 H   0  0  0  0  0  0  0  0  0  0  0  0
   -2.3843   -3.5800    0.0578 C   0  0  0  0  0  0  0  0  0  0  0  0
   -3.3041   -3.0931    0.3902 H   0  0  0  0  0  0  0  0  0  0  0  0
   -2.4483   -3.7708   -1.0165 H   0  0  0  0  0  0  0  0  0  0  0  0
   -1.1907   -2.6931    0.3568 C   0  0  0  0  0  0  0  0  0  0  0  0
   -0.3638   -3.0487    1.1767 O   0  0  0  0  0  0  0  0  0  0  0  0
   -1.0624   -1.4878   -0.3053 N   0  0  0  0  0  0  0  0  0  0  0  0
   -1.6693   -1.4142   -1.1214 H   0  0  0  0  0  0  0  0  0  0  0  0
    0.1987   -0.7265   -0.3754 C   0  0  1  0  0  0  0  0  0  0  0  0
    0.9592   -1.3892   -0.8043 H   0  0  0  0  0  0  0  0  0  0  0  0
    0.1546    0.5744   -1.2424 C   0  0  0  0  0  0  0  0  0  0  0  0
    0.7746    1.3469   -0.7727 H   0  0  0  0  0  0  0  0  0  0  0  0
    0.6737    0.3019   -2.1675 H   0  0  0  0  0  0  0  0  0  0  0  0
   -1.1679    1.2532   -1.7112 C   0  0  0  0  0  0  0  0  0  0  0  0
   -1.4368    1.9761   -0.9356 H   0  0  0  0  0  0  0  0  0  0  0  0
   -0.9590    1.8264   -2.6185 H   0  0  0  0  0  0  0  0  0  0  0  0
   -2.4278    0.4326   -1.9712 C   0  0  0  0  0  0  0  0  0  0  0  0
   -2.3488   -0.5772   -2.6497 O   0  0  0  0  0  0  0  0  0  0  0  0
   -3.5843    0.8681   -1.4279 O   0  0  0  0  0  0  0  0  0  0  0  0
   -4.2699    0.2580   -1.7410 H   0  0  0  0  0  0  0  0  0  0  0  0
    0.7284   -0.3200    1.0220 C   0  0  0  0  0  0  0  0  0  0  0  0
    1.9344   -0.2076    1.2018 O   0  0  0  0  0  0  0  0  0  0  0  0
   -0.1425    0.1998    1.9623 N   0  0  0  0  0  0  0  0  0  0  0  0
   -1.1220   -0.0252    1.8182 H   0  0  0  0  0  0  0  0  0  0  0  0
    0.2923    0.5960    3.2955 C   0  0  0  0  0  0  0  0  0  0  0  0
    1.0496    1.3846    3.2337 H   0  0  0  0  0  0  0  0  0  0  0  0
   -0.5555    0.9780    3.8721 H   0  0  0  0  0  0  0  0  0  0  0  0
    0.7184   -0.2608    3.8283 H   0  0  0  0  0  0  0  0  0  0  0  0
  1  2  1  0  0  0  0
  2  3  1  0  0  0  0
  2  4  1  0  0  0  0
  2  5  1  0  0  0  0
  5  6  2  0  0  0  0
  5  7  1  0  0  0  0
  7  8  1  0  0  0  0
  7  9  1  0  0  0  0
  9 10  1  0  0  0  0
  9 11  1  0  0  0  0
  9 21  1  0  0  0  0
 11 12  1  0  0  0  0
 11 13  1  0  0  0  0
 11 14  1  0  0  0  0
 14 15  1  0  0  0  0
 14 16  1  0  0  0  0
 14 17  1  0  0  0  0
 17 18  2  0  0  0  0
 17 19  1  0  0  0  0
 19 20  1  0  0  0  0
 21 22  2  0  0  0  0
 21 23  1  0  0  0  0
 23 24  1  0  0  0  0
 23 25  1  0  0  0  0
 25 26  1  0  0  0  0
 25 27  1  0  0  0  0
 25 28  1  0  0  0  0
M  END
$$$$

  -OEChem-03222214033D

 28 27  0     1  0  0  0  0  0999 V2000
   -1.8593   -4.6116    0.8412 H   0  0  0  0  0  0  0  0  0  0  0  0
   -2.0257   -3.7293    0.2166 C   0  0  0  0  0  0  0  0  0  0  0  0
   -2.9881   -3.2856    0.4819 H   0  0  0  0  0  0  0  0  0  0  0  0
   -2.0519   -4.0394   -0.8310 H   0  0  0  0  0  0  0  0  0  0  0  0
   -0.9138   -2.7202    0.4295 C   0  0  0  0  0  0  0  0  0  0  0  0
   -0.0144   -2.9649    1.2130 O   0  0  0  0  0  0  0  0  0  0  0  0
   -0.9400   -1.5310   -0.2718 N   0  0  0  0  0  0  0  0  0  0  0  0
   -1.6009   -1.5306   -1.0490 H   0  0  0  0  0  0  0  0  0  0  0  0
    0.2129   -0.6193   -0.3909 C   0  0  1  0  0  0  0  0  0  0  0  0
    1.0460   -1.1967   -0.8082 H   0  0  0  0  0  0  0  0  0  0  0  0
   -0.0011    0.6353   -1.3014 C   0  0  0  0  0  0  0  0  0  0  0  0
    0.5282    1.4912   -0.8657 H   0  0  0  0  0  0  0  0  0  0  0  0
    0.5420    0.3950   -2.2217 H   0  0  0  0  0  0  0  0  0  0  0  0
   -1.3959    1.1455   -1.7826 C   0  0  0  0  0  0  0  0  0  0  0  0
   -1.6185    2.0457   -1.2025 H   0  0  0  0  0  0  0  0  0  0  0  0
   -1.3062    1.4618   -2.8257 H   0  0  0  0  0  0  0  0  0  0  0  0
   -2.6375    0.2669   -1.6809 C   0  0  0  0  0  0  0  0  0  0  0  0
   -2.6955   -0.7458   -2.3579 O   0  0  0  0  0  0  0  0  0  0  0  0
   -3.6121    0.6420   -0.8248 O   0  0  0  0  0  0  0  0  0  0  0  0
   -4.3238   -0.0073   -0.9334 H   0  0  0  0  0  0  0  0  0  0  0  0
    0.7025   -0.1030    0.9844 C   0  0  0  0  0  0  0  0  0  0  0  0
    1.8875    0.1601    1.1449 O   0  0  0  0  0  0  0  0  0  0  0  0
   -0.2163    0.3333    1.9214 N   0  0  0  0  0  0  0  0  0  0  0  0
   -1.1682    0.0069    1.7868 H   0  0  0  0  0  0  0  0  0  0  0  0
    0.1760    0.8253    3.2359 C   0  0  0  0  0  0  0  0  0  0  0  0
    0.8479    1.6849    3.1403 H   0  0  0  0  0  0  0  0  0  0  0  0
   -0.7063    1.1409    3.8007 H   0  0  0  0  0  0  0  0  0  0  0  0
    0.6889    0.0389    3.7999 H   0  0  0  0  0  0  0  0  0  0  0  0
  1  2  1  0  0  0  0
  2  3  1  0  0  0  0
  2  4  1  0  0  0  0
  2  5  1  0  0  0  0
  5  6  2  0  0  0  0
  5  7  1  0  0  0  0
  7  8  1  0  0  0  0
  7  9  1  0  0  0  0
  9 10  1  0  0  0  0
  9 11  1  0  0  0  0
  9 21  1  0  0  0  0
 11 12  1  0  0  0  0
 11 13  1  0  0  0  0
 11 14  1  0  0  0  0
 14 15  1  0  0  0  0
 14 16  1  0  0  0  0
 14 17  1  0  0  0  0
 17 18  2  0  0  0  0
 17 19  1  0  0  0  0
 19 20  1  0  0  0  0
 21 22  2  0  0  0  0
 21 23  1  0  0  0  0
 23 24  1  0  0  0  0
 23 25  1  0  0  0  0
 25 26  1  0  0  0  0
 25 27  1  0  0  0  0
 25 28  1  0  0  0  0
M  END
$$$$

  -OEChem-03222214033D

 28 27  0     1  0  0  0  0  0999 V2000
   -2.0368   -4.5686    0.0631 H   0  0  0  0  0  0  0  0  0  0  0  0
   -2.2434   -3.5452   -0.2632 C   0  0  0  0  0  0  0  0  0  0  0  0
   -3.0496   -3.1365    0.3505 H   0  0  0  0  0  0  0  0  0  0  0  0
   -2.5625   -3.5669   -1.3080 H   0  0  0  0  0  0  0  0  0  0  0  0
   -0.9988   -2.6908   -0.1181 C   0  0  0  0  0  0  0  0  0  0  0  0
    0.0305   -3.1869    0.3019 O   0  0  0  0  0  0  0  0  0  0  0  0
   -1.0455   -1.3602   -0.4852 N   0  0  0  0  0  0  0  0  0  0  0  0
   -1.8716   -1.0884   -1.0130 H   0  0  0  0  0  0  0  0  0  0  0  0
    0.1327   -0.4756   -0.5545 C   0  0  1  0  0  0  0  0  0  0  0  0
    0.8596   -0.9317   -1.2365 H   0  0  0  0  0  0  0  0  0  0  0  0
   -0.1428    0.9866   -1.0383 C   0  0  0  0  0  0  0  0  0  0  0  0
    0.4939    1.6728   -0.4668 H   0  0  0  0  0  0  0  0  0  0  0  0
    0.2414    1.0237   -2.0632 H   0  0  0  0  0  0  0  0  0  0  0  0
   -1.5639    1.6278   -1.1009 C   0  0  0  0  0  0  0  0  0  0  0  0
   -1.5472    2.5323   -0.4850 H   0  0  0  0  0  0  0  0  0  0  0  0
   -1.7425    1.9552   -2.1290 H   0  0  0  0  0  0  0  0  0  0  0  0
   -2.7879    0.8272   -0.6736 C   0  0  0  0  0  0  0  0  0  0  0  0
   -3.1331    0.8753    0.4920 O   0  0  0  0  0  0  0  0  0  0  0  0
   -3.4089    0.0593   -1.5962 O   0  0  0  0  0  0  0  0  0  0  0  0
   -4.2071   -0.2728   -1.1530 H   0  0  0  0  0  0  0  0  0  0  0  0
    0.8340   -0.3572    0.8212 C   0  0  0  0  0  0  0  0  0  0  0  0
    2.0472   -0.2018    0.8758 O   0  0  0  0  0  0  0  0  0  0  0  0
    0.0750   -0.1614    1.9610 N   0  0  0  0  0  0  0  0  0  0  0  0
   -0.9304   -0.2812    1.8668 H   0  0  0  0  0  0  0  0  0  0  0  0
    0.6506    0.0143    3.2873 C   0  0  0  0  0  0  0  0  0  0  0  0
    1.3293    0.8736    3.3015 H   0  0  0  0  0  0  0  0  0  0  0  0
   -0.1407    0.1888    4.0227 H   0  0  0  0  0  0  0  0  0  0  0  0
    1.2086   -0.8806    3.5818 H   0  0  0  0  0  0  0  0  0  0  0  0
  1  2  1  0  0  0  0
  2  3  1  0  0  0  0
  2  4  1  0  0  0  0
  2  5  1  0  0  0  0
  5  6  2  0  0  0  0
  5  7  1  0  0  0  0
  7  8  1  0  0  0  0
  7  9  1  0  0  0  0
  9 10  1  0  0  0  0
  9 11  1  0  0  0  0
  9 21  1  0  0  0  0
 11 12  1  0  0  0  0
 11 13  1  0  0  0  0
 11 14  1  0  0  0  0
 14 15  1  0  0  0  0
 14 16  1  0  0  0  0
 14 17  1  0  0  0  0
 17 18  2  0  0  0  0
 17 19  1  0  0  0  0
 19 20  1  0  0  0  0
 21 22  2  0  0  0  0
 21 23  1  0  0  0  0
 23 24  1  0  0  0  0
 23 25  1  0  0  0  0
 25 26  1  0  0  0  0
 25 27  1  0  0  0  0
 25 28  1  0  0  0  0
M  END
$$$$

  -OEChem-03222214033D

 28 27  0     1  0  0  0  0  0999 V2000
   -2.4268   -4.4235    0.4299 H   0  0  0  0  0  0  0  0  0  0  0  0
   -2.5058   -3.4244   -0.0082 C   0  0  0  0  0  0  0  0  0  0  0  0
   -3.2838   -2.8694    0.5210 H   0  0  0  0  0  0  0  0  0  0  0  0
   -2.7858   -3.5226   -1.0598 H   0  0  0  0  0  0  0  0  0  0  0  0
   -1.1802   -2.6969    0.1101 C   0  0  0  0  0  0  0  0  0  0  0  0
   -0.2314   -3.2492    0.6360 O   0  0  0  0  0  0  0  0  0  0  0  0
   -1.0561   -1.4245   -0.4124 N   0  0  0  0  0  0  0  0  0  0  0  0
   -1.8340   -1.1052   -0.9849 H   0  0  0  0  0  0  0  0  0  0  0  0
    0.2075   -0.6621   -0.4562 C   0  0  1  0  0  0  0  0  0  0  0  0
    0.9485   -1.2594   -0.9997 H   0  0  0  0  0  0  0  0  0  0  0  0
    0.1143    0.7435   -1.1359 C   0  0  0  0  0  0  0  0  0  0  0  0
    0.7293    1.4449   -0.5593 H   0  0  0  0  0  0  0  0  0  0  0  0
    0.6146    0.6482   -2.1054 H   0  0  0  0  0  0  0  0  0  0  0  0
   -1.2426    1.4594   -1.4089 C   0  0  0  0  0  0  0  0  0  0  0  0
   -1.1305    2.5215   -1.1721 H   0  0  0  0  0  0  0  0  0  0  0  0
   -1.4442    1.3959   -2.4821 H   0  0  0  0  0  0  0  0  0  0  0  0
   -2.4942    0.9563   -0.6985 C   0  0  0  0  0  0  0  0  0  0  0  0
   -2.6128    1.1857    0.4913 O   0  0  0  0  0  0  0  0  0  0  0  0
   -3.3774    0.2120   -1.4001 O   0  0  0  0  0  0  0  0  0  0  0  0
   -4.1215    0.0624   -0.7935 H   0  0  0  0  0  0  0  0  0  0  0  0
    0.7804   -0.4322    0.9647 C   0  0  0  0  0  0  0  0  0  0  0  0
    1.9924   -0.3964    1.1352 O   0  0  0  0  0  0  0  0  0  0  0  0
   -0.0599   -0.0263    1.9861 N   0  0  0  0  0  0  0  0  0  0  0  0
   -1.0434    0.0988    1.7511 H   0  0  0  0  0  0  0  0  0  0  0  0
    0.4124    0.3734    3.3041 C   0  0  0  0  0  0  0  0  0  0  0  0
    1.0602    1.2530    3.2288 H   0  0  0  0  0  0  0  0  0  0  0  0
   -0.4354    0.6204    3.9502 H   0  0  0  0  0  0  0  0  0  0  0  0
    0.9761   -0.4417    3.7704 H   0  0  0  0  0  0  0  0  0  0  0  0
  1  2  1  0  0  0  0
  2  3  1  0  0  0  0
  2  4  1  0  0  0  0
  2  5  1  0  0  0  0
  5  6  2  0  0  0  0
  5  7  1  0  0  0  0
  7  8  1  0  0  0  0
  7  9  1  0  0  0  0
  9 10  1  0  0  0  0
  9 11  1  0  0  0  0
  9 21  1  0  0  0  0
 11 12  1  0  0  0  0
 11 13  1  0  0  0  0
 11 14  1  0  0  0  0
 14 15  1  0  0  0  0
 14 16  1  0  0  0  0
 14 17  1  0  0  0  0
 17 18  2  0  0  0  0
 17 19  1  0  0  0  0
 19 20  1  0  0  0  0
 21 22  2  0  0  0  0
 21 23  1  0  0  0  0
 23 24  1  0  0  0  0
 23 25  1  0  0  0  0
 25 26  1  0  0  0  0
 25 27  1  0  0  0  0
 25 28  1  0  0  0  0
M  END
$$$$

  -OEChem-03222214033D

 28 27  0     1  0  0  0  0  0999 V2000
   -2.2956   -4.3498    0.6593 H   0  0  0  0  0  0  0  0  0  0  0  0
   -2.4341   -3.3439    0.2526 C   0  0  0  0  0  0  0  0  0  0  0  0
   -2.9616   -2.7363    0.9919 H   0  0  0  0  0  0  0  0  0  0  0  0
   -3.0389   -3.4109   -0.6548 H   0  0  0  0  0  0  0  0  0  0  0  0
   -1.0885   -2.7216   -0.0675 C   0  0  0  0  0  0  0  0  0  0  0  0
   -0.0696   -3.3766    0.0620 O   0  0  0  0  0  0  0  0  0  0  0  0
   -1.0305   -1.4134   -0.5056 N   0  0  0  0  0  0  0  0  0  0  0  0
   -1.8954   -0.8990   -0.3699 H   0  0  0  0  0  0  0  0  0  0  0  0
    0.2171   -0.6275   -0.4587 C   0  0  1  0  0  0  0  0  0  0  0  0
    0.9772   -1.2028   -1.0008 H   0  0  0  0  0  0  0  0  0  0  0  0
    0.1347    0.7651   -1.1539 C   0  0  0  0  0  0  0  0  0  0  0  0
    0.6634    1.4823   -0.5153 H   0  0  0  0  0  0  0  0  0  0  0  0
    0.7221    0.6971   -2.0759 H   0  0  0  0  0  0  0  0  0  0  0  0
   -1.2239    1.4271   -1.5322 C   0  0  0  0  0  0  0  0  0  0  0  0
   -1.0803    2.5100   -1.5752 H   0  0  0  0  0  0  0  0  0  0  0  0
   -1.4616    1.0969   -2.5477 H   0  0  0  0  0  0  0  0  0  0  0  0
   -2.4830    1.1622   -0.7043 C   0  0  0  0  0  0  0  0  0  0  0  0
   -2.3916    0.8612    0.4744 O   0  0  0  0  0  0  0  0  0  0  0  0
   -3.6656    1.2772   -1.3430 O   0  0  0  0  0  0  0  0  0  0  0  0
   -4.3499    1.1323   -0.6712 H   0  0  0  0  0  0  0  0  0  0  0  0
    0.7731   -0.4709    0.9776 C   0  0  0  0  0  0  0  0  0  0  0  0
    1.9817   -0.4458    1.1681 O   0  0  0  0  0  0  0  0  0  0  0  0
   -0.0794   -0.1450    2.0169 N   0  0  0  0  0  0  0  0  0  0  0  0
   -1.0437    0.0667    1.7602 H   0  0  0  0  0  0  0  0  0  0  0  0
    0.3884    0.2090    3.3503 C   0  0  0  0  0  0  0  0  0  0  0  0
    0.9734    1.1341    3.3183 H   0  0  0  0  0  0  0  0  0  0  0  0
   -0.4625    0.3571    4.0219 H   0  0  0  0  0  0  0  0  0  0  0  0
    1.0151   -0.5904    3.7600 H   0  0  0  0  0  0  0  0  0  0  0  0
  1  2  1  0  0  0  0
  2  3  1  0  0  0  0
  2  4  1  0  0  0  0
  2  5  1  0  0  0  0
  5  6  2  0  0  0  0
  5  7  1  0  0  0  0
  7  8  1  0  0  0  0
  7  9  1  0  0  0  0
  9 10  1  0  0  0  0
  9 11  1  0  0  0  0
  9 21  1  0  0  0  0
 11 12  1  0  0  0  0
 11 13  1  0  0  0  0
 11 14  1  0  0  0  0
 14 15  1  0  0  0  0
 14 16  1  0  0  0  0
 14 17  1  0  0  0  0
 17 18  2  0  0  0  0
 17 19  1  0  0  0  0
 19 20  1  0  0  0  0
 21 22  2  0  0  0  0
 21 23  1  0  0  0  0
 23 24  1  0  0  0  0
 23 25  1  0  0  0  0
 25 26  1  0  0  0  0
 25 27  1  0  0  0  0
 25 28  1  0  0  0  0
M  END
$$$$

  -OEChem-03222214033D

 28 27  0     1  0  0  0  0  0999 V2000
   -2.3430   -4.3279    0.5821 H   0  0  0  0  0  0  0  0  0  0  0  0
   -2.4644   -3.3103    0.2000 C   0  0  0  0  0  0  0  0  0  0  0  0
   -2.9957   -2.7158    0.9470 H   0  0  0  0  0  0  0  0  0  0  0  0
   -3.0563   -3.3467   -0.7176 H   0  0  0  0  0  0  0  0  0  0  0  0
   -1.1072   -2.6952   -0.0837 C   0  0  0  0  0  0  0  0  0  0  0  0
   -0.0963   -3.3597    0.0602 O   0  0  0  0  0  0  0  0  0  0  0  0
   -1.0295   -1.3833   -0.5065 N   0  0  0  0  0  0  0  0  0  0  0  0
   -1.8901   -0.8579   -0.3779 H   0  0  0  0  0  0  0  0  0  0  0  0
    0.2225   -0.6083   -0.4279 C   0  0  1  0  0  0  0  0  0  0  0  0
    0.9845   -1.1924   -0.9578 H   0  0  0  0  0  0  0  0  0  0  0  0
    0.1455    0.7643   -1.1544 C   0  0  0  0  0  0  0  0  0  0  0  0
    0.6469    1.5058   -0.5219 H   0  0  0  0  0  0  0  0  0  0  0  0
    0.7487    0.6823   -2.0649 H   0  0  0  0  0  0  0  0  0  0  0  0
   -1.2253    1.3715   -1.5697 C   0  0  0  0  0  0  0  0  0  0  0  0
   -1.0561    2.4073   -1.8764 H   0  0  0  0  0  0  0  0  0  0  0  0
   -1.5646    0.8271   -2.4554 H   0  0  0  0  0  0  0  0  0  0  0  0
   -2.4081    1.3752   -0.5955 C   0  0  0  0  0  0  0  0  0  0  0  0
   -2.3070    0.9061    0.5253 O   0  0  0  0  0  0  0  0  0  0  0  0
   -3.5528    1.9148   -1.0624 O   0  0  0  0  0  0  0  0  0  0  0  0
   -4.1865    1.8734   -0.3294 H   0  0  0  0  0  0  0  0  0  0  0  0
    0.7780   -0.4540    1.0092 C   0  0  0  0  0  0  0  0  0  0  0  0
    1.9874   -0.4352    1.1964 O   0  0  0  0  0  0  0  0  0  0  0  0
   -0.0654   -0.1239    2.0538 N   0  0  0  0  0  0  0  0  0  0  0  0
   -1.0307    0.0907    1.8028 H   0  0  0  0  0  0  0  0  0  0  0  0
    0.4092    0.2180    3.3882 C   0  0  0  0  0  0  0  0  0  0  0  0
    1.0032    1.1373    3.3600 H   0  0  0  0  0  0  0  0  0  0  0  0
   -0.4387    0.3709    4.0626 H   0  0  0  0  0  0  0  0  0  0  0  0
    1.0283   -0.5900    3.7925 H   0  0  0  0  0  0  0  0  0  0  0  0
  1  2  1  0  0  0  0
  2  3  1  0  0  0  0
  2  4  1  0  0  0  0
  2  5  1  0  0  0  0
  5  6  2  0  0  0  0
  5  7  1  0  0  0  0
  7  8  1  0  0  0  0
  7  9  1  0  0  0  0
  9 10  1  0  0  0  0
  9 11  1  0  0  0  0
  9 21  1  0  0  0  0
 11 12  1  0  0  0  0
 11 13  1  0  0  0  0
 11 14  1  0  0  0  0
 14 15  1  0  0  0  0
 14 16  1  0  0  0  0
 14 17  1  0  0  0  0
 17 18  2  0  0  0  0
 17 19  1  0  0  0  0
 19 20  1  0  0  0  0
 21 22  2  0  0  0  0
 21 23  1  0  0  0  0
 23 24  1  0  0  0  0
 23 25  1  0  0  0  0
 25 26  1  0  0  0  0
 25 27  1  0  0  0  0
 25 28  1  0  0  0  0
M  END
$$$$

  -OEChem-03222214033D

 28 27  0     1  0  0  0  0  0999 V2000
   -2.3238   -4.3363    0.6156 H   0  0  0  0  0  0  0  0  0  0  0  0
   -2.4330   -3.3482    0.1598 C   0  0  0  0  0  0  0  0  0  0  0  0
   -3.0879   -2.7403    0.7885 H   0  0  0  0  0  0  0  0  0  0  0  0
   -2.8901   -3.4633   -0.8259 H   0  0  0  0  0  0  0  0  0  0  0  0
   -1.0774   -2.6816    0.0263 C   0  0  0  0  0  0  0  0  0  0  0  0
   -0.0722   -3.2583    0.4015 O   0  0  0  0  0  0  0  0  0  0  0  0
   -0.9921   -1.4140   -0.5118 N   0  0  0  0  0  0  0  0  0  0  0  0
   -1.8845   -0.9368   -0.6407 H   0  0  0  0  0  0  0  0  0  0  0  0
    0.2338   -0.5925   -0.4818 C   0  0  1  0  0  0  0  0  0  0  0  0
    1.0349   -1.1777   -0.9488 H   0  0  0  0  0  0  0  0  0  0  0  0
    0.1063    0.7381   -1.2760 C   0  0  0  0  0  0  0  0  0  0  0  0
    0.5957    1.5425   -0.7139 H   0  0  0  0  0  0  0  0  0  0  0  0
    0.6781    0.6171   -2.2021 H   0  0  0  0  0  0  0  0  0  0  0  0
   -1.3097    1.2152   -1.6716 C   0  0  0  0  0  0  0  0  0  0  0  0
   -1.2246    2.1505   -2.2319 H   0  0  0  0  0  0  0  0  0  0  0  0
   -1.7750    0.4820   -2.3364 H   0  0  0  0  0  0  0  0  0  0  0  0
   -2.2281    1.4597   -0.4760 C   0  0  0  0  0  0  0  0  0  0  0  0
   -2.9486    0.5540   -0.0892 O   0  0  0  0  0  0  0  0  0  0  0  0
   -2.1879    2.6766    0.1054 O   0  0  0  0  0  0  0  0  0  0  0  0
   -2.8334    2.6506    0.8280 H   0  0  0  0  0  0  0  0  0  0  0  0
    0.7138   -0.3013    0.9588 C   0  0  0  0  0  0  0  0  0  0  0  0
    1.9068   -0.1571    1.1885 O   0  0  0  0  0  0  0  0  0  0  0  0
   -0.2051    0.0845    1.9189 N   0  0  0  0  0  0  0  0  0  0  0  0
   -1.1844   -0.0793    1.7025 H   0  0  0  0  0  0  0  0  0  0  0  0
    0.1708    0.4414    3.2807 C   0  0  0  0  0  0  0  0  0  0  0  0
    0.8523    1.2987    3.2784 H   0  0  0  0  0  0  0  0  0  0  0  0
   -0.7173    0.7088    3.8609 H   0  0  0  0  0  0  0  0  0  0  0  0
    0.6672   -0.4013    3.7732 H   0  0  0  0  0  0  0  0  0  0  0  0
  1  2  1  0  0  0  0
  2  3  1  0  0  0  0
  2  4  1  0  0  0  0
  2  5  1  0  0  0  0
  5  6  2  0  0  0  0
  5  7  1  0  0  0  0
  7  8  1  0  0  0  0
  7  9  1  0  0  0  0
  9 10  1  0  0  0  0
  9 11  1  0  0  0  0
  9 21  1  0  0  0  0
 11 12  1  0  0  0  0
 11 13  1  0  0  0  0
 11 14  1  0  0  0  0
 14 15  1  0  0  0  0
 14 16  1  0  0  0  0
 14 17  1  0  0  0  0
 17 18  2  0  0  0  0
 17 19  1  0  0  0  0
 19 20  1  0  0  0  0
 21 22  2  0  0  0  0
 21 23  1  0  0  0  0
 23 24  1  0  0  0  0
 23 25  1  0  0  0  0
 25 26  1  0  0  0  0
 25 27  1  0  0  0  0
 25 28  1  0  0  0  0
M  END
$$$$

  -OEChem-03222214033D

 28 27  0     1  0  0  0  0  0999 V2000
   -2.3370   -4.3191    0.5640 H   0  0  0  0  0  0  0  0  0  0  0  0
   -2.4520   -3.3023    0.1779 C   0  0  0  0  0  0  0  0  0  0  0  0
   -3.0123   -2.7103    0.9056 H   0  0  0  0  0  0  0  0  0  0  0  0
   -3.0126   -3.3431   -0.7589 H   0  0  0  0  0  0  0  0  0  0  0  0
   -1.0905   -2.6777   -0.0593 C   0  0  0  0  0  0  0  0  0  0  0  0
   -0.0785   -3.3018    0.2060 O   0  0  0  0  0  0  0  0  0  0  0  0
   -1.0068   -1.3966   -0.5667 N   0  0  0  0  0  0  0  0  0  0  0  0
   -1.8862   -0.8822   -0.5589 H   0  0  0  0  0  0  0  0  0  0  0  0
    0.2314   -0.5950   -0.4990 C   0  0  1  0  0  0  0  0  0  0  0  0
    1.0293   -1.1747   -0.9783 H   0  0  0  0  0  0  0  0  0  0  0  0
    0.1193    0.7559   -1.2574 C   0  0  0  0  0  0  0  0  0  0  0  0
    0.6175    1.5495   -0.6879 H   0  0  0  0  0  0  0  0  0  0  0  0
    0.6819    0.6447   -2.1903 H   0  0  0  0  0  0  0  0  0  0  0  0
   -1.3058    1.2158   -1.6364 C   0  0  0  0  0  0  0  0  0  0  0  0
   -1.2233    2.0355   -2.3558 H   0  0  0  0  0  0  0  0  0  0  0  0
   -1.8676    0.4206   -2.1324 H   0  0  0  0  0  0  0  0  0  0  0  0
   -2.0784    1.7405   -0.4324 C   0  0  0  0  0  0  0  0  0  0  0  0
   -2.5914    0.9201    0.3131 O   0  0  0  0  0  0  0  0  0  0  0  0
   -2.1478    3.0739   -0.2380 O   0  0  0  0  0  0  0  0  0  0  0  0
   -2.6670    3.1998    0.5711 H   0  0  0  0  0  0  0  0  0  0  0  0
    0.7066   -0.3492    0.9522 C   0  0  0  0  0  0  0  0  0  0  0  0
    1.9014   -0.2584    1.1988 O   0  0  0  0  0  0  0  0  0  0  0  0
   -0.2073    0.0263    1.9209 N   0  0  0  0  0  0  0  0  0  0  0  0
   -1.1854    0.0790    1.6393 H   0  0  0  0  0  0  0  0  0  0  0  0
    0.1694    0.4315    3.2684 C   0  0  0  0  0  0  0  0  0  0  0  0
    0.7574    1.3546    3.2403 H   0  0  0  0  0  0  0  0  0  0  0  0
   -0.7246    0.6060    3.8746 H   0  0  0  0  0  0  0  0  0  0  0  0
    0.7652   -0.3511    3.7501 H   0  0  0  0  0  0  0  0  0  0  0  0
  1  2  1  0  0  0  0
  2  3  1  0  0  0  0
  2  4  1  0  0  0  0
  2  5  1  0  0  0  0
  5  6  2  0  0  0  0
  5  7  1  0  0  0  0
  7  8  1  0  0  0  0
  7  9  1  0  0  0  0
  9 10  1  0  0  0  0
  9 11  1  0  0  0  0
  9 21  1  0  0  0  0
 11 12  1  0  0  0  0
 11 13  1  0  0  0  0
 11 14  1  0  0  0  0
 14 15  1  0  0  0  0
 14 16  1  0  0  0  0
 14 17  1  0  0  0  0
 17 18  2  0  0  0  0
 17 19  1  0  0  0  0
 19 20  1  0  0  0  0
 21 22  2  0  0  0  0
 21 23  1  0  0  0  0
 23 24  1  0  0  0  0
 23 25  1  0  0  0  0
 25 26  1  0  0  0  0
 25 27  1  0  0  0  0
 25 28  1  0  0  0  0
M  END
$$$$

  -OEChem-03222214033D

 28 27  0     1  0  0  0  0  0999 V2000
   -2.3255   -4.3350    0.5730 H   0  0  0  0  0  0  0  0  0  0  0  0
   -2.4504   -3.3332    0.1524 C   0  0  0  0  0  0  0  0  0  0  0  0
   -3.0377   -2.7307    0.8495 H   0  0  0  0  0  0  0  0  0  0  0  0
   -2.9886   -3.4139   -0.7949 H   0  0  0  0  0  0  0  0  0  0  0  0
   -1.0950   -2.6912   -0.0739 C   0  0  0  0  0  0  0  0  0  0  0  0
   -0.0783   -3.3093    0.1867 O   0  0  0  0  0  0  0  0  0  0  0  0
   -1.0208   -1.4063   -0.5751 N   0  0  0  0  0  0  0  0  0  0  0  0
   -1.9039   -0.9045   -0.5945 H   0  0  0  0  0  0  0  0  0  0  0  0
    0.2132   -0.5987   -0.5030 C   0  0  1  0  0  0  0  0  0  0  0  0
    1.0139   -1.1692   -0.9889 H   0  0  0  0  0  0  0  0  0  0  0  0
    0.0980    0.7637   -1.2390 C   0  0  0  0  0  0  0  0  0  0  0  0
    0.6128    1.5497   -0.6728 H   0  0  0  0  0  0  0  0  0  0  0  0
    0.6505    0.6536   -2.1782 H   0  0  0  0  0  0  0  0  0  0  0  0
   -1.3278    1.2325   -1.6104 C   0  0  0  0  0  0  0  0  0  0  0  0
   -1.2489    1.8919   -2.4795 H   0  0  0  0  0  0  0  0  0  0  0  0
   -1.9912    0.4195   -1.9091 H   0  0  0  0  0  0  0  0  0  0  0  0
   -1.9412    2.0544   -0.4881 C   0  0  0  0  0  0  0  0  0  0  0  0
   -2.4040    1.4356    0.4568 O   0  0  0  0  0  0  0  0  0  0  0  0
   -1.9317    3.4012   -0.5722 O   0  0  0  0  0  0  0  0  0  0  0  0
   -2.3483    3.7197    0.2434 H   0  0  0  0  0  0  0  0  0  0  0  0
    0.6887   -0.3576    0.9496 C   0  0  0  0  0  0  0  0  0  0  0  0
    1.8849   -0.2957    1.1992 O   0  0  0  0  0  0  0  0  0  0  0  0
   -0.2222    0.0096    1.9248 N   0  0  0  0  0  0  0  0  0  0  0  0
   -1.1750    0.1944    1.6124 H   0  0  0  0  0  0  0  0  0  0  0  0
    0.1718    0.4476    3.2571 C   0  0  0  0  0  0  0  0  0  0  0  0
    0.7379    1.3829    3.2008 H   0  0  0  0  0  0  0  0  0  0  0  0
   -0.7145    0.6135    3.8768 H   0  0  0  0  0  0  0  0  0  0  0  0
    0.7936   -0.3124    3.7423 H   0  0  0  0  0  0  0  0  0  0  0  0
  1  2  1  0  0  0  0
  2  3  1  0  0  0  0
  2  4  1  0  0  0  0
  2  5  1  0  0  0  0
  5  6  2  0  0  0  0
  5  7  1  0  0  0  0
  7  8  1  0  0  0  0
  7  9  1  0  0  0  0
  9 10  1  0  0  0  0
  9 11  1  0  0  0  0
  9 21  1  0  0  0  0
 11 12  1  0  0  0  0
 11 13  1  0  0  0  0
 11 14  1  0  0  0  0
 14 15  1  0  0  0  0
 14 16  1  0  0  0  0
 14 17  1  0  0  0  0
 17 18  2  0  0  0  0
 17 19  1  0  0  0  0
 19 20  1  0  0  0  0
 21 22  2  0  0  0  0
 21 23  1  0  0  0  0
 23 24  1  0  0  0  0
 23 25  1  0  0  0  0
 25 26  1  0  0  0  0
 25 27  1  0  0  0  0
 25 28  1  0  0  0  0
M  END
$$$$

  -OEChem-03222214033D

 28 27  0     1  0  0  0  0  0999 V2000
   -2.3269   -4.3701    0.5626 H   0  0  0  0  0  0  0  0  0  0  0  0
   -2.4535   -3.3808    0.1135 C   0  0  0  0  0  0  0  0  0  0  0  0
   -3.0900   -2.7782    0.7660 H   0  0  0  0  0  0  0  0  0  0  0  0
   -2.9406   -3.4956   -0.8578 H   0  0  0  0  0  0  0  0  0  0  0  0
   -1.1030   -2.7120   -0.0593 C   0  0  0  0  0  0  0  0  0  0  0  0
   -0.0856   -3.3118    0.2372 O   0  0  0  0  0  0  0  0  0  0  0  0
   -1.0339   -1.4287   -0.5659 N   0  0  0  0  0  0  0  0  0  0  0  0
   -1.9227   -0.9495   -0.6556 H   0  0  0  0  0  0  0  0  0  0  0  0
    0.1945   -0.6107   -0.5068 C   0  0  1  0  0  0  0  0  0  0  0  0
    0.9961   -1.1729   -1.0005 H   0  0  0  0  0  0  0  0  0  0  0  0
    0.0678    0.7631   -1.2214 C   0  0  0  0  0  0  0  0  0  0  0  0
    0.6066    1.5367   -0.6602 H   0  0  0  0  0  0  0  0  0  0  0  0
    0.6046    0.6575   -2.1702 H   0  0  0  0  0  0  0  0  0  0  0  0
   -1.3572    1.2593   -1.5748 C   0  0  0  0  0  0  0  0  0  0  0  0
   -1.3232    1.7023   -2.5743 H   0  0  0  0  0  0  0  0  0  0  0  0
   -2.1128    0.4769   -1.6193 H   0  0  0  0  0  0  0  0  0  0  0  0
   -1.7955    2.3564   -0.6174 C   0  0  0  0  0  0  0  0  0  0  0  0
   -2.1726    2.0022    0.4873 O   0  0  0  0  0  0  0  0  0  0  0  0
   -1.7368    3.6449   -1.0140 O   0  0  0  0  0  0  0  0  0  0  0  0
   -2.0381    4.1660   -0.2535 H   0  0  0  0  0  0  0  0  0  0  0  0
    0.6778   -0.3579    0.9417 C   0  0  0  0  0  0  0  0  0  0  0  0
    1.8761   -0.3043    1.1838 O   0  0  0  0  0  0  0  0  0  0  0  0
   -0.2273    0.0089    1.9230 N   0  0  0  0  0  0  0  0  0  0  0  0
   -1.1656    0.2447    1.6064 H   0  0  0  0  0  0  0  0  0  0  0  0
    0.1890    0.4707    3.2407 C   0  0  0  0  0  0  0  0  0  0  0  0
    0.7538    1.4053    3.1584 H   0  0  0  0  0  0  0  0  0  0  0  0
   -0.6862    0.6467    3.8733 H   0  0  0  0  0  0  0  0  0  0  0  0
    0.8194   -0.2808    3.7280 H   0  0  0  0  0  0  0  0  0  0  0  0
  1  2  1  0  0  0  0
  2  3  1  0  0  0  0
  2  4  1  0  0  0  0
  2  5  1  0  0  0  0
  5  6  2  0  0  0  0
  5  7  1  0  0  0  0
  7  8  1  0  0  0  0
  7  9  1  0  0  0  0
  9 10  1  0  0  0  0
  9 11  1  0  0  0  0
  9 21  1  0  0  0  0
 11 12  1  0  0  0  0
 11 13  1  0  0  0  0
 11 14  1  0  0  0  0
 14 15  1  0  0  0  0
 14 16  1  0  0  0  0
 14 17  1  0  0  0  0
 17 18  2  0  0  0  0
 17 19  1  0  0  0  0
 19 20  1  0  0  0  0
 21 22  2  0  0  0  0
 21 23  1  0  0  0  0
 23 24  1  0  0  0  0
 23 25  1  0  0  0  0
 25 26  1  0  0  0  0
 25 27  1  0  0  0  0
 25 28  1  0  0  0  0
M  END
$$$$

  -OEChem-03222214033D

 28 27  0     1  0  0  0  0  0999 V2000
   -2.3915   -4.4201    0.4976 H   0  0  0  0  0  0  0  0  0  0  0  0
   -2.4782   -3.4651   -0.0286 C   0  0  0  0  0  0  0  0  0  0  0  0
   -3.2925   -2.8908    0.4196 H   0  0  0  0  0  0  0  0  0  0  0  0
   -2.7122   -3.6619   -1.0776 H   0  0  0  0  0  0  0  0  0  0  0  0
   -1.1772   -2.6923    0.0765 C   0  0  0  0  0  0  0  0  0  0  0  0
   -0.2112   -3.2019    0.6138 O   0  0  0  0  0  0  0  0  0  0  0  0
   -1.0926   -1.4221   -0.4604 N   0  0  0  0  0  0  0  0  0  0  0  0
   -1.8932   -1.1065   -0.9958 H   0  0  0  0  0  0  0  0  0  0  0  0
    0.1435   -0.6128   -0.4855 C   0  0  1  0  0  0  0  0  0  0  0  0
    0.9149   -1.1900   -1.0083 H   0  0  0  0  0  0  0  0  0  0  0  0
   -0.0175    0.7526   -1.2139 C   0  0  0  0  0  0  0  0  0  0  0  0
    0.5539    1.5232   -0.6809 H   0  0  0  0  0  0  0  0  0  0  0  0
    0.4749    0.6460   -2.1863 H   0  0  0  0  0  0  0  0  0  0  0  0
   -1.4545    1.2690   -1.4945 C   0  0  0  0  0  0  0  0  0  0  0  0
   -1.5828    1.4071   -2.5718 H   0  0  0  0  0  0  0  0  0  0  0  0
   -2.2400    0.5922   -1.1627 H   0  0  0  0  0  0  0  0  0  0  0  0
   -1.6865    2.6087   -0.8099 C   0  0  0  0  0  0  0  0  0  0  0  0
   -2.0992    2.5924    0.3359 O   0  0  0  0  0  0  0  0  0  0  0  0
   -1.4144    3.7412   -1.4912 O   0  0  0  0  0  0  0  0  0  0  0  0
   -1.6061    4.4639   -0.8733 H   0  0  0  0  0  0  0  0  0  0  0  0
    0.7049   -0.3244    0.9284 C   0  0  0  0  0  0  0  0  0  0  0  0
    1.9144   -0.2319    1.0919 O   0  0  0  0  0  0  0  0  0  0  0  0
   -0.1444    0.0747    1.9447 N   0  0  0  0  0  0  0  0  0  0  0  0
   -1.1335    0.1364    1.7237 H   0  0  0  0  0  0  0  0  0  0  0  0
    0.3225    0.5447    3.2421 C   0  0  0  0  0  0  0  0  0  0  0  0
    0.9122    1.4603    3.1284 H   0  0  0  0  0  0  0  0  0  0  0  0
   -0.5287    0.7590    3.8954 H   0  0  0  0  0  0  0  0  0  0  0  0
    0.9439   -0.2178    3.7238 H   0  0  0  0  0  0  0  0  0  0  0  0
  1  2  1  0  0  0  0
  2  3  1  0  0  0  0
  2  4  1  0  0  0  0
  2  5  1  0  0  0  0
  5  6  2  0  0  0  0
  5  7  1  0  0  0  0
  7  8  1  0  0  0  0
  7  9  1  0  0  0  0
  9 10  1  0  0  0  0
  9 11  1  0  0  0  0
  9 21  1  0  0  0  0
 11 12  1  0  0  0  0
 11 13  1  0  0  0  0
 11 14  1  0  0  0  0
 14 15  1  0  0  0  0
 14 16  1  0  0  0  0
 14 17  1  0  0  0  0
 17 18  2  0  0  0  0
 17 19  1  0  0  0  0
 19 20  1  0  0  0  0
 21 22  2  0  0  0  0
 21 23  1  0  0  0  0
 23 24  1  0  0  0  0
 23 25  1  0  0  0  0
 25 26  1  0  0  0  0
 25 27  1  0  0  0  0
 25 28  1  0  0  0  0
M  END
$$$$

  -OEChem-03222214033D

 28 27  0     1  0  0  0  0  0999 V2000
   -2.5128   -4.3263    0.4155 H   0  0  0  0  0  0  0  0  0  0  0  0
   -2.5274   -3.3875   -0.1458 C   0  0  0  0  0  0  0  0  0  0  0  0
   -3.3925   -2.8015    0.1735 H   0  0  0  0  0  0  0  0  0  0  0  0
   -2.6217   -3.6166   -1.2099 H   0  0  0  0  0  0  0  0  0  0  0  0
   -1.2496   -2.6094    0.1062 C   0  0  0  0  0  0  0  0  0  0  0  0
   -0.3793   -3.0860    0.8106 O   0  0  0  0  0  0  0  0  0  0  0  0
   -1.0806   -1.3658   -0.4723 N   0  0  0  0  0  0  0  0  0  0  0  0
   -1.7763   -1.1005   -1.1614 H   0  0  0  0  0  0  0  0  0  0  0  0
    0.1852   -0.6020   -0.4335 C   0  0  1  0  0  0  0  0  0  0  0  0
    0.9689   -1.2334   -0.8687 H   0  0  0  0  0  0  0  0  0  0  0  0
    0.1278    0.7176   -1.2550 C   0  0  0  0  0  0  0  0  0  0  0  0
    0.6490    1.5033   -0.6934 H   0  0  0  0  0  0  0  0  0  0  0  0
    0.7129    0.5695   -2.1689 H   0  0  0  0  0  0  0  0  0  0  0  0
   -1.2706    1.2377   -1.6778 C   0  0  0  0  0  0  0  0  0  0  0  0
   -1.4490    1.0184   -2.7345 H   0  0  0  0  0  0  0  0  0  0  0  0
   -2.0725    0.7796   -1.0981 H   0  0  0  0  0  0  0  0  0  0  0  0
   -1.3937    2.7365   -1.4336 C   0  0  0  0  0  0  0  0  0  0  0  0
   -1.1519    3.4962   -2.3523 O   0  0  0  0  0  0  0  0  0  0  0  0
   -1.7688    3.1485   -0.2037 O   0  0  0  0  0  0  0  0  0  0  0  0
   -1.7672    4.1175   -0.2522 H   0  0  0  0  0  0  0  0  0  0  0  0
    0.6609   -0.2701    1.0023 C   0  0  0  0  0  0  0  0  0  0  0  0
    1.8591   -0.1932    1.2390 O   0  0  0  0  0  0  0  0  0  0  0  0
   -0.2397    0.2028    1.9394 N   0  0  0  0  0  0  0  0  0  0  0  0
   -1.2241    0.0949    1.7193 H   0  0  0  0  0  0  0  0  0  0  0  0
    0.1464    0.5873    3.2910 C   0  0  0  0  0  0  0  0  0  0  0  0
    0.8853    1.3952    3.2640 H   0  0  0  0  0  0  0  0  0  0  0  0
   -0.7270    0.9386    3.8484 H   0  0  0  0  0  0  0  0  0  0  0  0
    0.5779   -0.2673    3.8227 H   0  0  0  0  0  0  0  0  0  0  0  0
  1  2  1  0  0  0  0
  2  3  1  0  0  0  0
  2  4  1  0  0  0  0
  2  5  1  0  0  0  0
  5  6  2  0  0  0  0
  5  7  1  0  0  0  0
  7  8  1  0  0  0  0
  7  9  1  0  0  0  0
  9 10  1  0  0  0  0
  9 11  1  0  0  0  0
  9 21  1  0  0  0  0
 11 12  1  0  0  0  0
 11 13  1  0  0  0  0
 11 14  1  0  0  0  0
 14 15  1  0  0  0  0
 14 16  1  0  0  0  0
 14 17  1  0  0  0  0
 17 18  2  0  0  0  0
 17 19  1  0  0  0  0
 19 20  1  0  0  0  0
 21 22  2  0  0  0  0
 21 23  1  0  0  0  0
 23 24  1  0  0  0  0
 23 25  1  0  0  0  0
 25 26  1  0  0  0  0
 25 27  1  0  0  0  0
 25 28  1  0  0  0  0
M  END
$$$$

  -OEChem-03222214033D

 28 27  0     1  0  0  0  0  0999 V2000
   -2.5339   -4.2972    0.4162 H   0  0  0  0  0  0  0  0  0  0  0  0
   -2.5448   -3.3502   -0.1313 C   0  0  0  0  0  0  0  0  0  0  0  0
   -3.3986   -2.7586    0.2078 H   0  0  0  0  0  0  0  0  0  0  0  0
   -2.6551   -3.5627   -1.1974 H   0  0  0  0  0  0  0  0  0  0  0  0
   -1.2549   -2.5910    0.1150 C   0  0  0  0  0  0  0  0  0  0  0  0
   -0.3883   -3.0793    0.8159 O   0  0  0  0  0  0  0  0  0  0  0  0
   -1.0750   -1.3468   -0.4580 N   0  0  0  0  0  0  0  0  0  0  0  0
   -1.7780   -1.0640   -1.1328 H   0  0  0  0  0  0  0  0  0  0  0  0
    0.2018   -0.6004   -0.4332 C   0  0  1  0  0  0  0  0  0  0  0  0
    0.9709   -1.2386   -0.8839 H   0  0  0  0  0  0  0  0  0  0  0  0
    0.1369    0.7158   -1.2569 C   0  0  0  0  0  0  0  0  0  0  0  0
    0.6510    1.5053   -0.6948 H   0  0  0  0  0  0  0  0  0  0  0  0
    0.7109    0.5788   -2.1798 H   0  0  0  0  0  0  0  0  0  0  0  0
   -1.2765    1.2150   -1.6423 C   0  0  0  0  0  0  0  0  0  0  0  0
   -1.5992    0.7614   -2.5830 H   0  0  0  0  0  0  0  0  0  0  0  0
   -1.9981    0.9497   -0.8662 H   0  0  0  0  0  0  0  0  0  0  0  0
   -1.3293    2.7348   -1.7630 C   0  0  0  0  0  0  0  0  0  0  0  0
   -0.5608    3.2855   -2.5292 O   0  0  0  0  0  0  0  0  0  0  0  0
   -2.2330    3.3996   -1.0119 O   0  0  0  0  0  0  0  0  0  0  0  0
   -2.0946    4.3360   -1.2254 H   0  0  0  0  0  0  0  0  0  0  0  0
    0.7053   -0.2820    0.9956 C   0  0  0  0  0  0  0  0  0  0  0  0
    1.9077   -0.2142    1.2119 O   0  0  0  0  0  0  0  0  0  0  0  0
   -0.1758    0.1981    1.9476 N   0  0  0  0  0  0  0  0  0  0  0  0
   -1.1612    0.0440    1.7630 H   0  0  0  0  0  0  0  0  0  0  0  0
    0.2390    0.5463    3.3006 C   0  0  0  0  0  0  0  0  0  0  0  0
    0.9980    1.3356    3.2778 H   0  0  0  0  0  0  0  0  0  0  0  0
   -0.6168    0.9093    3.8775 H   0  0  0  0  0  0  0  0  0  0  0  0
    0.6562   -0.3292    3.8096 H   0  0  0  0  0  0  0  0  0  0  0  0
  1  2  1  0  0  0  0
  2  3  1  0  0  0  0
  2  4  1  0  0  0  0
  2  5  1  0  0  0  0
  5  6  2  0  0  0  0
  5  7  1  0  0  0  0
  7  8  1  0  0  0  0
  7  9  1  0  0  0  0
  9 10  1  0  0  0  0
  9 11  1  0  0  0  0
  9 21  1  0  0  0  0
 11 12  1  0  0  0  0
 11 13  1  0  0  0  0
 11 14  1  0  0  0  0
 14 15  1  0  0  0  0
 14 16  1  0  0  0  0
 14 17  1  0  0  0  0
 17 18  2  0  0  0  0
 17 19  1  0  0  0  0
 19 20  1  0  0  0  0
 21 22  2  0  0  0  0
 21 23  1  0  0  0  0
 23 24  1  0  0  0  0
 23 25  1  0  0  0  0
 25 26  1  0  0  0  0
 25 27  1  0  0  0  0
 25 28  1  0  0  0  0
M  END
$$$$

  -OEChem-03222214033D

 28 27  0     1  0  0  0  0  0999 V2000
   -2.5512   -4.2775    0.4301 H   0  0  0  0  0  0  0  0  0  0  0  0
   -2.5586   -3.3315   -0.1191 C   0  0  0  0  0  0  0  0  0  0  0  0
   -3.4061   -2.7334    0.2241 H   0  0  0  0  0  0  0  0  0  0  0  0
   -2.6780   -3.5453   -1.1840 H   0  0  0  0  0  0  0  0  0  0  0  0
   -1.2615   -2.5815    0.1183 C   0  0  0  0  0  0  0  0  0  0  0  0
   -0.3944   -3.0761    0.8141 O   0  0  0  0  0  0  0  0  0  0  0  0
   -1.0766   -1.3361   -0.4509 N   0  0  0  0  0  0  0  0  0  0  0  0
   -1.7846   -1.0428   -1.1156 H   0  0  0  0  0  0  0  0  0  0  0  0
    0.2069   -0.6004   -0.4332 C   0  0  1  0  0  0  0  0  0  0  0  0
    0.9669   -1.2419   -0.8940 H   0  0  0  0  0  0  0  0  0  0  0  0
    0.1419    0.7176   -1.2511 C   0  0  0  0  0  0  0  0  0  0  0  0
    0.6617    1.5100   -0.6985 H   0  0  0  0  0  0  0  0  0  0  0  0
    0.7008    0.5734   -2.1824 H   0  0  0  0  0  0  0  0  0  0  0  0
   -1.2784    1.2090   -1.6122 C   0  0  0  0  0  0  0  0  0  0  0  0
   -1.7105    0.5814   -2.3954 H   0  0  0  0  0  0  0  0  0  0  0  0
   -1.9192    1.1515   -0.7279 H   0  0  0  0  0  0  0  0  0  0  0  0
   -1.2986    2.6608   -2.0853 C   0  0  0  0  0  0  0  0  0  0  0  0
   -0.3819    3.0785   -2.7688 O   0  0  0  0  0  0  0  0  0  0  0  0
   -2.3585    3.4155   -1.7273 O   0  0  0  0  0  0  0  0  0  0  0  0
   -2.1852    4.2884   -2.1141 H   0  0  0  0  0  0  0  0  0  0  0  0
    0.7266   -0.2917    0.9917 C   0  0  0  0  0  0  0  0  0  0  0  0
    1.9315   -0.2312    1.1962 O   0  0  0  0  0  0  0  0  0  0  0  0
   -0.1424    0.1919    1.9532 N   0  0  0  0  0  0  0  0  0  0  0  0
   -1.1284    0.0250    1.7843 H   0  0  0  0  0  0  0  0  0  0  0  0
    0.2890    0.5249    3.3049 C   0  0  0  0  0  0  0  0  0  0  0  0
    1.0523    1.3098    3.2814 H   0  0  0  0  0  0  0  0  0  0  0  0
   -0.5584    0.8872    3.8945 H   0  0  0  0  0  0  0  0  0  0  0  0
    0.7066   -0.3576    3.8009 H   0  0  0  0  0  0  0  0  0  0  0  0
  1  2  1  0  0  0  0
  2  3  1  0  0  0  0
  2  4  1  0  0  0  0
  2  5  1  0  0  0  0
  5  6  2  0  0  0  0
  5  7  1  0  0  0  0
  7  8  1  0  0  0  0
  7  9  1  0  0  0  0
  9 10  1  0  0  0  0
  9 11  1  0  0  0  0
  9 21  1  0  0  0  0
 11 12  1  0  0  0  0
 11 13  1  0  0  0  0
 11 14  1  0  0  0  0
 14 15  1  0  0  0  0
 14 16  1  0  0  0  0
 14 17  1  0  0  0  0
 17 18  2  0  0  0  0
 17 19  1  0  0  0  0
 19 20  1  0  0  0  0
 21 22  2  0  0  0  0
 21 23  1  0  0  0  0
 23 24  1  0  0  0  0
 23 25  1  0  0  0  0
 25 26  1  0  0  0  0
 25 27  1  0  0  0  0
 25 28  1  0  0  0  0
M  END
$$$$

  -OEChem-03222214033D

 28 27  0     1  0  0  0  0  0999 V2000
   -2.5708   -4.2616    0.4270 H   0  0  0  0  0  0  0  0  0  0  0  0
   -2.5632   -3.3238   -0.1360 C   0  0  0  0  0  0  0  0  0  0  0  0
   -3.4217   -2.7227    0.1727 H   0  0  0  0  0  0  0  0  0  0  0  0
   -2.6497   -3.5532   -1.2007 H   0  0  0  0  0  0  0  0  0  0  0  0
   -1.2750   -2.5673    0.1287 C   0  0  0  0  0  0  0  0  0  0  0  0
   -0.4239   -3.0539    0.8496 O   0  0  0  0  0  0  0  0  0  0  0  0
   -1.0826   -1.3246   -0.4438 N   0  0  0  0  0  0  0  0  0  0  0  0
   -1.7674   -1.0549   -1.1421 H   0  0  0  0  0  0  0  0  0  0  0  0
    0.2081   -0.6026   -0.4331 C   0  0  1  0  0  0  0  0  0  0  0  0
    0.9631   -1.2438   -0.9027 H   0  0  0  0  0  0  0  0  0  0  0  0
    0.1373    0.7196   -1.2374 C   0  0  0  0  0  0  0  0  0  0  0  0
    0.8866    1.4243   -0.8567 H   0  0  0  0  0  0  0  0  0  0  0  0
    0.4197    0.4903   -2.2709 H   0  0  0  0  0  0  0  0  0  0  0  0
   -1.2491    1.4061   -1.2608 C   0  0  0  0  0  0  0  0  0  0  0  0
   -1.9980    0.7470   -1.7035 H   0  0  0  0  0  0  0  0  0  0  0  0
   -1.5547    1.6324   -0.2357 H   0  0  0  0  0  0  0  0  0  0  0  0
   -1.2726    2.7064   -2.0636 C   0  0  0  0  0  0  0  0  0  0  0  0
   -0.4379    2.9016   -2.9283 O   0  0  0  0  0  0  0  0  0  0  0  0
   -2.2582    3.5824   -1.7780 O   0  0  0  0  0  0  0  0  0  0  0  0
   -2.1068    4.3327   -2.3740 H   0  0  0  0  0  0  0  0  0  0  0  0
    0.7389   -0.2971    0.9885 C   0  0  0  0  0  0  0  0  0  0  0  0
    1.9458   -0.2460    1.1835 O   0  0  0  0  0  0  0  0  0  0  0  0
   -0.1172    0.1969    1.9566 N   0  0  0  0  0  0  0  0  0  0  0  0
   -1.1038    0.0179    1.8034 H   0  0  0  0  0  0  0  0  0  0  0  0
    0.3309    0.5156    3.3067 C   0  0  0  0  0  0  0  0  0  0  0  0
    1.1080    1.2869    3.2810 H   0  0  0  0  0  0  0  0  0  0  0  0
   -0.5049    0.8902    3.9052 H   0  0  0  0  0  0  0  0  0  0  0  0
    0.7370   -0.3766    3.7953 H   0  0  0  0  0  0  0  0  0  0  0  0
  1  2  1  0  0  0  0
  2  3  1  0  0  0  0
  2  4  1  0  0  0  0
  2  5  1  0  0  0  0
  5  6  2  0  0  0  0
  5  7  1  0  0  0  0
  7  8  1  0  0  0  0
  7  9  1  0  0  0  0
  9 10  1  0  0  0  0
  9 11  1  0  0  0  0
  9 21  1  0  0  0  0
 11 12  1  0  0  0  0
 11 13  1  0  0  0  0
 11 14  1  0  0  0  0
 14 15  1  0  0  0  0
 14 16  1  0  0  0  0
 14 17  1  0  0  0  0
 17 18  2  0  0  0  0
 17 19  1  0  0  0  0
 19 20  1  0  0  0  0
 21 22  2  0  0  0  0
 21 23  1  0  0  0  0
 23 24  1  0  0  0  0
 23 25  1  0  0  0  0
 25 26  1  0  0  0  0
 25 27  1  0  0  0  0
 25 28  1  0  0  0  0
M  END
$$$$

  -OEChem-03222214033D

 28 27  0     1  0  0  0  0  0999 V2000
   -2.5492   -4.2953    0.3690 H   0  0  0  0  0  0  0  0  0  0  0  0
   -2.5872   -3.3101   -0.1049 C   0  0  0  0  0  0  0  0  0  0  0  0
   -3.4278   -2.7512    0.3136 H   0  0  0  0  0  0  0  0  0  0  0  0
   -2.7435   -3.4437   -1.1781 H   0  0  0  0  0  0  0  0  0  0  0  0
   -1.2905   -2.5625    0.1428 C   0  0  0  0  0  0  0  0  0  0  0  0
   -0.4304   -3.0591    0.8457 O   0  0  0  0  0  0  0  0  0  0  0  0
   -1.1005   -1.3177   -0.4262 N   0  0  0  0  0  0  0  0  0  0  0  0
   -1.7960   -1.0412   -1.1112 H   0  0  0  0  0  0  0  0  0  0  0  0
    0.1948   -0.6040   -0.4358 C   0  0  1  0  0  0  0  0  0  0  0  0
    0.9364   -1.2491   -0.9211 H   0  0  0  0  0  0  0  0  0  0  0  0
    0.1315    0.7292   -1.2243 C   0  0  0  0  0  0  0  0  0  0  0  0
    0.9080    1.4163   -0.8662 H   0  0  0  0  0  0  0  0  0  0  0  0
    0.3850    0.4861   -2.2621 H   0  0  0  0  0  0  0  0  0  0  0  0
   -1.2370    1.4572   -1.2322 C   0  0  0  0  0  0  0  0  0  0  0  0
   -2.0490    0.7593   -1.4367 H   0  0  0  0  0  0  0  0  0  0  0  0
   -1.4156    1.9019   -0.2498 H   0  0  0  0  0  0  0  0  0  0  0  0
   -1.3514    2.5519   -2.2939 C   0  0  0  0  0  0  0  0  0  0  0  0
   -0.3682    2.9102   -2.9164 O   0  0  0  0  0  0  0  0  0  0  0  0
   -2.5801    3.0722   -2.4944 O   0  0  0  0  0  0  0  0  0  0  0  0
   -2.4567    3.7443   -3.1834 H   0  0  0  0  0  0  0  0  0  0  0  0
    0.7499   -0.3126    0.9792 C   0  0  0  0  0  0  0  0  0  0  0  0
    1.9598   -0.2786    1.1589 O   0  0  0  0  0  0  0  0  0  0  0  0
   -0.0887    0.1798    1.9633 N   0  0  0  0  0  0  0  0  0  0  0  0
   -1.0790    0.0137    1.8191 H   0  0  0  0  0  0  0  0  0  0  0  0
    0.3791    0.4727    3.3125 C   0  0  0  0  0  0  0  0  0  0  0  0
    1.1738    1.2259    3.2887 H   0  0  0  0  0  0  0  0  0  0  0  0
   -0.4422    0.8597    3.9230 H   0  0  0  0  0  0  0  0  0  0  0  0
    0.7684   -0.4347    3.7865 H   0  0  0  0  0  0  0  0  0  0  0  0
  1  2  1  0  0  0  0
  2  3  1  0  0  0  0
  2  4  1  0  0  0  0
  2  5  1  0  0  0  0
  5  6  2  0  0  0  0
  5  7  1  0  0  0  0
  7  8  1  0  0  0  0
  7  9  1  0  0  0  0
  9 10  1  0  0  0  0
  9 11  1  0  0  0  0
  9 21  1  0  0  0  0
 11 12  1  0  0  0  0
 11 13  1  0  0  0  0
 11 14  1  0  0  0  0
 14 15  1  0  0  0  0
 14 16  1  0  0  0  0
 14 17  1  0  0  0  0
 17 18  2  0  0  0  0
 17 19  1  0  0  0  0
 19 20  1  0  0  0  0
 21 22  2  0  0  0  0
 21 23  1  0  0  0  0
 23 24  1  0  0  0  0
 23 25  1  0  0  0  0
 25 26  1  0  0  0  0
 25 27  1  0  0  0  0
 25 28  1  0  0  0  0
M  END
$$$$

  -OEChem-03222214033D

 28 27  0     1  0  0  0  0  0999 V2000
   -2.6299   -4.2238    0.4795 H   0  0  0  0  0  0  0  0  0  0  0  0
   -2.6234   -3.2872   -0.0859 C   0  0  0  0  0  0  0  0  0  0  0  0
   -3.4642   -2.6723    0.2444 H   0  0  0  0  0  0  0  0  0  0  0  0
   -2.7427   -3.5172   -1.1475 H   0  0  0  0  0  0  0  0  0  0  0  0
   -1.3172   -2.5500    0.1420 C   0  0  0  0  0  0  0  0  0  0  0  0
   -0.4438   -3.0607    0.8181 O   0  0  0  0  0  0  0  0  0  0  0  0
   -1.1335   -1.2986   -0.4145 N   0  0  0  0  0  0  0  0  0  0  0  0
   -1.8390   -1.0146   -1.0869 H   0  0  0  0  0  0  0  0  0  0  0  0
    0.1655   -0.5928   -0.4468 C   0  0  1  0  0  0  0  0  0  0  0  0
    0.8907   -1.2351   -0.9602 H   0  0  0  0  0  0  0  0  0  0  0  0
    0.0960    0.7569   -1.2082 C   0  0  0  0  0  0  0  0  0  0  0  0
    0.8954    1.4271   -0.8694 H   0  0  0  0  0  0  0  0  0  0  0  0
    0.3181    0.5206   -2.2547 H   0  0  0  0  0  0  0  0  0  0  0  0
   -1.2560    1.5172   -1.1800 C   0  0  0  0  0  0  0  0  0  0  0  0
   -2.1058    0.8390   -1.1056 H   0  0  0  0  0  0  0  0  0  0  0  0
   -1.2865    2.1724   -0.3052 H   0  0  0  0  0  0  0  0  0  0  0  0
   -1.4783    2.3528   -2.4380 C   0  0  0  0  0  0  0  0  0  0  0  0
   -0.5778    3.0623   -2.8456 O   0  0  0  0  0  0  0  0  0  0  0  0
   -2.6766    2.2515   -3.0513 O   0  0  0  0  0  0  0  0  0  0  0  0
   -2.6180    2.8520   -3.8115 H   0  0  0  0  0  0  0  0  0  0  0  0
    0.7560   -0.3255    0.9586 C   0  0  0  0  0  0  0  0  0  0  0  0
    1.9703   -0.3014    1.1091 O   0  0  0  0  0  0  0  0  0  0  0  0
   -0.0553    0.1574    1.9697 N   0  0  0  0  0  0  0  0  0  0  0  0
   -1.0503    0.0046    1.8451 H   0  0  0  0  0  0  0  0  0  0  0  0
    0.4460    0.4259    3.3119 C   0  0  0  0  0  0  0  0  0  0  0  0
    1.2314    1.1888    3.2829 H   0  0  0  0  0  0  0  0  0  0  0  0
   -0.3627    0.7893    3.9530 H   0  0  0  0  0  0  0  0  0  0  0  0
    0.8584   -0.4867    3.7554 H   0  0  0  0  0  0  0  0  0  0  0  0
  1  2  1  0  0  0  0
  2  3  1  0  0  0  0
  2  4  1  0  0  0  0
  2  5  1  0  0  0  0
  5  6  2  0  0  0  0
  5  7  1  0  0  0  0
  7  8  1  0  0  0  0
  7  9  1  0  0  0  0
  9 10  1  0  0  0  0
  9 11  1  0  0  0  0
  9 21  1  0  0  0  0
 11 12  1  0  0  0  0
 11 13  1  0  0  0  0
 11 14  1  0  0  0  0
 14 15  1  0  0  0  0
 14 16  1  0  0  0  0
 14 17  1  0  0  0  0
 17 18  2  0  0  0  0
 17 19  1  0  0  0  0
 19 20  1  0  0  0  0
 21 22  2  0  0  0  0
 21 23  1  0  0  0  0
 23 24  1  0  0  0  0
 23 25  1  0  0  0  0
 25 26  1  0  0  0  0
 25 27  1  0  0  0  0
 25 28  1  0  0  0  0
M  END
$$$$

  -OEChem-03222214033D

 28 27  0     1  0  0  0  0  0999 V2000
   -2.7106   -4.1816    0.4618 H   0  0  0  0  0  0  0  0  0  0  0  0
   -2.6987   -3.2329   -0.0826 C   0  0  0  0  0  0  0  0  0  0  0  0
   -3.5303   -2.6168    0.2675 H   0  0  0  0  0  0  0  0  0  0  0  0
   -2.8280   -3.4382   -1.1481 H   0  0  0  0  0  0  0  0  0  0  0  0
   -1.3837   -2.5136    0.1513 C   0  0  0  0  0  0  0  0  0  0  0  0
   -0.5178   -3.0382    0.8266 O   0  0  0  0  0  0  0  0  0  0  0  0
   -1.1826   -1.2629   -0.4005 N   0  0  0  0  0  0  0  0  0  0  0  0
   -1.8813   -0.9724   -1.0793 H   0  0  0  0  0  0  0  0  0  0  0  0
    0.1317   -0.5879   -0.4544 C   0  0  1  0  0  0  0  0  0  0  0  0
    0.8304   -1.2416   -0.9894 H   0  0  0  0  0  0  0  0  0  0  0  0
    0.0667    0.7680   -1.2047 C   0  0  0  0  0  0  0  0  0  0  0  0
    0.8829    1.4211   -0.8729 H   0  0  0  0  0  0  0  0  0  0  0  0
    0.2716    0.5396   -2.2566 H   0  0  0  0  0  0  0  0  0  0  0  0
   -1.2701    1.5533   -1.1375 C   0  0  0  0  0  0  0  0  0  0  0  0
   -2.1005    0.9559   -0.7631 H   0  0  0  0  0  0  0  0  0  0  0  0
   -1.1525    2.3930   -0.4458 H   0  0  0  0  0  0  0  0  0  0  0  0
   -1.6731    2.0885   -2.5046 C   0  0  0  0  0  0  0  0  0  0  0  0
   -1.4047    3.2394   -2.7909 O   0  0  0  0  0  0  0  0  0  0  0  0
   -2.3153    1.2428   -3.3393 O   0  0  0  0  0  0  0  0  0  0  0  0
   -2.4751    1.7630   -4.1433 H   0  0  0  0  0  0  0  0  0  0  0  0
    0.7610   -0.3424    0.9378 C   0  0  0  0  0  0  0  0  0  0  0  0
    1.9791   -0.3376    1.0557 O   0  0  0  0  0  0  0  0  0  0  0  0
   -0.0152    0.1536    1.9695 N   0  0  0  0  0  0  0  0  0  0  0  0
   -1.0154    0.0173    1.8695 H   0  0  0  0  0  0  0  0  0  0  0  0
    0.5235    0.4089    3.2997 C   0  0  0  0  0  0  0  0  0  0  0  0
    1.3253    1.1535    3.2531 H   0  0  0  0  0  0  0  0  0  0  0  0
   -0.2616    0.7902    3.9594 H   0  0  0  0  0  0  0  0  0  0  0  0
    0.9249   -0.5135    3.7326 H   0  0  0  0  0  0  0  0  0  0  0  0
  1  2  1  0  0  0  0
  2  3  1  0  0  0  0
  2  4  1  0  0  0  0
  2  5  1  0  0  0  0
  5  6  2  0  0  0  0
  5  7  1  0  0  0  0
  7  8  1  0  0  0  0
  7  9  1  0  0  0  0
  9 10  1  0  0  0  0
  9 11  1  0  0  0  0
  9 21  1  0  0  0  0
 11 12  1  0  0  0  0
 11 13  1  0  0  0  0
 11 14  1  0  0  0  0
 14 15  1  0  0  0  0
 14 16  1  0  0  0  0
 14 17  1  0  0  0  0
 17 18  2  0  0  0  0
 17 19  1  0  0  0  0
 19 20  1  0  0  0  0
 21 22  2  0  0  0  0
 21 23  1  0  0  0  0
 23 24  1  0  0  0  0
 23 25  1  0  0  0  0
 25 26  1  0  0  0  0
 25 27  1  0  0  0  0
 25 28  1  0  0  0  0
M  END
$$$$

  -OEChem-03222214033D

 28 27  0     1  0  0  0  0  0999 V2000
   -2.7820   -4.1093    0.4585 H   0  0  0  0  0  0  0  0  0  0  0  0
   -2.7322   -3.1751   -0.1083 C   0  0  0  0  0  0  0  0  0  0  0  0
   -3.5560   -2.5294    0.2055 H   0  0  0  0  0  0  0  0  0  0  0  0
   -2.8400   -3.4026   -1.1717 H   0  0  0  0  0  0  0  0  0  0  0  0
   -1.4050   -2.4842    0.1415 C   0  0  0  0  0  0  0  0  0  0  0  0
   -0.5623   -3.0212    0.8365 O   0  0  0  0  0  0  0  0  0  0  0  0
   -1.1673   -1.2428   -0.4146 N   0  0  0  0  0  0  0  0  0  0  0  0
   -1.8460   -0.9417   -1.1115 H   0  0  0  0  0  0  0  0  0  0  0  0
    0.1598   -0.5920   -0.4463 C   0  0  1  0  0  0  0  0  0  0  0  0
    0.8587   -1.2575   -0.9661 H   0  0  0  0  0  0  0  0  0  0  0  0
    0.1077    0.7526   -1.2138 C   0  0  0  0  0  0  0  0  0  0  0  0
    0.9083    1.4093   -0.8531 H   0  0  0  0  0  0  0  0  0  0  0  0
    0.3459    0.5362   -2.2612 H   0  0  0  0  0  0  0  0  0  0  0  0
   -1.2376    1.5233   -1.1581 C   0  0  0  0  0  0  0  0  0  0  0  0
   -1.9804    1.0516   -0.5140 H   0  0  0  0  0  0  0  0  0  0  0  0
   -1.0495    2.5120   -0.7284 H   0  0  0  0  0  0  0  0  0  0  0  0
   -1.8283    1.7184   -2.5461 C   0  0  0  0  0  0  0  0  0  0  0  0
   -1.7090    2.7928   -3.1025 O   0  0  0  0  0  0  0  0  0  0  0  0
   -2.4654    0.6593   -3.0936 O   0  0  0  0  0  0  0  0  0  0  0  0
   -2.7584    0.9730   -3.9649 H   0  0  0  0  0  0  0  0  0  0  0  0
    0.7677   -0.3451    0.9550 C   0  0  0  0  0  0  0  0  0  0  0  0
    1.9836   -0.3581    1.0944 O   0  0  0  0  0  0  0  0  0  0  0  0
   -0.0184    0.1741    1.9680 N   0  0  0  0  0  0  0  0  0  0  0  0
   -1.0185    0.0476    1.8534 H   0  0  0  0  0  0  0  0  0  0  0  0
    0.5009    0.4260    3.3066 C   0  0  0  0  0  0  0  0  0  0  0  0
    1.3213    1.1505    3.2709 H   0  0  0  0  0  0  0  0  0  0  0  0
   -0.2870    0.8311    3.9486 H   0  0  0  0  0  0  0  0  0  0  0  0
    0.8710   -0.5028    3.7535 H   0  0  0  0  0  0  0  0  0  0  0  0
  1  2  1  0  0  0  0
  2  3  1  0  0  0  0
  2  4  1  0  0  0  0
  2  5  1  0  0  0  0
  5  6  2  0  0  0  0
  5  7  1  0  0  0  0
  7  8  1  0  0  0  0
  7  9  1  0  0  0  0
  9 10  1  0  0  0  0
  9 11  1  0  0  0  0
  9 21  1  0  0  0  0
 11 12  1  0  0  0  0
 11 13  1  0  0  0  0
 11 14  1  0  0  0  0
 14 15  1  0  0  0  0
 14 16  1  0  0  0  0
 14 17  1  0  0  0  0
 17 18  2  0  0  0  0
 17 19  1  0  0  0  0
 19 20  1  0  0  0  0
 21 22  2  0  0  0  0
 21 23  1  0  0  0  0
 23 24  1  0  0  0  0
 23 25  1  0  0  0  0
 25 26  1  0  0  0  0
 25 27  1  0  0  0  0
 25 28  1  0  0  0  0
M  END
$$$$

  -OEChem-03222214033D

 28 27  0     1  0  0  0  0  0999 V2000
   -2.4777   -4.3345    0.3649 H   0  0  0  0  0  0  0  0  0  0  0  0
   -2.5104   -3.3722   -0.1536 C   0  0  0  0  0  0  0  0  0  0  0  0
   -3.3870   -2.8169    0.1881 H   0  0  0  0  0  0  0  0  0  0  0  0
   -2.5989   -3.5540   -1.2275 H   0  0  0  0  0  0  0  0  0  0  0  0
   -1.2493   -2.5804    0.1351 C   0  0  0  0  0  0  0  0  0  0  0  0
   -0.3845   -3.0519    0.8512 O   0  0  0  0  0  0  0  0  0  0  0  0
   -1.0967   -1.3219   -0.4101 N   0  0  0  0  0  0  0  0  0  0  0  0
   -1.7888   -1.0710   -1.1197 H   0  0  0  0  0  0  0  0  0  0  0  0
    0.1804   -0.5767   -0.4335 C   0  0  1  0  0  0  0  0  0  0  0  0
    0.9262   -1.1842   -0.9587 H   0  0  0  0  0  0  0  0  0  0  0  0
    0.0159    0.7611   -1.1966 C   0  0  0  0  0  0  0  0  0  0  0  0
    0.7479    1.4814   -0.8129 H   0  0  0  0  0  0  0  0  0  0  0  0
    0.2757    0.5930   -2.2478 H   0  0  0  0  0  0  0  0  0  0  0  0
   -1.3961    1.3910   -1.1164 C   0  0  0  0  0  0  0  0  0  0  0  0
   -1.9756    1.0191   -0.2683 H   0  0  0  0  0  0  0  0  0  0  0  0
   -1.2808    2.4672   -0.9601 H   0  0  0  0  0  0  0  0  0  0  0  0
   -2.1695    1.2060   -2.4125 C   0  0  0  0  0  0  0  0  0  0  0  0
   -2.6328    0.0969   -2.6221 O   0  0  0  0  0  0  0  0  0  0  0  0
   -2.2956    2.2457   -3.2634 O   0  0  0  0  0  0  0  0  0  0  0  0
   -2.8059    1.9071   -4.0152 H   0  0  0  0  0  0  0  0  0  0  0  0
    0.7690   -0.2945    0.9687 C   0  0  0  0  0  0  0  0  0  0  0  0
    1.9818   -0.1980    1.1031 O   0  0  0  0  0  0  0  0  0  0  0  0
   -0.0557    0.1605    1.9816 N   0  0  0  0  0  0  0  0  0  0  0  0
   -1.0389   -0.0673    1.8744 H   0  0  0  0  0  0  0  0  0  0  0  0
    0.4443    0.4685    3.3157 C   0  0  0  0  0  0  0  0  0  0  0  0
    1.2093    1.2507    3.2684 H   0  0  0  0  0  0  0  0  0  0  0  0
   -0.3709    0.8242    3.9529 H   0  0  0  0  0  0  0  0  0  0  0  0
    0.8820   -0.4240    3.7749 H   0  0  0  0  0  0  0  0  0  0  0  0
  1  2  1  0  0  0  0
  2  3  1  0  0  0  0
  2  4  1  0  0  0  0
  2  5  1  0  0  0  0
  5  6  2  0  0  0  0
  5  7  1  0  0  0  0
  7  8  1  0  0  0  0
  7  9  1  0  0  0  0
  9 10  1  0  0  0  0
  9 11  1  0  0  0  0
  9 21  1  0  0  0  0
 11 12  1  0  0  0  0
 11 13  1  0  0  0  0
 11 14  1  0  0  0  0
 14 15  1  0  0  0  0
 14 16  1  0  0  0  0
 14 17  1  0  0  0  0
 17 18  2  0  0  0  0
 17 19  1  0  0  0  0
 19 20  1  0  0  0  0
 21 22  2  0  0  0  0
 21 23  1  0  0  0  0
 23 24  1  0  0  0  0
 23 25  1  0  0  0  0
 25 26  1  0  0  0  0
 25 27  1  0  0  0  0
 25 28  1  0  0  0  0
M  END
$$$$

  -OEChem-03222214033D

 28 27  0     1  0  0  0  0  0999 V2000
   -2.4627   -4.3236    0.4506 H   0  0  0  0  0  0  0  0  0  0  0  0
   -2.5040   -3.3721   -0.0868 C   0  0  0  0  0  0  0  0  0  0  0  0
   -3.3471   -2.7894    0.2920 H   0  0  0  0  0  0  0  0  0  0  0  0
   -2.6592   -3.5734   -1.1496 H   0  0  0  0  0  0  0  0  0  0  0  0
   -1.2112   -2.6037    0.1093 C   0  0  0  0  0  0  0  0  0  0  0  0
   -0.2883   -3.1066    0.7246 O   0  0  0  0  0  0  0  0  0  0  0  0
   -1.0931   -1.3297   -0.4063 N   0  0  0  0  0  0  0  0  0  0  0  0
   -1.8686   -1.0217   -0.9957 H   0  0  0  0  0  0  0  0  0  0  0  0
    0.1616   -0.5513   -0.4439 C   0  0  1  0  0  0  0  0  0  0  0  0
    0.9087   -1.1419   -0.9863 H   0  0  0  0  0  0  0  0  0  0  0  0
   -0.0087    0.7987   -1.1891 C   0  0  0  0  0  0  0  0  0  0  0  0
    0.7216    1.5134   -0.7920 H   0  0  0  0  0  0  0  0  0  0  0  0
    0.2509    0.6492   -2.2430 H   0  0  0  0  0  0  0  0  0  0  0  0
   -1.4140    1.4379   -1.1129 C   0  0  0  0  0  0  0  0  0  0  0  0
   -1.8839    1.2346   -0.1469 H   0  0  0  0  0  0  0  0  0  0  0  0
   -1.3072    2.5233   -1.1934 H   0  0  0  0  0  0  0  0  0  0  0  0
   -2.3278    0.9889   -2.2486 C   0  0  0  0  0  0  0  0  0  0  0  0
   -3.0173   -0.0021   -2.0739 O   0  0  0  0  0  0  0  0  0  0  0  0
   -2.3140    1.6941   -3.3992 O   0  0  0  0  0  0  0  0  0  0  0  0
   -2.9463    1.2520   -3.9867 H   0  0  0  0  0  0  0  0  0  0  0  0
    0.7678   -0.2926    0.9555 C   0  0  0  0  0  0  0  0  0  0  0  0
    1.9801   -0.1696    1.0733 O   0  0  0  0  0  0  0  0  0  0  0  0
   -0.0489    0.1126    1.9958 N   0  0  0  0  0  0  0  0  0  0  0  0
   -1.0304   -0.1264    1.8975 H   0  0  0  0  0  0  0  0  0  0  0  0
    0.4685    0.3940    3.3293 C   0  0  0  0  0  0  0  0  0  0  0  0
    1.1891    1.2179    3.2949 H   0  0  0  0  0  0  0  0  0  0  0  0
   -0.3473    0.6786    4.0003 H   0  0  0  0  0  0  0  0  0  0  0  0
    0.9655   -0.4908    3.7413 H   0  0  0  0  0  0  0  0  0  0  0  0
  1  2  1  0  0  0  0
  2  3  1  0  0  0  0
  2  4  1  0  0  0  0
  2  5  1  0  0  0  0
  5  6  2  0  0  0  0
  5  7  1  0  0  0  0
  7  8  1  0  0  0  0
  7  9  1  0  0  0  0
  9 10  1  0  0  0  0
  9 11  1  0  0  0  0
  9 21  1  0  0  0  0
 11 12  1  0  0  0  0
 11 13  1  0  0  0  0
 11 14  1  0  0  0  0
 14 15  1  0  0  0  0
 14 16  1  0  0  0  0
 14 17  1  0  0  0  0
 17 18  2  0  0  0  0
 17 19  1  0  0  0  0
 19 20  1  0  0  0  0
 21 22  2  0  0  0  0
 21 23  1  0  0  0  0
 23 24  1  0  0  0  0
 23 25  1  0  0  0  0
 25 26  1  0  0  0  0
 25 27  1  0  0  0  0
 25 28  1  0  0  0  0
M  END
$$$$

  -OEChem-03222214033D

 28 27  0     1  0  0  0  0  0999 V2000
   -2.4565   -4.3943    0.3767 H   0  0  0  0  0  0  0  0  0  0  0  0
   -2.5000   -3.4209   -0.1203 C   0  0  0  0  0  0  0  0  0  0  0  0
   -3.4011   -2.8970    0.2073 H   0  0  0  0  0  0  0  0  0  0  0  0
   -2.5515   -3.5794   -1.2004 H   0  0  0  0  0  0  0  0  0  0  0  0
   -1.2701   -2.6032    0.2248 C   0  0  0  0  0  0  0  0  0  0  0  0
   -0.4653   -3.0299    1.0330 O   0  0  0  0  0  0  0  0  0  0  0  0
   -1.0838   -1.3744   -0.3759 N   0  0  0  0  0  0  0  0  0  0  0  0
   -1.6931   -1.2115   -1.1788 H   0  0  0  0  0  0  0  0  0  0  0  0
    0.2079   -0.6623   -0.4011 C   0  0  1  0  0  0  0  0  0  0  0  0
    0.9489   -1.3183   -0.8719 H   0  0  0  0  0  0  0  0  0  0  0  0
    0.1447    0.6583   -1.2184 C   0  0  0  0  0  0  0  0  0  0  0  0
    0.9103    1.3446   -0.8380 H   0  0  0  0  0  0  0  0  0  0  0  0
    0.4284    0.4248   -2.2502 H   0  0  0  0  0  0  0  0  0  0  0  0
   -1.2097    1.4133   -1.2611 C   0  0  0  0  0  0  0  0  0  0  0  0
   -1.5961    1.5062   -0.2431 H   0  0  0  0  0  0  0  0  0  0  0  0
   -1.0145    2.4259   -1.6242 H   0  0  0  0  0  0  0  0  0  0  0  0
   -2.3226    0.8425   -2.1443 C   0  0  0  0  0  0  0  0  0  0  0  0
   -2.1816   -0.2319   -2.7039 O   0  0  0  0  0  0  0  0  0  0  0  0
   -3.4459    1.5822   -2.2468 O   0  0  0  0  0  0  0  0  0  0  0  0
   -4.0258    1.0946   -2.8520 H   0  0  0  0  0  0  0  0  0  0  0  0
    0.7601   -0.3352    1.0072 C   0  0  0  0  0  0  0  0  0  0  0  0
    1.9704   -0.2659    1.1790 O   0  0  0  0  0  0  0  0  0  0  0  0
   -0.0849    0.1805    1.9733 N   0  0  0  0  0  0  0  0  0  0  0  0
   -1.0686   -0.0329    1.8417 H   0  0  0  0  0  0  0  0  0  0  0  0
    0.3781    0.5110    3.3152 C   0  0  0  0  0  0  0  0  0  0  0  0
    1.1630    1.2738    3.2740 H   0  0  0  0  0  0  0  0  0  0  0  0
   -0.4491    0.9011    3.9158 H   0  0  0  0  0  0  0  0  0  0  0  0
    0.7784   -0.3799    3.8107 H   0  0  0  0  0  0  0  0  0  0  0  0
  1  2  1  0  0  0  0
  2  3  1  0  0  0  0
  2  4  1  0  0  0  0
  2  5  1  0  0  0  0
  5  6  2  0  0  0  0
  5  7  1  0  0  0  0
  7  8  1  0  0  0  0
  7  9  1  0  0  0  0
  9 10  1  0  0  0  0
  9 11  1  0  0  0  0
  9 21  1  0  0  0  0
 11 12  1  0  0  0  0
 11 13  1  0  0  0  0
 11 14  1  0  0  0  0
 14 15  1  0  0  0  0
 14 16  1  0  0  0  0
 14 17  1  0  0  0  0
 17 18  2  0  0  0  0
 17 19  1  0  0  0  0
 19 20  1  0  0  0  0
 21 22  2  0  0  0  0
 21 23  1  0  0  0  0
 23 24  1  0  0  0  0
 23 25  1  0  0  0  0
 25 26  1  0  0  0  0
 25 27  1  0  0  0  0
 25 28  1  0  0  0  0
M  END
$$$$

  -OEChem-03222214033D

 28 27  0     1  0  0  0  0  0999 V2000
   -2.4335   -4.4234    0.4100 H   0  0  0  0  0  0  0  0  0  0  0  0
   -2.4778   -3.4557   -0.0979 C   0  0  0  0  0  0  0  0  0  0  0  0
   -3.3796   -2.9296    0.2232 H   0  0  0  0  0  0  0  0  0  0  0  0
   -2.5281   -3.6268   -1.1761 H   0  0  0  0  0  0  0  0  0  0  0  0
   -1.2501   -2.6315    0.2389 C   0  0  0  0  0  0  0  0  0  0  0  0
   -0.4442   -3.0479    1.0510 O   0  0  0  0  0  0  0  0  0  0  0  0
   -1.0706   -1.4066   -0.3720 N   0  0  0  0  0  0  0  0  0  0  0  0
   -1.6775   -1.2586   -1.1792 H   0  0  0  0  0  0  0  0  0  0  0  0
    0.2136   -0.6824   -0.3977 C   0  0  1  0  0  0  0  0  0  0  0  0
    0.9633   -1.3376   -0.8558 H   0  0  0  0  0  0  0  0  0  0  0  0
    0.1634    0.6397   -1.2179 C   0  0  0  0  0  0  0  0  0  0  0  0
    0.9441    1.3165   -0.8512 H   0  0  0  0  0  0  0  0  0  0  0  0
    0.4402    0.3814   -2.2457 H   0  0  0  0  0  0  0  0  0  0  0  0
   -1.1692    1.4335   -1.3018 C   0  0  0  0  0  0  0  0  0  0  0  0
   -1.4361    1.7460   -0.2887 H   0  0  0  0  0  0  0  0  0  0  0  0
   -0.9876    2.3421   -1.8818 H   0  0  0  0  0  0  0  0  0  0  0  0
   -2.4007    0.7592   -1.9083 C   0  0  0  0  0  0  0  0  0  0  0  0
   -2.2715   -0.2156   -2.6298 O   0  0  0  0  0  0  0  0  0  0  0  0
   -3.6011    1.2936   -1.6017 O   0  0  0  0  0  0  0  0  0  0  0  0
   -4.2539    0.7756   -2.0976 H   0  0  0  0  0  0  0  0  0  0  0  0
    0.7491   -0.3402    1.0138 C   0  0  0  0  0  0  0  0  0  0  0  0
    1.9572   -0.2610    1.1969 O   0  0  0  0  0  0  0  0  0  0  0  0
   -0.1086    0.1740    1.9696 N   0  0  0  0  0  0  0  0  0  0  0  0
   -1.0905   -0.0421    1.8292 H   0  0  0  0  0  0  0  0  0  0  0  0
    0.3400    0.5221    3.3121 C   0  0  0  0  0  0  0  0  0  0  0  0
    1.1162    1.2935    3.2693 H   0  0  0  0  0  0  0  0  0  0  0  0
   -0.4961    0.9088    3.9026 H   0  0  0  0  0  0  0  0  0  0  0  0
    0.7472   -0.3590    3.8193 H   0  0  0  0  0  0  0  0  0  0  0  0
  1  2  1  0  0  0  0
  2  3  1  0  0  0  0
  2  4  1  0  0  0  0
  2  5  1  0  0  0  0
  5  6  2  0  0  0  0
  5  7  1  0  0  0  0
  7  8  1  0  0  0  0
  7  9  1  0  0  0  0
  9 10  1  0  0  0  0
  9 11  1  0  0  0  0
  9 21  1  0  0  0  0
 11 12  1  0  0  0  0
 11 13  1  0  0  0  0
 11 14  1  0  0  0  0
 14 15  1  0  0  0  0
 14 16  1  0  0  0  0
 14 17  1  0  0  0  0
 17 18  2  0  0  0  0
 17 19  1  0  0  0  0
 19 20  1  0  0  0  0
 21 22  2  0  0  0  0
 21 23  1  0  0  0  0
 23 24  1  0  0  0  0
 23 25  1  0  0  0  0
 25 26  1  0  0  0  0
 25 27  1  0  0  0  0
 25 28  1  0  0  0  0
M  END
$$$$

  -OEChem-03222214033D

 28 27  0     1  0  0  0  0  0999 V2000
   -2.3662   -4.4700    0.4804 H   0  0  0  0  0  0  0  0  0  0  0  0
   -2.4356   -3.5058   -0.0313 C   0  0  0  0  0  0  0  0  0  0  0  0
   -3.3333   -2.9871    0.3132 H   0  0  0  0  0  0  0  0  0  0  0  0
   -2.5164   -3.6842   -1.1064 H   0  0  0  0  0  0  0  0  0  0  0  0
   -1.2069   -2.6673    0.2646 C   0  0  0  0  0  0  0  0  0  0  0  0
   -0.3716   -3.0729    1.0522 O   0  0  0  0  0  0  0  0  0  0  0  0
   -1.0545   -1.4459   -0.3609 N   0  0  0  0  0  0  0  0  0  0  0  0
   -1.6890   -1.3005   -1.1473 H   0  0  0  0  0  0  0  0  0  0  0  0
    0.2136   -0.6949   -0.4034 C   0  0  1  0  0  0  0  0  0  0  0  0
    0.9735   -1.3424   -0.8555 H   0  0  0  0  0  0  0  0  0  0  0  0
    0.1548    0.6251   -1.2291 C   0  0  0  0  0  0  0  0  0  0  0  0
    0.9499    1.2985   -0.8883 H   0  0  0  0  0  0  0  0  0  0  0  0
    0.4162    0.3399   -2.2538 H   0  0  0  0  0  0  0  0  0  0  0  0
   -1.1614    1.4456   -1.3450 C   0  0  0  0  0  0  0  0  0  0  0  0
   -1.2925    1.9757   -0.3972 H   0  0  0  0  0  0  0  0  0  0  0  0
   -1.0268    2.2050   -2.1195 H   0  0  0  0  0  0  0  0  0  0  0  0
   -2.4808    0.7332   -1.6326 C   0  0  0  0  0  0  0  0  0  0  0  0
   -2.5006   -0.1852   -2.4349 O   0  0  0  0  0  0  0  0  0  0  0  0
   -3.5774    1.1582   -0.9701 O   0  0  0  0  0  0  0  0  0  0  0  0
   -4.3139    0.6282   -1.3120 H   0  0  0  0  0  0  0  0  0  0  0  0
    0.7426   -0.3290    1.0046 C   0  0  0  0  0  0  0  0  0  0  0  0
    1.9487   -0.2288    1.1892 O   0  0  0  0  0  0  0  0  0  0  0  0
   -0.1261    0.1751    1.9558 N   0  0  0  0  0  0  0  0  0  0  0  0
   -1.1071   -0.0394    1.8065 H   0  0  0  0  0  0  0  0  0  0  0  0
    0.3103    0.5435    3.2968 C   0  0  0  0  0  0  0  0  0  0  0  0
    1.0723    1.3287    3.2508 H   0  0  0  0  0  0  0  0  0  0  0  0
   -0.5355    0.9196    3.8802 H   0  0  0  0  0  0  0  0  0  0  0  0
    0.7314   -0.3255    3.8134 H   0  0  0  0  0  0  0  0  0  0  0  0
  1  2  1  0  0  0  0
  2  3  1  0  0  0  0
  2  4  1  0  0  0  0
  2  5  1  0  0  0  0
  5  6  2  0  0  0  0
  5  7  1  0  0  0  0
  7  8  1  0  0  0  0
  7  9  1  0  0  0  0
  9 10  1  0  0  0  0
  9 11  1  0  0  0  0
  9 21  1  0  0  0  0
 11 12  1  0  0  0  0
 11 13  1  0  0  0  0
 11 14  1  0  0  0  0
 14 15  1  0  0  0  0
 14 16  1  0  0  0  0
 14 17  1  0  0  0  0
 17 18  2  0  0  0  0
 17 19  1  0  0  0  0
 19 20  1  0  0  0  0
 21 22  2  0  0  0  0
 21 23  1  0  0  0  0
 23 24  1  0  0  0  0
 23 25  1  0  0  0  0
 25 26  1  0  0  0  0
 25 27  1  0  0  0  0
 25 28  1  0  0  0  0
M  END
$$$$

  -OEChem-03222214033D

 28 27  0     1  0  0  0  0  0999 V2000
   -2.0907   -4.5618    0.5299 H   0  0  0  0  0  0  0  0  0  0  0  0
   -2.2188   -3.6110    0.0047 C   0  0  0  0  0  0  0  0  0  0  0  0
   -3.1342   -3.1323    0.3597 H   0  0  0  0  0  0  0  0  0  0  0  0
   -2.3121   -3.8103   -1.0657 H   0  0  0  0  0  0  0  0  0  0  0  0
   -1.0286   -2.7070    0.2618 C   0  0  0  0  0  0  0  0  0  0  0  0
   -0.1467   -3.0652    1.0209 O   0  0  0  0  0  0  0  0  0  0  0  0
   -0.9638   -1.4795   -0.3667 N   0  0  0  0  0  0  0  0  0  0  0  0
   -1.6419   -1.3526   -1.1197 H   0  0  0  0  0  0  0  0  0  0  0  0
    0.2398   -0.6293   -0.4075 C   0  0  1  0  0  0  0  0  0  0  0  0
    1.0527   -1.2148   -0.8522 H   0  0  0  0  0  0  0  0  0  0  0  0
    0.0859    0.6868   -1.2291 C   0  0  0  0  0  0  0  0  0  0  0  0
    0.8423    1.4092   -0.9000 H   0  0  0  0  0  0  0  0  0  0  0  0
    0.3613    0.4082   -2.2519 H   0  0  0  0  0  0  0  0  0  0  0  0
   -1.2752    1.4328   -1.3648 C   0  0  0  0  0  0  0  0  0  0  0  0
   -1.3231    2.1513   -0.5413 H   0  0  0  0  0  0  0  0  0  0  0  0
   -1.2629    2.0142   -2.2906 H   0  0  0  0  0  0  0  0  0  0  0  0
   -2.5872    0.6566   -1.3261 C   0  0  0  0  0  0  0  0  0  0  0  0
   -2.7728   -0.2201   -2.1534 O   0  0  0  0  0  0  0  0  0  0  0  0
   -3.4770    0.9606   -0.3567 O   0  0  0  0  0  0  0  0  0  0  0  0
   -4.2509    0.4008   -0.5245 H   0  0  0  0  0  0  0  0  0  0  0  0
    0.7236   -0.2202    1.0045 C   0  0  0  0  0  0  0  0  0  0  0  0
    1.9169   -0.0348    1.2064 O   0  0  0  0  0  0  0  0  0  0  0  0
   -0.1923    0.2140    1.9457 N   0  0  0  0  0  0  0  0  0  0  0  0
   -1.1600   -0.0384    1.7702 H   0  0  0  0  0  0  0  0  0  0  0  0
    0.1946    0.6168    3.2914 C   0  0  0  0  0  0  0  0  0  0  0  0
    0.8803    1.4697    3.2546 H   0  0  0  0  0  0  0  0  0  0  0  0
   -0.6881    0.9098    3.8673 H   0  0  0  0  0  0  0  0  0  0  0  0
    0.6895   -0.2110    3.8101 H   0  0  0  0  0  0  0  0  0  0  0  0
  1  2  1  0  0  0  0
  2  3  1  0  0  0  0
  2  4  1  0  0  0  0
  2  5  1  0  0  0  0
  5  6  2  0  0  0  0
  5  7  1  0  0  0  0
  7  8  1  0  0  0  0
  7  9  1  0  0  0  0
  9 10  1  0  0  0  0
  9 11  1  0  0  0  0
  9 21  1  0  0  0  0
 11 12  1  0  0  0  0
 11 13  1  0  0  0  0
 11 14  1  0  0  0  0
 14 15  1  0  0  0  0
 14 16  1  0  0  0  0
 14 17  1  0  0  0  0
 17 18  2  0  0  0  0
 17 19  1  0  0  0  0
 19 20  1  0  0  0  0
 21 22  2  0  0  0  0
 21 23  1  0  0  0  0
 23 24  1  0  0  0  0
 23 25  1  0  0  0  0
 25 26  1  0  0  0  0
 25 27  1  0  0  0  0
 25 28  1  0  0  0  0
M  END
$$$$

  -OEChem-03222214033D

 28 27  0     1  0  0  0  0  0999 V2000
   -2.0851   -4.5137    0.1309 H   0  0  0  0  0  0  0  0  0  0  0  0
   -2.2663   -3.4968   -0.2292 C   0  0  0  0  0  0  0  0  0  0  0  0
   -3.0606   -3.0477    0.3721 H   0  0  0  0  0  0  0  0  0  0  0  0
   -2.5881   -3.5449   -1.2723 H   0  0  0  0  0  0  0  0  0  0  0  0
   -1.0001   -2.6699   -0.1141 C   0  0  0  0  0  0  0  0  0  0  0  0
    0.0205   -3.1797    0.3106 O   0  0  0  0  0  0  0  0  0  0  0  0
   -1.0151   -1.3483   -0.5143 N   0  0  0  0  0  0  0  0  0  0  0  0
   -1.8460   -1.0489   -1.0193 H   0  0  0  0  0  0  0  0  0  0  0  0
    0.1735   -0.4763   -0.5580 C   0  0  1  0  0  0  0  0  0  0  0  0
    0.9235   -0.9377   -1.2106 H   0  0  0  0  0  0  0  0  0  0  0  0
   -0.0967    0.9762   -1.0536 C   0  0  0  0  0  0  0  0  0  0  0  0
    0.7067    1.6326   -0.6981 H   0  0  0  0  0  0  0  0  0  0  0  0
    0.0213    0.9245   -2.1411 H   0  0  0  0  0  0  0  0  0  0  0  0
   -1.4571    1.7009   -0.8204 C   0  0  0  0  0  0  0  0  0  0  0  0
   -1.2955    2.4487   -0.0378 H   0  0  0  0  0  0  0  0  0  0  0  0
   -1.7170    2.2506   -1.7291 H   0  0  0  0  0  0  0  0  0  0  0  0
   -2.6821    0.8980   -0.4008 C   0  0  0  0  0  0  0  0  0  0  0  0
   -2.9281    0.7954    0.7873 O   0  0  0  0  0  0  0  0  0  0  0  0
   -3.4049    0.2810   -1.3615 O   0  0  0  0  0  0  0  0  0  0  0  0
   -4.1759   -0.0899   -0.9018 H   0  0  0  0  0  0  0  0  0  0  0  0
    0.8194   -0.3314    0.8414 C   0  0  0  0  0  0  0  0  0  0  0  0
    2.0321   -0.1964    0.9428 O   0  0  0  0  0  0  0  0  0  0  0  0
    0.0185   -0.1008    1.9462 N   0  0  0  0  0  0  0  0  0  0  0  0
   -0.9891   -0.1542    1.8072 H   0  0  0  0  0  0  0  0  0  0  0  0
    0.5426    0.1163    3.2875 C   0  0  0  0  0  0  0  0  0  0  0  0
    1.2211    0.9756    3.3009 H   0  0  0  0  0  0  0  0  0  0  0  0
   -0.2765    0.3128    3.9857 H   0  0  0  0  0  0  0  0  0  0  0  0
    1.0875   -0.7692    3.6312 H   0  0  0  0  0  0  0  0  0  0  0  0
  1  2  1  0  0  0  0
  2  3  1  0  0  0  0
  2  4  1  0  0  0  0
  2  5  1  0  0  0  0
  5  6  2  0  0  0  0
  5  7  1  0  0  0  0
  7  8  1  0  0  0  0
  7  9  1  0  0  0  0
  9 10  1  0  0  0  0
  9 11  1  0  0  0  0
  9 21  1  0  0  0  0
 11 12  1  0  0  0  0
 11 13  1  0  0  0  0
 11 14  1  0  0  0  0
 14 15  1  0  0  0  0
 14 16  1  0  0  0  0
 14 17  1  0  0  0  0
 17 18  2  0  0  0  0
 17 19  1  0  0  0  0
 19 20  1  0  0  0  0
 21 22  2  0  0  0  0
 21 23  1  0  0  0  0
 23 24  1  0  0  0  0
 23 25  1  0  0  0  0
 25 26  1  0  0  0  0
 25 27  1  0  0  0  0
 25 28  1  0  0  0  0
M  END
$$$$

  -OEChem-03222214033D

 28 27  0     1  0  0  0  0  0999 V2000
   -2.4444   -4.4004    0.3484 H   0  0  0  0  0  0  0  0  0  0  0  0
   -2.5241   -3.3836   -0.0465 C   0  0  0  0  0  0  0  0  0  0  0  0
   -3.2811   -2.8422    0.5257 H   0  0  0  0  0  0  0  0  0  0  0  0
   -2.8339   -3.4366   -1.0928 H   0  0  0  0  0  0  0  0  0  0  0  0
   -1.1872   -2.6762    0.0642 C   0  0  0  0  0  0  0  0  0  0  0  0
   -0.2374   -3.2495    0.5656 O   0  0  0  0  0  0  0  0  0  0  0  0
   -1.0534   -1.3940   -0.4299 N   0  0  0  0  0  0  0  0  0  0  0  0
   -1.8440   -1.0309   -0.9581 H   0  0  0  0  0  0  0  0  0  0  0  0
    0.2121   -0.6362   -0.4441 C   0  0  1  0  0  0  0  0  0  0  0  0
    0.9553   -1.2244   -0.9947 H   0  0  0  0  0  0  0  0  0  0  0  0
    0.1103    0.7662   -1.1133 C   0  0  0  0  0  0  0  0  0  0  0  0
    0.9208    1.3952   -0.7261 H   0  0  0  0  0  0  0  0  0  0  0  0
    0.3415    0.6025   -2.1710 H   0  0  0  0  0  0  0  0  0  0  0  0
   -1.2022    1.6079   -1.0879 C   0  0  0  0  0  0  0  0  0  0  0  0
   -0.9752    2.5694   -0.6179 H   0  0  0  0  0  0  0  0  0  0  0  0
   -1.4899    1.8249   -2.1206 H   0  0  0  0  0  0  0  0  0  0  0  0
   -2.4352    1.0518   -0.3840 C   0  0  0  0  0  0  0  0  0  0  0  0
   -2.5294    1.1904    0.8218 O   0  0  0  0  0  0  0  0  0  0  0  0
   -3.3418    0.3751   -1.1237 O   0  0  0  0  0  0  0  0  0  0  0  0
   -4.0742    0.1847   -0.5142 H   0  0  0  0  0  0  0  0  0  0  0  0
    0.7915   -0.4250    0.9768 C   0  0  0  0  0  0  0  0  0  0  0  0
    2.0051   -0.4034    1.1375 O   0  0  0  0  0  0  0  0  0  0  0  0
   -0.0312   -0.0302    2.0166 N   0  0  0  0  0  0  0  0  0  0  0  0
   -1.0158    0.1210    1.7984 H   0  0  0  0  0  0  0  0  0  0  0  0
    0.4630    0.3319    3.3376 C   0  0  0  0  0  0  0  0  0  0  0  0
    1.1128    1.2109    3.2762 H   0  0  0  0  0  0  0  0  0  0  0  0
   -0.3738    0.5637    4.0032 H   0  0  0  0  0  0  0  0  0  0  0  0
    1.0308   -0.4974    3.7727 H   0  0  0  0  0  0  0  0  0  0  0  0
  1  2  1  0  0  0  0
  2  3  1  0  0  0  0
  2  4  1  0  0  0  0
  2  5  1  0  0  0  0
  5  6  2  0  0  0  0
  5  7  1  0  0  0  0
  7  8  1  0  0  0  0
  7  9  1  0  0  0  0
  9 10  1  0  0  0  0
  9 11  1  0  0  0  0
  9 21  1  0  0  0  0
 11 12  1  0  0  0  0
 11 13  1  0  0  0  0
 11 14  1  0  0  0  0
 14 15  1  0  0  0  0
 14 16  1  0  0  0  0
 14 17  1  0  0  0  0
 17 18  2  0  0  0  0
 17 19  1  0  0  0  0
 19 20  1  0  0  0  0
 21 22  2  0  0  0  0
 21 23  1  0  0  0  0
 23 24  1  0  0  0  0
 23 25  1  0  0  0  0
 25 26  1  0  0  0  0
 25 27  1  0  0  0  0
 25 28  1  0  0  0  0
M  END
$$$$

  -OEChem-03222214033D

 28 27  0     1  0  0  0  0  0999 V2000
   -2.2899   -4.3949    0.4832 H   0  0  0  0  0  0  0  0  0  0  0  0
   -2.4304   -3.3568    0.1687 C   0  0  0  0  0  0  0  0  0  0  0  0
   -2.9474   -2.8155    0.9648 H   0  0  0  0  0  0  0  0  0  0  0  0
   -3.0458   -3.3430   -0.7341 H   0  0  0  0  0  0  0  0  0  0  0  0
   -1.0868   -2.7106   -0.1106 C   0  0  0  0  0  0  0  0  0  0  0  0
   -0.0635   -3.3618    0.0036 O   0  0  0  0  0  0  0  0  0  0  0  0
   -1.0357   -1.3851   -0.4937 N   0  0  0  0  0  0  0  0  0  0  0  0
   -1.9048   -0.8809   -0.3475 H   0  0  0  0  0  0  0  0  0  0  0  0
    0.2066   -0.5949   -0.4167 C   0  0  1  0  0  0  0  0  0  0  0  0
    0.9661   -1.1585   -0.9720 H   0  0  0  0  0  0  0  0  0  0  0  0
    0.1150    0.7895   -1.1161 C   0  0  0  0  0  0  0  0  0  0  0  0
    0.8501    1.4435   -0.6329 H   0  0  0  0  0  0  0  0  0  0  0  0
    0.4737    0.6424   -2.1404 H   0  0  0  0  0  0  0  0  0  0  0  0
   -1.2147    1.5998   -1.2283 C   0  0  0  0  0  0  0  0  0  0  0  0
   -0.9832    2.6543   -1.0555 H   0  0  0  0  0  0  0  0  0  0  0  0
   -1.5416    1.5180   -2.2691 H   0  0  0  0  0  0  0  0  0  0  0  0
   -2.4467    1.2721   -0.3816 C   0  0  0  0  0  0  0  0  0  0  0  0
   -2.3273    0.8261    0.7455 O   0  0  0  0  0  0  0  0  0  0  0  0
   -3.6468    1.5021   -0.9538 O   0  0  0  0  0  0  0  0  0  0  0  0
   -4.3107    1.2949   -0.2778 H   0  0  0  0  0  0  0  0  0  0  0  0
    0.7996   -0.4700    1.0090 C   0  0  0  0  0  0  0  0  0  0  0  0
    2.0142   -0.4369    1.1574 O   0  0  0  0  0  0  0  0  0  0  0  0
   -0.0089   -0.1817    2.0924 N   0  0  0  0  0  0  0  0  0  0  0  0
   -0.9872    0.0197    1.8848 H   0  0  0  0  0  0  0  0  0  0  0  0
    0.5097    0.1372    3.4160 C   0  0  0  0  0  0  0  0  0  0  0  0
    1.0850    1.0684    3.3883 H   0  0  0  0  0  0  0  0  0  0  0  0
   -0.3143    0.2573    4.1257 H   0  0  0  0  0  0  0  0  0  0  0  0
    1.1594   -0.6676    3.7761 H   0  0  0  0  0  0  0  0  0  0  0  0
  1  2  1  0  0  0  0
  2  3  1  0  0  0  0
  2  4  1  0  0  0  0
  2  5  1  0  0  0  0
  5  6  2  0  0  0  0
  5  7  1  0  0  0  0
  7  8  1  0  0  0  0
  7  9  1  0  0  0  0
  9 10  1  0  0  0  0
  9 11  1  0  0  0  0
  9 21  1  0  0  0  0
 11 12  1  0  0  0  0
 11 13  1  0  0  0  0
 11 14  1  0  0  0  0
 14 15  1  0  0  0  0
 14 16  1  0  0  0  0
 14 17  1  0  0  0  0
 17 18  2  0  0  0  0
 17 19  1  0  0  0  0
 19 20  1  0  0  0  0
 21 22  2  0  0  0  0
 21 23  1  0  0  0  0
 23 24  1  0  0  0  0
 23 25  1  0  0  0  0
 25 26  1  0  0  0  0
 25 27  1  0  0  0  0
 25 28  1  0  0  0  0
M  END
$$$$

  -OEChem-03222214033D

 28 27  0     1  0  0  0  0  0999 V2000
   -2.1934   -4.2027    1.0303 H   0  0  0  0  0  0  0  0  0  0  0  0
   -2.3157   -3.2563    0.4962 C   0  0  0  0  0  0  0  0  0  0  0  0
   -2.9946   -2.6154    1.0640 H   0  0  0  0  0  0  0  0  0  0  0  0
   -2.7532   -3.4589   -0.4842 H   0  0  0  0  0  0  0  0  0  0  0  0
   -0.9726   -2.5720    0.3299 C   0  0  0  0  0  0  0  0  0  0  0  0
    0.0447   -3.1115    0.7295 O   0  0  0  0  0  0  0  0  0  0  0  0
   -0.9128   -1.3185   -0.2403 N   0  0  0  0  0  0  0  0  0  0  0  0
   -1.8084   -0.8739   -0.4451 H   0  0  0  0  0  0  0  0  0  0  0  0
    0.3196   -0.5206   -0.3692 C   0  0  1  0  0  0  0  0  0  0  0  0
    1.0382   -1.1734   -0.8787 H   0  0  0  0  0  0  0  0  0  0  0  0
    0.1576    0.7191   -1.2954 C   0  0  0  0  0  0  0  0  0  0  0  0
    0.8898    1.4696   -0.9758 H   0  0  0  0  0  0  0  0  0  0  0  0
    0.4567    0.4135   -2.3036 H   0  0  0  0  0  0  0  0  0  0  0  0
   -1.2082    1.4425   -1.4293 C   0  0  0  0  0  0  0  0  0  0  0  0
   -1.0272    2.4857   -1.7026 H   0  0  0  0  0  0  0  0  0  0  0  0
   -1.7534    0.9851   -2.2602 H   0  0  0  0  0  0  0  0  0  0  0  0
   -2.1374    1.4241   -0.2214 C   0  0  0  0  0  0  0  0  0  0  0  0
   -3.0157    0.5776   -0.1712 O   0  0  0  0  0  0  0  0  0  0  0  0
   -1.9627    2.3724    0.7226 O   0  0  0  0  0  0  0  0  0  0  0  0
   -2.6548    2.2212    1.3832 H   0  0  0  0  0  0  0  0  0  0  0  0
    1.0513   -0.1509    0.9526 C   0  0  0  0  0  0  0  0  0  0  0  0
    2.2403    0.1244    0.9054 O   0  0  0  0  0  0  0  0  0  0  0  0
    0.4754    0.3188    2.1140 N   0  0  0  0  0  0  0  0  0  0  0  0
    1.1842    0.6486    2.7644 H   0  0  0  0  0  0  0  0  0  0  0  0
   -0.7430   -0.2233    2.6966 C   0  0  0  0  0  0  0  0  0  0  0  0
   -0.9667    0.2960    3.6335 H   0  0  0  0  0  0  0  0  0  0  0  0
   -1.5984   -0.0964    2.0310 H   0  0  0  0  0  0  0  0  0  0  0  0
   -0.6190   -1.2889    2.9162 H   0  0  0  0  0  0  0  0  0  0  0  0
  1  2  1  0  0  0  0
  2  3  1  0  0  0  0
  2  4  1  0  0  0  0
  2  5  1  0  0  0  0
  5  6  2  0  0  0  0
  5  7  1  0  0  0  0
  7  8  1  0  0  0  0
  7  9  1  0  0  0  0
  9 10  1  0  0  0  0
  9 11  1  0  0  0  0
  9 21  1  0  0  0  0
 11 12  1  0  0  0  0
 11 13  1  0  0  0  0
 11 14  1  0  0  0  0
 14 15  1  0  0  0  0
 14 16  1  0  0  0  0
 14 17  1  0  0  0  0
 17 18  2  0  0  0  0
 17 19  1  0  0  0  0
 19 20  1  0  0  0  0
 21 22  2  0  0  0  0
 21 23  1  0  0  0  0
 23 24  1  0  0  0  0
 23 25  1  0  0  0  0
 25 26  1  0  0  0  0
 25 27  1  0  0  0  0
 25 28  1  0  0  0  0
M  END
$$$$

  -OEChem-03222214033D

 28 27  0     1  0  0  0  0  0999 V2000
   -2.6496   -4.1816    0.4456 H   0  0  0  0  0  0  0  0  0  0  0  0
   -2.6660   -3.1641    0.0450 C   0  0  0  0  0  0  0  0  0  0  0  0
   -3.3061   -2.5467    0.6795 H   0  0  0  0  0  0  0  0  0  0  0  0
   -3.0808   -3.1904   -0.9656 H   0  0  0  0  0  0  0  0  0  0  0  0
   -1.2611   -2.5932    0.0127 C   0  0  0  0  0  0  0  0  0  0  0  0
   -0.3215   -3.2628    0.4014 O   0  0  0  0  0  0  0  0  0  0  0  0
   -1.0573   -1.3130   -0.4601 N   0  0  0  0  0  0  0  0  0  0  0  0
   -1.8982   -0.7723   -0.6540 H   0  0  0  0  0  0  0  0  0  0  0  0
    0.2349   -0.6047   -0.3699 C   0  0  1  0  0  0  0  0  0  0  0  0
    0.9810   -1.2531   -0.8452 H   0  0  0  0  0  0  0  0  0  0  0  0
    0.2217    0.7135   -1.1858 C   0  0  0  0  0  0  0  0  0  0  0  0
    0.9416    1.4059   -0.7334 H   0  0  0  0  0  0  0  0  0  0  0  0
    0.5923    0.4909   -2.1919 H   0  0  0  0  0  0  0  0  0  0  0  0
   -1.1317    1.4496   -1.3382 C   0  0  0  0  0  0  0  0  0  0  0  0
   -0.9469    2.4542   -1.7295 H   0  0  0  0  0  0  0  0  0  0  0  0
   -1.7352    0.9224   -2.0824 H   0  0  0  0  0  0  0  0  0  0  0  0
   -1.9618    1.5790   -0.0664 C   0  0  0  0  0  0  0  0  0  0  0  0
   -1.6046    2.3530    0.7987 O   0  0  0  0  0  0  0  0  0  0  0  0
   -3.0482    0.7827    0.0558 O   0  0  0  0  0  0  0  0  0  0  0  0
   -3.4788    1.0676    0.8796 H   0  0  0  0  0  0  0  0  0  0  0  0
    0.7789   -0.3890    1.0650 C   0  0  0  0  0  0  0  0  0  0  0  0
    1.9864   -0.4393    1.2572 O   0  0  0  0  0  0  0  0  0  0  0  0
   -0.0387    0.0512    2.0904 N   0  0  0  0  0  0  0  0  0  0  0  0
   -0.9759    0.3391    1.8314 H   0  0  0  0  0  0  0  0  0  0  0  0
    0.4824    0.4851    3.3807 C   0  0  0  0  0  0  0  0  0  0  0  0
    1.1163    1.3698    3.2598 H   0  0  0  0  0  0  0  0  0  0  0  0
   -0.3409    0.7372    4.0556 H   0  0  0  0  0  0  0  0  0  0  0  0
    1.0743   -0.3120    3.8432 H   0  0  0  0  0  0  0  0  0  0  0  0
  1  2  1  0  0  0  0
  2  3  1  0  0  0  0
  2  4  1  0  0  0  0
  2  5  1  0  0  0  0
  5  6  2  0  0  0  0
  5  7  1  0  0  0  0
  7  8  1  0  0  0  0
  7  9  1  0  0  0  0
  9 10  1  0  0  0  0
  9 11  1  0  0  0  0
  9 21  1  0  0  0  0
 11 12  1  0  0  0  0
 11 13  1  0  0  0  0
 11 14  1  0  0  0  0
 14 15  1  0  0  0  0
 14 16  1  0  0  0  0
 14 17  1  0  0  0  0
 17 18  2  0  0  0  0
 17 19  1  0  0  0  0
 19 20  1  0  0  0  0
 21 22  2  0  0  0  0
 21 23  1  0  0  0  0
 23 24  1  0  0  0  0
 23 25  1  0  0  0  0
 25 26  1  0  0  0  0
 25 27  1  0  0  0  0
 25 28  1  0  0  0  0
M  END
$$$$

  -OEChem-03222214033D

 28 27  0     1  0  0  0  0  0999 V2000
   -2.7245   -4.0676    0.4285 H   0  0  0  0  0  0  0  0  0  0  0  0
   -2.7138   -3.0662   -0.0114 C   0  0  0  0  0  0  0  0  0  0  0  0
   -3.3249   -2.4042    0.6066 H   0  0  0  0  0  0  0  0  0  0  0  0
   -3.1435   -3.1180   -1.0147 H   0  0  0  0  0  0  0  0  0  0  0  0
   -1.2915   -2.5442   -0.0850 C   0  0  0  0  0  0  0  0  0  0  0  0
   -0.3632   -3.2521    0.2615 O   0  0  0  0  0  0  0  0  0  0  0  0
   -1.0591   -1.2599   -0.5342 N   0  0  0  0  0  0  0  0  0  0  0  0
   -1.8857   -0.6737   -0.6231 H   0  0  0  0  0  0  0  0  0  0  0  0
    0.2487   -0.5863   -0.4164 C   0  0  1  0  0  0  0  0  0  0  0  0
    0.9891   -1.2402   -0.8925 H   0  0  0  0  0  0  0  0  0  0  0  0
    0.2839    0.7533   -1.1940 C   0  0  0  0  0  0  0  0  0  0  0  0
    1.0285    1.4137   -0.7336 H   0  0  0  0  0  0  0  0  0  0  0  0
    0.6399    0.5364   -2.2066 H   0  0  0  0  0  0  0  0  0  0  0  0
   -1.0501    1.5210   -1.3297 C   0  0  0  0  0  0  0  0  0  0  0  0
   -0.8683    2.4326   -1.9070 H   0  0  0  0  0  0  0  0  0  0  0  0
   -1.7677    0.9243   -1.8983 H   0  0  0  0  0  0  0  0  0  0  0  0
   -1.6849    1.9248   -0.0042 C   0  0  0  0  0  0  0  0  0  0  0  0
   -1.4095    3.0093    0.4683 O   0  0  0  0  0  0  0  0  0  0  0  0
   -2.5562    1.0649    0.5740 O   0  0  0  0  0  0  0  0  0  0  0  0
   -2.9040    1.5603    1.3360 H   0  0  0  0  0  0  0  0  0  0  0  0
    0.7548   -0.4251    1.0364 C   0  0  0  0  0  0  0  0  0  0  0  0
    1.9563   -0.4416    1.2655 O   0  0  0  0  0  0  0  0  0  0  0  0
   -0.1051    0.0079    2.0280 N   0  0  0  0  0  0  0  0  0  0  0  0
   -1.0918    0.0510    1.7930 H   0  0  0  0  0  0  0  0  0  0  0  0
    0.3282    0.3503    3.3764 C   0  0  0  0  0  0  0  0  0  0  0  0
    1.0265    1.1936    3.3507 H   0  0  0  0  0  0  0  0  0  0  0  0
   -0.5317    0.6320    3.9912 H   0  0  0  0  0  0  0  0  0  0  0  0
    0.8254   -0.5046    3.8471 H   0  0  0  0  0  0  0  0  0  0  0  0
  1  2  1  0  0  0  0
  2  3  1  0  0  0  0
  2  4  1  0  0  0  0
  2  5  1  0  0  0  0
  5  6  2  0  0  0  0
  5  7  1  0  0  0  0
  7  8  1  0  0  0  0
  7  9  1  0  0  0  0
  9 10  1  0  0  0  0
  9 11  1  0  0  0  0
  9 21  1  0  0  0  0
 11 12  1  0  0  0  0
 11 13  1  0  0  0  0
 11 14  1  0  0  0  0
 14 15  1  0  0  0  0
 14 16  1  0  0  0  0
 14 17  1  0  0  0  0
 17 18  2  0  0  0  0
 17 19  1  0  0  0  0
 19 20  1  0  0  0  0
 21 22  2  0  0  0  0
 21 23  1  0  0  0  0
 23 24  1  0  0  0  0
 23 25  1  0  0  0  0
 25 26  1  0  0  0  0
 25 27  1  0  0  0  0
 25 28  1  0  0  0  0
M  END
$$$$

  -OEChem-03222214033D

 28 27  0     1  0  0  0  0  0999 V2000
   -2.7259   -4.1005    0.3904 H   0  0  0  0  0  0  0  0  0  0  0  0
   -2.7120   -3.0997   -0.0511 C   0  0  0  0  0  0  0  0  0  0  0  0
   -3.3573   -2.4459    0.5403 H   0  0  0  0  0  0  0  0  0  0  0  0
   -3.1003   -3.1602   -1.0706 H   0  0  0  0  0  0  0  0  0  0  0  0
   -1.2955   -2.5574   -0.0674 C   0  0  0  0  0  0  0  0  0  0  0  0
   -0.3750   -3.2456    0.3342 O   0  0  0  0  0  0  0  0  0  0  0  0
   -1.0577   -1.2806   -0.5360 N   0  0  0  0  0  0  0  0  0  0  0  0
   -1.8800   -0.7176   -0.7273 H   0  0  0  0  0  0  0  0  0  0  0  0
    0.2454   -0.5977   -0.4125 C   0  0  1  0  0  0  0  0  0  0  0  0
    0.9962   -1.2543   -0.8686 H   0  0  0  0  0  0  0  0  0  0  0  0
    0.2908    0.7377   -1.1977 C   0  0  0  0  0  0  0  0  0  0  0  0
    1.0407    1.4024   -0.7515 H   0  0  0  0  0  0  0  0  0  0  0  0
    0.6432    0.5025   -2.2074 H   0  0  0  0  0  0  0  0  0  0  0  0
   -1.0454    1.4982   -1.3504 C   0  0  0  0  0  0  0  0  0  0  0  0
   -0.9100    2.2724   -2.1116 H   0  0  0  0  0  0  0  0  0  0  0  0
   -1.8422    0.8462   -1.7125 H   0  0  0  0  0  0  0  0  0  0  0  0
   -1.4865    2.1967   -0.0717 C   0  0  0  0  0  0  0  0  0  0  0  0
   -1.0785    3.3181    0.1573 O   0  0  0  0  0  0  0  0  0  0  0  0
   -2.3372    1.5343    0.7451 O   0  0  0  0  0  0  0  0  0  0  0  0
   -2.5267    2.1726    1.4542 H   0  0  0  0  0  0  0  0  0  0  0  0
    0.7262   -0.4085    1.0459 C   0  0  0  0  0  0  0  0  0  0  0  0
    1.9232   -0.4311    1.2968 O   0  0  0  0  0  0  0  0  0  0  0  0
   -0.1484    0.0378    2.0189 N   0  0  0  0  0  0  0  0  0  0  0  0
   -1.1202    0.1581    1.7449 H   0  0  0  0  0  0  0  0  0  0  0  0
    0.2700    0.4213    3.3609 C   0  0  0  0  0  0  0  0  0  0  0  0
    0.9388    1.2875    3.3199 H   0  0  0  0  0  0  0  0  0  0  0  0
   -0.6007    0.6835    3.9691 H   0  0  0  0  0  0  0  0  0  0  0  0
    0.7949   -0.4068    3.8488 H   0  0  0  0  0  0  0  0  0  0  0  0
  1  2  1  0  0  0  0
  2  3  1  0  0  0  0
  2  4  1  0  0  0  0
  2  5  1  0  0  0  0
  5  6  2  0  0  0  0
  5  7  1  0  0  0  0
  7  8  1  0  0  0  0
  7  9  1  0  0  0  0
  9 10  1  0  0  0  0
  9 11  1  0  0  0  0
  9 21  1  0  0  0  0
 11 12  1  0  0  0  0
 11 13  1  0  0  0  0
 11 14  1  0  0  0  0
 14 15  1  0  0  0  0
 14 16  1  0  0  0  0
 14 17  1  0  0  0  0
 17 18  2  0  0  0  0
 17 19  1  0  0  0  0
 19 20  1  0  0  0  0
 21 22  2  0  0  0  0
 21 23  1  0  0  0  0
 23 24  1  0  0  0  0
 23 25  1  0  0  0  0
 25 26  1  0  0  0  0
 25 27  1  0  0  0  0
 25 28  1  0  0  0  0
M  END
$$$$

  -OEChem-03222214033D

 28 27  0     1  0  0  0  0  0999 V2000
   -2.7109   -4.1749    0.3669 H   0  0  0  0  0  0  0  0  0  0  0  0
   -2.6799   -3.2074   -0.1428 C   0  0  0  0  0  0  0  0  0  0  0  0
   -3.4518   -2.5620    0.2832 H   0  0  0  0  0  0  0  0  0  0  0  0
   -2.8866   -3.3626   -1.2043 H   0  0  0  0  0  0  0  0  0  0  0  0
   -1.3146   -2.5701    0.0326 C   0  0  0  0  0  0  0  0  0  0  0  0
   -0.4373   -3.1693    0.6268 O   0  0  0  0  0  0  0  0  0  0  0  0
   -1.0719   -1.3161   -0.4935 N   0  0  0  0  0  0  0  0  0  0  0  0
   -1.8173   -0.9014   -1.0408 H   0  0  0  0  0  0  0  0  0  0  0  0
    0.2278   -0.6199   -0.4088 C   0  0  1  0  0  0  0  0  0  0  0  0
    0.9854   -1.2767   -0.8523 H   0  0  0  0  0  0  0  0  0  0  0  0
    0.2477    0.7145   -1.1998 C   0  0  0  0  0  0  0  0  0  0  0  0
    1.0217    1.3790   -0.7959 H   0  0  0  0  0  0  0  0  0  0  0  0
    0.5627    0.4625   -2.2177 H   0  0  0  0  0  0  0  0  0  0  0  0
   -1.0915    1.4812   -1.3270 C   0  0  0  0  0  0  0  0  0  0  0  0
   -1.0599    2.0702   -2.2485 H   0  0  0  0  0  0  0  0  0  0  0  0
   -1.9560    0.8237   -1.4116 H   0  0  0  0  0  0  0  0  0  0  0  0
   -1.3016    2.4624   -0.1814 C   0  0  0  0  0  0  0  0  0  0  0  0
   -0.7607    3.5499   -0.2339 O   0  0  0  0  0  0  0  0  0  0  0  0
   -2.0933    2.0739    0.8427 O   0  0  0  0  0  0  0  0  0  0  0  0
   -2.0999    2.8373    1.4438 H   0  0  0  0  0  0  0  0  0  0  0  0
    0.7026   -0.3642    1.0420 C   0  0  0  0  0  0  0  0  0  0  0  0
    1.8987   -0.3867    1.2992 O   0  0  0  0  0  0  0  0  0  0  0  0
   -0.1759    0.1196    1.9939 N   0  0  0  0  0  0  0  0  0  0  0  0
   -1.1390    0.2671    1.7019 H   0  0  0  0  0  0  0  0  0  0  0  0
    0.2348    0.5336    3.3289 C   0  0  0  0  0  0  0  0  0  0  0  0
    0.8958    1.4048    3.2732 H   0  0  0  0  0  0  0  0  0  0  0  0
   -0.6408    0.7984    3.9288 H   0  0  0  0  0  0  0  0  0  0  0  0
    0.7655   -0.2797    3.8353 H   0  0  0  0  0  0  0  0  0  0  0  0
  1  2  1  0  0  0  0
  2  3  1  0  0  0  0
  2  4  1  0  0  0  0
  2  5  1  0  0  0  0
  5  6  2  0  0  0  0
  5  7  1  0  0  0  0
  7  8  1  0  0  0  0
  7  9  1  0  0  0  0
  9 10  1  0  0  0  0
  9 11  1  0  0  0  0
  9 21  1  0  0  0  0
 11 12  1  0  0  0  0
 11 13  1  0  0  0  0
 11 14  1  0  0  0  0
 14 15  1  0  0  0  0
 14 16  1  0  0  0  0
 14 17  1  0  0  0  0
 17 18  2  0  0  0  0
 17 19  1  0  0  0  0
 19 20  1  0  0  0  0
 21 22  2  0  0  0  0
 21 23  1  0  0  0  0
 23 24  1  0  0  0  0
 23 25  1  0  0  0  0
 25 26  1  0  0  0  0
 25 27  1  0  0  0  0
 25 28  1  0  0  0  0
M  END
$$$$

  -OEChem-03222214033D

 28 27  0     1  0  0  0  0  0999 V2000
   -2.4134   -4.3875    0.4046 H   0  0  0  0  0  0  0  0  0  0  0  0
   -2.4882   -3.4182   -0.0963 C   0  0  0  0  0  0  0  0  0  0  0  0
   -3.2905   -2.8432    0.3721 H   0  0  0  0  0  0  0  0  0  0  0  0
   -2.7322   -3.5838   -1.1483 H   0  0  0  0  0  0  0  0  0  0  0  0
   -1.1745   -2.6687    0.0206 C   0  0  0  0  0  0  0  0  0  0  0  0
   -0.2147   -3.2037    0.5442 O   0  0  0  0  0  0  0  0  0  0  0  0
   -1.0712   -1.3889   -0.4887 N   0  0  0  0  0  0  0  0  0  0  0  0
   -1.8706   -1.0419   -1.0066 H   0  0  0  0  0  0  0  0  0  0  0  0
    0.1686   -0.5870   -0.4685 C   0  0  1  0  0  0  0  0  0  0  0  0
    0.9492   -1.1539   -0.9889 H   0  0  0  0  0  0  0  0  0  0  0  0
    0.0079    0.7805   -1.1825 C   0  0  0  0  0  0  0  0  0  0  0  0
    0.7609    1.4883   -0.8136 H   0  0  0  0  0  0  0  0  0  0  0  0
    0.2514    0.6045   -2.2355 H   0  0  0  0  0  0  0  0  0  0  0  0
   -1.4007    1.4287   -1.1547 C   0  0  0  0  0  0  0  0  0  0  0  0
   -1.6140    1.8396   -2.1455 H   0  0  0  0  0  0  0  0  0  0  0  0
   -2.2036    0.7288   -0.9249 H   0  0  0  0  0  0  0  0  0  0  0  0
   -1.4543    2.5862   -0.1680 C   0  0  0  0  0  0  0  0  0  0  0  0
   -1.9565    2.3728    0.9214 O   0  0  0  0  0  0  0  0  0  0  0  0
   -0.9457    3.7803   -0.5377 O   0  0  0  0  0  0  0  0  0  0  0  0
   -1.0621    4.3592    0.2318 H   0  0  0  0  0  0  0  0  0  0  0  0
    0.7117   -0.3209    0.9570 C   0  0  0  0  0  0  0  0  0  0  0  0
    1.9207   -0.2491    1.1349 O   0  0  0  0  0  0  0  0  0  0  0  0
   -0.1400    0.0692    1.9753 N   0  0  0  0  0  0  0  0  0  0  0  0
   -1.1138    0.2242    1.7275 H   0  0  0  0  0  0  0  0  0  0  0  0
    0.3325    0.5449    3.2686 C   0  0  0  0  0  0  0  0  0  0  0  0
    0.9043    1.4712    3.1504 H   0  0  0  0  0  0  0  0  0  0  0  0
   -0.5159    0.7418    3.9311 H   0  0  0  0  0  0  0  0  0  0  0  0
    0.9721   -0.2072    3.7429 H   0  0  0  0  0  0  0  0  0  0  0  0
  1  2  1  0  0  0  0
  2  3  1  0  0  0  0
  2  4  1  0  0  0  0
  2  5  1  0  0  0  0
  5  6  2  0  0  0  0
  5  7  1  0  0  0  0
  7  8  1  0  0  0  0
  7  9  1  0  0  0  0
  9 10  1  0  0  0  0
  9 11  1  0  0  0  0
  9 21  1  0  0  0  0
 11 12  1  0  0  0  0
 11 13  1  0  0  0  0
 11 14  1  0  0  0  0
 14 15  1  0  0  0  0
 14 16  1  0  0  0  0
 14 17  1  0  0  0  0
 17 18  2  0  0  0  0
 17 19  1  0  0  0  0
 19 20  1  0  0  0  0
 21 22  2  0  0  0  0
 21 23  1  0  0  0  0
 23 24  1  0  0  0  0
 23 25  1  0  0  0  0
 25 26  1  0  0  0  0
 25 27  1  0  0  0  0
 25 28  1  0  0  0  0
M  END
$$$$

  -OEChem-03222214033D

 28 27  0     1  0  0  0  0  0999 V2000
   -2.6221   -4.2489    0.3827 H   0  0  0  0  0  0  0  0  0  0  0  0
   -2.5878   -3.3194   -0.1932 C   0  0  0  0  0  0  0  0  0  0  0  0
   -3.4381   -2.6967    0.0952 H   0  0  0  0  0  0  0  0  0  0  0  0
   -2.6647   -3.5619   -1.2558 H   0  0  0  0  0  0  0  0  0  0  0  0
   -1.2886   -2.5850    0.0797 C   0  0  0  0  0  0  0  0  0  0  0  0
   -0.4436   -3.0936    0.7925 O   0  0  0  0  0  0  0  0  0  0  0  0
   -1.0712   -1.3454   -0.4906 N   0  0  0  0  0  0  0  0  0  0  0  0
   -1.7486   -1.0522   -1.1869 H   0  0  0  0  0  0  0  0  0  0  0  0
    0.2143   -0.6190   -0.4227 C   0  0  1  0  0  0  0  0  0  0  0  0
    0.9927   -1.2577   -0.8565 H   0  0  0  0  0  0  0  0  0  0  0  0
    0.1778    0.7106   -1.2197 C   0  0  0  0  0  0  0  0  0  0  0  0
    0.9368    1.3952   -0.8201 H   0  0  0  0  0  0  0  0  0  0  0  0
    0.4932    0.4801   -2.2427 H   0  0  0  0  0  0  0  0  0  0  0  0
   -1.1934    1.4306   -1.3187 C   0  0  0  0  0  0  0  0  0  0  0  0
   -1.4834    1.5221   -2.3694 H   0  0  0  0  0  0  0  0  0  0  0  0
   -1.9913    0.8950   -0.8038 H   0  0  0  0  0  0  0  0  0  0  0  0
   -1.1275    2.8253   -0.7103 C   0  0  0  0  0  0  0  0  0  0  0  0
   -0.7265    3.7432   -1.4005 O   0  0  0  0  0  0  0  0  0  0  0  0
   -1.5176    2.9726    0.5740 O   0  0  0  0  0  0  0  0  0  0  0  0
   -1.3718    3.9112    0.7723 H   0  0  0  0  0  0  0  0  0  0  0  0
    0.6764   -0.3012    1.0203 C   0  0  0  0  0  0  0  0  0  0  0  0
    1.8726   -0.2701    1.2771 O   0  0  0  0  0  0  0  0  0  0  0  0
   -0.2197    0.1983    1.9475 N   0  0  0  0  0  0  0  0  0  0  0  0
   -1.2007    0.2018    1.6891 H   0  0  0  0  0  0  0  0  0  0  0  0
    0.1665    0.6351    3.2825 C   0  0  0  0  0  0  0  0  0  0  0  0
    0.8955    1.4501    3.2230 H   0  0  0  0  0  0  0  0  0  0  0  0
   -0.7091    0.9951    3.8307 H   0  0  0  0  0  0  0  0  0  0  0  0
    0.6101   -0.1950    3.8424 H   0  0  0  0  0  0  0  0  0  0  0  0
  1  2  1  0  0  0  0
  2  3  1  0  0  0  0
  2  4  1  0  0  0  0
  2  5  1  0  0  0  0
  5  6  2  0  0  0  0
  5  7  1  0  0  0  0
  7  8  1  0  0  0  0
  7  9  1  0  0  0  0
  9 10  1  0  0  0  0
  9 11  1  0  0  0  0
  9 21  1  0  0  0  0
 11 12  1  0  0  0  0
 11 13  1  0  0  0  0
 11 14  1  0  0  0  0
 14 15  1  0  0  0  0
 14 16  1  0  0  0  0
 14 17  1  0  0  0  0
 17 18  2  0  0  0  0
 17 19  1  0  0  0  0
 19 20  1  0  0  0  0
 21 22  2  0  0  0  0
 21 23  1  0  0  0  0
 23 24  1  0  0  0  0
 23 25  1  0  0  0  0
 25 26  1  0  0  0  0
 25 27  1  0  0  0  0
 25 28  1  0  0  0  0
M  END
$$$$

  -OEChem-03222214033D

 28 27  0     1  0  0  0  0  0999 V2000
   -2.5621   -4.2749    0.3729 H   0  0  0  0  0  0  0  0  0  0  0  0
   -2.5570   -3.3292   -0.1769 C   0  0  0  0  0  0  0  0  0  0  0  0
   -3.4152   -2.7328    0.1422 H   0  0  0  0  0  0  0  0  0  0  0  0
   -2.6459   -3.5446   -1.2444 H   0  0  0  0  0  0  0  0  0  0  0  0
   -1.2691   -2.5752    0.0957 C   0  0  0  0  0  0  0  0  0  0  0  0
   -0.4224   -3.0654    0.8190 O   0  0  0  0  0  0  0  0  0  0  0  0
   -1.0658   -1.3359   -0.4805 N   0  0  0  0  0  0  0  0  0  0  0  0
   -1.7478   -1.0527   -1.1767 H   0  0  0  0  0  0  0  0  0  0  0  0
    0.2170   -0.6019   -0.4304 C   0  0  1  0  0  0  0  0  0  0  0  0
    0.9944   -1.2370   -0.8706 H   0  0  0  0  0  0  0  0  0  0  0  0
    0.1547    0.7175   -1.2408 C   0  0  0  0  0  0  0  0  0  0  0  0
    0.8932    1.4172   -0.8295 H   0  0  0  0  0  0  0  0  0  0  0  0
    0.4773    0.5064   -2.2658 H   0  0  0  0  0  0  0  0  0  0  0  0
   -1.2337    1.4011   -1.3156 C   0  0  0  0  0  0  0  0  0  0  0  0
   -1.6928    1.2213   -2.2916 H   0  0  0  0  0  0  0  0  0  0  0  0
   -1.9077    1.0140   -0.5484 H   0  0  0  0  0  0  0  0  0  0  0  0
   -1.1277    2.9020   -1.0745 C   0  0  0  0  0  0  0  0  0  0  0  0
   -0.6376    3.5943   -1.9468 O   0  0  0  0  0  0  0  0  0  0  0  0
   -1.5771    3.3912    0.1007 O   0  0  0  0  0  0  0  0  0  0  0  0
   -1.3944    4.3433    0.0621 H   0  0  0  0  0  0  0  0  0  0  0  0
    0.6944   -0.2780    1.0061 C   0  0  0  0  0  0  0  0  0  0  0  0
    1.8933   -0.2215    1.2447 O   0  0  0  0  0  0  0  0  0  0  0  0
   -0.1987    0.2178    1.9386 N   0  0  0  0  0  0  0  0  0  0  0  0
   -1.1840    0.0968    1.7308 H   0  0  0  0  0  0  0  0  0  0  0  0
    0.1951    0.6027    3.2877 C   0  0  0  0  0  0  0  0  0  0  0  0
    0.9524    1.3932    3.2550 H   0  0  0  0  0  0  0  0  0  0  0  0
   -0.6702    0.9786    3.8418 H   0  0  0  0  0  0  0  0  0  0  0  0
    0.6068   -0.2578    3.8257 H   0  0  0  0  0  0  0  0  0  0  0  0
  1  2  1  0  0  0  0
  2  3  1  0  0  0  0
  2  4  1  0  0  0  0
  2  5  1  0  0  0  0
  5  6  2  0  0  0  0
  5  7  1  0  0  0  0
  7  8  1  0  0  0  0
  7  9  1  0  0  0  0
  9 10  1  0  0  0  0
  9 11  1  0  0  0  0
  9 21  1  0  0  0  0
 11 12  1  0  0  0  0
 11 13  1  0  0  0  0
 11 14  1  0  0  0  0
 14 15  1  0  0  0  0
 14 16  1  0  0  0  0
 14 17  1  0  0  0  0
 17 18  2  0  0  0  0
 17 19  1  0  0  0  0
 19 20  1  0  0  0  0
 21 22  2  0  0  0  0
 21 23  1  0  0  0  0
 23 24  1  0  0  0  0
 23 25  1  0  0  0  0
 25 26  1  0  0  0  0
 25 27  1  0  0  0  0
 25 28  1  0  0  0  0
M  END
$$$$

  -OEChem-03222214033D

 28 27  0     1  0  0  0  0  0999 V2000
   -2.5609   -4.2672    0.3666 H   0  0  0  0  0  0  0  0  0  0  0  0
   -2.5589   -3.3150   -0.1719 C   0  0  0  0  0  0  0  0  0  0  0  0
   -3.4154   -2.7229    0.1591 H   0  0  0  0  0  0  0  0  0  0  0  0
   -2.6536   -3.5172   -1.2415 H   0  0  0  0  0  0  0  0  0  0  0  0
   -1.2696   -2.5642    0.1027 C   0  0  0  0  0  0  0  0  0  0  0  0
   -0.4238   -3.0569    0.8256 O   0  0  0  0  0  0  0  0  0  0  0  0
   -1.0655   -1.3230   -0.4687 N   0  0  0  0  0  0  0  0  0  0  0  0
   -1.7507   -1.0350   -1.1597 H   0  0  0  0  0  0  0  0  0  0  0  0
    0.2218   -0.5965   -0.4278 C   0  0  1  0  0  0  0  0  0  0  0  0
    0.9906   -1.2351   -0.8779 H   0  0  0  0  0  0  0  0  0  0  0  0
    0.1516    0.7173   -1.2443 C   0  0  0  0  0  0  0  0  0  0  0  0
    0.8808    1.4250   -0.8305 H   0  0  0  0  0  0  0  0  0  0  0  0
    0.4697    0.5118   -2.2719 H   0  0  0  0  0  0  0  0  0  0  0  0
   -1.2439    1.3821   -1.2985 C   0  0  0  0  0  0  0  0  0  0  0  0
   -1.8276    0.9810   -2.1307 H   0  0  0  0  0  0  0  0  0  0  0  0
   -1.7880    1.1816   -0.3717 H   0  0  0  0  0  0  0  0  0  0  0  0
   -1.1526    2.8987   -1.4335 C   0  0  0  0  0  0  0  0  0  0  0  0
   -0.4759    3.3649   -2.3314 O   0  0  0  0  0  0  0  0  0  0  0  0
   -1.8396    3.6550   -0.5515 O   0  0  0  0  0  0  0  0  0  0  0  0
   -1.6412    4.5716   -0.7995 H   0  0  0  0  0  0  0  0  0  0  0  0
    0.7193   -0.2817    1.0043 C   0  0  0  0  0  0  0  0  0  0  0  0
    1.9214   -0.2302    1.2269 O   0  0  0  0  0  0  0  0  0  0  0  0
   -0.1593    0.2147    1.9507 N   0  0  0  0  0  0  0  0  0  0  0  0
   -1.1447    0.0577    1.7693 H   0  0  0  0  0  0  0  0  0  0  0  0
    0.2557    0.5630    3.3040 C   0  0  0  0  0  0  0  0  0  0  0  0
    1.0243    1.3429    3.2812 H   0  0  0  0  0  0  0  0  0  0  0  0
   -0.5976    0.9384    3.8769 H   0  0  0  0  0  0  0  0  0  0  0  0
    0.6606   -0.3155    3.8176 H   0  0  0  0  0  0  0  0  0  0  0  0
  1  2  1  0  0  0  0
  2  3  1  0  0  0  0
  2  4  1  0  0  0  0
  2  5  1  0  0  0  0
  5  6  2  0  0  0  0
  5  7  1  0  0  0  0
  7  8  1  0  0  0  0
  7  9  1  0  0  0  0
  9 10  1  0  0  0  0
  9 11  1  0  0  0  0
  9 21  1  0  0  0  0
 11 12  1  0  0  0  0
 11 13  1  0  0  0  0
 11 14  1  0  0  0  0
 14 15  1  0  0  0  0
 14 16  1  0  0  0  0
 14 17  1  0  0  0  0
 17 18  2  0  0  0  0
 17 19  1  0  0  0  0
 19 20  1  0  0  0  0
 21 22  2  0  0  0  0
 21 23  1  0  0  0  0
 23 24  1  0  0  0  0
 23 25  1  0  0  0  0
 25 26  1  0  0  0  0
 25 27  1  0  0  0  0
 25 28  1  0  0  0  0
M  END
$$$$

  -OEChem-03222214033D

 28 27  0     1  0  0  0  0  0999 V2000
   -2.5618   -4.2646    0.3831 H   0  0  0  0  0  0  0  0  0  0  0  0
   -2.5628   -3.3118   -0.1542 C   0  0  0  0  0  0  0  0  0  0  0  0
   -3.4168   -2.7195    0.1829 H   0  0  0  0  0  0  0  0  0  0  0  0
   -2.6641   -3.5125   -1.2235 H   0  0  0  0  0  0  0  0  0  0  0  0
   -1.2718   -2.5618    0.1138 C   0  0  0  0  0  0  0  0  0  0  0  0
   -0.4277   -3.0501    0.8417 O   0  0  0  0  0  0  0  0  0  0  0  0
   -1.0699   -1.3210   -0.4593 N   0  0  0  0  0  0  0  0  0  0  0  0
   -1.7543   -1.0401   -1.1538 H   0  0  0  0  0  0  0  0  0  0  0  0
    0.2213   -0.6002   -0.4332 C   0  0  1  0  0  0  0  0  0  0  0  0
    0.9826   -1.2402   -0.8938 H   0  0  0  0  0  0  0  0  0  0  0  0
    0.1497    0.7171   -1.2431 C   0  0  0  0  0  0  0  0  0  0  0  0
    0.8860    1.4243   -0.8417 H   0  0  0  0  0  0  0  0  0  0  0  0
    0.4494    0.5065   -2.2754 H   0  0  0  0  0  0  0  0  0  0  0  0
   -1.2442    1.3841   -1.2733 C   0  0  0  0  0  0  0  0  0  0  0  0
   -1.9221    0.8267   -1.9234 H   0  0  0  0  0  0  0  0  0  0  0  0
   -1.6641    1.3899   -0.2639 H   0  0  0  0  0  0  0  0  0  0  0  0
   -1.1985    2.8312   -1.7578 C   0  0  0  0  0  0  0  0  0  0  0  0
   -0.4129    3.1423   -2.6343 O   0  0  0  0  0  0  0  0  0  0  0  0
   -2.0617    3.7021   -1.1942 O   0  0  0  0  0  0  0  0  0  0  0  0
   -1.8773    4.5515   -1.6250 H   0  0  0  0  0  0  0  0  0  0  0  0
    0.7345   -0.2907    0.9942 C   0  0  0  0  0  0  0  0  0  0  0  0
    1.9389   -0.2384    1.2044 O   0  0  0  0  0  0  0  0  0  0  0  0
   -0.1348    0.2070    1.9484 N   0  0  0  0  0  0  0  0  0  0  0  0
   -1.1198    0.0309    1.7816 H   0  0  0  0  0  0  0  0  0  0  0  0
    0.2939    0.5387    3.3014 C   0  0  0  0  0  0  0  0  0  0  0  0
    1.0662    1.3151    3.2797 H   0  0  0  0  0  0  0  0  0  0  0  0
   -0.5523    0.9120    3.8859 H   0  0  0  0  0  0  0  0  0  0  0  0
    0.6990   -0.3474    3.8017 H   0  0  0  0  0  0  0  0  0  0  0  0
  1  2  1  0  0  0  0
  2  3  1  0  0  0  0
  2  4  1  0  0  0  0
  2  5  1  0  0  0  0
  5  6  2  0  0  0  0
  5  7  1  0  0  0  0
  7  8  1  0  0  0  0
  7  9  1  0  0  0  0
  9 10  1  0  0  0  0
  9 11  1  0  0  0  0
  9 21  1  0  0  0  0
 11 12  1  0  0  0  0
 11 13  1  0  0  0  0
 11 14  1  0  0  0  0
 14 15  1  0  0  0  0
 14 16  1  0  0  0  0
 14 17  1  0  0  0  0
 17 18  2  0  0  0  0
 17 19  1  0  0  0  0
 19 20  1  0  0  0  0
 21 22  2  0  0  0  0
 21 23  1  0  0  0  0
 23 24  1  0  0  0  0
 23 25  1  0  0  0  0
 25 26  1  0  0  0  0
 25 27  1  0  0  0  0
 25 28  1  0  0  0  0
M  END
$$$$

  -OEChem-03222214033D

 28 27  0     1  0  0  0  0  0999 V2000
   -2.5811   -4.2451    0.3719 H   0  0  0  0  0  0  0  0  0  0  0  0
   -2.5652   -3.3023   -0.1826 C   0  0  0  0  0  0  0  0  0  0  0  0
   -3.4284   -2.7039    0.1181 H   0  0  0  0  0  0  0  0  0  0  0  0
   -2.6357   -3.5222   -1.2505 H   0  0  0  0  0  0  0  0  0  0  0  0
   -1.2816   -2.5482    0.1083 C   0  0  0  0  0  0  0  0  0  0  0  0
   -0.4407   -3.0412    0.8368 O   0  0  0  0  0  0  0  0  0  0  0  0
   -1.0831   -1.2976   -0.4439 N   0  0  0  0  0  0  0  0  0  0  0  0
   -1.7581   -1.0174   -1.1484 H   0  0  0  0  0  0  0  0  0  0  0  0
    0.2084   -0.5808   -0.4114 C   0  0  1  0  0  0  0  0  0  0  0  0
    0.9613   -1.2221   -0.8847 H   0  0  0  0  0  0  0  0  0  0  0  0
    0.1302    0.7288   -1.2265 C   0  0  0  0  0  0  0  0  0  0  0  0
    1.0190    1.3363   -1.0178 H   0  0  0  0  0  0  0  0  0  0  0  0
    0.1671    0.4638   -2.2889 H   0  0  0  0  0  0  0  0  0  0  0  0
   -1.1407    1.5752   -0.9753 C   0  0  0  0  0  0  0  0  0  0  0  0
   -2.0401    1.0058   -1.2167 H   0  0  0  0  0  0  0  0  0  0  0  0
   -1.1884    1.8507    0.0812 H   0  0  0  0  0  0  0  0  0  0  0  0
   -1.1807    2.8616   -1.7990 C   0  0  0  0  0  0  0  0  0  0  0  0
   -0.6056    2.9091   -2.8715 O   0  0  0  0  0  0  0  0  0  0  0  0
   -1.8906    3.8928   -1.2954 O   0  0  0  0  0  0  0  0  0  0  0  0
   -1.7946    4.6052   -1.9467 H   0  0  0  0  0  0  0  0  0  0  0  0
    0.7452   -0.2903    1.0112 C   0  0  0  0  0  0  0  0  0  0  0  0
    1.9536   -0.2364    1.1963 O   0  0  0  0  0  0  0  0  0  0  0  0
   -0.1018    0.1968    1.9909 N   0  0  0  0  0  0  0  0  0  0  0  0
   -1.0890    0.0116    1.8479 H   0  0  0  0  0  0  0  0  0  0  0  0
    0.3589    0.4997    3.3407 C   0  0  0  0  0  0  0  0  0  0  0  0
    1.1330    1.2741    3.3178 H   0  0  0  0  0  0  0  0  0  0  0  0
   -0.4723    0.8636    3.9521 H   0  0  0  0  0  0  0  0  0  0  0  0
    0.7725   -0.3973    3.8139 H   0  0  0  0  0  0  0  0  0  0  0  0
  1  2  1  0  0  0  0
  2  3  1  0  0  0  0
  2  4  1  0  0  0  0
  2  5  1  0  0  0  0
  5  6  2  0  0  0  0
  5  7  1  0  0  0  0
  7  8  1  0  0  0  0
  7  9  1  0  0  0  0
  9 10  1  0  0  0  0
  9 11  1  0  0  0  0
  9 21  1  0  0  0  0
 11 12  1  0  0  0  0
 11 13  1  0  0  0  0
 11 14  1  0  0  0  0
 14 15  1  0  0  0  0
 14 16  1  0  0  0  0
 14 17  1  0  0  0  0
 17 18  2  0  0  0  0
 17 19  1  0  0  0  0
 19 20  1  0  0  0  0
 21 22  2  0  0  0  0
 21 23  1  0  0  0  0
 23 24  1  0  0  0  0
 23 25  1  0  0  0  0
 25 26  1  0  0  0  0
 25 27  1  0  0  0  0
 25 28  1  0  0  0  0
M  END
$$$$

  -OEChem-03222214033D

 28 27  0     1  0  0  0  0  0999 V2000
   -2.5973   -4.2558    0.3330 H   0  0  0  0  0  0  0  0  0  0  0  0
   -2.6027   -3.2820   -0.1652 C   0  0  0  0  0  0  0  0  0  0  0  0
   -3.4505   -2.7017    0.2064 H   0  0  0  0  0  0  0  0  0  0  0  0
   -2.7191   -3.4395   -1.2402 H   0  0  0  0  0  0  0  0  0  0  0  0
   -1.3063   -2.5457    0.1159 C   0  0  0  0  0  0  0  0  0  0  0  0
   -0.4660   -3.0513    0.8364 O   0  0  0  0  0  0  0  0  0  0  0  0
   -1.0945   -1.2979   -0.4381 N   0  0  0  0  0  0  0  0  0  0  0  0
   -1.7722   -1.0083   -1.1364 H   0  0  0  0  0  0  0  0  0  0  0  0
    0.2082   -0.6002   -0.4195 C   0  0  1  0  0  0  0  0  0  0  0  0
    0.9467   -1.2489   -0.9048 H   0  0  0  0  0  0  0  0  0  0  0  0
    0.1472    0.7241   -1.2134 C   0  0  0  0  0  0  0  0  0  0  0  0
    1.0555    1.3096   -1.0279 H   0  0  0  0  0  0  0  0  0  0  0  0
    0.1534    0.4569   -2.2759 H   0  0  0  0  0  0  0  0  0  0  0  0
   -1.0986    1.6046   -0.9388 C   0  0  0  0  0  0  0  0  0  0  0  0
   -2.0073    1.0012   -0.9295 H   0  0  0  0  0  0  0  0  0  0  0  0
   -0.9996    2.0709    0.0451 H   0  0  0  0  0  0  0  0  0  0  0  0
   -1.3220    2.7091   -1.9728 C   0  0  0  0  0  0  0  0  0  0  0  0
   -0.5030    2.9027   -2.8530 O   0  0  0  0  0  0  0  0  0  0  0  0
   -2.4600    3.4242   -1.8557 O   0  0  0  0  0  0  0  0  0  0  0  0
   -2.4223    4.0730   -2.5761 H   0  0  0  0  0  0  0  0  0  0  0  0
    0.7604   -0.3201    0.9987 C   0  0  0  0  0  0  0  0  0  0  0  0
    1.9705   -0.2836    1.1762 O   0  0  0  0  0  0  0  0  0  0  0  0
   -0.0748    0.1783    1.9828 N   0  0  0  0  0  0  0  0  0  0  0  0
   -1.0653    0.0073    1.8453 H   0  0  0  0  0  0  0  0  0  0  0  0
    0.3981    0.4907    3.3258 C   0  0  0  0  0  0  0  0  0  0  0  0
    1.1868    1.2498    3.2881 H   0  0  0  0  0  0  0  0  0  0  0  0
   -0.4230    0.8791    3.9358 H   0  0  0  0  0  0  0  0  0  0  0  0
    0.7971   -0.4073    3.8094 H   0  0  0  0  0  0  0  0  0  0  0  0
  1  2  1  0  0  0  0
  2  3  1  0  0  0  0
  2  4  1  0  0  0  0
  2  5  1  0  0  0  0
  5  6  2  0  0  0  0
  5  7  1  0  0  0  0
  7  8  1  0  0  0  0
  7  9  1  0  0  0  0
  9 10  1  0  0  0  0
  9 11  1  0  0  0  0
  9 21  1  0  0  0  0
 11 12  1  0  0  0  0
 11 13  1  0  0  0  0
 11 14  1  0  0  0  0
 14 15  1  0  0  0  0
 14 16  1  0  0  0  0
 14 17  1  0  0  0  0
 17 18  2  0  0  0  0
 17 19  1  0  0  0  0
 19 20  1  0  0  0  0
 21 22  2  0  0  0  0
 21 23  1  0  0  0  0
 23 24  1  0  0  0  0
 23 25  1  0  0  0  0
 25 26  1  0  0  0  0
 25 27  1  0  0  0  0
 25 28  1  0  0  0  0
M  END
$$$$

  -OEChem-03222214033D

 28 27  0     1  0  0  0  0  0999 V2000
   -2.6779   -4.1803    0.4260 H   0  0  0  0  0  0  0  0  0  0  0  0
   -2.6393   -3.2499   -0.1478 C   0  0  0  0  0  0  0  0  0  0  0  0
   -3.4808   -2.6195    0.1493 H   0  0  0  0  0  0  0  0  0  0  0  0
   -2.7272   -3.4888   -1.2105 H   0  0  0  0  0  0  0  0  0  0  0  0
   -1.3303   -2.5300    0.1152 C   0  0  0  0  0  0  0  0  0  0  0  0
   -0.4809   -3.0528    0.8125 O   0  0  0  0  0  0  0  0  0  0  0  0
   -1.1136   -1.2806   -0.4331 N   0  0  0  0  0  0  0  0  0  0  0  0
   -1.8040   -0.9728   -1.1114 H   0  0  0  0  0  0  0  0  0  0  0  0
    0.1968   -0.5962   -0.4296 C   0  0  1  0  0  0  0  0  0  0  0  0
    0.9217   -1.2466   -0.9329 H   0  0  0  0  0  0  0  0  0  0  0  0
    0.1399    0.7419   -1.2013 C   0  0  0  0  0  0  0  0  0  0  0  0
    1.0619    1.3115   -1.0341 H   0  0  0  0  0  0  0  0  0  0  0  0
    0.1205    0.4842   -2.2661 H   0  0  0  0  0  0  0  0  0  0  0  0
   -1.0849    1.6427   -0.8969 C   0  0  0  0  0  0  0  0  0  0  0  0
   -1.9555    1.0487   -0.6166 H   0  0  0  0  0  0  0  0  0  0  0  0
   -0.8527    2.2940   -0.0500 H   0  0  0  0  0  0  0  0  0  0  0  0
   -1.5022    2.5090   -2.0835 C   0  0  0  0  0  0  0  0  0  0  0  0
   -0.6470    2.9856   -2.8068 O   0  0  0  0  0  0  0  0  0  0  0  0
   -2.8245    2.6978   -2.2786 O   0  0  0  0  0  0  0  0  0  0  0  0
   -2.8812    3.2780   -3.0546 H   0  0  0  0  0  0  0  0  0  0  0  0
    0.7699   -0.3339    0.9835 C   0  0  0  0  0  0  0  0  0  0  0  0
    1.9824   -0.3125    1.1472 O   0  0  0  0  0  0  0  0  0  0  0  0
   -0.0485    0.1648    1.9814 N   0  0  0  0  0  0  0  0  0  0  0  0
   -1.0425    0.0081    1.8526 H   0  0  0  0  0  0  0  0  0  0  0  0
    0.4429    0.4565    3.3225 C   0  0  0  0  0  0  0  0  0  0  0  0
    1.2265    1.2209    3.2860 H   0  0  0  0  0  0  0  0  0  0  0  0
   -0.3713    0.8282    3.9520 H   0  0  0  0  0  0  0  0  0  0  0  0
    0.8550   -0.4474    3.7836 H   0  0  0  0  0  0  0  0  0  0  0  0
  1  2  1  0  0  0  0
  2  3  1  0  0  0  0
  2  4  1  0  0  0  0
  2  5  1  0  0  0  0
  5  6  2  0  0  0  0
  5  7  1  0  0  0  0
  7  8  1  0  0  0  0
  7  9  1  0  0  0  0
  9 10  1  0  0  0  0
  9 11  1  0  0  0  0
  9 21  1  0  0  0  0
 11 12  1  0  0  0  0
 11 13  1  0  0  0  0
 11 14  1  0  0  0  0
 14 15  1  0  0  0  0
 14 16  1  0  0  0  0
 14 17  1  0  0  0  0
 17 18  2  0  0  0  0
 17 19  1  0  0  0  0
 19 20  1  0  0  0  0
 21 22  2  0  0  0  0
 21 23  1  0  0  0  0
 23 24  1  0  0  0  0
 23 25  1  0  0  0  0
 25 26  1  0  0  0  0
 25 27  1  0  0  0  0
 25 28  1  0  0  0  0
M  END
$$$$

  -OEChem-03222214033D

 28 27  0     1  0  0  0  0  0999 V2000
   -2.7838   -4.1033    0.3999 H   0  0  0  0  0  0  0  0  0  0  0  0
   -2.7386   -3.1507   -0.1358 C   0  0  0  0  0  0  0  0  0  0  0  0
   -3.5559   -2.5139    0.2106 H   0  0  0  0  0  0  0  0  0  0  0  0
   -2.8615   -3.3425   -1.2044 H   0  0  0  0  0  0  0  0  0  0  0  0
   -1.4061   -2.4719    0.1178 C   0  0  0  0  0  0  0  0  0  0  0  0
   -0.5606   -3.0264    0.7954 O   0  0  0  0  0  0  0  0  0  0  0  0
   -1.1639   -1.2217   -0.4162 N   0  0  0  0  0  0  0  0  0  0  0  0
   -1.8581   -0.8826   -1.0782 H   0  0  0  0  0  0  0  0  0  0  0  0
    0.1646   -0.5747   -0.4328 C   0  0  1  0  0  0  0  0  0  0  0  0
    0.8593   -1.2339   -0.9661 H   0  0  0  0  0  0  0  0  0  0  0  0
    0.1008    0.7699   -1.1883 C   0  0  0  0  0  0  0  0  0  0  0  0
    1.0320    1.3270   -1.0318 H   0  0  0  0  0  0  0  0  0  0  0  0
    0.0587    0.5300   -2.2565 H   0  0  0  0  0  0  0  0  0  0  0  0
   -1.1040    1.6767   -0.8314 C   0  0  0  0  0  0  0  0  0  0  0  0
   -1.8746    1.1458   -0.2713 H   0  0  0  0  0  0  0  0  0  0  0  0
   -0.7577    2.4945   -0.1919 H   0  0  0  0  0  0  0  0  0  0  0  0
   -1.7534    2.2568   -2.0794 C   0  0  0  0  0  0  0  0  0  0  0  0
   -1.5392    3.4166   -2.3748 O   0  0  0  0  0  0  0  0  0  0  0  0
   -2.5480    1.4372   -2.8027 O   0  0  0  0  0  0  0  0  0  0  0  0
   -2.8556    1.9843   -3.5435 H   0  0  0  0  0  0  0  0  0  0  0  0
    0.7851   -0.3455    0.9655 C   0  0  0  0  0  0  0  0  0  0  0  0
    2.0025   -0.3551    1.0904 O   0  0  0  0  0  0  0  0  0  0  0  0
    0.0111    0.1636    1.9928 N   0  0  0  0  0  0  0  0  0  0  0  0
   -0.9901    0.0343    1.8928 H   0  0  0  0  0  0  0  0  0  0  0  0
    0.5498    0.4243    3.3221 C   0  0  0  0  0  0  0  0  0  0  0  0
    1.3675    1.1511    3.2693 H   0  0  0  0  0  0  0  0  0  0  0  0
   -0.2294    0.8315    3.9733 H   0  0  0  0  0  0  0  0  0  0  0  0
    0.9295   -0.5008    3.7688 H   0  0  0  0  0  0  0  0  0  0  0  0
  1  2  1  0  0  0  0
  2  3  1  0  0  0  0
  2  4  1  0  0  0  0
  2  5  1  0  0  0  0
  5  6  2  0  0  0  0
  5  7  1  0  0  0  0
  7  8  1  0  0  0  0
  7  9  1  0  0  0  0
  9 10  1  0  0  0  0
  9 11  1  0  0  0  0
  9 21  1  0  0  0  0
 11 12  1  0  0  0  0
 11 13  1  0  0  0  0
 11 14  1  0  0  0  0
 14 15  1  0  0  0  0
 14 16  1  0  0  0  0
 14 17  1  0  0  0  0
 17 18  2  0  0  0  0
 17 19  1  0  0  0  0
 19 20  1  0  0  0  0
 21 22  2  0  0  0  0
 21 23  1  0  0  0  0
 23 24  1  0  0  0  0
 23 25  1  0  0  0  0
 25 26  1  0  0  0  0
 25 27  1  0  0  0  0
 25 28  1  0  0  0  0
M  END
$$$$

  -OEChem-03222214033D

 28 27  0     1  0  0  0  0  0999 V2000
   -2.5233   -4.2749    0.3230 H   0  0  0  0  0  0  0  0  0  0  0  0
   -2.5269   -3.3189   -0.2085 C   0  0  0  0  0  0  0  0  0  0  0  0
   -3.3897   -2.7354    0.1218 H   0  0  0  0  0  0  0  0  0  0  0  0
   -2.6157   -3.5126   -1.2802 H   0  0  0  0  0  0  0  0  0  0  0  0
   -1.2454   -2.5588    0.0758 C   0  0  0  0  0  0  0  0  0  0  0  0
   -0.3791   -3.0617    0.7681 O   0  0  0  0  0  0  0  0  0  0  0  0
   -1.0748   -1.2897   -0.4381 N   0  0  0  0  0  0  0  0  0  0  0  0
   -1.7831   -0.9804   -1.1045 H   0  0  0  0  0  0  0  0  0  0  0  0
    0.2035   -0.5487   -0.4160 C   0  0  1  0  0  0  0  0  0  0  0  0
    0.9568   -1.1479   -0.9400 H   0  0  0  0  0  0  0  0  0  0  0  0
    0.0307    0.7806   -1.1771 C   0  0  0  0  0  0  0  0  0  0  0  0
    0.8970    1.4218   -0.9779 H   0  0  0  0  0  0  0  0  0  0  0  0
    0.0484    0.5594   -2.2502 H   0  0  0  0  0  0  0  0  0  0  0  0
   -1.2658    1.5532   -0.8268 C   0  0  0  0  0  0  0  0  0  0  0  0
   -1.8463    1.0683   -0.0392 H   0  0  0  0  0  0  0  0  0  0  0  0
   -0.9920    2.5415   -0.4465 H   0  0  0  0  0  0  0  0  0  0  0  0
   -2.1469    1.7445   -2.0509 C   0  0  0  0  0  0  0  0  0  0  0  0
   -2.7337    0.7589   -2.4657 O   0  0  0  0  0  0  0  0  0  0  0  0
   -2.2305    2.9640   -2.6227 O   0  0  0  0  0  0  0  0  0  0  0  0
   -2.8261    2.8556   -3.3802 H   0  0  0  0  0  0  0  0  0  0  0  0
    0.7780   -0.2874    0.9962 C   0  0  0  0  0  0  0  0  0  0  0  0
    1.9898   -0.1958    1.1422 O   0  0  0  0  0  0  0  0  0  0  0  0
   -0.0513    0.1551    2.0112 N   0  0  0  0  0  0  0  0  0  0  0  0
   -1.0346   -0.0675    1.8960 H   0  0  0  0  0  0  0  0  0  0  0  0
    0.4415    0.4417    3.3529 C   0  0  0  0  0  0  0  0  0  0  0  0
    1.1895    1.2414    3.3251 H   0  0  0  0  0  0  0  0  0  0  0  0
   -0.3817    0.7642    3.9973 H   0  0  0  0  0  0  0  0  0  0  0  0
    0.8979   -0.4520    3.7920 H   0  0  0  0  0  0  0  0  0  0  0  0
  1  2  1  0  0  0  0
  2  3  1  0  0  0  0
  2  4  1  0  0  0  0
  2  5  1  0  0  0  0
  5  6  2  0  0  0  0
  5  7  1  0  0  0  0
  7  8  1  0  0  0  0
  7  9  1  0  0  0  0
  9 10  1  0  0  0  0
  9 11  1  0  0  0  0
  9 21  1  0  0  0  0
 11 12  1  0  0  0  0
 11 13  1  0  0  0  0
 11 14  1  0  0  0  0
 14 15  1  0  0  0  0
 14 16  1  0  0  0  0
 14 17  1  0  0  0  0
 17 18  2  0  0  0  0
 17 19  1  0  0  0  0
 19 20  1  0  0  0  0
 21 22  2  0  0  0  0
 21 23  1  0  0  0  0
 23 24  1  0  0  0  0
 23 25  1  0  0  0  0
 25 26  1  0  0  0  0
 25 27  1  0  0  0  0
 25 28  1  0  0  0  0
M  END
$$$$

  -OEChem-03222214033D

 28 27  0     1  0  0  0  0  0999 V2000
   -2.5326   -4.2766    0.3000 H   0  0  0  0  0  0  0  0  0  0  0  0
   -2.5517   -3.2964   -0.1847 C   0  0  0  0  0  0  0  0  0  0  0  0
   -3.3920   -2.7224    0.2128 H   0  0  0  0  0  0  0  0  0  0  0  0
   -2.6926   -3.4374   -1.2592 H   0  0  0  0  0  0  0  0  0  0  0  0
   -1.2518   -2.5591    0.0748 C   0  0  0  0  0  0  0  0  0  0  0  0
   -0.3738   -3.0821    0.7375 O   0  0  0  0  0  0  0  0  0  0  0  0
   -1.0789   -1.2855   -0.4254 N   0  0  0  0  0  0  0  0  0  0  0  0
   -1.8116   -0.9495   -1.0551 H   0  0  0  0  0  0  0  0  0  0  0  0
    0.1983   -0.5457   -0.4098 C   0  0  1  0  0  0  0  0  0  0  0  0
    0.9441   -1.1499   -0.9389 H   0  0  0  0  0  0  0  0  0  0  0  0
    0.0381    0.7846   -1.1766 C   0  0  0  0  0  0  0  0  0  0  0  0
    0.9065    1.4169   -0.9577 H   0  0  0  0  0  0  0  0  0  0  0  0
    0.0664    0.5778   -2.2520 H   0  0  0  0  0  0  0  0  0  0  0  0
   -1.2524    1.5671   -0.8339 C   0  0  0  0  0  0  0  0  0  0  0  0
   -1.6867    1.2407    0.1135 H   0  0  0  0  0  0  0  0  0  0  0  0
   -0.9989    2.6248   -0.7187 H   0  0  0  0  0  0  0  0  0  0  0  0
   -2.2968    1.4593   -1.9383 C   0  0  0  0  0  0  0  0  0  0  0  0
   -2.8187    0.3704   -2.1166 O   0  0  0  0  0  0  0  0  0  0  0  0
   -2.5871    2.5559   -2.6695 O   0  0  0  0  0  0  0  0  0  0  0  0
   -3.2568    2.2729   -3.3111 H   0  0  0  0  0  0  0  0  0  0  0  0
    0.7873   -0.2998    0.9994 C   0  0  0  0  0  0  0  0  0  0  0  0
    2.0004   -0.2031    1.1310 O   0  0  0  0  0  0  0  0  0  0  0  0
   -0.0299    0.1315    2.0291 N   0  0  0  0  0  0  0  0  0  0  0  0
   -1.0126   -0.1008    1.9271 H   0  0  0  0  0  0  0  0  0  0  0  0
    0.4803    0.4100    3.3663 C   0  0  0  0  0  0  0  0  0  0  0  0
    1.2378    1.2002    3.3324 H   0  0  0  0  0  0  0  0  0  0  0  0
   -0.3319    0.7419    4.0199 H   0  0  0  0  0  0  0  0  0  0  0  0
    0.9306   -0.4897    3.7989 H   0  0  0  0  0  0  0  0  0  0  0  0
  1  2  1  0  0  0  0
  2  3  1  0  0  0  0
  2  4  1  0  0  0  0
  2  5  1  0  0  0  0
  5  6  2  0  0  0  0
  5  7  1  0  0  0  0
  7  8  1  0  0  0  0
  7  9  1  0  0  0  0
  9 10  1  0  0  0  0
  9 11  1  0  0  0  0
  9 21  1  0  0  0  0
 11 12  1  0  0  0  0
 11 13  1  0  0  0  0
 11 14  1  0  0  0  0
 14 15  1  0  0  0  0
 14 16  1  0  0  0  0
 14 17  1  0  0  0  0
 17 18  2  0  0  0  0
 17 19  1  0  0  0  0
 19 20  1  0  0  0  0
 21 22  2  0  0  0  0
 21 23  1  0  0  0  0
 23 24  1  0  0  0  0
 23 25  1  0  0  0  0
 25 26  1  0  0  0  0
 25 27  1  0  0  0  0
 25 28  1  0  0  0  0
M  END
$$$$

  -OEChem-03222214033D

 28 27  0     1  0  0  0  0  0999 V2000
   -2.5056   -4.3378    0.3097 H   0  0  0  0  0  0  0  0  0  0  0  0
   -2.5389   -3.3491   -0.1564 C   0  0  0  0  0  0  0  0  0  0  0  0
   -3.4019   -2.8038    0.2330 H   0  0  0  0  0  0  0  0  0  0  0  0
   -2.6521   -3.4728   -1.2363 H   0  0  0  0  0  0  0  0  0  0  0  0
   -1.2640   -2.5854    0.1464 C   0  0  0  0  0  0  0  0  0  0  0  0
   -0.4194   -3.0729    0.8762 O   0  0  0  0  0  0  0  0  0  0  0  0
   -1.0786   -1.3307   -0.3955 N   0  0  0  0  0  0  0  0  0  0  0  0
   -1.7623   -1.0555   -1.1038 H   0  0  0  0  0  0  0  0  0  0  0  0
    0.2042   -0.6061   -0.3958 C   0  0  1  0  0  0  0  0  0  0  0  0
    0.9451   -1.2421   -0.8938 H   0  0  0  0  0  0  0  0  0  0  0  0
    0.1032    0.7123   -1.2013 C   0  0  0  0  0  0  0  0  0  0  0  0
    0.9929    1.3128   -0.9796 H   0  0  0  0  0  0  0  0  0  0  0  0
    0.1471    0.4741   -2.2694 H   0  0  0  0  0  0  0  0  0  0  0  0
   -1.1539    1.5799   -0.9355 C   0  0  0  0  0  0  0  0  0  0  0  0
   -1.4561    1.5022    0.1110 H   0  0  0  0  0  0  0  0  0  0  0  0
   -0.8776    2.6236   -1.1102 H   0  0  0  0  0  0  0  0  0  0  0  0
   -2.3695    1.2937   -1.8210 C   0  0  0  0  0  0  0  0  0  0  0  0
   -2.5508    0.1736   -2.2696 O   0  0  0  0  0  0  0  0  0  0  0  0
   -3.2114    2.3230   -2.0495 O   0  0  0  0  0  0  0  0  0  0  0  0
   -3.9069    1.9688   -2.6250 H   0  0  0  0  0  0  0  0  0  0  0  0
    0.7777   -0.3261    1.0136 C   0  0  0  0  0  0  0  0  0  0  0  0
    1.9899   -0.2396    1.1609 O   0  0  0  0  0  0  0  0  0  0  0  0
   -0.0503    0.1438    2.0172 N   0  0  0  0  0  0  0  0  0  0  0  0
   -1.0329   -0.0850    1.9055 H   0  0  0  0  0  0  0  0  0  0  0  0
    0.4406    0.4475    3.3558 C   0  0  0  0  0  0  0  0  0  0  0  0
    1.2173    1.2185    3.3152 H   0  0  0  0  0  0  0  0  0  0  0  0
   -0.3760    0.8163    3.9837 H   0  0  0  0  0  0  0  0  0  0  0  0
    0.8607   -0.4504    3.8211 H   0  0  0  0  0  0  0  0  0  0  0  0
  1  2  1  0  0  0  0
  2  3  1  0  0  0  0
  2  4  1  0  0  0  0
  2  5  1  0  0  0  0
  5  6  2  0  0  0  0
  5  7  1  0  0  0  0
  7  8  1  0  0  0  0
  7  9  1  0  0  0  0
  9 10  1  0  0  0  0
  9 11  1  0  0  0  0
  9 21  1  0  0  0  0
 11 12  1  0  0  0  0
 11 13  1  0  0  0  0
 11 14  1  0  0  0  0
 14 15  1  0  0  0  0
 14 16  1  0  0  0  0
 14 17  1  0  0  0  0
 17 18  2  0  0  0  0
 17 19  1  0  0  0  0
 19 20  1  0  0  0  0
 21 22  2  0  0  0  0
 21 23  1  0  0  0  0
 23 24  1  0  0  0  0
 23 25  1  0  0  0  0
 25 26  1  0  0  0  0
 25 27  1  0  0  0  0
 25 28  1  0  0  0  0
M  END
$$$$

  -OEChem-03222214033D

 28 27  0     1  0  0  0  0  0999 V2000
   -2.5025   -4.3561    0.3202 H   0  0  0  0  0  0  0  0  0  0  0  0
   -2.5358   -3.3695   -0.1507 C   0  0  0  0  0  0  0  0  0  0  0  0
   -3.4099   -2.8299    0.2216 H   0  0  0  0  0  0  0  0  0  0  0  0
   -2.6298   -3.4997   -1.2316 H   0  0  0  0  0  0  0  0  0  0  0  0
   -1.2718   -2.5946    0.1699 C   0  0  0  0  0  0  0  0  0  0  0  0
   -0.4470   -3.0649    0.9327 O   0  0  0  0  0  0  0  0  0  0  0  0
   -1.0751   -1.3506   -0.3940 N   0  0  0  0  0  0  0  0  0  0  0  0
   -1.7276   -1.1087   -1.1422 H   0  0  0  0  0  0  0  0  0  0  0  0
    0.2132   -0.6352   -0.3909 C   0  0  1  0  0  0  0  0  0  0  0  0
    0.9553   -1.2855   -0.8675 H   0  0  0  0  0  0  0  0  0  0  0  0
    0.1481    0.6787   -1.2110 C   0  0  0  0  0  0  0  0  0  0  0  0
    1.0488    1.2626   -0.9892 H   0  0  0  0  0  0  0  0  0  0  0  0
    0.1983    0.4214   -2.2743 H   0  0  0  0  0  0  0  0  0  0  0  0
   -1.0895    1.5881   -0.9889 C   0  0  0  0  0  0  0  0  0  0  0  0
   -1.2466    1.7255    0.0833 H   0  0  0  0  0  0  0  0  0  0  0  0
   -0.8610    2.5721   -1.4067 H   0  0  0  0  0  0  0  0  0  0  0  0
   -2.4170    1.1482   -1.6118 C   0  0  0  0  0  0  0  0  0  0  0  0
   -2.4691    0.1591   -2.3244 O   0  0  0  0  0  0  0  0  0  0  0  0
   -3.4967    1.9042   -1.3240 O   0  0  0  0  0  0  0  0  0  0  0  0
   -4.2321    1.5086   -1.8171 H   0  0  0  0  0  0  0  0  0  0  0  0
    0.7670   -0.3358    1.0227 C   0  0  0  0  0  0  0  0  0  0  0  0
    1.9777   -0.2616    1.1887 O   0  0  0  0  0  0  0  0  0  0  0  0
   -0.0723    0.1569    2.0058 N   0  0  0  0  0  0  0  0  0  0  0  0
   -1.0567   -0.0558    1.8793 H   0  0  0  0  0  0  0  0  0  0  0  0
    0.4009    0.4767    3.3470 C   0  0  0  0  0  0  0  0  0  0  0  0
    1.1824    1.2429    3.3064 H   0  0  0  0  0  0  0  0  0  0  0  0
   -0.4224    0.8587    3.9580 H   0  0  0  0  0  0  0  0  0  0  0  0
    0.8093   -0.4169    3.8308 H   0  0  0  0  0  0  0  0  0  0  0  0
  1  2  1  0  0  0  0
  2  3  1  0  0  0  0
  2  4  1  0  0  0  0
  2  5  1  0  0  0  0
  5  6  2  0  0  0  0
  5  7  1  0  0  0  0
  7  8  1  0  0  0  0
  7  9  1  0  0  0  0
  9 10  1  0  0  0  0
  9 11  1  0  0  0  0
  9 21  1  0  0  0  0
 11 12  1  0  0  0  0
 11 13  1  0  0  0  0
 11 14  1  0  0  0  0
 14 15  1  0  0  0  0
 14 16  1  0  0  0  0
 14 17  1  0  0  0  0
 17 18  2  0  0  0  0
 17 19  1  0  0  0  0
 19 20  1  0  0  0  0
 21 22  2  0  0  0  0
 21 23  1  0  0  0  0
 23 24  1  0  0  0  0
 23 25  1  0  0  0  0
 25 26  1  0  0  0  0
 25 27  1  0  0  0  0
 25 28  1  0  0  0  0
M  END
$$$$

  -OEChem-03222214033D

 28 27  0     1  0  0  0  0  0999 V2000
   -2.4712   -4.3832    0.3392 H   0  0  0  0  0  0  0  0  0  0  0  0
   -2.5178   -3.3919   -0.1204 C   0  0  0  0  0  0  0  0  0  0  0  0
   -3.3826   -2.8571    0.2792 H   0  0  0  0  0  0  0  0  0  0  0  0
   -2.6385   -3.5106   -1.2000 H   0  0  0  0  0  0  0  0  0  0  0  0
   -1.2480   -2.6181    0.1777 C   0  0  0  0  0  0  0  0  0  0  0  0
   -0.4129   -3.0853    0.9308 O   0  0  0  0  0  0  0  0  0  0  0  0
   -1.0576   -1.3788   -0.3983 N   0  0  0  0  0  0  0  0  0  0  0  0
   -1.7195   -1.1410   -1.1392 H   0  0  0  0  0  0  0  0  0  0  0  0
    0.2238   -0.6513   -0.3990 C   0  0  1  0  0  0  0  0  0  0  0  0
    0.9745   -1.2988   -0.8664 H   0  0  0  0  0  0  0  0  0  0  0  0
    0.1662    0.6677   -1.2148 C   0  0  0  0  0  0  0  0  0  0  0  0
    1.0783    1.2407   -1.0118 H   0  0  0  0  0  0  0  0  0  0  0  0
    0.1992    0.3935   -2.2747 H   0  0  0  0  0  0  0  0  0  0  0  0
   -1.0549    1.6067   -1.0195 C   0  0  0  0  0  0  0  0  0  0  0  0
   -1.0631    1.9427    0.0208 H   0  0  0  0  0  0  0  0  0  0  0  0
   -0.9073    2.4937   -1.6408 H   0  0  0  0  0  0  0  0  0  0  0  0
   -2.4477    1.0640   -1.3394 C   0  0  0  0  0  0  0  0  0  0  0  0
   -2.5792    0.1927   -2.1834 O   0  0  0  0  0  0  0  0  0  0  0  0
   -3.4849    1.5882   -0.6536 O   0  0  0  0  0  0  0  0  0  0  0  0
   -4.2789    1.1644   -1.0144 H   0  0  0  0  0  0  0  0  0  0  0  0
    0.7594   -0.3369    1.0181 C   0  0  0  0  0  0  0  0  0  0  0  0
    1.9669   -0.2546    1.2011 O   0  0  0  0  0  0  0  0  0  0  0  0
   -0.0984    0.1550    1.9855 N   0  0  0  0  0  0  0  0  0  0  0  0
   -1.0820   -0.0480    1.8373 H   0  0  0  0  0  0  0  0  0  0  0  0
    0.3476    0.4835    3.3339 C   0  0  0  0  0  0  0  0  0  0  0  0
    1.1338    1.2454    3.3048 H   0  0  0  0  0  0  0  0  0  0  0  0
   -0.4871    0.8750    3.9231 H   0  0  0  0  0  0  0  0  0  0  0  0
    0.7401   -0.4079    3.8348 H   0  0  0  0  0  0  0  0  0  0  0  0
  1  2  1  0  0  0  0
  2  3  1  0  0  0  0
  2  4  1  0  0  0  0
  2  5  1  0  0  0  0
  5  6  2  0  0  0  0
  5  7  1  0  0  0  0
  7  8  1  0  0  0  0
  7  9  1  0  0  0  0
  9 10  1  0  0  0  0
  9 11  1  0  0  0  0
  9 21  1  0  0  0  0
 11 12  1  0  0  0  0
 11 13  1  0  0  0  0
 11 14  1  0  0  0  0
 14 15  1  0  0  0  0
 14 16  1  0  0  0  0
 14 17  1  0  0  0  0
 17 18  2  0  0  0  0
 17 19  1  0  0  0  0
 19 20  1  0  0  0  0
 21 22  2  0  0  0  0
 21 23  1  0  0  0  0
 23 24  1  0  0  0  0
 23 25  1  0  0  0  0
 25 26  1  0  0  0  0
 25 27  1  0  0  0  0
 25 28  1  0  0  0  0
M  END
$$$$

  -OEChem-03222214033D

 28 27  0     1  0  0  0  0  0999 V2000
   -2.2229   -4.4311    0.1792 H   0  0  0  0  0  0  0  0  0  0  0  0
   -2.3473   -3.4172   -0.2121 C   0  0  0  0  0  0  0  0  0  0  0  0
   -3.1459   -2.9213    0.3447 H   0  0  0  0  0  0  0  0  0  0  0  0
   -2.6282   -3.4791   -1.2661 H   0  0  0  0  0  0  0  0  0  0  0  0
   -1.0539   -2.6396   -0.0637 C   0  0  0  0  0  0  0  0  0  0  0  0
   -0.0758   -3.1754    0.4247 O   0  0  0  0  0  0  0  0  0  0  0  0
   -0.9929   -1.3303   -0.4976 N   0  0  0  0  0  0  0  0  0  0  0  0
   -1.7965   -0.9901   -1.0209 H   0  0  0  0  0  0  0  0  0  0  0  0
    0.2259   -0.5009   -0.4729 C   0  0  1  0  0  0  0  0  0  0  0  0
    0.9998   -1.0088   -1.0598 H   0  0  0  0  0  0  0  0  0  0  0  0
    0.0204    0.9213   -1.0599 C   0  0  0  0  0  0  0  0  0  0  0  0
    0.9196    1.5181   -0.8671 H   0  0  0  0  0  0  0  0  0  0  0  0
   -0.0353    0.7867   -2.1451 H   0  0  0  0  0  0  0  0  0  0  0  0
   -1.2251    1.7643   -0.6616 C   0  0  0  0  0  0  0  0  0  0  0  0
   -0.9494    2.3629    0.2123 H   0  0  0  0  0  0  0  0  0  0  0  0
   -1.4434    2.4668   -1.4703 H   0  0  0  0  0  0  0  0  0  0  0  0
   -2.5184    1.0394   -0.3076 C   0  0  0  0  0  0  0  0  0  0  0  0
   -2.8127    0.9164    0.8677 O   0  0  0  0  0  0  0  0  0  0  0  0
   -3.2520    0.5123   -1.3126 O   0  0  0  0  0  0  0  0  0  0  0  0
   -4.0638    0.1854   -0.8914 H   0  0  0  0  0  0  0  0  0  0  0  0
    0.7929   -0.3212    0.9559 C   0  0  0  0  0  0  0  0  0  0  0  0
    2.0010   -0.2090    1.1184 O   0  0  0  0  0  0  0  0  0  0  0  0
   -0.0566   -0.0234    2.0071 N   0  0  0  0  0  0  0  0  0  0  0  0
   -1.0580   -0.0387    1.8177 H   0  0  0  0  0  0  0  0  0  0  0  0
    0.4058    0.2651    3.3573 C   0  0  0  0  0  0  0  0  0  0  0  0
    1.0620    1.1417    3.3591 H   0  0  0  0  0  0  0  0  0  0  0  0
   -0.4461    0.4698    4.0127 H   0  0  0  0  0  0  0  0  0  0  0  0
    0.9573   -0.5900    3.7621 H   0  0  0  0  0  0  0  0  0  0  0  0
  1  2  1  0  0  0  0
  2  3  1  0  0  0  0
  2  4  1  0  0  0  0
  2  5  1  0  0  0  0
  5  6  2  0  0  0  0
  5  7  1  0  0  0  0
  7  8  1  0  0  0  0
  7  9  1  0  0  0  0
  9 10  1  0  0  0  0
  9 11  1  0  0  0  0
  9 21  1  0  0  0  0
 11 12  1  0  0  0  0
 11 13  1  0  0  0  0
 11 14  1  0  0  0  0
 14 15  1  0  0  0  0
 14 16  1  0  0  0  0
 14 17  1  0  0  0  0
 17 18  2  0  0  0  0
 17 19  1  0  0  0  0
 19 20  1  0  0  0  0
 21 22  2  0  0  0  0
 21 23  1  0  0  0  0
 23 24  1  0  0  0  0
 23 25  1  0  0  0  0
 25 26  1  0  0  0  0
 25 27  1  0  0  0  0
 25 28  1  0  0  0  0
M  END
$$$$

  -OEChem-03222214033D

 28 27  0     1  0  0  0  0  0999 V2000
   -2.3365   -4.3825    0.3763 H   0  0  0  0  0  0  0  0  0  0  0  0
   -2.4647   -3.3369    0.0819 C   0  0  0  0  0  0  0  0  0  0  0  0
   -3.0024   -2.8120    0.8751 H   0  0  0  0  0  0  0  0  0  0  0  0
   -3.0536   -3.2999   -0.8376 H   0  0  0  0  0  0  0  0  0  0  0  0
   -1.1120   -2.6889   -0.1426 C   0  0  0  0  0  0  0  0  0  0  0  0
   -0.0935   -3.3400    0.0084 O   0  0  0  0  0  0  0  0  0  0  0  0
   -1.0461   -1.3611   -0.5151 N   0  0  0  0  0  0  0  0  0  0  0  0
   -1.9224   -0.8567   -0.4301 H   0  0  0  0  0  0  0  0  0  0  0  0
    0.2015   -0.5794   -0.4322 C   0  0  1  0  0  0  0  0  0  0  0  0
    0.9552   -1.1371   -1.0013 H   0  0  0  0  0  0  0  0  0  0  0  0
    0.1199    0.8222   -1.0909 C   0  0  0  0  0  0  0  0  0  0  0  0
    1.0375    1.3695   -0.8460 H   0  0  0  0  0  0  0  0  0  0  0  0
    0.1569    0.6323   -2.1687 H   0  0  0  0  0  0  0  0  0  0  0  0
   -1.0886    1.7820   -0.8723 C   0  0  0  0  0  0  0  0  0  0  0  0
   -0.7554    2.5745   -0.1962 H   0  0  0  0  0  0  0  0  0  0  0  0
   -1.3178    2.2627   -1.8279 H   0  0  0  0  0  0  0  0  0  0  0  0
   -2.3985    1.2616   -0.2848 C   0  0  0  0  0  0  0  0  0  0  0  0
   -2.4192    0.8088    0.8461 O   0  0  0  0  0  0  0  0  0  0  0  0
   -3.4897    1.3090   -1.0769 O   0  0  0  0  0  0  0  0  0  0  0  0
   -4.2322    1.0048   -0.5321 H   0  0  0  0  0  0  0  0  0  0  0  0
    0.7926   -0.4702    0.9947 C   0  0  0  0  0  0  0  0  0  0  0  0
    2.0069   -0.4320    1.1435 O   0  0  0  0  0  0  0  0  0  0  0  0
   -0.0168   -0.1853    2.0786 N   0  0  0  0  0  0  0  0  0  0  0  0
   -1.0040   -0.0193    1.8819 H   0  0  0  0  0  0  0  0  0  0  0  0
    0.4970    0.1153    3.4081 C   0  0  0  0  0  0  0  0  0  0  0  0
    1.0963    1.0313    3.3891 H   0  0  0  0  0  0  0  0  0  0  0  0
   -0.3306    0.2550    4.1099 H   0  0  0  0  0  0  0  0  0  0  0  0
    1.1217   -0.7075    3.7713 H   0  0  0  0  0  0  0  0  0  0  0  0
  1  2  1  0  0  0  0
  2  3  1  0  0  0  0
  2  4  1  0  0  0  0
  2  5  1  0  0  0  0
  5  6  2  0  0  0  0
  5  7  1  0  0  0  0
  7  8  1  0  0  0  0
  7  9  1  0  0  0  0
  9 10  1  0  0  0  0
  9 11  1  0  0  0  0
  9 21  1  0  0  0  0
 11 12  1  0  0  0  0
 11 13  1  0  0  0  0
 11 14  1  0  0  0  0
 14 15  1  0  0  0  0
 14 16  1  0  0  0  0
 14 17  1  0  0  0  0
 17 18  2  0  0  0  0
 17 19  1  0  0  0  0
 19 20  1  0  0  0  0
 21 22  2  0  0  0  0
 21 23  1  0  0  0  0
 23 24  1  0  0  0  0
 23 25  1  0  0  0  0
 25 26  1  0  0  0  0
 25 27  1  0  0  0  0
 25 28  1  0  0  0  0
M  END
$$$$

  -OEChem-03222214033D

 28 27  0     1  0  0  0  0  0999 V2000
   -2.2868   -4.4108    0.3826 H   0  0  0  0  0  0  0  0  0  0  0  0
   -2.4244   -3.3662    0.0895 C   0  0  0  0  0  0  0  0  0  0  0  0
   -2.9508   -2.8426    0.8911 H   0  0  0  0  0  0  0  0  0  0  0  0
   -3.0298   -3.3322   -0.8194 H   0  0  0  0  0  0  0  0  0  0  0  0
   -1.0785   -2.7128   -0.1598 C   0  0  0  0  0  0  0  0  0  0  0  0
   -0.0555   -3.3659   -0.0509 O   0  0  0  0  0  0  0  0  0  0  0  0
   -1.0246   -1.3769   -0.5025 N   0  0  0  0  0  0  0  0  0  0  0  0
   -1.8945   -0.8741   -0.3452 H   0  0  0  0  0  0  0  0  0  0  0  0
    0.2131   -0.5873   -0.3904 C   0  0  1  0  0  0  0  0  0  0  0  0
    0.9740   -1.1425   -0.9521 H   0  0  0  0  0  0  0  0  0  0  0  0
    0.1184    0.7913   -1.0895 C   0  0  0  0  0  0  0  0  0  0  0  0
    1.0121    1.3589   -0.8056 H   0  0  0  0  0  0  0  0  0  0  0  0
    0.2219    0.5837   -2.1600 H   0  0  0  0  0  0  0  0  0  0  0  0
   -1.1078    1.7522   -0.9549 C   0  0  0  0  0  0  0  0  0  0  0  0
   -0.7292    2.7036   -0.5716 H   0  0  0  0  0  0  0  0  0  0  0  0
   -1.4665    1.9479   -1.9696 H   0  0  0  0  0  0  0  0  0  0  0  0
   -2.3549    1.4401   -0.1191 C   0  0  0  0  0  0  0  0  0  0  0  0
   -2.3173    0.6917    0.8404 O   0  0  0  0  0  0  0  0  0  0  0  0
   -3.4884    2.0545   -0.5175 O   0  0  0  0  0  0  0  0  0  0  0  0
   -4.1725    1.7913    0.1175 H   0  0  0  0  0  0  0  0  0  0  0  0
    0.8182   -0.4838    1.0323 C   0  0  0  0  0  0  0  0  0  0  0  0
    2.0342   -0.4322    1.1643 O   0  0  0  0  0  0  0  0  0  0  0  0
    0.0273   -0.2209    2.1343 N   0  0  0  0  0  0  0  0  0  0  0  0
   -0.9670   -0.0769    1.9569 H   0  0  0  0  0  0  0  0  0  0  0  0
    0.5587    0.0570    3.4622 C   0  0  0  0  0  0  0  0  0  0  0  0
    1.1400    0.9847    3.4563 H   0  0  0  0  0  0  0  0  0  0  0  0
   -0.2592    0.1628    4.1811 H   0  0  0  0  0  0  0  0  0  0  0  0
    1.2053   -0.7619    3.7948 H   0  0  0  0  0  0  0  0  0  0  0  0
  1  2  1  0  0  0  0
  2  3  1  0  0  0  0
  2  4  1  0  0  0  0
  2  5  1  0  0  0  0
  5  6  2  0  0  0  0
  5  7  1  0  0  0  0
  7  8  1  0  0  0  0
  7  9  1  0  0  0  0
  9 10  1  0  0  0  0
  9 11  1  0  0  0  0
  9 21  1  0  0  0  0
 11 12  1  0  0  0  0
 11 13  1  0  0  0  0
 11 14  1  0  0  0  0
 14 15  1  0  0  0  0
 14 16  1  0  0  0  0
 14 17  1  0  0  0  0
 17 18  2  0  0  0  0
 17 19  1  0  0  0  0
 19 20  1  0  0  0  0
 21 22  2  0  0  0  0
 21 23  1  0  0  0  0
 23 24  1  0  0  0  0
 23 25  1  0  0  0  0
 25 26  1  0  0  0  0
 25 27  1  0  0  0  0
 25 28  1  0  0  0  0
M  END
$$$$

  -OEChem-03222214033D

 28 27  0     1  0  0  0  0  0999 V2000
   -1.9442   -4.2771    1.0934 H   0  0  0  0  0  0  0  0  0  0  0  0
   -2.1314   -3.3565    0.5338 C   0  0  0  0  0  0  0  0  0  0  0  0
   -2.8475   -2.7456    1.0892 H   0  0  0  0  0  0  0  0  0  0  0  0
   -2.5613   -3.6142   -0.4371 H   0  0  0  0  0  0  0  0  0  0  0  0
   -0.8374   -2.5902    0.3387 C   0  0  0  0  0  0  0  0  0  0  0  0
    0.2218   -3.0649    0.7125 O   0  0  0  0  0  0  0  0  0  0  0  0
   -0.8683   -1.3293   -0.2175 N   0  0  0  0  0  0  0  0  0  0  0  0
   -1.7977   -0.9260   -0.3548 H   0  0  0  0  0  0  0  0  0  0  0  0
    0.3006   -0.4365   -0.2975 C   0  0  1  0  0  0  0  0  0  0  0  0
    1.0832   -1.0330   -0.7816 H   0  0  0  0  0  0  0  0  0  0  0  0
    0.0686    0.7659   -1.2508 C   0  0  0  0  0  0  0  0  0  0  0  0
    0.8944    1.4707   -1.1025 H   0  0  0  0  0  0  0  0  0  0  0  0
    0.1724    0.3872   -2.2734 H   0  0  0  0  0  0  0  0  0  0  0  0
   -1.2564    1.5724   -1.2002 C   0  0  0  0  0  0  0  0  0  0  0  0
   -1.0273    2.6362   -1.3058 H   0  0  0  0  0  0  0  0  0  0  0  0
   -1.8504    1.2942   -2.0766 H   0  0  0  0  0  0  0  0  0  0  0  0
   -2.1588    1.3915    0.0148 C   0  0  0  0  0  0  0  0  0  0  0  0
   -3.0264    0.5345   -0.0591 O   0  0  0  0  0  0  0  0  0  0  0  0
   -1.9585    2.1908    1.0944 O   0  0  0  0  0  0  0  0  0  0  0  0
   -1.1594    2.7185    0.9578 H   0  0  0  0  0  0  0  0  0  0  0  0
    0.9708   -0.0195    1.0427 C   0  0  0  0  0  0  0  0  0  0  0  0
    2.1063    0.4279    1.0038 O   0  0  0  0  0  0  0  0  0  0  0  0
    0.3337    0.3936    2.1923 N   0  0  0  0  0  0  0  0  0  0  0  0
    1.0008    0.7880    2.8512 H   0  0  0  0  0  0  0  0  0  0  0  0
   -0.7975   -0.3157    2.7773 C   0  0  0  0  0  0  0  0  0  0  0  0
   -1.0925    0.1669    3.7142 H   0  0  0  0  0  0  0  0  0  0  0  0
   -1.6657   -0.3125    2.1156 H   0  0  0  0  0  0  0  0  0  0  0  0
   -0.5246   -1.3534    2.9966 H   0  0  0  0  0  0  0  0  0  0  0  0
  1  2  1  0  0  0  0
  2  3  1  0  0  0  0
  2  4  1  0  0  0  0
  2  5  1  0  0  0  0
  5  6  2  0  0  0  0
  5  7  1  0  0  0  0
  7  8  1  0  0  0  0
  7  9  1  0  0  0  0
  9 10  1  0  0  0  0
  9 11  1  0  0  0  0
  9 21  1  0  0  0  0
 11 12  1  0  0  0  0
 11 13  1  0  0  0  0
 11 14  1  0  0  0  0
 14 15  1  0  0  0  0
 14 16  1  0  0  0  0
 14 17  1  0  0  0  0
 17 18  2  0  0  0  0
 17 19  1  0  0  0  0
 19 20  1  0  0  0  0
 21 22  2  0  0  0  0
 21 23  1  0  0  0  0
 23 24  1  0  0  0  0
 23 25  1  0  0  0  0
 25 26  1  0  0  0  0
 25 27  1  0  0  0  0
 25 28  1  0  0  0  0
M  END
$$$$

  -OEChem-03222214033D

 28 27  0     1  0  0  0  0  0999 V2000
   -2.8391   -4.2109    0.3490 H   0  0  0  0  0  0  0  0  0  0  0  0
   -2.7566   -3.2545   -0.1755 C   0  0  0  0  0  0  0  0  0  0  0  0
   -3.6000   -2.6225    0.1133 H   0  0  0  0  0  0  0  0  0  0  0  0
   -2.8003   -3.4402   -1.2514 H   0  0  0  0  0  0  0  0  0  0  0  0
   -1.4489   -2.5742    0.1825 C   0  0  0  0  0  0  0  0  0  0  0  0
   -0.6852   -3.0936    0.9753 O   0  0  0  0  0  0  0  0  0  0  0  0
   -1.1429   -1.3398   -0.3575 N   0  0  0  0  0  0  0  0  0  0  0  0
   -1.7687   -1.0247   -1.0942 H   0  0  0  0  0  0  0  0  0  0  0  0
    0.1948   -0.7133   -0.2731 C   0  0  1  0  0  0  0  0  0  0  0  0
    0.9064   -1.4397   -0.6839 H   0  0  0  0  0  0  0  0  0  0  0  0
    0.3438    0.5760   -1.1314 C   0  0  0  0  0  0  0  0  0  0  0  0
    1.3188    1.0325   -0.9095 H   0  0  0  0  0  0  0  0  0  0  0  0
    0.4119    0.2425   -2.1727 H   0  0  0  0  0  0  0  0  0  0  0  0
   -0.7841    1.6536   -1.1036 C   0  0  0  0  0  0  0  0  0  0  0  0
   -0.1938    2.1496   -0.3276 H   0  0  0  0  0  0  0  0  0  0  0  0
   -1.5493    0.8900   -1.2335 H   0  0  0  0  0  0  0  0  0  0  0  0
   -1.8751    2.2589   -0.2112 C   0  0  0  0  0  0  0  0  0  0  0  0
   -2.6909    2.9573   -0.7865 O   0  0  0  0  0  0  0  0  0  0  0  0
   -1.9203    1.9780    1.1240 O   0  0  0  0  0  0  0  0  0  0  0  0
   -1.1240    1.4814    1.3863 H   0  0  0  0  0  0  0  0  0  0  0  0
    0.6839   -0.4679    1.1732 C   0  0  0  0  0  0  0  0  0  0  0  0
    1.8831   -0.3378    1.3697 O   0  0  0  0  0  0  0  0  0  0  0  0
   -0.1931    0.0699    2.0994 N   0  0  0  0  0  0  0  0  0  0  0  0
   -1.1273   -0.3348    2.0420 H   0  0  0  0  0  0  0  0  0  0  0  0
    0.2602    0.4718    3.4288 C   0  0  0  0  0  0  0  0  0  0  0  0
    1.0262    1.2516    3.3572 H   0  0  0  0  0  0  0  0  0  0  0  0
   -0.5778    0.8688    4.0103 H   0  0  0  0  0  0  0  0  0  0  0  0
    0.6816   -0.3849    3.9659 H   0  0  0  0  0  0  0  0  0  0  0  0
  1  2  1  0  0  0  0
  2  3  1  0  0  0  0
  2  4  1  0  0  0  0
  2  5  1  0  0  0  0
  5  6  2  0  0  0  0
  5  7  1  0  0  0  0
  7  8  1  0  0  0  0
  7  9  1  0  0  0  0
  9 10  1  0  0  0  0
  9 11  1  0  0  0  0
  9 21  1  0  0  0  0
 11 12  1  0  0  0  0
 11 13  1  0  0  0  0
 11 14  1  0  0  0  0
 14 15  1  0  0  0  0
 14 16  1  0  0  0  0
 14 17  1  0  0  0  0
 17 18  2  0  0  0  0
 17 19  1  0  0  0  0
 19 20  1  0  0  0  0
 21 22  2  0  0  0  0
 21 23  1  0  0  0  0
 23 24  1  0  0  0  0
 23 25  1  0  0  0  0
 25 26  1  0  0  0  0
 25 27  1  0  0  0  0
 25 28  1  0  0  0  0
M  END
$$$$

  -OEChem-03222214033D

 28 27  0     1  0  0  0  0  0999 V2000
   -2.7134   -4.0733    0.3208 H   0  0  0  0  0  0  0  0  0  0  0  0
   -2.7120   -3.0483   -0.0607 C   0  0  0  0  0  0  0  0  0  0  0  0
   -3.3155   -2.4247    0.6032 H   0  0  0  0  0  0  0  0  0  0  0  0
   -3.1562   -3.0438   -1.0589 H   0  0  0  0  0  0  0  0  0  0  0  0
   -1.2922   -2.5183   -0.1243 C   0  0  0  0  0  0  0  0  0  0  0  0
   -0.3587   -3.2386    0.1799 O   0  0  0  0  0  0  0  0  0  0  0  0
   -1.0681   -1.2105   -0.5043 N   0  0  0  0  0  0  0  0  0  0  0  0
   -1.8954   -0.6217   -0.5643 H   0  0  0  0  0  0  0  0  0  0  0  0
    0.2398   -0.5422   -0.3789 C   0  0  1  0  0  0  0  0  0  0  0  0
    0.9607   -1.1917   -0.8900 H   0  0  0  0  0  0  0  0  0  0  0  0
    0.2610    0.7851   -1.1715 C   0  0  0  0  0  0  0  0  0  0  0  0
    1.1556    1.3403   -0.8659 H   0  0  0  0  0  0  0  0  0  0  0  0
    0.3857    0.5439   -2.2324 H   0  0  0  0  0  0  0  0  0  0  0  0
   -0.9591    1.7287   -1.0442 C   0  0  0  0  0  0  0  0  0  0  0  0
   -0.6946    2.6984   -1.4768 H   0  0  0  0  0  0  0  0  0  0  0  0
   -1.7762    1.3246   -1.6469 H   0  0  0  0  0  0  0  0  0  0  0  0
   -1.5021    1.9665    0.3590 C   0  0  0  0  0  0  0  0  0  0  0  0
   -1.1180    2.9403    0.9752 O   0  0  0  0  0  0  0  0  0  0  0  0
   -2.4354    1.1095    0.8367 O   0  0  0  0  0  0  0  0  0  0  0  0
   -2.7215    1.5156    1.6731 H   0  0  0  0  0  0  0  0  0  0  0  0
    0.8120   -0.4437    1.0559 C   0  0  0  0  0  0  0  0  0  0  0  0
    2.0238   -0.4699    1.2213 O   0  0  0  0  0  0  0  0  0  0  0  0
    0.0106   -0.0632    2.1147 N   0  0  0  0  0  0  0  0  0  0  0  0
   -0.9879   -0.0164    1.9391 H   0  0  0  0  0  0  0  0  0  0  0  0
    0.5176    0.2058    3.4542 C   0  0  0  0  0  0  0  0  0  0  0  0
    1.2370    1.0313    3.4322 H   0  0  0  0  0  0  0  0  0  0  0  0
   -0.3035    0.4812    4.1227 H   0  0  0  0  0  0  0  0  0  0  0  0
    1.0128   -0.6823    3.8610 H   0  0  0  0  0  0  0  0  0  0  0  0
  1  2  1  0  0  0  0
  2  3  1  0  0  0  0
  2  4  1  0  0  0  0
  2  5  1  0  0  0  0
  5  6  2  0  0  0  0
  5  7  1  0  0  0  0
  7  8  1  0  0  0  0
  7  9  1  0  0  0  0
  9 10  1  0  0  0  0
  9 11  1  0  0  0  0
  9 21  1  0  0  0  0
 11 12  1  0  0  0  0
 11 13  1  0  0  0  0
 11 14  1  0  0  0  0
 14 15  1  0  0  0  0
 14 16  1  0  0  0  0
 14 17  1  0  0  0  0
 17 18  2  0  0  0  0
 17 19  1  0  0  0  0
 19 20  1  0  0  0  0
 21 22  2  0  0  0  0
 21 23  1  0  0  0  0
 23 24  1  0  0  0  0
 23 25  1  0  0  0  0
 25 26  1  0  0  0  0
 25 27  1  0  0  0  0
 25 28  1  0  0  0  0
M  END
$$$$

  -OEChem-03222214033D

 28 27  0     1  0  0  0  0  0999 V2000
   -2.7255   -4.0925    0.3336 H   0  0  0  0  0  0  0  0  0  0  0  0
   -2.7101   -3.0791   -0.0776 C   0  0  0  0  0  0  0  0  0  0  0  0
   -3.3705   -2.4472    0.5211 H   0  0  0  0  0  0  0  0  0  0  0  0
   -3.0786   -3.1111   -1.1056 H   0  0  0  0  0  0  0  0  0  0  0  0
   -1.2971   -2.5280   -0.0514 C   0  0  0  0  0  0  0  0  0  0  0  0
   -0.3813   -3.2195    0.3553 O   0  0  0  0  0  0  0  0  0  0  0  0
   -1.0579   -1.2369   -0.4780 N   0  0  0  0  0  0  0  0  0  0  0  0
   -1.8738   -0.6776   -0.7050 H   0  0  0  0  0  0  0  0  0  0  0  0
    0.2477   -0.5615   -0.3585 C   0  0  1  0  0  0  0  0  0  0  0  0
    0.9785   -1.2279   -0.8327 H   0  0  0  0  0  0  0  0  0  0  0  0
    0.2806    0.7395   -1.1944 C   0  0  0  0  0  0  0  0  0  0  0  0
    1.1745    1.3089   -0.9132 H   0  0  0  0  0  0  0  0  0  0  0  0
    0.4018    0.4573   -2.2453 H   0  0  0  0  0  0  0  0  0  0  0  0
   -0.9500    1.6700   -1.0997 C   0  0  0  0  0  0  0  0  0  0  0  0
   -0.7797    2.5329   -1.7501 H   0  0  0  0  0  0  0  0  0  0  0  0
   -1.8340    1.1554   -1.4830 H   0  0  0  0  0  0  0  0  0  0  0  0
   -1.2627    2.1995    0.2925 C   0  0  0  0  0  0  0  0  0  0  0  0
   -0.6534    3.1683    0.7002 O   0  0  0  0  0  0  0  0  0  0  0  0
   -2.2357    1.5817    1.0011 O   0  0  0  0  0  0  0  0  0  0  0  0
   -2.3187    2.1200    1.8065 H   0  0  0  0  0  0  0  0  0  0  0  0
    0.7908   -0.4064    1.0829 C   0  0  0  0  0  0  0  0  0  0  0  0
    1.9986   -0.4404    1.2744 O   0  0  0  0  0  0  0  0  0  0  0  0
   -0.0284    0.0140    2.1131 N   0  0  0  0  0  0  0  0  0  0  0  0
   -1.0204    0.0954    1.9085 H   0  0  0  0  0  0  0  0  0  0  0  0
    0.4573    0.3303    3.4500 C   0  0  0  0  0  0  0  0  0  0  0  0
    1.1595    1.1699    3.4131 H   0  0  0  0  0  0  0  0  0  0  0  0
   -0.3771    0.6054    4.1018 H   0  0  0  0  0  0  0  0  0  0  0  0
    0.9662   -0.5356    3.8866 H   0  0  0  0  0  0  0  0  0  0  0  0
  1  2  1  0  0  0  0
  2  3  1  0  0  0  0
  2  4  1  0  0  0  0
  2  5  1  0  0  0  0
  5  6  2  0  0  0  0
  5  7  1  0  0  0  0
  7  8  1  0  0  0  0
  7  9  1  0  0  0  0
  9 10  1  0  0  0  0
  9 11  1  0  0  0  0
  9 21  1  0  0  0  0
 11 12  1  0  0  0  0
 11 13  1  0  0  0  0
 11 14  1  0  0  0  0
 14 15  1  0  0  0  0
 14 16  1  0  0  0  0
 14 17  1  0  0  0  0
 17 18  2  0  0  0  0
 17 19  1  0  0  0  0
 19 20  1  0  0  0  0
 21 22  2  0  0  0  0
 21 23  1  0  0  0  0
 23 24  1  0  0  0  0
 23 25  1  0  0  0  0
 25 26  1  0  0  0  0
 25 27  1  0  0  0  0
 25 28  1  0  0  0  0
M  END
$$$$

  -OEChem-03222214033D

 28 27  0     1  0  0  0  0  0999 V2000
   -2.7374   -4.1283    0.2910 H   0  0  0  0  0  0  0  0  0  0  0  0
   -2.7075   -3.1277   -0.1500 C   0  0  0  0  0  0  0  0  0  0  0  0
   -3.4580   -2.5047    0.3422 H   0  0  0  0  0  0  0  0  0  0  0  0
   -2.9465   -3.2057   -1.2133 H   0  0  0  0  0  0  0  0  0  0  0  0
   -1.3290   -2.5202    0.0301 C   0  0  0  0  0  0  0  0  0  0  0  0
   -0.4576   -3.1506    0.5998 O   0  0  0  0  0  0  0  0  0  0  0  0
   -1.0698   -1.2527   -0.4534 N   0  0  0  0  0  0  0  0  0  0  0  0
   -1.8198   -0.7938   -0.9586 H   0  0  0  0  0  0  0  0  0  0  0  0
    0.2413   -0.5821   -0.3589 C   0  0  1  0  0  0  0  0  0  0  0  0
    0.9746   -1.2586   -0.8137 H   0  0  0  0  0  0  0  0  0  0  0  0
    0.2702    0.7144   -1.2033 C   0  0  0  0  0  0  0  0  0  0  0  0
    1.1797    1.2785   -0.9630 H   0  0  0  0  0  0  0  0  0  0  0  0
    0.3537    0.4145   -2.2530 H   0  0  0  0  0  0  0  0  0  0  0  0
   -0.9571    1.6488   -1.0867 C   0  0  0  0  0  0  0  0  0  0  0  0
   -0.9148    2.3746   -1.9039 H   0  0  0  0  0  0  0  0  0  0  0  0
   -1.8889    1.0936   -1.2065 H   0  0  0  0  0  0  0  0  0  0  0  0
   -1.0100    2.4430    0.2113 C   0  0  0  0  0  0  0  0  0  0  0  0
   -0.2021    3.3345    0.3849 O   0  0  0  0  0  0  0  0  0  0  0  0
   -1.9718    2.1261    1.1066 O   0  0  0  0  0  0  0  0  0  0  0  0
   -1.8405    2.7592    1.8319 H   0  0  0  0  0  0  0  0  0  0  0  0
    0.7646   -0.3715    1.0828 C   0  0  0  0  0  0  0  0  0  0  0  0
    1.9675   -0.4296    1.2984 O   0  0  0  0  0  0  0  0  0  0  0  0
   -0.0664    0.0990    2.0822 N   0  0  0  0  0  0  0  0  0  0  0  0
   -1.0525    0.1984    1.8570 H   0  0  0  0  0  0  0  0  0  0  0  0
    0.3942    0.4109    3.4288 C   0  0  0  0  0  0  0  0  0  0  0  0
    1.1485    1.2045    3.4016 H   0  0  0  0  0  0  0  0  0  0  0  0
   -0.4429    0.7497    4.0465 H   0  0  0  0  0  0  0  0  0  0  0  0
    0.8328   -0.4766    3.8972 H   0  0  0  0  0  0  0  0  0  0  0  0
  1  2  1  0  0  0  0
  2  3  1  0  0  0  0
  2  4  1  0  0  0  0
  2  5  1  0  0  0  0
  5  6  2  0  0  0  0
  5  7  1  0  0  0  0
  7  8  1  0  0  0  0
  7  9  1  0  0  0  0
  9 10  1  0  0  0  0
  9 11  1  0  0  0  0
  9 21  1  0  0  0  0
 11 12  1  0  0  0  0
 11 13  1  0  0  0  0
 11 14  1  0  0  0  0
 14 15  1  0  0  0  0
 14 16  1  0  0  0  0
 14 17  1  0  0  0  0
 17 18  2  0  0  0  0
 17 19  1  0  0  0  0
 19 20  1  0  0  0  0
 21 22  2  0  0  0  0
 21 23  1  0  0  0  0
 23 24  1  0  0  0  0
 23 25  1  0  0  0  0
 25 26  1  0  0  0  0
 25 27  1  0  0  0  0
 25 28  1  0  0  0  0
M  END
$$$$

  -OEChem-03222214033D

 28 27  0     1  0  0  0  0  0999 V2000
   -2.7007   -4.1816    0.2642 H   0  0  0  0  0  0  0  0  0  0  0  0
   -2.6765   -3.1905   -0.1979 C   0  0  0  0  0  0  0  0  0  0  0  0
   -3.4864   -2.5882    0.2202 H   0  0  0  0  0  0  0  0  0  0  0  0
   -2.8295   -3.3015   -1.2739 H   0  0  0  0  0  0  0  0  0  0  0  0
   -1.3409   -2.5236    0.0707 C   0  0  0  0  0  0  0  0  0  0  0  0
   -0.5018   -3.0976    0.7398 O   0  0  0  0  0  0  0  0  0  0  0  0
   -1.0818   -1.2726   -0.4550 N   0  0  0  0  0  0  0  0  0  0  0  0
   -1.7722   -0.9056   -1.1014 H   0  0  0  0  0  0  0  0  0  0  0  0
    0.2302   -0.6000   -0.3725 C   0  0  1  0  0  0  0  0  0  0  0  0
    0.9703   -1.2747   -0.8186 H   0  0  0  0  0  0  0  0  0  0  0  0
    0.2449    0.7038   -1.2049 C   0  0  0  0  0  0  0  0  0  0  0  0
    1.1638    1.2641   -0.9929 H   0  0  0  0  0  0  0  0  0  0  0  0
    0.2985    0.4064   -2.2571 H   0  0  0  0  0  0  0  0  0  0  0  0
   -0.9880    1.6298   -1.0532 C   0  0  0  0  0  0  0  0  0  0  0  0
   -1.1121    2.1931   -1.9825 H   0  0  0  0  0  0  0  0  0  0  0  0
   -1.9091    1.0660   -0.9003 H   0  0  0  0  0  0  0  0  0  0  0  0
   -0.8358    2.6547    0.0646 C   0  0  0  0  0  0  0  0  0  0  0  0
    0.0145    3.5177   -0.0418 O   0  0  0  0  0  0  0  0  0  0  0  0
   -1.6745    2.5633    1.1196 O   0  0  0  0  0  0  0  0  0  0  0  0
   -1.4112    3.2946    1.7016 H   0  0  0  0  0  0  0  0  0  0  0  0
    0.7391   -0.3435    1.0667 C   0  0  0  0  0  0  0  0  0  0  0  0
    1.9402   -0.3919    1.2948 O   0  0  0  0  0  0  0  0  0  0  0  0
   -0.1025    0.1608    2.0408 N   0  0  0  0  0  0  0  0  0  0  0  0
   -1.0848    0.2604    1.8026 H   0  0  0  0  0  0  0  0  0  0  0  0
    0.3444    0.5126    3.3821 C   0  0  0  0  0  0  0  0  0  0  0  0
    1.0979    1.3060    3.3389 H   0  0  0  0  0  0  0  0  0  0  0  0
   -0.4992    0.8683    3.9810 H   0  0  0  0  0  0  0  0  0  0  0  0
    0.7795   -0.3599    3.8810 H   0  0  0  0  0  0  0  0  0  0  0  0
  1  2  1  0  0  0  0
  2  3  1  0  0  0  0
  2  4  1  0  0  0  0
  2  5  1  0  0  0  0
  5  6  2  0  0  0  0
  5  7  1  0  0  0  0
  7  8  1  0  0  0  0
  7  9  1  0  0  0  0
  9 10  1  0  0  0  0
  9 11  1  0  0  0  0
  9 21  1  0  0  0  0
 11 12  1  0  0  0  0
 11 13  1  0  0  0  0
 11 14  1  0  0  0  0
 14 15  1  0  0  0  0
 14 16  1  0  0  0  0
 14 17  1  0  0  0  0
 17 18  2  0  0  0  0
 17 19  1  0  0  0  0
 19 20  1  0  0  0  0
 21 22  2  0  0  0  0
 21 23  1  0  0  0  0
 23 24  1  0  0  0  0
 23 25  1  0  0  0  0
 25 26  1  0  0  0  0
 25 27  1  0  0  0  0
 25 28  1  0  0  0  0
M  END
$$$$

  -OEChem-03222214033D

 28 27  0     1  0  0  0  0  0999 V2000
   -2.6914   -4.1793    0.3325 H   0  0  0  0  0  0  0  0  0  0  0  0
   -2.6455   -3.2257   -0.2015 C   0  0  0  0  0  0  0  0  0  0  0  0
   -3.4684   -2.5931    0.1397 H   0  0  0  0  0  0  0  0  0  0  0  0
   -2.7588   -3.4169   -1.2712 H   0  0  0  0  0  0  0  0  0  0  0  0
   -1.3181   -2.5421    0.0663 C   0  0  0  0  0  0  0  0  0  0  0  0
   -0.4814   -3.0929    0.7574 O   0  0  0  0  0  0  0  0  0  0  0  0
   -1.0662   -1.2982   -0.4796 N   0  0  0  0  0  0  0  0  0  0  0  0
   -1.7477   -0.9554   -1.1487 H   0  0  0  0  0  0  0  0  0  0  0  0
    0.2381   -0.6099   -0.3952 C   0  0  1  0  0  0  0  0  0  0  0  0
    0.9948   -1.2694   -0.8360 H   0  0  0  0  0  0  0  0  0  0  0  0
    0.2258    0.7031   -1.2111 C   0  0  0  0  0  0  0  0  0  0  0  0
    1.1394    1.2725   -1.0006 H   0  0  0  0  0  0  0  0  0  0  0  0
    0.2761    0.4226   -2.2681 H   0  0  0  0  0  0  0  0  0  0  0  0
   -1.0252    1.6020   -1.0301 C   0  0  0  0  0  0  0  0  0  0  0  0
   -1.3430    1.9661   -2.0109 H   0  0  0  0  0  0  0  0  0  0  0  0
   -1.8685    1.0600   -0.5997 H   0  0  0  0  0  0  0  0  0  0  0  0
   -0.7431    2.8252   -0.1652 C   0  0  0  0  0  0  0  0  0  0  0  0
    0.0006    3.6867   -0.5952 O   0  0  0  0  0  0  0  0  0  0  0  0
   -1.3510    2.8995    1.0382 O   0  0  0  0  0  0  0  0  0  0  0  0
   -1.0281    3.7286    1.4257 H   0  0  0  0  0  0  0  0  0  0  0  0
    0.7240   -0.3236    1.0461 C   0  0  0  0  0  0  0  0  0  0  0  0
    1.9228   -0.3386    1.2908 O   0  0  0  0  0  0  0  0  0  0  0  0
   -0.1427    0.1884    1.9940 N   0  0  0  0  0  0  0  0  0  0  0  0
   -1.1238    0.2507    1.7432 H   0  0  0  0  0  0  0  0  0  0  0  0
    0.2769    0.5957    3.3281 C   0  0  0  0  0  0  0  0  0  0  0  0
    1.0248    1.3932    3.2679 H   0  0  0  0  0  0  0  0  0  0  0  0
   -0.5804    0.9684    3.8964 H   0  0  0  0  0  0  0  0  0  0  0  0
    0.7090   -0.2533    3.8682 H   0  0  0  0  0  0  0  0  0  0  0  0
  1  2  1  0  0  0  0
  2  3  1  0  0  0  0
  2  4  1  0  0  0  0
  2  5  1  0  0  0  0
  5  6  2  0  0  0  0
  5  7  1  0  0  0  0
  7  8  1  0  0  0  0
  7  9  1  0  0  0  0
  9 10  1  0  0  0  0
  9 11  1  0  0  0  0
  9 21  1  0  0  0  0
 11 12  1  0  0  0  0
 11 13  1  0  0  0  0
 11 14  1  0  0  0  0
 14 15  1  0  0  0  0
 14 16  1  0  0  0  0
 14 17  1  0  0  0  0
 17 18  2  0  0  0  0
 17 19  1  0  0  0  0
 19 20  1  0  0  0  0
 21 22  2  0  0  0  0
 21 23  1  0  0  0  0
 23 24  1  0  0  0  0
 23 25  1  0  0  0  0
 25 26  1  0  0  0  0
 25 27  1  0  0  0  0
 25 28  1  0  0  0  0
M  END
$$$$

  -OEChem-03222214033D

 28 27  0     1  0  0  0  0  0999 V2000
   -2.6521   -4.2057    0.3317 H   0  0  0  0  0  0  0  0  0  0  0  0
   -2.6096   -3.2619   -0.2196 C   0  0  0  0  0  0  0  0  0  0  0  0
   -3.4541   -2.6395    0.0854 H   0  0  0  0  0  0  0  0  0  0  0  0
   -2.6881   -3.4758   -1.2882 H   0  0  0  0  0  0  0  0  0  0  0  0
   -1.3041   -2.5466    0.0718 C   0  0  0  0  0  0  0  0  0  0  0  0
   -0.4760   -3.0676    0.7954 O   0  0  0  0  0  0  0  0  0  0  0  0
   -1.0642   -1.3057   -0.4861 N   0  0  0  0  0  0  0  0  0  0  0  0
   -1.7337   -0.9921   -1.1818 H   0  0  0  0  0  0  0  0  0  0  0  0
    0.2332   -0.6032   -0.4046 C   0  0  1  0  0  0  0  0  0  0  0  0
    0.9991   -1.2533   -0.8435 H   0  0  0  0  0  0  0  0  0  0  0  0
    0.1956    0.7081   -1.2201 C   0  0  0  0  0  0  0  0  0  0  0  0
    1.0954    1.2934   -0.9931 H   0  0  0  0  0  0  0  0  0  0  0  0
    0.2595    0.4470   -2.2813 H   0  0  0  0  0  0  0  0  0  0  0  0
   -1.0746    1.5737   -1.0184 C   0  0  0  0  0  0  0  0  0  0  0  0
   -1.5918    1.6949   -1.9741 H   0  0  0  0  0  0  0  0  0  0  0  0
   -1.7755    1.1093   -0.3221 H   0  0  0  0  0  0  0  0  0  0  0  0
   -0.7376    2.9580   -0.4774 C   0  0  0  0  0  0  0  0  0  0  0  0
   -0.1978    3.7557   -1.2211 O   0  0  0  0  0  0  0  0  0  0  0  0
   -1.0588    3.2338    0.8044 O   0  0  0  0  0  0  0  0  0  0  0  0
   -0.7354    4.1362    0.9538 H   0  0  0  0  0  0  0  0  0  0  0  0
    0.7133   -0.2974    1.0348 C   0  0  0  0  0  0  0  0  0  0  0  0
    1.9131   -0.2725    1.2744 O   0  0  0  0  0  0  0  0  0  0  0  0
   -0.1647    0.2152    1.9722 N   0  0  0  0  0  0  0  0  0  0  0  0
   -1.1531    0.1687    1.7511 H   0  0  0  0  0  0  0  0  0  0  0  0
    0.2440    0.6366    3.3054 C   0  0  0  0  0  0  0  0  0  0  0  0
    0.9874    1.4383    3.2423 H   0  0  0  0  0  0  0  0  0  0  0  0
   -0.6187    1.0104    3.8647 H   0  0  0  0  0  0  0  0  0  0  0  0
    0.6780   -0.2045    3.8565 H   0  0  0  0  0  0  0  0  0  0  0  0
  1  2  1  0  0  0  0
  2  3  1  0  0  0  0
  2  4  1  0  0  0  0
  2  5  1  0  0  0  0
  5  6  2  0  0  0  0
  5  7  1  0  0  0  0
  7  8  1  0  0  0  0
  7  9  1  0  0  0  0
  9 10  1  0  0  0  0
  9 11  1  0  0  0  0
  9 21  1  0  0  0  0
 11 12  1  0  0  0  0
 11 13  1  0  0  0  0
 11 14  1  0  0  0  0
 14 15  1  0  0  0  0
 14 16  1  0  0  0  0
 14 17  1  0  0  0  0
 17 18  2  0  0  0  0
 17 19  1  0  0  0  0
 19 20  1  0  0  0  0
 21 22  2  0  0  0  0
 21 23  1  0  0  0  0
 23 24  1  0  0  0  0
 23 25  1  0  0  0  0
 25 26  1  0  0  0  0
 25 27  1  0  0  0  0
 25 28  1  0  0  0  0
M  END
$$$$

  -OEChem-03222214033D

 28 27  0     1  0  0  0  0  0999 V2000
   -2.6026   -4.2399    0.2899 H   0  0  0  0  0  0  0  0  0  0  0  0
   -2.5851   -3.2767   -0.2284 C   0  0  0  0  0  0  0  0  0  0  0  0
   -3.4416   -2.6845    0.1020 H   0  0  0  0  0  0  0  0  0  0  0  0
   -2.6656   -3.4557   -1.3032 H   0  0  0  0  0  0  0  0  0  0  0  0
   -1.2942   -2.5422    0.0804 C   0  0  0  0  0  0  0  0  0  0  0  0
   -0.4694   -3.0483    0.8184 O   0  0  0  0  0  0  0  0  0  0  0  0
   -1.0649   -1.2982   -0.4747 N   0  0  0  0  0  0  0  0  0  0  0  0
   -1.7350   -0.9917   -1.1730 H   0  0  0  0  0  0  0  0  0  0  0  0
    0.2284   -0.5878   -0.3998 C   0  0  1  0  0  0  0  0  0  0  0  0
    0.9949   -1.2340   -0.8428 H   0  0  0  0  0  0  0  0  0  0  0  0
    0.1714    0.7138   -1.2279 C   0  0  0  0  0  0  0  0  0  0  0  0
    1.0560    1.3143   -0.9817 H   0  0  0  0  0  0  0  0  0  0  0  0
    0.2517    0.4641   -2.2909 H   0  0  0  0  0  0  0  0  0  0  0  0
   -1.1122    1.5540   -1.0195 C   0  0  0  0  0  0  0  0  0  0  0  0
   -1.7870    1.4267   -1.8698 H   0  0  0  0  0  0  0  0  0  0  0  0
   -1.6451    1.2323   -0.1221 H   0  0  0  0  0  0  0  0  0  0  0  0
   -0.8016    3.0367   -0.8504 C   0  0  0  0  0  0  0  0  0  0  0  0
   -0.2819    3.6289   -1.7781 O   0  0  0  0  0  0  0  0  0  0  0  0
   -1.1228    3.6244    0.3216 O   0  0  0  0  0  0  0  0  0  0  0  0
   -0.8250    4.5431    0.2317 H   0  0  0  0  0  0  0  0  0  0  0  0
    0.7222   -0.2801    1.0351 C   0  0  0  0  0  0  0  0  0  0  0  0
    1.9248   -0.2359    1.2568 O   0  0  0  0  0  0  0  0  0  0  0  0
   -0.1493    0.2256    1.9829 N   0  0  0  0  0  0  0  0  0  0  0  0
   -1.1380    0.0881    1.8035 H   0  0  0  0  0  0  0  0  0  0  0  0
    0.2740    0.6021    3.3258 C   0  0  0  0  0  0  0  0  0  0  0  0
    1.0452    1.3786    3.2814 H   0  0  0  0  0  0  0  0  0  0  0  0
   -0.5747    0.9939    3.8942 H   0  0  0  0  0  0  0  0  0  0  0  0
    0.6779   -0.2665    3.8566 H   0  0  0  0  0  0  0  0  0  0  0  0
  1  2  1  0  0  0  0
  2  3  1  0  0  0  0
  2  4  1  0  0  0  0
  2  5  1  0  0  0  0
  5  6  2  0  0  0  0
  5  7  1  0  0  0  0
  7  8  1  0  0  0  0
  7  9  1  0  0  0  0
  9 10  1  0  0  0  0
  9 11  1  0  0  0  0
  9 21  1  0  0  0  0
 11 12  1  0  0  0  0
 11 13  1  0  0  0  0
 11 14  1  0  0  0  0
 14 15  1  0  0  0  0
 14 16  1  0  0  0  0
 14 17  1  0  0  0  0
 17 18  2  0  0  0  0
 17 19  1  0  0  0  0
 19 20  1  0  0  0  0
 21 22  2  0  0  0  0
 21 23  1  0  0  0  0
 23 24  1  0  0  0  0
 23 25  1  0  0  0  0
 25 26  1  0  0  0  0
 25 27  1  0  0  0  0
 25 28  1  0  0  0  0
M  END
$$$$

  -OEChem-03222214033D

 28 27  0     1  0  0  0  0  0999 V2000
   -2.5932   -4.2391    0.2935 H   0  0  0  0  0  0  0  0  0  0  0  0
   -2.5810   -3.2724   -0.2183 C   0  0  0  0  0  0  0  0  0  0  0  0
   -3.4328   -2.6816    0.1269 H   0  0  0  0  0  0  0  0  0  0  0  0
   -2.6747   -3.4439   -1.2934 H   0  0  0  0  0  0  0  0  0  0  0  0
   -1.2860   -2.5407    0.0798 C   0  0  0  0  0  0  0  0  0  0  0  0
   -0.4543   -3.0497    0.8080 O   0  0  0  0  0  0  0  0  0  0  0  0
   -1.0652   -1.2909   -0.4648 N   0  0  0  0  0  0  0  0  0  0  0  0
   -1.7414   -0.9810   -1.1556 H   0  0  0  0  0  0  0  0  0  0  0  0
    0.2267   -0.5781   -0.3970 C   0  0  1  0  0  0  0  0  0  0  0  0
    0.9895   -1.2222   -0.8499 H   0  0  0  0  0  0  0  0  0  0  0  0
    0.1589    0.7198   -1.2295 C   0  0  0  0  0  0  0  0  0  0  0  0
    1.0359    1.3292   -0.9780 H   0  0  0  0  0  0  0  0  0  0  0  0
    0.2411    0.4737   -2.2934 H   0  0  0  0  0  0  0  0  0  0  0  0
   -1.1290    1.5482   -1.0128 C   0  0  0  0  0  0  0  0  0  0  0  0
   -1.9133    1.2158   -1.6968 H   0  0  0  0  0  0  0  0  0  0  0  0
   -1.4950    1.4120    0.0073 H   0  0  0  0  0  0  0  0  0  0  0  0
   -0.9001    3.0431   -1.2112 C   0  0  0  0  0  0  0  0  0  0  0  0
   -0.3077    3.4175   -2.2068 O   0  0  0  0  0  0  0  0  0  0  0  0
   -1.3851    3.8858   -0.2750 O   0  0  0  0  0  0  0  0  0  0  0  0
   -1.1269    4.7708   -0.5764 H   0  0  0  0  0  0  0  0  0  0  0  0
    0.7369   -0.2834    1.0349 C   0  0  0  0  0  0  0  0  0  0  0  0
    1.9420   -0.2310    1.2402 O   0  0  0  0  0  0  0  0  0  0  0  0
   -0.1238    0.2100    1.9991 N   0  0  0  0  0  0  0  0  0  0  0  0
   -1.1109    0.0371    1.8422 H   0  0  0  0  0  0  0  0  0  0  0  0
    0.3183    0.5519    3.3454 C   0  0  0  0  0  0  0  0  0  0  0  0
    1.0915    1.3267    3.3104 H   0  0  0  0  0  0  0  0  0  0  0  0
   -0.5214    0.9318    3.9349 H   0  0  0  0  0  0  0  0  0  0  0  0
    0.7274   -0.3301    3.8492 H   0  0  0  0  0  0  0  0  0  0  0  0
  1  2  1  0  0  0  0
  2  3  1  0  0  0  0
  2  4  1  0  0  0  0
  2  5  1  0  0  0  0
  5  6  2  0  0  0  0
  5  7  1  0  0  0  0
  7  8  1  0  0  0  0
  7  9  1  0  0  0  0
  9 10  1  0  0  0  0
  9 11  1  0  0  0  0
  9 21  1  0  0  0  0
 11 12  1  0  0  0  0
 11 13  1  0  0  0  0
 11 14  1  0  0  0  0
 14 15  1  0  0  0  0
 14 16  1  0  0  0  0
 14 17  1  0  0  0  0
 17 18  2  0  0  0  0
 17 19  1  0  0  0  0
 19 20  1  0  0  0  0
 21 22  2  0  0  0  0
 21 23  1  0  0  0  0
 23 24  1  0  0  0  0
 23 25  1  0  0  0  0
 25 26  1  0  0  0  0
 25 27  1  0  0  0  0
 25 28  1  0  0  0  0
M  END
$$$$

  -OEChem-03222214033D

 28 27  0     1  0  0  0  0  0999 V2000
   -2.5701   -4.2549    0.3225 H   0  0  0  0  0  0  0  0  0  0  0  0
   -2.5648   -3.2968   -0.2056 C   0  0  0  0  0  0  0  0  0  0  0  0
   -3.4310   -2.7141    0.1166 H   0  0  0  0  0  0  0  0  0  0  0  0
   -2.6392   -3.4876   -1.2790 H   0  0  0  0  0  0  0  0  0  0  0  0
   -1.2856   -2.5408    0.0997 C   0  0  0  0  0  0  0  0  0  0  0  0
   -0.4518   -3.0340    0.8363 O   0  0  0  0  0  0  0  0  0  0  0  0
   -1.0813   -1.2892   -0.4485 N   0  0  0  0  0  0  0  0  0  0  0  0
   -1.7541   -1.0013   -1.1519 H   0  0  0  0  0  0  0  0  0  0  0  0
    0.2100   -0.5729   -0.4013 C   0  0  1  0  0  0  0  0  0  0  0  0
    0.9671   -1.2158   -0.8655 H   0  0  0  0  0  0  0  0  0  0  0  0
    0.1352    0.7283   -1.2290 C   0  0  0  0  0  0  0  0  0  0  0  0
    1.0155    1.3392   -0.9943 H   0  0  0  0  0  0  0  0  0  0  0  0
    0.1980    0.4757   -2.2930 H   0  0  0  0  0  0  0  0  0  0  0  0
   -1.1449    1.5627   -0.9958 C   0  0  0  0  0  0  0  0  0  0  0  0
   -2.0052    1.0857   -1.4700 H   0  0  0  0  0  0  0  0  0  0  0  0
   -1.3471    1.6351    0.0752 H   0  0  0  0  0  0  0  0  0  0  0  0
   -1.0241    2.9858   -1.5354 C   0  0  0  0  0  0  0  0  0  0  0  0
   -0.4454    3.1719   -2.5906 O   0  0  0  0  0  0  0  0  0  0  0  0
   -1.5929    3.9773   -0.8179 O   0  0  0  0  0  0  0  0  0  0  0  0
   -1.4019    4.7882   -1.3150 H   0  0  0  0  0  0  0  0  0  0  0  0
    0.7379   -0.2815    1.0247 C   0  0  0  0  0  0  0  0  0  0  0  0
    1.9455   -0.2306    1.2159 O   0  0  0  0  0  0  0  0  0  0  0  0
   -0.1124    0.2063    2.0010 N   0  0  0  0  0  0  0  0  0  0  0  0
   -1.0999    0.0266    1.8539 H   0  0  0  0  0  0  0  0  0  0  0  0
    0.3437    0.5180    3.3500 C   0  0  0  0  0  0  0  0  0  0  0  0
    1.1136    1.2965    3.3239 H   0  0  0  0  0  0  0  0  0  0  0  0
   -0.4910    0.8799    3.9580 H   0  0  0  0  0  0  0  0  0  0  0  0
    0.7617   -0.3745    3.8281 H   0  0  0  0  0  0  0  0  0  0  0  0
  1  2  1  0  0  0  0
  2  3  1  0  0  0  0
  2  4  1  0  0  0  0
  2  5  1  0  0  0  0
  5  6  2  0  0  0  0
  5  7  1  0  0  0  0
  7  8  1  0  0  0  0
  7  9  1  0  0  0  0
  9 10  1  0  0  0  0
  9 11  1  0  0  0  0
  9 21  1  0  0  0  0
 11 12  1  0  0  0  0
 11 13  1  0  0  0  0
 11 14  1  0  0  0  0
 14 15  1  0  0  0  0
 14 16  1  0  0  0  0
 14 17  1  0  0  0  0
 17 18  2  0  0  0  0
 17 19  1  0  0  0  0
 19 20  1  0  0  0  0
 21 22  2  0  0  0  0
 21 23  1  0  0  0  0
 23 24  1  0  0  0  0
 23 25  1  0  0  0  0
 25 26  1  0  0  0  0
 25 27  1  0  0  0  0
 25 28  1  0  0  0  0
M  END
$$$$

  -OEChem-03222214033D

 28 27  0     1  0  0  0  0  0999 V2000
   -2.5938   -4.2293    0.3033 H   0  0  0  0  0  0  0  0  0  0  0  0
   -2.5716   -3.2758   -0.2322 C   0  0  0  0  0  0  0  0  0  0  0  0
   -3.4372   -2.6825    0.0717 H   0  0  0  0  0  0  0  0  0  0  0  0
   -2.6317   -3.4747   -1.3049 H   0  0  0  0  0  0  0  0  0  0  0  0
   -1.2901   -2.5290    0.0859 C   0  0  0  0  0  0  0  0  0  0  0  0
   -0.4540   -3.0376    0.8095 O   0  0  0  0  0  0  0  0  0  0  0  0
   -1.0861   -1.2657   -0.4341 N   0  0  0  0  0  0  0  0  0  0  0  0
   -1.7630   -0.9581   -1.1260 H   0  0  0  0  0  0  0  0  0  0  0  0
    0.2062   -0.5541   -0.3788 C   0  0  1  0  0  0  0  0  0  0  0  0
    0.9520   -1.1992   -0.8578 H   0  0  0  0  0  0  0  0  0  0  0  0
    0.1238    0.7387   -1.2146 C   0  0  0  0  0  0  0  0  0  0  0  0
    1.1014    1.2343   -1.1913 H   0  0  0  0  0  0  0  0  0  0  0  0
   -0.0726    0.4627   -2.2563 H   0  0  0  0  0  0  0  0  0  0  0  0
   -0.9569    1.7376   -0.7406 C   0  0  0  0  0  0  0  0  0  0  0  0
   -1.9446    1.2727   -0.7617 H   0  0  0  0  0  0  0  0  0  0  0  0
   -0.7490    2.0411    0.2881 H   0  0  0  0  0  0  0  0  0  0  0  0
   -1.0133    3.0065   -1.5892 C   0  0  0  0  0  0  0  0  0  0  0  0
   -0.7477    2.9458   -2.7765 O   0  0  0  0  0  0  0  0  0  0  0  0
   -1.3877    4.1473   -0.9729 O   0  0  0  0  0  0  0  0  0  0  0  0
   -1.3557    4.8291   -1.6618 H   0  0  0  0  0  0  0  0  0  0  0  0
    0.7557   -0.2909    1.0442 C   0  0  0  0  0  0  0  0  0  0  0  0
    1.9660   -0.2300    1.2138 O   0  0  0  0  0  0  0  0  0  0  0  0
   -0.0793    0.1793    2.0425 N   0  0  0  0  0  0  0  0  0  0  0  0
   -1.0674   -0.0105    1.9115 H   0  0  0  0  0  0  0  0  0  0  0  0
    0.3984    0.4725    3.3882 C   0  0  0  0  0  0  0  0  0  0  0  0
    1.1615    1.2576    3.3625 H   0  0  0  0  0  0  0  0  0  0  0  0
   -0.4280    0.8176    4.0166 H   0  0  0  0  0  0  0  0  0  0  0  0
    0.8312   -0.4245    3.8437 H   0  0  0  0  0  0  0  0  0  0  0  0
  1  2  1  0  0  0  0
  2  3  1  0  0  0  0
  2  4  1  0  0  0  0
  2  5  1  0  0  0  0
  5  6  2  0  0  0  0
  5  7  1  0  0  0  0
  7  8  1  0  0  0  0
  7  9  1  0  0  0  0
  9 10  1  0  0  0  0
  9 11  1  0  0  0  0
  9 21  1  0  0  0  0
 11 12  1  0  0  0  0
 11 13  1  0  0  0  0
 11 14  1  0  0  0  0
 14 15  1  0  0  0  0
 14 16  1  0  0  0  0
 14 17  1  0  0  0  0
 17 18  2  0  0  0  0
 17 19  1  0  0  0  0
 19 20  1  0  0  0  0
 21 22  2  0  0  0  0
 21 23  1  0  0  0  0
 23 24  1  0  0  0  0
 23 25  1  0  0  0  0
 25 26  1  0  0  0  0
 25 27  1  0  0  0  0
 25 28  1  0  0  0  0
M  END
$$$$

  -OEChem-03222214033D

 28 27  0     1  0  0  0  0  0999 V2000
   -2.6362   -4.2160    0.2810 H   0  0  0  0  0  0  0  0  0  0  0  0
   -2.6171   -3.2426   -0.2177 C   0  0  0  0  0  0  0  0  0  0  0  0
   -3.4655   -2.6505    0.1335 H   0  0  0  0  0  0  0  0  0  0  0  0
   -2.7103   -3.3989   -1.2951 H   0  0  0  0  0  0  0  0  0  0  0  0
   -1.3177   -2.5233    0.0915 C   0  0  0  0  0  0  0  0  0  0  0  0
   -0.4898   -3.0473    0.8134 O   0  0  0  0  0  0  0  0  0  0  0  0
   -1.0875   -1.2690   -0.4388 N   0  0  0  0  0  0  0  0  0  0  0  0
   -1.7603   -0.9520   -1.1303 H   0  0  0  0  0  0  0  0  0  0  0  0
    0.2198   -0.5838   -0.3919 C   0  0  1  0  0  0  0  0  0  0  0  0
    0.9525   -1.2400   -0.8757 H   0  0  0  0  0  0  0  0  0  0  0  0
    0.1587    0.7203   -1.2120 C   0  0  0  0  0  0  0  0  0  0  0  0
    1.1461    1.1969   -1.2116 H   0  0  0  0  0  0  0  0  0  0  0  0
   -0.0662    0.4463   -2.2486 H   0  0  0  0  0  0  0  0  0  0  0  0
   -0.8957    1.7381   -0.7115 C   0  0  0  0  0  0  0  0  0  0  0  0
   -1.8359    1.2311   -0.4867 H   0  0  0  0  0  0  0  0  0  0  0  0
   -0.5389    2.2017    0.2121 H   0  0  0  0  0  0  0  0  0  0  0  0
   -1.2154    2.8550   -1.7058 C   0  0  0  0  0  0  0  0  0  0  0  0
   -0.6695    2.8841   -2.7942 O   0  0  0  0  0  0  0  0  0  0  0  0
   -2.1297    3.7675   -1.3162 O   0  0  0  0  0  0  0  0  0  0  0  0
   -2.1917    4.3921   -2.0559 H   0  0  0  0  0  0  0  0  0  0  0  0
    0.7746   -0.3218    1.0289 C   0  0  0  0  0  0  0  0  0  0  0  0
    1.9854   -0.2834    1.2005 O   0  0  0  0  0  0  0  0  0  0  0  0
   -0.0534    0.1737    2.0208 N   0  0  0  0  0  0  0  0  0  0  0  0
   -1.0450    0.0038    1.8896 H   0  0  0  0  0  0  0  0  0  0  0  0
    0.4273    0.4862    3.3611 C   0  0  0  0  0  0  0  0  0  0  0  0
    1.2104    1.2506    3.3194 H   0  0  0  0  0  0  0  0  0  0  0  0
   -0.3918    0.8682    3.9779 H   0  0  0  0  0  0  0  0  0  0  0  0
    0.8355   -0.4101    3.8400 H   0  0  0  0  0  0  0  0  0  0  0  0
  1  2  1  0  0  0  0
  2  3  1  0  0  0  0
  2  4  1  0  0  0  0
  2  5  1  0  0  0  0
  5  6  2  0  0  0  0
  5  7  1  0  0  0  0
  7  8  1  0  0  0  0
  7  9  1  0  0  0  0
  9 10  1  0  0  0  0
  9 11  1  0  0  0  0
  9 21  1  0  0  0  0
 11 12  1  0  0  0  0
 11 13  1  0  0  0  0
 11 14  1  0  0  0  0
 14 15  1  0  0  0  0
 14 16  1  0  0  0  0
 14 17  1  0  0  0  0
 17 18  2  0  0  0  0
 17 19  1  0  0  0  0
 19 20  1  0  0  0  0
 21 22  2  0  0  0  0
 21 23  1  0  0  0  0
 23 24  1  0  0  0  0
 23 25  1  0  0  0  0
 25 26  1  0  0  0  0
 25 27  1  0  0  0  0
 25 28  1  0  0  0  0
M  END
$$$$

  -OEChem-03222214033D

 28 27  0     1  0  0  0  0  0999 V2000
   -2.6457   -4.2119    0.2689 H   0  0  0  0  0  0  0  0  0  0  0  0
   -2.6358   -3.2257   -0.2042 C   0  0  0  0  0  0  0  0  0  0  0  0
   -3.4755   -2.6424    0.1810 H   0  0  0  0  0  0  0  0  0  0  0  0
   -2.7529   -3.3536   -1.2830 H   0  0  0  0  0  0  0  0  0  0  0  0
   -1.3290   -2.5165    0.0964 C   0  0  0  0  0  0  0  0  0  0  0  0
   -0.5041   -3.0430    0.8201 O   0  0  0  0  0  0  0  0  0  0  0  0
   -1.0893   -1.2671   -0.4409 N   0  0  0  0  0  0  0  0  0  0  0  0
   -1.7584   -0.9498   -1.1363 H   0  0  0  0  0  0  0  0  0  0  0  0
    0.2235   -0.5917   -0.3959 C   0  0  1  0  0  0  0  0  0  0  0  0
    0.9515   -1.2536   -0.8794 H   0  0  0  0  0  0  0  0  0  0  0  0
    0.1705    0.7153   -1.2112 C   0  0  0  0  0  0  0  0  0  0  0  0
    1.1603    1.1856   -1.2211 H   0  0  0  0  0  0  0  0  0  0  0  0
   -0.0600    0.4353   -2.2446 H   0  0  0  0  0  0  0  0  0  0  0  0
   -0.8754    1.7418   -0.7042 C   0  0  0  0  0  0  0  0  0  0  0  0
   -1.7177    1.2261   -0.2392 H   0  0  0  0  0  0  0  0  0  0  0  0
   -0.4168    2.3717    0.0630 H   0  0  0  0  0  0  0  0  0  0  0  0
   -1.4620    2.6471   -1.7883 C   0  0  0  0  0  0  0  0  0  0  0  0
   -0.9392    2.7094   -2.8863 O   0  0  0  0  0  0  0  0  0  0  0  0
   -2.5701    3.3438   -1.4608 O   0  0  0  0  0  0  0  0  0  0  0  0
   -2.7798    3.8670   -2.2504 H   0  0  0  0  0  0  0  0  0  0  0  0
    0.7804   -0.3250    1.0230 C   0  0  0  0  0  0  0  0  0  0  0  0
    1.9915   -0.2991    1.1952 O   0  0  0  0  0  0  0  0  0  0  0  0
   -0.0434    0.1836    2.0118 N   0  0  0  0  0  0  0  0  0  0  0  0
   -1.0365    0.0231    1.8803 H   0  0  0  0  0  0  0  0  0  0  0  0
    0.4394    0.4824    3.3544 C   0  0  0  0  0  0  0  0  0  0  0  0
    1.2370    1.2320    3.3176 H   0  0  0  0  0  0  0  0  0  0  0  0
   -0.3741    0.8769    3.9707 H   0  0  0  0  0  0  0  0  0  0  0  0
    0.8296   -0.4236    3.8304 H   0  0  0  0  0  0  0  0  0  0  0  0
  1  2  1  0  0  0  0
  2  3  1  0  0  0  0
  2  4  1  0  0  0  0
  2  5  1  0  0  0  0
  5  6  2  0  0  0  0
  5  7  1  0  0  0  0
  7  8  1  0  0  0  0
  7  9  1  0  0  0  0
  9 10  1  0  0  0  0
  9 11  1  0  0  0  0
  9 21  1  0  0  0  0
 11 12  1  0  0  0  0
 11 13  1  0  0  0  0
 11 14  1  0  0  0  0
 14 15  1  0  0  0  0
 14 16  1  0  0  0  0
 14 17  1  0  0  0  0
 17 18  2  0  0  0  0
 17 19  1  0  0  0  0
 19 20  1  0  0  0  0
 21 22  2  0  0  0  0
 21 23  1  0  0  0  0
 23 24  1  0  0  0  0
 23 25  1  0  0  0  0
 25 26  1  0  0  0  0
 25 27  1  0  0  0  0
 25 28  1  0  0  0  0
M  END
$$$$

  -OEChem-03222214033D

 28 27  0     1  0  0  0  0  0999 V2000
   -2.5426   -4.2429    0.2795 H   0  0  0  0  0  0  0  0  0  0  0  0
   -2.5376   -3.2829   -0.2447 C   0  0  0  0  0  0  0  0  0  0  0  0
   -3.3921   -2.6928    0.0949 H   0  0  0  0  0  0  0  0  0  0  0  0
   -2.6342   -3.4668   -1.3176 H   0  0  0  0  0  0  0  0  0  0  0  0
   -1.2457   -2.5401    0.0395 C   0  0  0  0  0  0  0  0  0  0  0  0
   -0.3737   -3.0662    0.7069 O   0  0  0  0  0  0  0  0  0  0  0  0
   -1.0711   -1.2586   -0.4424 N   0  0  0  0  0  0  0  0  0  0  0  0
   -1.7936   -0.9102   -1.0701 H   0  0  0  0  0  0  0  0  0  0  0  0
    0.2044   -0.5176   -0.3853 C   0  0  1  0  0  0  0  0  0  0  0  0
    0.9578   -1.1207   -0.9046 H   0  0  0  0  0  0  0  0  0  0  0  0
    0.0493    0.7989   -1.1659 C   0  0  0  0  0  0  0  0  0  0  0  0
    1.0046    1.3361   -1.1619 H   0  0  0  0  0  0  0  0  0  0  0  0
   -0.1653    0.5444   -2.2098 H   0  0  0  0  0  0  0  0  0  0  0  0
   -1.0554    1.7293   -0.6117 C   0  0  0  0  0  0  0  0  0  0  0  0
   -1.7158    1.2038    0.0812 H   0  0  0  0  0  0  0  0  0  0  0  0
   -0.5938    2.5509   -0.0565 H   0  0  0  0  0  0  0  0  0  0  0  0
   -1.9185    2.2983   -1.7282 C   0  0  0  0  0  0  0  0  0  0  0  0
   -2.6832    1.5331   -2.2907 O   0  0  0  0  0  0  0  0  0  0  0  0
   -1.7951    3.6033   -2.0492 O   0  0  0  0  0  0  0  0  0  0  0  0
   -2.4179    3.7505   -2.7777 H   0  0  0  0  0  0  0  0  0  0  0  0
    0.7752   -0.2791    1.0325 C   0  0  0  0  0  0  0  0  0  0  0  0
    1.9867   -0.1887    1.1792 O   0  0  0  0  0  0  0  0  0  0  0  0
   -0.0515    0.1439    2.0584 N   0  0  0  0  0  0  0  0  0  0  0  0
   -1.0353   -0.0771    1.9431 H   0  0  0  0  0  0  0  0  0  0  0  0
    0.4471    0.3978    3.4049 C   0  0  0  0  0  0  0  0  0  0  0  0
    1.1971    1.1957    3.3930 H   0  0  0  0  0  0  0  0  0  0  0  0
   -0.3725    0.7068    4.0607 H   0  0  0  0  0  0  0  0  0  0  0  0
    0.9033   -0.5069    3.8207 H   0  0  0  0  0  0  0  0  0  0  0  0
  1  2  1  0  0  0  0
  2  3  1  0  0  0  0
  2  4  1  0  0  0  0
  2  5  1  0  0  0  0
  5  6  2  0  0  0  0
  5  7  1  0  0  0  0
  7  8  1  0  0  0  0
  7  9  1  0  0  0  0
  9 10  1  0  0  0  0
  9 11  1  0  0  0  0
  9 21  1  0  0  0  0
 11 12  1  0  0  0  0
 11 13  1  0  0  0  0
 11 14  1  0  0  0  0
 14 15  1  0  0  0  0
 14 16  1  0  0  0  0
 14 17  1  0  0  0  0
 17 18  2  0  0  0  0
 17 19  1  0  0  0  0
 19 20  1  0  0  0  0
 21 22  2  0  0  0  0
 21 23  1  0  0  0  0
 23 24  1  0  0  0  0
 23 25  1  0  0  0  0
 25 26  1  0  0  0  0
 25 27  1  0  0  0  0
 25 28  1  0  0  0  0
M  END
$$$$

  -OEChem-03222214033D

 28 27  0     1  0  0  0  0  0999 V2000
   -2.5806   -4.2197    0.2085 H   0  0  0  0  0  0  0  0  0  0  0  0
   -2.5803   -3.2283   -0.2535 C   0  0  0  0  0  0  0  0  0  0  0  0
   -3.4124   -2.6491    0.1539 H   0  0  0  0  0  0  0  0  0  0  0  0
   -2.7190   -3.3427   -1.3313 H   0  0  0  0  0  0  0  0  0  0  0  0
   -1.2681   -2.5209    0.0271 C   0  0  0  0  0  0  0  0  0  0  0  0
   -0.3990   -3.0766    0.6745 O   0  0  0  0  0  0  0  0  0  0  0  0
   -1.0713   -1.2361   -0.4339 N   0  0  0  0  0  0  0  0  0  0  0  0
   -1.8057   -0.8471   -1.0271 H   0  0  0  0  0  0  0  0  0  0  0  0
    0.2134   -0.5133   -0.3699 C   0  0  1  0  0  0  0  0  0  0  0  0
    0.9569   -1.1221   -0.8971 H   0  0  0  0  0  0  0  0  0  0  0  0
    0.0547    0.7970   -1.1580 C   0  0  0  0  0  0  0  0  0  0  0  0
    1.0097    1.3340   -1.1331 H   0  0  0  0  0  0  0  0  0  0  0  0
   -0.1411    0.5540   -2.2085 H   0  0  0  0  0  0  0  0  0  0  0  0
   -1.0528    1.7234   -0.6017 C   0  0  0  0  0  0  0  0  0  0  0  0
   -1.5304    1.3068    0.2868 H   0  0  0  0  0  0  0  0  0  0  0  0
   -0.6088    2.6799   -0.3111 H   0  0  0  0  0  0  0  0  0  0  0  0
   -2.1296    1.9811   -1.6450 C   0  0  0  0  0  0  0  0  0  0  0  0
   -2.8050    1.0252   -1.9921 O   0  0  0  0  0  0  0  0  0  0  0  0
   -2.2851    3.2276   -2.1382 O   0  0  0  0  0  0  0  0  0  0  0  0
   -3.0079    3.1646   -2.7814 H   0  0  0  0  0  0  0  0  0  0  0  0
    0.8019   -0.2972    1.0448 C   0  0  0  0  0  0  0  0  0  0  0  0
    2.0159   -0.2131    1.1760 O   0  0  0  0  0  0  0  0  0  0  0  0
   -0.0059    0.1246    2.0858 N   0  0  0  0  0  0  0  0  0  0  0  0
   -0.9923   -0.0918    1.9851 H   0  0  0  0  0  0  0  0  0  0  0  0
    0.5130    0.3787    3.4243 C   0  0  0  0  0  0  0  0  0  0  0  0
    1.2705    1.1694    3.3992 H   0  0  0  0  0  0  0  0  0  0  0  0
   -0.2950    0.6986    4.0892 H   0  0  0  0  0  0  0  0  0  0  0  0
    0.9652   -0.5292    3.8377 H   0  0  0  0  0  0  0  0  0  0  0  0
  1  2  1  0  0  0  0
  2  3  1  0  0  0  0
  2  4  1  0  0  0  0
  2  5  1  0  0  0  0
  5  6  2  0  0  0  0
  5  7  1  0  0  0  0
  7  8  1  0  0  0  0
  7  9  1  0  0  0  0
  9 10  1  0  0  0  0
  9 11  1  0  0  0  0
  9 21  1  0  0  0  0
 11 12  1  0  0  0  0
 11 13  1  0  0  0  0
 11 14  1  0  0  0  0
 14 15  1  0  0  0  0
 14 16  1  0  0  0  0
 14 17  1  0  0  0  0
 17 18  2  0  0  0  0
 17 19  1  0  0  0  0
 19 20  1  0  0  0  0
 21 22  2  0  0  0  0
 21 23  1  0  0  0  0
 23 24  1  0  0  0  0
 23 25  1  0  0  0  0
 25 26  1  0  0  0  0
 25 27  1  0  0  0  0
 25 28  1  0  0  0  0
M  END
$$$$

  -OEChem-03222214033D

 28 27  0     1  0  0  0  0  0999 V2000
   -2.5861   -4.2178    0.2584 H   0  0  0  0  0  0  0  0  0  0  0  0
   -2.5944   -3.2218   -0.1929 C   0  0  0  0  0  0  0  0  0  0  0  0
   -3.3969   -2.6352    0.2606 H   0  0  0  0  0  0  0  0  0  0  0  0
   -2.7873   -3.3217   -1.2637 H   0  0  0  0  0  0  0  0  0  0  0  0
   -1.2602   -2.5362    0.0307 C   0  0  0  0  0  0  0  0  0  0  0  0
   -0.3664   -3.1128    0.6245 O   0  0  0  0  0  0  0  0  0  0  0  0
   -1.0717   -1.2469   -0.4194 N   0  0  0  0  0  0  0  0  0  0  0  0
   -1.8412   -0.8287   -0.9477 H   0  0  0  0  0  0  0  0  0  0  0  0
    0.2065   -0.5160   -0.3696 C   0  0  1  0  0  0  0  0  0  0  0  0
    0.9449   -1.1278   -0.9006 H   0  0  0  0  0  0  0  0  0  0  0  0
    0.0626    0.7965   -1.1643 C   0  0  0  0  0  0  0  0  0  0  0  0
    1.0260    1.3174   -1.1221 H   0  0  0  0  0  0  0  0  0  0  0  0
   -0.1218    0.5620   -2.2187 H   0  0  0  0  0  0  0  0  0  0  0  0
   -1.0326    1.7520   -0.6339 C   0  0  0  0  0  0  0  0  0  0  0  0
   -1.3246    1.5123    0.3891 H   0  0  0  0  0  0  0  0  0  0  0  0
   -0.6322    2.7697   -0.6228 H   0  0  0  0  0  0  0  0  0  0  0  0
   -2.2767    1.7482   -1.5161 C   0  0  0  0  0  0  0  0  0  0  0  0
   -2.8566    0.6867   -1.6839 O   0  0  0  0  0  0  0  0  0  0  0  0
   -2.6784    2.9122   -2.0684 O   0  0  0  0  0  0  0  0  0  0  0  0
   -3.4703    2.6978   -2.5850 H   0  0  0  0  0  0  0  0  0  0  0  0
    0.8061   -0.3137    1.0424 C   0  0  0  0  0  0  0  0  0  0  0  0
    2.0204   -0.2209    1.1648 O   0  0  0  0  0  0  0  0  0  0  0  0
    0.0041    0.0891    2.0953 N   0  0  0  0  0  0  0  0  0  0  0  0
   -0.9820   -0.1323    1.9990 H   0  0  0  0  0  0  0  0  0  0  0  0
    0.5320    0.3327    3.4322 C   0  0  0  0  0  0  0  0  0  0  0  0
    1.2851    1.1275    3.4089 H   0  0  0  0  0  0  0  0  0  0  0  0
   -0.2724    0.6417    4.1064 H   0  0  0  0  0  0  0  0  0  0  0  0
    0.9926   -0.5767    3.8327 H   0  0  0  0  0  0  0  0  0  0  0  0
  1  2  1  0  0  0  0
  2  3  1  0  0  0  0
  2  4  1  0  0  0  0
  2  5  1  0  0  0  0
  5  6  2  0  0  0  0
  5  7  1  0  0  0  0
  7  8  1  0  0  0  0
  7  9  1  0  0  0  0
  9 10  1  0  0  0  0
  9 11  1  0  0  0  0
  9 21  1  0  0  0  0
 11 12  1  0  0  0  0
 11 13  1  0  0  0  0
 11 14  1  0  0  0  0
 14 15  1  0  0  0  0
 14 16  1  0  0  0  0
 14 17  1  0  0  0  0
 17 18  2  0  0  0  0
 17 19  1  0  0  0  0
 19 20  1  0  0  0  0
 21 22  2  0  0  0  0
 21 23  1  0  0  0  0
 23 24  1  0  0  0  0
 23 25  1  0  0  0  0
 25 26  1  0  0  0  0
 25 27  1  0  0  0  0
 25 28  1  0  0  0  0
M  END
$$$$

  -OEChem-03222214033D

 28 27  0     1  0  0  0  0  0999 V2000
   -2.5526   -4.2855    0.2694 H   0  0  0  0  0  0  0  0  0  0  0  0
   -2.5753   -3.2832   -0.1675 C   0  0  0  0  0  0  0  0  0  0  0  0
   -3.4038   -2.7241    0.2735 H   0  0  0  0  0  0  0  0  0  0  0  0
   -2.7385   -3.3722   -1.2443 H   0  0  0  0  0  0  0  0  0  0  0  0
   -1.2656   -2.5668    0.0992 C   0  0  0  0  0  0  0  0  0  0  0  0
   -0.3955   -3.1080    0.7579 O   0  0  0  0  0  0  0  0  0  0  0  0
   -1.0722   -1.2934   -0.3930 N   0  0  0  0  0  0  0  0  0  0  0  0
   -1.8066   -0.9276   -1.0034 H   0  0  0  0  0  0  0  0  0  0  0  0
    0.2078   -0.5675   -0.3636 C   0  0  1  0  0  0  0  0  0  0  0  0
    0.9436   -1.2056   -0.8665 H   0  0  0  0  0  0  0  0  0  0  0  0
    0.1093    0.7324   -1.1941 C   0  0  0  0  0  0  0  0  0  0  0  0
    1.0888    1.2216   -1.1461 H   0  0  0  0  0  0  0  0  0  0  0  0
   -0.0617    0.4753   -2.2450 H   0  0  0  0  0  0  0  0  0  0  0  0
   -0.9589    1.7569   -0.7329 C   0  0  0  0  0  0  0  0  0  0  0  0
   -1.0612    1.7528    0.3530 H   0  0  0  0  0  0  0  0  0  0  0  0
   -0.6031    2.7525   -1.0124 H   0  0  0  0  0  0  0  0  0  0  0  0
   -2.3478    1.6000   -1.3574 C   0  0  0  0  0  0  0  0  0  0  0  0
   -2.6952    0.5264   -1.8228 O   0  0  0  0  0  0  0  0  0  0  0  0
   -3.1455    2.6883   -1.3428 O   0  0  0  0  0  0  0  0  0  0  0  0
   -3.9686    2.4150   -1.7765 H   0  0  0  0  0  0  0  0  0  0  0  0
    0.7940   -0.3279    1.0482 C   0  0  0  0  0  0  0  0  0  0  0  0
    2.0076   -0.2408    1.1826 O   0  0  0  0  0  0  0  0  0  0  0  0
   -0.0192    0.1087    2.0788 N   0  0  0  0  0  0  0  0  0  0  0  0
   -1.0054   -0.1071    1.9721 H   0  0  0  0  0  0  0  0  0  0  0  0
    0.4915    0.3708    3.4191 C   0  0  0  0  0  0  0  0  0  0  0  0
    1.2761    1.1345    3.3895 H   0  0  0  0  0  0  0  0  0  0  0  0
   -0.3133    0.7310    4.0669 H   0  0  0  0  0  0  0  0  0  0  0  0
    0.9072   -0.5441    3.8548 H   0  0  0  0  0  0  0  0  0  0  0  0
  1  2  1  0  0  0  0
  2  3  1  0  0  0  0
  2  4  1  0  0  0  0
  2  5  1  0  0  0  0
  5  6  2  0  0  0  0
  5  7  1  0  0  0  0
  7  8  1  0  0  0  0
  7  9  1  0  0  0  0
  9 10  1  0  0  0  0
  9 11  1  0  0  0  0
  9 21  1  0  0  0  0
 11 12  1  0  0  0  0
 11 13  1  0  0  0  0
 11 14  1  0  0  0  0
 14 15  1  0  0  0  0
 14 16  1  0  0  0  0
 14 17  1  0  0  0  0
 17 18  2  0  0  0  0
 17 19  1  0  0  0  0
 19 20  1  0  0  0  0
 21 22  2  0  0  0  0
 21 23  1  0  0  0  0
 23 24  1  0  0  0  0
 23 25  1  0  0  0  0
 25 26  1  0  0  0  0
 25 27  1  0  0  0  0
 25 28  1  0  0  0  0
M  END
$$$$

  -OEChem-03222214033D

 28 27  0     1  0  0  0  0  0999 V2000
   -2.5565   -4.2926    0.2934 H   0  0  0  0  0  0  0  0  0  0  0  0
   -2.5753   -3.2947   -0.1540 C   0  0  0  0  0  0  0  0  0  0  0  0
   -3.4079   -2.7312    0.2738 H   0  0  0  0  0  0  0  0  0  0  0  0
   -2.7279   -3.3952   -1.2314 H   0  0  0  0  0  0  0  0  0  0  0  0
   -1.2680   -2.5758    0.1184 C   0  0  0  0  0  0  0  0  0  0  0  0
   -0.4133   -3.1032    0.8076 O   0  0  0  0  0  0  0  0  0  0  0  0
   -1.0615   -1.3152   -0.4020 N   0  0  0  0  0  0  0  0  0  0  0  0
   -1.7726   -0.9745   -1.0527 H   0  0  0  0  0  0  0  0  0  0  0  0
    0.2246   -0.5992   -0.3732 C   0  0  1  0  0  0  0  0  0  0  0  0
    0.9625   -1.2496   -0.8565 H   0  0  0  0  0  0  0  0  0  0  0  0
    0.1538    0.6989   -1.2119 C   0  0  0  0  0  0  0  0  0  0  0  0
    1.1418    1.1712   -1.1697 H   0  0  0  0  0  0  0  0  0  0  0  0
   -0.0234    0.4319   -2.2594 H   0  0  0  0  0  0  0  0  0  0  0  0
   -0.8970    1.7521   -0.7747 C   0  0  0  0  0  0  0  0  0  0  0  0
   -0.8157    1.9345    0.2986 H   0  0  0  0  0  0  0  0  0  0  0  0
   -0.6534    2.6940   -1.2730 H   0  0  0  0  0  0  0  0  0  0  0  0
   -2.3604    1.4523   -1.1064 C   0  0  0  0  0  0  0  0  0  0  0  0
   -2.6501    0.5241   -1.8443 O   0  0  0  0  0  0  0  0  0  0  0  0
   -3.2835    2.2559   -0.5386 O   0  0  0  0  0  0  0  0  0  0  0  0
   -4.1400    1.9473   -0.8721 H   0  0  0  0  0  0  0  0  0  0  0  0
    0.7849   -0.3376    1.0446 C   0  0  0  0  0  0  0  0  0  0  0  0
    1.9960   -0.2597    1.2044 O   0  0  0  0  0  0  0  0  0  0  0  0
   -0.0484    0.1261    2.0471 N   0  0  0  0  0  0  0  0  0  0  0  0
   -1.0360   -0.0700    1.9177 H   0  0  0  0  0  0  0  0  0  0  0  0
    0.4311    0.4164    3.3927 C   0  0  0  0  0  0  0  0  0  0  0  0
    1.2116    1.1842    3.3652 H   0  0  0  0  0  0  0  0  0  0  0  0
   -0.3896    0.7837    4.0162 H   0  0  0  0  0  0  0  0  0  0  0  0
    0.8426   -0.4873    3.8547 H   0  0  0  0  0  0  0  0  0  0  0  0
  1  2  1  0  0  0  0
  2  3  1  0  0  0  0
  2  4  1  0  0  0  0
  2  5  1  0  0  0  0
  5  6  2  0  0  0  0
  5  7  1  0  0  0  0
  7  8  1  0  0  0  0
  7  9  1  0  0  0  0
  9 10  1  0  0  0  0
  9 11  1  0  0  0  0
  9 21  1  0  0  0  0
 11 12  1  0  0  0  0
 11 13  1  0  0  0  0
 11 14  1  0  0  0  0
 14 15  1  0  0  0  0
 14 16  1  0  0  0  0
 14 17  1  0  0  0  0
 17 18  2  0  0  0  0
 17 19  1  0  0  0  0
 19 20  1  0  0  0  0
 21 22  2  0  0  0  0
 21 23  1  0  0  0  0
 23 24  1  0  0  0  0
 23 25  1  0  0  0  0
 25 26  1  0  0  0  0
 25 27  1  0  0  0  0
 25 28  1  0  0  0  0
M  END
$$$$

  -OEChem-03222214033D

 28 27  0     1  0  0  0  0  0999 V2000
   -2.5670   -4.2891    0.3177 H   0  0  0  0  0  0  0  0  0  0  0  0
   -2.5781   -3.2967   -0.1419 C   0  0  0  0  0  0  0  0  0  0  0  0
   -3.4013   -2.7184    0.2843 H   0  0  0  0  0  0  0  0  0  0  0  0
   -2.7392   -3.4091   -1.2169 H   0  0  0  0  0  0  0  0  0  0  0  0
   -1.2613   -2.5889    0.1131 C   0  0  0  0  0  0  0  0  0  0  0  0
   -0.4070   -3.1180    0.8010 O   0  0  0  0  0  0  0  0  0  0  0  0
   -1.0462   -1.3363   -0.4228 N   0  0  0  0  0  0  0  0  0  0  0  0
   -1.7617   -0.9918   -1.0663 H   0  0  0  0  0  0  0  0  0  0  0  0
    0.2400   -0.6193   -0.3880 C   0  0  1  0  0  0  0  0  0  0  0  0
    0.9853   -1.2689   -0.8612 H   0  0  0  0  0  0  0  0  0  0  0  0
    0.1805    0.6887   -1.2140 C   0  0  0  0  0  0  0  0  0  0  0  0
    1.1738    1.1508   -1.1877 H   0  0  0  0  0  0  0  0  0  0  0  0
   -0.0171    0.4200   -2.2572 H   0  0  0  0  0  0  0  0  0  0  0  0
   -0.8597    1.7550   -0.7821 C   0  0  0  0  0  0  0  0  0  0  0  0
   -0.6165    2.0972    0.2272 H   0  0  0  0  0  0  0  0  0  0  0  0
   -0.7614    2.6205   -1.4421 H   0  0  0  0  0  0  0  0  0  0  0  0
   -2.3294    1.3378   -0.8009 C   0  0  0  0  0  0  0  0  0  0  0  0
   -2.7276    0.5812   -1.6718 O   0  0  0  0  0  0  0  0  0  0  0  0
   -3.1249    1.8228    0.1758 O   0  0  0  0  0  0  0  0  0  0  0  0
   -4.0144    1.4909   -0.0218 H   0  0  0  0  0  0  0  0  0  0  0  0
    0.7757   -0.3399    1.0357 C   0  0  0  0  0  0  0  0  0  0  0  0
    1.9836   -0.2666    1.2188 O   0  0  0  0  0  0  0  0  0  0  0  0
   -0.0759    0.1371    2.0164 N   0  0  0  0  0  0  0  0  0  0  0  0
   -1.0660   -0.0239    1.8603 H   0  0  0  0  0  0  0  0  0  0  0  0
    0.3757    0.4595    3.3641 C   0  0  0  0  0  0  0  0  0  0  0  0
    1.1522    1.2312    3.3348 H   0  0  0  0  0  0  0  0  0  0  0  0
   -0.4591    0.8354    3.9632 H   0  0  0  0  0  0  0  0  0  0  0  0
    0.7831   -0.4313    3.8539 H   0  0  0  0  0  0  0  0  0  0  0  0
  1  2  1  0  0  0  0
  2  3  1  0  0  0  0
  2  4  1  0  0  0  0
  2  5  1  0  0  0  0
  5  6  2  0  0  0  0
  5  7  1  0  0  0  0
  7  8  1  0  0  0  0
  7  9  1  0  0  0  0
  9 10  1  0  0  0  0
  9 11  1  0  0  0  0
  9 21  1  0  0  0  0
 11 12  1  0  0  0  0
 11 13  1  0  0  0  0
 11 14  1  0  0  0  0
 14 15  1  0  0  0  0
 14 16  1  0  0  0  0
 14 17  1  0  0  0  0
 17 18  2  0  0  0  0
 17 19  1  0  0  0  0
 19 20  1  0  0  0  0
 21 22  2  0  0  0  0
 21 23  1  0  0  0  0
 23 24  1  0  0  0  0
 23 25  1  0  0  0  0
 25 26  1  0  0  0  0
 25 27  1  0  0  0  0
 25 28  1  0  0  0  0
M  END
$$$$

  -OEChem-03222214033D

 28 27  0     1  0  0  0  0  0999 V2000
   -2.5741   -4.2825    0.3439 H   0  0  0  0  0  0  0  0  0  0  0  0
   -2.5809   -3.2943   -0.1246 C   0  0  0  0  0  0  0  0  0  0  0  0
   -3.3816   -2.6987    0.3197 H   0  0  0  0  0  0  0  0  0  0  0  0
   -2.7746   -3.4129   -1.1934 H   0  0  0  0  0  0  0  0  0  0  0  0
   -1.2454   -2.6074    0.0861 C   0  0  0  0  0  0  0  0  0  0  0  0
   -0.3716   -3.1574    0.7319 O   0  0  0  0  0  0  0  0  0  0  0  0
   -1.0314   -1.3552   -0.4518 N   0  0  0  0  0  0  0  0  0  0  0  0
   -1.7741   -0.9800   -1.0442 H   0  0  0  0  0  0  0  0  0  0  0  0
    0.2508   -0.6297   -0.4011 C   0  0  1  0  0  0  0  0  0  0  0  0
    1.0069   -1.2698   -0.8700 H   0  0  0  0  0  0  0  0  0  0  0  0
    0.1926    0.6914   -1.2069 C   0  0  0  0  0  0  0  0  0  0  0  0
    1.1868    1.1523   -1.1888 H   0  0  0  0  0  0  0  0  0  0  0  0
   -0.0160    0.4257   -2.2488 H   0  0  0  0  0  0  0  0  0  0  0  0
   -0.8481    1.7599   -0.7776 C   0  0  0  0  0  0  0  0  0  0  0  0
   -0.4756    2.2574    0.1227 H   0  0  0  0  0  0  0  0  0  0  0  0
   -0.9165    2.5221   -1.5584 H   0  0  0  0  0  0  0  0  0  0  0  0
   -2.2591    1.2648   -0.4772 C   0  0  0  0  0  0  0  0  0  0  0  0
   -2.8704    0.6824   -1.3570 O   0  0  0  0  0  0  0  0  0  0  0  0
   -2.7415    1.4321    0.7736 O   0  0  0  0  0  0  0  0  0  0  0  0
   -3.6524    1.0984    0.7477 H   0  0  0  0  0  0  0  0  0  0  0  0
    0.7647   -0.3412    1.0293 C   0  0  0  0  0  0  0  0  0  0  0  0
    1.9696   -0.3011    1.2403 O   0  0  0  0  0  0  0  0  0  0  0  0
   -0.0969    0.1364    2.0011 N   0  0  0  0  0  0  0  0  0  0  0  0
   -1.0896    0.1316    1.7828 H   0  0  0  0  0  0  0  0  0  0  0  0
    0.3315    0.4962    3.3463 C   0  0  0  0  0  0  0  0  0  0  0  0
    1.0926    1.2827    3.3097 H   0  0  0  0  0  0  0  0  0  0  0  0
   -0.5187    0.8659    3.9275 H   0  0  0  0  0  0  0  0  0  0  0  0
    0.7506   -0.3760    3.8591 H   0  0  0  0  0  0  0  0  0  0  0  0
  1  2  1  0  0  0  0
  2  3  1  0  0  0  0
  2  4  1  0  0  0  0
  2  5  1  0  0  0  0
  5  6  2  0  0  0  0
  5  7  1  0  0  0  0
  7  8  1  0  0  0  0
  7  9  1  0  0  0  0
  9 10  1  0  0  0  0
  9 11  1  0  0  0  0
  9 21  1  0  0  0  0
 11 12  1  0  0  0  0
 11 13  1  0  0  0  0
 11 14  1  0  0  0  0
 14 15  1  0  0  0  0
 14 16  1  0  0  0  0
 14 17  1  0  0  0  0
 17 18  2  0  0  0  0
 17 19  1  0  0  0  0
 19 20  1  0  0  0  0
 21 22  2  0  0  0  0
 21 23  1  0  0  0  0
 23 24  1  0  0  0  0
 23 25  1  0  0  0  0
 25 26  1  0  0  0  0
 25 27  1  0  0  0  0
 25 28  1  0  0  0  0
M  END
$$$$

  -OEChem-03222214033D

 28 27  0     1  0  0  0  0  0999 V2000
   -2.5371   -4.3324    0.2924 H   0  0  0  0  0  0  0  0  0  0  0  0
   -2.5580   -3.3332   -0.1520 C   0  0  0  0  0  0  0  0  0  0  0  0
   -3.3409   -2.7465    0.3345 H   0  0  0  0  0  0  0  0  0  0  0  0
   -2.7904   -3.4256   -1.2157 H   0  0  0  0  0  0  0  0  0  0  0  0
   -1.2137   -2.6541    0.0270 C   0  0  0  0  0  0  0  0  0  0  0  0
   -0.3079   -3.2322    0.6004 O   0  0  0  0  0  0  0  0  0  0  0  0
   -1.0255   -1.3766   -0.4572 N   0  0  0  0  0  0  0  0  0  0  0  0
   -1.8154   -0.9488   -0.9435 H   0  0  0  0  0  0  0  0  0  0  0  0
    0.2391   -0.6259   -0.3696 C   0  0  1  0  0  0  0  0  0  0  0  0
    1.0037   -1.2478   -0.8499 H   0  0  0  0  0  0  0  0  0  0  0  0
    0.1766    0.6993   -1.1662 C   0  0  0  0  0  0  0  0  0  0  0  0
    1.1651    1.1716   -1.1323 H   0  0  0  0  0  0  0  0  0  0  0  0
   -0.0051    0.4245   -2.2105 H   0  0  0  0  0  0  0  0  0  0  0  0
   -0.8874    1.7665   -0.7844 C   0  0  0  0  0  0  0  0  0  0  0  0
   -0.4383    2.4275   -0.0371 H   0  0  0  0  0  0  0  0  0  0  0  0
   -1.1081    2.3808   -1.6617 H   0  0  0  0  0  0  0  0  0  0  0  0
   -2.2091    1.2776   -0.1969 C   0  0  0  0  0  0  0  0  0  0  0  0
   -2.9670    0.6663   -0.9309 O   0  0  0  0  0  0  0  0  0  0  0  0
   -2.4743    1.5144    1.1064 O   0  0  0  0  0  0  0  0  0  0  0  0
   -3.3799    1.1949    1.2495 H   0  0  0  0  0  0  0  0  0  0  0  0
    0.7705   -0.3670    1.0606 C   0  0  0  0  0  0  0  0  0  0  0  0
    1.9790   -0.3175    1.2477 O   0  0  0  0  0  0  0  0  0  0  0  0
   -0.0704    0.0628    2.0706 N   0  0  0  0  0  0  0  0  0  0  0  0
   -1.0562    0.1642    1.8452 H   0  0  0  0  0  0  0  0  0  0  0  0
    0.3999    0.4838    3.3835 C   0  0  0  0  0  0  0  0  0  0  0  0
    1.0684    1.3462    3.2935 H   0  0  0  0  0  0  0  0  0  0  0  0
   -0.4475    0.7668    4.0150 H   0  0  0  0  0  0  0  0  0  0  0  0
    0.9401   -0.3320    3.8752 H   0  0  0  0  0  0  0  0  0  0  0  0
  1  2  1  0  0  0  0
  2  3  1  0  0  0  0
  2  4  1  0  0  0  0
  2  5  1  0  0  0  0
  5  6  2  0  0  0  0
  5  7  1  0  0  0  0
  7  8  1  0  0  0  0
  7  9  1  0  0  0  0
  9 10  1  0  0  0  0
  9 11  1  0  0  0  0
  9 21  1  0  0  0  0
 11 12  1  0  0  0  0
 11 13  1  0  0  0  0
 11 14  1  0  0  0  0
 14 15  1  0  0  0  0
 14 16  1  0  0  0  0
 14 17  1  0  0  0  0
 17 18  2  0  0  0  0
 17 19  1  0  0  0  0
 19 20  1  0  0  0  0
 21 22  2  0  0  0  0
 21 23  1  0  0  0  0
 23 24  1  0  0  0  0
 23 25  1  0  0  0  0
 25 26  1  0  0  0  0
 25 27  1  0  0  0  0
 25 28  1  0  0  0  0
M  END
$$$$

  -OEChem-03222214033D

 28 27  0     1  0  0  0  0  0999 V2000
   -2.4483   -4.3576    0.3388 H   0  0  0  0  0  0  0  0  0  0  0  0
   -2.5026   -3.3535   -0.0912 C   0  0  0  0  0  0  0  0  0  0  0  0
   -3.2454   -2.7730    0.4609 H   0  0  0  0  0  0  0  0  0  0  0  0
   -2.8161   -3.4335   -1.1347 H   0  0  0  0  0  0  0  0  0  0  0  0
   -1.1481   -2.6761   -0.0097 C   0  0  0  0  0  0  0  0  0  0  0  0
   -0.1941   -3.2698    0.4606 O   0  0  0  0  0  0  0  0  0  0  0  0
   -1.0056   -1.3789   -0.4555 N   0  0  0  0  0  0  0  0  0  0  0  0
   -1.8560   -0.9068   -0.7683 H   0  0  0  0  0  0  0  0  0  0  0  0
    0.2383   -0.5972   -0.3649 C   0  0  1  0  0  0  0  0  0  0  0  0
    1.0084   -1.2036   -0.8566 H   0  0  0  0  0  0  0  0  0  0  0  0
    0.1587    0.7195   -1.1728 C   0  0  0  0  0  0  0  0  0  0  0  0
    1.1417    1.2024   -1.1290 H   0  0  0  0  0  0  0  0  0  0  0  0
    0.0022    0.4269   -2.2164 H   0  0  0  0  0  0  0  0  0  0  0  0
   -0.9197    1.7915   -0.8399 C   0  0  0  0  0  0  0  0  0  0  0  0
   -0.4119    2.6132   -0.3263 H   0  0  0  0  0  0  0  0  0  0  0  0
   -1.3113    2.1995   -1.7760 H   0  0  0  0  0  0  0  0  0  0  0  0
   -2.1096    1.4081    0.0375 C   0  0  0  0  0  0  0  0  0  0  0  0
   -2.9429    0.6455   -0.4223 O   0  0  0  0  0  0  0  0  0  0  0  0
   -2.2131    1.9595    1.2654 O   0  0  0  0  0  0  0  0  0  0  0  0
   -3.0727    1.6746    1.6123 H   0  0  0  0  0  0  0  0  0  0  0  0
    0.7892   -0.3686    1.0623 C   0  0  0  0  0  0  0  0  0  0  0  0
    1.9981   -0.2723    1.2269 O   0  0  0  0  0  0  0  0  0  0  0  0
   -0.0464    0.0037    2.0979 N   0  0  0  0  0  0  0  0  0  0  0  0
   -1.0448   -0.0443    1.9266 H   0  0  0  0  0  0  0  0  0  0  0  0
    0.4288    0.3489    3.4314 C   0  0  0  0  0  0  0  0  0  0  0  0
    1.1132    1.2027    3.3862 H   0  0  0  0  0  0  0  0  0  0  0  0
   -0.4139    0.6167    4.0757 H   0  0  0  0  0  0  0  0  0  0  0  0
    0.9539   -0.5005    3.8809 H   0  0  0  0  0  0  0  0  0  0  0  0
  1  2  1  0  0  0  0
  2  3  1  0  0  0  0
  2  4  1  0  0  0  0
  2  5  1  0  0  0  0
  5  6  2  0  0  0  0
  5  7  1  0  0  0  0
  7  8  1  0  0  0  0
  7  9  1  0  0  0  0
  9 10  1  0  0  0  0
  9 11  1  0  0  0  0
  9 21  1  0  0  0  0
 11 12  1  0  0  0  0
 11 13  1  0  0  0  0
 11 14  1  0  0  0  0
 14 15  1  0  0  0  0
 14 16  1  0  0  0  0
 14 17  1  0  0  0  0
 17 18  2  0  0  0  0
 17 19  1  0  0  0  0
 19 20  1  0  0  0  0
 21 22  2  0  0  0  0
 21 23  1  0  0  0  0
 23 24  1  0  0  0  0
 23 25  1  0  0  0  0
 25 26  1  0  0  0  0
 25 27  1  0  0  0  0
 25 28  1  0  0  0  0
M  END
$$$$

  -OEChem-03222214033D

 28 27  0     1  0  0  0  0  0999 V2000
   -1.6876   -4.3267    1.1033 H   0  0  0  0  0  0  0  0  0  0  0  0
   -1.9076   -3.4007    0.5647 C   0  0  0  0  0  0  0  0  0  0  0  0
   -2.6562   -2.8349    1.1247 H   0  0  0  0  0  0  0  0  0  0  0  0
   -2.3131   -3.6524   -0.4183 H   0  0  0  0  0  0  0  0  0  0  0  0
   -0.6453   -2.5754    0.4061 C   0  0  0  0  0  0  0  0  0  0  0  0
    0.4156   -2.9859    0.8448 O   0  0  0  0  0  0  0  0  0  0  0  0
   -0.7139   -1.3338   -0.1882 N   0  0  0  0  0  0  0  0  0  0  0  0
   -1.6525   -0.9704   -0.3627 H   0  0  0  0  0  0  0  0  0  0  0  0
    0.4064   -0.3818   -0.2457 C   0  0  1  0  0  0  0  0  0  0  0  0
    1.2362   -0.9560   -0.6743 H   0  0  0  0  0  0  0  0  0  0  0  0
    0.1484    0.7479   -1.2717 C   0  0  0  0  0  0  0  0  0  0  0  0
    1.0495    1.3707   -1.3073 H   0  0  0  0  0  0  0  0  0  0  0  0
    0.0663    0.2685   -2.2528 H   0  0  0  0  0  0  0  0  0  0  0  0
   -1.0734    1.6968   -1.1255 C   0  0  0  0  0  0  0  0  0  0  0  0
   -0.6960    2.7216   -1.0636 H   0  0  0  0  0  0  0  0  0  0  0  0
   -1.6709    1.6362   -2.0394 H   0  0  0  0  0  0  0  0  0  0  0  0
   -2.0247    1.5010    0.0489 C   0  0  0  0  0  0  0  0  0  0  0  0
   -2.7993    0.5572    0.0169 O   0  0  0  0  0  0  0  0  0  0  0  0
   -2.0164    2.4228    1.0354 O   0  0  0  0  0  0  0  0  0  0  0  0
   -2.7035    2.1476    1.6597 H   0  0  0  0  0  0  0  0  0  0  0  0
    1.0076    0.1220    1.0954 C   0  0  0  0  0  0  0  0  0  0  0  0
    2.1278    0.6076    1.0815 O   0  0  0  0  0  0  0  0  0  0  0  0
    0.3050    0.5410    2.2037 N   0  0  0  0  0  0  0  0  0  0  0  0
    0.9156    1.0415    2.8447 H   0  0  0  0  0  0  0  0  0  0  0  0
   -0.7444   -0.2633    2.8133 C   0  0  0  0  0  0  0  0  0  0  0  0
   -0.3714   -1.2674    3.0412 H   0  0  0  0  0  0  0  0  0  0  0  0
   -1.0703    0.2015    3.7487 H   0  0  0  0  0  0  0  0  0  0  0  0
   -1.6149   -0.3504    2.1607 H   0  0  0  0  0  0  0  0  0  0  0  0
  1  2  1  0  0  0  0
  2  3  1  0  0  0  0
  2  4  1  0  0  0  0
  2  5  1  0  0  0  0
  5  6  2  0  0  0  0
  5  7  1  0  0  0  0
  7  8  1  0  0  0  0
  7  9  1  0  0  0  0
  9 10  1  0  0  0  0
  9 11  1  0  0  0  0
  9 21  1  0  0  0  0
 11 12  1  0  0  0  0
 11 13  1  0  0  0  0
 11 14  1  0  0  0  0
 14 15  1  0  0  0  0
 14 16  1  0  0  0  0
 14 17  1  0  0  0  0
 17 18  2  0  0  0  0
 17 19  1  0  0  0  0
 19 20  1  0  0  0  0
 21 22  2  0  0  0  0
 21 23  1  0  0  0  0
 23 24  1  0  0  0  0
 23 25  1  0  0  0  0
 25 26  1  0  0  0  0
 25 27  1  0  0  0  0
 25 28  1  0  0  0  0
M  END
$$$$

  -OEChem-03222214033D

 28 27  0     1  0  0  0  0  0999 V2000
   -2.7209   -4.1572    0.3660 H   0  0  0  0  0  0  0  0  0  0  0  0
   -2.6357   -3.1654   -0.0869 C   0  0  0  0  0  0  0  0  0  0  0  0
   -3.3139   -2.4823    0.4302 H   0  0  0  0  0  0  0  0  0  0  0  0
   -2.9275   -3.2318   -1.1378 H   0  0  0  0  0  0  0  0  0  0  0  0
   -1.2093   -2.6618    0.0229 C   0  0  0  0  0  0  0  0  0  0  0  0
   -0.3534   -3.3593    0.5382 O   0  0  0  0  0  0  0  0  0  0  0  0
   -0.8945   -1.4011   -0.4404 N   0  0  0  0  0  0  0  0  0  0  0  0
   -1.6948   -0.8070   -0.6587 H   0  0  0  0  0  0  0  0  0  0  0  0
    0.3736   -0.7199   -0.1328 C   0  0  1  0  0  0  0  0  0  0  0  0
    1.1641   -1.4245   -0.4179 H   0  0  0  0  0  0  0  0  0  0  0  0
    0.5835    0.5013   -1.0582 C   0  0  0  0  0  0  0  0  0  0  0  0
    1.5588    0.9251   -0.7923 H   0  0  0  0  0  0  0  0  0  0  0  0
    0.6766    0.1284   -2.0836 H   0  0  0  0  0  0  0  0  0  0  0  0
   -0.4370    1.6747   -1.0756 C   0  0  0  0  0  0  0  0  0  0  0  0
    0.1223    2.6136   -1.1239 H   0  0  0  0  0  0  0  0  0  0  0  0
   -1.0130    1.6041   -2.0024 H   0  0  0  0  0  0  0  0  0  0  0  0
   -1.4553    1.7952    0.0538 C   0  0  0  0  0  0  0  0  0  0  0  0
   -2.3408    0.9587    0.1464 O   0  0  0  0  0  0  0  0  0  0  0  0
   -1.3404    2.8496    0.8889 O   0  0  0  0  0  0  0  0  0  0  0  0
   -2.0712    2.7749    1.5205 H   0  0  0  0  0  0  0  0  0  0  0  0
    0.6497   -0.4726    1.3701 C   0  0  0  0  0  0  0  0  0  0  0  0
    1.8044   -0.4625    1.7744 O   0  0  0  0  0  0  0  0  0  0  0  0
   -0.3407    0.0117    2.2041 N   0  0  0  0  0  0  0  0  0  0  0  0
   -1.2903   -0.0004    1.8378 H   0  0  0  0  0  0  0  0  0  0  0  0
   -0.1179    0.3564    3.6022 C   0  0  0  0  0  0  0  0  0  0  0  0
    0.5883    1.1895    3.6823 H   0  0  0  0  0  0  0  0  0  0  0  0
   -1.0594    0.6540    4.0735 H   0  0  0  0  0  0  0  0  0  0  0  0
    0.2862   -0.5025    4.1485 H   0  0  0  0  0  0  0  0  0  0  0  0
  1  2  1  0  0  0  0
  2  3  1  0  0  0  0
  2  4  1  0  0  0  0
  2  5  1  0  0  0  0
  5  6  2  0  0  0  0
  5  7  1  0  0  0  0
  7  8  1  0  0  0  0
  7  9  1  0  0  0  0
  9 10  1  0  0  0  0
  9 11  1  0  0  0  0
  9 21  1  0  0  0  0
 11 12  1  0  0  0  0
 11 13  1  0  0  0  0
 11 14  1  0  0  0  0
 14 15  1  0  0  0  0
 14 16  1  0  0  0  0
 14 17  1  0  0  0  0
 17 18  2  0  0  0  0
 17 19  1  0  0  0  0
 19 20  1  0  0  0  0
 21 22  2  0  0  0  0
 21 23  1  0  0  0  0
 23 24  1  0  0  0  0
 23 25  1  0  0  0  0
 25 26  1  0  0  0  0
 25 27  1  0  0  0  0
 25 28  1  0  0  0  0
M  END
$$$$

  -OEChem-03222214033D

 28 27  0     1  0  0  0  0  0999 V2000
   -2.5556   -4.2042    0.3084 H   0  0  0  0  0  0  0  0  0  0  0  0
   -2.5972   -3.1639   -0.0266 C   0  0  0  0  0  0  0  0  0  0  0  0
   -3.2361   -2.5997    0.6567 H   0  0  0  0  0  0  0  0  0  0  0  0
   -3.0302   -3.1348   -1.0293 H   0  0  0  0  0  0  0  0  0  0  0  0
   -1.2027   -2.5674   -0.0478 C   0  0  0  0  0  0  0  0  0  0  0  0
   -0.2452   -3.2456    0.2781 O   0  0  0  0  0  0  0  0  0  0  0  0
   -1.0274   -1.2506   -0.4223 N   0  0  0  0  0  0  0  0  0  0  0  0
   -1.8746   -0.6971   -0.5237 H   0  0  0  0  0  0  0  0  0  0  0  0
    0.2520   -0.5311   -0.3027 C   0  0  1  0  0  0  0  0  0  0  0  0
    0.9850   -1.1786   -0.7994 H   0  0  0  0  0  0  0  0  0  0  0  0
    0.2393    0.7443   -1.1731 C   0  0  0  0  0  0  0  0  0  0  0  0
    1.2233    1.2121   -1.0528 H   0  0  0  0  0  0  0  0  0  0  0  0
    0.1608    0.4417   -2.2226 H   0  0  0  0  0  0  0  0  0  0  0  0
   -0.8248    1.8392   -0.9108 C   0  0  0  0  0  0  0  0  0  0  0  0
   -0.4256    2.7993   -1.2522 H   0  0  0  0  0  0  0  0  0  0  0  0
   -1.6939    1.6176   -1.5353 H   0  0  0  0  0  0  0  0  0  0  0  0
   -1.3488    2.0166    0.5078 C   0  0  0  0  0  0  0  0  0  0  0  0
   -0.9305    2.9452    1.1704 O   0  0  0  0  0  0  0  0  0  0  0  0
   -2.3199    1.1777    0.9409 O   0  0  0  0  0  0  0  0  0  0  0  0
   -2.5881    1.5533    1.7968 H   0  0  0  0  0  0  0  0  0  0  0  0
    0.8542   -0.3987    1.1179 C   0  0  0  0  0  0  0  0  0  0  0  0
    2.0703   -0.3615    1.2465 O   0  0  0  0  0  0  0  0  0  0  0  0
    0.0704   -0.0477    2.1995 N   0  0  0  0  0  0  0  0  0  0  0  0
   -0.9337   -0.0399    2.0527 H   0  0  0  0  0  0  0  0  0  0  0  0
    0.6073    0.2849    3.5128 C   0  0  0  0  0  0  0  0  0  0  0  0
    1.2444    1.1736    3.4507 H   0  0  0  0  0  0  0  0  0  0  0  0
   -0.2066    0.4914    4.2142 H   0  0  0  0  0  0  0  0  0  0  0  0
    1.2000   -0.5480    3.9059 H   0  0  0  0  0  0  0  0  0  0  0  0
  1  2  1  0  0  0  0
  2  3  1  0  0  0  0
  2  4  1  0  0  0  0
  2  5  1  0  0  0  0
  5  6  2  0  0  0  0
  5  7  1  0  0  0  0
  7  8  1  0  0  0  0
  7  9  1  0  0  0  0
  9 10  1  0  0  0  0
  9 11  1  0  0  0  0
  9 21  1  0  0  0  0
 11 12  1  0  0  0  0
 11 13  1  0  0  0  0
 11 14  1  0  0  0  0
 14 15  1  0  0  0  0
 14 16  1  0  0  0  0
 14 17  1  0  0  0  0
 17 18  2  0  0  0  0
 17 19  1  0  0  0  0
 19 20  1  0  0  0  0
 21 22  2  0  0  0  0
 21 23  1  0  0  0  0
 23 24  1  0  0  0  0
 23 25  1  0  0  0  0
 25 26  1  0  0  0  0
 25 27  1  0  0  0  0
 25 28  1  0  0  0  0
M  END
$$$$

  -OEChem-03222214033D

 28 27  0     1  0  0  0  0  0999 V2000
   -2.8772   -4.0219    0.1768 H   0  0  0  0  0  0  0  0  0  0  0  0
   -2.8163   -2.9905   -0.1824 C   0  0  0  0  0  0  0  0  0  0  0  0
   -3.4737   -2.3667    0.4276 H   0  0  0  0  0  0  0  0  0  0  0  0
   -3.1546   -2.9598   -1.2209 H   0  0  0  0  0  0  0  0  0  0  0  0
   -1.3876   -2.4893   -0.0877 C   0  0  0  0  0  0  0  0  0  0  0  0
   -0.5075   -3.2313    0.3086 O   0  0  0  0  0  0  0  0  0  0  0  0
   -1.0929   -1.1881   -0.4426 N   0  0  0  0  0  0  0  0  0  0  0  0
   -1.8785   -0.5915   -0.6824 H   0  0  0  0  0  0  0  0  0  0  0  0
    0.2377   -0.5734   -0.2933 C   0  0  1  0  0  0  0  0  0  0  0  0
    0.9265   -1.2725   -0.7833 H   0  0  0  0  0  0  0  0  0  0  0  0
    0.3377    0.7066   -1.1534 C   0  0  0  0  0  0  0  0  0  0  0  0
    1.3522    1.1005   -1.0208 H   0  0  0  0  0  0  0  0  0  0  0  0
    0.2434    0.4200   -2.2060 H   0  0  0  0  0  0  0  0  0  0  0  0
   -0.6507    1.8657   -0.8836 C   0  0  0  0  0  0  0  0  0  0  0  0
   -0.2991    2.7525   -1.4192 H   0  0  0  0  0  0  0  0  0  0  0  0
   -1.6203    1.5999   -1.3116 H   0  0  0  0  0  0  0  0  0  0  0  0
   -0.8913    2.2592    0.5659 C   0  0  0  0  0  0  0  0  0  0  0  0
   -0.1440    3.0661    1.0824 O   0  0  0  0  0  0  0  0  0  0  0  0
   -1.9661    1.7326    1.1972 O   0  0  0  0  0  0  0  0  0  0  0  0
   -1.9769    2.1838    2.0581 H   0  0  0  0  0  0  0  0  0  0  0  0
    0.8173   -0.5059    1.1416 C   0  0  0  0  0  0  0  0  0  0  0  0
    2.0275   -0.5937    1.2977 O   0  0  0  0  0  0  0  0  0  0  0  0
    0.0444   -0.1060    2.2146 N   0  0  0  0  0  0  0  0  0  0  0  0
   -0.9467    0.0333    2.0400 H   0  0  0  0  0  0  0  0  0  0  0  0
    0.5830    0.1484    3.5449 C   0  0  0  0  0  0  0  0  0  0  0  0
    1.2851    0.9885    3.5179 H   0  0  0  0  0  0  0  0  0  0  0  0
   -0.2245    0.3936    4.2412 H   0  0  0  0  0  0  0  0  0  0  0  0
    1.1063   -0.7368    3.9217 H   0  0  0  0  0  0  0  0  0  0  0  0
  1  2  1  0  0  0  0
  2  3  1  0  0  0  0
  2  4  1  0  0  0  0
  2  5  1  0  0  0  0
  5  6  2  0  0  0  0
  5  7  1  0  0  0  0
  7  8  1  0  0  0  0
  7  9  1  0  0  0  0
  9 10  1  0  0  0  0
  9 11  1  0  0  0  0
  9 21  1  0  0  0  0
 11 12  1  0  0  0  0
 11 13  1  0  0  0  0
 11 14  1  0  0  0  0
 14 15  1  0  0  0  0
 14 16  1  0  0  0  0
 14 17  1  0  0  0  0
 17 18  2  0  0  0  0
 17 19  1  0  0  0  0
 19 20  1  0  0  0  0
 21 22  2  0  0  0  0
 21 23  1  0  0  0  0
 23 24  1  0  0  0  0
 23 25  1  0  0  0  0
 25 26  1  0  0  0  0
 25 27  1  0  0  0  0
 25 28  1  0  0  0  0
M  END
$$$$

  -OEChem-03222214033D

 28 27  0     1  0  0  0  0  0999 V2000
   -2.7837   -4.0984    0.2092 H   0  0  0  0  0  0  0  0  0  0  0  0
   -2.7419   -3.0768   -0.1797 C   0  0  0  0  0  0  0  0  0  0  0  0
   -3.4742   -2.4671    0.3548 H   0  0  0  0  0  0  0  0  0  0  0  0
   -2.9966   -3.0951   -1.2421 H   0  0  0  0  0  0  0  0  0  0  0  0
   -1.3502   -2.5038    0.0105 C   0  0  0  0  0  0  0  0  0  0  0  0
   -0.4819   -3.1771    0.5342 O   0  0  0  0  0  0  0  0  0  0  0  0
   -1.0745   -1.2188   -0.4129 N   0  0  0  0  0  0  0  0  0  0  0  0
   -1.8312   -0.7090   -0.8570 H   0  0  0  0  0  0  0  0  0  0  0  0
    0.2458   -0.5733   -0.2972 C   0  0  1  0  0  0  0  0  0  0  0  0
    0.9526   -1.2709   -0.7628 H   0  0  0  0  0  0  0  0  0  0  0  0
    0.2964    0.6876   -1.1907 C   0  0  0  0  0  0  0  0  0  0  0  0
    1.3031    1.1141   -1.1074 H   0  0  0  0  0  0  0  0  0  0  0  0
    0.1701    0.3696   -2.2308 H   0  0  0  0  0  0  0  0  0  0  0  0
   -0.7262    1.8128   -0.9087 C   0  0  0  0  0  0  0  0  0  0  0  0
   -0.5678    2.6149   -1.6351 H   0  0  0  0  0  0  0  0  0  0  0  0
   -1.7367    1.4304   -1.0695 H   0  0  0  0  0  0  0  0  0  0  0  0
   -0.6718    2.4390    0.4771 C   0  0  0  0  0  0  0  0  0  0  0  0
    0.2802    3.1380    0.7636 O   0  0  0  0  0  0  0  0  0  0  0  0
   -1.7085    2.2146    1.3152 O   0  0  0  0  0  0  0  0  0  0  0  0
   -1.4898    2.7331    2.1070 H   0  0  0  0  0  0  0  0  0  0  0  0
    0.8111   -0.4254    1.1372 C   0  0  0  0  0  0  0  0  0  0  0  0
    2.0189   -0.5111    1.3122 O   0  0  0  0  0  0  0  0  0  0  0  0
    0.0225    0.0145    2.1838 N   0  0  0  0  0  0  0  0  0  0  0  0
   -0.9677    0.1441    1.9967 H   0  0  0  0  0  0  0  0  0  0  0  0
    0.5428    0.2955    3.5156 C   0  0  0  0  0  0  0  0  0  0  0  0
    1.2727    1.1113    3.4760 H   0  0  0  0  0  0  0  0  0  0  0  0
   -0.2699    0.5889    4.1865 H   0  0  0  0  0  0  0  0  0  0  0  0
    1.0296   -0.5935    3.9308 H   0  0  0  0  0  0  0  0  0  0  0  0
  1  2  1  0  0  0  0
  2  3  1  0  0  0  0
  2  4  1  0  0  0  0
  2  5  1  0  0  0  0
  5  6  2  0  0  0  0
  5  7  1  0  0  0  0
  7  8  1  0  0  0  0
  7  9  1  0  0  0  0
  9 10  1  0  0  0  0
  9 11  1  0  0  0  0
  9 21  1  0  0  0  0
 11 12  1  0  0  0  0
 11 13  1  0  0  0  0
 11 14  1  0  0  0  0
 14 15  1  0  0  0  0
 14 16  1  0  0  0  0
 14 17  1  0  0  0  0
 17 18  2  0  0  0  0
 17 19  1  0  0  0  0
 19 20  1  0  0  0  0
 21 22  2  0  0  0  0
 21 23  1  0  0  0  0
 23 24  1  0  0  0  0
 23 25  1  0  0  0  0
 25 26  1  0  0  0  0
 25 27  1  0  0  0  0
 25 28  1  0  0  0  0
M  END
$$$$

  -OEChem-03222214033D

 28 27  0     1  0  0  0  0  0999 V2000
   -2.7439   -4.1209    0.2335 H   0  0  0  0  0  0  0  0  0  0  0  0
   -2.7057   -3.1147   -0.1939 C   0  0  0  0  0  0  0  0  0  0  0  0
   -3.4858   -2.5065    0.2700 H   0  0  0  0  0  0  0  0  0  0  0  0
   -2.8943   -3.1829   -1.2679 H   0  0  0  0  0  0  0  0  0  0  0  0
   -1.3444   -2.4942    0.0571 C   0  0  0  0  0  0  0  0  0  0  0  0
   -0.5012   -3.1137    0.6784 O   0  0  0  0  0  0  0  0  0  0  0  0
   -1.0688   -1.2282   -0.4217 N   0  0  0  0  0  0  0  0  0  0  0  0
   -1.7789   -0.7992   -1.0058 H   0  0  0  0  0  0  0  0  0  0  0  0
    0.2526   -0.5783   -0.3262 C   0  0  1  0  0  0  0  0  0  0  0  0
    0.9702   -1.2720   -0.7807 H   0  0  0  0  0  0  0  0  0  0  0  0
    0.2748    0.6876   -1.2122 C   0  0  0  0  0  0  0  0  0  0  0  0
    1.2815    1.1210   -1.1748 H   0  0  0  0  0  0  0  0  0  0  0  0
    0.1051    0.3713   -2.2466 H   0  0  0  0  0  0  0  0  0  0  0  0
   -0.7596    1.7880   -0.8753 C   0  0  0  0  0  0  0  0  0  0  0  0
   -0.8109    2.4846   -1.7165 H   0  0  0  0  0  0  0  0  0  0  0  0
   -1.7527    1.3485   -0.7600 H   0  0  0  0  0  0  0  0  0  0  0  0
   -0.4433    2.6160    0.3649 C   0  0  0  0  0  0  0  0  0  0  0  0
    0.6137    3.2147    0.4163 O   0  0  0  0  0  0  0  0  0  0  0  0
   -1.3763    2.6709    1.3403 O   0  0  0  0  0  0  0  0  0  0  0  0
   -0.9830    3.2463    2.0163 H   0  0  0  0  0  0  0  0  0  0  0  0
    0.7952   -0.3756    1.1095 C   0  0  0  0  0  0  0  0  0  0  0  0
    1.9983   -0.4642    1.3126 O   0  0  0  0  0  0  0  0  0  0  0  0
   -0.0153    0.1065    2.1206 N   0  0  0  0  0  0  0  0  0  0  0  0
   -1.0077    0.1867    1.9222 H   0  0  0  0  0  0  0  0  0  0  0  0
    0.4660    0.3802    3.4682 C   0  0  0  0  0  0  0  0  0  0  0  0
    1.2516    1.1429    3.4463 H   0  0  0  0  0  0  0  0  0  0  0  0
   -0.3526    0.7445    4.0958 H   0  0  0  0  0  0  0  0  0  0  0  0
    0.8712   -0.5308    3.9209 H   0  0  0  0  0  0  0  0  0  0  0  0
  1  2  1  0  0  0  0
  2  3  1  0  0  0  0
  2  4  1  0  0  0  0
  2  5  1  0  0  0  0
  5  6  2  0  0  0  0
  5  7  1  0  0  0  0
  7  8  1  0  0  0  0
  7  9  1  0  0  0  0
  9 10  1  0  0  0  0
  9 11  1  0  0  0  0
  9 21  1  0  0  0  0
 11 12  1  0  0  0  0
 11 13  1  0  0  0  0
 11 14  1  0  0  0  0
 14 15  1  0  0  0  0
 14 16  1  0  0  0  0
 14 17  1  0  0  0  0
 17 18  2  0  0  0  0
 17 19  1  0  0  0  0
 19 20  1  0  0  0  0
 21 22  2  0  0  0  0
 21 23  1  0  0  0  0
 23 24  1  0  0  0  0
 23 25  1  0  0  0  0
 25 26  1  0  0  0  0
 25 27  1  0  0  0  0
 25 28  1  0  0  0  0
M  END
$$$$

  -OEChem-03222214033D

 28 27  0     1  0  0  0  0  0999 V2000
   -2.7115   -4.1436    0.2489 H   0  0  0  0  0  0  0  0  0  0  0  0
   -2.6783   -3.1471   -0.2012 C   0  0  0  0  0  0  0  0  0  0  0  0
   -3.4820   -2.5420    0.2249 H   0  0  0  0  0  0  0  0  0  0  0  0
   -2.8339   -3.2441   -1.2783 H   0  0  0  0  0  0  0  0  0  0  0  0
   -1.3361   -2.4960    0.0738 C   0  0  0  0  0  0  0  0  0  0  0  0
   -0.5076   -3.0771    0.7497 O   0  0  0  0  0  0  0  0  0  0  0  0
   -1.0623   -1.2448   -0.4435 N   0  0  0  0  0  0  0  0  0  0  0  0
   -1.7495   -0.8618   -1.0848 H   0  0  0  0  0  0  0  0  0  0  0  0
    0.2557   -0.5857   -0.3538 C   0  0  1  0  0  0  0  0  0  0  0  0
    0.9854   -1.2727   -0.7985 H   0  0  0  0  0  0  0  0  0  0  0  0
    0.2616    0.6890   -1.2245 C   0  0  0  0  0  0  0  0  0  0  0  0
    1.2668    1.1270   -1.2112 H   0  0  0  0  0  0  0  0  0  0  0  0
    0.0689    0.3822   -2.2575 H   0  0  0  0  0  0  0  0  0  0  0  0
   -0.7875    1.7614   -0.8399 C   0  0  0  0  0  0  0  0  0  0  0  0
   -1.0554    2.3233   -1.7387 H   0  0  0  0  0  0  0  0  0  0  0  0
   -1.7016    1.2960   -0.4658 H   0  0  0  0  0  0  0  0  0  0  0  0
   -0.2947    2.7820    0.1826 C   0  0  0  0  0  0  0  0  0  0  0  0
    0.7318    3.3943   -0.0437 O   0  0  0  0  0  0  0  0  0  0  0  0
   -1.0533    2.9861    1.2809 O   0  0  0  0  0  0  0  0  0  0  0  0
   -0.5668    3.6536    1.7904 H   0  0  0  0  0  0  0  0  0  0  0  0
    0.7772   -0.3356    1.0817 C   0  0  0  0  0  0  0  0  0  0  0  0
    1.9794   -0.3909    1.3007 O   0  0  0  0  0  0  0  0  0  0  0  0
   -0.0542    0.1750    2.0615 N   0  0  0  0  0  0  0  0  0  0  0  0
   -1.0484    0.1911    1.8603 H   0  0  0  0  0  0  0  0  0  0  0  0
    0.3986    0.4742    3.4136 C   0  0  0  0  0  0  0  0  0  0  0  0
    1.2030    1.2171    3.3933 H   0  0  0  0  0  0  0  0  0  0  0  0
   -0.4268    0.8762    4.0086 H   0  0  0  0  0  0  0  0  0  0  0  0
    0.7694   -0.4335    3.9013 H   0  0  0  0  0  0  0  0  0  0  0  0
  1  2  1  0  0  0  0
  2  3  1  0  0  0  0
  2  4  1  0  0  0  0
  2  5  1  0  0  0  0
  5  6  2  0  0  0  0
  5  7  1  0  0  0  0
  7  8  1  0  0  0  0
  7  9  1  0  0  0  0
  9 10  1  0  0  0  0
  9 11  1  0  0  0  0
  9 21  1  0  0  0  0
 11 12  1  0  0  0  0
 11 13  1  0  0  0  0
 11 14  1  0  0  0  0
 14 15  1  0  0  0  0
 14 16  1  0  0  0  0
 14 17  1  0  0  0  0
 17 18  2  0  0  0  0
 17 19  1  0  0  0  0
 19 20  1  0  0  0  0
 21 22  2  0  0  0  0
 21 23  1  0  0  0  0
 23 24  1  0  0  0  0
 23 25  1  0  0  0  0
 25 26  1  0  0  0  0
 25 27  1  0  0  0  0
 25 28  1  0  0  0  0
M  END
$$$$

  -OEChem-03222214033D

 28 27  0     1  0  0  0  0  0999 V2000
   -2.7028   -4.1567    0.2786 H   0  0  0  0  0  0  0  0  0  0  0  0
   -2.6555   -3.1879   -0.2269 C   0  0  0  0  0  0  0  0  0  0  0  0
   -3.4805   -2.5664    0.1286 H   0  0  0  0  0  0  0  0  0  0  0  0
   -2.7635   -3.3481   -1.3023 H   0  0  0  0  0  0  0  0  0  0  0  0
   -1.3300   -2.5113    0.0675 C   0  0  0  0  0  0  0  0  0  0  0  0
   -0.5098   -3.0659    0.7751 O   0  0  0  0  0  0  0  0  0  0  0  0
   -1.0635   -1.2646   -0.4643 N   0  0  0  0  0  0  0  0  0  0  0  0
   -1.7375   -0.9083   -1.1346 H   0  0  0  0  0  0  0  0  0  0  0  0
    0.2478   -0.5925   -0.3700 C   0  0  1  0  0  0  0  0  0  0  0  0
    0.9901   -1.2678   -0.8113 H   0  0  0  0  0  0  0  0  0  0  0  0
    0.2387    0.6917   -1.2234 C   0  0  0  0  0  0  0  0  0  0  0  0
    1.2395    1.1394   -1.2014 H   0  0  0  0  0  0  0  0  0  0  0  0
    0.0501    0.4034   -2.2627 H   0  0  0  0  0  0  0  0  0  0  0  0
   -0.8259    1.7380   -0.8084 C   0  0  0  0  0  0  0  0  0  0  0  0
   -1.3103    2.1277   -1.7078 H   0  0  0  0  0  0  0  0  0  0  0  0
   -1.6056    1.2869   -0.1911 H   0  0  0  0  0  0  0  0  0  0  0  0
   -0.2358    2.9328   -0.0640 C   0  0  0  0  0  0  0  0  0  0  0  0
    0.6082    3.6099   -0.6212 O   0  0  0  0  0  0  0  0  0  0  0  0
   -0.7057    3.2020    1.1724 O   0  0  0  0  0  0  0  0  0  0  0  0
   -0.1917    3.9693    1.4693 H   0  0  0  0  0  0  0  0  0  0  0  0
    0.7547   -0.3175    1.0664 C   0  0  0  0  0  0  0  0  0  0  0  0
    1.9580   -0.3234    1.2872 O   0  0  0  0  0  0  0  0  0  0  0  0
   -0.0941    0.1996    2.0277 N   0  0  0  0  0  0  0  0  0  0  0  0
   -1.0876    0.1725    1.8270 H   0  0  0  0  0  0  0  0  0  0  0  0
    0.3470    0.5787    3.3635 C   0  0  0  0  0  0  0  0  0  0  0  0
    1.1268    1.3454    3.3057 H   0  0  0  0  0  0  0  0  0  0  0  0
   -0.4917    0.9836    3.9376 H   0  0  0  0  0  0  0  0  0  0  0  0
    0.7462   -0.2910    3.8957 H   0  0  0  0  0  0  0  0  0  0  0  0
  1  2  1  0  0  0  0
  2  3  1  0  0  0  0
  2  4  1  0  0  0  0
  2  5  1  0  0  0  0
  5  6  2  0  0  0  0
  5  7  1  0  0  0  0
  7  8  1  0  0  0  0
  7  9  1  0  0  0  0
  9 10  1  0  0  0  0
  9 11  1  0  0  0  0
  9 21  1  0  0  0  0
 11 12  1  0  0  0  0
 11 13  1  0  0  0  0
 11 14  1  0  0  0  0
 14 15  1  0  0  0  0
 14 16  1  0  0  0  0
 14 17  1  0  0  0  0
 17 18  2  0  0  0  0
 17 19  1  0  0  0  0
 19 20  1  0  0  0  0
 21 22  2  0  0  0  0
 21 23  1  0  0  0  0
 23 24  1  0  0  0  0
 23 25  1  0  0  0  0
 25 26  1  0  0  0  0
 25 27  1  0  0  0  0
 25 28  1  0  0  0  0
M  END
$$$$

  -OEChem-03222214033D

 28 27  0     1  0  0  0  0  0999 V2000
   -2.6526   -4.2011    0.2431 H   0  0  0  0  0  0  0  0  0  0  0  0
   -2.6204   -3.2290   -0.2574 C   0  0  0  0  0  0  0  0  0  0  0  0
   -3.4672   -2.6294    0.0849 H   0  0  0  0  0  0  0  0  0  0  0  0
   -2.7052   -3.3871   -1.3353 H   0  0  0  0  0  0  0  0  0  0  0  0
   -1.3176   -2.5208    0.0631 C   0  0  0  0  0  0  0  0  0  0  0  0
   -0.5001   -3.0527    0.7911 O   0  0  0  0  0  0  0  0  0  0  0  0
   -1.0684   -1.2702   -0.4671 N   0  0  0  0  0  0  0  0  0  0  0  0
   -1.7376   -0.9307   -1.1509 H   0  0  0  0  0  0  0  0  0  0  0  0
    0.2311   -0.5783   -0.3646 C   0  0  1  0  0  0  0  0  0  0  0  0
    0.9851   -1.2428   -0.8029 H   0  0  0  0  0  0  0  0  0  0  0  0
    0.2043    0.7027   -1.2204 C   0  0  0  0  0  0  0  0  0  0  0  0
    1.1954    1.1700   -1.1699 H   0  0  0  0  0  0  0  0  0  0  0  0
    0.0444    0.4233   -2.2669 H   0  0  0  0  0  0  0  0  0  0  0  0
   -0.8841    1.7233   -0.8066 C   0  0  0  0  0  0  0  0  0  0  0  0
   -1.5582    1.8958   -1.6497 H   0  0  0  0  0  0  0  0  0  0  0  0
   -1.4913    1.3465    0.0186 H   0  0  0  0  0  0  0  0  0  0  0  0
   -0.2917    3.0672   -0.3980 C   0  0  0  0  0  0  0  0  0  0  0  0
    0.2702    3.7355   -1.2464 O   0  0  0  0  0  0  0  0  0  0  0  0
   -0.4255    3.4552    0.8880 O   0  0  0  0  0  0  0  0  0  0  0  0
    0.0457    4.3010    0.9450 H   0  0  0  0  0  0  0  0  0  0  0  0
    0.7358   -0.2906    1.0708 C   0  0  0  0  0  0  0  0  0  0  0  0
    1.9408   -0.2586    1.2812 O   0  0  0  0  0  0  0  0  0  0  0  0
   -0.1184    0.2165    2.0329 N   0  0  0  0  0  0  0  0  0  0  0  0
   -1.1118    0.1107    1.8600 H   0  0  0  0  0  0  0  0  0  0  0  0
    0.3257    0.6154    3.3622 C   0  0  0  0  0  0  0  0  0  0  0  0
    1.0908    1.3959    3.2925 H   0  0  0  0  0  0  0  0  0  0  0  0
   -0.5157    1.0107    3.9393 H   0  0  0  0  0  0  0  0  0  0  0  0
    0.7445   -0.2424    3.8990 H   0  0  0  0  0  0  0  0  0  0  0  0
  1  2  1  0  0  0  0
  2  3  1  0  0  0  0
  2  4  1  0  0  0  0
  2  5  1  0  0  0  0
  5  6  2  0  0  0  0
  5  7  1  0  0  0  0
  7  8  1  0  0  0  0
  7  9  1  0  0  0  0
  9 10  1  0  0  0  0
  9 11  1  0  0  0  0
  9 21  1  0  0  0  0
 11 12  1  0  0  0  0
 11 13  1  0  0  0  0
 11 14  1  0  0  0  0
 14 15  1  0  0  0  0
 14 16  1  0  0  0  0
 14 17  1  0  0  0  0
 17 18  2  0  0  0  0
 17 19  1  0  0  0  0
 19 20  1  0  0  0  0
 21 22  2  0  0  0  0
 21 23  1  0  0  0  0
 23 24  1  0  0  0  0
 23 25  1  0  0  0  0
 25 26  1  0  0  0  0
 25 27  1  0  0  0  0
 25 28  1  0  0  0  0
M  END
$$$$

  -OEChem-03222214033D

 28 27  0     1  0  0  0  0  0999 V2000
   -2.6062   -4.2333    0.2088 H   0  0  0  0  0  0  0  0  0  0  0  0
   -2.5960   -3.2482   -0.2664 C   0  0  0  0  0  0  0  0  0  0  0  0
   -3.4510   -2.6735    0.0974 H   0  0  0  0  0  0  0  0  0  0  0  0
   -2.6861   -3.3798   -1.3473 H   0  0  0  0  0  0  0  0  0  0  0  0
   -1.3043   -2.5240    0.0631 C   0  0  0  0  0  0  0  0  0  0  0  0
   -0.4806   -3.0494    0.7889 O   0  0  0  0  0  0  0  0  0  0  0  0
   -1.0751   -1.2631   -0.4514 N   0  0  0  0  0  0  0  0  0  0  0  0
   -1.7525   -0.9253   -1.1281 H   0  0  0  0  0  0  0  0  0  0  0  0
    0.2169   -0.5570   -0.3535 C   0  0  1  0  0  0  0  0  0  0  0  0
    0.9715   -1.2147   -0.8003 H   0  0  0  0  0  0  0  0  0  0  0  0
    0.1733    0.7178   -1.2183 C   0  0  0  0  0  0  0  0  0  0  0  0
    1.1576    1.1965   -1.1452 H   0  0  0  0  0  0  0  0  0  0  0  0
    0.0356    0.4428   -2.2692 H   0  0  0  0  0  0  0  0  0  0  0  0
   -0.9252    1.7306   -0.8151 C   0  0  0  0  0  0  0  0  0  0  0  0
   -1.7540    1.6781   -1.5253 H   0  0  0  0  0  0  0  0  0  0  0  0
   -1.3302    1.4968    0.1703 H   0  0  0  0  0  0  0  0  0  0  0  0
   -0.4090    3.1650   -0.7755 C   0  0  0  0  0  0  0  0  0  0  0  0
    0.0917    3.6302   -1.7832 O   0  0  0  0  0  0  0  0  0  0  0  0
   -0.5448    3.8573    0.3751 O   0  0  0  0  0  0  0  0  0  0  0  0
   -0.1405    4.7208    0.1980 H   0  0  0  0  0  0  0  0  0  0  0  0
    0.7381   -0.2816    1.0793 C   0  0  0  0  0  0  0  0  0  0  0  0
    1.9459   -0.2311    1.2695 O   0  0  0  0  0  0  0  0  0  0  0  0
   -0.1066    0.2020    2.0625 N   0  0  0  0  0  0  0  0  0  0  0  0
   -1.0973    0.0382    1.9191 H   0  0  0  0  0  0  0  0  0  0  0  0
    0.3567    0.5500    3.4003 C   0  0  0  0  0  0  0  0  0  0  0  0
    1.1240    1.3299    3.3494 H   0  0  0  0  0  0  0  0  0  0  0  0
   -0.4753    0.9261    4.0034 H   0  0  0  0  0  0  0  0  0  0  0  0
    0.7797   -0.3286    3.8990 H   0  0  0  0  0  0  0  0  0  0  0  0
  1  2  1  0  0  0  0
  2  3  1  0  0  0  0
  2  4  1  0  0  0  0
  2  5  1  0  0  0  0
  5  6  2  0  0  0  0
  5  7  1  0  0  0  0
  7  8  1  0  0  0  0
  7  9  1  0  0  0  0
  9 10  1  0  0  0  0
  9 11  1  0  0  0  0
  9 21  1  0  0  0  0
 11 12  1  0  0  0  0
 11 13  1  0  0  0  0
 11 14  1  0  0  0  0
 14 15  1  0  0  0  0
 14 16  1  0  0  0  0
 14 17  1  0  0  0  0
 17 18  2  0  0  0  0
 17 19  1  0  0  0  0
 19 20  1  0  0  0  0
 21 22  2  0  0  0  0
 21 23  1  0  0  0  0
 23 24  1  0  0  0  0
 23 25  1  0  0  0  0
 25 26  1  0  0  0  0
 25 27  1  0  0  0  0
 25 28  1  0  0  0  0
M  END
$$$$

  -OEChem-03222214033D

 28 27  0     1  0  0  0  0  0999 V2000
   -2.5837   -4.2449    0.2183 H   0  0  0  0  0  0  0  0  0  0  0  0
   -2.5809   -3.2607   -0.2593 C   0  0  0  0  0  0  0  0  0  0  0  0
   -3.4381   -2.6904    0.1068 H   0  0  0  0  0  0  0  0  0  0  0  0
   -2.6743   -3.3953   -1.3397 H   0  0  0  0  0  0  0  0  0  0  0  0
   -1.2919   -2.5283    0.0632 C   0  0  0  0  0  0  0  0  0  0  0  0
   -0.4556   -3.0539    0.7745 O   0  0  0  0  0  0  0  0  0  0  0  0
   -1.0796   -1.2600   -0.4403 N   0  0  0  0  0  0  0  0  0  0  0  0
   -1.7643   -0.9249   -1.1110 H   0  0  0  0  0  0  0  0  0  0  0  0
    0.2080   -0.5449   -0.3530 C   0  0  1  0  0  0  0  0  0  0  0  0
    0.9623   -1.1939   -0.8132 H   0  0  0  0  0  0  0  0  0  0  0  0
    0.1452    0.7324   -1.2136 C   0  0  0  0  0  0  0  0  0  0  0  0
    1.1239    1.2215   -1.1377 H   0  0  0  0  0  0  0  0  0  0  0  0
    0.0069    0.4631   -2.2658 H   0  0  0  0  0  0  0  0  0  0  0  0
   -0.9543    1.7380   -0.8002 C   0  0  0  0  0  0  0  0  0  0  0  0
   -1.8910    1.5009   -1.3098 H   0  0  0  0  0  0  0  0  0  0  0  0
   -1.1401    1.6821    0.2728 H   0  0  0  0  0  0  0  0  0  0  0  0
   -0.5708    3.1813   -1.1124 C   0  0  0  0  0  0  0  0  0  0  0  0
   -0.1200    3.4416   -2.2133 O   0  0  0  0  0  0  0  0  0  0  0  0
   -0.7694    4.1100   -0.1533 O   0  0  0  0  0  0  0  0  0  0  0  0
   -0.4533    4.9419   -0.5388 H   0  0  0  0  0  0  0  0  0  0  0  0
    0.7429   -0.2840    1.0772 C   0  0  0  0  0  0  0  0  0  0  0  0
    1.9519   -0.2202    1.2543 O   0  0  0  0  0  0  0  0  0  0  0  0
   -0.0961    0.1798    2.0747 N   0  0  0  0  0  0  0  0  0  0  0  0
   -1.0848   -0.0049    1.9419 H   0  0  0  0  0  0  0  0  0  0  0  0
    0.3784    0.5034    3.4147 C   0  0  0  0  0  0  0  0  0  0  0  0
    1.1404    1.2891    3.3727 H   0  0  0  0  0  0  0  0  0  0  0  0
   -0.4497    0.8620    4.0333 H   0  0  0  0  0  0  0  0  0  0  0  0
    0.8119   -0.3823    3.8909 H   0  0  0  0  0  0  0  0  0  0  0  0
  1  2  1  0  0  0  0
  2  3  1  0  0  0  0
  2  4  1  0  0  0  0
  2  5  1  0  0  0  0
  5  6  2  0  0  0  0
  5  7  1  0  0  0  0
  7  8  1  0  0  0  0
  7  9  1  0  0  0  0
  9 10  1  0  0  0  0
  9 11  1  0  0  0  0
  9 21  1  0  0  0  0
 11 12  1  0  0  0  0
 11 13  1  0  0  0  0
 11 14  1  0  0  0  0
 14 15  1  0  0  0  0
 14 16  1  0  0  0  0
 14 17  1  0  0  0  0
 17 18  2  0  0  0  0
 17 19  1  0  0  0  0
 19 20  1  0  0  0  0
 21 22  2  0  0  0  0
 21 23  1  0  0  0  0
 23 24  1  0  0  0  0
 23 25  1  0  0  0  0
 25 26  1  0  0  0  0
 25 27  1  0  0  0  0
 25 28  1  0  0  0  0
M  END
$$$$

  -OEChem-03222214033D

 28 27  0     1  0  0  0  0  0999 V2000
   -2.5744   -4.2448    0.2467 H   0  0  0  0  0  0  0  0  0  0  0  0
   -2.5725   -3.2675   -0.2446 C   0  0  0  0  0  0  0  0  0  0  0  0
   -3.4358   -2.6968    0.1052 H   0  0  0  0  0  0  0  0  0  0  0  0
   -2.6546   -3.4175   -1.3238 H   0  0  0  0  0  0  0  0  0  0  0  0
   -1.2908   -2.5237    0.0794 C   0  0  0  0  0  0  0  0  0  0  0  0
   -0.4518   -3.0416    0.7930 O   0  0  0  0  0  0  0  0  0  0  0  0
   -1.0875   -1.2554   -0.4284 N   0  0  0  0  0  0  0  0  0  0  0  0
   -1.7714   -0.9332   -1.1063 H   0  0  0  0  0  0  0  0  0  0  0  0
    0.2020   -0.5410   -0.3607 C   0  0  1  0  0  0  0  0  0  0  0  0
    0.9503   -1.1883   -0.8330 H   0  0  0  0  0  0  0  0  0  0  0  0
    0.1273    0.7415   -1.2128 C   0  0  0  0  0  0  0  0  0  0  0  0
    1.1059    1.2336   -1.1602 H   0  0  0  0  0  0  0  0  0  0  0  0
   -0.0385    0.4694   -2.2608 H   0  0  0  0  0  0  0  0  0  0  0  0
   -0.9616    1.7473   -0.7749 C   0  0  0  0  0  0  0  0  0  0  0  0
   -1.9533    1.3769   -1.0436 H   0  0  0  0  0  0  0  0  0  0  0  0
   -0.9347    1.8788    0.3081 H   0  0  0  0  0  0  0  0  0  0  0  0
   -0.7685    3.1294   -1.3951 C   0  0  0  0  0  0  0  0  0  0  0  0
   -0.3498    3.2144   -2.5357 O   0  0  0  0  0  0  0  0  0  0  0  0
   -1.1010    4.2024   -0.6471 O   0  0  0  0  0  0  0  0  0  0  0  0
   -0.9019    4.9699   -1.2057 H   0  0  0  0  0  0  0  0  0  0  0  0
    0.7497   -0.2849    1.0650 C   0  0  0  0  0  0  0  0  0  0  0  0
    1.9600   -0.2279    1.2357 O   0  0  0  0  0  0  0  0  0  0  0  0
   -0.0830    0.1765    2.0690 N   0  0  0  0  0  0  0  0  0  0  0  0
   -1.0722   -0.0071    1.9379 H   0  0  0  0  0  0  0  0  0  0  0  0
    0.3977    0.4625    3.4154 C   0  0  0  0  0  0  0  0  0  0  0  0
    1.1610    1.2474    3.3921 H   0  0  0  0  0  0  0  0  0  0  0  0
   -0.4274    0.8048    4.0470 H   0  0  0  0  0  0  0  0  0  0  0  0
    0.8312   -0.4367    3.8659 H   0  0  0  0  0  0  0  0  0  0  0  0
  1  2  1  0  0  0  0
  2  3  1  0  0  0  0
  2  4  1  0  0  0  0
  2  5  1  0  0  0  0
  5  6  2  0  0  0  0
  5  7  1  0  0  0  0
  7  8  1  0  0  0  0
  7  9  1  0  0  0  0
  9 10  1  0  0  0  0
  9 11  1  0  0  0  0
  9 21  1  0  0  0  0
 11 12  1  0  0  0  0
 11 13  1  0  0  0  0
 11 14  1  0  0  0  0
 14 15  1  0  0  0  0
 14 16  1  0  0  0  0
 14 17  1  0  0  0  0
 17 18  2  0  0  0  0
 17 19  1  0  0  0  0
 19 20  1  0  0  0  0
 21 22  2  0  0  0  0
 21 23  1  0  0  0  0
 23 24  1  0  0  0  0
 23 25  1  0  0  0  0
 25 26  1  0  0  0  0
 25 27  1  0  0  0  0
 25 28  1  0  0  0  0
M  END
$$$$

  -OEChem-03222214033D

 28 27  0     1  0  0  0  0  0999 V2000
   -2.6015   -4.2162    0.2511 H   0  0  0  0  0  0  0  0  0  0  0  0
   -2.5871   -3.2421   -0.2466 C   0  0  0  0  0  0  0  0  0  0  0  0
   -3.4415   -2.6569    0.1018 H   0  0  0  0  0  0  0  0  0  0  0  0
   -2.6740   -3.3975   -1.3247 H   0  0  0  0  0  0  0  0  0  0  0  0
   -1.2942   -2.5144    0.0691 C   0  0  0  0  0  0  0  0  0  0  0  0
   -0.4530   -3.0468    0.7696 O   0  0  0  0  0  0  0  0  0  0  0  0
   -1.0848   -1.2418   -0.4249 N   0  0  0  0  0  0  0  0  0  0  0  0
   -1.7735   -0.9033   -1.0904 H   0  0  0  0  0  0  0  0  0  0  0  0
    0.2100   -0.5372   -0.3574 C   0  0  1  0  0  0  0  0  0  0  0  0
    0.9456   -1.1898   -0.8421 H   0  0  0  0  0  0  0  0  0  0  0  0
    0.1332    0.7458   -1.2092 C   0  0  0  0  0  0  0  0  0  0  0  0
    1.1551    1.1032   -1.3814 H   0  0  0  0  0  0  0  0  0  0  0  0
   -0.2897    0.4957   -2.1883 H   0  0  0  0  0  0  0  0  0  0  0  0
   -0.6789    1.8934   -0.5673 C   0  0  0  0  0  0  0  0  0  0  0  0
   -1.7007    1.5650   -0.3650 H   0  0  0  0  0  0  0  0  0  0  0  0
   -0.2210    2.1814    0.3825 H   0  0  0  0  0  0  0  0  0  0  0  0
   -0.7391    3.1506   -1.4339 C   0  0  0  0  0  0  0  0  0  0  0  0
   -0.6155    3.0564   -2.6424 O   0  0  0  0  0  0  0  0  0  0  0  0
   -0.9564    4.3238   -0.8037 O   0  0  0  0  0  0  0  0  0  0  0  0
   -0.9525    4.9923   -1.5062 H   0  0  0  0  0  0  0  0  0  0  0  0
    0.7684   -0.3023    1.0670 C   0  0  0  0  0  0  0  0  0  0  0  0
    1.9795   -0.2402    1.2294 O   0  0  0  0  0  0  0  0  0  0  0  0
   -0.0608    0.1527    2.0773 N   0  0  0  0  0  0  0  0  0  0  0  0
   -1.0503   -0.0313    1.9476 H   0  0  0  0  0  0  0  0  0  0  0  0
    0.4240    0.4266    3.4247 C   0  0  0  0  0  0  0  0  0  0  0  0
    1.1851    1.2140    3.4066 H   0  0  0  0  0  0  0  0  0  0  0  0
   -0.4000    0.7599    4.0626 H   0  0  0  0  0  0  0  0  0  0  0  0
    0.8618   -0.4761    3.8640 H   0  0  0  0  0  0  0  0  0  0  0  0
  1  2  1  0  0  0  0
  2  3  1  0  0  0  0
  2  4  1  0  0  0  0
  2  5  1  0  0  0  0
  5  6  2  0  0  0  0
  5  7  1  0  0  0  0
  7  8  1  0  0  0  0
  7  9  1  0  0  0  0
  9 10  1  0  0  0  0
  9 11  1  0  0  0  0
  9 21  1  0  0  0  0
 11 12  1  0  0  0  0
 11 13  1  0  0  0  0
 11 14  1  0  0  0  0
 14 15  1  0  0  0  0
 14 16  1  0  0  0  0
 14 17  1  0  0  0  0
 17 18  2  0  0  0  0
 17 19  1  0  0  0  0
 19 20  1  0  0  0  0
 21 22  2  0  0  0  0
 21 23  1  0  0  0  0
 23 24  1  0  0  0  0
 23 25  1  0  0  0  0
 25 26  1  0  0  0  0
 25 27  1  0  0  0  0
 25 28  1  0  0  0  0
M  END
$$$$

  -OEChem-03222214033D

 28 27  0     1  0  0  0  0  0999 V2000
   -2.4940   -4.2699    0.1879 H   0  0  0  0  0  0  0  0  0  0  0  0
   -2.5223   -3.2767   -0.2698 C   0  0  0  0  0  0  0  0  0  0  0  0
   -3.3757   -2.7275    0.1350 H   0  0  0  0  0  0  0  0  0  0  0  0
   -2.6487   -3.3915   -1.3490 H   0  0  0  0  0  0  0  0  0  0  0  0
   -1.2356   -2.5296    0.0254 C   0  0  0  0  0  0  0  0  0  0  0  0
   -0.3624   -3.0593    0.6879 O   0  0  0  0  0  0  0  0  0  0  0  0
   -1.0668   -1.2411   -0.4414 N   0  0  0  0  0  0  0  0  0  0  0  0
   -1.7868   -0.8905   -1.0674 H   0  0  0  0  0  0  0  0  0  0  0  0
    0.2029   -0.4944   -0.3606 C   0  0  1  0  0  0  0  0  0  0  0  0
    0.9599   -1.1048   -0.8665 H   0  0  0  0  0  0  0  0  0  0  0  0
    0.0682    0.8091   -1.1701 C   0  0  0  0  0  0  0  0  0  0  0  0
    1.0689    1.2175   -1.3525 H   0  0  0  0  0  0  0  0  0  0  0  0
   -0.3658    0.5702   -2.1474 H   0  0  0  0  0  0  0  0  0  0  0  0
   -0.7808    1.8896   -0.4725 C   0  0  0  0  0  0  0  0  0  0  0  0
   -1.6931    1.4525   -0.0592 H   0  0  0  0  0  0  0  0  0  0  0  0
   -0.2170    2.3360    0.3520 H   0  0  0  0  0  0  0  0  0  0  0  0
   -1.1822    2.9864   -1.4489 C   0  0  0  0  0  0  0  0  0  0  0  0
   -2.0651    2.7401   -2.2514 O   0  0  0  0  0  0  0  0  0  0  0  0
   -0.5361    4.1698   -1.3916 O   0  0  0  0  0  0  0  0  0  0  0  0
   -0.9287    4.7106   -2.0940 H   0  0  0  0  0  0  0  0  0  0  0  0
    0.7573   -0.2679    1.0662 C   0  0  0  0  0  0  0  0  0  0  0  0
    1.9661   -0.1689    1.2270 O   0  0  0  0  0  0  0  0  0  0  0  0
   -0.0843    0.1392    2.0866 N   0  0  0  0  0  0  0  0  0  0  0  0
   -1.0672   -0.0764    1.9555 H   0  0  0  0  0  0  0  0  0  0  0  0
    0.3947    0.4013    3.4384 C   0  0  0  0  0  0  0  0  0  0  0  0
    1.1258    1.2167    3.4360 H   0  0  0  0  0  0  0  0  0  0  0  0
   -0.4387    0.6894    4.0863 H   0  0  0  0  0  0  0  0  0  0  0  0
    0.8673   -0.4937    3.8569 H   0  0  0  0  0  0  0  0  0  0  0  0
  1  2  1  0  0  0  0
  2  3  1  0  0  0  0
  2  4  1  0  0  0  0
  2  5  1  0  0  0  0
  5  6  2  0  0  0  0
  5  7  1  0  0  0  0
  7  8  1  0  0  0  0
  7  9  1  0  0  0  0
  9 10  1  0  0  0  0
  9 11  1  0  0  0  0
  9 21  1  0  0  0  0
 11 12  1  0  0  0  0
 11 13  1  0  0  0  0
 11 14  1  0  0  0  0
 14 15  1  0  0  0  0
 14 16  1  0  0  0  0
 14 17  1  0  0  0  0
 17 18  2  0  0  0  0
 17 19  1  0  0  0  0
 19 20  1  0  0  0  0
 21 22  2  0  0  0  0
 21 23  1  0  0  0  0
 23 24  1  0  0  0  0
 23 25  1  0  0  0  0
 25 26  1  0  0  0  0
 25 27  1  0  0  0  0
 25 28  1  0  0  0  0
M  END
$$$$

  -OEChem-03222214033D

 28 27  0     1  0  0  0  0  0999 V2000
   -2.6504   -4.2034    0.2114 H   0  0  0  0  0  0  0  0  0  0  0  0
   -2.6396   -3.2065   -0.2384 C   0  0  0  0  0  0  0  0  0  0  0  0
   -3.4782   -2.6313    0.1612 H   0  0  0  0  0  0  0  0  0  0  0  0
   -2.7578   -3.3090   -1.3199 H   0  0  0  0  0  0  0  0  0  0  0  0
   -1.3314   -2.5062    0.0768 C   0  0  0  0  0  0  0  0  0  0  0  0
   -0.5060   -3.0491    0.7879 O   0  0  0  0  0  0  0  0  0  0  0  0
   -1.0913   -1.2440   -0.4287 N   0  0  0  0  0  0  0  0  0  0  0  0
   -1.7696   -0.8963   -1.1005 H   0  0  0  0  0  0  0  0  0  0  0  0
    0.2183   -0.5672   -0.3622 C   0  0  1  0  0  0  0  0  0  0  0  0
    0.9398   -1.2371   -0.8443 H   0  0  0  0  0  0  0  0  0  0  0  0
    0.1697    0.7171   -1.2124 C   0  0  0  0  0  0  0  0  0  0  0  0
    1.1916    1.0614   -1.4074 H   0  0  0  0  0  0  0  0  0  0  0  0
   -0.2694    0.4554   -2.1809 H   0  0  0  0  0  0  0  0  0  0  0  0
   -0.6224    1.8730   -0.5529 C   0  0  0  0  0  0  0  0  0  0  0  0
   -1.4174    1.4603    0.0718 H   0  0  0  0  0  0  0  0  0  0  0  0
    0.0451    2.4456    0.0975 H   0  0  0  0  0  0  0  0  0  0  0  0
   -1.3031    2.8350   -1.5282 C   0  0  0  0  0  0  0  0  0  0  0  0
   -1.1106    2.7370   -2.7270 O   0  0  0  0  0  0  0  0  0  0  0  0
   -2.1202    3.7634   -0.9884 O   0  0  0  0  0  0  0  0  0  0  0  0
   -2.4433    4.2831   -1.7408 H   0  0  0  0  0  0  0  0  0  0  0  0
    0.7877   -0.3232    1.0566 C   0  0  0  0  0  0  0  0  0  0  0  0
    2.0009   -0.2837    1.2115 O   0  0  0  0  0  0  0  0  0  0  0  0
   -0.0248    0.1647    2.0649 N   0  0  0  0  0  0  0  0  0  0  0  0
   -1.0184   -0.0040    1.9469 H   0  0  0  0  0  0  0  0  0  0  0  0
    0.4754    0.4532    3.4035 C   0  0  0  0  0  0  0  0  0  0  0  0
    1.2634    1.2127    3.3636 H   0  0  0  0  0  0  0  0  0  0  0  0
   -0.3332    0.8306    4.0366 H   0  0  0  0  0  0  0  0  0  0  0  0
    0.8833   -0.4535    3.8628 H   0  0  0  0  0  0  0  0  0  0  0  0
  1  2  1  0  0  0  0
  2  3  1  0  0  0  0
  2  4  1  0  0  0  0
  2  5  1  0  0  0  0
  5  6  2  0  0  0  0
  5  7  1  0  0  0  0
  7  8  1  0  0  0  0
  7  9  1  0  0  0  0
  9 10  1  0  0  0  0
  9 11  1  0  0  0  0
  9 21  1  0  0  0  0
 11 12  1  0  0  0  0
 11 13  1  0  0  0  0
 11 14  1  0  0  0  0
 14 15  1  0  0  0  0
 14 16  1  0  0  0  0
 14 17  1  0  0  0  0
 17 18  2  0  0  0  0
 17 19  1  0  0  0  0
 19 20  1  0  0  0  0
 21 22  2  0  0  0  0
 21 23  1  0  0  0  0
 23 24  1  0  0  0  0
 23 25  1  0  0  0  0
 25 26  1  0  0  0  0
 25 27  1  0  0  0  0
 25 28  1  0  0  0  0
M  END
$$$$

  -OEChem-03222214033D

 28 27  0     1  0  0  0  0  0999 V2000
   -2.5735   -4.2142    0.1944 H   0  0  0  0  0  0  0  0  0  0  0  0
   -2.5706   -3.2280   -0.2787 C   0  0  0  0  0  0  0  0  0  0  0  0
   -3.4054   -2.6452    0.1177 H   0  0  0  0  0  0  0  0  0  0  0  0
   -2.7018   -3.3541   -1.3562 H   0  0  0  0  0  0  0  0  0  0  0  0
   -1.2601   -2.5179    0.0029 C   0  0  0  0  0  0  0  0  0  0  0  0
   -0.3787   -3.0850    0.6230 O   0  0  0  0  0  0  0  0  0  0  0  0
   -1.0765   -1.2196   -0.4268 N   0  0  0  0  0  0  0  0  0  0  0  0
   -1.8230   -0.8137   -0.9883 H   0  0  0  0  0  0  0  0  0  0  0  0
    0.2002   -0.4873   -0.3393 C   0  0  1  0  0  0  0  0  0  0  0  0
    0.9421   -1.1007   -0.8639 H   0  0  0  0  0  0  0  0  0  0  0  0
    0.0662    0.8167   -1.1441 C   0  0  0  0  0  0  0  0  0  0  0  0
    1.0678    1.2237   -1.3225 H   0  0  0  0  0  0  0  0  0  0  0  0
   -0.3545    0.5755   -2.1266 H   0  0  0  0  0  0  0  0  0  0  0  0
   -0.7820    1.9008   -0.4427 C   0  0  0  0  0  0  0  0  0  0  0  0
   -1.3739    1.4739    0.3690 H   0  0  0  0  0  0  0  0  0  0  0  0
   -0.1276    2.6630   -0.0097 H   0  0  0  0  0  0  0  0  0  0  0  0
   -1.7630    2.5510   -1.4082 C   0  0  0  0  0  0  0  0  0  0  0  0
   -2.6770    1.8646   -1.8336 O   0  0  0  0  0  0  0  0  0  0  0  0
   -1.5726    3.8406   -1.7569 O   0  0  0  0  0  0  0  0  0  0  0  0
   -2.2902    4.0496   -2.3744 H   0  0  0  0  0  0  0  0  0  0  0  0
    0.7911   -0.2940    1.0785 C   0  0  0  0  0  0  0  0  0  0  0  0
    2.0048   -0.2044    1.2068 O   0  0  0  0  0  0  0  0  0  0  0  0
   -0.0139    0.0981    2.1336 N   0  0  0  0  0  0  0  0  0  0  0  0
   -1.0016   -0.1117    2.0308 H   0  0  0  0  0  0  0  0  0  0  0  0
    0.5102    0.3238    3.4754 C   0  0  0  0  0  0  0  0  0  0  0  0
    1.2454    1.1355    3.4693 H   0  0  0  0  0  0  0  0  0  0  0  0
   -0.2999    0.5990    4.1573 H   0  0  0  0  0  0  0  0  0  0  0  0
    0.9913   -0.5837    3.8557 H   0  0  0  0  0  0  0  0  0  0  0  0
  1  2  1  0  0  0  0
  2  3  1  0  0  0  0
  2  4  1  0  0  0  0
  2  5  1  0  0  0  0
  5  6  2  0  0  0  0
  5  7  1  0  0  0  0
  7  8  1  0  0  0  0
  7  9  1  0  0  0  0
  9 10  1  0  0  0  0
  9 11  1  0  0  0  0
  9 21  1  0  0  0  0
 11 12  1  0  0  0  0
 11 13  1  0  0  0  0
 11 14  1  0  0  0  0
 14 15  1  0  0  0  0
 14 16  1  0  0  0  0
 14 17  1  0  0  0  0
 17 18  2  0  0  0  0
 17 19  1  0  0  0  0
 19 20  1  0  0  0  0
 21 22  2  0  0  0  0
 21 23  1  0  0  0  0
 23 24  1  0  0  0  0
 23 25  1  0  0  0  0
 25 26  1  0  0  0  0
 25 27  1  0  0  0  0
 25 28  1  0  0  0  0
M  END
$$$$

  -OEChem-03222214033D

 28 27  0     1  0  0  0  0  0999 V2000
   -2.6117   -4.1726    0.1802 H   0  0  0  0  0  0  0  0  0  0  0  0
   -2.6099   -3.1668   -0.2493 C   0  0  0  0  0  0  0  0  0  0  0  0
   -3.4003   -2.5800    0.2247 H   0  0  0  0  0  0  0  0  0  0  0  0
   -2.8135   -3.2408   -1.3203 H   0  0  0  0  0  0  0  0  0  0  0  0
   -1.2641   -2.5050   -0.0227 C   0  0  0  0  0  0  0  0  0  0  0  0
   -0.3668   -3.1141    0.5316 O   0  0  0  0  0  0  0  0  0  0  0  0
   -1.0677   -1.1998   -0.4218 N   0  0  0  0  0  0  0  0  0  0  0  0
   -1.8448   -0.7374   -0.8947 H   0  0  0  0  0  0  0  0  0  0  0  0
    0.2125   -0.4774   -0.3260 C   0  0  1  0  0  0  0  0  0  0  0  0
    0.9478   -1.0914   -0.8592 H   0  0  0  0  0  0  0  0  0  0  0  0
    0.0745    0.8209   -1.1381 C   0  0  0  0  0  0  0  0  0  0  0  0
    1.0812    1.2261   -1.2902 H   0  0  0  0  0  0  0  0  0  0  0  0
   -0.3175    0.5838   -2.1336 H   0  0  0  0  0  0  0  0  0  0  0  0
   -0.7782    1.9126   -0.4522 C   0  0  0  0  0  0  0  0  0  0  0  0
   -1.1483    1.5967    0.5227 H   0  0  0  0  0  0  0  0  0  0  0  0
   -0.1678    2.8067   -0.2968 H   0  0  0  0  0  0  0  0  0  0  0  0
   -1.9835    2.2781   -1.3068 C   0  0  0  0  0  0  0  0  0  0  0  0
   -2.7912    1.3936   -1.5444 O   0  0  0  0  0  0  0  0  0  0  0  0
   -2.1023    3.5422   -1.7640 O   0  0  0  0  0  0  0  0  0  0  0  0
   -2.9224    3.5552   -2.2810 H   0  0  0  0  0  0  0  0  0  0  0  0
    0.8162   -0.3168    1.0906 C   0  0  0  0  0  0  0  0  0  0  0  0
    2.0311   -0.2291    1.2081 O   0  0  0  0  0  0  0  0  0  0  0  0
    0.0246    0.0568    2.1625 N   0  0  0  0  0  0  0  0  0  0  0  0
   -0.9656   -0.1455    2.0674 H   0  0  0  0  0  0  0  0  0  0  0  0
    0.5638    0.2701    3.5004 C   0  0  0  0  0  0  0  0  0  0  0  0
    1.3070    1.0746    3.4910 H   0  0  0  0  0  0  0  0  0  0  0  0
   -0.2371    0.5507    4.1911 H   0  0  0  0  0  0  0  0  0  0  0  0
    1.0392   -0.6441    3.8717 H   0  0  0  0  0  0  0  0  0  0  0  0
  1  2  1  0  0  0  0
  2  3  1  0  0  0  0
  2  4  1  0  0  0  0
  2  5  1  0  0  0  0
  5  6  2  0  0  0  0
  5  7  1  0  0  0  0
  7  8  1  0  0  0  0
  7  9  1  0  0  0  0
  9 10  1  0  0  0  0
  9 11  1  0  0  0  0
  9 21  1  0  0  0  0
 11 12  1  0  0  0  0
 11 13  1  0  0  0  0
 11 14  1  0  0  0  0
 14 15  1  0  0  0  0
 14 16  1  0  0  0  0
 14 17  1  0  0  0  0
 17 18  2  0  0  0  0
 17 19  1  0  0  0  0
 19 20  1  0  0  0  0
 21 22  2  0  0  0  0
 21 23  1  0  0  0  0
 23 24  1  0  0  0  0
 23 25  1  0  0  0  0
 25 26  1  0  0  0  0
 25 27  1  0  0  0  0
 25 28  1  0  0  0  0
M  END
$$$$

  -OEChem-03222214033D

 28 27  0     1  0  0  0  0  0999 V2000
   -2.6207   -4.1624    0.2431 H   0  0  0  0  0  0  0  0  0  0  0  0
   -2.6231   -3.1558   -0.1847 C   0  0  0  0  0  0  0  0  0  0  0  0
   -3.3824   -2.5580    0.3251 H   0  0  0  0  0  0  0  0  0  0  0  0
   -2.8754   -3.2241   -1.2457 H   0  0  0  0  0  0  0  0  0  0  0  0
   -1.2588   -2.5142   -0.0185 C   0  0  0  0  0  0  0  0  0  0  0  0
   -0.3448   -3.1410    0.4874 O   0  0  0  0  0  0  0  0  0  0  0  0
   -1.0623   -1.2088   -0.4164 N   0  0  0  0  0  0  0  0  0  0  0  0
   -1.8662   -0.7151   -0.8113 H   0  0  0  0  0  0  0  0  0  0  0  0
    0.2184   -0.4875   -0.3342 C   0  0  1  0  0  0  0  0  0  0  0  0
    0.9478   -1.1062   -0.8703 H   0  0  0  0  0  0  0  0  0  0  0  0
    0.0904    0.8134   -1.1499 C   0  0  0  0  0  0  0  0  0  0  0  0
    1.1060    1.2008   -1.2876 H   0  0  0  0  0  0  0  0  0  0  0  0
   -0.2949    0.5871   -2.1504 H   0  0  0  0  0  0  0  0  0  0  0  0
   -0.7458    1.9304   -0.4829 C   0  0  0  0  0  0  0  0  0  0  0  0
   -0.8695    1.7829    0.5887 H   0  0  0  0  0  0  0  0  0  0  0  0
   -0.2230    2.8821   -0.6147 H   0  0  0  0  0  0  0  0  0  0  0  0
   -2.1221    2.0617   -1.1268 C   0  0  0  0  0  0  0  0  0  0  0  0
   -2.8094    1.0559   -1.2223 O   0  0  0  0  0  0  0  0  0  0  0  0
   -2.5180    3.2780   -1.5576 O   0  0  0  0  0  0  0  0  0  0  0  0
   -3.4042    3.1479   -1.9286 H   0  0  0  0  0  0  0  0  0  0  0  0
    0.8248   -0.3382    1.0816 C   0  0  0  0  0  0  0  0  0  0  0  0
    2.0399   -0.2552    1.2012 O   0  0  0  0  0  0  0  0  0  0  0  0
    0.0317    0.0291    2.1545 N   0  0  0  0  0  0  0  0  0  0  0  0
   -0.9606   -0.1593    2.0513 H   0  0  0  0  0  0  0  0  0  0  0  0
    0.5663    0.2319    3.4956 C   0  0  0  0  0  0  0  0  0  0  0  0
    1.3179    1.0285    3.4931 H   0  0  0  0  0  0  0  0  0  0  0  0
   -0.2353    0.5188    4.1830 H   0  0  0  0  0  0  0  0  0  0  0  0
    1.0301   -0.6887    3.8658 H   0  0  0  0  0  0  0  0  0  0  0  0
  1  2  1  0  0  0  0
  2  3  1  0  0  0  0
  2  4  1  0  0  0  0
  2  5  1  0  0  0  0
  5  6  2  0  0  0  0
  5  7  1  0  0  0  0
  7  8  1  0  0  0  0
  7  9  1  0  0  0  0
  9 10  1  0  0  0  0
  9 11  1  0  0  0  0
  9 21  1  0  0  0  0
 11 12  1  0  0  0  0
 11 13  1  0  0  0  0
 11 14  1  0  0  0  0
 14 15  1  0  0  0  0
 14 16  1  0  0  0  0
 14 17  1  0  0  0  0
 17 18  2  0  0  0  0
 17 19  1  0  0  0  0
 19 20  1  0  0  0  0
 21 22  2  0  0  0  0
 21 23  1  0  0  0  0
 23 24  1  0  0  0  0
 23 25  1  0  0  0  0
 25 26  1  0  0  0  0
 25 27  1  0  0  0  0
 25 28  1  0  0  0  0
M  END
$$$$

  -OEChem-03222214033D

 28 27  0     1  0  0  0  0  0999 V2000
   -2.5899   -4.2107    0.3162 H   0  0  0  0  0  0  0  0  0  0  0  0
   -2.6000   -3.2098   -0.1245 C   0  0  0  0  0  0  0  0  0  0  0  0
   -3.3547   -2.6069    0.3862 H   0  0  0  0  0  0  0  0  0  0  0  0
   -2.8645   -3.2925   -1.1815 H   0  0  0  0  0  0  0  0  0  0  0  0
   -1.2356   -2.5629    0.0175 C   0  0  0  0  0  0  0  0  0  0  0  0
   -0.3186   -3.1747    0.5361 O   0  0  0  0  0  0  0  0  0  0  0  0
   -1.0437   -1.2688   -0.4171 N   0  0  0  0  0  0  0  0  0  0  0  0
   -1.8511   -0.7888   -0.8218 H   0  0  0  0  0  0  0  0  0  0  0  0
    0.2305   -0.5365   -0.3560 C   0  0  1  0  0  0  0  0  0  0  0  0
    0.9653   -1.1634   -0.8744 H   0  0  0  0  0  0  0  0  0  0  0  0
    0.1265    0.7663   -1.1814 C   0  0  0  0  0  0  0  0  0  0  0  0
    1.1512    1.1297   -1.3179 H   0  0  0  0  0  0  0  0  0  0  0  0
   -0.2619    0.5383   -2.1801 H   0  0  0  0  0  0  0  0  0  0  0  0
   -0.6891    1.9232   -0.5510 C   0  0  0  0  0  0  0  0  0  0  0  0
   -0.5725    1.9572    0.5322 H   0  0  0  0  0  0  0  0  0  0  0  0
   -0.2795    2.8613   -0.9361 H   0  0  0  0  0  0  0  0  0  0  0  0
   -2.1797    1.9256   -0.8956 C   0  0  0  0  0  0  0  0  0  0  0  0
   -2.7488    0.8747   -1.1453 O   0  0  0  0  0  0  0  0  0  0  0  0
   -2.8073    3.1202   -0.8897 O   0  0  0  0  0  0  0  0  0  0  0  0
   -3.7280    2.9330   -1.1289 H   0  0  0  0  0  0  0  0  0  0  0  0
    0.8138   -0.3542    1.0645 C   0  0  0  0  0  0  0  0  0  0  0  0
    2.0256   -0.2575    1.2051 O   0  0  0  0  0  0  0  0  0  0  0  0
   -0.0049    0.0315    2.1114 N   0  0  0  0  0  0  0  0  0  0  0  0
   -0.9938   -0.1641    1.9893 H   0  0  0  0  0  0  0  0  0  0  0  0
    0.4995    0.2612    3.4597 C   0  0  0  0  0  0  0  0  0  0  0  0
    1.2446    1.0639    3.4589 H   0  0  0  0  0  0  0  0  0  0  0  0
   -0.3183    0.5519    4.1259 H   0  0  0  0  0  0  0  0  0  0  0  0
    0.9635   -0.6489    3.8543 H   0  0  0  0  0  0  0  0  0  0  0  0
  1  2  1  0  0  0  0
  2  3  1  0  0  0  0
  2  4  1  0  0  0  0
  2  5  1  0  0  0  0
  5  6  2  0  0  0  0
  5  7  1  0  0  0  0
  7  8  1  0  0  0  0
  7  9  1  0  0  0  0
  9 10  1  0  0  0  0
  9 11  1  0  0  0  0
  9 21  1  0  0  0  0
 11 12  1  0  0  0  0
 11 13  1  0  0  0  0
 11 14  1  0  0  0  0
 14 15  1  0  0  0  0
 14 16  1  0  0  0  0
 14 17  1  0  0  0  0
 17 18  2  0  0  0  0
 17 19  1  0  0  0  0
 19 20  1  0  0  0  0
 21 22  2  0  0  0  0
 21 23  1  0  0  0  0
 23 24  1  0  0  0  0
 23 25  1  0  0  0  0
 25 26  1  0  0  0  0
 25 27  1  0  0  0  0
 25 28  1  0  0  0  0
M  END
$$$$

  -OEChem-03222214033D

 28 27  0     1  0  0  0  0  0999 V2000
   -2.6047   -4.2260    0.2984 H   0  0  0  0  0  0  0  0  0  0  0  0
   -2.6042   -3.2241   -0.1404 C   0  0  0  0  0  0  0  0  0  0  0  0
   -3.3840   -2.6280    0.3395 H   0  0  0  0  0  0  0  0  0  0  0  0
   -2.8244   -3.3072   -1.2074 H   0  0  0  0  0  0  0  0  0  0  0  0
   -1.2517   -2.5670    0.0588 C   0  0  0  0  0  0  0  0  0  0  0  0
   -0.3667   -3.1551    0.6544 O   0  0  0  0  0  0  0  0  0  0  0  0
   -1.0353   -1.2916   -0.4178 N   0  0  0  0  0  0  0  0  0  0  0  0
   -1.8110   -0.8419   -0.9093 H   0  0  0  0  0  0  0  0  0  0  0  0
    0.2477   -0.5738   -0.3609 C   0  0  1  0  0  0  0  0  0  0  0  0
    0.9836   -1.2205   -0.8525 H   0  0  0  0  0  0  0  0  0  0  0  0
    0.1678    0.7164   -1.2095 C   0  0  0  0  0  0  0  0  0  0  0  0
    1.1959    1.0655   -1.3569 H   0  0  0  0  0  0  0  0  0  0  0  0
   -0.2285    0.4736   -2.2016 H   0  0  0  0  0  0  0  0  0  0  0  0
   -0.6358    1.8940   -0.6023 C   0  0  0  0  0  0  0  0  0  0  0  0
   -0.3173    2.0834    0.4246 H   0  0  0  0  0  0  0  0  0  0  0  0
   -0.3929    2.7937   -1.1736 H   0  0  0  0  0  0  0  0  0  0  0  0
   -2.1601    1.7597   -0.6308 C   0  0  0  0  0  0  0  0  0  0  0  0
   -2.6895    0.8469   -1.2449 O   0  0  0  0  0  0  0  0  0  0  0  0
   -2.8601    2.6886    0.0530 O   0  0  0  0  0  0  0  0  0  0  0  0
   -3.7939    2.4709   -0.0901 H   0  0  0  0  0  0  0  0  0  0  0  0
    0.8074   -0.3506    1.0628 C   0  0  0  0  0  0  0  0  0  0  0  0
    2.0176   -0.2650    1.2228 O   0  0  0  0  0  0  0  0  0  0  0  0
   -0.0275    0.0819    2.0781 N   0  0  0  0  0  0  0  0  0  0  0  0
   -1.0160   -0.1051    1.9426 H   0  0  0  0  0  0  0  0  0  0  0  0
    0.4522    0.3470    3.4289 C   0  0  0  0  0  0  0  0  0  0  0  0
    1.2258    1.1222    3.4169 H   0  0  0  0  0  0  0  0  0  0  0  0
   -0.3704    0.6930    4.0620 H   0  0  0  0  0  0  0  0  0  0  0  0
    0.8730   -0.5629    3.8699 H   0  0  0  0  0  0  0  0  0  0  0  0
  1  2  1  0  0  0  0
  2  3  1  0  0  0  0
  2  4  1  0  0  0  0
  2  5  1  0  0  0  0
  5  6  2  0  0  0  0
  5  7  1  0  0  0  0
  7  8  1  0  0  0  0
  7  9  1  0  0  0  0
  9 10  1  0  0  0  0
  9 11  1  0  0  0  0
  9 21  1  0  0  0  0
 11 12  1  0  0  0  0
 11 13  1  0  0  0  0
 11 14  1  0  0  0  0
 14 15  1  0  0  0  0
 14 16  1  0  0  0  0
 14 17  1  0  0  0  0
 17 18  2  0  0  0  0
 17 19  1  0  0  0  0
 19 20  1  0  0  0  0
 21 22  2  0  0  0  0
 21 23  1  0  0  0  0
 23 24  1  0  0  0  0
 23 25  1  0  0  0  0
 25 26  1  0  0  0  0
 25 27  1  0  0  0  0
 25 28  1  0  0  0  0
M  END
$$$$

  -OEChem-03222214033D

 28 27  0     1  0  0  0  0  0999 V2000
   -2.6375   -4.2064    0.3040 H   0  0  0  0  0  0  0  0  0  0  0  0
   -2.6249   -3.2093   -0.1450 C   0  0  0  0  0  0  0  0  0  0  0  0
   -3.4010   -2.6010    0.3253 H   0  0  0  0  0  0  0  0  0  0  0  0
   -2.8408   -3.3011   -1.2124 H   0  0  0  0  0  0  0  0  0  0  0  0
   -1.2668   -2.5641    0.0541 C   0  0  0  0  0  0  0  0  0  0  0  0
   -0.3900   -3.1574    0.6564 O   0  0  0  0  0  0  0  0  0  0  0  0
   -1.0325   -1.2981   -0.4399 N   0  0  0  0  0  0  0  0  0  0  0  0
   -1.8005   -0.8453   -0.9396 H   0  0  0  0  0  0  0  0  0  0  0  0
    0.2581   -0.5924   -0.3689 C   0  0  1  0  0  0  0  0  0  0  0  0
    0.9961   -1.2478   -0.8454 H   0  0  0  0  0  0  0  0  0  0  0  0
    0.2006    0.7004   -1.2151 C   0  0  0  0  0  0  0  0  0  0  0  0
    1.2301    1.0401   -1.3738 H   0  0  0  0  0  0  0  0  0  0  0  0
   -0.2112    0.4584   -2.2007 H   0  0  0  0  0  0  0  0  0  0  0  0
   -0.5972    1.8804   -0.6081 C   0  0  0  0  0  0  0  0  0  0  0  0
   -0.1232    2.1985    0.3244 H   0  0  0  0  0  0  0  0  0  0  0  0
   -0.5452    2.7288   -1.2951 H   0  0  0  0  0  0  0  0  0  0  0  0
   -2.0741    1.6007   -0.3338 C   0  0  0  0  0  0  0  0  0  0  0  0
   -2.7093    0.9164   -1.1199 O   0  0  0  0  0  0  0  0  0  0  0  0
   -2.6053    2.1090    0.7980 O   0  0  0  0  0  0  0  0  0  0  0  0
   -3.5448    1.8701    0.7769 H   0  0  0  0  0  0  0  0  0  0  0  0
    0.7982   -0.3488    1.0597 C   0  0  0  0  0  0  0  0  0  0  0  0
    2.0068   -0.2878    1.2409 O   0  0  0  0  0  0  0  0  0  0  0  0
   -0.0448    0.1119    2.0556 N   0  0  0  0  0  0  0  0  0  0  0  0
   -1.0408    0.0096    1.8895 H   0  0  0  0  0  0  0  0  0  0  0  0
    0.4139    0.4345    3.4004 C   0  0  0  0  0  0  0  0  0  0  0  0
    1.1663    1.2296    3.3686 H   0  0  0  0  0  0  0  0  0  0  0  0
   -0.4245    0.7785    4.0137 H   0  0  0  0  0  0  0  0  0  0  0  0
    0.8539   -0.4484    3.8759 H   0  0  0  0  0  0  0  0  0  0  0  0
  1  2  1  0  0  0  0
  2  3  1  0  0  0  0
  2  4  1  0  0  0  0
  2  5  1  0  0  0  0
  5  6  2  0  0  0  0
  5  7  1  0  0  0  0
  7  8  1  0  0  0  0
  7  9  1  0  0  0  0
  9 10  1  0  0  0  0
  9 11  1  0  0  0  0
  9 21  1  0  0  0  0
 11 12  1  0  0  0  0
 11 13  1  0  0  0  0
 11 14  1  0  0  0  0
 14 15  1  0  0  0  0
 14 16  1  0  0  0  0
 14 17  1  0  0  0  0
 17 18  2  0  0  0  0
 17 19  1  0  0  0  0
 19 20  1  0  0  0  0
 21 22  2  0  0  0  0
 21 23  1  0  0  0  0
 23 24  1  0  0  0  0
 23 25  1  0  0  0  0
 25 26  1  0  0  0  0
 25 27  1  0  0  0  0
 25 28  1  0  0  0  0
M  END
$$$$

  -OEChem-03222214033D

 28 27  0     1  0  0  0  0  0999 V2000
   -2.6185   -4.2375    0.2933 H   0  0  0  0  0  0  0  0  0  0  0  0
   -2.6156   -3.2367   -0.1478 C   0  0  0  0  0  0  0  0  0  0  0  0
   -3.3686   -2.6267    0.3566 H   0  0  0  0  0  0  0  0  0  0  0  0
   -2.8723   -3.3179   -1.2068 H   0  0  0  0  0  0  0  0  0  0  0  0
   -1.2462   -2.6028    0.0051 C   0  0  0  0  0  0  0  0  0  0  0  0
   -0.3446   -3.2174    0.5463 O   0  0  0  0  0  0  0  0  0  0  0  0
   -1.0297   -1.3219   -0.4572 N   0  0  0  0  0  0  0  0  0  0  0  0
   -1.8286   -0.8349   -0.8681 H   0  0  0  0  0  0  0  0  0  0  0  0
    0.2490   -0.5997   -0.3526 C   0  0  1  0  0  0  0  0  0  0  0  0
    0.9959   -1.2448   -0.8299 H   0  0  0  0  0  0  0  0  0  0  0  0
    0.2094    0.7006   -1.1874 C   0  0  0  0  0  0  0  0  0  0  0  0
    1.2403    1.0411   -1.3349 H   0  0  0  0  0  0  0  0  0  0  0  0
   -0.1897    0.4526   -2.1768 H   0  0  0  0  0  0  0  0  0  0  0  0
   -0.6073    1.8876   -0.6165 C   0  0  0  0  0  0  0  0  0  0  0  0
   -0.0308    2.3418    0.1950 H   0  0  0  0  0  0  0  0  0  0  0  0
   -0.7261    2.6486   -1.3921 H   0  0  0  0  0  0  0  0  0  0  0  0
   -1.9903    1.5456   -0.0637 C   0  0  0  0  0  0  0  0  0  0  0  0
   -2.7604    0.9186   -0.7724 O   0  0  0  0  0  0  0  0  0  0  0  0
   -2.2979    1.9399    1.1906 O   0  0  0  0  0  0  0  0  0  0  0  0
   -3.2282    1.6976    1.3208 H   0  0  0  0  0  0  0  0  0  0  0  0
    0.7917   -0.3680    1.0774 C   0  0  0  0  0  0  0  0  0  0  0  0
    2.0016   -0.3159    1.2536 O   0  0  0  0  0  0  0  0  0  0  0  0
   -0.0383    0.0658    2.0946 N   0  0  0  0  0  0  0  0  0  0  0  0
   -1.0353    0.0873    1.9057 H   0  0  0  0  0  0  0  0  0  0  0  0
    0.4403    0.4437    3.4178 C   0  0  0  0  0  0  0  0  0  0  0  0
    1.1340    1.2881    3.3481 H   0  0  0  0  0  0  0  0  0  0  0  0
   -0.3999    0.7385    4.0536 H   0  0  0  0  0  0  0  0  0  0  0  0
    0.9556   -0.3983    3.8922 H   0  0  0  0  0  0  0  0  0  0  0  0
  1  2  1  0  0  0  0
  2  3  1  0  0  0  0
  2  4  1  0  0  0  0
  2  5  1  0  0  0  0
  5  6  2  0  0  0  0
  5  7  1  0  0  0  0
  7  8  1  0  0  0  0
  7  9  1  0  0  0  0
  9 10  1  0  0  0  0
  9 11  1  0  0  0  0
  9 21  1  0  0  0  0
 11 12  1  0  0  0  0
 11 13  1  0  0  0  0
 11 14  1  0  0  0  0
 14 15  1  0  0  0  0
 14 16  1  0  0  0  0
 14 17  1  0  0  0  0
 17 18  2  0  0  0  0
 17 19  1  0  0  0  0
 19 20  1  0  0  0  0
 21 22  2  0  0  0  0
 21 23  1  0  0  0  0
 23 24  1  0  0  0  0
 23 25  1  0  0  0  0
 25 26  1  0  0  0  0
 25 27  1  0  0  0  0
 25 28  1  0  0  0  0
M  END
$$$$

  -OEChem-03222214033D

 28 27  0     1  0  0  0  0  0999 V2000
   -2.5044   -4.2849    0.3592 H   0  0  0  0  0  0  0  0  0  0  0  0
   -2.5396   -3.2825   -0.0766 C   0  0  0  0  0  0  0  0  0  0  0  0
   -3.2454   -2.6744    0.4941 H   0  0  0  0  0  0  0  0  0  0  0  0
   -2.8881   -3.3590   -1.1093 H   0  0  0  0  0  0  0  0  0  0  0  0
   -1.1620   -2.6489   -0.0427 C   0  0  0  0  0  0  0  0  0  0  0  0
   -0.2088   -3.2761    0.3840 O   0  0  0  0  0  0  0  0  0  0  0  0
   -0.9994   -1.3483   -0.4702 N   0  0  0  0  0  0  0  0  0  0  0  0
   -1.8526   -0.8299   -0.6888 H   0  0  0  0  0  0  0  0  0  0  0  0
    0.2548   -0.5868   -0.3638 C   0  0  1  0  0  0  0  0  0  0  0  0
    1.0138   -1.2071   -0.8551 H   0  0  0  0  0  0  0  0  0  0  0  0
    0.1967    0.7211   -1.1863 C   0  0  0  0  0  0  0  0  0  0  0  0
    1.2252    1.0669   -1.3382 H   0  0  0  0  0  0  0  0  0  0  0  0
   -0.1965    0.4578   -2.1739 H   0  0  0  0  0  0  0  0  0  0  0  0
   -0.6308    1.9262   -0.6601 C   0  0  0  0  0  0  0  0  0  0  0  0
    0.0405    2.5309   -0.0426 H   0  0  0  0  0  0  0  0  0  0  0  0
   -0.9316    2.5478   -1.5075 H   0  0  0  0  0  0  0  0  0  0  0  0
   -1.8699    1.6579    0.1936 C   0  0  0  0  0  0  0  0  0  0  0  0
   -2.6928    0.8437   -0.1921 O   0  0  0  0  0  0  0  0  0  0  0  0
   -2.0231    2.3813    1.3232 O   0  0  0  0  0  0  0  0  0  0  0  0
   -2.8876    2.1323    1.6835 H   0  0  0  0  0  0  0  0  0  0  0  0
    0.8015   -0.3866    1.0679 C   0  0  0  0  0  0  0  0  0  0  0  0
    2.0080   -0.2697    1.2354 O   0  0  0  0  0  0  0  0  0  0  0  0
   -0.0446   -0.0176    2.0969 N   0  0  0  0  0  0  0  0  0  0  0  0
   -1.0349   -0.1796    1.9461 H   0  0  0  0  0  0  0  0  0  0  0  0
    0.4233    0.2852    3.4435 C   0  0  0  0  0  0  0  0  0  0  0  0
    1.1401    1.1129    3.4236 H   0  0  0  0  0  0  0  0  0  0  0  0
   -0.4180    0.5755    4.0798 H   0  0  0  0  0  0  0  0  0  0  0  0
    0.9091   -0.5909    3.8857 H   0  0  0  0  0  0  0  0  0  0  0  0
  1  2  1  0  0  0  0
  2  3  1  0  0  0  0
  2  4  1  0  0  0  0
  2  5  1  0  0  0  0
  5  6  2  0  0  0  0
  5  7  1  0  0  0  0
  7  8  1  0  0  0  0
  7  9  1  0  0  0  0
  9 10  1  0  0  0  0
  9 11  1  0  0  0  0
  9 21  1  0  0  0  0
 11 12  1  0  0  0  0
 11 13  1  0  0  0  0
 11 14  1  0  0  0  0
 14 15  1  0  0  0  0
 14 16  1  0  0  0  0
 14 17  1  0  0  0  0
 17 18  2  0  0  0  0
 17 19  1  0  0  0  0
 19 20  1  0  0  0  0
 21 22  2  0  0  0  0
 21 23  1  0  0  0  0
 23 24  1  0  0  0  0
 23 25  1  0  0  0  0
 25 26  1  0  0  0  0
 25 27  1  0  0  0  0
 25 28  1  0  0  0  0
M  END
$$$$

  -OEChem-03222214033D

 28 27  0     1  0  0  0  0  0999 V2000
   -2.0689   -4.2501    1.0321 H   0  0  0  0  0  0  0  0  0  0  0  0
   -2.2232   -3.3040    0.5059 C   0  0  0  0  0  0  0  0  0  0  0  0
   -2.9106   -2.6849    1.0878 H   0  0  0  0  0  0  0  0  0  0  0  0
   -2.6686   -3.5113   -0.4701 H   0  0  0  0  0  0  0  0  0  0  0  0
   -0.9007   -2.5837    0.3267 C   0  0  0  0  0  0  0  0  0  0  0  0
    0.1391   -3.1122    0.6827 O   0  0  0  0  0  0  0  0  0  0  0  0
   -0.8820   -1.3050   -0.1878 N   0  0  0  0  0  0  0  0  0  0  0  0
   -1.7890   -0.8398   -0.2722 H   0  0  0  0  0  0  0  0  0  0  0  0
    0.3155   -0.4524   -0.2281 C   0  0  1  0  0  0  0  0  0  0  0  0
    1.0692   -1.0932   -0.7013 H   0  0  0  0  0  0  0  0  0  0  0  0
    0.1536    0.7108   -1.2337 C   0  0  0  0  0  0  0  0  0  0  0  0
    1.1529    1.0968   -1.4642 H   0  0  0  0  0  0  0  0  0  0  0  0
   -0.2338    0.2755   -2.1611 H   0  0  0  0  0  0  0  0  0  0  0  0
   -0.7500    1.9179   -0.8749 C   0  0  0  0  0  0  0  0  0  0  0  0
   -0.0994    2.7653   -0.6442 H   0  0  0  0  0  0  0  0  0  0  0  0
   -1.3333    2.1984   -1.7567 H   0  0  0  0  0  0  0  0  0  0  0  0
   -1.7176    1.7475    0.2917 C   0  0  0  0  0  0  0  0  0  0  0  0
   -2.6322    0.9520    0.1339 O   0  0  0  0  0  0  0  0  0  0  0  0
   -1.5422    2.5047    1.4071 O   0  0  0  0  0  0  0  0  0  0  0  0
   -0.7091    2.9898    1.3343 H   0  0  0  0  0  0  0  0  0  0  0  0
    1.0195   -0.0774    1.1051 C   0  0  0  0  0  0  0  0  0  0  0  0
    2.1584    0.3589    1.0454 O   0  0  0  0  0  0  0  0  0  0  0  0
    0.4158    0.3374    2.2709 N   0  0  0  0  0  0  0  0  0  0  0  0
    1.1028    0.6960    2.9294 H   0  0  0  0  0  0  0  0  0  0  0  0
   -0.7362   -0.3425    2.8500 C   0  0  0  0  0  0  0  0  0  0  0  0
   -1.0028    0.1272    3.8016 H   0  0  0  0  0  0  0  0  0  0  0  0
   -1.6092   -0.2881    2.1966 H   0  0  0  0  0  0  0  0  0  0  0  0
   -0.5023   -1.3953    3.0395 H   0  0  0  0  0  0  0  0  0  0  0  0
  1  2  1  0  0  0  0
  2  3  1  0  0  0  0
  2  4  1  0  0  0  0
  2  5  1  0  0  0  0
  5  6  2  0  0  0  0
  5  7  1  0  0  0  0
  7  8  1  0  0  0  0
  7  9  1  0  0  0  0
  9 10  1  0  0  0  0
  9 11  1  0  0  0  0
  9 21  1  0  0  0  0
 11 12  1  0  0  0  0
 11 13  1  0  0  0  0
 11 14  1  0  0  0  0
 14 15  1  0  0  0  0
 14 16  1  0  0  0  0
 14 17  1  0  0  0  0
 17 18  2  0  0  0  0
 17 19  1  0  0  0  0
 19 20  1  0  0  0  0
 21 22  2  0  0  0  0
 21 23  1  0  0  0  0
 23 24  1  0  0  0  0
 23 25  1  0  0  0  0
 25 26  1  0  0  0  0
 25 27  1  0  0  0  0
 25 28  1  0  0  0  0
M  END
$$$$

  -OEChem-03222214033D

 28 27  0     1  0  0  0  0  0999 V2000
   -2.2683   -4.4276    0.3890 H   0  0  0  0  0  0  0  0  0  0  0  0
   -2.3248   -3.4236   -0.0407 C   0  0  0  0  0  0  0  0  0  0  0  0
   -3.0678   -2.8452    0.5138 H   0  0  0  0  0  0  0  0  0  0  0  0
   -2.6398   -3.5039   -1.0838 H   0  0  0  0  0  0  0  0  0  0  0  0
   -0.9711   -2.7439    0.0404 C   0  0  0  0  0  0  0  0  0  0  0  0
   -0.0171   -3.3379    0.5124 O   0  0  0  0  0  0  0  0  0  0  0  0
   -0.8304   -1.4447   -0.4029 N   0  0  0  0  0  0  0  0  0  0  0  0
   -1.7047   -0.9496   -0.5851 H   0  0  0  0  0  0  0  0  0  0  0  0
    0.3454   -0.6131   -0.1016 C   0  0  1  0  0  0  0  0  0  0  0  0
    1.1997   -1.2353   -0.3952 H   0  0  0  0  0  0  0  0  0  0  0  0
    0.4307    0.5936   -1.0661 C   0  0  0  0  0  0  0  0  0  0  0  0
    1.4542    0.9784   -0.9941 H   0  0  0  0  0  0  0  0  0  0  0  0
    0.3154    0.2082   -2.0849 H   0  0  0  0  0  0  0  0  0  0  0  0
   -0.5277    1.8063   -0.9045 C   0  0  0  0  0  0  0  0  0  0  0  0
    0.0801    2.7072   -0.7870 H   0  0  0  0  0  0  0  0  0  0  0  0
   -1.0889    1.9263   -1.8360 H   0  0  0  0  0  0  0  0  0  0  0  0
   -1.5514    1.7690    0.2251 C   0  0  0  0  0  0  0  0  0  0  0  0
   -2.4097    0.9002    0.1729 O   0  0  0  0  0  0  0  0  0  0  0  0
   -1.4507    2.6855    1.2238 O   0  0  0  0  0  0  0  0  0  0  0  0
   -0.6574    3.2226    1.0921 H   0  0  0  0  0  0  0  0  0  0  0  0
    0.6391   -0.3445    1.3949 C   0  0  0  0  0  0  0  0  0  0  0  0
    1.7954   -0.1402    1.7399 O   0  0  0  0  0  0  0  0  0  0  0  0
   -0.3672    0.0033    2.2763 N   0  0  0  0  0  0  0  0  0  0  0  0
   -1.3236   -0.0281    1.9251 H   0  0  0  0  0  0  0  0  0  0  0  0
   -0.1339    0.4450    3.6451 C   0  0  0  0  0  0  0  0  0  0  0  0
    0.4788    1.3523    3.6577 H   0  0  0  0  0  0  0  0  0  0  0  0
   -1.0865    0.6650    4.1368 H   0  0  0  0  0  0  0  0  0  0  0  0
    0.3789   -0.3362    4.2161 H   0  0  0  0  0  0  0  0  0  0  0  0
  1  2  1  0  0  0  0
  2  3  1  0  0  0  0
  2  4  1  0  0  0  0
  2  5  1  0  0  0  0
  5  6  2  0  0  0  0
  5  7  1  0  0  0  0
  7  8  1  0  0  0  0
  7  9  1  0  0  0  0
  9 10  1  0  0  0  0
  9 11  1  0  0  0  0
  9 21  1  0  0  0  0
 11 12  1  0  0  0  0
 11 13  1  0  0  0  0
 11 14  1  0  0  0  0
 14 15  1  0  0  0  0
 14 16  1  0  0  0  0
 14 17  1  0  0  0  0
 17 18  2  0  0  0  0
 17 19  1  0  0  0  0
 19 20  1  0  0  0  0
 21 22  2  0  0  0  0
 21 23  1  0  0  0  0
 23 24  1  0  0  0  0
 23 25  1  0  0  0  0
 25 26  1  0  0  0  0
 25 27  1  0  0  0  0
 25 28  1  0  0  0  0
M  END
$$$$

  -OEChem-03222214033D

 28 27  0     1  0  0  0  0  0999 V2000
   -2.5386   -4.3069    0.2552 H   0  0  0  0  0  0  0  0  0  0  0  0
   -2.5941   -3.2612   -0.0606 C   0  0  0  0  0  0  0  0  0  0  0  0
   -3.2214   -2.7131    0.6466 H   0  0  0  0  0  0  0  0  0  0  0  0
   -3.0492   -3.2171   -1.0528 H   0  0  0  0  0  0  0  0  0  0  0  0
   -1.2049   -2.6538   -0.0999 C   0  0  0  0  0  0  0  0  0  0  0  0
   -0.2333   -3.3373    0.1722 O   0  0  0  0  0  0  0  0  0  0  0  0
   -1.0496   -1.3219   -0.4284 N   0  0  0  0  0  0  0  0  0  0  0  0
   -1.9093   -0.7760   -0.4526 H   0  0  0  0  0  0  0  0  0  0  0  0
    0.2022   -0.5800   -0.2104 C   0  0  1  0  0  0  0  0  0  0  0  0
    0.9676   -1.2266   -0.6573 H   0  0  0  0  0  0  0  0  0  0  0  0
    0.2618    0.6766   -1.1119 C   0  0  0  0  0  0  0  0  0  0  0  0
    1.3079    1.0031   -1.1062 H   0  0  0  0  0  0  0  0  0  0  0  0
    0.0366    0.3720   -2.1396 H   0  0  0  0  0  0  0  0  0  0  0  0
   -0.6005    1.9202   -0.7745 C   0  0  0  0  0  0  0  0  0  0  0  0
   -0.0065    2.8210   -0.9492 H   0  0  0  0  0  0  0  0  0  0  0  0
   -1.4338    1.9539   -1.4831 H   0  0  0  0  0  0  0  0  0  0  0  0
   -1.2132    1.9954    0.6153 C   0  0  0  0  0  0  0  0  0  0  0  0
   -2.1905    1.2892    0.8199 O   0  0  0  0  0  0  0  0  0  0  0  0
   -0.6408    2.8054    1.5442 O   0  0  0  0  0  0  0  0  0  0  0  0
    0.1707    3.1884    1.1838 H   0  0  0  0  0  0  0  0  0  0  0  0
    0.7195   -0.4757    1.2477 C   0  0  0  0  0  0  0  0  0  0  0  0
    1.9250   -0.3642    1.4296 O   0  0  0  0  0  0  0  0  0  0  0  0
   -0.1225   -0.1748    2.3023 N   0  0  0  0  0  0  0  0  0  0  0  0
   -1.1045   -0.0179    2.0742 H   0  0  0  0  0  0  0  0  0  0  0  0
    0.3470    0.1848    3.6342 C   0  0  0  0  0  0  0  0  0  0  0  0
    0.8961    1.1313    3.6046 H   0  0  0  0  0  0  0  0  0  0  0  0
   -0.5025    0.2976    4.3145 H   0  0  0  0  0  0  0  0  0  0  0  0
    1.0059   -0.5941    4.0326 H   0  0  0  0  0  0  0  0  0  0  0  0
  1  2  1  0  0  0  0
  2  3  1  0  0  0  0
  2  4  1  0  0  0  0
  2  5  1  0  0  0  0
  5  6  2  0  0  0  0
  5  7  1  0  0  0  0
  7  8  1  0  0  0  0
  7  9  1  0  0  0  0
  9 10  1  0  0  0  0
  9 11  1  0  0  0  0
  9 21  1  0  0  0  0
 11 12  1  0  0  0  0
 11 13  1  0  0  0  0
 11 14  1  0  0  0  0
 14 15  1  0  0  0  0
 14 16  1  0  0  0  0
 14 17  1  0  0  0  0
 17 18  2  0  0  0  0
 17 19  1  0  0  0  0
 19 20  1  0  0  0  0
 21 22  2  0  0  0  0
 21 23  1  0  0  0  0
 23 24  1  0  0  0  0
 23 25  1  0  0  0  0
 25 26  1  0  0  0  0
 25 27  1  0  0  0  0
 25 28  1  0  0  0  0
M  END
$$$$

  -OEChem-03222214033D

 28 27  0     1  0  0  0  0  0999 V2000
   -2.9891   -3.9749    0.1568 H   0  0  0  0  0  0  0  0  0  0  0  0
   -2.8864   -2.9431   -0.1915 C   0  0  0  0  0  0  0  0  0  0  0  0
   -3.5434   -2.3044    0.4033 H   0  0  0  0  0  0  0  0  0  0  0  0
   -3.1909   -2.8940   -1.2398 H   0  0  0  0  0  0  0  0  0  0  0  0
   -1.4472   -2.4858   -0.0485 C   0  0  0  0  0  0  0  0  0  0  0  0
   -0.6039   -3.2541    0.3767 O   0  0  0  0  0  0  0  0  0  0  0  0
   -1.1020   -1.1938   -0.3918 N   0  0  0  0  0  0  0  0  0  0  0  0
   -1.8587   -0.5747   -0.6664 H   0  0  0  0  0  0  0  0  0  0  0  0
    0.2442   -0.6221   -0.2190 C   0  0  1  0  0  0  0  0  0  0  0  0
    0.9042   -1.3670   -0.6807 H   0  0  0  0  0  0  0  0  0  0  0  0
    0.4244    0.6078   -1.1396 C   0  0  0  0  0  0  0  0  0  0  0  0
    1.5028    0.8044   -1.1597 H   0  0  0  0  0  0  0  0  0  0  0  0
    0.1392    0.3249   -2.1582 H   0  0  0  0  0  0  0  0  0  0  0  0
   -0.2556    1.9581   -0.8020 C   0  0  0  0  0  0  0  0  0  0  0  0
    0.3304    2.7637   -1.2547 H   0  0  0  0  0  0  0  0  0  0  0  0
   -1.2348    1.9685   -1.2874 H   0  0  0  0  0  0  0  0  0  0  0  0
   -0.4984    2.3147    0.6563 C   0  0  0  0  0  0  0  0  0  0  0  0
    0.3275    2.9906    1.2377 O   0  0  0  0  0  0  0  0  0  0  0  0
   -1.6668    1.9259    1.2176 O   0  0  0  0  0  0  0  0  0  0  0  0
   -1.6513    2.3378    2.0974 H   0  0  0  0  0  0  0  0  0  0  0  0
    0.8160   -0.5718    1.2198 C   0  0  0  0  0  0  0  0  0  0  0  0
    2.0220   -0.6981    1.3820 O   0  0  0  0  0  0  0  0  0  0  0  0
    0.0503   -0.1497    2.2895 N   0  0  0  0  0  0  0  0  0  0  0  0
   -0.9322    0.0316    2.1074 H   0  0  0  0  0  0  0  0  0  0  0  0
    0.5935    0.0970    3.6194 C   0  0  0  0  0  0  0  0  0  0  0  0
    1.3179    0.9180    3.5893 H   0  0  0  0  0  0  0  0  0  0  0  0
   -0.2082    0.3665    4.3131 H   0  0  0  0  0  0  0  0  0  0  0  0
    1.0930   -0.7998    4.0012 H   0  0  0  0  0  0  0  0  0  0  0  0
  1  2  1  0  0  0  0
  2  3  1  0  0  0  0
  2  4  1  0  0  0  0
  2  5  1  0  0  0  0
  5  6  2  0  0  0  0
  5  7  1  0  0  0  0
  7  8  1  0  0  0  0
  7  9  1  0  0  0  0
  9 10  1  0  0  0  0
  9 11  1  0  0  0  0
  9 21  1  0  0  0  0
 11 12  1  0  0  0  0
 11 13  1  0  0  0  0
 11 14  1  0  0  0  0
 14 15  1  0  0  0  0
 14 16  1  0  0  0  0
 14 17  1  0  0  0  0
 17 18  2  0  0  0  0
 17 19  1  0  0  0  0
 19 20  1  0  0  0  0
 21 22  2  0  0  0  0
 21 23  1  0  0  0  0
 23 24  1  0  0  0  0
 23 25  1  0  0  0  0
 25 26  1  0  0  0  0
 25 27  1  0  0  0  0
 25 28  1  0  0  0  0
M  END
$$$$

  -OEChem-03222214033D

 28 27  0     1  0  0  0  0  0999 V2000
   -2.8756   -4.0374    0.1453 H   0  0  0  0  0  0  0  0  0  0  0  0
   -2.8054   -3.0062   -0.2127 C   0  0  0  0  0  0  0  0  0  0  0  0
   -3.5117   -2.3906    0.3492 H   0  0  0  0  0  0  0  0  0  0  0  0
   -3.0724   -2.9836   -1.2719 H   0  0  0  0  0  0  0  0  0  0  0  0
   -1.3939   -2.4839   -0.0223 C   0  0  0  0  0  0  0  0  0  0  0  0
   -0.5390   -3.2050    0.4583 O   0  0  0  0  0  0  0  0  0  0  0  0
   -1.0863   -1.1896   -0.3926 N   0  0  0  0  0  0  0  0  0  0  0  0
   -1.8397   -0.6301   -0.7791 H   0  0  0  0  0  0  0  0  0  0  0  0
    0.2490   -0.5814   -0.2546 C   0  0  1  0  0  0  0  0  0  0  0  0
    0.9261   -1.3035   -0.7272 H   0  0  0  0  0  0  0  0  0  0  0  0
    0.3506    0.6587   -1.1755 C   0  0  0  0  0  0  0  0  0  0  0  0
    1.4182    0.8983   -1.2437 H   0  0  0  0  0  0  0  0  0  0  0  0
    0.0276    0.3719   -2.1814 H   0  0  0  0  0  0  0  0  0  0  0  0
   -0.3698    1.9732   -0.7899 C   0  0  0  0  0  0  0  0  0  0  0  0
   -0.0032    2.7736   -1.4392 H   0  0  0  0  0  0  0  0  0  0  0  0
   -1.4349    1.8522   -1.0025 H   0  0  0  0  0  0  0  0  0  0  0  0
   -0.2538    2.4567    0.6473 C   0  0  0  0  0  0  0  0  0  0  0  0
    0.7893    2.9667    1.0061 O   0  0  0  0  0  0  0  0  0  0  0  0
   -1.3392    2.3436    1.4453 O   0  0  0  0  0  0  0  0  0  0  0  0
   -1.0582    2.7469    2.2831 H   0  0  0  0  0  0  0  0  0  0  0  0
    0.8301   -0.5013    1.1790 C   0  0  0  0  0  0  0  0  0  0  0  0
    2.0350   -0.6382    1.3406 O   0  0  0  0  0  0  0  0  0  0  0  0
    0.0634   -0.0845    2.2512 N   0  0  0  0  0  0  0  0  0  0  0  0
   -0.9230    0.0846    2.0789 H   0  0  0  0  0  0  0  0  0  0  0  0
    0.6022    0.1130    3.5907 C   0  0  0  0  0  0  0  0  0  0  0  0
    1.3623    0.9017    3.5837 H   0  0  0  0  0  0  0  0  0  0  0  0
   -0.1945    0.4042    4.2814 H   0  0  0  0  0  0  0  0  0  0  0  0
    1.0579   -0.8121    3.9593 H   0  0  0  0  0  0  0  0  0  0  0  0
  1  2  1  0  0  0  0
  2  3  1  0  0  0  0
  2  4  1  0  0  0  0
  2  5  1  0  0  0  0
  5  6  2  0  0  0  0
  5  7  1  0  0  0  0
  7  8  1  0  0  0  0
  7  9  1  0  0  0  0
  9 10  1  0  0  0  0
  9 11  1  0  0  0  0
  9 21  1  0  0  0  0
 11 12  1  0  0  0  0
 11 13  1  0  0  0  0
 11 14  1  0  0  0  0
 14 15  1  0  0  0  0
 14 16  1  0  0  0  0
 14 17  1  0  0  0  0
 17 18  2  0  0  0  0
 17 19  1  0  0  0  0
 19 20  1  0  0  0  0
 21 22  2  0  0  0  0
 21 23  1  0  0  0  0
 23 24  1  0  0  0  0
 23 25  1  0  0  0  0
 25 26  1  0  0  0  0
 25 27  1  0  0  0  0
 25 28  1  0  0  0  0
M  END
$$$$

  -OEChem-03222214033D

 28 27  0     1  0  0  0  0  0999 V2000
   -2.7836   -4.0836    0.2064 H   0  0  0  0  0  0  0  0  0  0  0  0
   -2.7335   -3.0651   -0.1894 C   0  0  0  0  0  0  0  0  0  0  0  0
   -3.4876   -2.4553    0.3137 H   0  0  0  0  0  0  0  0  0  0  0  0
   -2.9506   -3.0942   -1.2599 H   0  0  0  0  0  0  0  0  0  0  0  0
   -1.3525   -2.4827    0.0453 C   0  0  0  0  0  0  0  0  0  0  0  0
   -0.5051   -3.1432    0.6168 O   0  0  0  0  0  0  0  0  0  0  0  0
   -1.0647   -1.2035   -0.3891 N   0  0  0  0  0  0  0  0  0  0  0  0
   -1.7936   -0.7215   -0.9052 H   0  0  0  0  0  0  0  0  0  0  0  0
    0.2635   -0.5707   -0.2853 C   0  0  1  0  0  0  0  0  0  0  0  0
    0.9587   -1.2821   -0.7474 H   0  0  0  0  0  0  0  0  0  0  0  0
    0.3012    0.6659   -1.2157 C   0  0  0  0  0  0  0  0  0  0  0  0
    1.3556    0.9377   -1.3438 H   0  0  0  0  0  0  0  0  0  0  0  0
   -0.0692    0.3668   -2.2015 H   0  0  0  0  0  0  0  0  0  0  0  0
   -0.4518    1.9454   -0.7804 C   0  0  0  0  0  0  0  0  0  0  0  0
   -0.3391    2.6995   -1.5641 H   0  0  0  0  0  0  0  0  0  0  0  0
   -1.5171    1.7158   -0.7028 H   0  0  0  0  0  0  0  0  0  0  0  0
   -0.0152    2.5889    0.5291 C   0  0  0  0  0  0  0  0  0  0  0  0
    1.1387    2.9538    0.6420 O   0  0  0  0  0  0  0  0  0  0  0  0
   -0.9486    2.7672    1.4891 O   0  0  0  0  0  0  0  0  0  0  0  0
   -0.4653    3.1939    2.2146 H   0  0  0  0  0  0  0  0  0  0  0  0
    0.8312   -0.4217    1.1478 C   0  0  0  0  0  0  0  0  0  0  0  0
    2.0334   -0.5514    1.3322 O   0  0  0  0  0  0  0  0  0  0  0  0
    0.0444    0.0326    2.1905 N   0  0  0  0  0  0  0  0  0  0  0  0
   -0.9516    0.1185    2.0159 H   0  0  0  0  0  0  0  0  0  0  0  0
    0.5477    0.2130    3.5461 C   0  0  0  0  0  0  0  0  0  0  0  0
    1.3603    0.9472    3.5576 H   0  0  0  0  0  0  0  0  0  0  0  0
   -0.2509    0.5708    4.2025 H   0  0  0  0  0  0  0  0  0  0  0  0
    0.9244   -0.7356    3.9431 H   0  0  0  0  0  0  0  0  0  0  0  0
  1  2  1  0  0  0  0
  2  3  1  0  0  0  0
  2  4  1  0  0  0  0
  2  5  1  0  0  0  0
  5  6  2  0  0  0  0
  5  7  1  0  0  0  0
  7  8  1  0  0  0  0
  7  9  1  0  0  0  0
  9 10  1  0  0  0  0
  9 11  1  0  0  0  0
  9 21  1  0  0  0  0
 11 12  1  0  0  0  0
 11 13  1  0  0  0  0
 11 14  1  0  0  0  0
 14 15  1  0  0  0  0
 14 16  1  0  0  0  0
 14 17  1  0  0  0  0
 17 18  2  0  0  0  0
 17 19  1  0  0  0  0
 19 20  1  0  0  0  0
 21 22  2  0  0  0  0
 21 23  1  0  0  0  0
 23 24  1  0  0  0  0
 23 25  1  0  0  0  0
 25 26  1  0  0  0  0
 25 27  1  0  0  0  0
 25 28  1  0  0  0  0
M  END
$$$$

  -OEChem-03222214033D

 28 27  0     1  0  0  0  0  0999 V2000
   -2.7420   -4.1050    0.2306 H   0  0  0  0  0  0  0  0  0  0  0  0
   -2.6985   -3.0977   -0.1934 C   0  0  0  0  0  0  0  0  0  0  0  0
   -3.4820   -2.4895    0.2647 H   0  0  0  0  0  0  0  0  0  0  0  0
   -2.8769   -3.1626   -1.2694 H   0  0  0  0  0  0  0  0  0  0  0  0
   -1.3390   -2.4796    0.0719 C   0  0  0  0  0  0  0  0  0  0  0  0
   -0.5077   -3.0958    0.7122 O   0  0  0  0  0  0  0  0  0  0  0  0
   -1.0539   -1.2171   -0.4106 N   0  0  0  0  0  0  0  0  0  0  0  0
   -1.7570   -0.7895   -1.0048 H   0  0  0  0  0  0  0  0  0  0  0  0
    0.2717   -0.5752   -0.3180 C   0  0  1  0  0  0  0  0  0  0  0  0
    0.9807   -1.2795   -0.7695 H   0  0  0  0  0  0  0  0  0  0  0  0
    0.2822    0.6694   -1.2355 C   0  0  0  0  0  0  0  0  0  0  0  0
    1.3267    0.9553   -1.4063 H   0  0  0  0  0  0  0  0  0  0  0  0
   -0.1259    0.3796   -2.2091 H   0  0  0  0  0  0  0  0  0  0  0  0
   -0.4886    1.9129   -0.7325 C   0  0  0  0  0  0  0  0  0  0  0  0
   -0.6271    2.6002   -1.5713 H   0  0  0  0  0  0  0  0  0  0  0  0
   -1.4815    1.6121   -0.3898 H   0  0  0  0  0  0  0  0  0  0  0  0
    0.1913    2.7056    0.3806 C   0  0  0  0  0  0  0  0  0  0  0  0
    1.3551    3.0300    0.2427 O   0  0  0  0  0  0  0  0  0  0  0  0
   -0.5549    3.0569    1.4496 O   0  0  0  0  0  0  0  0  0  0  0  0
    0.0606    3.5400    2.0235 H   0  0  0  0  0  0  0  0  0  0  0  0
    0.8153   -0.3717    1.1171 C   0  0  0  0  0  0  0  0  0  0  0  0
    2.0162   -0.4709    1.3256 O   0  0  0  0  0  0  0  0  0  0  0  0
    0.0028    0.1187    2.1233 N   0  0  0  0  0  0  0  0  0  0  0  0
   -0.9944    0.1386    1.9386 H   0  0  0  0  0  0  0  0  0  0  0  0
    0.4727    0.3396    3.4850 C   0  0  0  0  0  0  0  0  0  0  0  0
    1.3045    1.0521    3.4929 H   0  0  0  0  0  0  0  0  0  0  0  0
   -0.3341    0.7455    4.1027 H   0  0  0  0  0  0  0  0  0  0  0  0
    0.8114   -0.6022    3.9298 H   0  0  0  0  0  0  0  0  0  0  0  0
  1  2  1  0  0  0  0
  2  3  1  0  0  0  0
  2  4  1  0  0  0  0
  2  5  1  0  0  0  0
  5  6  2  0  0  0  0
  5  7  1  0  0  0  0
  7  8  1  0  0  0  0
  7  9  1  0  0  0  0
  9 10  1  0  0  0  0
  9 11  1  0  0  0  0
  9 21  1  0  0  0  0
 11 12  1  0  0  0  0
 11 13  1  0  0  0  0
 11 14  1  0  0  0  0
 14 15  1  0  0  0  0
 14 16  1  0  0  0  0
 14 17  1  0  0  0  0
 17 18  2  0  0  0  0
 17 19  1  0  0  0  0
 19 20  1  0  0  0  0
 21 22  2  0  0  0  0
 21 23  1  0  0  0  0
 23 24  1  0  0  0  0
 23 25  1  0  0  0  0
 25 26  1  0  0  0  0
 25 27  1  0  0  0  0
 25 28  1  0  0  0  0
M  END
$$$$

  -OEChem-03222214033D

 28 27  0     1  0  0  0  0  0999 V2000
   -2.7098   -4.1316    0.2491 H   0  0  0  0  0  0  0  0  0  0  0  0
   -2.6733   -3.1351   -0.2009 C   0  0  0  0  0  0  0  0  0  0  0  0
   -3.4756   -2.5276    0.2246 H   0  0  0  0  0  0  0  0  0  0  0  0
   -2.8280   -3.2314   -1.2782 H   0  0  0  0  0  0  0  0  0  0  0  0
   -1.3294   -2.4879    0.0755 C   0  0  0  0  0  0  0  0  0  0  0  0
   -0.5038   -3.0702    0.7540 O   0  0  0  0  0  0  0  0  0  0  0  0
   -1.0532   -1.2348   -0.4358 N   0  0  0  0  0  0  0  0  0  0  0  0
   -1.7444   -0.8417   -1.0668 H   0  0  0  0  0  0  0  0  0  0  0  0
    0.2655   -0.5783   -0.3452 C   0  0  1  0  0  0  0  0  0  0  0  0
    0.9880   -1.2740   -0.7885 H   0  0  0  0  0  0  0  0  0  0  0  0
    0.2674    0.6764   -1.2440 C   0  0  0  0  0  0  0  0  0  0  0  0
    1.3070    0.9698   -1.4297 H   0  0  0  0  0  0  0  0  0  0  0  0
   -0.1557    0.4018   -2.2156 H   0  0  0  0  0  0  0  0  0  0  0  0
   -0.5186    1.8882   -0.6883 C   0  0  0  0  0  0  0  0  0  0  0  0
   -0.8939    2.4776   -1.5291 H   0  0  0  0  0  0  0  0  0  0  0  0
   -1.3861    1.5476   -0.1180 H   0  0  0  0  0  0  0  0  0  0  0  0
    0.3101    2.8379    0.1759 C   0  0  0  0  0  0  0  0  0  0  0  0
    1.3693    3.2529   -0.2562 O   0  0  0  0  0  0  0  0  0  0  0  0
   -0.2041    3.2176    1.3648 O   0  0  0  0  0  0  0  0  0  0  0  0
    0.4753    3.7931    1.7498 H   0  0  0  0  0  0  0  0  0  0  0  0
    0.7917   -0.3350    1.0895 C   0  0  0  0  0  0  0  0  0  0  0  0
    1.9957   -0.3683    1.3015 O   0  0  0  0  0  0  0  0  0  0  0  0
   -0.0423    0.1723    2.0690 N   0  0  0  0  0  0  0  0  0  0  0  0
   -1.0386    0.1264    1.8860 H   0  0  0  0  0  0  0  0  0  0  0  0
    0.4108    0.4684    3.4219 C   0  0  0  0  0  0  0  0  0  0  0  0
    1.2280    1.1970    3.4022 H   0  0  0  0  0  0  0  0  0  0  0  0
   -0.4095    0.8886    4.0115 H   0  0  0  0  0  0  0  0  0  0  0  0
    0.7634   -0.4438    3.9145 H   0  0  0  0  0  0  0  0  0  0  0  0
  1  2  1  0  0  0  0
  2  3  1  0  0  0  0
  2  4  1  0  0  0  0
  2  5  1  0  0  0  0
  5  6  2  0  0  0  0
  5  7  1  0  0  0  0
  7  8  1  0  0  0  0
  7  9  1  0  0  0  0
  9 10  1  0  0  0  0
  9 11  1  0  0  0  0
  9 21  1  0  0  0  0
 11 12  1  0  0  0  0
 11 13  1  0  0  0  0
 11 14  1  0  0  0  0
 14 15  1  0  0  0  0
 14 16  1  0  0  0  0
 14 17  1  0  0  0  0
 17 18  2  0  0  0  0
 17 19  1  0  0  0  0
 19 20  1  0  0  0  0
 21 22  2  0  0  0  0
 21 23  1  0  0  0  0
 23 24  1  0  0  0  0
 23 25  1  0  0  0  0
 25 26  1  0  0  0  0
 25 27  1  0  0  0  0
 25 28  1  0  0  0  0
M  END
$$$$

  -OEChem-03222214033D

 28 27  0     1  0  0  0  0  0999 V2000
   -2.6841   -4.1671    0.2375 H   0  0  0  0  0  0  0  0  0  0  0  0
   -2.6484   -3.1843   -0.2417 C   0  0  0  0  0  0  0  0  0  0  0  0
   -3.4769   -2.5798    0.1351 H   0  0  0  0  0  0  0  0  0  0  0  0
   -2.7613   -3.3161   -1.3204 H   0  0  0  0  0  0  0  0  0  0  0  0
   -1.3269   -2.5041    0.0626 C   0  0  0  0  0  0  0  0  0  0  0  0
   -0.5032   -3.0632    0.7628 O   0  0  0  0  0  0  0  0  0  0  0  0
   -1.0682   -1.2468   -0.4474 N   0  0  0  0  0  0  0  0  0  0  0  0
   -1.7533   -0.8725   -1.0964 H   0  0  0  0  0  0  0  0  0  0  0  0
    0.2386   -0.5695   -0.3438 C   0  0  1  0  0  0  0  0  0  0  0  0
    0.9728   -1.2557   -0.7824 H   0  0  0  0  0  0  0  0  0  0  0  0
    0.2398    0.6887   -1.2352 C   0  0  0  0  0  0  0  0  0  0  0  0
    1.2802    0.9942   -1.3977 H   0  0  0  0  0  0  0  0  0  0  0  0
   -0.1621    0.4205   -2.2174 H   0  0  0  0  0  0  0  0  0  0  0  0
   -0.5698    1.8808   -0.6714 C   0  0  0  0  0  0  0  0  0  0  0  0
   -1.1568    2.3223   -1.4811 H   0  0  0  0  0  0  0  0  0  0  0  0
   -1.2778    1.5507    0.0917 H   0  0  0  0  0  0  0  0  0  0  0  0
    0.3114    2.9912   -0.1042 C   0  0  0  0  0  0  0  0  0  0  0  0
    1.1011    3.5435   -0.8484 O   0  0  0  0  0  0  0  0  0  0  0  0
    0.1510    3.3310    1.1920 O   0  0  0  0  0  0  0  0  0  0  0  0
    0.8210    4.0134    1.3535 H   0  0  0  0  0  0  0  0  0  0  0  0
    0.7614   -0.3097    1.0901 C   0  0  0  0  0  0  0  0  0  0  0  0
    1.9687   -0.2831    1.2862 O   0  0  0  0  0  0  0  0  0  0  0  0
   -0.0791    0.1892    2.0686 N   0  0  0  0  0  0  0  0  0  0  0  0
   -1.0751    0.0923    1.9049 H   0  0  0  0  0  0  0  0  0  0  0  0
    0.3823    0.5672    3.3983 C   0  0  0  0  0  0  0  0  0  0  0  0
    1.1531    1.3420    3.3303 H   0  0  0  0  0  0  0  0  0  0  0  0
   -0.4497    0.9621    3.9889 H   0  0  0  0  0  0  0  0  0  0  0  0
    0.7994   -0.3008    3.9195 H   0  0  0  0  0  0  0  0  0  0  0  0
  1  2  1  0  0  0  0
  2  3  1  0  0  0  0
  2  4  1  0  0  0  0
  2  5  1  0  0  0  0
  5  6  2  0  0  0  0
  5  7  1  0  0  0  0
  7  8  1  0  0  0  0
  7  9  1  0  0  0  0
  9 10  1  0  0  0  0
  9 11  1  0  0  0  0
  9 21  1  0  0  0  0
 11 12  1  0  0  0  0
 11 13  1  0  0  0  0
 11 14  1  0  0  0  0
 14 15  1  0  0  0  0
 14 16  1  0  0  0  0
 14 17  1  0  0  0  0
 17 18  2  0  0  0  0
 17 19  1  0  0  0  0
 19 20  1  0  0  0  0
 21 22  2  0  0  0  0
 21 23  1  0  0  0  0
 23 24  1  0  0  0  0
 23 25  1  0  0  0  0
 25 26  1  0  0  0  0
 25 27  1  0  0  0  0
 25 28  1  0  0  0  0
M  END
$$$$

  -OEChem-03222214033D

 28 27  0     1  0  0  0  0  0999 V2000
   -2.6328   -4.2117    0.2045 H   0  0  0  0  0  0  0  0  0  0  0  0
   -2.6141   -3.2269   -0.2711 C   0  0  0  0  0  0  0  0  0  0  0  0
   -3.4576   -2.6412    0.1019 H   0  0  0  0  0  0  0  0  0  0  0  0
   -2.7167   -3.3572   -1.3509 H   0  0  0  0  0  0  0  0  0  0  0  0
   -1.3095   -2.5203    0.0450 C   0  0  0  0  0  0  0  0  0  0  0  0
   -0.4765   -3.0670    0.7439 O   0  0  0  0  0  0  0  0  0  0  0  0
   -1.0777   -1.2508   -0.4469 N   0  0  0  0  0  0  0  0  0  0  0  0
   -1.7675   -0.8841   -1.0954 H   0  0  0  0  0  0  0  0  0  0  0  0
    0.2137   -0.5475   -0.3316 C   0  0  1  0  0  0  0  0  0  0  0  0
    0.9594   -1.2197   -0.7724 H   0  0  0  0  0  0  0  0  0  0  0  0
    0.2025    0.7112   -1.2217 C   0  0  0  0  0  0  0  0  0  0  0  0
    1.2431    1.0336   -1.3486 H   0  0  0  0  0  0  0  0  0  0  0  0
   -0.1641    0.4454   -2.2186 H   0  0  0  0  0  0  0  0  0  0  0  0
   -0.6337    1.8920   -0.6720 C   0  0  0  0  0  0  0  0  0  0  0  0
   -1.4134    2.1443   -1.3954 H   0  0  0  0  0  0  0  0  0  0  0  0
   -1.1408    1.6300    0.2571 H   0  0  0  0  0  0  0  0  0  0  0  0
    0.2052    3.1443   -0.4417 C   0  0  0  0  0  0  0  0  0  0  0  0
    0.7093    3.6897   -1.4067 O   0  0  0  0  0  0  0  0  0  0  0  0
    0.3432    3.5928    0.8237 O   0  0  0  0  0  0  0  0  0  0  0  0
    0.9383    4.3554    0.7574 H   0  0  0  0  0  0  0  0  0  0  0  0
    0.7416   -0.2900    1.1019 C   0  0  0  0  0  0  0  0  0  0  0  0
    1.9503   -0.2307    1.2829 O   0  0  0  0  0  0  0  0  0  0  0  0
   -0.0982    0.1812    2.0949 N   0  0  0  0  0  0  0  0  0  0  0  0
   -1.0915    0.0328    1.9538 H   0  0  0  0  0  0  0  0  0  0  0  0
    0.3743    0.5698    3.4177 C   0  0  0  0  0  0  0  0  0  0  0  0
    1.1129    1.3747    3.3393 H   0  0  0  0  0  0  0  0  0  0  0  0
   -0.4604    0.9284    4.0273 H   0  0  0  0  0  0  0  0  0  0  0  0
    0.8356   -0.2838    3.9254 H   0  0  0  0  0  0  0  0  0  0  0  0
  1  2  1  0  0  0  0
  2  3  1  0  0  0  0
  2  4  1  0  0  0  0
  2  5  1  0  0  0  0
  5  6  2  0  0  0  0
  5  7  1  0  0  0  0
  7  8  1  0  0  0  0
  7  9  1  0  0  0  0
  9 10  1  0  0  0  0
  9 11  1  0  0  0  0
  9 21  1  0  0  0  0
 11 12  1  0  0  0  0
 11 13  1  0  0  0  0
 11 14  1  0  0  0  0
 14 15  1  0  0  0  0
 14 16  1  0  0  0  0
 14 17  1  0  0  0  0
 17 18  2  0  0  0  0
 17 19  1  0  0  0  0
 19 20  1  0  0  0  0
 21 22  2  0  0  0  0
 21 23  1  0  0  0  0
 23 24  1  0  0  0  0
 23 25  1  0  0  0  0
 25 26  1  0  0  0  0
 25 27  1  0  0  0  0
 25 28  1  0  0  0  0
M  END
$$$$

  -OEChem-03222214033D

 28 27  0     1  0  0  0  0  0999 V2000
   -2.5772   -4.2452    0.1643 H   0  0  0  0  0  0  0  0  0  0  0  0
   -2.5854   -3.2446   -0.2777 C   0  0  0  0  0  0  0  0  0  0  0  0
   -3.4384   -2.6909    0.1215 H   0  0  0  0  0  0  0  0  0  0  0  0
   -2.6950   -3.3409   -1.3605 H   0  0  0  0  0  0  0  0  0  0  0  0
   -1.2944   -2.5194    0.0508 C   0  0  0  0  0  0  0  0  0  0  0  0
   -0.4536   -3.0596    0.7455 O   0  0  0  0  0  0  0  0  0  0  0  0
   -1.0849   -1.2401   -0.4251 N   0  0  0  0  0  0  0  0  0  0  0  0
   -1.7826   -0.8780   -1.0678 H   0  0  0  0  0  0  0  0  0  0  0  0
    0.1992   -0.5231   -0.3182 C   0  0  1  0  0  0  0  0  0  0  0  0
    0.9464   -1.1859   -0.7711 H   0  0  0  0  0  0  0  0  0  0  0  0
    0.1660    0.7339   -1.2117 C   0  0  0  0  0  0  0  0  0  0  0  0
    1.2064    1.0646   -1.3180 H   0  0  0  0  0  0  0  0  0  0  0  0
   -0.1814    0.4687   -2.2156 H   0  0  0  0  0  0  0  0  0  0  0  0
   -0.6761    1.9170   -0.6751 C   0  0  0  0  0  0  0  0  0  0  0  0
   -1.6200    1.9730   -1.2228 H   0  0  0  0  0  0  0  0  0  0  0  0
   -0.9254    1.7830    0.3767 H   0  0  0  0  0  0  0  0  0  0  0  0
    0.0433    3.2557   -0.8090 C   0  0  0  0  0  0  0  0  0  0  0  0
    0.4559    3.5872   -1.9059 O   0  0  0  0  0  0  0  0  0  0  0  0
    0.1744    4.0191    0.2962 O   0  0  0  0  0  0  0  0  0  0  0  0
    0.6715    4.7995    0.0066 H   0  0  0  0  0  0  0  0  0  0  0  0
    0.7402   -0.2838    1.1136 C   0  0  0  0  0  0  0  0  0  0  0  0
    1.9500   -0.2163    1.2836 O   0  0  0  0  0  0  0  0  0  0  0  0
   -0.0934    0.1597    2.1250 N   0  0  0  0  0  0  0  0  0  0  0  0
   -1.0833   -0.0204    1.9958 H   0  0  0  0  0  0  0  0  0  0  0  0
    0.3897    0.4779    3.4630 C   0  0  0  0  0  0  0  0  0  0  0  0
    1.1432    1.2716    3.4200 H   0  0  0  0  0  0  0  0  0  0  0  0
   -0.4364    0.8231    4.0918 H   0  0  0  0  0  0  0  0  0  0  0  0
    0.8366   -0.4068    3.9288 H   0  0  0  0  0  0  0  0  0  0  0  0
  1  2  1  0  0  0  0
  2  3  1  0  0  0  0
  2  4  1  0  0  0  0
  2  5  1  0  0  0  0
  5  6  2  0  0  0  0
  5  7  1  0  0  0  0
  7  8  1  0  0  0  0
  7  9  1  0  0  0  0
  9 10  1  0  0  0  0
  9 11  1  0  0  0  0
  9 21  1  0  0  0  0
 11 12  1  0  0  0  0
 11 13  1  0  0  0  0
 11 14  1  0  0  0  0
 14 15  1  0  0  0  0
 14 16  1  0  0  0  0
 14 17  1  0  0  0  0
 17 18  2  0  0  0  0
 17 19  1  0  0  0  0
 19 20  1  0  0  0  0
 21 22  2  0  0  0  0
 21 23  1  0  0  0  0
 23 24  1  0  0  0  0
 23 25  1  0  0  0  0
 25 26  1  0  0  0  0
 25 27  1  0  0  0  0
 25 28  1  0  0  0  0
M  END
$$$$

  -OEChem-03222214033D

 28 27  0     1  0  0  0  0  0999 V2000
   -2.5631   -4.2500    0.1628 H   0  0  0  0  0  0  0  0  0  0  0  0
   -2.5769   -3.2472   -0.2737 C   0  0  0  0  0  0  0  0  0  0  0  0
   -3.4306   -2.6991    0.1322 H   0  0  0  0  0  0  0  0  0  0  0  0
   -2.6904   -3.3381   -1.3567 H   0  0  0  0  0  0  0  0  0  0  0  0
   -1.2874   -2.5184    0.0540 C   0  0  0  0  0  0  0  0  0  0  0  0
   -0.4420   -3.0577    0.7442 O   0  0  0  0  0  0  0  0  0  0  0  0
   -1.0863   -1.2355   -0.4159 N   0  0  0  0  0  0  0  0  0  0  0  0
   -1.7843   -0.8799   -1.0621 H   0  0  0  0  0  0  0  0  0  0  0  0
    0.1975   -0.5157   -0.3210 C   0  0  1  0  0  0  0  0  0  0  0  0
    0.9427   -1.1700   -0.7892 H   0  0  0  0  0  0  0  0  0  0  0  0
    0.1401    0.7492   -1.2030 C   0  0  0  0  0  0  0  0  0  0  0  0
    1.1758    1.0920   -1.3144 H   0  0  0  0  0  0  0  0  0  0  0  0
   -0.2167    0.4926   -2.2059 H   0  0  0  0  0  0  0  0  0  0  0  0
   -0.6979    1.9235   -0.6440 C   0  0  0  0  0  0  0  0  0  0  0  0
   -1.7415    1.8182   -0.9491 H   0  0  0  0  0  0  0  0  0  0  0  0
   -0.6735    1.9330    0.4451 H   0  0  0  0  0  0  0  0  0  0  0  0
   -0.1766    3.2842   -1.0994 C   0  0  0  0  0  0  0  0  0  0  0  0
    0.1572    3.4258   -2.2624 O   0  0  0  0  0  0  0  0  0  0  0  0
   -0.1329    4.2798   -0.1892 O   0  0  0  0  0  0  0  0  0  0  0  0
    0.2331    5.0411   -0.6654 H   0  0  0  0  0  0  0  0  0  0  0  0
    0.7483   -0.2892    1.1087 C   0  0  0  0  0  0  0  0  0  0  0  0
    1.9586   -0.2147    1.2714 O   0  0  0  0  0  0  0  0  0  0  0  0
   -0.0823    0.1423    2.1279 N   0  0  0  0  0  0  0  0  0  0  0  0
   -1.0707   -0.0500    2.0023 H   0  0  0  0  0  0  0  0  0  0  0  0
    0.4058    0.4281    3.4715 C   0  0  0  0  0  0  0  0  0  0  0  0
    1.1631    1.2190    3.4446 H   0  0  0  0  0  0  0  0  0  0  0  0
   -0.4170    0.7627    4.1104 H   0  0  0  0  0  0  0  0  0  0  0  0
    0.8496   -0.4691    3.9158 H   0  0  0  0  0  0  0  0  0  0  0  0
  1  2  1  0  0  0  0
  2  3  1  0  0  0  0
  2  4  1  0  0  0  0
  2  5  1  0  0  0  0
  5  6  2  0  0  0  0
  5  7  1  0  0  0  0
  7  8  1  0  0  0  0
  7  9  1  0  0  0  0
  9 10  1  0  0  0  0
  9 11  1  0  0  0  0
  9 21  1  0  0  0  0
 11 12  1  0  0  0  0
 11 13  1  0  0  0  0
 11 14  1  0  0  0  0
 14 15  1  0  0  0  0
 14 16  1  0  0  0  0
 14 17  1  0  0  0  0
 17 18  2  0  0  0  0
 17 19  1  0  0  0  0
 19 20  1  0  0  0  0
 21 22  2  0  0  0  0
 21 23  1  0  0  0  0
 23 24  1  0  0  0  0
 23 25  1  0  0  0  0
 25 26  1  0  0  0  0
 25 27  1  0  0  0  0
 25 28  1  0  0  0  0
M  END
$$$$

  -OEChem-03222214033D

 28 27  0     1  0  0  0  0  0999 V2000
   -2.5782   -4.2333    0.2033 H   0  0  0  0  0  0  0  0  0  0  0  0
   -2.5789   -3.2429   -0.2610 C   0  0  0  0  0  0  0  0  0  0  0  0
   -3.4326   -2.6770    0.1196 H   0  0  0  0  0  0  0  0  0  0  0  0
   -2.6811   -3.3632   -1.3422 H   0  0  0  0  0  0  0  0  0  0  0  0
   -1.2868   -2.5157    0.0602 C   0  0  0  0  0  0  0  0  0  0  0  0
   -0.4398   -3.0556    0.7477 O   0  0  0  0  0  0  0  0  0  0  0  0
   -1.0835   -1.2358   -0.4173 N   0  0  0  0  0  0  0  0  0  0  0  0
   -1.7802   -0.8857   -1.0680 H   0  0  0  0  0  0  0  0  0  0  0  0
    0.2051   -0.5221   -0.3372 C   0  0  1  0  0  0  0  0  0  0  0  0
    0.9460   -1.1725   -0.8175 H   0  0  0  0  0  0  0  0  0  0  0  0
    0.1296    0.7530   -1.2021 C   0  0  0  0  0  0  0  0  0  0  0  0
    1.1579    1.1065   -1.3435 H   0  0  0  0  0  0  0  0  0  0  0  0
   -0.2612    0.5024   -2.1941 H   0  0  0  0  0  0  0  0  0  0  0  0
   -0.6965    1.9127   -0.6001 C   0  0  0  0  0  0  0  0  0  0  0  0
   -1.7629    1.6807   -0.6422 H   0  0  0  0  0  0  0  0  0  0  0  0
   -0.4262    2.0646    0.4461 H   0  0  0  0  0  0  0  0  0  0  0  0
   -0.4448    3.2441   -1.3052 C   0  0  0  0  0  0  0  0  0  0  0  0
   -0.2152    3.2481   -2.5016 O   0  0  0  0  0  0  0  0  0  0  0  0
   -0.5186    4.3686   -0.5627 O   0  0  0  0  0  0  0  0  0  0  0  0
   -0.3255    5.0911   -1.1801 H   0  0  0  0  0  0  0  0  0  0  0  0
    0.7609   -0.2972    1.0901 C   0  0  0  0  0  0  0  0  0  0  0  0
    1.9716   -0.2297    1.2532 O   0  0  0  0  0  0  0  0  0  0  0  0
   -0.0696    0.1404    2.1068 N   0  0  0  0  0  0  0  0  0  0  0  0
   -1.0592   -0.0423    1.9759 H   0  0  0  0  0  0  0  0  0  0  0  0
    0.4159    0.4144    3.4538 C   0  0  0  0  0  0  0  0  0  0  0  0
    1.1719    1.2067    3.4355 H   0  0  0  0  0  0  0  0  0  0  0  0
   -0.4087    0.7415    4.0943 H   0  0  0  0  0  0  0  0  0  0  0  0
    0.8600   -0.4863    3.8908 H   0  0  0  0  0  0  0  0  0  0  0  0
  1  2  1  0  0  0  0
  2  3  1  0  0  0  0
  2  4  1  0  0  0  0
  2  5  1  0  0  0  0
  5  6  2  0  0  0  0
  5  7  1  0  0  0  0
  7  8  1  0  0  0  0
  7  9  1  0  0  0  0
  9 10  1  0  0  0  0
  9 11  1  0  0  0  0
  9 21  1  0  0  0  0
 11 12  1  0  0  0  0
 11 13  1  0  0  0  0
 11 14  1  0  0  0  0
 14 15  1  0  0  0  0
 14 16  1  0  0  0  0
 14 17  1  0  0  0  0
 17 18  2  0  0  0  0
 17 19  1  0  0  0  0
 19 20  1  0  0  0  0
 21 22  2  0  0  0  0
 21 23  1  0  0  0  0
 23 24  1  0  0  0  0
 23 25  1  0  0  0  0
 25 26  1  0  0  0  0
 25 27  1  0  0  0  0
 25 28  1  0  0  0  0
M  END
$$$$

  -OEChem-03222214033D

 28 27  0     1  0  0  0  0  0999 V2000
   -2.6172   -4.2090    0.1976 H   0  0  0  0  0  0  0  0  0  0  0  0
   -2.6109   -3.2117   -0.2517 C   0  0  0  0  0  0  0  0  0  0  0  0
   -3.4454   -2.6367    0.1567 H   0  0  0  0  0  0  0  0  0  0  0  0
   -2.7398   -3.3133   -1.3320 H   0  0  0  0  0  0  0  0  0  0  0  0
   -1.2996   -2.5118    0.0510 C   0  0  0  0  0  0  0  0  0  0  0  0
   -0.4545   -3.0685    0.7276 O   0  0  0  0  0  0  0  0  0  0  0  0
   -1.0775   -1.2351   -0.4264 N   0  0  0  0  0  0  0  0  0  0  0  0
   -1.7783   -0.8649   -1.0618 H   0  0  0  0  0  0  0  0  0  0  0  0
    0.2216   -0.5398   -0.3480 C   0  0  1  0  0  0  0  0  0  0  0  0
    0.9495   -1.1996   -0.8348 H   0  0  0  0  0  0  0  0  0  0  0  0
    0.1545    0.7425   -1.2073 C   0  0  0  0  0  0  0  0  0  0  0  0
    1.1648    0.9474   -1.5795 H   0  0  0  0  0  0  0  0  0  0  0  0
   -0.4773    0.5624   -2.0837 H   0  0  0  0  0  0  0  0  0  0  0  0
   -0.3314    2.0029   -0.4558 C   0  0  0  0  0  0  0  0  0  0  0  0
   -1.3268    1.8267   -0.0416 H   0  0  0  0  0  0  0  0  0  0  0  0
    0.3472    2.2239    0.3728 H   0  0  0  0  0  0  0  0  0  0  0  0
   -0.3902    3.2564   -1.3283 C   0  0  0  0  0  0  0  0  0  0  0  0
   -0.3509    3.1540   -2.5421 O   0  0  0  0  0  0  0  0  0  0  0  0
   -0.5136    4.4401   -0.6919 O   0  0  0  0  0  0  0  0  0  0  0  0
   -0.5274    5.1057   -1.3969 H   0  0  0  0  0  0  0  0  0  0  0  0
    0.7801   -0.3241    1.0792 C   0  0  0  0  0  0  0  0  0  0  0  0
    1.9909   -0.2598    1.2427 O   0  0  0  0  0  0  0  0  0  0  0  0
   -0.0505    0.1256    2.0907 N   0  0  0  0  0  0  0  0  0  0  0  0
   -1.0409   -0.0513    1.9584 H   0  0  0  0  0  0  0  0  0  0  0  0
    0.4333    0.4140    3.4353 C   0  0  0  0  0  0  0  0  0  0  0  0
    1.2029    1.1927    3.4074 H   0  0  0  0  0  0  0  0  0  0  0  0
   -0.3881    0.7664    4.0661 H   0  0  0  0  0  0  0  0  0  0  0  0
    0.8601   -0.4862    3.8898 H   0  0  0  0  0  0  0  0  0  0  0  0
  1  2  1  0  0  0  0
  2  3  1  0  0  0  0
  2  4  1  0  0  0  0
  2  5  1  0  0  0  0
  5  6  2  0  0  0  0
  5  7  1  0  0  0  0
  7  8  1  0  0  0  0
  7  9  1  0  0  0  0
  9 10  1  0  0  0  0
  9 11  1  0  0  0  0
  9 21  1  0  0  0  0
 11 12  1  0  0  0  0
 11 13  1  0  0  0  0
 11 14  1  0  0  0  0
 14 15  1  0  0  0  0
 14 16  1  0  0  0  0
 14 17  1  0  0  0  0
 17 18  2  0  0  0  0
 17 19  1  0  0  0  0
 19 20  1  0  0  0  0
 21 22  2  0  0  0  0
 21 23  1  0  0  0  0
 23 24  1  0  0  0  0
 23 25  1  0  0  0  0
 25 26  1  0  0  0  0
 25 27  1  0  0  0  0
 25 28  1  0  0  0  0
M  END
$$$$

  -OEChem-03222214033D

 28 27  0     1  0  0  0  0  0999 V2000
   -2.6380   -4.2045    0.1903 H   0  0  0  0  0  0  0  0  0  0  0  0
   -2.6310   -3.2037   -0.2513 C   0  0  0  0  0  0  0  0  0  0  0  0
   -3.4656   -2.6316    0.1608 H   0  0  0  0  0  0  0  0  0  0  0  0
   -2.7597   -3.2968   -1.3324 H   0  0  0  0  0  0  0  0  0  0  0  0
   -1.3195   -2.5068    0.0578 C   0  0  0  0  0  0  0  0  0  0  0  0
   -0.4808   -3.0637    0.7421 O   0  0  0  0  0  0  0  0  0  0  0  0
   -1.0899   -1.2326   -0.4225 N   0  0  0  0  0  0  0  0  0  0  0  0
   -1.7859   -0.8626   -1.0635 H   0  0  0  0  0  0  0  0  0  0  0  0
    0.2138   -0.5460   -0.3471 C   0  0  1  0  0  0  0  0  0  0  0  0
    0.9343   -1.2146   -0.8327 H   0  0  0  0  0  0  0  0  0  0  0  0
    0.1641    0.7337   -1.2097 C   0  0  0  0  0  0  0  0  0  0  0  0
    1.1702    0.9335   -1.5958 H   0  0  0  0  0  0  0  0  0  0  0  0
   -0.4793    0.5476   -2.0765 H   0  0  0  0  0  0  0  0  0  0  0  0
   -0.3120    1.9938   -0.4510 C   0  0  0  0  0  0  0  0  0  0  0  0
   -1.1899    1.7459    0.1498 H   0  0  0  0  0  0  0  0  0  0  0  0
    0.4759    2.3338    0.2276 H   0  0  0  0  0  0  0  0  0  0  0  0
   -0.7061    3.1643   -1.3524 C   0  0  0  0  0  0  0  0  0  0  0  0
   -0.6625    3.0469   -2.5646 O   0  0  0  0  0  0  0  0  0  0  0  0
   -1.1124    4.2942   -0.7367 O   0  0  0  0  0  0  0  0  0  0  0  0
   -1.3060    4.9168   -1.4545 H   0  0  0  0  0  0  0  0  0  0  0  0
    0.7842   -0.3265    1.0754 C   0  0  0  0  0  0  0  0  0  0  0  0
    1.9970   -0.2689    1.2273 O   0  0  0  0  0  0  0  0  0  0  0  0
   -0.0322    0.1334    2.0939 N   0  0  0  0  0  0  0  0  0  0  0  0
   -1.0247   -0.0412    1.9745 H   0  0  0  0  0  0  0  0  0  0  0  0
    0.4686    0.4153    3.4337 C   0  0  0  0  0  0  0  0  0  0  0  0
    1.2423    1.1898    3.3989 H   0  0  0  0  0  0  0  0  0  0  0  0
   -0.3435    0.7702    4.0753 H   0  0  0  0  0  0  0  0  0  0  0  0
    0.8962   -0.4887    3.8804 H   0  0  0  0  0  0  0  0  0  0  0  0
  1  2  1  0  0  0  0
  2  3  1  0  0  0  0
  2  4  1  0  0  0  0
  2  5  1  0  0  0  0
  5  6  2  0  0  0  0
  5  7  1  0  0  0  0
  7  8  1  0  0  0  0
  7  9  1  0  0  0  0
  9 10  1  0  0  0  0
  9 11  1  0  0  0  0
  9 21  1  0  0  0  0
 11 12  1  0  0  0  0
 11 13  1  0  0  0  0
 11 14  1  0  0  0  0
 14 15  1  0  0  0  0
 14 16  1  0  0  0  0
 14 17  1  0  0  0  0
 17 18  2  0  0  0  0
 17 19  1  0  0  0  0
 19 20  1  0  0  0  0
 21 22  2  0  0  0  0
 21 23  1  0  0  0  0
 23 24  1  0  0  0  0
 23 25  1  0  0  0  0
 25 26  1  0  0  0  0
 25 27  1  0  0  0  0
 25 28  1  0  0  0  0
M  END
$$$$

  -OEChem-03222214033D

 28 27  0     1  0  0  0  0  0999 V2000
   -2.6368   -4.2099    0.1760 H   0  0  0  0  0  0  0  0  0  0  0  0
   -2.6395   -3.2002   -0.2448 C   0  0  0  0  0  0  0  0  0  0  0  0
   -3.4705   -2.6403    0.1906 H   0  0  0  0  0  0  0  0  0  0  0  0
   -2.7825   -3.2718   -1.3258 H   0  0  0  0  0  0  0  0  0  0  0  0
   -1.3262   -2.5048    0.0606 C   0  0  0  0  0  0  0  0  0  0  0  0
   -0.4823   -3.0662    0.7348 O   0  0  0  0  0  0  0  0  0  0  0  0
   -1.1005   -1.2262   -0.4093 N   0  0  0  0  0  0  0  0  0  0  0  0
   -1.8039   -0.8460   -1.0363 H   0  0  0  0  0  0  0  0  0  0  0  0
    0.2023   -0.5383   -0.3342 C   0  0  1  0  0  0  0  0  0  0  0  0
    0.9181   -1.2115   -0.8208 H   0  0  0  0  0  0  0  0  0  0  0  0
    0.1644    0.7346   -1.2075 C   0  0  0  0  0  0  0  0  0  0  0  0
    1.1713    0.9290   -1.5934 H   0  0  0  0  0  0  0  0  0  0  0  0
   -0.4715    0.5293   -2.0749 H   0  0  0  0  0  0  0  0  0  0  0  0
   -0.3137    2.0078   -0.4670 C   0  0  0  0  0  0  0  0  0  0  0  0
   -1.0340    1.7288    0.3043 H   0  0  0  0  0  0  0  0  0  0  0  0
    0.5369    2.4858    0.0275 H   0  0  0  0  0  0  0  0  0  0  0  0
   -1.0276    3.0395   -1.3428 C   0  0  0  0  0  0  0  0  0  0  0  0
   -1.0970    2.8828   -2.5492 O   0  0  0  0  0  0  0  0  0  0  0  0
   -1.5706    4.0989   -0.7074 O   0  0  0  0  0  0  0  0  0  0  0  0
   -1.9564    4.6444   -1.4102 H   0  0  0  0  0  0  0  0  0  0  0  0
    0.7868   -0.3264    1.0843 C   0  0  0  0  0  0  0  0  0  0  0  0
    2.0013   -0.2704    1.2228 O   0  0  0  0  0  0  0  0  0  0  0  0
   -0.0163    0.1249    2.1172 N   0  0  0  0  0  0  0  0  0  0  0  0
   -1.0095   -0.0535    2.0094 H   0  0  0  0  0  0  0  0  0  0  0  0
    0.5002    0.3837    3.4560 C   0  0  0  0  0  0  0  0  0  0  0  0
    1.2772    1.1548    3.4258 H   0  0  0  0  0  0  0  0  0  0  0  0
   -0.3034    0.7326    4.1114 H   0  0  0  0  0  0  0  0  0  0  0  0
    0.9269   -0.5297    3.8840 H   0  0  0  0  0  0  0  0  0  0  0  0
  1  2  1  0  0  0  0
  2  3  1  0  0  0  0
  2  4  1  0  0  0  0
  2  5  1  0  0  0  0
  5  6  2  0  0  0  0
  5  7  1  0  0  0  0
  7  8  1  0  0  0  0
  7  9  1  0  0  0  0
  9 10  1  0  0  0  0
  9 11  1  0  0  0  0
  9 21  1  0  0  0  0
 11 12  1  0  0  0  0
 11 13  1  0  0  0  0
 11 14  1  0  0  0  0
 14 15  1  0  0  0  0
 14 16  1  0  0  0  0
 14 17  1  0  0  0  0
 17 18  2  0  0  0  0
 17 19  1  0  0  0  0
 19 20  1  0  0  0  0
 21 22  2  0  0  0  0
 21 23  1  0  0  0  0
 23 24  1  0  0  0  0
 23 25  1  0  0  0  0
 25 26  1  0  0  0  0
 25 27  1  0  0  0  0
 25 28  1  0  0  0  0
M  END
$$$$

  -OEChem-03222214033D

 28 27  0     1  0  0  0  0  0999 V2000
   -2.5725   -4.2073    0.1453 H   0  0  0  0  0  0  0  0  0  0  0  0
   -2.5854   -3.1986   -0.2772 C   0  0  0  0  0  0  0  0  0  0  0  0
   -3.3949   -2.6323    0.1894 H   0  0  0  0  0  0  0  0  0  0  0  0
   -2.7710   -3.2699   -1.3516 H   0  0  0  0  0  0  0  0  0  0  0  0
   -1.2567   -2.5112   -0.0264 C   0  0  0  0  0  0  0  0  0  0  0  0
   -0.3545   -3.1116    0.5290 O   0  0  0  0  0  0  0  0  0  0  0  0
   -1.0782   -1.1978   -0.4104 N   0  0  0  0  0  0  0  0  0  0  0  0
   -1.8545   -0.7471   -0.8903 H   0  0  0  0  0  0  0  0  0  0  0  0
    0.1961   -0.4649   -0.3054 C   0  0  1  0  0  0  0  0  0  0  0  0
    0.9296   -1.0851   -0.8340 H   0  0  0  0  0  0  0  0  0  0  0  0
    0.0930    0.8368   -1.1264 C   0  0  0  0  0  0  0  0  0  0  0  0
    1.0950    1.0875   -1.4918 H   0  0  0  0  0  0  0  0  0  0  0  0
   -0.5200    0.6452   -2.0142 H   0  0  0  0  0  0  0  0  0  0  0  0
   -0.4375    2.0645   -0.3516 C   0  0  0  0  0  0  0  0  0  0  0  0
   -0.9286    1.7673    0.5751 H   0  0  0  0  0  0  0  0  0  0  0  0
    0.3923    2.7271   -0.0894 H   0  0  0  0  0  0  0  0  0  0  0  0
   -1.4772    2.8308   -1.1591 C   0  0  0  0  0  0  0  0  0  0  0  0
   -2.5190    2.2601   -1.4355 O   0  0  0  0  0  0  0  0  0  0  0  0
   -1.1971    4.0958   -1.5370 O   0  0  0  0  0  0  0  0  0  0  0  0
   -1.9750    4.3946   -2.0323 H   0  0  0  0  0  0  0  0  0  0  0  0
    0.7950   -0.3203    1.1151 C   0  0  0  0  0  0  0  0  0  0  0  0
    2.0088   -0.2265    1.2391 O   0  0  0  0  0  0  0  0  0  0  0  0
   -0.0044    0.0306    2.1890 N   0  0  0  0  0  0  0  0  0  0  0  0
   -0.9955   -0.1612    2.0815 H   0  0  0  0  0  0  0  0  0  0  0  0
    0.5249    0.2230    3.5341 C   0  0  0  0  0  0  0  0  0  0  0  0
    1.2532    1.0408    3.5468 H   0  0  0  0  0  0  0  0  0  0  0  0
   -0.2840    0.4727    4.2272 H   0  0  0  0  0  0  0  0  0  0  0  0
    1.0153   -0.6906    3.8867 H   0  0  0  0  0  0  0  0  0  0  0  0
  1  2  1  0  0  0  0
  2  3  1  0  0  0  0
  2  4  1  0  0  0  0
  2  5  1  0  0  0  0
  5  6  2  0  0  0  0
  5  7  1  0  0  0  0
  7  8  1  0  0  0  0
  7  9  1  0  0  0  0
  9 10  1  0  0  0  0
  9 11  1  0  0  0  0
  9 21  1  0  0  0  0
 11 12  1  0  0  0  0
 11 13  1  0  0  0  0
 11 14  1  0  0  0  0
 14 15  1  0  0  0  0
 14 16  1  0  0  0  0
 14 17  1  0  0  0  0
 17 18  2  0  0  0  0
 17 19  1  0  0  0  0
 19 20  1  0  0  0  0
 21 22  2  0  0  0  0
 21 23  1  0  0  0  0
 23 24  1  0  0  0  0
 23 25  1  0  0  0  0
 25 26  1  0  0  0  0
 25 27  1  0  0  0  0
 25 28  1  0  0  0  0
M  END
$$$$

  -OEChem-03222214033D

 28 27  0     1  0  0  0  0  0999 V2000
   -2.6175   -4.1564    0.1607 H   0  0  0  0  0  0  0  0  0  0  0  0
   -2.6220   -3.1358   -0.2326 C   0  0  0  0  0  0  0  0  0  0  0  0
   -3.3817   -2.5573    0.2986 H   0  0  0  0  0  0  0  0  0  0  0  0
   -2.8753   -3.1686   -1.2951 H   0  0  0  0  0  0  0  0  0  0  0  0
   -1.2582   -2.4990   -0.0461 C   0  0  0  0  0  0  0  0  0  0  0  0
   -0.3446   -3.1397    0.4418 O   0  0  0  0  0  0  0  0  0  0  0  0
   -1.0615   -1.1830   -0.4093 N   0  0  0  0  0  0  0  0  0  0  0  0
   -1.8623   -0.6800   -0.7893 H   0  0  0  0  0  0  0  0  0  0  0  0
    0.2194   -0.4648   -0.2996 C   0  0  1  0  0  0  0  0  0  0  0  0
    0.9461   -1.0867   -0.8361 H   0  0  0  0  0  0  0  0  0  0  0  0
    0.1088    0.8337   -1.1240 C   0  0  0  0  0  0  0  0  0  0  0  0
    1.1208    1.0784   -1.4652 H   0  0  0  0  0  0  0  0  0  0  0  0
   -0.4781    0.6448   -2.0298 H   0  0  0  0  0  0  0  0  0  0  0  0
   -0.4200    2.0744   -0.3658 C   0  0  0  0  0  0  0  0  0  0  0  0
   -0.6341    1.8690    0.6812 H   0  0  0  0  0  0  0  0  0  0  0  0
    0.3376    2.8632   -0.3920 H   0  0  0  0  0  0  0  0  0  0  0  0
   -1.6998    2.6014   -1.0027 C   0  0  0  0  0  0  0  0  0  0  0  0
   -2.6396    1.8296   -1.1129 O   0  0  0  0  0  0  0  0  0  0  0  0
   -1.7363    3.8853   -1.4172 O   0  0  0  0  0  0  0  0  0  0  0  0
   -2.6230    4.0127   -1.7879 H   0  0  0  0  0  0  0  0  0  0  0  0
    0.8231   -0.3488    1.1209 C   0  0  0  0  0  0  0  0  0  0  0  0
    2.0380   -0.2713    1.2446 O   0  0  0  0  0  0  0  0  0  0  0  0
    0.0292   -0.0071    2.2019 N   0  0  0  0  0  0  0  0  0  0  0  0
   -0.9665   -0.1709    2.0897 H   0  0  0  0  0  0  0  0  0  0  0  0
    0.5618    0.1622    3.5485 C   0  0  0  0  0  0  0  0  0  0  0  0
    1.3014    0.9696    3.5700 H   0  0  0  0  0  0  0  0  0  0  0  0
   -0.2432    0.4149    4.2451 H   0  0  0  0  0  0  0  0  0  0  0  0
    1.0395   -0.7624    3.8898 H   0  0  0  0  0  0  0  0  0  0  0  0
  1  2  1  0  0  0  0
  2  3  1  0  0  0  0
  2  4  1  0  0  0  0
  2  5  1  0  0  0  0
  5  6  2  0  0  0  0
  5  7  1  0  0  0  0
  7  8  1  0  0  0  0
  7  9  1  0  0  0  0
  9 10  1  0  0  0  0
  9 11  1  0  0  0  0
  9 21  1  0  0  0  0
 11 12  1  0  0  0  0
 11 13  1  0  0  0  0
 11 14  1  0  0  0  0
 14 15  1  0  0  0  0
 14 16  1  0  0  0  0
 14 17  1  0  0  0  0
 17 18  2  0  0  0  0
 17 19  1  0  0  0  0
 19 20  1  0  0  0  0
 21 22  2  0  0  0  0
 21 23  1  0  0  0  0
 23 24  1  0  0  0  0
 23 25  1  0  0  0  0
 25 26  1  0  0  0  0
 25 27  1  0  0  0  0
 25 28  1  0  0  0  0
M  END
$$$$

  -OEChem-03222214033D

 28 27  0     1  0  0  0  0  0999 V2000
   -2.6490   -4.1100    0.2346 H   0  0  0  0  0  0  0  0  0  0  0  0
   -2.6411   -3.0928   -0.1669 C   0  0  0  0  0  0  0  0  0  0  0  0
   -3.3553   -2.4867    0.3956 H   0  0  0  0  0  0  0  0  0  0  0  0
   -2.9474   -3.1255   -1.2151 H   0  0  0  0  0  0  0  0  0  0  0  0
   -1.2507   -2.4974   -0.0546 C   0  0  0  0  0  0  0  0  0  0  0  0
   -0.3307   -3.1670    0.3805 O   0  0  0  0  0  0  0  0  0  0  0  0
   -1.0355   -1.1871   -0.4270 N   0  0  0  0  0  0  0  0  0  0  0  0
   -1.8527   -0.6414   -0.7052 H   0  0  0  0  0  0  0  0  0  0  0  0
    0.2537   -0.4845   -0.3221 C   0  0  1  0  0  0  0  0  0  0  0  0
    0.9776   -1.1108   -0.8569 H   0  0  0  0  0  0  0  0  0  0  0  0
    0.1384    0.8153   -1.1466 C   0  0  0  0  0  0  0  0  0  0  0  0
    1.1547    1.0528   -1.4801 H   0  0  0  0  0  0  0  0  0  0  0  0
   -0.4468    0.6393   -2.0564 H   0  0  0  0  0  0  0  0  0  0  0  0
   -0.3768    2.0603   -0.3875 C   0  0  0  0  0  0  0  0  0  0  0  0
   -0.2856    1.9804    0.6939 H   0  0  0  0  0  0  0  0  0  0  0  0
    0.2290    2.9202   -0.6875 H   0  0  0  0  0  0  0  0  0  0  0  0
   -1.8239    2.3706   -0.7557 C   0  0  0  0  0  0  0  0  0  0  0  0
   -2.6291    1.4509   -0.7451 O   0  0  0  0  0  0  0  0  0  0  0  0
   -2.1498    3.6425   -1.0685 O   0  0  0  0  0  0  0  0  0  0  0  0
   -3.0994    3.6280   -1.2629 H   0  0  0  0  0  0  0  0  0  0  0  0
    0.8417   -0.3751    1.1046 C   0  0  0  0  0  0  0  0  0  0  0  0
    2.0553   -0.3144    1.2480 O   0  0  0  0  0  0  0  0  0  0  0  0
    0.0335   -0.0199    2.1708 N   0  0  0  0  0  0  0  0  0  0  0  0
   -0.9642   -0.1532    2.0362 H   0  0  0  0  0  0  0  0  0  0  0  0
    0.5419    0.1470    3.5268 C   0  0  0  0  0  0  0  0  0  0  0  0
    1.2950    0.9415    3.5595 H   0  0  0  0  0  0  0  0  0  0  0  0
   -0.2723    0.4171    4.2061 H   0  0  0  0  0  0  0  0  0  0  0  0
    0.9970   -0.7839    3.8816 H   0  0  0  0  0  0  0  0  0  0  0  0
  1  2  1  0  0  0  0
  2  3  1  0  0  0  0
  2  4  1  0  0  0  0
  2  5  1  0  0  0  0
  5  6  2  0  0  0  0
  5  7  1  0  0  0  0
  7  8  1  0  0  0  0
  7  9  1  0  0  0  0
  9 10  1  0  0  0  0
  9 11  1  0  0  0  0
  9 21  1  0  0  0  0
 11 12  1  0  0  0  0
 11 13  1  0  0  0  0
 11 14  1  0  0  0  0
 14 15  1  0  0  0  0
 14 16  1  0  0  0  0
 14 17  1  0  0  0  0
 17 18  2  0  0  0  0
 17 19  1  0  0  0  0
 19 20  1  0  0  0  0
 21 22  2  0  0  0  0
 21 23  1  0  0  0  0
 23 24  1  0  0  0  0
 23 25  1  0  0  0  0
 25 26  1  0  0  0  0
 25 27  1  0  0  0  0
 25 28  1  0  0  0  0
M  END
$$$$

  -OEChem-03222214033D

 28 27  0     1  0  0  0  0  0999 V2000
   -2.6119   -4.1146    0.3543 H   0  0  0  0  0  0  0  0  0  0  0  0
   -2.6190   -3.1044   -0.0647 C   0  0  0  0  0  0  0  0  0  0  0  0
   -3.2778   -2.4771    0.5406 H   0  0  0  0  0  0  0  0  0  0  0  0
   -3.0061   -3.1487   -1.0854 H   0  0  0  0  0  0  0  0  0  0  0  0
   -1.2146   -2.5314   -0.0692 C   0  0  0  0  0  0  0  0  0  0  0  0
   -0.2752   -3.2122    0.3029 O   0  0  0  0  0  0  0  0  0  0  0  0
   -1.0090   -1.2274   -0.4679 N   0  0  0  0  0  0  0  0  0  0  0  0
   -1.8433   -0.6621   -0.6379 H   0  0  0  0  0  0  0  0  0  0  0  0
    0.2773   -0.5191   -0.3704 C   0  0  1  0  0  0  0  0  0  0  0  0
    1.0091   -1.1423   -0.8979 H   0  0  0  0  0  0  0  0  0  0  0  0
    0.1717    0.7957   -1.1782 C   0  0  0  0  0  0  0  0  0  0  0  0
    1.1875    1.0257   -1.5181 H   0  0  0  0  0  0  0  0  0  0  0  0
   -0.4307    0.6381   -2.0795 H   0  0  0  0  0  0  0  0  0  0  0  0
   -0.3282    2.0422   -0.4093 C   0  0  0  0  0  0  0  0  0  0  0  0
    0.0202    2.0698    0.6236 H   0  0  0  0  0  0  0  0  0  0  0  0
    0.0968    2.9236   -0.8979 H   0  0  0  0  0  0  0  0  0  0  0  0
   -1.8470    2.2039   -0.4512 C   0  0  0  0  0  0  0  0  0  0  0  0
   -2.5528    1.2105   -0.3606 O   0  0  0  0  0  0  0  0  0  0  0  0
   -2.3409    3.4535   -0.5779 O   0  0  0  0  0  0  0  0  0  0  0  0
   -3.3054    3.3552   -0.5806 H   0  0  0  0  0  0  0  0  0  0  0  0
    0.8351   -0.3943    1.0656 C   0  0  0  0  0  0  0  0  0  0  0  0
    2.0446   -0.3384    1.2418 O   0  0  0  0  0  0  0  0  0  0  0  0
   -0.0037   -0.0269    2.1034 N   0  0  0  0  0  0  0  0  0  0  0  0
   -1.0001   -0.1229    1.9304 H   0  0  0  0  0  0  0  0  0  0  0  0
    0.4610    0.1537    3.4726 C   0  0  0  0  0  0  0  0  0  0  0  0
    1.2043    0.9563    3.5224 H   0  0  0  0  0  0  0  0  0  0  0  0
   -0.3771    0.4185    4.1242 H   0  0  0  0  0  0  0  0  0  0  0  0
    0.9146   -0.7702    3.8472 H   0  0  0  0  0  0  0  0  0  0  0  0
  1  2  1  0  0  0  0
  2  3  1  0  0  0  0
  2  4  1  0  0  0  0
  2  5  1  0  0  0  0
  5  6  2  0  0  0  0
  5  7  1  0  0  0  0
  7  8  1  0  0  0  0
  7  9  1  0  0  0  0
  9 10  1  0  0  0  0
  9 11  1  0  0  0  0
  9 21  1  0  0  0  0
 11 12  1  0  0  0  0
 11 13  1  0  0  0  0
 11 14  1  0  0  0  0
 14 15  1  0  0  0  0
 14 16  1  0  0  0  0
 14 17  1  0  0  0  0
 17 18  2  0  0  0  0
 17 19  1  0  0  0  0
 19 20  1  0  0  0  0
 21 22  2  0  0  0  0
 21 23  1  0  0  0  0
 23 24  1  0  0  0  0
 23 25  1  0  0  0  0
 25 26  1  0  0  0  0
 25 27  1  0  0  0  0
 25 28  1  0  0  0  0
M  END
$$$$

  -OEChem-03222214033D

 28 27  0     1  0  0  0  0  0999 V2000
   -2.5959   -4.1553    0.3834 H   0  0  0  0  0  0  0  0  0  0  0  0
   -2.6008   -3.1517   -0.0512 C   0  0  0  0  0  0  0  0  0  0  0  0
   -3.2654   -2.5156    0.5383 H   0  0  0  0  0  0  0  0  0  0  0  0
   -2.9789   -3.2120   -1.0746 H   0  0  0  0  0  0  0  0  0  0  0  0
   -1.1973   -2.5768   -0.0525 C   0  0  0  0  0  0  0  0  0  0  0  0
   -0.2617   -3.2437    0.3529 O   0  0  0  0  0  0  0  0  0  0  0  0
   -0.9895   -1.2851   -0.4875 N   0  0  0  0  0  0  0  0  0  0  0  0
   -1.8240   -0.7273   -0.6805 H   0  0  0  0  0  0  0  0  0  0  0  0
    0.2918   -0.5684   -0.3941 C   0  0  1  0  0  0  0  0  0  0  0  0
    1.0337   -1.1966   -0.9009 H   0  0  0  0  0  0  0  0  0  0  0  0
    0.2009    0.7468   -1.2065 C   0  0  0  0  0  0  0  0  0  0  0  0
    1.2151    0.9680   -1.5566 H   0  0  0  0  0  0  0  0  0  0  0  0
   -0.4131    0.5864   -2.0994 H   0  0  0  0  0  0  0  0  0  0  0  0
   -0.2952    2.0061   -0.4509 C   0  0  0  0  0  0  0  0  0  0  0  0
    0.2556    2.1406    0.4829 H   0  0  0  0  0  0  0  0  0  0  0  0
   -0.0648    2.8752   -1.0729 H   0  0  0  0  0  0  0  0  0  0  0  0
   -1.7963    2.0679   -0.1567 C   0  0  0  0  0  0  0  0  0  0  0  0
   -2.4995    1.0820   -0.3141 O   0  0  0  0  0  0  0  0  0  0  0  0
   -2.2763    3.2497    0.2838 O   0  0  0  0  0  0  0  0  0  0  0  0
   -3.2278    3.1155    0.4115 H   0  0  0  0  0  0  0  0  0  0  0  0
    0.8226   -0.4003    1.0475 C   0  0  0  0  0  0  0  0  0  0  0  0
    2.0276   -0.3221    1.2447 O   0  0  0  0  0  0  0  0  0  0  0  0
   -0.0417   -0.0062    2.0543 N   0  0  0  0  0  0  0  0  0  0  0  0
   -1.0324   -0.1295    1.8663 H   0  0  0  0  0  0  0  0  0  0  0  0
    0.3925    0.2381    3.4238 C   0  0  0  0  0  0  0  0  0  0  0  0
    1.1309    1.0463    3.4538 H   0  0  0  0  0  0  0  0  0  0  0  0
   -0.4601    0.5278    4.0452 H   0  0  0  0  0  0  0  0  0  0  0  0
    0.8418   -0.6655    3.8491 H   0  0  0  0  0  0  0  0  0  0  0  0
  1  2  1  0  0  0  0
  2  3  1  0  0  0  0
  2  4  1  0  0  0  0
  2  5  1  0  0  0  0
  5  6  2  0  0  0  0
  5  7  1  0  0  0  0
  7  8  1  0  0  0  0
  7  9  1  0  0  0  0
  9 10  1  0  0  0  0
  9 11  1  0  0  0  0
  9 21  1  0  0  0  0
 11 12  1  0  0  0  0
 11 13  1  0  0  0  0
 11 14  1  0  0  0  0
 14 15  1  0  0  0  0
 14 16  1  0  0  0  0
 14 17  1  0  0  0  0
 17 18  2  0  0  0  0
 17 19  1  0  0  0  0
 19 20  1  0  0  0  0
 21 22  2  0  0  0  0
 21 23  1  0  0  0  0
 23 24  1  0  0  0  0
 23 25  1  0  0  0  0
 25 26  1  0  0  0  0
 25 27  1  0  0  0  0
 25 28  1  0  0  0  0
M  END
$$$$

  -OEChem-03222214033D

 28 27  0     1  0  0  0  0  0999 V2000
   -2.5982   -4.1787    0.3700 H   0  0  0  0  0  0  0  0  0  0  0  0
   -2.6009   -3.1796   -0.0748 C   0  0  0  0  0  0  0  0  0  0  0  0
   -3.2887   -2.5444    0.4883 H   0  0  0  0  0  0  0  0  0  0  0  0
   -2.9490   -3.2549   -1.1077 H   0  0  0  0  0  0  0  0  0  0  0  0
   -1.2038   -2.5899   -0.0430 C   0  0  0  0  0  0  0  0  0  0  0  0
   -0.2724   -3.2448    0.3905 O   0  0  0  0  0  0  0  0  0  0  0  0
   -0.9954   -1.3008   -0.4858 N   0  0  0  0  0  0  0  0  0  0  0  0
   -1.8283   -0.7486   -0.6997 H   0  0  0  0  0  0  0  0  0  0  0  0
    0.2836   -0.5805   -0.3835 C   0  0  1  0  0  0  0  0  0  0  0  0
    1.0279   -1.2182   -0.8745 H   0  0  0  0  0  0  0  0  0  0  0  0
    0.2205    0.7243   -1.2140 C   0  0  0  0  0  0  0  0  0  0  0  0
    1.2365    0.9350   -1.5650 H   0  0  0  0  0  0  0  0  0  0  0  0
   -0.3937    0.5517   -2.1044 H   0  0  0  0  0  0  0  0  0  0  0  0
   -0.2822    1.9975   -0.4886 C   0  0  0  0  0  0  0  0  0  0  0  0
    0.4057    2.2394    0.3269 H   0  0  0  0  0  0  0  0  0  0  0  0
   -0.2472    2.8332   -1.1922 H   0  0  0  0  0  0  0  0  0  0  0  0
   -1.6989    1.9468    0.0880 C   0  0  0  0  0  0  0  0  0  0  0  0
   -2.4809    1.0808   -0.2721 O   0  0  0  0  0  0  0  0  0  0  0  0
   -2.0210    2.9004    0.9868 O   0  0  0  0  0  0  0  0  0  0  0  0
   -2.9478    2.7411    1.2208 H   0  0  0  0  0  0  0  0  0  0  0  0
    0.8132   -0.3916    1.0562 C   0  0  0  0  0  0  0  0  0  0  0  0
    2.0184   -0.3045    1.2480 O   0  0  0  0  0  0  0  0  0  0  0  0
   -0.0477    0.0131    2.0611 N   0  0  0  0  0  0  0  0  0  0  0  0
   -1.0378   -0.1299    1.8865 H   0  0  0  0  0  0  0  0  0  0  0  0
    0.3944    0.2947    3.4210 C   0  0  0  0  0  0  0  0  0  0  0  0
    1.1470    1.0904    3.4235 H   0  0  0  0  0  0  0  0  0  0  0  0
   -0.4512    0.6204    4.0341 H   0  0  0  0  0  0  0  0  0  0  0  0
    0.8293   -0.6021    3.8747 H   0  0  0  0  0  0  0  0  0  0  0  0
  1  2  1  0  0  0  0
  2  3  1  0  0  0  0
  2  4  1  0  0  0  0
  2  5  1  0  0  0  0
  5  6  2  0  0  0  0
  5  7  1  0  0  0  0
  7  8  1  0  0  0  0
  7  9  1  0  0  0  0
  9 10  1  0  0  0  0
  9 11  1  0  0  0  0
  9 21  1  0  0  0  0
 11 12  1  0  0  0  0
 11 13  1  0  0  0  0
 11 14  1  0  0  0  0
 14 15  1  0  0  0  0
 14 16  1  0  0  0  0
 14 17  1  0  0  0  0
 17 18  2  0  0  0  0
 17 19  1  0  0  0  0
 19 20  1  0  0  0  0
 21 22  2  0  0  0  0
 21 23  1  0  0  0  0
 23 24  1  0  0  0  0
 23 25  1  0  0  0  0
 25 26  1  0  0  0  0
 25 27  1  0  0  0  0
 25 28  1  0  0  0  0
M  END
$$$$

  -OEChem-03222214033D

 28 27  0     1  0  0  0  0  0999 V2000
   -2.5451   -4.2243    0.3606 H   0  0  0  0  0  0  0  0  0  0  0  0
   -2.5741   -3.2153   -0.0604 C   0  0  0  0  0  0  0  0  0  0  0  0
   -3.2371   -2.5975    0.5499 H   0  0  0  0  0  0  0  0  0  0  0  0
   -2.9704   -3.2690   -1.0773 H   0  0  0  0  0  0  0  0  0  0  0  0
   -1.1798   -2.6188   -0.0809 C   0  0  0  0  0  0  0  0  0  0  0  0
   -0.2262   -3.2824    0.2861 O   0  0  0  0  0  0  0  0  0  0  0  0
   -0.9987   -1.3154   -0.4937 N   0  0  0  0  0  0  0  0  0  0  0  0
   -1.8459   -0.7575   -0.6129 H   0  0  0  0  0  0  0  0  0  0  0  0
    0.2705   -0.5812   -0.3701 C   0  0  1  0  0  0  0  0  0  0  0  0
    1.0185   -1.2143   -0.8618 H   0  0  0  0  0  0  0  0  0  0  0  0
    0.2292    0.7237   -1.2007 C   0  0  0  0  0  0  0  0  0  0  0  0
    1.2489    0.9263   -1.5456 H   0  0  0  0  0  0  0  0  0  0  0  0
   -0.3759    0.5376   -2.0944 H   0  0  0  0  0  0  0  0  0  0  0  0
   -0.2873    2.0188   -0.5220 C   0  0  0  0  0  0  0  0  0  0  0  0
    0.5027    2.3823    0.1423 H   0  0  0  0  0  0  0  0  0  0  0  0
   -0.4399    2.7822   -1.2891 H   0  0  0  0  0  0  0  0  0  0  0  0
   -1.5632    1.9364    0.3187 C   0  0  0  0  0  0  0  0  0  0  0  0
   -2.3811    1.0540    0.1097 O   0  0  0  0  0  0  0  0  0  0  0  0
   -1.7342    2.8904    1.2582 O   0  0  0  0  0  0  0  0  0  0  0  0
   -2.5948    2.7109    1.6654 H   0  0  0  0  0  0  0  0  0  0  0  0
    0.8088   -0.4135    1.0693 C   0  0  0  0  0  0  0  0  0  0  0  0
    2.0150   -0.3201    1.2527 O   0  0  0  0  0  0  0  0  0  0  0  0
   -0.0426   -0.0419    2.0937 N   0  0  0  0  0  0  0  0  0  0  0  0
   -1.0372   -0.1500    1.9155 H   0  0  0  0  0  0  0  0  0  0  0  0
    0.4109    0.2364    3.4504 C   0  0  0  0  0  0  0  0  0  0  0  0
    1.1215    1.0696    3.4533 H   0  0  0  0  0  0  0  0  0  0  0  0
   -0.4380    0.5057    4.0858 H   0  0  0  0  0  0  0  0  0  0  0  0
    0.8999   -0.6451    3.8785 H   0  0  0  0  0  0  0  0  0  0  0  0
  1  2  1  0  0  0  0
  2  3  1  0  0  0  0
  2  4  1  0  0  0  0
  2  5  1  0  0  0  0
  5  6  2  0  0  0  0
  5  7  1  0  0  0  0
  7  8  1  0  0  0  0
  7  9  1  0  0  0  0
  9 10  1  0  0  0  0
  9 11  1  0  0  0  0
  9 21  1  0  0  0  0
 11 12  1  0  0  0  0
 11 13  1  0  0  0  0
 11 14  1  0  0  0  0
 14 15  1  0  0  0  0
 14 16  1  0  0  0  0
 14 17  1  0  0  0  0
 17 18  2  0  0  0  0
 17 19  1  0  0  0  0
 19 20  1  0  0  0  0
 21 22  2  0  0  0  0
 21 23  1  0  0  0  0
 23 24  1  0  0  0  0
 23 25  1  0  0  0  0
 25 26  1  0  0  0  0
 25 27  1  0  0  0  0
 25 28  1  0  0  0  0
M  END
$$$$

  -OEChem-03222214033D

 28 27  0     1  0  0  0  0  0999 V2000
   -2.2925   -4.1596    0.8473 H   0  0  0  0  0  0  0  0  0  0  0  0
   -2.3860   -3.1465    0.4464 C   0  0  0  0  0  0  0  0  0  0  0  0
   -2.9826   -2.5468    1.1379 H   0  0  0  0  0  0  0  0  0  0  0  0
   -2.8983   -3.1961   -0.5174 H   0  0  0  0  0  0  0  0  0  0  0  0
   -1.0137   -2.5249    0.2711 C   0  0  0  0  0  0  0  0  0  0  0  0
   -0.0160   -3.1388    0.6091 O   0  0  0  0  0  0  0  0  0  0  0  0
   -0.9031   -1.2405   -0.2170 N   0  0  0  0  0  0  0  0  0  0  0  0
   -1.7688   -0.7028   -0.2793 H   0  0  0  0  0  0  0  0  0  0  0  0
    0.3530   -0.4767   -0.2568 C   0  0  1  0  0  0  0  0  0  0  0  0
    1.0476   -1.1680   -0.7486 H   0  0  0  0  0  0  0  0  0  0  0  0
    0.2578    0.6996   -1.2574 C   0  0  0  0  0  0  0  0  0  0  0  0
    1.2551    0.8607   -1.6814 H   0  0  0  0  0  0  0  0  0  0  0  0
   -0.3869    0.3808   -2.0832 H   0  0  0  0  0  0  0  0  0  0  0  0
   -0.2549    2.0698   -0.7519 C   0  0  0  0  0  0  0  0  0  0  0  0
    0.6121    2.6351   -0.3970 H   0  0  0  0  0  0  0  0  0  0  0  0
   -0.6869    2.6291   -1.5856 H   0  0  0  0  0  0  0  0  0  0  0  0
   -1.2611    2.0507    0.3948 C   0  0  0  0  0  0  0  0  0  0  0  0
   -2.2216    1.2994    0.3132 O   0  0  0  0  0  0  0  0  0  0  0  0
   -1.0819    2.9187    1.4138 O   0  0  0  0  0  0  0  0  0  0  0  0
   -1.8265    2.7716    2.0148 H   0  0  0  0  0  0  0  0  0  0  0  0
    1.1065   -0.1763    1.0675 C   0  0  0  0  0  0  0  0  0  0  0  0
    2.2843    0.1381    1.0007 O   0  0  0  0  0  0  0  0  0  0  0  0
    0.5485    0.2615    2.2483 N   0  0  0  0  0  0  0  0  0  0  0  0
    1.2666    0.5934    2.8876 H   0  0  0  0  0  0  0  0  0  0  0  0
   -0.6127   -0.3789    2.8498 C   0  0  0  0  0  0  0  0  0  0  0  0
   -0.8162    0.0669    3.8281 H   0  0  0  0  0  0  0  0  0  0  0  0
   -1.5050   -0.2554    2.2326 H   0  0  0  0  0  0  0  0  0  0  0  0
   -0.4265   -1.4488    2.9919 H   0  0  0  0  0  0  0  0  0  0  0  0
  1  2  1  0  0  0  0
  2  3  1  0  0  0  0
  2  4  1  0  0  0  0
  2  5  1  0  0  0  0
  5  6  2  0  0  0  0
  5  7  1  0  0  0  0
  7  8  1  0  0  0  0
  7  9  1  0  0  0  0
  9 10  1  0  0  0  0
  9 11  1  0  0  0  0
  9 21  1  0  0  0  0
 11 12  1  0  0  0  0
 11 13  1  0  0  0  0
 11 14  1  0  0  0  0
 14 15  1  0  0  0  0
 14 16  1  0  0  0  0
 14 17  1  0  0  0  0
 17 18  2  0  0  0  0
 17 19  1  0  0  0  0
 19 20  1  0  0  0  0
 21 22  2  0  0  0  0
 21 23  1  0  0  0  0
 23 24  1  0  0  0  0
 23 25  1  0  0  0  0
 25 26  1  0  0  0  0
 25 27  1  0  0  0  0
 25 28  1  0  0  0  0
M  END
$$$$

  -OEChem-03222214033D

 28 27  0     1  0  0  0  0  0999 V2000
   -2.6433   -4.2611    0.2469 H   0  0  0  0  0  0  0  0  0  0  0  0
   -2.5897   -3.2486   -0.1631 C   0  0  0  0  0  0  0  0  0  0  0  0
   -3.3027   -2.6144    0.3693 H   0  0  0  0  0  0  0  0  0  0  0  0
   -2.8608   -3.2820   -1.2211 H   0  0  0  0  0  0  0  0  0  0  0  0
   -1.1861   -2.6955   -0.0064 C   0  0  0  0  0  0  0  0  0  0  0  0
   -0.3109   -3.3815    0.4927 O   0  0  0  0  0  0  0  0  0  0  0  0
   -0.9115   -1.4066   -0.4153 N   0  0  0  0  0  0  0  0  0  0  0  0
   -1.7248   -0.8321   -0.6365 H   0  0  0  0  0  0  0  0  0  0  0  0
    0.3243   -0.6890   -0.0662 C   0  0  1  0  0  0  0  0  0  0  0  0
    1.1156   -1.3990   -0.3364 H   0  0  0  0  0  0  0  0  0  0  0  0
    0.5732    0.4886   -1.0415 C   0  0  0  0  0  0  0  0  0  0  0  0
    1.6588    0.6039   -1.1366 H   0  0  0  0  0  0  0  0  0  0  0  0
    0.2080    0.1791   -2.0268 H   0  0  0  0  0  0  0  0  0  0  0  0
   -0.0082    1.8959   -0.7399 C   0  0  0  0  0  0  0  0  0  0  0  0
    0.8206    2.5316   -0.4182 H   0  0  0  0  0  0  0  0  0  0  0  0
   -0.3992    2.3249   -1.6669 H   0  0  0  0  0  0  0  0  0  0  0  0
   -1.1021    1.9952    0.3194 C   0  0  0  0  0  0  0  0  0  0  0  0
   -2.0725    1.2620    0.1907 O   0  0  0  0  0  0  0  0  0  0  0  0
   -0.9418    2.8793    1.3398 O   0  0  0  0  0  0  0  0  0  0  0  0
   -0.0747    3.3013    1.2688 H   0  0  0  0  0  0  0  0  0  0  0  0
    0.6112   -0.4680    1.4397 C   0  0  0  0  0  0  0  0  0  0  0  0
    1.7745   -0.3633    1.8061 O   0  0  0  0  0  0  0  0  0  0  0  0
   -0.3774   -0.0439    2.3077 N   0  0  0  0  0  0  0  0  0  0  0  0
   -1.3145    0.0624    1.9204 H   0  0  0  0  0  0  0  0  0  0  0  0
   -0.1262    0.3993    3.6730 C   0  0  0  0  0  0  0  0  0  0  0  0
    0.5218    1.2817    3.6774 H   0  0  0  0  0  0  0  0  0  0  0  0
   -1.0687    0.6600    4.1640 H   0  0  0  0  0  0  0  0  0  0  0  0
    0.3561   -0.3962    4.2507 H   0  0  0  0  0  0  0  0  0  0  0  0
  1  2  1  0  0  0  0
  2  3  1  0  0  0  0
  2  4  1  0  0  0  0
  2  5  1  0  0  0  0
  5  6  2  0  0  0  0
  5  7  1  0  0  0  0
  7  8  1  0  0  0  0
  7  9  1  0  0  0  0
  9 10  1  0  0  0  0
  9 11  1  0  0  0  0
  9 21  1  0  0  0  0
 11 12  1  0  0  0  0
 11 13  1  0  0  0  0
 11 14  1  0  0  0  0
 14 15  1  0  0  0  0
 14 16  1  0  0  0  0
 14 17  1  0  0  0  0
 17 18  2  0  0  0  0
 17 19  1  0  0  0  0
 19 20  1  0  0  0  0
 21 22  2  0  0  0  0
 21 23  1  0  0  0  0
 23 24  1  0  0  0  0
 23 25  1  0  0  0  0
 25 26  1  0  0  0  0
 25 27  1  0  0  0  0
 25 28  1  0  0  0  0
M  END
$$$$

  -OEChem-03222214033D

 28 27  0     1  0  0  0  0  0999 V2000
   -2.4776   -4.3651    0.2909 H   0  0  0  0  0  0  0  0  0  0  0  0
   -2.5511   -3.3213   -0.0274 C   0  0  0  0  0  0  0  0  0  0  0  0
   -3.2043   -2.7877    0.6671 H   0  0  0  0  0  0  0  0  0  0  0  0
   -2.9884   -3.2885   -1.0281 H   0  0  0  0  0  0  0  0  0  0  0  0
   -1.1757   -2.6818   -0.0412 C   0  0  0  0  0  0  0  0  0  0  0  0
   -0.1944   -3.3414    0.2538 O   0  0  0  0  0  0  0  0  0  0  0  0
   -1.0442   -1.3494   -0.3785 N   0  0  0  0  0  0  0  0  0  0  0  0
   -1.9121   -0.8212   -0.4428 H   0  0  0  0  0  0  0  0  0  0  0  0
    0.1957   -0.5800   -0.1888 C   0  0  1  0  0  0  0  0  0  0  0  0
    0.9563   -1.2357   -0.6307 H   0  0  0  0  0  0  0  0  0  0  0  0
    0.2422    0.6424   -1.1409 C   0  0  0  0  0  0  0  0  0  0  0  0
    1.3019    0.8153   -1.3610 H   0  0  0  0  0  0  0  0  0  0  0  0
   -0.2245    0.3507   -2.0878 H   0  0  0  0  0  0  0  0  0  0  0  0
   -0.3468    2.0134   -0.7151 C   0  0  0  0  0  0  0  0  0  0  0  0
    0.4425    2.7658   -0.7883 H   0  0  0  0  0  0  0  0  0  0  0  0
   -1.1176    2.2964   -1.4382 H   0  0  0  0  0  0  0  0  0  0  0  0
   -0.9770    2.1148    0.6663 C   0  0  0  0  0  0  0  0  0  0  0  0
   -2.0060    1.4782    0.8436 O   0  0  0  0  0  0  0  0  0  0  0  0
   -0.3735    2.8812    1.6130 O   0  0  0  0  0  0  0  0  0  0  0  0
    0.4725    3.2061    1.2755 H   0  0  0  0  0  0  0  0  0  0  0  0
    0.7446   -0.4491    1.2548 C   0  0  0  0  0  0  0  0  0  0  0  0
    1.9518   -0.3123    1.4073 O   0  0  0  0  0  0  0  0  0  0  0  0
   -0.0789   -0.1555    2.3258 N   0  0  0  0  0  0  0  0  0  0  0  0
   -1.0610    0.0154    2.1109 H   0  0  0  0  0  0  0  0  0  0  0  0
    0.4172    0.2144    3.6454 C   0  0  0  0  0  0  0  0  0  0  0  0
    0.9843    1.1495    3.5954 H   0  0  0  0  0  0  0  0  0  0  0  0
   -0.4192    0.3530    4.3370 H   0  0  0  0  0  0  0  0  0  0  0  0
    1.0671   -0.5720    4.0438 H   0  0  0  0  0  0  0  0  0  0  0  0
  1  2  1  0  0  0  0
  2  3  1  0  0  0  0
  2  4  1  0  0  0  0
  2  5  1  0  0  0  0
  5  6  2  0  0  0  0
  5  7  1  0  0  0  0
  7  8  1  0  0  0  0
  7  9  1  0  0  0  0
  9 10  1  0  0  0  0
  9 11  1  0  0  0  0
  9 21  1  0  0  0  0
 11 12  1  0  0  0  0
 11 13  1  0  0  0  0
 11 14  1  0  0  0  0
 14 15  1  0  0  0  0
 14 16  1  0  0  0  0
 14 17  1  0  0  0  0
 17 18  2  0  0  0  0
 17 19  1  0  0  0  0
 19 20  1  0  0  0  0
 21 22  2  0  0  0  0
 21 23  1  0  0  0  0
 23 24  1  0  0  0  0
 23 25  1  0  0  0  0
 25 26  1  0  0  0  0
 25 27  1  0  0  0  0
 25 28  1  0  0  0  0
M  END
$$$$

  -OEChem-03222214033D

 28 27  0     1  0  0  0  0  0999 V2000
   -3.0953   -3.9262    0.1890 H   0  0  0  0  0  0  0  0  0  0  0  0
   -2.9631   -2.8975   -0.1584 C   0  0  0  0  0  0  0  0  0  0  0  0
   -3.6111   -2.2426    0.4287 H   0  0  0  0  0  0  0  0  0  0  0  0
   -3.2546   -2.8419   -1.2100 H   0  0  0  0  0  0  0  0  0  0  0  0
   -1.5145   -2.4760    0.0013 C   0  0  0  0  0  0  0  0  0  0  0  0
   -0.6977   -3.2627    0.4443 O   0  0  0  0  0  0  0  0  0  0  0  0
   -1.1306   -1.1963   -0.3476 N   0  0  0  0  0  0  0  0  0  0  0  0
   -1.8644   -0.5627   -0.6499 H   0  0  0  0  0  0  0  0  0  0  0  0
    0.2322   -0.6619   -0.1824 C   0  0  1  0  0  0  0  0  0  0  0  0
    0.8572   -1.4465   -0.6274 H   0  0  0  0  0  0  0  0  0  0  0  0
    0.4645    0.5249   -1.1523 C   0  0  0  0  0  0  0  0  0  0  0  0
    1.5406    0.5113   -1.3607 H   0  0  0  0  0  0  0  0  0  0  0  0
   -0.0336    0.3025   -2.1018 H   0  0  0  0  0  0  0  0  0  0  0  0
    0.1419    1.9924   -0.7636 C   0  0  0  0  0  0  0  0  0  0  0  0
    0.9444    2.6334   -1.1416 H   0  0  0  0  0  0  0  0  0  0  0  0
   -0.7679    2.2823   -1.2954 H   0  0  0  0  0  0  0  0  0  0  0  0
   -0.0926    2.3508    0.6959 C   0  0  0  0  0  0  0  0  0  0  0  0
    0.7929    2.9114    1.3116 O   0  0  0  0  0  0  0  0  0  0  0  0
   -1.3191    2.1115    1.2152 O   0  0  0  0  0  0  0  0  0  0  0  0
   -1.2728    2.4966    2.1057 H   0  0  0  0  0  0  0  0  0  0  0  0
    0.8152   -0.6200    1.2518 C   0  0  0  0  0  0  0  0  0  0  0  0
    2.0180   -0.7819    1.4061 O   0  0  0  0  0  0  0  0  0  0  0  0
    0.0681   -0.1711    2.3243 N   0  0  0  0  0  0  0  0  0  0  0  0
   -0.9081    0.0435    2.1458 H   0  0  0  0  0  0  0  0  0  0  0  0
    0.6288    0.0723    3.6475 C   0  0  0  0  0  0  0  0  0  0  0  0
    1.3853    0.8632    3.6018 H   0  0  0  0  0  0  0  0  0  0  0  0
   -0.1573    0.3838    4.3417 H   0  0  0  0  0  0  0  0  0  0  0  0
    1.0942   -0.8385    4.0389 H   0  0  0  0  0  0  0  0  0  0  0  0
  1  2  1  0  0  0  0
  2  3  1  0  0  0  0
  2  4  1  0  0  0  0
  2  5  1  0  0  0  0
  5  6  2  0  0  0  0
  5  7  1  0  0  0  0
  7  8  1  0  0  0  0
  7  9  1  0  0  0  0
  9 10  1  0  0  0  0
  9 11  1  0  0  0  0
  9 21  1  0  0  0  0
 11 12  1  0  0  0  0
 11 13  1  0  0  0  0
 11 14  1  0  0  0  0
 14 15  1  0  0  0  0
 14 16  1  0  0  0  0
 14 17  1  0  0  0  0
 17 18  2  0  0  0  0
 17 19  1  0  0  0  0
 19 20  1  0  0  0  0
 21 22  2  0  0  0  0
 21 23  1  0  0  0  0
 23 24  1  0  0  0  0
 23 25  1  0  0  0  0
 25 26  1  0  0  0  0
 25 27  1  0  0  0  0
 25 28  1  0  0  0  0
M  END
$$$$

  -OEChem-03222214033D

 28 27  0     1  0  0  0  0  0999 V2000
   -3.1236   -3.8586    0.0476 H   0  0  0  0  0  0  0  0  0  0  0  0
   -2.9788   -2.8245   -0.2785 C   0  0  0  0  0  0  0  0  0  0  0  0
   -3.6414   -2.1775    0.3012 H   0  0  0  0  0  0  0  0  0  0  0  0
   -3.2402   -2.7506   -1.3369 H   0  0  0  0  0  0  0  0  0  0  0  0
   -1.5340   -2.4107   -0.0714 C   0  0  0  0  0  0  0  0  0  0  0  0
   -0.7334   -3.2073    0.3826 O   0  0  0  0  0  0  0  0  0  0  0  0
   -1.1348   -1.1288   -0.3950 N   0  0  0  0  0  0  0  0  0  0  0  0
   -1.8489   -0.5011   -0.7510 H   0  0  0  0  0  0  0  0  0  0  0  0
    0.2376   -0.6163   -0.2305 C   0  0  1  0  0  0  0  0  0  0  0  0
    0.8574   -1.3853   -0.7087 H   0  0  0  0  0  0  0  0  0  0  0  0
    0.4427    0.6111   -1.1571 C   0  0  0  0  0  0  0  0  0  0  0  0
    1.5143    0.6097   -1.3885 H   0  0  0  0  0  0  0  0  0  0  0  0
   -0.0770    0.4305   -2.1039 H   0  0  0  0  0  0  0  0  0  0  0  0
    0.1323    2.0587   -0.6961 C   0  0  0  0  0  0  0  0  0  0  0  0
    0.7531    2.7478   -1.2762 H   0  0  0  0  0  0  0  0  0  0  0  0
   -0.9069    2.2716   -0.9601 H   0  0  0  0  0  0  0  0  0  0  0  0
    0.2823    2.4256    0.7720 C   0  0  0  0  0  0  0  0  0  0  0  0
    1.3829    2.7320    1.1859 O   0  0  0  0  0  0  0  0  0  0  0  0
   -0.8352    2.4652    1.5320 O   0  0  0  0  0  0  0  0  0  0  0  0
   -0.5169    2.7593    2.4009 H   0  0  0  0  0  0  0  0  0  0  0  0
    0.8158   -0.6227    1.2061 C   0  0  0  0  0  0  0  0  0  0  0  0
    2.0058   -0.8542    1.3685 O   0  0  0  0  0  0  0  0  0  0  0  0
    0.0712   -0.1910    2.2882 N   0  0  0  0  0  0  0  0  0  0  0  0
   -0.9023    0.0416    2.1186 H   0  0  0  0  0  0  0  0  0  0  0  0
    0.6067   -0.0986    3.6406 C   0  0  0  0  0  0  0  0  0  0  0  0
    1.4449    0.6059    3.6725 H   0  0  0  0  0  0  0  0  0  0  0  0
   -0.1660    0.2504    4.3318 H   0  0  0  0  0  0  0  0  0  0  0  0
    0.9576   -1.0789    3.9802 H   0  0  0  0  0  0  0  0  0  0  0  0
  1  2  1  0  0  0  0
  2  3  1  0  0  0  0
  2  4  1  0  0  0  0
  2  5  1  0  0  0  0
  5  6  2  0  0  0  0
  5  7  1  0  0  0  0
  7  8  1  0  0  0  0
  7  9  1  0  0  0  0
  9 10  1  0  0  0  0
  9 11  1  0  0  0  0
  9 21  1  0  0  0  0
 11 12  1  0  0  0  0
 11 13  1  0  0  0  0
 11 14  1  0  0  0  0
 14 15  1  0  0  0  0
 14 16  1  0  0  0  0
 14 17  1  0  0  0  0
 17 18  2  0  0  0  0
 17 19  1  0  0  0  0
 19 20  1  0  0  0  0
 21 22  2  0  0  0  0
 21 23  1  0  0  0  0
 23 24  1  0  0  0  0
 23 25  1  0  0  0  0
 25 26  1  0  0  0  0
 25 27  1  0  0  0  0
 25 28  1  0  0  0  0
M  END
$$$$

  -OEChem-03222214033D

 28 27  0     1  0  0  0  0  0999 V2000
   -2.8346   -4.0395    0.2081 H   0  0  0  0  0  0  0  0  0  0  0  0
   -2.7649   -3.0185   -0.1782 C   0  0  0  0  0  0  0  0  0  0  0  0
   -3.4876   -2.3928    0.3508 H   0  0  0  0  0  0  0  0  0  0  0  0
   -3.0100   -3.0291   -1.2429 H   0  0  0  0  0  0  0  0  0  0  0  0
   -1.3618   -2.4792    0.0257 C   0  0  0  0  0  0  0  0  0  0  0  0
   -0.5141   -3.1774    0.5500 O   0  0  0  0  0  0  0  0  0  0  0  0
   -1.0564   -1.1941   -0.3785 N   0  0  0  0  0  0  0  0  0  0  0  0
   -1.7953   -0.6704   -0.8368 H   0  0  0  0  0  0  0  0  0  0  0  0
    0.2812   -0.5815   -0.2693 C   0  0  1  0  0  0  0  0  0  0  0  0
    0.9585   -1.3058   -0.7385 H   0  0  0  0  0  0  0  0  0  0  0  0
    0.3346    0.6481   -1.2165 C   0  0  0  0  0  0  0  0  0  0  0  0
    1.3860    0.7392   -1.5130 H   0  0  0  0  0  0  0  0  0  0  0  0
   -0.2253    0.4170   -2.1286 H   0  0  0  0  0  0  0  0  0  0  0  0
   -0.0785    2.0608   -0.7315 C   0  0  0  0  0  0  0  0  0  0  0  0
    0.2363    2.7921   -1.4812 H   0  0  0  0  0  0  0  0  0  0  0  0
   -1.1700    2.0943   -0.6898 H   0  0  0  0  0  0  0  0  0  0  0  0
    0.4313    2.5449    0.6185 C   0  0  0  0  0  0  0  0  0  0  0  0
    1.6245    2.7329    0.7505 O   0  0  0  0  0  0  0  0  0  0  0  0
   -0.4749    2.8088    1.5850 O   0  0  0  0  0  0  0  0  0  0  0  0
    0.0612    3.1093    2.3363 H   0  0  0  0  0  0  0  0  0  0  0  0
    0.8522   -0.4796    1.1664 C   0  0  0  0  0  0  0  0  0  0  0  0
    2.0469   -0.6598    1.3550 O   0  0  0  0  0  0  0  0  0  0  0  0
    0.0691   -0.0424    2.2196 N   0  0  0  0  0  0  0  0  0  0  0  0
   -0.9241    0.0641    2.0424 H   0  0  0  0  0  0  0  0  0  0  0  0
    0.5613    0.0534    3.5879 C   0  0  0  0  0  0  0  0  0  0  0  0
    1.4189    0.7328    3.6402 H   0  0  0  0  0  0  0  0  0  0  0  0
   -0.2235    0.4367    4.2469 H   0  0  0  0  0  0  0  0  0  0  0  0
    0.8703   -0.9322    3.9517 H   0  0  0  0  0  0  0  0  0  0  0  0
  1  2  1  0  0  0  0
  2  3  1  0  0  0  0
  2  4  1  0  0  0  0
  2  5  1  0  0  0  0
  5  6  2  0  0  0  0
  5  7  1  0  0  0  0
  7  8  1  0  0  0  0
  7  9  1  0  0  0  0
  9 10  1  0  0  0  0
  9 11  1  0  0  0  0
  9 21  1  0  0  0  0
 11 12  1  0  0  0  0
 11 13  1  0  0  0  0
 11 14  1  0  0  0  0
 14 15  1  0  0  0  0
 14 16  1  0  0  0  0
 14 17  1  0  0  0  0
 17 18  2  0  0  0  0
 17 19  1  0  0  0  0
 19 20  1  0  0  0  0
 21 22  2  0  0  0  0
 21 23  1  0  0  0  0
 23 24  1  0  0  0  0
 23 25  1  0  0  0  0
 25 26  1  0  0  0  0
 25 27  1  0  0  0  0
 25 28  1  0  0  0  0
M  END
$$$$

  -OEChem-03222214033D

 28 27  0     1  0  0  0  0  0999 V2000
   -2.7790   -4.0609    0.2630 H   0  0  0  0  0  0  0  0  0  0  0  0
   -2.7193   -3.0524   -0.1565 C   0  0  0  0  0  0  0  0  0  0  0  0
   -3.4691   -2.4246    0.3305 H   0  0  0  0  0  0  0  0  0  0  0  0
   -2.9337   -3.1043   -1.2266 H   0  0  0  0  0  0  0  0  0  0  0  0
   -1.3341   -2.4762    0.0681 C   0  0  0  0  0  0  0  0  0  0  0  0
   -0.4951   -3.1296    0.6593 O   0  0  0  0  0  0  0  0  0  0  0  0
   -1.0360   -1.2087   -0.3935 N   0  0  0  0  0  0  0  0  0  0  0  0
   -1.7575   -0.7388   -0.9309 H   0  0  0  0  0  0  0  0  0  0  0  0
    0.2975   -0.5821   -0.3050 C   0  0  1  0  0  0  0  0  0  0  0  0
    0.9928   -1.2961   -0.7627 H   0  0  0  0  0  0  0  0  0  0  0  0
    0.3055    0.6529   -1.2454 C   0  0  0  0  0  0  0  0  0  0  0  0
    1.3381    0.7687   -1.5950 H   0  0  0  0  0  0  0  0  0  0  0  0
   -0.2974    0.4272   -2.1309 H   0  0  0  0  0  0  0  0  0  0  0  0
   -0.1261    2.0346   -0.6956 C   0  0  0  0  0  0  0  0  0  0  0  0
   -0.0830    2.7641   -1.5086 H   0  0  0  0  0  0  0  0  0  0  0  0
   -1.1675    1.9692   -0.3711 H   0  0  0  0  0  0  0  0  0  0  0  0
    0.6882    2.6029    0.4619 C   0  0  0  0  0  0  0  0  0  0  0  0
    1.8920    2.7019    0.3254 O   0  0  0  0  0  0  0  0  0  0  0  0
    0.0266    3.0373    1.5556 O   0  0  0  0  0  0  0  0  0  0  0  0
    0.7277    3.3491    2.1495 H   0  0  0  0  0  0  0  0  0  0  0  0
    0.8400   -0.4199    1.1355 C   0  0  0  0  0  0  0  0  0  0  0  0
    2.0324   -0.5721    1.3585 O   0  0  0  0  0  0  0  0  0  0  0  0
    0.0248    0.0556    2.1467 N   0  0  0  0  0  0  0  0  0  0  0  0
   -0.9688    0.0992    1.9486 H   0  0  0  0  0  0  0  0  0  0  0  0
    0.4746    0.1925    3.5260 C   0  0  0  0  0  0  0  0  0  0  0  0
    1.3419    0.8587    3.5826 H   0  0  0  0  0  0  0  0  0  0  0  0
   -0.3238    0.6135    4.1442 H   0  0  0  0  0  0  0  0  0  0  0  0
    0.7542   -0.7842    3.9349 H   0  0  0  0  0  0  0  0  0  0  0  0
  1  2  1  0  0  0  0
  2  3  1  0  0  0  0
  2  4  1  0  0  0  0
  2  5  1  0  0  0  0
  5  6  2  0  0  0  0
  5  7  1  0  0  0  0
  7  8  1  0  0  0  0
  7  9  1  0  0  0  0
  9 10  1  0  0  0  0
  9 11  1  0  0  0  0
  9 21  1  0  0  0  0
 11 12  1  0  0  0  0
 11 13  1  0  0  0  0
 11 14  1  0  0  0  0
 14 15  1  0  0  0  0
 14 16  1  0  0  0  0
 14 17  1  0  0  0  0
 17 18  2  0  0  0  0
 17 19  1  0  0  0  0
 19 20  1  0  0  0  0
 21 22  2  0  0  0  0
 21 23  1  0  0  0  0
 23 24  1  0  0  0  0
 23 25  1  0  0  0  0
 25 26  1  0  0  0  0
 25 27  1  0  0  0  0
 25 28  1  0  0  0  0
M  END
$$$$

  -OEChem-03222214033D

 28 27  0     1  0  0  0  0  0999 V2000
   -2.7218   -4.1006    0.2784 H   0  0  0  0  0  0  0  0  0  0  0  0
   -2.6818   -3.0988   -0.1589 C   0  0  0  0  0  0  0  0  0  0  0  0
   -3.4598   -2.4843    0.2999 H   0  0  0  0  0  0  0  0  0  0  0  0
   -2.8722   -3.1775   -1.2319 H   0  0  0  0  0  0  0  0  0  0  0  0
   -1.3184   -2.4793    0.0836 C   0  0  0  0  0  0  0  0  0  0  0  0
   -0.4821   -3.0880    0.7248 O   0  0  0  0  0  0  0  0  0  0  0  0
   -1.0374   -1.2219   -0.4155 N   0  0  0  0  0  0  0  0  0  0  0  0
   -1.7466   -0.7992   -1.0064 H   0  0  0  0  0  0  0  0  0  0  0  0
    0.2877   -0.5751   -0.3362 C   0  0  1  0  0  0  0  0  0  0  0  0
    0.9981   -1.2806   -0.7836 H   0  0  0  0  0  0  0  0  0  0  0  0
    0.2835    0.6671   -1.2631 C   0  0  0  0  0  0  0  0  0  0  0  0
    1.3020    0.7968   -1.6476 H   0  0  0  0  0  0  0  0  0  0  0  0
   -0.3486    0.4557   -2.1315 H   0  0  0  0  0  0  0  0  0  0  0  0
   -0.1635    2.0126   -0.6430 C   0  0  0  0  0  0  0  0  0  0  0  0
   -0.3743    2.7192   -1.4499 H   0  0  0  0  0  0  0  0  0  0  0  0
   -1.0918    1.8666   -0.0854 H   0  0  0  0  0  0  0  0  0  0  0  0
    0.8622    2.6785    0.2736 C   0  0  0  0  0  0  0  0  0  0  0  0
    2.0009    2.8153   -0.1327 O   0  0  0  0  0  0  0  0  0  0  0  0
    0.4409    3.1451    1.4678 O   0  0  0  0  0  0  0  0  0  0  0  0
    1.2432    3.4985    1.8833 H   0  0  0  0  0  0  0  0  0  0  0  0
    0.8136   -0.3641    1.1040 C   0  0  0  0  0  0  0  0  0  0  0  0
    2.0132   -0.4328    1.3300 O   0  0  0  0  0  0  0  0  0  0  0  0
   -0.0241    0.1299    2.0875 N   0  0  0  0  0  0  0  0  0  0  0  0
   -1.0186    0.0882    1.8947 H   0  0  0  0  0  0  0  0  0  0  0  0
    0.4143    0.3541    3.4590 C   0  0  0  0  0  0  0  0  0  0  0  0
    1.2562    1.0540    3.4833 H   0  0  0  0  0  0  0  0  0  0  0  0
   -0.4014    0.7780    4.0523 H   0  0  0  0  0  0  0  0  0  0  0  0
    0.7272   -0.5894    3.9189 H   0  0  0  0  0  0  0  0  0  0  0  0
  1  2  1  0  0  0  0
  2  3  1  0  0  0  0
  2  4  1  0  0  0  0
  2  5  1  0  0  0  0
  5  6  2  0  0  0  0
  5  7  1  0  0  0  0
  7  8  1  0  0  0  0
  7  9  1  0  0  0  0
  9 10  1  0  0  0  0
  9 11  1  0  0  0  0
  9 21  1  0  0  0  0
 11 12  1  0  0  0  0
 11 13  1  0  0  0  0
 11 14  1  0  0  0  0
 14 15  1  0  0  0  0
 14 16  1  0  0  0  0
 14 17  1  0  0  0  0
 17 18  2  0  0  0  0
 17 19  1  0  0  0  0
 19 20  1  0  0  0  0
 21 22  2  0  0  0  0
 21 23  1  0  0  0  0
 23 24  1  0  0  0  0
 23 25  1  0  0  0  0
 25 26  1  0  0  0  0
 25 27  1  0  0  0  0
 25 28  1  0  0  0  0
M  END
$$$$

  -OEChem-03222214033D

 28 27  0     1  0  0  0  0  0999 V2000
   -2.6834   -4.1449    0.2564 H   0  0  0  0  0  0  0  0  0  0  0  0
   -2.6562   -3.1488   -0.1948 C   0  0  0  0  0  0  0  0  0  0  0  0
   -3.4645   -2.5489    0.2297 H   0  0  0  0  0  0  0  0  0  0  0  0
   -2.8099   -3.2483   -1.2719 H   0  0  0  0  0  0  0  0  0  0  0  0
   -1.3184   -2.4883    0.0803 C   0  0  0  0  0  0  0  0  0  0  0  0
   -0.4861   -3.0629    0.7572 O   0  0  0  0  0  0  0  0  0  0  0  0
   -1.0557   -1.2311   -0.4284 N   0  0  0  0  0  0  0  0  0  0  0  0
   -1.7546   -0.8409   -1.0530 H   0  0  0  0  0  0  0  0  0  0  0  0
    0.2573   -0.5625   -0.3416 C   0  0  1  0  0  0  0  0  0  0  0  0
    0.9784   -1.2631   -0.7791 H   0  0  0  0  0  0  0  0  0  0  0  0
    0.2627    0.6787   -1.2648 C   0  0  0  0  0  0  0  0  0  0  0  0
    1.2807    0.8142   -1.6480 H   0  0  0  0  0  0  0  0  0  0  0  0
   -0.3674    0.4716   -2.1355 H   0  0  0  0  0  0  0  0  0  0  0  0
   -0.2079    2.0009   -0.6143 C   0  0  0  0  0  0  0  0  0  0  0  0
   -0.6439    2.6369   -1.3891 H   0  0  0  0  0  0  0  0  0  0  0  0
   -0.9914    1.8095    0.1223 H   0  0  0  0  0  0  0  0  0  0  0  0
    0.9192    2.8077    0.0300 C   0  0  0  0  0  0  0  0  0  0  0  0
    1.8858    3.1028   -0.6492 O   0  0  0  0  0  0  0  0  0  0  0  0
    0.7678    3.1987    1.3126 O   0  0  0  0  0  0  0  0  0  0  0  0
    1.6009    3.6441    1.5318 H   0  0  0  0  0  0  0  0  0  0  0  0
    0.7856   -0.3196    1.0933 C   0  0  0  0  0  0  0  0  0  0  0  0
    1.9920   -0.3143    1.2956 O   0  0  0  0  0  0  0  0  0  0  0  0
   -0.0552    0.1758    2.0737 N   0  0  0  0  0  0  0  0  0  0  0  0
   -1.0501    0.0763    1.9045 H   0  0  0  0  0  0  0  0  0  0  0  0
    0.3982    0.4848    3.4238 C   0  0  0  0  0  0  0  0  0  0  0  0
    1.2036    1.2263    3.3981 H   0  0  0  0  0  0  0  0  0  0  0  0
   -0.4262    0.8946    4.0149 H   0  0  0  0  0  0  0  0  0  0  0  0
    0.7676   -0.4194    3.9188 H   0  0  0  0  0  0  0  0  0  0  0  0
  1  2  1  0  0  0  0
  2  3  1  0  0  0  0
  2  4  1  0  0  0  0
  2  5  1  0  0  0  0
  5  6  2  0  0  0  0
  5  7  1  0  0  0  0
  7  8  1  0  0  0  0
  7  9  1  0  0  0  0
  9 10  1  0  0  0  0
  9 11  1  0  0  0  0
  9 21  1  0  0  0  0
 11 12  1  0  0  0  0
 11 13  1  0  0  0  0
 11 14  1  0  0  0  0
 14 15  1  0  0  0  0
 14 16  1  0  0  0  0
 14 17  1  0  0  0  0
 17 18  2  0  0  0  0
 17 19  1  0  0  0  0
 19 20  1  0  0  0  0
 21 22  2  0  0  0  0
 21 23  1  0  0  0  0
 23 24  1  0  0  0  0
 23 25  1  0  0  0  0
 25 26  1  0  0  0  0
 25 27  1  0  0  0  0
 25 28  1  0  0  0  0
M  END
$$$$

  -OEChem-03222214033D

 28 27  0     1  0  0  0  0  0999 V2000
   -2.6472   -4.1921    0.2077 H   0  0  0  0  0  0  0  0  0  0  0  0
   -2.6312   -3.1969   -0.2463 C   0  0  0  0  0  0  0  0  0  0  0  0
   -3.4628   -2.6139    0.1569 H   0  0  0  0  0  0  0  0  0  0  0  0
   -2.7568   -3.3027   -1.3266 H   0  0  0  0  0  0  0  0  0  0  0  0
   -1.3149   -2.5066    0.0581 C   0  0  0  0  0  0  0  0  0  0  0  0
   -0.4808   -3.0652    0.7463 O   0  0  0  0  0  0  0  0  0  0  0  0
   -1.0740   -1.2386   -0.4333 N   0  0  0  0  0  0  0  0  0  0  0  0
   -1.7738   -0.8553   -1.0612 H   0  0  0  0  0  0  0  0  0  0  0  0
    0.2236   -0.5456   -0.3253 C   0  0  1  0  0  0  0  0  0  0  0  0
    0.9554   -1.2384   -0.7582 H   0  0  0  0  0  0  0  0  0  0  0  0
    0.2375    0.6931   -1.2494 C   0  0  0  0  0  0  0  0  0  0  0  0
    1.2662    0.8394   -1.5993 H   0  0  0  0  0  0  0  0  0  0  0  0
   -0.3618    0.4794   -2.1402 H   0  0  0  0  0  0  0  0  0  0  0  0
   -0.2674    2.0072   -0.6066 C   0  0  0  0  0  0  0  0  0  0  0  0
   -0.9139    2.5193   -1.3239 H   0  0  0  0  0  0  0  0  0  0  0  0
   -0.8756    1.8158    0.2784 H   0  0  0  0  0  0  0  0  0  0  0  0
    0.8605    2.9761   -0.2627 C   0  0  0  0  0  0  0  0  0  0  0  0
    1.5565    3.4032   -1.1665 O   0  0  0  0  0  0  0  0  0  0  0  0
    1.0195    3.3303    1.0297 O   0  0  0  0  0  0  0  0  0  0  0  0
    1.8109    3.8904    1.0405 H   0  0  0  0  0  0  0  0  0  0  0  0
    0.7585   -0.2956    1.1065 C   0  0  0  0  0  0  0  0  0  0  0  0
    1.9680   -0.2445    1.2844 O   0  0  0  0  0  0  0  0  0  0  0  0
   -0.0775    0.1798    2.1010 N   0  0  0  0  0  0  0  0  0  0  0  0
   -1.0717    0.0364    1.9610 H   0  0  0  0  0  0  0  0  0  0  0  0
    0.3998    0.5542    3.4262 C   0  0  0  0  0  0  0  0  0  0  0  0
    1.1489    1.3498    3.3523 H   0  0  0  0  0  0  0  0  0  0  0  0
   -0.4299    0.9199    4.0386 H   0  0  0  0  0  0  0  0  0  0  0  0
    0.8502   -0.3085    3.9283 H   0  0  0  0  0  0  0  0  0  0  0  0
  1  2  1  0  0  0  0
  2  3  1  0  0  0  0
  2  4  1  0  0  0  0
  2  5  1  0  0  0  0
  5  6  2  0  0  0  0
  5  7  1  0  0  0  0
  7  8  1  0  0  0  0
  7  9  1  0  0  0  0
  9 10  1  0  0  0  0
  9 11  1  0  0  0  0
  9 21  1  0  0  0  0
 11 12  1  0  0  0  0
 11 13  1  0  0  0  0
 11 14  1  0  0  0  0
 14 15  1  0  0  0  0
 14 16  1  0  0  0  0
 14 17  1  0  0  0  0
 17 18  2  0  0  0  0
 17 19  1  0  0  0  0
 19 20  1  0  0  0  0
 21 22  2  0  0  0  0
 21 23  1  0  0  0  0
 23 24  1  0  0  0  0
 23 25  1  0  0  0  0
 25 26  1  0  0  0  0
 25 27  1  0  0  0  0
 25 28  1  0  0  0  0
M  END
$$$$

  -OEChem-03222214033D

 28 27  0     1  0  0  0  0  0999 V2000
   -2.5969   -4.2251    0.1646 H   0  0  0  0  0  0  0  0  0  0  0  0
   -2.5993   -3.2206   -0.2683 C   0  0  0  0  0  0  0  0  0  0  0  0
   -3.4412   -2.6612    0.1463 H   0  0  0  0  0  0  0  0  0  0  0  0
   -2.7230   -3.3056   -1.3506 H   0  0  0  0  0  0  0  0  0  0  0  0
   -1.2964   -2.5123    0.0507 C   0  0  0  0  0  0  0  0  0  0  0  0
   -0.4541   -3.0657    0.7331 O   0  0  0  0  0  0  0  0  0  0  0  0
   -1.0784   -1.2325   -0.4197 N   0  0  0  0  0  0  0  0  0  0  0  0
   -1.7851   -0.8523   -1.0419 H   0  0  0  0  0  0  0  0  0  0  0  0
    0.2073   -0.5194   -0.3063 C   0  0  1  0  0  0  0  0  0  0  0  0
    0.9465   -1.2003   -0.7452 H   0  0  0  0  0  0  0  0  0  0  0  0
    0.2044    0.7188   -1.2315 C   0  0  0  0  0  0  0  0  0  0  0  0
    1.2413    0.8740   -1.5523 H   0  0  0  0  0  0  0  0  0  0  0  0
   -0.3662    0.4966   -2.1389 H   0  0  0  0  0  0  0  0  0  0  0  0
   -0.3219    2.0375   -0.6108 C   0  0  0  0  0  0  0  0  0  0  0  0
   -1.1768    2.3871   -1.1952 H   0  0  0  0  0  0  0  0  0  0  0  0
   -0.6803    1.8964    0.4078 H   0  0  0  0  0  0  0  0  0  0  0  0
    0.7199    3.1519   -0.6124 C   0  0  0  0  0  0  0  0  0  0  0  0
    1.1913    3.5071   -1.6780 O   0  0  0  0  0  0  0  0  0  0  0  0
    1.0581    3.7041    0.5717 O   0  0  0  0  0  0  0  0  0  0  0  0
    1.7503    4.3493    0.3614 H   0  0  0  0  0  0  0  0  0  0  0  0
    0.7477   -0.2833    1.1260 C   0  0  0  0  0  0  0  0  0  0  0  0
    1.9575   -0.2195    1.2981 O   0  0  0  0  0  0  0  0  0  0  0  0
   -0.0880    0.1612    2.1352 N   0  0  0  0  0  0  0  0  0  0  0  0
   -1.0795   -0.0047    1.9996 H   0  0  0  0  0  0  0  0  0  0  0  0
    0.3919    0.4858    3.4726 C   0  0  0  0  0  0  0  0  0  0  0  0
    1.1407    1.2839    3.4279 H   0  0  0  0  0  0  0  0  0  0  0  0
   -0.4368    0.8279    4.0996 H   0  0  0  0  0  0  0  0  0  0  0  0
    0.8436   -0.3952    3.9409 H   0  0  0  0  0  0  0  0  0  0  0  0
  1  2  1  0  0  0  0
  2  3  1  0  0  0  0
  2  4  1  0  0  0  0
  2  5  1  0  0  0  0
  5  6  2  0  0  0  0
  5  7  1  0  0  0  0
  7  8  1  0  0  0  0
  7  9  1  0  0  0  0
  9 10  1  0  0  0  0
  9 11  1  0  0  0  0
  9 21  1  0  0  0  0
 11 12  1  0  0  0  0
 11 13  1  0  0  0  0
 11 14  1  0  0  0  0
 14 15  1  0  0  0  0
 14 16  1  0  0  0  0
 14 17  1  0  0  0  0
 17 18  2  0  0  0  0
 17 19  1  0  0  0  0
 19 20  1  0  0  0  0
 21 22  2  0  0  0  0
 21 23  1  0  0  0  0
 23 24  1  0  0  0  0
 23 25  1  0  0  0  0
 25 26  1  0  0  0  0
 25 27  1  0  0  0  0
 25 28  1  0  0  0  0
M  END
$$$$

  -OEChem-03222214033D

 28 27  0     1  0  0  0  0  0999 V2000
   -2.5649   -4.2384    0.1505 H   0  0  0  0  0  0  0  0  0  0  0  0
   -2.5796   -3.2291   -0.2709 C   0  0  0  0  0  0  0  0  0  0  0  0
   -3.4227   -2.6818    0.1573 H   0  0  0  0  0  0  0  0  0  0  0  0
   -2.7120   -3.3035   -1.3529 H   0  0  0  0  0  0  0  0  0  0  0  0
   -1.2804   -2.5130    0.0453 C   0  0  0  0  0  0  0  0  0  0  0  0
   -0.4282   -3.0672    0.7148 O   0  0  0  0  0  0  0  0  0  0  0  0
   -1.0776   -1.2251   -0.4099 N   0  0  0  0  0  0  0  0  0  0  0  0
   -1.7909   -0.8454   -1.0249 H   0  0  0  0  0  0  0  0  0  0  0  0
    0.2039   -0.5033   -0.3013 C   0  0  1  0  0  0  0  0  0  0  0  0
    0.9462   -1.1699   -0.7567 H   0  0  0  0  0  0  0  0  0  0  0  0
    0.1729    0.7464   -1.2127 C   0  0  0  0  0  0  0  0  0  0  0  0
    1.2137    0.9150   -1.5143 H   0  0  0  0  0  0  0  0  0  0  0  0
   -0.3824    0.5322   -2.1316 H   0  0  0  0  0  0  0  0  0  0  0  0
   -0.3562    2.0623   -0.5863 C   0  0  0  0  0  0  0  0  0  0  0  0
   -1.3727    2.2525   -0.9388 H   0  0  0  0  0  0  0  0  0  0  0  0
   -0.4016    2.0009    0.4993 H   0  0  0  0  0  0  0  0  0  0  0  0
    0.5126    3.2716   -0.9232 C   0  0  0  0  0  0  0  0  0  0  0  0
    0.8225    3.4619   -2.0859 O   0  0  0  0  0  0  0  0  0  0  0  0
    0.8769    4.0912    0.0857 O   0  0  0  0  0  0  0  0  0  0  0  0
    1.4312    4.7707   -0.3276 H   0  0  0  0  0  0  0  0  0  0  0  0
    0.7467   -0.2895    1.1332 C   0  0  0  0  0  0  0  0  0  0  0  0
    1.9558   -0.2142    1.3041 O   0  0  0  0  0  0  0  0  0  0  0  0
   -0.0923    0.1300    2.1508 N   0  0  0  0  0  0  0  0  0  0  0  0
   -1.0810   -0.0528    2.0136 H   0  0  0  0  0  0  0  0  0  0  0  0
    0.3859    0.4083    3.4994 C   0  0  0  0  0  0  0  0  0  0  0  0
    1.1387    1.2037    3.4829 H   0  0  0  0  0  0  0  0  0  0  0  0
   -0.4429    0.7331    4.1354 H   0  0  0  0  0  0  0  0  0  0  0  0
    0.8322   -0.4899    3.9392 H   0  0  0  0  0  0  0  0  0  0  0  0
  1  2  1  0  0  0  0
  2  3  1  0  0  0  0
  2  4  1  0  0  0  0
  2  5  1  0  0  0  0
  5  6  2  0  0  0  0
  5  7  1  0  0  0  0
  7  8  1  0  0  0  0
  7  9  1  0  0  0  0
  9 10  1  0  0  0  0
  9 11  1  0  0  0  0
  9 21  1  0  0  0  0
 11 12  1  0  0  0  0
 11 13  1  0  0  0  0
 11 14  1  0  0  0  0
 14 15  1  0  0  0  0
 14 16  1  0  0  0  0
 14 17  1  0  0  0  0
 17 18  2  0  0  0  0
 17 19  1  0  0  0  0
 19 20  1  0  0  0  0
 21 22  2  0  0  0  0
 21 23  1  0  0  0  0
 23 24  1  0  0  0  0
 23 25  1  0  0  0  0
 25 26  1  0  0  0  0
 25 27  1  0  0  0  0
 25 28  1  0  0  0  0
M  END
$$$$

  -OEChem-03222214033D

 28 27  0     1  0  0  0  0  0999 V2000
   -2.5631   -4.2354    0.1547 H   0  0  0  0  0  0  0  0  0  0  0  0
   -2.5784   -3.2262   -0.2671 C   0  0  0  0  0  0  0  0  0  0  0  0
   -3.4195   -2.6781    0.1640 H   0  0  0  0  0  0  0  0  0  0  0  0
   -2.7151   -3.3005   -1.3486 H   0  0  0  0  0  0  0  0  0  0  0  0
   -1.2772   -2.5116    0.0444 C   0  0  0  0  0  0  0  0  0  0  0  0
   -0.4225   -3.0680    0.7089 O   0  0  0  0  0  0  0  0  0  0  0  0
   -1.0750   -1.2232   -0.4099 N   0  0  0  0  0  0  0  0  0  0  0  0
   -1.7857   -0.8480   -1.0306 H   0  0  0  0  0  0  0  0  0  0  0  0
    0.2098   -0.5053   -0.3121 C   0  0  1  0  0  0  0  0  0  0  0  0
    0.9498   -1.1620   -0.7853 H   0  0  0  0  0  0  0  0  0  0  0  0
    0.1503    0.7607   -1.1993 C   0  0  0  0  0  0  0  0  0  0  0  0
    1.1841    0.9460   -1.5147 H   0  0  0  0  0  0  0  0  0  0  0  0
   -0.4229    0.5626   -2.1109 H   0  0  0  0  0  0  0  0  0  0  0  0
   -0.3680    2.0602   -0.5336 C   0  0  0  0  0  0  0  0  0  0  0  0
   -1.4565    2.1120   -0.6079 H   0  0  0  0  0  0  0  0  0  0  0  0
   -0.1070    2.0876    0.5242 H   0  0  0  0  0  0  0  0  0  0  0  0
    0.2419    3.3210   -1.1435 C   0  0  0  0  0  0  0  0  0  0  0  0
    0.4267    3.3638   -2.3472 O   0  0  0  0  0  0  0  0  0  0  0  0
    0.5208    4.3494   -0.3150 O   0  0  0  0  0  0  0  0  0  0  0  0
    0.9023    5.0358   -0.8837 H   0  0  0  0  0  0  0  0  0  0  0  0
    0.7574   -0.3021    1.1215 C   0  0  0  0  0  0  0  0  0  0  0  0
    1.9667   -0.2259    1.2907 O   0  0  0  0  0  0  0  0  0  0  0  0
   -0.0818    0.1146    2.1403 N   0  0  0  0  0  0  0  0  0  0  0  0
   -1.0701   -0.0687    2.0008 H   0  0  0  0  0  0  0  0  0  0  0  0
    0.3952    0.3755    3.4931 C   0  0  0  0  0  0  0  0  0  0  0  0
    1.1539    1.1655    3.4865 H   0  0  0  0  0  0  0  0  0  0  0  0
   -0.4324    0.7000    4.1310 H   0  0  0  0  0  0  0  0  0  0  0  0
    0.8339   -0.5302    3.9254 H   0  0  0  0  0  0  0  0  0  0  0  0
  1  2  1  0  0  0  0
  2  3  1  0  0  0  0
  2  4  1  0  0  0  0
  2  5  1  0  0  0  0
  5  6  2  0  0  0  0
  5  7  1  0  0  0  0
  7  8  1  0  0  0  0
  7  9  1  0  0  0  0
  9 10  1  0  0  0  0
  9 11  1  0  0  0  0
  9 21  1  0  0  0  0
 11 12  1  0  0  0  0
 11 13  1  0  0  0  0
 11 14  1  0  0  0  0
 14 15  1  0  0  0  0
 14 16  1  0  0  0  0
 14 17  1  0  0  0  0
 17 18  2  0  0  0  0
 17 19  1  0  0  0  0
 19 20  1  0  0  0  0
 21 22  2  0  0  0  0
 21 23  1  0  0  0  0
 23 24  1  0  0  0  0
 23 25  1  0  0  0  0
 25 26  1  0  0  0  0
 25 27  1  0  0  0  0
 25 28  1  0  0  0  0
M  END
$$$$

  -OEChem-03222214033D

 28 27  0     1  0  0  0  0  0999 V2000
   -2.5817   -4.2286    0.1671 H   0  0  0  0  0  0  0  0  0  0  0  0
   -2.5899   -3.2237   -0.2649 C   0  0  0  0  0  0  0  0  0  0  0  0
   -3.4326   -2.6683    0.1532 H   0  0  0  0  0  0  0  0  0  0  0  0
   -2.7177   -3.3090   -1.3468 H   0  0  0  0  0  0  0  0  0  0  0  0
   -1.2882   -2.5107    0.0501 C   0  0  0  0  0  0  0  0  0  0  0  0
   -0.4381   -3.0662    0.7213 O   0  0  0  0  0  0  0  0  0  0  0  0
   -1.0778   -1.2271   -0.4149 N   0  0  0  0  0  0  0  0  0  0  0  0
   -1.7825   -0.8570   -1.0459 H   0  0  0  0  0  0  0  0  0  0  0  0
    0.2147   -0.5204   -0.3299 C   0  0  1  0  0  0  0  0  0  0  0  0
    0.9483   -1.1754   -0.8147 H   0  0  0  0  0  0  0  0  0  0  0  0
    0.1423    0.7571   -1.1977 C   0  0  0  0  0  0  0  0  0  0  0  0
    1.1632    0.9561   -1.5446 H   0  0  0  0  0  0  0  0  0  0  0  0
   -0.4648    0.5718   -2.0903 H   0  0  0  0  0  0  0  0  0  0  0  0
   -0.3577    2.0345   -0.4825 C   0  0  0  0  0  0  0  0  0  0  0  0
   -1.4304    1.9640   -0.2897 H   0  0  0  0  0  0  0  0  0  0  0  0
    0.1513    2.1543    0.4761 H   0  0  0  0  0  0  0  0  0  0  0  0
   -0.0697    3.3117   -1.2704 C   0  0  0  0  0  0  0  0  0  0  0  0
    0.0075    3.2602   -2.4856 O   0  0  0  0  0  0  0  0  0  0  0  0
    0.0581    4.4585   -0.5705 O   0  0  0  0  0  0  0  0  0  0  0  0
    0.2424    5.1404   -1.2348 H   0  0  0  0  0  0  0  0  0  0  0  0
    0.7700   -0.3141    1.0999 C   0  0  0  0  0  0  0  0  0  0  0  0
    1.9800   -0.2415    1.2652 O   0  0  0  0  0  0  0  0  0  0  0  0
   -0.0651    0.1172    2.1158 N   0  0  0  0  0  0  0  0  0  0  0  0
   -1.0546   -0.0610    1.9788 H   0  0  0  0  0  0  0  0  0  0  0  0
    0.4151    0.3900    3.4649 C   0  0  0  0  0  0  0  0  0  0  0  0
    1.1789    1.1749    3.4489 H   0  0  0  0  0  0  0  0  0  0  0  0
   -0.4099    0.7270    4.0997 H   0  0  0  0  0  0  0  0  0  0  0  0
    0.8481   -0.5138    3.9064 H   0  0  0  0  0  0  0  0  0  0  0  0
  1  2  1  0  0  0  0
  2  3  1  0  0  0  0
  2  4  1  0  0  0  0
  2  5  1  0  0  0  0
  5  6  2  0  0  0  0
  5  7  1  0  0  0  0
  7  8  1  0  0  0  0
  7  9  1  0  0  0  0
  9 10  1  0  0  0  0
  9 11  1  0  0  0  0
  9 21  1  0  0  0  0
 11 12  1  0  0  0  0
 11 13  1  0  0  0  0
 11 14  1  0  0  0  0
 14 15  1  0  0  0  0
 14 16  1  0  0  0  0
 14 17  1  0  0  0  0
 17 18  2  0  0  0  0
 17 19  1  0  0  0  0
 19 20  1  0  0  0  0
 21 22  2  0  0  0  0
 21 23  1  0  0  0  0
 23 24  1  0  0  0  0
 23 25  1  0  0  0  0
 25 26  1  0  0  0  0
 25 27  1  0  0  0  0
 25 28  1  0  0  0  0
M  END
$$$$

  -OEChem-03222214033D

 28 27  0     1  0  0  0  0  0999 V2000
   -2.6176   -4.2003    0.1987 H   0  0  0  0  0  0  0  0  0  0  0  0
   -2.6136   -3.2002   -0.2442 C   0  0  0  0  0  0  0  0  0  0  0  0
   -3.4407   -2.6254    0.1788 H   0  0  0  0  0  0  0  0  0  0  0  0
   -2.7569   -3.2946   -1.3232 H   0  0  0  0  0  0  0  0  0  0  0  0
   -1.2960   -2.5070    0.0468 C   0  0  0  0  0  0  0  0  0  0  0  0
   -0.4453   -3.0726    0.7088 O   0  0  0  0  0  0  0  0  0  0  0  0
   -1.0731   -1.2284   -0.4256 N   0  0  0  0  0  0  0  0  0  0  0  0
   -1.7823   -0.8472   -1.0449 H   0  0  0  0  0  0  0  0  0  0  0  0
    0.2271   -0.5338   -0.3476 C   0  0  1  0  0  0  0  0  0  0  0  0
    0.9539   -1.1958   -0.8331 H   0  0  0  0  0  0  0  0  0  0  0  0
    0.1638    0.7517   -1.2106 C   0  0  0  0  0  0  0  0  0  0  0  0
    1.0906    0.8045   -1.7933 H   0  0  0  0  0  0  0  0  0  0  0  0
   -0.6581    0.6740   -1.9304 H   0  0  0  0  0  0  0  0  0  0  0  0
    0.0385    2.0761   -0.4218 C   0  0  0  0  0  0  0  0  0  0  0  0
   -0.8634    2.0560    0.1941 H   0  0  0  0  0  0  0  0  0  0  0  0
    0.9002    2.1951    0.2414 H   0  0  0  0  0  0  0  0  0  0  0  0
   -0.0219    3.3194   -1.3091 C   0  0  0  0  0  0  0  0  0  0  0  0
   -0.2011    3.2021   -2.5091 O   0  0  0  0  0  0  0  0  0  0  0  0
    0.1053    4.5151   -0.6966 O   0  0  0  0  0  0  0  0  0  0  0  0
    0.0488    5.1711   -1.4083 H   0  0  0  0  0  0  0  0  0  0  0  0
    0.7803   -0.3292    1.0838 C   0  0  0  0  0  0  0  0  0  0  0  0
    1.9906   -0.2728    1.2550 O   0  0  0  0  0  0  0  0  0  0  0  0
   -0.0550    0.1144    2.0941 N   0  0  0  0  0  0  0  0  0  0  0  0
   -1.0459   -0.0519    1.9518 H   0  0  0  0  0  0  0  0  0  0  0  0
    0.4205    0.3853    3.4453 C   0  0  0  0  0  0  0  0  0  0  0  0
    1.1922    1.1624    3.4320 H   0  0  0  0  0  0  0  0  0  0  0  0
   -0.4045    0.7321    4.0747 H   0  0  0  0  0  0  0  0  0  0  0  0
    0.8421   -0.5217    3.8914 H   0  0  0  0  0  0  0  0  0  0  0  0
  1  2  1  0  0  0  0
  2  3  1  0  0  0  0
  2  4  1  0  0  0  0
  2  5  1  0  0  0  0
  5  6  2  0  0  0  0
  5  7  1  0  0  0  0
  7  8  1  0  0  0  0
  7  9  1  0  0  0  0
  9 10  1  0  0  0  0
  9 11  1  0  0  0  0
  9 21  1  0  0  0  0
 11 12  1  0  0  0  0
 11 13  1  0  0  0  0
 11 14  1  0  0  0  0
 14 15  1  0  0  0  0
 14 16  1  0  0  0  0
 14 17  1  0  0  0  0
 17 18  2  0  0  0  0
 17 19  1  0  0  0  0
 19 20  1  0  0  0  0
 21 22  2  0  0  0  0
 21 23  1  0  0  0  0
 23 24  1  0  0  0  0
 23 25  1  0  0  0  0
 25 26  1  0  0  0  0
 25 27  1  0  0  0  0
 25 28  1  0  0  0  0
M  END
$$$$

  -OEChem-03222214033D

 28 27  0     1  0  0  0  0  0999 V2000
   -2.6305   -4.2001    0.1858 H   0  0  0  0  0  0  0  0  0  0  0  0
   -2.6320   -3.1929   -0.2410 C   0  0  0  0  0  0  0  0  0  0  0  0
   -3.4556   -2.6258    0.1993 H   0  0  0  0  0  0  0  0  0  0  0  0
   -2.7857   -3.2699   -1.3201 H   0  0  0  0  0  0  0  0  0  0  0  0
   -1.3121   -2.5033    0.0483 C   0  0  0  0  0  0  0  0  0  0  0  0
   -0.4600   -3.0735    0.7046 O   0  0  0  0  0  0  0  0  0  0  0  0
   -1.0891   -1.2220   -0.4161 N   0  0  0  0  0  0  0  0  0  0  0  0
   -1.7998   -0.8354   -1.0306 H   0  0  0  0  0  0  0  0  0  0  0  0
    0.2130   -0.5313   -0.3399 C   0  0  1  0  0  0  0  0  0  0  0  0
    0.9317   -1.2015   -0.8263 H   0  0  0  0  0  0  0  0  0  0  0  0
    0.1717    0.7489   -1.2105 C   0  0  0  0  0  0  0  0  0  0  0  0
    1.0937    0.7946   -1.8005 H   0  0  0  0  0  0  0  0  0  0  0  0
   -0.6553    0.6654   -1.9232 H   0  0  0  0  0  0  0  0  0  0  0  0
    0.0538    2.0769   -0.4262 C   0  0  0  0  0  0  0  0  0  0  0  0
   -0.7149    1.9797    0.3433 H   0  0  0  0  0  0  0  0  0  0  0  0
    1.0035    2.2988    0.0699 H   0  0  0  0  0  0  0  0  0  0  0  0
   -0.3419    3.2809   -1.2820 C   0  0  0  0  0  0  0  0  0  0  0  0
   -0.5125    3.1509   -2.4819 O   0  0  0  0  0  0  0  0  0  0  0  0
   -0.5006    4.4569   -0.6397 O   0  0  0  0  0  0  0  0  0  0  0  0
   -0.7344    5.0931   -1.3330 H   0  0  0  0  0  0  0  0  0  0  0  0
    0.7826   -0.3340    1.0866 C   0  0  0  0  0  0  0  0  0  0  0  0
    1.9951   -0.2779    1.2421 O   0  0  0  0  0  0  0  0  0  0  0  0
   -0.0372    0.1061    2.1111 N   0  0  0  0  0  0  0  0  0  0  0  0
   -1.0297   -0.0630    1.9835 H   0  0  0  0  0  0  0  0  0  0  0  0
    0.4579    0.3658    3.4574 C   0  0  0  0  0  0  0  0  0  0  0  0
    1.2305    1.1418    3.4389 H   0  0  0  0  0  0  0  0  0  0  0  0
   -0.3576    0.7090    4.1010 H   0  0  0  0  0  0  0  0  0  0  0  0
    0.8841   -0.5451    3.8908 H   0  0  0  0  0  0  0  0  0  0  0  0
  1  2  1  0  0  0  0
  2  3  1  0  0  0  0
  2  4  1  0  0  0  0
  2  5  1  0  0  0  0
  5  6  2  0  0  0  0
  5  7  1  0  0  0  0
  7  8  1  0  0  0  0
  7  9  1  0  0  0  0
  9 10  1  0  0  0  0
  9 11  1  0  0  0  0
  9 21  1  0  0  0  0
 11 12  1  0  0  0  0
 11 13  1  0  0  0  0
 11 14  1  0  0  0  0
 14 15  1  0  0  0  0
 14 16  1  0  0  0  0
 14 17  1  0  0  0  0
 17 18  2  0  0  0  0
 17 19  1  0  0  0  0
 19 20  1  0  0  0  0
 21 22  2  0  0  0  0
 21 23  1  0  0  0  0
 23 24  1  0  0  0  0
 23 25  1  0  0  0  0
 25 26  1  0  0  0  0
 25 27  1  0  0  0  0
 25 28  1  0  0  0  0
M  END
$$$$

  -OEChem-03222214033D

 28 27  0     1  0  0  0  0  0999 V2000
   -2.6336   -4.2027    0.1715 H   0  0  0  0  0  0  0  0  0  0  0  0
   -2.6406   -3.1874   -0.2358 C   0  0  0  0  0  0  0  0  0  0  0  0
   -3.4595   -2.6295    0.2246 H   0  0  0  0  0  0  0  0  0  0  0  0
   -2.8066   -3.2438   -1.3144 H   0  0  0  0  0  0  0  0  0  0  0  0
   -1.3182   -2.5016    0.0506 C   0  0  0  0  0  0  0  0  0  0  0  0
   -0.4590   -3.0798    0.6905 O   0  0  0  0  0  0  0  0  0  0  0  0
   -1.1003   -1.2138   -0.3974 N   0  0  0  0  0  0  0  0  0  0  0  0
   -1.8222   -0.8128   -0.9892 H   0  0  0  0  0  0  0  0  0  0  0  0
    0.2004   -0.5211   -0.3213 C   0  0  1  0  0  0  0  0  0  0  0  0
    0.9130   -1.1968   -0.8090 H   0  0  0  0  0  0  0  0  0  0  0  0
    0.1731    0.7511   -1.2051 C   0  0  0  0  0  0  0  0  0  0  0  0
    1.0977    0.7876   -1.7916 H   0  0  0  0  0  0  0  0  0  0  0  0
   -0.6469    0.6473   -1.9230 H   0  0  0  0  0  0  0  0  0  0  0  0
    0.0523    2.0970   -0.4462 C   0  0  0  0  0  0  0  0  0  0  0  0
   -0.5357    1.9557    0.4613 H   0  0  0  0  0  0  0  0  0  0  0  0
    1.0464    2.4429   -0.1490 H   0  0  0  0  0  0  0  0  0  0  0  0
   -0.6625    3.2107   -1.2144 C   0  0  0  0  0  0  0  0  0  0  0  0
   -0.9461    3.0640   -2.3906 O   0  0  0  0  0  0  0  0  0  0  0  0
   -0.9572    4.3310   -0.5219 O   0  0  0  0  0  0  0  0  0  0  0  0
   -1.3827    4.9207   -1.1633 H   0  0  0  0  0  0  0  0  0  0  0  0
    0.7857   -0.3383    1.1008 C   0  0  0  0  0  0  0  0  0  0  0  0
    2.0000   -0.2795    1.2410 O   0  0  0  0  0  0  0  0  0  0  0  0
   -0.0210    0.0867    2.1418 N   0  0  0  0  0  0  0  0  0  0  0  0
   -1.0148   -0.0831    2.0249 H   0  0  0  0  0  0  0  0  0  0  0  0
    0.4909    0.3192    3.4867 C   0  0  0  0  0  0  0  0  0  0  0  0
    1.2613    1.0974    3.4755 H   0  0  0  0  0  0  0  0  0  0  0  0
   -0.3170    0.6457    4.1482 H   0  0  0  0  0  0  0  0  0  0  0  0
    0.9249   -0.5999    3.8943 H   0  0  0  0  0  0  0  0  0  0  0  0
  1  2  1  0  0  0  0
  2  3  1  0  0  0  0
  2  4  1  0  0  0  0
  2  5  1  0  0  0  0
  5  6  2  0  0  0  0
  5  7  1  0  0  0  0
  7  8  1  0  0  0  0
  7  9  1  0  0  0  0
  9 10  1  0  0  0  0
  9 11  1  0  0  0  0
  9 21  1  0  0  0  0
 11 12  1  0  0  0  0
 11 13  1  0  0  0  0
 11 14  1  0  0  0  0
 14 15  1  0  0  0  0
 14 16  1  0  0  0  0
 14 17  1  0  0  0  0
 17 18  2  0  0  0  0
 17 19  1  0  0  0  0
 19 20  1  0  0  0  0
 21 22  2  0  0  0  0
 21 23  1  0  0  0  0
 23 24  1  0  0  0  0
 23 25  1  0  0  0  0
 25 26  1  0  0  0  0
 25 27  1  0  0  0  0
 25 28  1  0  0  0  0
M  END
$$$$

  -OEChem-03222214033D

 28 27  0     1  0  0  0  0  0999 V2000
   -2.5938   -4.1815    0.1296 H   0  0  0  0  0  0  0  0  0  0  0  0
   -2.6012   -3.1641   -0.2719 C   0  0  0  0  0  0  0  0  0  0  0  0
   -3.3866   -2.5939    0.2300 H   0  0  0  0  0  0  0  0  0  0  0  0
   -2.8191   -3.2099   -1.3417 H   0  0  0  0  0  0  0  0  0  0  0  0
   -1.2539   -2.5047   -0.0459 C   0  0  0  0  0  0  0  0  0  0  0  0
   -0.3460   -3.1325    0.4682 O   0  0  0  0  0  0  0  0  0  0  0  0
   -1.0646   -1.1864   -0.4087 N   0  0  0  0  0  0  0  0  0  0  0  0
   -1.8532   -0.7065   -0.8359 H   0  0  0  0  0  0  0  0  0  0  0  0
    0.2140   -0.4621   -0.2898 C   0  0  1  0  0  0  0  0  0  0  0  0
    0.9448   -1.0906   -0.8129 H   0  0  0  0  0  0  0  0  0  0  0  0
    0.1403    0.8444   -1.1176 C   0  0  0  0  0  0  0  0  0  0  0  0
    1.0766    0.9329   -1.6794 H   0  0  0  0  0  0  0  0  0  0  0  0
   -0.6527    0.7450   -1.8667 H   0  0  0  0  0  0  0  0  0  0  0  0
   -0.0324    2.1620   -0.3227 C   0  0  0  0  0  0  0  0  0  0  0  0
   -0.3625    1.9808    0.6992 H   0  0  0  0  0  0  0  0  0  0  0  0
    0.9250    2.6886   -0.2687 H   0  0  0  0  0  0  0  0  0  0  0  0
   -1.0855    3.0681   -0.9497 C   0  0  0  0  0  0  0  0  0  0  0  0
   -2.2255    2.6452   -1.0463 O   0  0  0  0  0  0  0  0  0  0  0  0
   -0.7077    4.2919   -1.3753 O   0  0  0  0  0  0  0  0  0  0  0  0
   -1.5112    4.6989   -1.7338 H   0  0  0  0  0  0  0  0  0  0  0  0
    0.7970   -0.3513    1.1401 C   0  0  0  0  0  0  0  0  0  0  0  0
    2.0095   -0.2717    1.2840 O   0  0  0  0  0  0  0  0  0  0  0  0
   -0.0166   -0.0166    2.2087 N   0  0  0  0  0  0  0  0  0  0  0  0
   -1.0115   -0.1685    2.0757 H   0  0  0  0  0  0  0  0  0  0  0  0
    0.4915    0.1470    3.5655 C   0  0  0  0  0  0  0  0  0  0  0  0
    1.2147    0.9683    3.6080 H   0  0  0  0  0  0  0  0  0  0  0  0
   -0.3290    0.3750    4.2526 H   0  0  0  0  0  0  0  0  0  0  0  0
    0.9824   -0.7717    3.9039 H   0  0  0  0  0  0  0  0  0  0  0  0
  1  2  1  0  0  0  0
  2  3  1  0  0  0  0
  2  4  1  0  0  0  0
  2  5  1  0  0  0  0
  5  6  2  0  0  0  0
  5  7  1  0  0  0  0
  7  8  1  0  0  0  0
  7  9  1  0  0  0  0
  9 10  1  0  0  0  0
  9 11  1  0  0  0  0
  9 21  1  0  0  0  0
 11 12  1  0  0  0  0
 11 13  1  0  0  0  0
 11 14  1  0  0  0  0
 14 15  1  0  0  0  0
 14 16  1  0  0  0  0
 14 17  1  0  0  0  0
 17 18  2  0  0  0  0
 17 19  1  0  0  0  0
 19 20  1  0  0  0  0
 21 22  2  0  0  0  0
 21 23  1  0  0  0  0
 23 24  1  0  0  0  0
 23 25  1  0  0  0  0
 25 26  1  0  0  0  0
 25 27  1  0  0  0  0
 25 28  1  0  0  0  0
M  END
$$$$

  -OEChem-03222214033D

 28 27  0     1  0  0  0  0  0999 V2000
   -2.6310   -4.1384    0.1618 H   0  0  0  0  0  0  0  0  0  0  0  0
   -2.6312   -3.1107   -0.2123 C   0  0  0  0  0  0  0  0  0  0  0  0
   -3.3627   -2.5302    0.3547 H   0  0  0  0  0  0  0  0  0  0  0  0
   -2.9203   -3.1201   -1.2660 H   0  0  0  0  0  0  0  0  0  0  0  0
   -1.2511   -2.5000   -0.0600 C   0  0  0  0  0  0  0  0  0  0  0  0
   -0.3370   -3.1630    0.3961 O   0  0  0  0  0  0  0  0  0  0  0  0
   -1.0391   -1.1850   -0.4207 N   0  0  0  0  0  0  0  0  0  0  0  0
   -1.8447   -0.6596   -0.7540 H   0  0  0  0  0  0  0  0  0  0  0  0
    0.2503   -0.4812   -0.3036 C   0  0  1  0  0  0  0  0  0  0  0  0
    0.9755   -1.1112   -0.8322 H   0  0  0  0  0  0  0  0  0  0  0  0
    0.1640    0.8283   -1.1257 C   0  0  0  0  0  0  0  0  0  0  0  0
    1.1097    0.9101   -1.6723 H   0  0  0  0  0  0  0  0  0  0  0  0
   -0.6130    0.7345   -1.8926 H   0  0  0  0  0  0  0  0  0  0  0  0
    0.0038    2.1549   -0.3393 C   0  0  0  0  0  0  0  0  0  0  0  0
    0.0060    2.0210    0.7405 H   0  0  0  0  0  0  0  0  0  0  0  0
    0.8487    2.8083   -0.5757 H   0  0  0  0  0  0  0  0  0  0  0  0
   -1.2837    2.8790   -0.7168 C   0  0  0  0  0  0  0  0  0  0  0  0
   -2.3300    2.2512   -0.6767 O   0  0  0  0  0  0  0  0  0  0  0  0
   -1.2090    4.1777   -1.0766 O   0  0  0  0  0  0  0  0  0  0  0  0
   -2.1210    4.4449   -1.2675 H   0  0  0  0  0  0  0  0  0  0  0  0
    0.8240   -0.3892    1.1306 C   0  0  0  0  0  0  0  0  0  0  0  0
    2.0360   -0.3335    1.2884 O   0  0  0  0  0  0  0  0  0  0  0  0
    0.0037   -0.0465    2.1917 N   0  0  0  0  0  0  0  0  0  0  0  0
   -0.9943   -0.1550    2.0404 H   0  0  0  0  0  0  0  0  0  0  0  0
    0.4960    0.1098    3.5548 C   0  0  0  0  0  0  0  0  0  0  0  0
    1.2417    0.9104    3.6041 H   0  0  0  0  0  0  0  0  0  0  0  0
   -0.3278    0.3646    4.2284 H   0  0  0  0  0  0  0  0  0  0  0  0
    0.9558   -0.8209    3.9040 H   0  0  0  0  0  0  0  0  0  0  0  0
  1  2  1  0  0  0  0
  2  3  1  0  0  0  0
  2  4  1  0  0  0  0
  2  5  1  0  0  0  0
  5  6  2  0  0  0  0
  5  7  1  0  0  0  0
  7  8  1  0  0  0  0
  7  9  1  0  0  0  0
  9 10  1  0  0  0  0
  9 11  1  0  0  0  0
  9 21  1  0  0  0  0
 11 12  1  0  0  0  0
 11 13  1  0  0  0  0
 11 14  1  0  0  0  0
 14 15  1  0  0  0  0
 14 16  1  0  0  0  0
 14 17  1  0  0  0  0
 17 18  2  0  0  0  0
 17 19  1  0  0  0  0
 19 20  1  0  0  0  0
 21 22  2  0  0  0  0
 21 23  1  0  0  0  0
 23 24  1  0  0  0  0
 23 25  1  0  0  0  0
 25 26  1  0  0  0  0
 25 27  1  0  0  0  0
 25 28  1  0  0  0  0
M  END
$$$$

  -OEChem-03222214033D

 28 27  0     1  0  0  0  0  0999 V2000
   -2.6702   -4.0726    0.2610 H   0  0  0  0  0  0  0  0  0  0  0  0
   -2.6511   -3.0540   -0.1367 C   0  0  0  0  0  0  0  0  0  0  0  0
   -3.3215   -2.4310    0.4601 H   0  0  0  0  0  0  0  0  0  0  0  0
   -3.0056   -3.0727   -1.1701 H   0  0  0  0  0  0  0  0  0  0  0  0
   -1.2400   -2.4992   -0.0841 C   0  0  0  0  0  0  0  0  0  0  0  0
   -0.3214   -3.2006    0.3005 O   0  0  0  0  0  0  0  0  0  0  0  0
   -1.0039   -1.1930   -0.4606 N   0  0  0  0  0  0  0  0  0  0  0  0
   -1.8200   -0.6202   -0.6707 H   0  0  0  0  0  0  0  0  0  0  0  0
    0.2979   -0.5136   -0.3426 C   0  0  1  0  0  0  0  0  0  0  0  0
    1.0217   -1.1443   -0.8725 H   0  0  0  0  0  0  0  0  0  0  0  0
    0.1970    0.8044   -1.1493 C   0  0  0  0  0  0  0  0  0  0  0  0
    1.1438    0.8890   -1.6939 H   0  0  0  0  0  0  0  0  0  0  0  0
   -0.5822    0.7312   -1.9164 H   0  0  0  0  0  0  0  0  0  0  0  0
    0.0525    2.1181   -0.3417 C   0  0  0  0  0  0  0  0  0  0  0  0
    0.3787    2.0425    0.6948 H   0  0  0  0  0  0  0  0  0  0  0  0
    0.6923    2.8734   -0.8069 H   0  0  0  0  0  0  0  0  0  0  0  0
   -1.3780    2.6444   -0.3987 C   0  0  0  0  0  0  0  0  0  0  0  0
   -2.2911    1.8510   -0.2230 O   0  0  0  0  0  0  0  0  0  0  0  0
   -1.5698    3.9589   -0.6393 O   0  0  0  0  0  0  0  0  0  0  0  0
   -2.5306    4.0876   -0.6318 H   0  0  0  0  0  0  0  0  0  0  0  0
    0.8455   -0.4247    1.1009 C   0  0  0  0  0  0  0  0  0  0  0  0
    2.0541   -0.4070    1.2901 O   0  0  0  0  0  0  0  0  0  0  0  0
    0.0057   -0.0555    2.1376 N   0  0  0  0  0  0  0  0  0  0  0  0
   -0.9916   -0.0809    1.9466 H   0  0  0  0  0  0  0  0  0  0  0  0
    0.4621    0.1241    3.5099 C   0  0  0  0  0  0  0  0  0  0  0  0
    1.2103    0.9218    3.5638 H   0  0  0  0  0  0  0  0  0  0  0  0
   -0.3779    0.3954    4.1563 H   0  0  0  0  0  0  0  0  0  0  0  0
    0.9067   -0.8022    3.8888 H   0  0  0  0  0  0  0  0  0  0  0  0
  1  2  1  0  0  0  0
  2  3  1  0  0  0  0
  2  4  1  0  0  0  0
  2  5  1  0  0  0  0
  5  6  2  0  0  0  0
  5  7  1  0  0  0  0
  7  8  1  0  0  0  0
  7  9  1  0  0  0  0
  9 10  1  0  0  0  0
  9 11  1  0  0  0  0
  9 21  1  0  0  0  0
 11 12  1  0  0  0  0
 11 13  1  0  0  0  0
 11 14  1  0  0  0  0
 14 15  1  0  0  0  0
 14 16  1  0  0  0  0
 14 17  1  0  0  0  0
 17 18  2  0  0  0  0
 17 19  1  0  0  0  0
 19 20  1  0  0  0  0
 21 22  2  0  0  0  0
 21 23  1  0  0  0  0
 23 24  1  0  0  0  0
 23 25  1  0  0  0  0
 25 26  1  0  0  0  0
 25 27  1  0  0  0  0
 25 28  1  0  0  0  0
M  END
$$$$

  -OEChem-03222214033D

 28 27  0     1  0  0  0  0  0999 V2000
   -2.6560   -4.0480    0.3585 H   0  0  0  0  0  0  0  0  0  0  0  0
   -2.6424   -3.0351   -0.0536 C   0  0  0  0  0  0  0  0  0  0  0  0
   -3.2459   -2.3872    0.5866 H   0  0  0  0  0  0  0  0  0  0  0  0
   -3.0791   -3.0565   -1.0550 H   0  0  0  0  0  0  0  0  0  0  0  0
   -1.2178   -2.5183   -0.1220 C   0  0  0  0  0  0  0  0  0  0  0  0
   -0.2894   -3.2469    0.1807 O   0  0  0  0  0  0  0  0  0  0  0  0
   -0.9806   -1.2181   -0.5189 N   0  0  0  0  0  0  0  0  0  0  0  0
   -1.8006   -0.6179   -0.5981 H   0  0  0  0  0  0  0  0  0  0  0  0
    0.3267   -0.5509   -0.3936 C   0  0  1  0  0  0  0  0  0  0  0  0
    1.0569   -1.1793   -0.9170 H   0  0  0  0  0  0  0  0  0  0  0  0
    0.2312    0.7817   -1.1797 C   0  0  0  0  0  0  0  0  0  0  0  0
    1.1716    0.8720   -1.7341 H   0  0  0  0  0  0  0  0  0  0  0  0
   -0.5639    0.7354   -1.9325 H   0  0  0  0  0  0  0  0  0  0  0  0
    0.0997    2.0717   -0.3362 C   0  0  0  0  0  0  0  0  0  0  0  0
    0.6728    2.0429    0.5921 H   0  0  0  0  0  0  0  0  0  0  0  0
    0.5139    2.8967   -0.9223 H   0  0  0  0  0  0  0  0  0  0  0  0
   -1.3601    2.4190   -0.0536 C   0  0  0  0  0  0  0  0  0  0  0  0
   -2.1353    1.5129    0.2192 O   0  0  0  0  0  0  0  0  0  0  0  0
   -1.7257    3.7169   -0.1118 O   0  0  0  0  0  0  0  0  0  0  0  0
   -2.6709    3.7337    0.1027 H   0  0  0  0  0  0  0  0  0  0  0  0
    0.8399   -0.4569    1.0621 C   0  0  0  0  0  0  0  0  0  0  0  0
    2.0417   -0.4741    1.2902 O   0  0  0  0  0  0  0  0  0  0  0  0
   -0.0246   -0.0672    2.0705 N   0  0  0  0  0  0  0  0  0  0  0  0
   -1.0029    0.0525    1.8173 H   0  0  0  0  0  0  0  0  0  0  0  0
    0.3946    0.1738    3.4447 C   0  0  0  0  0  0  0  0  0  0  0  0
    1.1109    1.0008    3.4880 H   0  0  0  0  0  0  0  0  0  0  0  0
   -0.4699    0.4308    4.0644 H   0  0  0  0  0  0  0  0  0  0  0  0
    0.8655   -0.7224    3.8627 H   0  0  0  0  0  0  0  0  0  0  0  0
  1  2  1  0  0  0  0
  2  3  1  0  0  0  0
  2  4  1  0  0  0  0
  2  5  1  0  0  0  0
  5  6  2  0  0  0  0
  5  7  1  0  0  0  0
  7  8  1  0  0  0  0
  7  9  1  0  0  0  0
  9 10  1  0  0  0  0
  9 11  1  0  0  0  0
  9 21  1  0  0  0  0
 11 12  1  0  0  0  0
 11 13  1  0  0  0  0
 11 14  1  0  0  0  0
 14 15  1  0  0  0  0
 14 16  1  0  0  0  0
 14 17  1  0  0  0  0
 17 18  2  0  0  0  0
 17 19  1  0  0  0  0
 19 20  1  0  0  0  0
 21 22  2  0  0  0  0
 21 23  1  0  0  0  0
 23 24  1  0  0  0  0
 23 25  1  0  0  0  0
 25 26  1  0  0  0  0
 25 27  1  0  0  0  0
 25 28  1  0  0  0  0
M  END
$$$$

  -OEChem-03222214033D

 28 27  0     1  0  0  0  0  0999 V2000
   -2.6334   -4.1000    0.3626 H   0  0  0  0  0  0  0  0  0  0  0  0
   -2.6301   -3.0867   -0.0491 C   0  0  0  0  0  0  0  0  0  0  0  0
   -3.2405   -2.4449    0.5908 H   0  0  0  0  0  0  0  0  0  0  0  0
   -3.0652   -3.1117   -1.0511 H   0  0  0  0  0  0  0  0  0  0  0  0
   -1.2110   -2.5555   -0.1159 C   0  0  0  0  0  0  0  0  0  0  0  0
   -0.2762   -3.2708    0.1986 O   0  0  0  0  0  0  0  0  0  0  0  0
   -0.9859   -1.2569   -0.5238 N   0  0  0  0  0  0  0  0  0  0  0  0
   -1.8111   -0.6622   -0.5942 H   0  0  0  0  0  0  0  0  0  0  0  0
    0.3123   -0.5748   -0.3927 C   0  0  1  0  0  0  0  0  0  0  0  0
    1.0478   -1.2115   -0.8984 H   0  0  0  0  0  0  0  0  0  0  0  0
    0.2462    0.7468   -1.2014 C   0  0  0  0  0  0  0  0  0  0  0  0
    1.1910    0.8245   -1.7502 H   0  0  0  0  0  0  0  0  0  0  0  0
   -0.5479    0.6923   -1.9543 H   0  0  0  0  0  0  0  0  0  0  0  0
    0.1019    2.0521   -0.3834 C   0  0  0  0  0  0  0  0  0  0  0  0
    0.8376    2.0961    0.4237 H   0  0  0  0  0  0  0  0  0  0  0  0
    0.3175    2.8924   -1.0486 H   0  0  0  0  0  0  0  0  0  0  0  0
   -1.2976    2.2853    0.1926 C   0  0  0  0  0  0  0  0  0  0  0  0
   -2.0831    1.3530    0.2910 O   0  0  0  0  0  0  0  0  0  0  0  0
   -1.5956    3.5440    0.5775 O   0  0  0  0  0  0  0  0  0  0  0  0
   -2.5049    3.5099    0.9115 H   0  0  0  0  0  0  0  0  0  0  0  0
    0.8271   -0.4517    1.0606 C   0  0  0  0  0  0  0  0  0  0  0  0
    2.0303   -0.4452    1.2827 O   0  0  0  0  0  0  0  0  0  0  0  0
   -0.0353   -0.0574    2.0679 N   0  0  0  0  0  0  0  0  0  0  0  0
   -1.0178    0.0388    1.8186 H   0  0  0  0  0  0  0  0  0  0  0  0
    0.3899    0.2184    3.4336 C   0  0  0  0  0  0  0  0  0  0  0  0
    1.0961    1.0551    3.4535 H   0  0  0  0  0  0  0  0  0  0  0  0
   -0.4733    0.4779    4.0537 H   0  0  0  0  0  0  0  0  0  0  0  0
    0.8750   -0.6627    3.8668 H   0  0  0  0  0  0  0  0  0  0  0  0
  1  2  1  0  0  0  0
  2  3  1  0  0  0  0
  2  4  1  0  0  0  0
  2  5  1  0  0  0  0
  5  6  2  0  0  0  0
  5  7  1  0  0  0  0
  7  8  1  0  0  0  0
  7  9  1  0  0  0  0
  9 10  1  0  0  0  0
  9 11  1  0  0  0  0
  9 21  1  0  0  0  0
 11 12  1  0  0  0  0
 11 13  1  0  0  0  0
 11 14  1  0  0  0  0
 14 15  1  0  0  0  0
 14 16  1  0  0  0  0
 14 17  1  0  0  0  0
 17 18  2  0  0  0  0
 17 19  1  0  0  0  0
 19 20  1  0  0  0  0
 21 22  2  0  0  0  0
 21 23  1  0  0  0  0
 23 24  1  0  0  0  0
 23 25  1  0  0  0  0
 25 26  1  0  0  0  0
 25 27  1  0  0  0  0
 25 28  1  0  0  0  0
M  END
$$$$

  -OEChem-03222214033D

 28 27  0     1  0  0  0  0  0999 V2000
   -2.6167   -4.1524    0.3266 H   0  0  0  0  0  0  0  0  0  0  0  0
   -2.6224   -3.1336   -0.0712 C   0  0  0  0  0  0  0  0  0  0  0  0
   -3.2545   -2.5105    0.5658 H   0  0  0  0  0  0  0  0  0  0  0  0
   -3.0394   -3.1522   -1.0809 H   0  0  0  0  0  0  0  0  0  0  0  0
   -1.2112   -2.5786   -0.1058 C   0  0  0  0  0  0  0  0  0  0  0  0
   -0.2721   -3.2785    0.2299 O   0  0  0  0  0  0  0  0  0  0  0  0
   -0.9991   -1.2752   -0.5049 N   0  0  0  0  0  0  0  0  0  0  0  0
   -1.8308   -0.6924   -0.5942 H   0  0  0  0  0  0  0  0  0  0  0  0
    0.2890   -0.5764   -0.3664 C   0  0  1  0  0  0  0  0  0  0  0  0
    1.0247   -1.2249   -0.8569 H   0  0  0  0  0  0  0  0  0  0  0  0
    0.2584    0.7243   -1.2100 C   0  0  0  0  0  0  0  0  0  0  0  0
    1.2099    0.7816   -1.7496 H   0  0  0  0  0  0  0  0  0  0  0  0
   -0.5279    0.6487   -1.9689 H   0  0  0  0  0  0  0  0  0  0  0  0
    0.0951    2.0594   -0.4456 C   0  0  0  0  0  0  0  0  0  0  0  0
    0.9481    2.1954    0.2261 H   0  0  0  0  0  0  0  0  0  0  0  0
    0.1184    2.8807   -1.1663 H   0  0  0  0  0  0  0  0  0  0  0  0
   -1.1859    2.2033    0.3814 C   0  0  0  0  0  0  0  0  0  0  0  0
   -2.0538    1.3433    0.3290 O   0  0  0  0  0  0  0  0  0  0  0  0
   -1.2962    3.3149    1.1385 O   0  0  0  0  0  0  0  0  0  0  0  0
   -2.1596    3.2537    1.5741 H   0  0  0  0  0  0  0  0  0  0  0  0
    0.8202   -0.4411    1.0805 C   0  0  0  0  0  0  0  0  0  0  0  0
    2.0269   -0.4065    1.2803 O   0  0  0  0  0  0  0  0  0  0  0  0
   -0.0273   -0.0588    2.1040 N   0  0  0  0  0  0  0  0  0  0  0  0
   -1.0191   -0.0103    1.8815 H   0  0  0  0  0  0  0  0  0  0  0  0
    0.4191    0.2247    3.4614 C   0  0  0  0  0  0  0  0  0  0  0  0
    1.1068    1.0769    3.4683 H   0  0  0  0  0  0  0  0  0  0  0  0
   -0.4368    0.4648    4.0990 H   0  0  0  0  0  0  0  0  0  0  0  0
    0.9319   -0.6457    3.8840 H   0  0  0  0  0  0  0  0  0  0  0  0
  1  2  1  0  0  0  0
  2  3  1  0  0  0  0
  2  4  1  0  0  0  0
  2  5  1  0  0  0  0
  5  6  2  0  0  0  0
  5  7  1  0  0  0  0
  7  8  1  0  0  0  0
  7  9  1  0  0  0  0
  9 10  1  0  0  0  0
  9 11  1  0  0  0  0
  9 21  1  0  0  0  0
 11 12  1  0  0  0  0
 11 13  1  0  0  0  0
 11 14  1  0  0  0  0
 14 15  1  0  0  0  0
 14 16  1  0  0  0  0
 14 17  1  0  0  0  0
 17 18  2  0  0  0  0
 17 19  1  0  0  0  0
 19 20  1  0  0  0  0
 21 22  2  0  0  0  0
 21 23  1  0  0  0  0
 23 24  1  0  0  0  0
 23 25  1  0  0  0  0
 25 26  1  0  0  0  0
 25 27  1  0  0  0  0
 25 28  1  0  0  0  0
M  END
$$$$

  -OEChem-03222214033D

 28 27  0     1  0  0  0  0  0999 V2000
   -2.4887   -4.2642    0.2936 H   0  0  0  0  0  0  0  0  0  0  0  0
   -2.5406   -3.2324   -0.0657 C   0  0  0  0  0  0  0  0  0  0  0  0
   -3.1808   -2.6576    0.6077 H   0  0  0  0  0  0  0  0  0  0  0  0
   -2.9789   -3.2296   -1.0666 H   0  0  0  0  0  0  0  0  0  0  0  0
   -1.1517   -2.6240   -0.1075 C   0  0  0  0  0  0  0  0  0  0  0  0
   -0.1825   -3.2954    0.1999 O   0  0  0  0  0  0  0  0  0  0  0  0
   -0.9953   -1.3032   -0.4747 N   0  0  0  0  0  0  0  0  0  0  0  0
   -1.8499   -0.7528   -0.5445 H   0  0  0  0  0  0  0  0  0  0  0  0
    0.2656   -0.5573   -0.3316 C   0  0  1  0  0  0  0  0  0  0  0  0
    1.0116   -1.1952   -0.8208 H   0  0  0  0  0  0  0  0  0  0  0  0
    0.2333    0.7216   -1.2081 C   0  0  0  0  0  0  0  0  0  0  0  0
    1.1894    0.7800   -1.7397 H   0  0  0  0  0  0  0  0  0  0  0  0
   -0.5420    0.5991   -1.9719 H   0  0  0  0  0  0  0  0  0  0  0  0
    0.0192    2.0894   -0.5162 C   0  0  0  0  0  0  0  0  0  0  0  0
    0.9529    2.3639   -0.0161 H   0  0  0  0  0  0  0  0  0  0  0  0
   -0.1794    2.8500   -1.2754 H   0  0  0  0  0  0  0  0  0  0  0  0
   -1.0877    2.1633    0.5369 C   0  0  0  0  0  0  0  0  0  0  0  0
   -2.0031    1.3525    0.5116 O   0  0  0  0  0  0  0  0  0  0  0  0
   -1.0111    3.1623    1.4415 O   0  0  0  0  0  0  0  0  0  0  0  0
   -1.7960    3.0731    2.0022 H   0  0  0  0  0  0  0  0  0  0  0  0
    0.8298   -0.4234    1.1034 C   0  0  0  0  0  0  0  0  0  0  0  0
    2.0396   -0.3364    1.2651 O   0  0  0  0  0  0  0  0  0  0  0  0
    0.0045   -0.0955    2.1628 N   0  0  0  0  0  0  0  0  0  0  0  0
   -0.9924   -0.0439    1.9645 H   0  0  0  0  0  0  0  0  0  0  0  0
    0.4896    0.2347    3.4965 C   0  0  0  0  0  0  0  0  0  0  0  0
    1.0814    1.1556    3.4714 H   0  0  0  0  0  0  0  0  0  0  0  0
   -0.3523    0.3806    4.1797 H   0  0  0  0  0  0  0  0  0  0  0  0
    1.1144   -0.5754    3.8875 H   0  0  0  0  0  0  0  0  0  0  0  0
  1  2  1  0  0  0  0
  2  3  1  0  0  0  0
  2  4  1  0  0  0  0
  2  5  1  0  0  0  0
  5  6  2  0  0  0  0
  5  7  1  0  0  0  0
  7  8  1  0  0  0  0
  7  9  1  0  0  0  0
  9 10  1  0  0  0  0
  9 11  1  0  0  0  0
  9 21  1  0  0  0  0
 11 12  1  0  0  0  0
 11 13  1  0  0  0  0
 11 14  1  0  0  0  0
 14 15  1  0  0  0  0
 14 16  1  0  0  0  0
 14 17  1  0  0  0  0
 17 18  2  0  0  0  0
 17 19  1  0  0  0  0
 19 20  1  0  0  0  0
 21 22  2  0  0  0  0
 21 23  1  0  0  0  0
 23 24  1  0  0  0  0
 23 25  1  0  0  0  0
 25 26  1  0  0  0  0
 25 27  1  0  0  0  0
 25 28  1  0  0  0  0
M  END
$$$$

  -OEChem-03222214033D

 28 27  0     1  0  0  0  0  0999 V2000
   -2.8794   -4.1005    0.1262 H   0  0  0  0  0  0  0  0  0  0  0  0
   -2.8184   -3.0631   -0.2146 C   0  0  0  0  0  0  0  0  0  0  0  0
   -3.4562   -2.4457    0.4226 H   0  0  0  0  0  0  0  0  0  0  0  0
   -3.1807   -3.0086   -1.2440 H   0  0  0  0  0  0  0  0  0  0  0  0
   -1.3842   -2.5743   -0.1443 C   0  0  0  0  0  0  0  0  0  0  0  0
   -0.4973   -3.3332    0.2062 O   0  0  0  0  0  0  0  0  0  0  0  0
   -1.0919   -1.2642   -0.4657 N   0  0  0  0  0  0  0  0  0  0  0  0
   -1.8915   -0.6436   -0.5799 H   0  0  0  0  0  0  0  0  0  0  0  0
    0.2118   -0.6313   -0.2102 C   0  0  1  0  0  0  0  0  0  0  0  0
    0.9243   -1.3517   -0.6303 H   0  0  0  0  0  0  0  0  0  0  0  0
    0.4136    0.6120   -1.1184 C   0  0  0  0  0  0  0  0  0  0  0  0
    1.4178    0.5454   -1.5513 H   0  0  0  0  0  0  0  0  0  0  0  0
   -0.2893    0.5309   -1.9544 H   0  0  0  0  0  0  0  0  0  0  0  0
    0.2722    2.0342   -0.5210 C   0  0  0  0  0  0  0  0  0  0  0  0
    1.2599    2.3355   -0.1619 H   0  0  0  0  0  0  0  0  0  0  0  0
   -0.0155    2.7327   -1.3115 H   0  0  0  0  0  0  0  0  0  0  0  0
   -0.7042    2.1913    0.6420 C   0  0  0  0  0  0  0  0  0  0  0  0
   -1.7829    1.6213    0.5496 O   0  0  0  0  0  0  0  0  0  0  0  0
   -0.3268    2.9477    1.7067 O   0  0  0  0  0  0  0  0  0  0  0  0
    0.5855    3.2430    1.5837 H   0  0  0  0  0  0  0  0  0  0  0  0
    0.6843   -0.5681    1.2639 C   0  0  0  0  0  0  0  0  0  0  0  0
    1.8865   -0.5384    1.4942 O   0  0  0  0  0  0  0  0  0  0  0  0
   -0.1752   -0.1914    2.2792 N   0  0  0  0  0  0  0  0  0  0  0  0
   -1.1312    0.0336    2.0062 H   0  0  0  0  0  0  0  0  0  0  0  0
    0.2580    0.1243    3.6343 C   0  0  0  0  0  0  0  0  0  0  0  0
    0.9302    0.9884    3.6313 H   0  0  0  0  0  0  0  0  0  0  0  0
   -0.6076    0.3608    4.2606 H   0  0  0  0  0  0  0  0  0  0  0  0
    0.7817   -0.7294    4.0773 H   0  0  0  0  0  0  0  0  0  0  0  0
  1  2  1  0  0  0  0
  2  3  1  0  0  0  0
  2  4  1  0  0  0  0
  2  5  1  0  0  0  0
  5  6  2  0  0  0  0
  5  7  1  0  0  0  0
  7  8  1  0  0  0  0
  7  9  1  0  0  0  0
  9 10  1  0  0  0  0
  9 11  1  0  0  0  0
  9 21  1  0  0  0  0
 11 12  1  0  0  0  0
 11 13  1  0  0  0  0
 11 14  1  0  0  0  0
 14 15  1  0  0  0  0
 14 16  1  0  0  0  0
 14 17  1  0  0  0  0
 17 18  2  0  0  0  0
 17 19  1  0  0  0  0
 19 20  1  0  0  0  0
 21 22  2  0  0  0  0
 21 23  1  0  0  0  0
 23 24  1  0  0  0  0
 23 25  1  0  0  0  0
 25 26  1  0  0  0  0
 25 27  1  0  0  0  0
 25 28  1  0  0  0  0
M  END
$$$$

  -OEChem-03222214033D

 28 27  0     1  0  0  0  0  0999 V2000
   -2.4145   -4.3558    0.2070 H   0  0  0  0  0  0  0  0  0  0  0  0
   -2.4959   -3.3102   -0.1033 C   0  0  0  0  0  0  0  0  0  0  0  0
   -3.1645   -2.7903    0.5870 H   0  0  0  0  0  0  0  0  0  0  0  0
   -2.9198   -3.2740   -1.1097 H   0  0  0  0  0  0  0  0  0  0  0  0
   -1.1276   -2.6556   -0.0933 C   0  0  0  0  0  0  0  0  0  0  0  0
   -0.1438   -3.3084    0.2073 O   0  0  0  0  0  0  0  0  0  0  0  0
   -1.0075   -1.3170   -0.4098 N   0  0  0  0  0  0  0  0  0  0  0  0
   -1.8758   -0.7990   -0.5167 H   0  0  0  0  0  0  0  0  0  0  0  0
    0.2339   -0.5412   -0.2482 C   0  0  1  0  0  0  0  0  0  0  0  0
    0.9823   -1.1905   -0.7194 H   0  0  0  0  0  0  0  0  0  0  0  0
    0.2447    0.6897   -1.1972 C   0  0  0  0  0  0  0  0  0  0  0  0
    1.2293    0.7097   -1.6780 H   0  0  0  0  0  0  0  0  0  0  0  0
   -0.4793    0.4974   -1.9958 H   0  0  0  0  0  0  0  0  0  0  0  0
   -0.0124    2.1275   -0.6733 C   0  0  0  0  0  0  0  0  0  0  0  0
    0.9508    2.6462   -0.6483 H   0  0  0  0  0  0  0  0  0  0  0  0
   -0.6440    2.6619   -1.3878 H   0  0  0  0  0  0  0  0  0  0  0  0
   -0.6254    2.2904    0.7102 C   0  0  0  0  0  0  0  0  0  0  0  0
   -1.6785    1.7140    0.9406 O   0  0  0  0  0  0  0  0  0  0  0  0
   -0.0063    3.0966    1.5986 O   0  0  0  0  0  0  0  0  0  0  0  0
   -0.5488    3.0730    2.4004 H   0  0  0  0  0  0  0  0  0  0  0  0
    0.8250   -0.4340    1.1808 C   0  0  0  0  0  0  0  0  0  0  0  0
    2.0392   -0.3687    1.3183 O   0  0  0  0  0  0  0  0  0  0  0  0
    0.0293   -0.1653    2.2793 N   0  0  0  0  0  0  0  0  0  0  0  0
   -0.9603   -0.0099    2.0956 H   0  0  0  0  0  0  0  0  0  0  0  0
    0.5588    0.1064    3.6095 C   0  0  0  0  0  0  0  0  0  0  0  0
    1.1563    1.0238    3.6041 H   0  0  0  0  0  0  0  0  0  0  0  0
   -0.2599    0.2275    4.3250 H   0  0  0  0  0  0  0  0  0  0  0  0
    1.1899   -0.7232    3.9459 H   0  0  0  0  0  0  0  0  0  0  0  0
  1  2  1  0  0  0  0
  2  3  1  0  0  0  0
  2  4  1  0  0  0  0
  2  5  1  0  0  0  0
  5  6  2  0  0  0  0
  5  7  1  0  0  0  0
  7  8  1  0  0  0  0
  7  9  1  0  0  0  0
  9 10  1  0  0  0  0
  9 11  1  0  0  0  0
  9 21  1  0  0  0  0
 11 12  1  0  0  0  0
 11 13  1  0  0  0  0
 11 14  1  0  0  0  0
 14 15  1  0  0  0  0
 14 16  1  0  0  0  0
 14 17  1  0  0  0  0
 17 18  2  0  0  0  0
 17 19  1  0  0  0  0
 19 20  1  0  0  0  0
 21 22  2  0  0  0  0
 21 23  1  0  0  0  0
 23 24  1  0  0  0  0
 23 25  1  0  0  0  0
 25 26  1  0  0  0  0
 25 27  1  0  0  0  0
 25 28  1  0  0  0  0
M  END
$$$$

  -OEChem-03222214033D

 28 27  0     1  0  0  0  0  0999 V2000
   -3.0796   -3.9376    0.2441 H   0  0  0  0  0  0  0  0  0  0  0  0
   -2.9510   -2.9142   -0.1203 C   0  0  0  0  0  0  0  0  0  0  0  0
   -3.6047   -2.2524    0.4529 H   0  0  0  0  0  0  0  0  0  0  0  0
   -3.2381   -2.8784   -1.1740 H   0  0  0  0  0  0  0  0  0  0  0  0
   -1.5054   -2.4828    0.0378 C   0  0  0  0  0  0  0  0  0  0  0  0
   -0.6857   -3.2604    0.4912 O   0  0  0  0  0  0  0  0  0  0  0  0
   -1.1269   -1.2056   -0.3263 N   0  0  0  0  0  0  0  0  0  0  0  0
   -1.8613   -0.5824   -0.6481 H   0  0  0  0  0  0  0  0  0  0  0  0
    0.2366   -0.6655   -0.1759 C   0  0  1  0  0  0  0  0  0  0  0  0
    0.8554   -1.4624   -0.6074 H   0  0  0  0  0  0  0  0  0  0  0  0
    0.4737    0.5006   -1.1770 C   0  0  0  0  0  0  0  0  0  0  0  0
    1.4641    0.3142   -1.6078 H   0  0  0  0  0  0  0  0  0  0  0  0
   -0.2372    0.3915   -2.0025 H   0  0  0  0  0  0  0  0  0  0  0  0
    0.4880    1.9974   -0.7587 C   0  0  0  0  0  0  0  0  0  0  0  0
    1.4532    2.4201   -1.0552 H   0  0  0  0  0  0  0  0  0  0  0  0
   -0.2754    2.5186   -1.3421 H   0  0  0  0  0  0  0  0  0  0  0  0
    0.2574    2.3809    0.6959 C   0  0  0  0  0  0  0  0  0  0  0  0
    1.1770    2.8549    1.3347 O   0  0  0  0  0  0  0  0  0  0  0  0
   -1.0026    2.2779    1.1776 O   0  0  0  0  0  0  0  0  0  0  0  0
   -0.9388    2.6499    2.0722 H   0  0  0  0  0  0  0  0  0  0  0  0
    0.8210   -0.6116    1.2569 C   0  0  0  0  0  0  0  0  0  0  0  0
    2.0224   -0.7791    1.4144 O   0  0  0  0  0  0  0  0  0  0  0  0
    0.0709   -0.1552    2.3246 N   0  0  0  0  0  0  0  0  0  0  0  0
   -0.9061    0.0528    2.1446 H   0  0  0  0  0  0  0  0  0  0  0  0
    0.6236    0.0737    3.6537 C   0  0  0  0  0  0  0  0  0  0  0  0
    1.4132    0.8318    3.6141 H   0  0  0  0  0  0  0  0  0  0  0  0
   -0.1580    0.4231    4.3346 H   0  0  0  0  0  0  0  0  0  0  0  0
    1.0452   -0.8529    4.0572 H   0  0  0  0  0  0  0  0  0  0  0  0
  1  2  1  0  0  0  0
  2  3  1  0  0  0  0
  2  4  1  0  0  0  0
  2  5  1  0  0  0  0
  5  6  2  0  0  0  0
  5  7  1  0  0  0  0
  7  8  1  0  0  0  0
  7  9  1  0  0  0  0
  9 10  1  0  0  0  0
  9 11  1  0  0  0  0
  9 21  1  0  0  0  0
 11 12  1  0  0  0  0
 11 13  1  0  0  0  0
 11 14  1  0  0  0  0
 14 15  1  0  0  0  0
 14 16  1  0  0  0  0
 14 17  1  0  0  0  0
 17 18  2  0  0  0  0
 17 19  1  0  0  0  0
 19 20  1  0  0  0  0
 21 22  2  0  0  0  0
 21 23  1  0  0  0  0
 23 24  1  0  0  0  0
 23 25  1  0  0  0  0
 25 26  1  0  0  0  0
 25 27  1  0  0  0  0
 25 28  1  0  0  0  0
M  END
$$$$

  -OEChem-03222214033D

 28 27  0     1  0  0  0  0  0999 V2000
   -3.0544   -3.8872   -0.0143 H   0  0  0  0  0  0  0  0  0  0  0  0
   -2.9358   -2.8401   -0.3079 C   0  0  0  0  0  0  0  0  0  0  0  0
   -3.5878   -2.2246    0.3163 H   0  0  0  0  0  0  0  0  0  0  0  0
   -3.2339   -2.7329   -1.3537 H   0  0  0  0  0  0  0  0  0  0  0  0
   -1.4913   -2.4106   -0.1336 C   0  0  0  0  0  0  0  0  0  0  0  0
   -0.6622   -3.2137    0.2524 O   0  0  0  0  0  0  0  0  0  0  0  0
   -1.1254   -1.1076   -0.4104 N   0  0  0  0  0  0  0  0  0  0  0  0
   -1.8640   -0.4759   -0.7039 H   0  0  0  0  0  0  0  0  0  0  0  0
    0.2409   -0.5732   -0.2587 C   0  0  1  0  0  0  0  0  0  0  0  0
    0.8601   -1.3157   -0.7781 H   0  0  0  0  0  0  0  0  0  0  0  0
    0.4017    0.6900   -1.1546 C   0  0  0  0  0  0  0  0  0  0  0  0
    1.3868    0.5673   -1.6194 H   0  0  0  0  0  0  0  0  0  0  0  0
   -0.3235    0.6385   -1.9734 H   0  0  0  0  0  0  0  0  0  0  0  0
    0.4123    2.1458   -0.6108 C   0  0  0  0  0  0  0  0  0  0  0  0
    1.1819    2.7085   -1.1481 H   0  0  0  0  0  0  0  0  0  0  0  0
   -0.5467    2.5992   -0.8747 H   0  0  0  0  0  0  0  0  0  0  0  0
    0.6040    2.4116    0.8744 C   0  0  0  0  0  0  0  0  0  0  0  0
    1.7263    2.6183    1.2923 O   0  0  0  0  0  0  0  0  0  0  0  0
   -0.5031    2.5003    1.6448 O   0  0  0  0  0  0  0  0  0  0  0  0
   -0.1572    2.7144    2.5260 H   0  0  0  0  0  0  0  0  0  0  0  0
    0.8466   -0.6347    1.1649 C   0  0  0  0  0  0  0  0  0  0  0  0
    2.0394   -0.8687    1.2980 O   0  0  0  0  0  0  0  0  0  0  0  0
    0.1135   -0.2677    2.2787 N   0  0  0  0  0  0  0  0  0  0  0  0
   -0.8673   -0.0489    2.1376 H   0  0  0  0  0  0  0  0  0  0  0  0
    0.6628   -0.2656    3.6285 C   0  0  0  0  0  0  0  0  0  0  0  0
    1.5115    0.4235    3.6946 H   0  0  0  0  0  0  0  0  0  0  0  0
   -0.0977    0.0514    4.3481 H   0  0  0  0  0  0  0  0  0  0  0  0
    1.0029   -1.2695    3.9036 H   0  0  0  0  0  0  0  0  0  0  0  0
  1  2  1  0  0  0  0
  2  3  1  0  0  0  0
  2  4  1  0  0  0  0
  2  5  1  0  0  0  0
  5  6  2  0  0  0  0
  5  7  1  0  0  0  0
  7  8  1  0  0  0  0
  7  9  1  0  0  0  0
  9 10  1  0  0  0  0
  9 11  1  0  0  0  0
  9 21  1  0  0  0  0
 11 12  1  0  0  0  0
 11 13  1  0  0  0  0
 11 14  1  0  0  0  0
 14 15  1  0  0  0  0
 14 16  1  0  0  0  0
 14 17  1  0  0  0  0
 17 18  2  0  0  0  0
 17 19  1  0  0  0  0
 19 20  1  0  0  0  0
 21 22  2  0  0  0  0
 21 23  1  0  0  0  0
 23 24  1  0  0  0  0
 23 25  1  0  0  0  0
 25 26  1  0  0  0  0
 25 27  1  0  0  0  0
 25 28  1  0  0  0  0
M  END
$$$$

  -OEChem-03222214033D

 28 27  0     1  0  0  0  0  0999 V2000
   -2.8896   -3.9960    0.2002 H   0  0  0  0  0  0  0  0  0  0  0  0
   -2.7972   -2.9755   -0.1826 C   0  0  0  0  0  0  0  0  0  0  0  0
   -3.4961   -2.3330    0.3581 H   0  0  0  0  0  0  0  0  0  0  0  0
   -3.0553   -2.9741   -1.2443 H   0  0  0  0  0  0  0  0  0  0  0  0
   -1.3778   -2.4749    0.0065 C   0  0  0  0  0  0  0  0  0  0  0  0
   -0.5395   -3.2023    0.5052 O   0  0  0  0  0  0  0  0  0  0  0  0
   -1.0473   -1.1915   -0.3832 N   0  0  0  0  0  0  0  0  0  0  0  0
   -1.7848   -0.6377   -0.8070 H   0  0  0  0  0  0  0  0  0  0  0  0
    0.3010   -0.6024   -0.2661 C   0  0  1  0  0  0  0  0  0  0  0  0
    0.9660   -1.3380   -0.7351 H   0  0  0  0  0  0  0  0  0  0  0  0
    0.3720    0.6307   -1.2166 C   0  0  0  0  0  0  0  0  0  0  0  0
    1.3543    0.5430   -1.6952 H   0  0  0  0  0  0  0  0  0  0  0  0
   -0.3646    0.5120   -2.0179 H   0  0  0  0  0  0  0  0  0  0  0  0
    0.3190    2.1030   -0.7251 C   0  0  0  0  0  0  0  0  0  0  0  0
    0.8288    2.7323   -1.4603 H   0  0  0  0  0  0  0  0  0  0  0  0
   -0.7309    2.4068   -0.7239 H   0  0  0  0  0  0  0  0  0  0  0  0
    0.8663    2.4692    0.6469 C   0  0  0  0  0  0  0  0  0  0  0  0
    2.0713    2.5357    0.7875 O   0  0  0  0  0  0  0  0  0  0  0  0
   -0.0148    2.7912    1.6188 O   0  0  0  0  0  0  0  0  0  0  0  0
    0.5440    2.9971    2.3849 H   0  0  0  0  0  0  0  0  0  0  0  0
    0.8579   -0.5314    1.1763 C   0  0  0  0  0  0  0  0  0  0  0  0
    2.0420   -0.7566    1.3812 O   0  0  0  0  0  0  0  0  0  0  0  0
    0.0691   -0.0946    2.2251 N   0  0  0  0  0  0  0  0  0  0  0  0
   -0.9177    0.0407    2.0335 H   0  0  0  0  0  0  0  0  0  0  0  0
    0.5369   -0.0568    3.6049 C   0  0  0  0  0  0  0  0  0  0  0  0
    1.4327    0.5679    3.6894 H   0  0  0  0  0  0  0  0  0  0  0  0
   -0.2369    0.3600    4.2563 H   0  0  0  0  0  0  0  0  0  0  0  0
    0.7787   -1.0666    3.9530 H   0  0  0  0  0  0  0  0  0  0  0  0
  1  2  1  0  0  0  0
  2  3  1  0  0  0  0
  2  4  1  0  0  0  0
  2  5  1  0  0  0  0
  5  6  2  0  0  0  0
  5  7  1  0  0  0  0
  7  8  1  0  0  0  0
  7  9  1  0  0  0  0
  9 10  1  0  0  0  0
  9 11  1  0  0  0  0
  9 21  1  0  0  0  0
 11 12  1  0  0  0  0
 11 13  1  0  0  0  0
 11 14  1  0  0  0  0
 14 15  1  0  0  0  0
 14 16  1  0  0  0  0
 14 17  1  0  0  0  0
 17 18  2  0  0  0  0
 17 19  1  0  0  0  0
 19 20  1  0  0  0  0
 21 22  2  0  0  0  0
 21 23  1  0  0  0  0
 23 24  1  0  0  0  0
 23 25  1  0  0  0  0
 25 26  1  0  0  0  0
 25 27  1  0  0  0  0
 25 28  1  0  0  0  0
M  END
$$$$

  -OEChem-03222214033D

 28 27  0     1  0  0  0  0  0999 V2000
   -2.8108   -4.0242    0.2768 H   0  0  0  0  0  0  0  0  0  0  0  0
   -2.7355   -3.0155   -0.1395 C   0  0  0  0  0  0  0  0  0  0  0  0
   -3.4588   -2.3723    0.3672 H   0  0  0  0  0  0  0  0  0  0  0  0
   -2.9754   -3.0566   -1.2047 H   0  0  0  0  0  0  0  0  0  0  0  0
   -1.3316   -2.4748    0.0560 C   0  0  0  0  0  0  0  0  0  0  0  0
   -0.4914   -3.1582    0.6103 O   0  0  0  0  0  0  0  0  0  0  0  0
   -1.0185   -1.2062   -0.3932 N   0  0  0  0  0  0  0  0  0  0  0  0
   -1.7499   -0.7051   -0.8873 H   0  0  0  0  0  0  0  0  0  0  0  0
    0.3242   -0.5955   -0.3114 C   0  0  1  0  0  0  0  0  0  0  0  0
    1.0116   -1.3113   -0.7784 H   0  0  0  0  0  0  0  0  0  0  0  0
    0.3211    0.6512   -1.2474 C   0  0  0  0  0  0  0  0  0  0  0  0
    1.2748    0.6014   -1.7854 H   0  0  0  0  0  0  0  0  0  0  0  0
   -0.4605    0.5355   -2.0051 H   0  0  0  0  0  0  0  0  0  0  0  0
    0.2519    2.1005   -0.6985 C   0  0  0  0  0  0  0  0  0  0  0  0
    0.4730    2.7953   -1.5134 H   0  0  0  0  0  0  0  0  0  0  0  0
   -0.7775    2.2902   -0.3838 H   0  0  0  0  0  0  0  0  0  0  0  0
    1.1494    2.4730    0.4755 C   0  0  0  0  0  0  0  0  0  0  0  0
    2.3522    2.4255    0.3062 O   0  0  0  0  0  0  0  0  0  0  0  0
    0.5755    2.9199    1.6125 O   0  0  0  0  0  0  0  0  0  0  0  0
    1.3246    3.0819    2.2076 H   0  0  0  0  0  0  0  0  0  0  0  0
    0.8552   -0.4686    1.1369 C   0  0  0  0  0  0  0  0  0  0  0  0
    2.0373   -0.6649    1.3781 O   0  0  0  0  0  0  0  0  0  0  0  0
    0.0330   -0.0015    2.1465 N   0  0  0  0  0  0  0  0  0  0  0  0
   -0.9555    0.0657    1.9310 H   0  0  0  0  0  0  0  0  0  0  0  0
    0.4550    0.0624    3.5400 C   0  0  0  0  0  0  0  0  0  0  0  0
    1.3566    0.6759    3.6409 H   0  0  0  0  0  0  0  0  0  0  0  0
   -0.3333    0.5071    4.1545 H   0  0  0  0  0  0  0  0  0  0  0  0
    0.6693   -0.9423    3.9196 H   0  0  0  0  0  0  0  0  0  0  0  0
  1  2  1  0  0  0  0
  2  3  1  0  0  0  0
  2  4  1  0  0  0  0
  2  5  1  0  0  0  0
  5  6  2  0  0  0  0
  5  7  1  0  0  0  0
  7  8  1  0  0  0  0
  7  9  1  0  0  0  0
  9 10  1  0  0  0  0
  9 11  1  0  0  0  0
  9 21  1  0  0  0  0
 11 12  1  0  0  0  0
 11 13  1  0  0  0  0
 11 14  1  0  0  0  0
 14 15  1  0  0  0  0
 14 16  1  0  0  0  0
 14 17  1  0  0  0  0
 17 18  2  0  0  0  0
 17 19  1  0  0  0  0
 19 20  1  0  0  0  0
 21 22  2  0  0  0  0
 21 23  1  0  0  0  0
 23 24  1  0  0  0  0
 23 25  1  0  0  0  0
 25 26  1  0  0  0  0
 25 27  1  0  0  0  0
 25 28  1  0  0  0  0
M  END
$$$$

  -OEChem-03222214033D

 28 27  0     1  0  0  0  0  0999 V2000
   -2.7488   -4.0503    0.3424 H   0  0  0  0  0  0  0  0  0  0  0  0
   -2.6920   -3.0520   -0.1013 C   0  0  0  0  0  0  0  0  0  0  0  0
   -3.4358   -2.4113    0.3784 H   0  0  0  0  0  0  0  0  0  0  0  0
   -2.9183   -3.1288   -1.1675 H   0  0  0  0  0  0  0  0  0  0  0  0
   -1.3032   -2.4739    0.0953 C   0  0  0  0  0  0  0  0  0  0  0  0
   -0.4627   -3.1105    0.7025 O   0  0  0  0  0  0  0  0  0  0  0  0
   -1.0050   -1.2220   -0.4078 N   0  0  0  0  0  0  0  0  0  0  0  0
   -1.7279   -0.7705   -0.9590 H   0  0  0  0  0  0  0  0  0  0  0  0
    0.3288   -0.5895   -0.3417 C   0  0  1  0  0  0  0  0  0  0  0  0
    1.0370   -1.2968   -0.7894 H   0  0  0  0  0  0  0  0  0  0  0  0
    0.3006    0.6546   -1.2779 C   0  0  0  0  0  0  0  0  0  0  0  0
    1.2302    0.6240   -1.8577 H   0  0  0  0  0  0  0  0  0  0  0  0
   -0.5126    0.5454   -2.0022 H   0  0  0  0  0  0  0  0  0  0  0  0
    0.2184    2.0762   -0.6687 C   0  0  0  0  0  0  0  0  0  0  0  0
    0.1816    2.8082   -1.4798 H   0  0  0  0  0  0  0  0  0  0  0  0
   -0.7137    2.1650   -0.1052 H   0  0  0  0  0  0  0  0  0  0  0  0
    1.3679    2.4753    0.2532 C   0  0  0  0  0  0  0  0  0  0  0  0
    2.4997    2.4034   -0.1874 O   0  0  0  0  0  0  0  0  0  0  0  0
    1.0777    2.9527    1.4815 O   0  0  0  0  0  0  0  0  0  0  0  0
    1.9454    3.0962    1.8914 H   0  0  0  0  0  0  0  0  0  0  0  0
    0.8324   -0.3974    1.1100 C   0  0  0  0  0  0  0  0  0  0  0  0
    2.0196   -0.5227    1.3744 O   0  0  0  0  0  0  0  0  0  0  0  0
   -0.0215    0.0992    2.0789 N   0  0  0  0  0  0  0  0  0  0  0  0
   -1.0095    0.0893    1.8522 H   0  0  0  0  0  0  0  0  0  0  0  0
    0.3741    0.2478    3.4738 C   0  0  0  0  0  0  0  0  0  0  0  0
    1.2389    0.9138    3.5602 H   0  0  0  0  0  0  0  0  0  0  0  0
   -0.4473    0.6749    4.0567 H   0  0  0  0  0  0  0  0  0  0  0  0
    0.6362   -0.7258    3.9013 H   0  0  0  0  0  0  0  0  0  0  0  0
  1  2  1  0  0  0  0
  2  3  1  0  0  0  0
  2  4  1  0  0  0  0
  2  5  1  0  0  0  0
  5  6  2  0  0  0  0
  5  7  1  0  0  0  0
  7  8  1  0  0  0  0
  7  9  1  0  0  0  0
  9 10  1  0  0  0  0
  9 11  1  0  0  0  0
  9 21  1  0  0  0  0
 11 12  1  0  0  0  0
 11 13  1  0  0  0  0
 11 14  1  0  0  0  0
 14 15  1  0  0  0  0
 14 16  1  0  0  0  0
 14 17  1  0  0  0  0
 17 18  2  0  0  0  0
 17 19  1  0  0  0  0
 19 20  1  0  0  0  0
 21 22  2  0  0  0  0
 21 23  1  0  0  0  0
 23 24  1  0  0  0  0
 23 25  1  0  0  0  0
 25 26  1  0  0  0  0
 25 27  1  0  0  0  0
 25 28  1  0  0  0  0
M  END
$$$$

  -OEChem-03222214033D

 28 27  0     1  0  0  0  0  0999 V2000
   -2.6875   -4.1101    0.3158 H   0  0  0  0  0  0  0  0  0  0  0  0
   -2.6570   -3.1128   -0.1327 C   0  0  0  0  0  0  0  0  0  0  0  0
   -3.4365   -2.4983    0.3236 H   0  0  0  0  0  0  0  0  0  0  0  0
   -2.8528   -3.2045   -1.2037 H   0  0  0  0  0  0  0  0  0  0  0  0
   -1.2966   -2.4811    0.0952 C   0  0  0  0  0  0  0  0  0  0  0  0
   -0.4535   -3.0752    0.7410 O   0  0  0  0  0  0  0  0  0  0  0  0
   -1.0255   -1.2292   -0.4230 N   0  0  0  0  0  0  0  0  0  0  0  0
   -1.7414   -0.8190   -1.0144 H   0  0  0  0  0  0  0  0  0  0  0  0
    0.2951   -0.5701   -0.3573 C   0  0  1  0  0  0  0  0  0  0  0  0
    1.0140   -1.2708   -0.7985 H   0  0  0  0  0  0  0  0  0  0  0  0
    0.2728    0.6740   -1.2888 C   0  0  0  0  0  0  0  0  0  0  0  0
    1.1907    0.6552   -1.8875 H   0  0  0  0  0  0  0  0  0  0  0  0
   -0.5548    0.5769   -1.9983 H   0  0  0  0  0  0  0  0  0  0  0  0
    0.1739    2.0653   -0.6188 C   0  0  0  0  0  0  0  0  0  0  0  0
   -0.0920    2.8054   -1.3779 H   0  0  0  0  0  0  0  0  0  0  0  0
   -0.6243    2.0642    0.1271 H   0  0  0  0  0  0  0  0  0  0  0  0
    1.4710    2.5426    0.0339 C   0  0  0  0  0  0  0  0  0  0  0  0
    2.4879    2.5466   -0.6359 O   0  0  0  0  0  0  0  0  0  0  0  0
    1.4203    2.9811    1.3089 O   0  0  0  0  0  0  0  0  0  0  0  0
    2.3460    3.1559    1.5402 H   0  0  0  0  0  0  0  0  0  0  0  0
    0.8079   -0.3407    1.0859 C   0  0  0  0  0  0  0  0  0  0  0  0
    2.0073   -0.3836    1.3224 O   0  0  0  0  0  0  0  0  0  0  0  0
   -0.0482    0.1570    2.0522 N   0  0  0  0  0  0  0  0  0  0  0  0
   -1.0395    0.0753    1.8548 H   0  0  0  0  0  0  0  0  0  0  0  0
    0.3732    0.4118    3.4239 C   0  0  0  0  0  0  0  0  0  0  0  0
    1.1957    1.1343    3.4459 H   0  0  0  0  0  0  0  0  0  0  0  0
   -0.4582    0.8214    4.0053 H   0  0  0  0  0  0  0  0  0  0  0  0
    0.7078   -0.5164    3.8989 H   0  0  0  0  0  0  0  0  0  0  0  0
  1  2  1  0  0  0  0
  2  3  1  0  0  0  0
  2  4  1  0  0  0  0
  2  5  1  0  0  0  0
  5  6  2  0  0  0  0
  5  7  1  0  0  0  0
  7  8  1  0  0  0  0
  7  9  1  0  0  0  0
  9 10  1  0  0  0  0
  9 11  1  0  0  0  0
  9 21  1  0  0  0  0
 11 12  1  0  0  0  0
 11 13  1  0  0  0  0
 11 14  1  0  0  0  0
 14 15  1  0  0  0  0
 14 16  1  0  0  0  0
 14 17  1  0  0  0  0
 17 18  2  0  0  0  0
 17 19  1  0  0  0  0
 19 20  1  0  0  0  0
 21 22  2  0  0  0  0
 21 23  1  0  0  0  0
 23 24  1  0  0  0  0
 23 25  1  0  0  0  0
 25 26  1  0  0  0  0
 25 27  1  0  0  0  0
 25 28  1  0  0  0  0
M  END
$$$$

  -OEChem-03222214033D

 28 27  0     1  0  0  0  0  0999 V2000
   -2.6608   -4.1613    0.2601 H   0  0  0  0  0  0  0  0  0  0  0  0
   -2.6416   -3.1662   -0.1938 C   0  0  0  0  0  0  0  0  0  0  0  0
   -3.4520   -2.5703    0.2323 H   0  0  0  0  0  0  0  0  0  0  0  0
   -2.7989   -3.2690   -1.2702 H   0  0  0  0  0  0  0  0  0  0  0  0
   -1.3070   -2.4969    0.0743 C   0  0  0  0  0  0  0  0  0  0  0  0
   -0.4661   -3.0665    0.7449 O   0  0  0  0  0  0  0  0  0  0  0  0
   -1.0577   -1.2356   -0.4304 N   0  0  0  0  0  0  0  0  0  0  0  0
   -1.7687   -0.8424   -1.0392 H   0  0  0  0  0  0  0  0  0  0  0  0
    0.2492   -0.5546   -0.3463 C   0  0  1  0  0  0  0  0  0  0  0  0
    0.9724   -1.2558   -0.7797 H   0  0  0  0  0  0  0  0  0  0  0  0
    0.2544    0.6802   -1.2856 C   0  0  0  0  0  0  0  0  0  0  0  0
    1.1821    0.6604   -1.8688 H   0  0  0  0  0  0  0  0  0  0  0  0
   -0.5603    0.5793   -2.0095 H   0  0  0  0  0  0  0  0  0  0  0  0
    0.1267    2.0617   -0.5988 C   0  0  0  0  0  0  0  0  0  0  0  0
   -0.3444    2.7549   -1.3004 H   0  0  0  0  0  0  0  0  0  0  0  0
   -0.5245    2.0097    0.2754 H   0  0  0  0  0  0  0  0  0  0  0  0
    1.4684    2.6836   -0.2156 C   0  0  0  0  0  0  0  0  0  0  0  0
    2.3216    2.8153   -1.0752 O   0  0  0  0  0  0  0  0  0  0  0  0
    1.6300    3.0913    1.0607 O   0  0  0  0  0  0  0  0  0  0  0  0
    2.5555    3.3753    1.1137 H   0  0  0  0  0  0  0  0  0  0  0  0
    0.7837   -0.3102    1.0868 C   0  0  0  0  0  0  0  0  0  0  0  0
    1.9918   -0.2914    1.2800 O   0  0  0  0  0  0  0  0  0  0  0  0
   -0.0562    0.1749    2.0734 N   0  0  0  0  0  0  0  0  0  0  0  0
   -1.0508    0.0507    1.9183 H   0  0  0  0  0  0  0  0  0  0  0  0
    0.4102    0.5180    3.4107 C   0  0  0  0  0  0  0  0  0  0  0  0
    1.1807    1.2947    3.3600 H   0  0  0  0  0  0  0  0  0  0  0  0
   -0.4190    0.8970    4.0154 H   0  0  0  0  0  0  0  0  0  0  0  0
    0.8299   -0.3634    3.9069 H   0  0  0  0  0  0  0  0  0  0  0  0
  1  2  1  0  0  0  0
  2  3  1  0  0  0  0
  2  4  1  0  0  0  0
  2  5  1  0  0  0  0
  5  6  2  0  0  0  0
  5  7  1  0  0  0  0
  7  8  1  0  0  0  0
  7  9  1  0  0  0  0
  9 10  1  0  0  0  0
  9 11  1  0  0  0  0
  9 21  1  0  0  0  0
 11 12  1  0  0  0  0
 11 13  1  0  0  0  0
 11 14  1  0  0  0  0
 14 15  1  0  0  0  0
 14 16  1  0  0  0  0
 14 17  1  0  0  0  0
 17 18  2  0  0  0  0
 17 19  1  0  0  0  0
 19 20  1  0  0  0  0
 21 22  2  0  0  0  0
 21 23  1  0  0  0  0
 23 24  1  0  0  0  0
 23 25  1  0  0  0  0
 25 26  1  0  0  0  0
 25 27  1  0  0  0  0
 25 28  1  0  0  0  0
M  END
$$$$

  -OEChem-03222214033D

 28 27  0     1  0  0  0  0  0999 V2000
   -2.6212   -4.1977    0.2173 H   0  0  0  0  0  0  0  0  0  0  0  0
   -2.6169   -3.1987   -0.2282 C   0  0  0  0  0  0  0  0  0  0  0  0
   -3.4439   -2.6223    0.1935 H   0  0  0  0  0  0  0  0  0  0  0  0
   -2.7602   -3.2956   -1.3071 H   0  0  0  0  0  0  0  0  0  0  0  0
   -1.2986   -2.5056    0.0605 C   0  0  0  0  0  0  0  0  0  0  0  0
   -0.4512   -3.0663    0.7306 O   0  0  0  0  0  0  0  0  0  0  0  0
   -1.0709   -1.2325   -0.4242 N   0  0  0  0  0  0  0  0  0  0  0  0
   -1.7831   -0.8466   -1.0362 H   0  0  0  0  0  0  0  0  0  0  0  0
    0.2233   -0.5302   -0.3256 C   0  0  1  0  0  0  0  0  0  0  0  0
    0.9538   -1.2259   -0.7563 H   0  0  0  0  0  0  0  0  0  0  0  0
    0.2343    0.6986   -1.2713 C   0  0  0  0  0  0  0  0  0  0  0  0
    1.1780    0.6775   -1.8280 H   0  0  0  0  0  0  0  0  0  0  0  0
   -0.5579    0.5822   -2.0175 H   0  0  0  0  0  0  0  0  0  0  0  0
    0.0779    2.0888   -0.6034 C   0  0  0  0  0  0  0  0  0  0  0  0
   -0.6118    2.6847   -1.2067 H   0  0  0  0  0  0  0  0  0  0  0  0
   -0.3661    2.0203    0.3894 H   0  0  0  0  0  0  0  0  0  0  0  0
    1.3813    2.8800   -0.5311 C   0  0  0  0  0  0  0  0  0  0  0  0
    2.0007    3.0885   -1.5596 O   0  0  0  0  0  0  0  0  0  0  0  0
    1.7695    3.3398    0.6768 O   0  0  0  0  0  0  0  0  0  0  0  0
    2.6311    3.7562    0.5230 H   0  0  0  0  0  0  0  0  0  0  0  0
    0.7631   -0.2910    1.1065 C   0  0  0  0  0  0  0  0  0  0  0  0
    1.9727   -0.2410    1.2840 O   0  0  0  0  0  0  0  0  0  0  0  0
   -0.0740    0.1682    2.1083 N   0  0  0  0  0  0  0  0  0  0  0  0
   -1.0674    0.0192    1.9663 H   0  0  0  0  0  0  0  0  0  0  0  0
    0.4033    0.5031    3.4444 C   0  0  0  0  0  0  0  0  0  0  0  0
    1.1578    1.2955    3.3935 H   0  0  0  0  0  0  0  0  0  0  0  0
   -0.4249    0.8572    4.0654 H   0  0  0  0  0  0  0  0  0  0  0  0
    0.8471   -0.3760    3.9238 H   0  0  0  0  0  0  0  0  0  0  0  0
  1  2  1  0  0  0  0
  2  3  1  0  0  0  0
  2  4  1  0  0  0  0
  2  5  1  0  0  0  0
  5  6  2  0  0  0  0
  5  7  1  0  0  0  0
  7  8  1  0  0  0  0
  7  9  1  0  0  0  0
  9 10  1  0  0  0  0
  9 11  1  0  0  0  0
  9 21  1  0  0  0  0
 11 12  1  0  0  0  0
 11 13  1  0  0  0  0
 11 14  1  0  0  0  0
 14 15  1  0  0  0  0
 14 16  1  0  0  0  0
 14 17  1  0  0  0  0
 17 18  2  0  0  0  0
 17 19  1  0  0  0  0
 19 20  1  0  0  0  0
 21 22  2  0  0  0  0
 21 23  1  0  0  0  0
 23 24  1  0  0  0  0
 23 25  1  0  0  0  0
 25 26  1  0  0  0  0
 25 27  1  0  0  0  0
 25 28  1  0  0  0  0
M  END
$$$$

  -OEChem-03222214033D

 28 27  0     1  0  0  0  0  0999 V2000
   -2.5778   -4.2207    0.1789 H   0  0  0  0  0  0  0  0  0  0  0  0
   -2.5871   -3.2140   -0.2492 C   0  0  0  0  0  0  0  0  0  0  0  0
   -3.4241   -2.6577    0.1795 H   0  0  0  0  0  0  0  0  0  0  0  0
   -2.7253   -3.2946   -1.3301 H   0  0  0  0  0  0  0  0  0  0  0  0
   -1.2805   -2.5059    0.0558 C   0  0  0  0  0  0  0  0  0  0  0  0
   -0.4297   -3.0629    0.7247 O   0  0  0  0  0  0  0  0  0  0  0  0
   -1.0686   -1.2232   -0.4109 N   0  0  0  0  0  0  0  0  0  0  0  0
   -1.7834   -0.8407   -1.0223 H   0  0  0  0  0  0  0  0  0  0  0  0
    0.2179   -0.5076   -0.3064 C   0  0  1  0  0  0  0  0  0  0  0  0
    0.9556   -1.1896   -0.7465 H   0  0  0  0  0  0  0  0  0  0  0  0
    0.2061    0.7296   -1.2429 C   0  0  0  0  0  0  0  0  0  0  0  0
    1.1648    0.7179   -1.7745 H   0  0  0  0  0  0  0  0  0  0  0  0
   -0.5639    0.6042   -2.0107 H   0  0  0  0  0  0  0  0  0  0  0  0
    0.0331    2.1278   -0.5889 C   0  0  0  0  0  0  0  0  0  0  0  0
   -0.8647    2.5995   -0.9960 H   0  0  0  0  0  0  0  0  0  0  0  0
   -0.1129    2.0669    0.4882 H   0  0  0  0  0  0  0  0  0  0  0  0
    1.2063    3.0681   -0.8543 C   0  0  0  0  0  0  0  0  0  0  0  0
    1.5601    3.2514   -2.0060 O   0  0  0  0  0  0  0  0  0  0  0  0
    1.7786    3.6794    0.2041 O   0  0  0  0  0  0  0  0  0  0  0  0
    2.5103    4.1963   -0.1659 H   0  0  0  0  0  0  0  0  0  0  0  0
    0.7531   -0.2872    1.1297 C   0  0  0  0  0  0  0  0  0  0  0  0
    1.9613   -0.2238    1.3108 O   0  0  0  0  0  0  0  0  0  0  0  0
   -0.0928    0.1450    2.1362 N   0  0  0  0  0  0  0  0  0  0  0  0
   -1.0823   -0.0240    1.9886 H   0  0  0  0  0  0  0  0  0  0  0  0
    0.3745    0.4319    3.4869 C   0  0  0  0  0  0  0  0  0  0  0  0
    1.1301    1.2248    3.4707 H   0  0  0  0  0  0  0  0  0  0  0  0
   -0.4587    0.7640    4.1132 H   0  0  0  0  0  0  0  0  0  0  0  0
    0.8138   -0.4643    3.9378 H   0  0  0  0  0  0  0  0  0  0  0  0
  1  2  1  0  0  0  0
  2  3  1  0  0  0  0
  2  4  1  0  0  0  0
  2  5  1  0  0  0  0
  5  6  2  0  0  0  0
  5  7  1  0  0  0  0
  7  8  1  0  0  0  0
  7  9  1  0  0  0  0
  9 10  1  0  0  0  0
  9 11  1  0  0  0  0
  9 21  1  0  0  0  0
 11 12  1  0  0  0  0
 11 13  1  0  0  0  0
 11 14  1  0  0  0  0
 14 15  1  0  0  0  0
 14 16  1  0  0  0  0
 14 17  1  0  0  0  0
 17 18  2  0  0  0  0
 17 19  1  0  0  0  0
 19 20  1  0  0  0  0
 21 22  2  0  0  0  0
 21 23  1  0  0  0  0
 23 24  1  0  0  0  0
 23 25  1  0  0  0  0
 25 26  1  0  0  0  0
 25 27  1  0  0  0  0
 25 28  1  0  0  0  0
M  END
$$$$

  -OEChem-03222214033D

 28 27  0     1  0  0  0  0  0999 V2000
   -2.5655   -4.2196    0.1667 H   0  0  0  0  0  0  0  0  0  0  0  0
   -2.5758   -3.2105   -0.2555 C   0  0  0  0  0  0  0  0  0  0  0  0
   -3.4093   -2.6554    0.1813 H   0  0  0  0  0  0  0  0  0  0  0  0
   -2.7205   -3.2843   -1.3360 H   0  0  0  0  0  0  0  0  0  0  0  0
   -1.2668   -2.5062    0.0464 C   0  0  0  0  0  0  0  0  0  0  0  0
   -0.4120   -3.0694    0.7049 O   0  0  0  0  0  0  0  0  0  0  0  0
   -1.0577   -1.2194   -0.4102 N   0  0  0  0  0  0  0  0  0  0  0  0
   -1.7740   -0.8339   -1.0181 H   0  0  0  0  0  0  0  0  0  0  0  0
    0.2283   -0.5027   -0.3064 C   0  0  1  0  0  0  0  0  0  0  0  0
    0.9699   -1.1683   -0.7648 H   0  0  0  0  0  0  0  0  0  0  0  0
    0.1800    0.7553   -1.2146 C   0  0  0  0  0  0  0  0  0  0  0  0
    1.1445    0.7655   -1.7356 H   0  0  0  0  0  0  0  0  0  0  0  0
   -0.5820    0.6390   -1.9919 H   0  0  0  0  0  0  0  0  0  0  0  0
    0.0061    2.1432   -0.5377 C   0  0  0  0  0  0  0  0  0  0  0  0
   -1.0247    2.4845   -0.6584 H   0  0  0  0  0  0  0  0  0  0  0  0
    0.2063    2.1013    0.5320 H   0  0  0  0  0  0  0  0  0  0  0  0
    0.9477    3.2056   -1.1016 C   0  0  0  0  0  0  0  0  0  0  0  0
    1.0767    3.2924   -2.3104 O   0  0  0  0  0  0  0  0  0  0  0  0
    1.5724    4.0247   -0.2294 O   0  0  0  0  0  0  0  0  0  0  0  0
    2.1256    4.6030   -0.7762 H   0  0  0  0  0  0  0  0  0  0  0  0
    0.7585   -0.3007    1.1333 C   0  0  0  0  0  0  0  0  0  0  0  0
    1.9654   -0.2308    1.3205 O   0  0  0  0  0  0  0  0  0  0  0  0
   -0.0956    0.1182    2.1387 N   0  0  0  0  0  0  0  0  0  0  0  0
   -1.0833   -0.0521    1.9804 H   0  0  0  0  0  0  0  0  0  0  0  0
    0.3606    0.3752    3.4993 C   0  0  0  0  0  0  0  0  0  0  0  0
    1.1220    1.1625    3.5070 H   0  0  0  0  0  0  0  0  0  0  0  0
   -0.4761    0.7013    4.1242 H   0  0  0  0  0  0  0  0  0  0  0  0
    0.7891   -0.5328    3.9367 H   0  0  0  0  0  0  0  0  0  0  0  0
  1  2  1  0  0  0  0
  2  3  1  0  0  0  0
  2  4  1  0  0  0  0
  2  5  1  0  0  0  0
  5  6  2  0  0  0  0
  5  7  1  0  0  0  0
  7  8  1  0  0  0  0
  7  9  1  0  0  0  0
  9 10  1  0  0  0  0
  9 11  1  0  0  0  0
  9 21  1  0  0  0  0
 11 12  1  0  0  0  0
 11 13  1  0  0  0  0
 11 14  1  0  0  0  0
 14 15  1  0  0  0  0
 14 16  1  0  0  0  0
 14 17  1  0  0  0  0
 17 18  2  0  0  0  0
 17 19  1  0  0  0  0
 19 20  1  0  0  0  0
 21 22  2  0  0  0  0
 21 23  1  0  0  0  0
 23 24  1  0  0  0  0
 23 25  1  0  0  0  0
 25 26  1  0  0  0  0
 25 27  1  0  0  0  0
 25 28  1  0  0  0  0
M  END
$$$$

  -OEChem-03222214033D

 28 27  0     1  0  0  0  0  0999 V2000
   -2.5727   -4.2157    0.1630 H   0  0  0  0  0  0  0  0  0  0  0  0
   -2.5793   -3.2076   -0.2618 C   0  0  0  0  0  0  0  0  0  0  0  0
   -3.4147   -2.6503    0.1684 H   0  0  0  0  0  0  0  0  0  0  0  0
   -2.7175   -3.2840   -1.3431 H   0  0  0  0  0  0  0  0  0  0  0  0
   -1.2710   -2.5038    0.0462 C   0  0  0  0  0  0  0  0  0  0  0  0
   -0.4178   -3.0688    0.7053 O   0  0  0  0  0  0  0  0  0  0  0  0
   -1.0580   -1.2183   -0.4123 N   0  0  0  0  0  0  0  0  0  0  0  0
   -1.7713   -0.8344   -1.0249 H   0  0  0  0  0  0  0  0  0  0  0  0
    0.2330   -0.5089   -0.3178 C   0  0  1  0  0  0  0  0  0  0  0  0
    0.9713   -1.1660   -0.7932 H   0  0  0  0  0  0  0  0  0  0  0  0
    0.1608    0.7663   -1.1988 C   0  0  0  0  0  0  0  0  0  0  0  0
    1.1161    0.7987   -1.7362 H   0  0  0  0  0  0  0  0  0  0  0  0
   -0.6181    0.6676   -1.9618 H   0  0  0  0  0  0  0  0  0  0  0  0
    0.0019    2.1310   -0.4779 C   0  0  0  0  0  0  0  0  0  0  0  0
   -1.0553    2.3444   -0.3051 H   0  0  0  0  0  0  0  0  0  0  0  0
    0.5015    2.1234    0.4919 H   0  0  0  0  0  0  0  0  0  0  0  0
    0.6370    3.2870   -1.2494 C   0  0  0  0  0  0  0  0  0  0  0  0
    0.5926    3.2800   -2.4675 O   0  0  0  0  0  0  0  0  0  0  0  0
    1.1965    4.2868   -0.5359 O   0  0  0  0  0  0  0  0  0  0  0  0
    1.5456    4.9045   -1.1964 H   0  0  0  0  0  0  0  0  0  0  0  0
    0.7684   -0.3129    1.1206 C   0  0  0  0  0  0  0  0  0  0  0  0
    1.9759   -0.2488    1.3068 O   0  0  0  0  0  0  0  0  0  0  0  0
   -0.0836    0.1099    2.1260 N   0  0  0  0  0  0  0  0  0  0  0  0
   -1.0721   -0.0550    1.9666 H   0  0  0  0  0  0  0  0  0  0  0  0
    0.3731    0.3606    3.4876 C   0  0  0  0  0  0  0  0  0  0  0  0
    1.1390    1.1432    3.4972 H   0  0  0  0  0  0  0  0  0  0  0  0
   -0.4617    0.6898    4.1135 H   0  0  0  0  0  0  0  0  0  0  0  0
    0.7962   -0.5510    3.9226 H   0  0  0  0  0  0  0  0  0  0  0  0
  1  2  1  0  0  0  0
  2  3  1  0  0  0  0
  2  4  1  0  0  0  0
  2  5  1  0  0  0  0
  5  6  2  0  0  0  0
  5  7  1  0  0  0  0
  7  8  1  0  0  0  0
  7  9  1  0  0  0  0
  9 10  1  0  0  0  0
  9 11  1  0  0  0  0
  9 21  1  0  0  0  0
 11 12  1  0  0  0  0
 11 13  1  0  0  0  0
 11 14  1  0  0  0  0
 14 15  1  0  0  0  0
 14 16  1  0  0  0  0
 14 17  1  0  0  0  0
 17 18  2  0  0  0  0
 17 19  1  0  0  0  0
 19 20  1  0  0  0  0
 21 22  2  0  0  0  0
 21 23  1  0  0  0  0
 23 24  1  0  0  0  0
 23 25  1  0  0  0  0
 25 26  1  0  0  0  0
 25 27  1  0  0  0  0
 25 28  1  0  0  0  0
M  END
$$$$

  -OEChem-03222214033D

 28 27  0     1  0  0  0  0  0999 V2000
   -2.5936   -4.2062    0.1875 H   0  0  0  0  0  0  0  0  0  0  0  0
   -2.5943   -3.2035   -0.2500 C   0  0  0  0  0  0  0  0  0  0  0  0
   -3.4245   -2.6349    0.1752 H   0  0  0  0  0  0  0  0  0  0  0  0
   -2.7359   -3.2922   -1.3298 H   0  0  0  0  0  0  0  0  0  0  0  0
   -1.2805   -2.5054    0.0460 C   0  0  0  0  0  0  0  0  0  0  0  0
   -0.4287   -3.0703    0.7069 O   0  0  0  0  0  0  0  0  0  0  0  0
   -1.0619   -1.2243   -0.4221 N   0  0  0  0  0  0  0  0  0  0  0  0
   -1.7724   -0.8431   -1.0396 H   0  0  0  0  0  0  0  0  0  0  0  0
    0.2350   -0.5239   -0.3387 C   0  0  1  0  0  0  0  0  0  0  0  0
    0.9678   -1.1803   -0.8232 H   0  0  0  0  0  0  0  0  0  0  0  0
    0.1580    0.7619   -1.2025 C   0  0  0  0  0  0  0  0  0  0  0  0
    1.0961    0.8100   -1.7677 H   0  0  0  0  0  0  0  0  0  0  0  0
   -0.6475    0.6794   -1.9398 H   0  0  0  0  0  0  0  0  0  0  0  0
    0.0197    2.1011   -0.4369 C   0  0  0  0  0  0  0  0  0  0  0  0
   -0.9831    2.1902   -0.0132 H   0  0  0  0  0  0  0  0  0  0  0  0
    0.7390    2.1442    0.3850 H   0  0  0  0  0  0  0  0  0  0  0  0
    0.3082    3.3244   -1.3063 C   0  0  0  0  0  0  0  0  0  0  0  0
    0.1610    3.2495   -2.5140 O   0  0  0  0  0  0  0  0  0  0  0  0
    0.6896    4.4564   -0.6780 O   0  0  0  0  0  0  0  0  0  0  0  0
    0.8269    5.1048   -1.3855 H   0  0  0  0  0  0  0  0  0  0  0  0
    0.7768   -0.3246    1.0970 C   0  0  0  0  0  0  0  0  0  0  0  0
    1.9853   -0.2679    1.2796 O   0  0  0  0  0  0  0  0  0  0  0  0
   -0.0699    0.1102    2.1015 N   0  0  0  0  0  0  0  0  0  0  0  0
   -1.0594   -0.0531    1.9467 H   0  0  0  0  0  0  0  0  0  0  0  0
    0.3913    0.3730    3.4591 C   0  0  0  0  0  0  0  0  0  0  0  0
    1.1619    1.1512    3.4588 H   0  0  0  0  0  0  0  0  0  0  0  0
   -0.4406    0.7136    4.0828 H   0  0  0  0  0  0  0  0  0  0  0  0
    0.8100   -0.5362    3.9031 H   0  0  0  0  0  0  0  0  0  0  0  0
  1  2  1  0  0  0  0
  2  3  1  0  0  0  0
  2  4  1  0  0  0  0
  2  5  1  0  0  0  0
  5  6  2  0  0  0  0
  5  7  1  0  0  0  0
  7  8  1  0  0  0  0
  7  9  1  0  0  0  0
  9 10  1  0  0  0  0
  9 11  1  0  0  0  0
  9 21  1  0  0  0  0
 11 12  1  0  0  0  0
 11 13  1  0  0  0  0
 11 14  1  0  0  0  0
 14 15  1  0  0  0  0
 14 16  1  0  0  0  0
 14 17  1  0  0  0  0
 17 18  2  0  0  0  0
 17 19  1  0  0  0  0
 19 20  1  0  0  0  0
 21 22  2  0  0  0  0
 21 23  1  0  0  0  0
 23 24  1  0  0  0  0
 23 25  1  0  0  0  0
 25 26  1  0  0  0  0
 25 27  1  0  0  0  0
 25 28  1  0  0  0  0
M  END
$$$$

  -OEChem-03222214033D

 28 27  0     1  0  0  0  0  0999 V2000
   -2.6258   -4.1767    0.2203 H   0  0  0  0  0  0  0  0  0  0  0  0
   -2.6144   -3.1781   -0.2259 C   0  0  0  0  0  0  0  0  0  0  0  0
   -3.4307   -2.5921    0.2031 H   0  0  0  0  0  0  0  0  0  0  0  0
   -2.7690   -3.2738   -1.3034 H   0  0  0  0  0  0  0  0  0  0  0  0
   -1.2861   -2.4992    0.0494 C   0  0  0  0  0  0  0  0  0  0  0  0
   -0.4336   -3.0736    0.7012 O   0  0  0  0  0  0  0  0  0  0  0  0
   -1.0553   -1.2248   -0.4307 N   0  0  0  0  0  0  0  0  0  0  0  0
   -1.7690   -0.8374   -1.0410 H   0  0  0  0  0  0  0  0  0  0  0  0
    0.2478   -0.5342   -0.3578 C   0  0  1  0  0  0  0  0  0  0  0  0
    0.9810   -1.1937   -0.8369 H   0  0  0  0  0  0  0  0  0  0  0  0
    0.1784    0.7558   -1.2200 C   0  0  0  0  0  0  0  0  0  0  0  0
    0.9357    0.6717   -2.0075 H   0  0  0  0  0  0  0  0  0  0  0  0
   -0.7930    0.8118   -1.7223 H   0  0  0  0  0  0  0  0  0  0  0  0
    0.4234    2.0862   -0.4687 C   0  0  0  0  0  0  0  0  0  0  0  0
   -0.3149    2.2053    0.3277 H   0  0  0  0  0  0  0  0  0  0  0  0
    1.4174    2.0740   -0.0117 H   0  0  0  0  0  0  0  0  0  0  0  0
    0.3437    3.3240   -1.3625 C   0  0  0  0  0  0  0  0  0  0  0  0
   -0.0603    3.2221   -2.5083 O   0  0  0  0  0  0  0  0  0  0  0  0
    0.7160    4.4998   -0.8147 O   0  0  0  0  0  0  0  0  0  0  0  0
    0.6070    5.1546   -1.5212 H   0  0  0  0  0  0  0  0  0  0  0  0
    0.7833   -0.3321    1.0815 C   0  0  0  0  0  0  0  0  0  0  0  0
    1.9914   -0.3025    1.2753 O   0  0  0  0  0  0  0  0  0  0  0  0
   -0.0628    0.1152    2.0811 N   0  0  0  0  0  0  0  0  0  0  0  0
   -1.0539   -0.0300    1.9186 H   0  0  0  0  0  0  0  0  0  0  0  0
    0.3927    0.3635    3.4435 C   0  0  0  0  0  0  0  0  0  0  0  0
    1.1786    1.1263    3.4526 H   0  0  0  0  0  0  0  0  0  0  0  0
   -0.4374    0.7188    4.0615 H   0  0  0  0  0  0  0  0  0  0  0  0
    0.7894   -0.5557    3.8877 H   0  0  0  0  0  0  0  0  0  0  0  0
  1  2  1  0  0  0  0
  2  3  1  0  0  0  0
  2  4  1  0  0  0  0
  2  5  1  0  0  0  0
  5  6  2  0  0  0  0
  5  7  1  0  0  0  0
  7  8  1  0  0  0  0
  7  9  1  0  0  0  0
  9 10  1  0  0  0  0
  9 11  1  0  0  0  0
  9 21  1  0  0  0  0
 11 12  1  0  0  0  0
 11 13  1  0  0  0  0
 11 14  1  0  0  0  0
 14 15  1  0  0  0  0
 14 16  1  0  0  0  0
 14 17  1  0  0  0  0
 17 18  2  0  0  0  0
 17 19  1  0  0  0  0
 19 20  1  0  0  0  0
 21 22  2  0  0  0  0
 21 23  1  0  0  0  0
 23 24  1  0  0  0  0
 23 25  1  0  0  0  0
 25 26  1  0  0  0  0
 25 27  1  0  0  0  0
 25 28  1  0  0  0  0
M  END
$$$$

  -OEChem-03222214033D

 28 27  0     1  0  0  0  0  0999 V2000
   -2.6344   -4.1820    0.1964 H   0  0  0  0  0  0  0  0  0  0  0  0
   -2.6324   -3.1728   -0.2256 C   0  0  0  0  0  0  0  0  0  0  0  0
   -3.4461   -2.6010    0.2269 H   0  0  0  0  0  0  0  0  0  0  0  0
   -2.7994   -3.2434   -1.3031 H   0  0  0  0  0  0  0  0  0  0  0  0
   -1.3035   -2.4951    0.0507 C   0  0  0  0  0  0  0  0  0  0  0  0
   -0.4473   -3.0759    0.6922 O   0  0  0  0  0  0  0  0  0  0  0  0
   -1.0752   -1.2151   -0.4157 N   0  0  0  0  0  0  0  0  0  0  0  0
   -1.7941   -0.8180   -1.0136 H   0  0  0  0  0  0  0  0  0  0  0  0
    0.2295   -0.5274   -0.3442 C   0  0  1  0  0  0  0  0  0  0  0  0
    0.9532   -1.1960   -0.8250 H   0  0  0  0  0  0  0  0  0  0  0  0
    0.1871    0.7561   -1.2176 C   0  0  0  0  0  0  0  0  0  0  0  0
    0.9385    0.6622   -2.0092 H   0  0  0  0  0  0  0  0  0  0  0  0
   -0.7875    0.8093   -1.7139 H   0  0  0  0  0  0  0  0  0  0  0  0
    0.4393    2.0933   -0.4791 C   0  0  0  0  0  0  0  0  0  0  0  0
   -0.1491    2.1271    0.4396 H   0  0  0  0  0  0  0  0  0  0  0  0
    1.4958    2.1707   -0.2059 H   0  0  0  0  0  0  0  0  0  0  0  0
    0.0425    3.3355   -1.2784 C   0  0  0  0  0  0  0  0  0  0  0  0
   -0.3502    3.2244   -2.4272 O   0  0  0  0  0  0  0  0  0  0  0  0
    0.1442    4.5240   -0.6478 O   0  0  0  0  0  0  0  0  0  0  0  0
   -0.1297    5.1828   -1.3041 H   0  0  0  0  0  0  0  0  0  0  0  0
    0.7839   -0.3394    1.0900 C   0  0  0  0  0  0  0  0  0  0  0  0
    1.9947   -0.3006    1.2642 O   0  0  0  0  0  0  0  0  0  0  0  0
   -0.0471    0.0986    2.1063 N   0  0  0  0  0  0  0  0  0  0  0  0
   -1.0400   -0.0495    1.9584 H   0  0  0  0  0  0  0  0  0  0  0  0
    0.4286    0.3311    3.4646 C   0  0  0  0  0  0  0  0  0  0  0  0
    1.2094    1.0989    3.4723 H   0  0  0  0  0  0  0  0  0  0  0  0
   -0.3933    0.6720    4.1012 H   0  0  0  0  0  0  0  0  0  0  0  0
    0.8381   -0.5917    3.8892 H   0  0  0  0  0  0  0  0  0  0  0  0
  1  2  1  0  0  0  0
  2  3  1  0  0  0  0
  2  4  1  0  0  0  0
  2  5  1  0  0  0  0
  5  6  2  0  0  0  0
  5  7  1  0  0  0  0
  7  8  1  0  0  0  0
  7  9  1  0  0  0  0
  9 10  1  0  0  0  0
  9 11  1  0  0  0  0
  9 21  1  0  0  0  0
 11 12  1  0  0  0  0
 11 13  1  0  0  0  0
 11 14  1  0  0  0  0
 14 15  1  0  0  0  0
 14 16  1  0  0  0  0
 14 17  1  0  0  0  0
 17 18  2  0  0  0  0
 17 19  1  0  0  0  0
 19 20  1  0  0  0  0
 21 22  2  0  0  0  0
 21 23  1  0  0  0  0
 23 24  1  0  0  0  0
 23 25  1  0  0  0  0
 25 26  1  0  0  0  0
 25 27  1  0  0  0  0
 25 28  1  0  0  0  0
M  END
$$$$

  -OEChem-03222214033D

 28 27  0     1  0  0  0  0  0999 V2000
   -2.6473   -4.1762    0.1963 H   0  0  0  0  0  0  0  0  0  0  0  0
   -2.6445   -3.1634   -0.2171 C   0  0  0  0  0  0  0  0  0  0  0  0
   -3.4518   -2.5921    0.2473 H   0  0  0  0  0  0  0  0  0  0  0  0
   -2.8208   -3.2238   -1.2938 H   0  0  0  0  0  0  0  0  0  0  0  0
   -1.3107   -2.4939    0.0539 C   0  0  0  0  0  0  0  0  0  0  0  0
   -0.4505   -3.0855    0.6802 O   0  0  0  0  0  0  0  0  0  0  0  0
   -1.0822   -1.2094   -0.3998 N   0  0  0  0  0  0  0  0  0  0  0  0
   -1.8067   -0.8010   -0.9833 H   0  0  0  0  0  0  0  0  0  0  0  0
    0.2252   -0.5259   -0.3317 C   0  0  1  0  0  0  0  0  0  0  0  0
    0.9412   -1.1995   -0.8174 H   0  0  0  0  0  0  0  0  0  0  0  0
    0.1935    0.7559   -1.2109 C   0  0  0  0  0  0  0  0  0  0  0  0
    0.9375    0.6523   -2.0081 H   0  0  0  0  0  0  0  0  0  0  0  0
   -0.7832    0.7975   -1.7034 H   0  0  0  0  0  0  0  0  0  0  0  0
    0.4513    2.1097   -0.4961 C   0  0  0  0  0  0  0  0  0  0  0  0
    0.0753    2.0769    0.5264 H   0  0  0  0  0  0  0  0  0  0  0  0
    1.5272    2.3001   -0.4456 H   0  0  0  0  0  0  0  0  0  0  0  0
   -0.2485    3.3124   -1.1326 C   0  0  0  0  0  0  0  0  0  0  0  0
   -0.7246    3.2241   -2.2514 O   0  0  0  0  0  0  0  0  0  0  0  0
   -0.3030    4.4435   -0.3983 O   0  0  0  0  0  0  0  0  0  0  0  0
   -0.7552    5.0898   -0.9618 H   0  0  0  0  0  0  0  0  0  0  0  0
    0.7907   -0.3567    1.1002 C   0  0  0  0  0  0  0  0  0  0  0  0
    2.0027   -0.3156    1.2642 O   0  0  0  0  0  0  0  0  0  0  0  0
   -0.0326    0.0710    2.1273 N   0  0  0  0  0  0  0  0  0  0  0  0
   -1.0274   -0.0674    1.9823 H   0  0  0  0  0  0  0  0  0  0  0  0
    0.4513    0.2934    3.4843 C   0  0  0  0  0  0  0  0  0  0  0  0
    1.2272    1.0662    3.4935 H   0  0  0  0  0  0  0  0  0  0  0  0
   -0.3688    0.6220    4.1299 H   0  0  0  0  0  0  0  0  0  0  0  0
    0.8701   -0.6306    3.8970 H   0  0  0  0  0  0  0  0  0  0  0  0
  1  2  1  0  0  0  0
  2  3  1  0  0  0  0
  2  4  1  0  0  0  0
  2  5  1  0  0  0  0
  5  6  2  0  0  0  0
  5  7  1  0  0  0  0
  7  8  1  0  0  0  0
  7  9  1  0  0  0  0
  9 10  1  0  0  0  0
  9 11  1  0  0  0  0
  9 21  1  0  0  0  0
 11 12  1  0  0  0  0
 11 13  1  0  0  0  0
 11 14  1  0  0  0  0
 14 15  1  0  0  0  0
 14 16  1  0  0  0  0
 14 17  1  0  0  0  0
 17 18  2  0  0  0  0
 17 19  1  0  0  0  0
 19 20  1  0  0  0  0
 21 22  2  0  0  0  0
 21 23  1  0  0  0  0
 23 24  1  0  0  0  0
 23 25  1  0  0  0  0
 25 26  1  0  0  0  0
 25 27  1  0  0  0  0
 25 28  1  0  0  0  0
M  END
$$$$

  -OEChem-03222214033D

 28 27  0     1  0  0  0  0  0999 V2000
   -2.6442   -4.1788    0.2084 H   0  0  0  0  0  0  0  0  0  0  0  0
   -2.6402   -3.1646   -0.2016 C   0  0  0  0  0  0  0  0  0  0  0  0
   -3.4287   -2.5858    0.2851 H   0  0  0  0  0  0  0  0  0  0  0  0
   -2.8450   -3.2187   -1.2736 H   0  0  0  0  0  0  0  0  0  0  0  0
   -1.2921   -2.5112    0.0369 C   0  0  0  0  0  0  0  0  0  0  0  0
   -0.4158   -3.1211    0.6221 O   0  0  0  0  0  0  0  0  0  0  0  0
   -1.0671   -1.2204   -0.3998 N   0  0  0  0  0  0  0  0  0  0  0  0
   -1.8124   -0.7836   -0.9352 H   0  0  0  0  0  0  0  0  0  0  0  0
    0.2356   -0.5294   -0.3216 C   0  0  1  0  0  0  0  0  0  0  0  0
    0.9565   -1.1965   -0.8090 H   0  0  0  0  0  0  0  0  0  0  0  0
    0.1914    0.7532   -1.2018 C   0  0  0  0  0  0  0  0  0  0  0  0
    0.9556    0.6516   -1.9798 H   0  0  0  0  0  0  0  0  0  0  0  0
   -0.7671    0.7611   -1.7276 H   0  0  0  0  0  0  0  0  0  0  0  0
    0.4288    2.1286   -0.5070 C   0  0  0  0  0  0  0  0  0  0  0  0
    0.3387    2.0489    0.5750 H   0  0  0  0  0  0  0  0  0  0  0  0
    1.4506    2.4579   -0.7145 H   0  0  0  0  0  0  0  0  0  0  0  0
   -0.5345    3.2525   -0.9023 C   0  0  0  0  0  0  0  0  0  0  0  0
   -1.3386    3.0962   -1.8051 O   0  0  0  0  0  0  0  0  0  0  0  0
   -0.4381    4.3998   -0.1981 O   0  0  0  0  0  0  0  0  0  0  0  0
   -1.1011    4.9918   -0.5851 H   0  0  0  0  0  0  0  0  0  0  0  0
    0.7956   -0.3743    1.1133 C   0  0  0  0  0  0  0  0  0  0  0  0
    2.0069   -0.3295    1.2825 O   0  0  0  0  0  0  0  0  0  0  0  0
   -0.0342    0.0360    2.1424 N   0  0  0  0  0  0  0  0  0  0  0  0
   -1.0292   -0.0935    1.9894 H   0  0  0  0  0  0  0  0  0  0  0  0
    0.4438    0.2482    3.5031 C   0  0  0  0  0  0  0  0  0  0  0  0
    1.2167    1.0242    3.5218 H   0  0  0  0  0  0  0  0  0  0  0  0
   -0.3800    0.5679    4.1484 H   0  0  0  0  0  0  0  0  0  0  0  0
    0.8651   -0.6777    3.9091 H   0  0  0  0  0  0  0  0  0  0  0  0
  1  2  1  0  0  0  0
  2  3  1  0  0  0  0
  2  4  1  0  0  0  0
  2  5  1  0  0  0  0
  5  6  2  0  0  0  0
  5  7  1  0  0  0  0
  7  8  1  0  0  0  0
  7  9  1  0  0  0  0
  9 10  1  0  0  0  0
  9 11  1  0  0  0  0
  9 21  1  0  0  0  0
 11 12  1  0  0  0  0
 11 13  1  0  0  0  0
 11 14  1  0  0  0  0
 14 15  1  0  0  0  0
 14 16  1  0  0  0  0
 14 17  1  0  0  0  0
 17 18  2  0  0  0  0
 17 19  1  0  0  0  0
 19 20  1  0  0  0  0
 21 22  2  0  0  0  0
 21 23  1  0  0  0  0
 23 24  1  0  0  0  0
 23 25  1  0  0  0  0
 25 26  1  0  0  0  0
 25 27  1  0  0  0  0
 25 28  1  0  0  0  0
M  END
$$$$

  -OEChem-03222214033D

 28 27  0     1  0  0  0  0  0999 V2000
   -2.6706   -4.0900    0.2011 H   0  0  0  0  0  0  0  0  0  0  0  0
   -2.6452   -3.0683   -0.1884 C   0  0  0  0  0  0  0  0  0  0  0  0
   -3.3422   -2.4555    0.3878 H   0  0  0  0  0  0  0  0  0  0  0  0
   -2.9607   -3.0826   -1.2345 H   0  0  0  0  0  0  0  0  0  0  0  0
   -1.2418   -2.5028   -0.0784 C   0  0  0  0  0  0  0  0  0  0  0  0
   -0.3369   -3.1951    0.3515 O   0  0  0  0  0  0  0  0  0  0  0  0
   -0.9964   -1.1995   -0.4618 N   0  0  0  0  0  0  0  0  0  0  0  0
   -1.7965   -0.6503   -0.7653 H   0  0  0  0  0  0  0  0  0  0  0  0
    0.3089   -0.5241   -0.3353 C   0  0  1  0  0  0  0  0  0  0  0  0
    1.0421   -1.1554   -0.8514 H   0  0  0  0  0  0  0  0  0  0  0  0
    0.2279    0.8069   -1.1339 C   0  0  0  0  0  0  0  0  0  0  0  0
    1.0132    0.7552   -1.8958 H   0  0  0  0  0  0  0  0  0  0  0  0
   -0.7147    0.8500   -1.6906 H   0  0  0  0  0  0  0  0  0  0  0  0
    0.4497    2.1400   -0.3661 C   0  0  0  0  0  0  0  0  0  0  0  0
    0.7014    2.0108    0.6855 H   0  0  0  0  0  0  0  0  0  0  0  0
    1.2956    2.6638   -0.8204 H   0  0  0  0  0  0  0  0  0  0  0  0
   -0.7697    3.0521   -0.4511 C   0  0  0  0  0  0  0  0  0  0  0  0
   -1.8592    2.5889   -0.1542 O   0  0  0  0  0  0  0  0  0  0  0  0
   -0.5893    4.3274   -0.8549 O   0  0  0  0  0  0  0  0  0  0  0  0
   -1.4702    4.7314   -0.8323 H   0  0  0  0  0  0  0  0  0  0  0  0
    0.8270   -0.4367    1.1198 C   0  0  0  0  0  0  0  0  0  0  0  0
    2.0313   -0.4431    1.3365 O   0  0  0  0  0  0  0  0  0  0  0  0
   -0.0304   -0.0603    2.1390 N   0  0  0  0  0  0  0  0  0  0  0  0
   -1.0214   -0.0344    1.9194 H   0  0  0  0  0  0  0  0  0  0  0  0
    0.3985    0.1288    3.5189 C   0  0  0  0  0  0  0  0  0  0  0  0
    1.1466    0.9259    3.5827 H   0  0  0  0  0  0  0  0  0  0  0  0
   -0.4547    0.4049    4.1457 H   0  0  0  0  0  0  0  0  0  0  0  0
    0.8338   -0.7954    3.9133 H   0  0  0  0  0  0  0  0  0  0  0  0
  1  2  1  0  0  0  0
  2  3  1  0  0  0  0
  2  4  1  0  0  0  0
  2  5  1  0  0  0  0
  5  6  2  0  0  0  0
  5  7  1  0  0  0  0
  7  8  1  0  0  0  0
  7  9  1  0  0  0  0
  9 10  1  0  0  0  0
  9 11  1  0  0  0  0
  9 21  1  0  0  0  0
 11 12  1  0  0  0  0
 11 13  1  0  0  0  0
 11 14  1  0  0  0  0
 14 15  1  0  0  0  0
 14 16  1  0  0  0  0
 14 17  1  0  0  0  0
 17 18  2  0  0  0  0
 17 19  1  0  0  0  0
 19 20  1  0  0  0  0
 21 22  2  0  0  0  0
 21 23  1  0  0  0  0
 23 24  1  0  0  0  0
 23 25  1  0  0  0  0
 25 26  1  0  0  0  0
 25 27  1  0  0  0  0
 25 28  1  0  0  0  0
M  END
$$$$

  -OEChem-03222214033D

 28 27  0     1  0  0  0  0  0999 V2000
   -2.6939   -4.0503    0.2750 H   0  0  0  0  0  0  0  0  0  0  0  0
   -2.6608   -3.0296   -0.1167 C   0  0  0  0  0  0  0  0  0  0  0  0
   -3.2899   -2.3929    0.5100 H   0  0  0  0  0  0  0  0  0  0  0  0
   -3.0533   -3.0309   -1.1364 H   0  0  0  0  0  0  0  0  0  0  0  0
   -1.2337   -2.5154   -0.1133 C   0  0  0  0  0  0  0  0  0  0  0  0
   -0.3244   -3.2452    0.2387 O   0  0  0  0  0  0  0  0  0  0  0  0
   -0.9706   -1.2213   -0.5164 N   0  0  0  0  0  0  0  0  0  0  0  0
   -1.7775   -0.6314   -0.7022 H   0  0  0  0  0  0  0  0  0  0  0  0
    0.3465   -0.5708   -0.3841 C   0  0  1  0  0  0  0  0  0  0  0  0
    1.0823   -1.1999   -0.8985 H   0  0  0  0  0  0  0  0  0  0  0  0
    0.2571    0.7748   -1.1561 C   0  0  0  0  0  0  0  0  0  0  0  0
    1.0431    0.7330   -1.9179 H   0  0  0  0  0  0  0  0  0  0  0  0
   -0.6859    0.8456   -1.7096 H   0  0  0  0  0  0  0  0  0  0  0  0
    0.4981    2.0796   -0.3520 C   0  0  0  0  0  0  0  0  0  0  0  0
    1.0525    1.9408    0.5768 H   0  0  0  0  0  0  0  0  0  0  0  0
    1.1111    2.7430   -0.9686 H   0  0  0  0  0  0  0  0  0  0  0  0
   -0.8100    2.8140   -0.0773 C   0  0  0  0  0  0  0  0  0  0  0  0
   -1.7594    2.1627    0.3323 O   0  0  0  0  0  0  0  0  0  0  0  0
   -0.8599    4.1447   -0.2985 O   0  0  0  0  0  0  0  0  0  0  0  0
   -1.7588    4.4152   -0.0568 H   0  0  0  0  0  0  0  0  0  0  0  0
    0.8282   -0.4840    1.0836 C   0  0  0  0  0  0  0  0  0  0  0  0
    2.0229   -0.5475    1.3410 O   0  0  0  0  0  0  0  0  0  0  0  0
   -0.0500   -0.0791    2.0741 N   0  0  0  0  0  0  0  0  0  0  0  0
   -0.9982    0.1470    1.7837 H   0  0  0  0  0  0  0  0  0  0  0  0
    0.3583    0.1967    3.4451 C   0  0  0  0  0  0  0  0  0  0  0  0
    1.0609    1.0359    3.4748 H   0  0  0  0  0  0  0  0  0  0  0  0
   -0.5135    0.4508    4.0554 H   0  0  0  0  0  0  0  0  0  0  0  0
    0.8416   -0.6828    3.8839 H   0  0  0  0  0  0  0  0  0  0  0  0
  1  2  1  0  0  0  0
  2  3  1  0  0  0  0
  2  4  1  0  0  0  0
  2  5  1  0  0  0  0
  5  6  2  0  0  0  0
  5  7  1  0  0  0  0
  7  8  1  0  0  0  0
  7  9  1  0  0  0  0
  9 10  1  0  0  0  0
  9 11  1  0  0  0  0
  9 21  1  0  0  0  0
 11 12  1  0  0  0  0
 11 13  1  0  0  0  0
 11 14  1  0  0  0  0
 14 15  1  0  0  0  0
 14 16  1  0  0  0  0
 14 17  1  0  0  0  0
 17 18  2  0  0  0  0
 17 19  1  0  0  0  0
 19 20  1  0  0  0  0
 21 22  2  0  0  0  0
 21 23  1  0  0  0  0
 23 24  1  0  0  0  0
 23 25  1  0  0  0  0
 25 26  1  0  0  0  0
 25 27  1  0  0  0  0
 25 28  1  0  0  0  0
M  END
$$$$

  -OEChem-03222214033D

 28 27  0     1  0  0  0  0  0999 V2000
   -2.6834   -4.0642    0.3092 H   0  0  0  0  0  0  0  0  0  0  0  0
   -2.6593   -3.0444   -0.0853 C   0  0  0  0  0  0  0  0  0  0  0  0
   -3.2697   -2.4048    0.5566 H   0  0  0  0  0  0  0  0  0  0  0  0
   -3.0802   -3.0469   -1.0936 H   0  0  0  0  0  0  0  0  0  0  0  0
   -1.2313   -2.5341   -0.1216 C   0  0  0  0  0  0  0  0  0  0  0  0
   -0.3146   -3.2670    0.2047 O   0  0  0  0  0  0  0  0  0  0  0  0
   -0.9765   -1.2406   -0.5311 N   0  0  0  0  0  0  0  0  0  0  0  0
   -1.7889   -0.6420   -0.6572 H   0  0  0  0  0  0  0  0  0  0  0  0
    0.3368   -0.5866   -0.3907 C   0  0  1  0  0  0  0  0  0  0  0  0
    1.0734   -1.2259   -0.8916 H   0  0  0  0  0  0  0  0  0  0  0  0
    0.2696    0.7451   -1.1877 C   0  0  0  0  0  0  0  0  0  0  0  0
    1.0684    0.6920   -1.9352 H   0  0  0  0  0  0  0  0  0  0  0  0
   -0.6669    0.8186   -1.7515 H   0  0  0  0  0  0  0  0  0  0  0  0
    0.5017    2.0491   -0.3867 C   0  0  0  0  0  0  0  0  0  0  0  0
    1.2451    1.9350    0.4054 H   0  0  0  0  0  0  0  0  0  0  0  0
    0.9024    2.7976   -1.0757 H   0  0  0  0  0  0  0  0  0  0  0  0
   -0.7953    2.6249    0.1827 C   0  0  0  0  0  0  0  0  0  0  0  0
   -1.7105    1.8651    0.4681 O   0  0  0  0  0  0  0  0  0  0  0  0
   -0.8638    3.9625    0.3498 O   0  0  0  0  0  0  0  0  0  0  0  0
   -1.7414    4.1355    0.7231 H   0  0  0  0  0  0  0  0  0  0  0  0
    0.8201   -0.4841    1.0766 C   0  0  0  0  0  0  0  0  0  0  0  0
    2.0153   -0.5497    1.3317 O   0  0  0  0  0  0  0  0  0  0  0  0
   -0.0531   -0.0738    2.0684 N   0  0  0  0  0  0  0  0  0  0  0  0
   -0.9870    0.1981    1.7658 H   0  0  0  0  0  0  0  0  0  0  0  0
    0.3664    0.2321    3.4296 C   0  0  0  0  0  0  0  0  0  0  0  0
    1.0444    1.0916    3.4377 H   0  0  0  0  0  0  0  0  0  0  0  0
   -0.5039    0.4684    4.0491 H   0  0  0  0  0  0  0  0  0  0  0  0
    0.8809   -0.6271    3.8730 H   0  0  0  0  0  0  0  0  0  0  0  0
  1  2  1  0  0  0  0
  2  3  1  0  0  0  0
  2  4  1  0  0  0  0
  2  5  1  0  0  0  0
  5  6  2  0  0  0  0
  5  7  1  0  0  0  0
  7  8  1  0  0  0  0
  7  9  1  0  0  0  0
  9 10  1  0  0  0  0
  9 11  1  0  0  0  0
  9 21  1  0  0  0  0
 11 12  1  0  0  0  0
 11 13  1  0  0  0  0
 11 14  1  0  0  0  0
 14 15  1  0  0  0  0
 14 16  1  0  0  0  0
 14 17  1  0  0  0  0
 17 18  2  0  0  0  0
 17 19  1  0  0  0  0
 19 20  1  0  0  0  0
 21 22  2  0  0  0  0
 21 23  1  0  0  0  0
 23 24  1  0  0  0  0
 23 25  1  0  0  0  0
 25 26  1  0  0  0  0
 25 27  1  0  0  0  0
 25 28  1  0  0  0  0
M  END
$$$$

  -OEChem-03222214033D

 28 27  0     1  0  0  0  0  0999 V2000
   -2.6779   -4.0962    0.3123 H   0  0  0  0  0  0  0  0  0  0  0  0
   -2.6574   -3.0834   -0.0997 C   0  0  0  0  0  0  0  0  0  0  0  0
   -3.2900   -2.4405    0.5168 H   0  0  0  0  0  0  0  0  0  0  0  0
   -3.0556   -3.1088   -1.1168 H   0  0  0  0  0  0  0  0  0  0  0  0
   -1.2356   -2.5551   -0.1136 C   0  0  0  0  0  0  0  0  0  0  0  0
   -0.3152   -3.2734    0.2341 O   0  0  0  0  0  0  0  0  0  0  0  0
   -0.9920   -1.2579   -0.5169 N   0  0  0  0  0  0  0  0  0  0  0  0
   -1.8093   -0.6685   -0.6564 H   0  0  0  0  0  0  0  0  0  0  0  0
    0.3114   -0.5878   -0.3702 C   0  0  1  0  0  0  0  0  0  0  0  0
    1.0474   -1.2405   -0.8549 H   0  0  0  0  0  0  0  0  0  0  0  0
    0.2765    0.7190   -1.2092 C   0  0  0  0  0  0  0  0  0  0  0  0
    1.0872    0.6438   -1.9417 H   0  0  0  0  0  0  0  0  0  0  0  0
   -0.6531    0.7805   -1.7856 H   0  0  0  0  0  0  0  0  0  0  0  0
    0.4878    2.0442   -0.4418 C   0  0  0  0  0  0  0  0  0  0  0  0
    1.3628    1.9807    0.2108 H   0  0  0  0  0  0  0  0  0  0  0  0
    0.6914    2.8345   -1.1689 H   0  0  0  0  0  0  0  0  0  0  0  0
   -0.7261    2.4883    0.3802 C   0  0  0  0  0  0  0  0  0  0  0  0
   -1.7046    1.7592    0.4697 O   0  0  0  0  0  0  0  0  0  0  0  0
   -0.6515    3.6980    0.9733 O   0  0  0  0  0  0  0  0  0  0  0  0
   -1.4948    3.8157    1.4361 H   0  0  0  0  0  0  0  0  0  0  0  0
    0.8165   -0.4683    1.0888 C   0  0  0  0  0  0  0  0  0  0  0  0
    2.0185   -0.5002    1.3170 O   0  0  0  0  0  0  0  0  0  0  0  0
   -0.0379   -0.0668    2.0993 N   0  0  0  0  0  0  0  0  0  0  0  0
   -0.9951    0.1485    1.8262 H   0  0  0  0  0  0  0  0  0  0  0  0
    0.4068    0.2529    3.4495 C   0  0  0  0  0  0  0  0  0  0  0  0
    1.0863    1.1113    3.4362 H   0  0  0  0  0  0  0  0  0  0  0  0
   -0.4509    0.4974    4.0832 H   0  0  0  0  0  0  0  0  0  0  0  0
    0.9288   -0.6023    3.8918 H   0  0  0  0  0  0  0  0  0  0  0  0
  1  2  1  0  0  0  0
  2  3  1  0  0  0  0
  2  4  1  0  0  0  0
  2  5  1  0  0  0  0
  5  6  2  0  0  0  0
  5  7  1  0  0  0  0
  7  8  1  0  0  0  0
  7  9  1  0  0  0  0
  9 10  1  0  0  0  0
  9 11  1  0  0  0  0
  9 21  1  0  0  0  0
 11 12  1  0  0  0  0
 11 13  1  0  0  0  0
 11 14  1  0  0  0  0
 14 15  1  0  0  0  0
 14 16  1  0  0  0  0
 14 17  1  0  0  0  0
 17 18  2  0  0  0  0
 17 19  1  0  0  0  0
 19 20  1  0  0  0  0
 21 22  2  0  0  0  0
 21 23  1  0  0  0  0
 23 24  1  0  0  0  0
 23 25  1  0  0  0  0
 25 26  1  0  0  0  0
 25 27  1  0  0  0  0
 25 28  1  0  0  0  0
M  END
$$$$

  -OEChem-03222214033D

 28 27  0     1  0  0  0  0  0999 V2000
   -2.6560   -4.1614    0.2299 H   0  0  0  0  0  0  0  0  0  0  0  0
   -2.6545   -3.1275   -0.1269 C   0  0  0  0  0  0  0  0  0  0  0  0
   -3.2985   -2.5304    0.5231 H   0  0  0  0  0  0  0  0  0  0  0  0
   -3.0525   -3.1060   -1.1442 H   0  0  0  0  0  0  0  0  0  0  0  0
   -1.2426   -2.5733   -0.1117 C   0  0  0  0  0  0  0  0  0  0  0  0
   -0.3140   -3.2822    0.2339 O   0  0  0  0  0  0  0  0  0  0  0  0
   -1.0162   -1.2652   -0.4897 N   0  0  0  0  0  0  0  0  0  0  0  0
   -1.8402   -0.6866   -0.6328 H   0  0  0  0  0  0  0  0  0  0  0  0
    0.2783   -0.5800   -0.3358 C   0  0  1  0  0  0  0  0  0  0  0  0
    1.0091   -1.2460   -0.8101 H   0  0  0  0  0  0  0  0  0  0  0  0
    0.2911    0.7026   -1.2127 C   0  0  0  0  0  0  0  0  0  0  0  0
    1.1099    0.5965   -1.9323 H   0  0  0  0  0  0  0  0  0  0  0  0
   -0.6328    0.7520   -1.7990 H   0  0  0  0  0  0  0  0  0  0  0  0
    0.4868    2.0601   -0.4999 C   0  0  0  0  0  0  0  0  0  0  0  0
    1.4596    2.0628    0.0012 H   0  0  0  0  0  0  0  0  0  0  0  0
    0.5037    2.8568   -1.2477 H   0  0  0  0  0  0  0  0  0  0  0  0
   -0.5817    2.4121    0.5371 C   0  0  0  0  0  0  0  0  0  0  0  0
   -1.6312    1.7842    0.5623 O   0  0  0  0  0  0  0  0  0  0  0  0
   -0.3137    3.4367    1.3736 O   0  0  0  0  0  0  0  0  0  0  0  0
   -1.0949    3.5259    1.9395 H   0  0  0  0  0  0  0  0  0  0  0  0
    0.8082   -0.4706    1.1155 C   0  0  0  0  0  0  0  0  0  0  0  0
    2.0158   -0.4700    1.3144 O   0  0  0  0  0  0  0  0  0  0  0  0
   -0.0283   -0.0971    2.1513 N   0  0  0  0  0  0  0  0  0  0  0  0
   -0.9956    0.1005    1.9029 H   0  0  0  0  0  0  0  0  0  0  0  0
    0.4442    0.2307    3.4902 C   0  0  0  0  0  0  0  0  0  0  0  0
    1.0652    1.1323    3.4672 H   0  0  0  0  0  0  0  0  0  0  0  0
   -0.4042    0.4078    4.1579 H   0  0  0  0  0  0  0  0  0  0  0  0
    1.0367   -0.5945    3.8996 H   0  0  0  0  0  0  0  0  0  0  0  0
  1  2  1  0  0  0  0
  2  3  1  0  0  0  0
  2  4  1  0  0  0  0
  2  5  1  0  0  0  0
  5  6  2  0  0  0  0
  5  7  1  0  0  0  0
  7  8  1  0  0  0  0
  7  9  1  0  0  0  0
  9 10  1  0  0  0  0
  9 11  1  0  0  0  0
  9 21  1  0  0  0  0
 11 12  1  0  0  0  0
 11 13  1  0  0  0  0
 11 14  1  0  0  0  0
 14 15  1  0  0  0  0
 14 16  1  0  0  0  0
 14 17  1  0  0  0  0
 17 18  2  0  0  0  0
 17 19  1  0  0  0  0
 19 20  1  0  0  0  0
 21 22  2  0  0  0  0
 21 23  1  0  0  0  0
 23 24  1  0  0  0  0
 23 25  1  0  0  0  0
 25 26  1  0  0  0  0
 25 27  1  0  0  0  0
 25 28  1  0  0  0  0
M  END
$$$$

  -OEChem-03222214033D

 28 27  0     1  0  0  0  0  0999 V2000
   -2.6832   -4.1643    0.1345 H   0  0  0  0  0  0  0  0  0  0  0  0
   -2.6818   -3.1211   -0.1941 C   0  0  0  0  0  0  0  0  0  0  0  0
   -3.3298   -2.5432    0.4691 H   0  0  0  0  0  0  0  0  0  0  0  0
   -3.0756   -3.0723   -1.2122 H   0  0  0  0  0  0  0  0  0  0  0  0
   -1.2713   -2.5647   -0.1569 C   0  0  0  0  0  0  0  0  0  0  0  0
   -0.3419   -3.2835    0.1650 O   0  0  0  0  0  0  0  0  0  0  0  0
   -1.0495   -1.2408   -0.4795 N   0  0  0  0  0  0  0  0  0  0  0  0
   -1.8746   -0.6626   -0.6159 H   0  0  0  0  0  0  0  0  0  0  0  0
    0.2442   -0.5581   -0.3067 C   0  0  1  0  0  0  0  0  0  0  0  0
    0.9622   -1.2336   -0.7881 H   0  0  0  0  0  0  0  0  0  0  0  0
    0.3065    0.7159   -1.1974 C   0  0  0  0  0  0  0  0  0  0  0  0
    1.1290    0.5828   -1.9085 H   0  0  0  0  0  0  0  0  0  0  0  0
   -0.6119    0.7639   -1.7919 H   0  0  0  0  0  0  0  0  0  0  0  0
    0.4987    2.1015   -0.5369 C   0  0  0  0  0  0  0  0  0  0  0  0
    1.5434    2.1813   -0.2205 H   0  0  0  0  0  0  0  0  0  0  0  0
    0.3202    2.8858   -1.2766 H   0  0  0  0  0  0  0  0  0  0  0  0
   -0.3621    2.3908    0.6902 C   0  0  0  0  0  0  0  0  0  0  0  0
   -1.4736    1.8862    0.7629 O   0  0  0  0  0  0  0  0  0  0  0  0
    0.1329    3.2319    1.6225 O   0  0  0  0  0  0  0  0  0  0  0  0
   -0.5537    3.3050    2.3015 H   0  0  0  0  0  0  0  0  0  0  0  0
    0.8023   -0.4994    1.1377 C   0  0  0  0  0  0  0  0  0  0  0  0
    2.0141   -0.5107    1.3088 O   0  0  0  0  0  0  0  0  0  0  0  0
   -0.0068   -0.1708    2.2100 N   0  0  0  0  0  0  0  0  0  0  0  0
   -0.9764    0.0517    1.9943 H   0  0  0  0  0  0  0  0  0  0  0  0
    0.5021    0.0888    3.5507 C   0  0  0  0  0  0  0  0  0  0  0  0
    1.1617    0.9628    3.5482 H   0  0  0  0  0  0  0  0  0  0  0  0
   -0.3262    0.2795    4.2393 H   0  0  0  0  0  0  0  0  0  0  0  0
    1.0641   -0.7756    3.9200 H   0  0  0  0  0  0  0  0  0  0  0  0
  1  2  1  0  0  0  0
  2  3  1  0  0  0  0
  2  4  1  0  0  0  0
  2  5  1  0  0  0  0
  5  6  2  0  0  0  0
  5  7  1  0  0  0  0
  7  8  1  0  0  0  0
  7  9  1  0  0  0  0
  9 10  1  0  0  0  0
  9 11  1  0  0  0  0
  9 21  1  0  0  0  0
 11 12  1  0  0  0  0
 11 13  1  0  0  0  0
 11 14  1  0  0  0  0
 14 15  1  0  0  0  0
 14 16  1  0  0  0  0
 14 17  1  0  0  0  0
 17 18  2  0  0  0  0
 17 19  1  0  0  0  0
 19 20  1  0  0  0  0
 21 22  2  0  0  0  0
 21 23  1  0  0  0  0
 23 24  1  0  0  0  0
 23 25  1  0  0  0  0
 25 26  1  0  0  0  0
 25 27  1  0  0  0  0
 25 28  1  0  0  0  0
M  END
$$$$

  -OEChem-03222214033D

 28 27  0     1  0  0  0  0  0999 V2000
   -2.4957   -4.2888    0.1706 H   0  0  0  0  0  0  0  0  0  0  0  0
   -2.5531   -3.2459   -0.1539 C   0  0  0  0  0  0  0  0  0  0  0  0
   -3.2251   -2.7055    0.5172 H   0  0  0  0  0  0  0  0  0  0  0  0
   -2.9572   -3.2150   -1.1686 H   0  0  0  0  0  0  0  0  0  0  0  0
   -1.1736   -2.6155   -0.1269 C   0  0  0  0  0  0  0  0  0  0  0  0
   -0.2038   -3.2882    0.1740 O   0  0  0  0  0  0  0  0  0  0  0  0
   -1.0268   -1.2775   -0.4351 N   0  0  0  0  0  0  0  0  0  0  0  0
   -1.8827   -0.7462   -0.5684 H   0  0  0  0  0  0  0  0  0  0  0  0
    0.2333   -0.5288   -0.2818 C   0  0  1  0  0  0  0  0  0  0  0  0
    0.9699   -1.1810   -0.7674 H   0  0  0  0  0  0  0  0  0  0  0  0
    0.2423    0.7235   -1.2095 C   0  0  0  0  0  0  0  0  0  0  0  0
    1.0635    0.5968   -1.9236 H   0  0  0  0  0  0  0  0  0  0  0  0
   -0.6796    0.7016   -1.7995 H   0  0  0  0  0  0  0  0  0  0  0  0
    0.3666    2.1587   -0.6367 C   0  0  0  0  0  0  0  0  0  0  0  0
    1.4333    2.3941   -0.5737 H   0  0  0  0  0  0  0  0  0  0  0  0
   -0.0806    2.8704   -1.3355 H   0  0  0  0  0  0  0  0  0  0  0  0
   -0.2114    2.4169    0.7486 C   0  0  0  0  0  0  0  0  0  0  0  0
   -1.3391    2.0079    0.9829 O   0  0  0  0  0  0  0  0  0  0  0  0
    0.5211    3.1295    1.6304 O   0  0  0  0  0  0  0  0  0  0  0  0
   -0.0189    3.1898    2.4319 H   0  0  0  0  0  0  0  0  0  0  0  0
    0.8246   -0.4566    1.1492 C   0  0  0  0  0  0  0  0  0  0  0  0
    2.0400   -0.4396    1.2916 O   0  0  0  0  0  0  0  0  0  0  0  0
    0.0326   -0.1847    2.2499 N   0  0  0  0  0  0  0  0  0  0  0  0
   -0.9431    0.0367    2.0630 H   0  0  0  0  0  0  0  0  0  0  0  0
    0.5670    0.0335    3.5879 C   0  0  0  0  0  0  0  0  0  0  0  0
    1.2131    0.9174    3.6038 H   0  0  0  0  0  0  0  0  0  0  0  0
   -0.2487    0.1851    4.3009 H   0  0  0  0  0  0  0  0  0  0  0  0
    1.1506   -0.8351    3.9114 H   0  0  0  0  0  0  0  0  0  0  0  0
  1  2  1  0  0  0  0
  2  3  1  0  0  0  0
  2  4  1  0  0  0  0
  2  5  1  0  0  0  0
  5  6  2  0  0  0  0
  5  7  1  0  0  0  0
  7  8  1  0  0  0  0
  7  9  1  0  0  0  0
  9 10  1  0  0  0  0
  9 11  1  0  0  0  0
  9 21  1  0  0  0  0
 11 12  1  0  0  0  0
 11 13  1  0  0  0  0
 11 14  1  0  0  0  0
 14 15  1  0  0  0  0
 14 16  1  0  0  0  0
 14 17  1  0  0  0  0
 17 18  2  0  0  0  0
 17 19  1  0  0  0  0
 19 20  1  0  0  0  0
 21 22  2  0  0  0  0
 21 23  1  0  0  0  0
 23 24  1  0  0  0  0
 23 25  1  0  0  0  0
 25 26  1  0  0  0  0
 25 27  1  0  0  0  0
 25 28  1  0  0  0  0
M  END
$$$$

  -OEChem-03222214033D

 28 27  0     1  0  0  0  0  0999 V2000
   -2.9569   -3.9965    0.1807 H   0  0  0  0  0  0  0  0  0  0  0  0
   -2.8571   -2.9638   -0.1660 C   0  0  0  0  0  0  0  0  0  0  0  0
   -3.5299   -2.3310    0.4175 H   0  0  0  0  0  0  0  0  0  0  0  0
   -3.1447   -2.9180   -1.2191 H   0  0  0  0  0  0  0  0  0  0  0  0
   -1.4243   -2.4938    0.0016 C   0  0  0  0  0  0  0  0  0  0  0  0
   -0.5858   -3.2502    0.4564 O   0  0  0  0  0  0  0  0  0  0  0  0
   -1.0799   -1.2050   -0.3561 N   0  0  0  0  0  0  0  0  0  0  0  0
   -1.8290   -0.6058   -0.6894 H   0  0  0  0  0  0  0  0  0  0  0  0
    0.2693   -0.6275   -0.2041 C   0  0  1  0  0  0  0  0  0  0  0  0
    0.9186   -1.3975   -0.6396 H   0  0  0  0  0  0  0  0  0  0  0  0
    0.4629    0.5652   -1.1910 C   0  0  0  0  0  0  0  0  0  0  0  0
    1.2755    0.2807   -1.8689 H   0  0  0  0  0  0  0  0  0  0  0  0
   -0.4367    0.6228   -1.8122 H   0  0  0  0  0  0  0  0  0  0  0  0
    0.7727    2.0193   -0.7371 C   0  0  0  0  0  0  0  0  0  0  0  0
    1.8282    2.2097   -0.9570 H   0  0  0  0  0  0  0  0  0  0  0  0
    0.1909    2.7083   -1.3549 H   0  0  0  0  0  0  0  0  0  0  0  0
    0.5577    2.4177    0.7167 C   0  0  0  0  0  0  0  0  0  0  0  0
    1.5018    2.8214    1.3684 O   0  0  0  0  0  0  0  0  0  0  0  0
   -0.7137    2.4195    1.1777 O   0  0  0  0  0  0  0  0  0  0  0  0
   -0.6316    2.7671    2.0801 H   0  0  0  0  0  0  0  0  0  0  0  0
    0.8341   -0.5738    1.2363 C   0  0  0  0  0  0  0  0  0  0  0  0
    2.0359   -0.7209    1.4095 O   0  0  0  0  0  0  0  0  0  0  0  0
    0.0580   -0.1477    2.2988 N   0  0  0  0  0  0  0  0  0  0  0  0
   -0.9272    0.0123    2.1162 H   0  0  0  0  0  0  0  0  0  0  0  0
    0.5797    0.0345    3.6477 C   0  0  0  0  0  0  0  0  0  0  0  0
    1.3740    0.7887    3.6520 H   0  0  0  0  0  0  0  0  0  0  0  0
   -0.2162    0.3659    4.3209 H   0  0  0  0  0  0  0  0  0  0  0  0
    0.9869   -0.9076    4.0299 H   0  0  0  0  0  0  0  0  0  0  0  0
  1  2  1  0  0  0  0
  2  3  1  0  0  0  0
  2  4  1  0  0  0  0
  2  5  1  0  0  0  0
  5  6  2  0  0  0  0
  5  7  1  0  0  0  0
  7  8  1  0  0  0  0
  7  9  1  0  0  0  0
  9 10  1  0  0  0  0
  9 11  1  0  0  0  0
  9 21  1  0  0  0  0
 11 12  1  0  0  0  0
 11 13  1  0  0  0  0
 11 14  1  0  0  0  0
 14 15  1  0  0  0  0
 14 16  1  0  0  0  0
 14 17  1  0  0  0  0
 17 18  2  0  0  0  0
 17 19  1  0  0  0  0
 19 20  1  0  0  0  0
 21 22  2  0  0  0  0
 21 23  1  0  0  0  0
 23 24  1  0  0  0  0
 23 25  1  0  0  0  0
 25 26  1  0  0  0  0
 25 27  1  0  0  0  0
 25 28  1  0  0  0  0
M  END
$$$$

  -OEChem-03222214033D

 28 27  0     1  0  0  0  0  0999 V2000
   -3.0226   -3.8891   -0.0064 H   0  0  0  0  0  0  0  0  0  0  0  0
   -2.9092   -2.8438   -0.3081 C   0  0  0  0  0  0  0  0  0  0  0  0
   -3.5600   -2.2262    0.3154 H   0  0  0  0  0  0  0  0  0  0  0  0
   -3.2134   -2.7452   -1.3529 H   0  0  0  0  0  0  0  0  0  0  0  0
   -1.4650   -2.4086   -0.1455 C   0  0  0  0  0  0  0  0  0  0  0  0
   -0.6296   -3.2086    0.2331 O   0  0  0  0  0  0  0  0  0  0  0  0
   -1.1067   -1.1041   -0.4255 N   0  0  0  0  0  0  0  0  0  0  0  0
   -1.8491   -0.4784   -0.7222 H   0  0  0  0  0  0  0  0  0  0  0  0
    0.2605   -0.5643   -0.2870 C   0  0  1  0  0  0  0  0  0  0  0  0
    0.8889   -1.2927   -0.8152 H   0  0  0  0  0  0  0  0  0  0  0  0
    0.3921    0.7233   -1.1623 C   0  0  0  0  0  0  0  0  0  0  0  0
    1.1824    0.4965   -1.8870 H   0  0  0  0  0  0  0  0  0  0  0  0
   -0.5243    0.8287   -1.7517 H   0  0  0  0  0  0  0  0  0  0  0  0
    0.7378    2.1408   -0.6179 C   0  0  0  0  0  0  0  0  0  0  0  0
    1.6346    2.4886   -1.1401 H   0  0  0  0  0  0  0  0  0  0  0  0
   -0.0713    2.8165   -0.9074 H   0  0  0  0  0  0  0  0  0  0  0  0
    0.9771    2.3727    0.8671 C   0  0  0  0  0  0  0  0  0  0  0  0
    2.1183    2.4839    1.2704 O   0  0  0  0  0  0  0  0  0  0  0  0
   -0.1076    2.5606    1.6506 O   0  0  0  0  0  0  0  0  0  0  0  0
    0.2669    2.7263    2.5303 H   0  0  0  0  0  0  0  0  0  0  0  0
    0.8527   -0.6379    1.1411 C   0  0  0  0  0  0  0  0  0  0  0  0
    2.0392   -0.8931    1.2885 O   0  0  0  0  0  0  0  0  0  0  0  0
    0.1052   -0.2777    2.2477 N   0  0  0  0  0  0  0  0  0  0  0  0
   -0.8757   -0.0681    2.0955 H   0  0  0  0  0  0  0  0  0  0  0  0
    0.6262   -0.3216    3.6080 C   0  0  0  0  0  0  0  0  0  0  0  0
    1.4975    0.3349    3.7052 H   0  0  0  0  0  0  0  0  0  0  0  0
   -0.1376    0.0095    4.3178 H   0  0  0  0  0  0  0  0  0  0  0  0
    0.9241   -1.3426    3.8694 H   0  0  0  0  0  0  0  0  0  0  0  0
  1  2  1  0  0  0  0
  2  3  1  0  0  0  0
  2  4  1  0  0  0  0
  2  5  1  0  0  0  0
  5  6  2  0  0  0  0
  5  7  1  0  0  0  0
  7  8  1  0  0  0  0
  7  9  1  0  0  0  0
  9 10  1  0  0  0  0
  9 11  1  0  0  0  0
  9 21  1  0  0  0  0
 11 12  1  0  0  0  0
 11 13  1  0  0  0  0
 11 14  1  0  0  0  0
 14 15  1  0  0  0  0
 14 16  1  0  0  0  0
 14 17  1  0  0  0  0
 17 18  2  0  0  0  0
 17 19  1  0  0  0  0
 19 20  1  0  0  0  0
 21 22  2  0  0  0  0
 21 23  1  0  0  0  0
 23 24  1  0  0  0  0
 23 25  1  0  0  0  0
 25 26  1  0  0  0  0
 25 27  1  0  0  0  0
 25 28  1  0  0  0  0
M  END
$$$$

  -OEChem-03222214033D

 28 27  0     1  0  0  0  0  0999 V2000
   -3.1280   -3.7838    0.1472 H   0  0  0  0  0  0  0  0  0  0  0  0
   -2.9872   -2.7531   -0.1913 C   0  0  0  0  0  0  0  0  0  0  0  0
   -3.6063   -2.0949    0.4228 H   0  0  0  0  0  0  0  0  0  0  0  0
   -3.3084   -2.6792   -1.2330 H   0  0  0  0  0  0  0  0  0  0  0  0
   -1.5267   -2.3599   -0.0695 C   0  0  0  0  0  0  0  0  0  0  0  0
   -0.7115   -3.1733    0.3233 O   0  0  0  0  0  0  0  0  0  0  0  0
   -1.1319   -1.0800   -0.4090 N   0  0  0  0  0  0  0  0  0  0  0  0
   -1.8560   -0.4538   -0.7463 H   0  0  0  0  0  0  0  0  0  0  0  0
    0.2582   -0.5836   -0.3404 C   0  0  1  0  0  0  0  0  0  0  0  0
    0.8616   -1.3162   -0.8908 H   0  0  0  0  0  0  0  0  0  0  0  0
    0.3343    0.7235   -1.1956 C   0  0  0  0  0  0  0  0  0  0  0  0
    1.0892    0.4997   -1.9579 H   0  0  0  0  0  0  0  0  0  0  0  0
   -0.6057    0.8476   -1.7425 H   0  0  0  0  0  0  0  0  0  0  0  0
    0.7360    2.1278   -0.6566 C   0  0  0  0  0  0  0  0  0  0  0  0
    1.3745    2.6109   -1.4024 H   0  0  0  0  0  0  0  0  0  0  0  0
   -0.1779    2.7248   -0.5970 H   0  0  0  0  0  0  0  0  0  0  0  0
    1.4207    2.2860    0.6934 C   0  0  0  0  0  0  0  0  0  0  0  0
    2.6312    2.1888    0.7388 O   0  0  0  0  0  0  0  0  0  0  0  0
    0.6632    2.6371    1.7545 O   0  0  0  0  0  0  0  0  0  0  0  0
    1.2966    2.6903    2.4876 H   0  0  0  0  0  0  0  0  0  0  0  0
    0.8608   -0.6455    1.0841 C   0  0  0  0  0  0  0  0  0  0  0  0
    2.0248   -0.9834    1.2418 O   0  0  0  0  0  0  0  0  0  0  0  0
    0.1314   -0.2247    2.1816 N   0  0  0  0  0  0  0  0  0  0  0  0
   -0.8447    0.0007    2.0244 H   0  0  0  0  0  0  0  0  0  0  0  0
    0.6195   -0.3462    3.5495 C   0  0  0  0  0  0  0  0  0  0  0  0
    1.5658    0.1920    3.6691 H   0  0  0  0  0  0  0  0  0  0  0  0
   -0.1076    0.0753    4.2499 H   0  0  0  0  0  0  0  0  0  0  0  0
    0.7793   -1.3993    3.8046 H   0  0  0  0  0  0  0  0  0  0  0  0
  1  2  1  0  0  0  0
  2  3  1  0  0  0  0
  2  4  1  0  0  0  0
  2  5  1  0  0  0  0
  5  6  2  0  0  0  0
  5  7  1  0  0  0  0
  7  8  1  0  0  0  0
  7  9  1  0  0  0  0
  9 10  1  0  0  0  0
  9 11  1  0  0  0  0
  9 21  1  0  0  0  0
 11 12  1  0  0  0  0
 11 13  1  0  0  0  0
 11 14  1  0  0  0  0
 14 15  1  0  0  0  0
 14 16  1  0  0  0  0
 14 17  1  0  0  0  0
 17 18  2  0  0  0  0
 17 19  1  0  0  0  0
 19 20  1  0  0  0  0
 21 22  2  0  0  0  0
 21 23  1  0  0  0  0
 23 24  1  0  0  0  0
 23 25  1  0  0  0  0
 25 26  1  0  0  0  0
 25 27  1  0  0  0  0
 25 28  1  0  0  0  0
M  END
$$$$

  -OEChem-03222214033D

 28 27  0     1  0  0  0  0  0999 V2000
   -2.6885   -4.0898    0.2988 H   0  0  0  0  0  0  0  0  0  0  0  0
   -2.6448   -3.0750   -0.1070 C   0  0  0  0  0  0  0  0  0  0  0  0
   -3.3605   -2.4504    0.4325 H   0  0  0  0  0  0  0  0  0  0  0  0
   -2.9214   -3.1077   -1.1635 H   0  0  0  0  0  0  0  0  0  0  0  0
   -1.2441   -2.5129    0.0467 C   0  0  0  0  0  0  0  0  0  0  0  0
   -0.3752   -3.1895    0.5636 O   0  0  0  0  0  0  0  0  0  0  0  0
   -0.9654   -1.2370   -0.4057 N   0  0  0  0  0  0  0  0  0  0  0  0
   -1.7206   -0.7467   -0.8740 H   0  0  0  0  0  0  0  0  0  0  0  0
    0.3657   -0.5948   -0.3471 C   0  0  1  0  0  0  0  0  0  0  0  0
    1.0773   -1.2734   -0.8333 H   0  0  0  0  0  0  0  0  0  0  0  0
    0.2855    0.6840   -1.2446 C   0  0  0  0  0  0  0  0  0  0  0  0
    1.0599    0.5286   -2.0043 H   0  0  0  0  0  0  0  0  0  0  0  0
   -0.6655    0.6920   -1.7866 H   0  0  0  0  0  0  0  0  0  0  0  0
    0.5293    2.1307   -0.7298 C   0  0  0  0  0  0  0  0  0  0  0  0
    0.8613    2.7494   -1.5684 H   0  0  0  0  0  0  0  0  0  0  0  0
   -0.4355    2.5287   -0.4044 H   0  0  0  0  0  0  0  0  0  0  0  0
    1.4938    2.3646    0.4259 C   0  0  0  0  0  0  0  0  0  0  0  0
    2.6824    2.2570    0.1939 O   0  0  0  0  0  0  0  0  0  0  0  0
    1.0015    2.7692    1.6154 O   0  0  0  0  0  0  0  0  0  0  0  0
    1.7840    2.8263    2.1865 H   0  0  0  0  0  0  0  0  0  0  0  0
    0.8755   -0.4796    1.1110 C   0  0  0  0  0  0  0  0  0  0  0  0
    2.0525   -0.6777    1.3755 O   0  0  0  0  0  0  0  0  0  0  0  0
    0.0270   -0.0437    2.1136 N   0  0  0  0  0  0  0  0  0  0  0  0
   -0.9565    0.0216    1.8769 H   0  0  0  0  0  0  0  0  0  0  0  0
    0.4145   -0.0167    3.5184 C   0  0  0  0  0  0  0  0  0  0  0  0
    1.3202    0.5830    3.6565 H   0  0  0  0  0  0  0  0  0  0  0  0
   -0.3838    0.4239    4.1230 H   0  0  0  0  0  0  0  0  0  0  0  0
    0.6068   -1.0322    3.8805 H   0  0  0  0  0  0  0  0  0  0  0  0
  1  2  1  0  0  0  0
  2  3  1  0  0  0  0
  2  4  1  0  0  0  0
  2  5  1  0  0  0  0
  5  6  2  0  0  0  0
  5  7  1  0  0  0  0
  7  8  1  0  0  0  0
  7  9  1  0  0  0  0
  9 10  1  0  0  0  0
  9 11  1  0  0  0  0
  9 21  1  0  0  0  0
 11 12  1  0  0  0  0
 11 13  1  0  0  0  0
 11 14  1  0  0  0  0
 14 15  1  0  0  0  0
 14 16  1  0  0  0  0
 14 17  1  0  0  0  0
 17 18  2  0  0  0  0
 17 19  1  0  0  0  0
 19 20  1  0  0  0  0
 21 22  2  0  0  0  0
 21 23  1  0  0  0  0
 23 24  1  0  0  0  0
 23 25  1  0  0  0  0
 25 26  1  0  0  0  0
 25 27  1  0  0  0  0
 25 28  1  0  0  0  0
M  END
$$$$

  -OEChem-03222214033D

 28 27  0     1  0  0  0  0  0999 V2000
   -2.7721   -4.0188    0.3880 H   0  0  0  0  0  0  0  0  0  0  0  0
   -2.6992   -3.0277   -0.0692 C   0  0  0  0  0  0  0  0  0  0  0  0
   -3.4297   -2.3678    0.4048 H   0  0  0  0  0  0  0  0  0  0  0  0
   -2.9313   -3.1152   -1.1333 H   0  0  0  0  0  0  0  0  0  0  0  0
   -1.2996   -2.4717    0.1139 C   0  0  0  0  0  0  0  0  0  0  0  0
   -0.4656   -3.1219    0.7151 O   0  0  0  0  0  0  0  0  0  0  0  0
   -0.9840   -1.2301   -0.4053 N   0  0  0  0  0  0  0  0  0  0  0  0
   -1.7028   -0.7790   -0.9619 H   0  0  0  0  0  0  0  0  0  0  0  0
    0.3619   -0.6167   -0.3625 C   0  0  1  0  0  0  0  0  0  0  0  0
    1.0717   -1.3159   -0.8207 H   0  0  0  0  0  0  0  0  0  0  0  0
    0.2972    0.6517   -1.2750 C   0  0  0  0  0  0  0  0  0  0  0  0
    1.0448    0.4834   -2.0584 H   0  0  0  0  0  0  0  0  0  0  0  0
   -0.6707    0.6923   -1.7842 H   0  0  0  0  0  0  0  0  0  0  0  0
    0.5839    2.0742   -0.7257 C   0  0  0  0  0  0  0  0  0  0  0  0
    0.6891    2.7669   -1.5650 H   0  0  0  0  0  0  0  0  0  0  0  0
   -0.2842    2.3968   -0.1450 H   0  0  0  0  0  0  0  0  0  0  0  0
    1.8072    2.2374    0.1699 C   0  0  0  0  0  0  0  0  0  0  0  0
    2.8951    2.0035   -0.3223 O   0  0  0  0  0  0  0  0  0  0  0  0
    1.6404    2.6839    1.4322 O   0  0  0  0  0  0  0  0  0  0  0  0
    2.5277    2.6283    1.8216 H   0  0  0  0  0  0  0  0  0  0  0  0
    0.8458   -0.4354    1.0991 C   0  0  0  0  0  0  0  0  0  0  0  0
    2.0173   -0.6219    1.3974 O   0  0  0  0  0  0  0  0  0  0  0  0
   -0.0174    0.0750    2.0530 N   0  0  0  0  0  0  0  0  0  0  0  0
   -0.9983    0.1050    1.7994 H   0  0  0  0  0  0  0  0  0  0  0  0
    0.3465    0.1990    3.4588 C   0  0  0  0  0  0  0  0  0  0  0  0
    1.2249    0.8424    3.5739 H   0  0  0  0  0  0  0  0  0  0  0  0
   -0.4783    0.6406    4.0259 H   0  0  0  0  0  0  0  0  0  0  0  0
    0.5736   -0.7852    3.8820 H   0  0  0  0  0  0  0  0  0  0  0  0
  1  2  1  0  0  0  0
  2  3  1  0  0  0  0
  2  4  1  0  0  0  0
  2  5  1  0  0  0  0
  5  6  2  0  0  0  0
  5  7  1  0  0  0  0
  7  8  1  0  0  0  0
  7  9  1  0  0  0  0
  9 10  1  0  0  0  0
  9 11  1  0  0  0  0
  9 21  1  0  0  0  0
 11 12  1  0  0  0  0
 11 13  1  0  0  0  0
 11 14  1  0  0  0  0
 14 15  1  0  0  0  0
 14 16  1  0  0  0  0
 14 17  1  0  0  0  0
 17 18  2  0  0  0  0
 17 19  1  0  0  0  0
 19 20  1  0  0  0  0
 21 22  2  0  0  0  0
 21 23  1  0  0  0  0
 23 24  1  0  0  0  0
 23 25  1  0  0  0  0
 25 26  1  0  0  0  0
 25 27  1  0  0  0  0
 25 28  1  0  0  0  0
M  END
$$$$

  -OEChem-03222214033D

 28 27  0     1  0  0  0  0  0999 V2000
   -2.7148   -4.0710    0.3649 H   0  0  0  0  0  0  0  0  0  0  0  0
   -2.6632   -3.0817   -0.0990 C   0  0  0  0  0  0  0  0  0  0  0  0
   -3.4291   -2.4437    0.3483 H   0  0  0  0  0  0  0  0  0  0  0  0
   -2.8614   -3.1853   -1.1685 H   0  0  0  0  0  0  0  0  0  0  0  0
   -1.2898   -2.4753    0.1182 C   0  0  0  0  0  0  0  0  0  0  0  0
   -0.4581   -3.0801    0.7682 O   0  0  0  0  0  0  0  0  0  0  0  0
   -0.9968   -1.2368   -0.4206 N   0  0  0  0  0  0  0  0  0  0  0  0
   -1.7016   -0.8356   -1.0308 H   0  0  0  0  0  0  0  0  0  0  0  0
    0.3369   -0.5991   -0.3756 C   0  0  1  0  0  0  0  0  0  0  0  0
    1.0591   -1.2911   -0.8252 H   0  0  0  0  0  0  0  0  0  0  0  0
    0.2681    0.6652   -1.2890 C   0  0  0  0  0  0  0  0  0  0  0  0
    1.0009    0.5167   -2.0902 H   0  0  0  0  0  0  0  0  0  0  0  0
   -0.7111    0.7142   -1.7750 H   0  0  0  0  0  0  0  0  0  0  0  0
    0.5443    2.0604   -0.6748 C   0  0  0  0  0  0  0  0  0  0  0  0
    0.4313    2.8228   -1.4499 H   0  0  0  0  0  0  0  0  0  0  0  0
   -0.2009    2.2677    0.0975 H   0  0  0  0  0  0  0  0  0  0  0  0
    1.9313    2.2314   -0.0602 C   0  0  0  0  0  0  0  0  0  0  0  0
    2.8984    1.9653   -0.7508 O   0  0  0  0  0  0  0  0  0  0  0  0
    2.0215    2.6969    1.2033 O   0  0  0  0  0  0  0  0  0  0  0  0
    2.9633    2.6165    1.4224 H   0  0  0  0  0  0  0  0  0  0  0  0
    0.8283   -0.3732    1.0771 C   0  0  0  0  0  0  0  0  0  0  0  0
    2.0115   -0.5047    1.3599 O   0  0  0  0  0  0  0  0  0  0  0  0
   -0.0364    0.1451    2.0247 N   0  0  0  0  0  0  0  0  0  0  0  0
   -1.0233    0.1165    1.7939 H   0  0  0  0  0  0  0  0  0  0  0  0
    0.3558    0.3724    3.4095 C   0  0  0  0  0  0  0  0  0  0  0  0
    1.1918    1.0778    3.4606 H   0  0  0  0  0  0  0  0  0  0  0  0
   -0.4812    0.7907    3.9763 H   0  0  0  0  0  0  0  0  0  0  0  0
    0.6600   -0.5686    3.8799 H   0  0  0  0  0  0  0  0  0  0  0  0
  1  2  1  0  0  0  0
  2  3  1  0  0  0  0
  2  4  1  0  0  0  0
  2  5  1  0  0  0  0
  5  6  2  0  0  0  0
  5  7  1  0  0  0  0
  7  8  1  0  0  0  0
  7  9  1  0  0  0  0
  9 10  1  0  0  0  0
  9 11  1  0  0  0  0
  9 21  1  0  0  0  0
 11 12  1  0  0  0  0
 11 13  1  0  0  0  0
 11 14  1  0  0  0  0
 14 15  1  0  0  0  0
 14 16  1  0  0  0  0
 14 17  1  0  0  0  0
 17 18  2  0  0  0  0
 17 19  1  0  0  0  0
 19 20  1  0  0  0  0
 21 22  2  0  0  0  0
 21 23  1  0  0  0  0
 23 24  1  0  0  0  0
 23 25  1  0  0  0  0
 25 26  1  0  0  0  0
 25 27  1  0  0  0  0
 25 28  1  0  0  0  0
M  END
$$$$

  -OEChem-03222214033D

 28 27  0     1  0  0  0  0  0999 V2000
   -2.6696   -4.1293    0.3180 H   0  0  0  0  0  0  0  0  0  0  0  0
   -2.6404   -3.1407   -0.1496 C   0  0  0  0  0  0  0  0  0  0  0  0
   -3.4383   -2.5276    0.2760 H   0  0  0  0  0  0  0  0  0  0  0  0
   -2.8094   -3.2557   -1.2230 H   0  0  0  0  0  0  0  0  0  0  0  0
   -1.2937   -2.4875    0.0982 C   0  0  0  0  0  0  0  0  0  0  0  0
   -0.4570   -3.0625    0.7690 O   0  0  0  0  0  0  0  0  0  0  0  0
   -1.0290   -1.2389   -0.4314 N   0  0  0  0  0  0  0  0  0  0  0  0
   -1.7334   -0.8573   -1.0549 H   0  0  0  0  0  0  0  0  0  0  0  0
    0.2904   -0.5751   -0.3756 C   0  0  1  0  0  0  0  0  0  0  0  0
    1.0172   -1.2660   -0.8198 H   0  0  0  0  0  0  0  0  0  0  0  0
    0.2439    0.6792   -1.2982 C   0  0  0  0  0  0  0  0  0  0  0  0
    0.9738    0.5342   -2.1026 H   0  0  0  0  0  0  0  0  0  0  0  0
   -0.7358    0.7317   -1.7826 H   0  0  0  0  0  0  0  0  0  0  0  0
    0.5033    2.0574   -0.6416 C   0  0  0  0  0  0  0  0  0  0  0  0
    0.1959    2.8411   -1.3385 H   0  0  0  0  0  0  0  0  0  0  0  0
   -0.1053    2.1742    0.2579 H   0  0  0  0  0  0  0  0  0  0  0  0
    1.9695    2.3203   -0.3014 C   0  0  0  0  0  0  0  0  0  0  0  0
    2.8168    2.0936   -1.1471 O   0  0  0  0  0  0  0  0  0  0  0  0
    2.2511    2.8244    0.9184 O   0  0  0  0  0  0  0  0  0  0  0  0
    3.2195    2.8166    0.9685 H   0  0  0  0  0  0  0  0  0  0  0  0
    0.8081   -0.3322    1.0651 C   0  0  0  0  0  0  0  0  0  0  0  0
    2.0076   -0.3900    1.3002 O   0  0  0  0  0  0  0  0  0  0  0  0
   -0.0413    0.1719    2.0339 N   0  0  0  0  0  0  0  0  0  0  0  0
   -1.0348    0.0892    1.8473 H   0  0  0  0  0  0  0  0  0  0  0  0
    0.3992    0.4728    3.3901 C   0  0  0  0  0  0  0  0  0  0  0  0
    1.2035    1.2163    3.3748 H   0  0  0  0  0  0  0  0  0  0  0  0
   -0.4308    0.8766    3.9777 H   0  0  0  0  0  0  0  0  0  0  0  0
    0.7667   -0.4338    3.8827 H   0  0  0  0  0  0  0  0  0  0  0  0
  1  2  1  0  0  0  0
  2  3  1  0  0  0  0
  2  4  1  0  0  0  0
  2  5  1  0  0  0  0
  5  6  2  0  0  0  0
  5  7  1  0  0  0  0
  7  8  1  0  0  0  0
  7  9  1  0  0  0  0
  9 10  1  0  0  0  0
  9 11  1  0  0  0  0
  9 21  1  0  0  0  0
 11 12  1  0  0  0  0
 11 13  1  0  0  0  0
 11 14  1  0  0  0  0
 14 15  1  0  0  0  0
 14 16  1  0  0  0  0
 14 17  1  0  0  0  0
 17 18  2  0  0  0  0
 17 19  1  0  0  0  0
 19 20  1  0  0  0  0
 21 22  2  0  0  0  0
 21 23  1  0  0  0  0
 23 24  1  0  0  0  0
 23 25  1  0  0  0  0
 25 26  1  0  0  0  0
 25 27  1  0  0  0  0
 25 28  1  0  0  0  0
M  END
$$$$

  -OEChem-03222214033D

 28 27  0     1  0  0  0  0  0999 V2000
   -2.6291   -4.1706    0.2800 H   0  0  0  0  0  0  0  0  0  0  0  0
   -2.6213   -3.1770   -0.1776 C   0  0  0  0  0  0  0  0  0  0  0  0
   -3.4376   -2.5880    0.2472 H   0  0  0  0  0  0  0  0  0  0  0  0
   -2.7782   -3.2854   -1.2535 H   0  0  0  0  0  0  0  0  0  0  0  0
   -1.2934   -2.4935    0.0875 C   0  0  0  0  0  0  0  0  0  0  0  0
   -0.4487   -3.0518    0.7628 O   0  0  0  0  0  0  0  0  0  0  0  0
   -1.0540   -1.2342   -0.4278 N   0  0  0  0  0  0  0  0  0  0  0  0
   -1.7631   -0.8597   -1.0504 H   0  0  0  0  0  0  0  0  0  0  0  0
    0.2533   -0.5491   -0.3637 C   0  0  1  0  0  0  0  0  0  0  0  0
    0.9825   -1.2419   -0.8006 H   0  0  0  0  0  0  0  0  0  0  0  0
    0.2336    0.6911   -1.3017 C   0  0  0  0  0  0  0  0  0  0  0  0
    0.9687    0.5316   -2.0981 H   0  0  0  0  0  0  0  0  0  0  0  0
   -0.7407    0.7383   -1.7974 H   0  0  0  0  0  0  0  0  0  0  0  0
    0.4753    2.0744   -0.6442 C   0  0  0  0  0  0  0  0  0  0  0  0
   -0.0295    2.8322   -1.2486 H   0  0  0  0  0  0  0  0  0  0  0  0
    0.0347    2.1325    0.3520 H   0  0  0  0  0  0  0  0  0  0  0  0
    1.9451    2.4891   -0.5874 C   0  0  0  0  0  0  0  0  0  0  0  0
    2.6455    2.3370   -1.5730 O   0  0  0  0  0  0  0  0  0  0  0  0
    2.3884    3.0464    0.5589 O   0  0  0  0  0  0  0  0  0  0  0  0
    3.3410    3.1652    0.4259 H   0  0  0  0  0  0  0  0  0  0  0  0
    0.7863   -0.3051    1.0702 C   0  0  0  0  0  0  0  0  0  0  0  0
    1.9935   -0.2932    1.2695 O   0  0  0  0  0  0  0  0  0  0  0  0
   -0.0573    0.1777    2.0552 N   0  0  0  0  0  0  0  0  0  0  0  0
   -1.0506    0.0483    1.8946 H   0  0  0  0  0  0  0  0  0  0  0  0
    0.4026    0.4811    3.4045 C   0  0  0  0  0  0  0  0  0  0  0  0
    1.1881    1.2439    3.3782 H   0  0  0  0  0  0  0  0  0  0  0  0
   -0.4249    0.8606    4.0113 H   0  0  0  0  0  0  0  0  0  0  0  0
    0.8020   -0.4190    3.8839 H   0  0  0  0  0  0  0  0  0  0  0  0
  1  2  1  0  0  0  0
  2  3  1  0  0  0  0
  2  4  1  0  0  0  0
  2  5  1  0  0  0  0
  5  6  2  0  0  0  0
  5  7  1  0  0  0  0
  7  8  1  0  0  0  0
  7  9  1  0  0  0  0
  9 10  1  0  0  0  0
  9 11  1  0  0  0  0
  9 21  1  0  0  0  0
 11 12  1  0  0  0  0
 11 13  1  0  0  0  0
 11 14  1  0  0  0  0
 14 15  1  0  0  0  0
 14 16  1  0  0  0  0
 14 17  1  0  0  0  0
 17 18  2  0  0  0  0
 17 19  1  0  0  0  0
 19 20  1  0  0  0  0
 21 22  2  0  0  0  0
 21 23  1  0  0  0  0
 23 24  1  0  0  0  0
 23 25  1  0  0  0  0
 25 26  1  0  0  0  0
 25 27  1  0  0  0  0
 25 28  1  0  0  0  0
M  END
$$$$

  -OEChem-03222214033D

 28 27  0     1  0  0  0  0  0999 V2000
   -2.6125   -4.1831    0.2650 H   0  0  0  0  0  0  0  0  0  0  0  0
   -2.6025   -3.1935   -0.2006 C   0  0  0  0  0  0  0  0  0  0  0  0
   -3.4256   -2.6045    0.2107 H   0  0  0  0  0  0  0  0  0  0  0  0
   -2.7480   -3.3114   -1.2771 H   0  0  0  0  0  0  0  0  0  0  0  0
   -1.2798   -2.5024    0.0726 C   0  0  0  0  0  0  0  0  0  0  0  0
   -0.4294   -3.0619    0.7398 O   0  0  0  0  0  0  0  0  0  0  0  0
   -1.0532   -1.2331   -0.4234 N   0  0  0  0  0  0  0  0  0  0  0  0
   -1.7661   -0.8573   -1.0410 H   0  0  0  0  0  0  0  0  0  0  0  0
    0.2451   -0.5330   -0.3456 C   0  0  1  0  0  0  0  0  0  0  0  0
    0.9814   -1.2178   -0.7835 H   0  0  0  0  0  0  0  0  0  0  0  0
    0.2212    0.7094   -1.2816 C   0  0  0  0  0  0  0  0  0  0  0  0
    0.9709    0.5481   -2.0636 H   0  0  0  0  0  0  0  0  0  0  0  0
   -0.7431    0.7408   -1.7978 H   0  0  0  0  0  0  0  0  0  0  0  0
    0.4391    2.1070   -0.6362 C   0  0  0  0  0  0  0  0  0  0  0  0
   -0.2765    2.8032   -1.0806 H   0  0  0  0  0  0  0  0  0  0  0  0
    0.2383    2.1114    0.4347 H   0  0  0  0  0  0  0  0  0  0  0  0
    1.8241    2.7006   -0.8901 C   0  0  0  0  0  0  0  0  0  0  0  0
    2.2832    2.6780   -2.0190 O   0  0  0  0  0  0  0  0  0  0  0  0
    2.4595    3.2682    0.1564 O   0  0  0  0  0  0  0  0  0  0  0  0
    3.3225    3.5411   -0.1895 H   0  0  0  0  0  0  0  0  0  0  0  0
    0.7738   -0.3015    1.0914 C   0  0  0  0  0  0  0  0  0  0  0  0
    1.9809   -0.2601    1.2855 O   0  0  0  0  0  0  0  0  0  0  0  0
   -0.0763    0.1574    2.0826 N   0  0  0  0  0  0  0  0  0  0  0  0
   -1.0671    0.0077    1.9238 H   0  0  0  0  0  0  0  0  0  0  0  0
    0.3804    0.4572    3.4342 C   0  0  0  0  0  0  0  0  0  0  0  0
    1.1541    1.2322    3.4149 H   0  0  0  0  0  0  0  0  0  0  0  0
   -0.4526    0.8194    4.0441 H   0  0  0  0  0  0  0  0  0  0  0  0
    0.7937   -0.4405    3.9059 H   0  0  0  0  0  0  0  0  0  0  0  0
  1  2  1  0  0  0  0
  2  3  1  0  0  0  0
  2  4  1  0  0  0  0
  2  5  1  0  0  0  0
  5  6  2  0  0  0  0
  5  7  1  0  0  0  0
  7  8  1  0  0  0  0
  7  9  1  0  0  0  0
  9 10  1  0  0  0  0
  9 11  1  0  0  0  0
  9 21  1  0  0  0  0
 11 12  1  0  0  0  0
 11 13  1  0  0  0  0
 11 14  1  0  0  0  0
 14 15  1  0  0  0  0
 14 16  1  0  0  0  0
 14 17  1  0  0  0  0
 17 18  2  0  0  0  0
 17 19  1  0  0  0  0
 19 20  1  0  0  0  0
 21 22  2  0  0  0  0
 21 23  1  0  0  0  0
 23 24  1  0  0  0  0
 23 25  1  0  0  0  0
 25 26  1  0  0  0  0
 25 27  1  0  0  0  0
 25 28  1  0  0  0  0
M  END
$$$$

  -OEChem-03222214033D

 28 27  0     1  0  0  0  0  0999 V2000
   -2.5805   -4.1911    0.2327 H   0  0  0  0  0  0  0  0  0  0  0  0
   -2.5711   -3.1988   -0.2275 C   0  0  0  0  0  0  0  0  0  0  0  0
   -3.4030   -2.6168    0.1763 H   0  0  0  0  0  0  0  0  0  0  0  0
   -2.7025   -3.3118   -1.3063 H   0  0  0  0  0  0  0  0  0  0  0  0
   -1.2561   -2.5007    0.0649 C   0  0  0  0  0  0  0  0  0  0  0  0
   -0.4043   -3.0635    0.7274 O   0  0  0  0  0  0  0  0  0  0  0  0
   -1.0355   -1.2243   -0.4157 N   0  0  0  0  0  0  0  0  0  0  0  0
   -1.7491   -0.8459   -1.0311 H   0  0  0  0  0  0  0  0  0  0  0  0
    0.2570   -0.5145   -0.3259 C   0  0  1  0  0  0  0  0  0  0  0  0
    1.0040   -1.1814   -0.7731 H   0  0  0  0  0  0  0  0  0  0  0  0
    0.2002    0.7432   -1.2420 C   0  0  0  0  0  0  0  0  0  0  0  0
    0.9736    0.5987   -2.0046 H   0  0  0  0  0  0  0  0  0  0  0  0
   -0.7504    0.7592   -1.7843 H   0  0  0  0  0  0  0  0  0  0  0  0
    0.3958    2.1482   -0.6000 C   0  0  0  0  0  0  0  0  0  0  0  0
   -0.4969    2.7505   -0.7856 H   0  0  0  0  0  0  0  0  0  0  0  0
    0.5203    2.1054    0.4813 H   0  0  0  0  0  0  0  0  0  0  0  0
    1.5918    2.9090   -1.1688 C   0  0  0  0  0  0  0  0  0  0  0  0
    1.6983    3.0123   -2.3786 O   0  0  0  0  0  0  0  0  0  0  0  0
    2.4613    3.4636   -0.2987 O   0  0  0  0  0  0  0  0  0  0  0  0
    3.1468    3.8722   -0.8481 H   0  0  0  0  0  0  0  0  0  0  0  0
    0.7700   -0.2993    1.1186 C   0  0  0  0  0  0  0  0  0  0  0  0
    1.9744   -0.2529    1.3280 O   0  0  0  0  0  0  0  0  0  0  0  0
   -0.0961    0.1396    2.1049 N   0  0  0  0  0  0  0  0  0  0  0  0
   -1.0835   -0.0136    1.9291 H   0  0  0  0  0  0  0  0  0  0  0  0
    0.3394    0.4084    3.4699 C   0  0  0  0  0  0  0  0  0  0  0  0
    1.1085    1.1882    3.4806 H   0  0  0  0  0  0  0  0  0  0  0  0
   -0.5045    0.7501    4.0766 H   0  0  0  0  0  0  0  0  0  0  0  0
    0.7512   -0.4985    3.9254 H   0  0  0  0  0  0  0  0  0  0  0  0
  1  2  1  0  0  0  0
  2  3  1  0  0  0  0
  2  4  1  0  0  0  0
  2  5  1  0  0  0  0
  5  6  2  0  0  0  0
  5  7  1  0  0  0  0
  7  8  1  0  0  0  0
  7  9  1  0  0  0  0
  9 10  1  0  0  0  0
  9 11  1  0  0  0  0
  9 21  1  0  0  0  0
 11 12  1  0  0  0  0
 11 13  1  0  0  0  0
 11 14  1  0  0  0  0
 14 15  1  0  0  0  0
 14 16  1  0  0  0  0
 14 17  1  0  0  0  0
 17 18  2  0  0  0  0
 17 19  1  0  0  0  0
 19 20  1  0  0  0  0
 21 22  2  0  0  0  0
 21 23  1  0  0  0  0
 23 24  1  0  0  0  0
 23 25  1  0  0  0  0
 25 26  1  0  0  0  0
 25 27  1  0  0  0  0
 25 28  1  0  0  0  0
M  END
$$$$

  -OEChem-03222214033D

 28 27  0     1  0  0  0  0  0999 V2000
   -2.5713   -4.1934    0.1922 H   0  0  0  0  0  0  0  0  0  0  0  0
   -2.5685   -3.1891   -0.2410 C   0  0  0  0  0  0  0  0  0  0  0  0
   -3.3999   -2.6210    0.1827 H   0  0  0  0  0  0  0  0  0  0  0  0
   -2.7055   -3.2737   -1.3217 H   0  0  0  0  0  0  0  0  0  0  0  0
   -1.2553   -2.4935    0.0632 C   0  0  0  0  0  0  0  0  0  0  0  0
   -0.4096   -3.0584    0.7317 O   0  0  0  0  0  0  0  0  0  0  0  0
   -1.0296   -1.2171   -0.4148 N   0  0  0  0  0  0  0  0  0  0  0  0
   -1.7355   -0.8413   -1.0407 H   0  0  0  0  0  0  0  0  0  0  0  0
    0.2663   -0.5140   -0.3249 C   0  0  1  0  0  0  0  0  0  0  0  0
    1.0132   -1.1717   -0.7857 H   0  0  0  0  0  0  0  0  0  0  0  0
    0.1858    0.7608   -1.2151 C   0  0  0  0  0  0  0  0  0  0  0  0
    0.9719    0.6328   -1.9680 H   0  0  0  0  0  0  0  0  0  0  0  0
   -0.7585    0.7834   -1.7683 H   0  0  0  0  0  0  0  0  0  0  0  0
    0.3868    2.1541   -0.5504 C   0  0  0  0  0  0  0  0  0  0  0  0
   -0.5810    2.6442   -0.4201 H   0  0  0  0  0  0  0  0  0  0  0  0
    0.8407    2.0745    0.4375 H   0  0  0  0  0  0  0  0  0  0  0  0
    1.3078    3.0729   -1.3525 C   0  0  0  0  0  0  0  0  0  0  0  0
    1.1870    3.1133   -2.5648 O   0  0  0  0  0  0  0  0  0  0  0  0
    2.1967    3.8273   -0.6724 O   0  0  0  0  0  0  0  0  0  0  0  0
    2.6844    4.3194   -1.3501 H   0  0  0  0  0  0  0  0  0  0  0  0
    0.7739   -0.3093    1.1229 C   0  0  0  0  0  0  0  0  0  0  0  0
    1.9775   -0.2785    1.3409 O   0  0  0  0  0  0  0  0  0  0  0  0
   -0.0953    0.1294    2.1063 N   0  0  0  0  0  0  0  0  0  0  0  0
   -1.0823   -0.0137    1.9198 H   0  0  0  0  0  0  0  0  0  0  0  0
    0.3299    0.3636    3.4811 C   0  0  0  0  0  0  0  0  0  0  0  0
    1.1118    1.1298    3.5162 H   0  0  0  0  0  0  0  0  0  0  0  0
   -0.5149    0.7067    4.0860 H   0  0  0  0  0  0  0  0  0  0  0  0
    0.7219   -0.5591    3.9223 H   0  0  0  0  0  0  0  0  0  0  0  0
  1  2  1  0  0  0  0
  2  3  1  0  0  0  0
  2  4  1  0  0  0  0
  2  5  1  0  0  0  0
  5  6  2  0  0  0  0
  5  7  1  0  0  0  0
  7  8  1  0  0  0  0
  7  9  1  0  0  0  0
  9 10  1  0  0  0  0
  9 11  1  0  0  0  0
  9 21  1  0  0  0  0
 11 12  1  0  0  0  0
 11 13  1  0  0  0  0
 11 14  1  0  0  0  0
 14 15  1  0  0  0  0
 14 16  1  0  0  0  0
 14 17  1  0  0  0  0
 17 18  2  0  0  0  0
 17 19  1  0  0  0  0
 19 20  1  0  0  0  0
 21 22  2  0  0  0  0
 21 23  1  0  0  0  0
 23 24  1  0  0  0  0
 23 25  1  0  0  0  0
 25 26  1  0  0  0  0
 25 27  1  0  0  0  0
 25 28  1  0  0  0  0
M  END
$$$$

  -OEChem-03222214033D

 28 27  0     1  0  0  0  0  0999 V2000
   -2.5903   -4.1798    0.2072 H   0  0  0  0  0  0  0  0  0  0  0  0
   -2.5804   -3.1794   -0.2351 C   0  0  0  0  0  0  0  0  0  0  0  0
   -3.4036   -2.5998    0.1890 H   0  0  0  0  0  0  0  0  0  0  0  0
   -2.7255   -3.2719   -1.3141 H   0  0  0  0  0  0  0  0  0  0  0  0
   -1.2583   -2.4942    0.0547 C   0  0  0  0  0  0  0  0  0  0  0  0
   -0.4117   -3.0649    0.7172 O   0  0  0  0  0  0  0  0  0  0  0  0
   -1.0268   -1.2201   -0.4263 N   0  0  0  0  0  0  0  0  0  0  0  0
   -1.7345   -0.8391   -1.0471 H   0  0  0  0  0  0  0  0  0  0  0  0
    0.2729   -0.5235   -0.3418 C   0  0  1  0  0  0  0  0  0  0  0  0
    1.0180   -1.1746   -0.8142 H   0  0  0  0  0  0  0  0  0  0  0  0
    0.1781    0.7660   -1.2073 C   0  0  0  0  0  0  0  0  0  0  0  0
    0.9593    0.6629   -1.9695 H   0  0  0  0  0  0  0  0  0  0  0  0
   -0.7741    0.8040   -1.7466 H   0  0  0  0  0  0  0  0  0  0  0  0
    0.3944    2.1324   -0.5014 C   0  0  0  0  0  0  0  0  0  0  0  0
   -0.5472    2.4936   -0.0817 H   0  0  0  0  0  0  0  0  0  0  0  0
    1.1095    2.0398    0.3184 H   0  0  0  0  0  0  0  0  0  0  0  0
    0.9865    3.1968   -1.4248 C   0  0  0  0  0  0  0  0  0  0  0  0
    0.6995    3.1808   -2.6096 O   0  0  0  0  0  0  0  0  0  0  0  0
    1.7843    4.1340   -0.8706 O   0  0  0  0  0  0  0  0  0  0  0  0
    2.0578    4.7025   -1.6066 H   0  0  0  0  0  0  0  0  0  0  0  0
    0.7807   -0.3215    1.1065 C   0  0  0  0  0  0  0  0  0  0  0  0
    1.9842   -0.3038    1.3276 O   0  0  0  0  0  0  0  0  0  0  0  0
   -0.0870    0.1222    2.0887 N   0  0  0  0  0  0  0  0  0  0  0  0
   -1.0748   -0.0141    1.9005 H   0  0  0  0  0  0  0  0  0  0  0  0
    0.3380    0.3545    3.4637 C   0  0  0  0  0  0  0  0  0  0  0  0
    1.1268    1.1136    3.4989 H   0  0  0  0  0  0  0  0  0  0  0  0
   -0.5041    0.7070    4.0667 H   0  0  0  0  0  0  0  0  0  0  0  0
    0.7206   -0.5713    3.9064 H   0  0  0  0  0  0  0  0  0  0  0  0
  1  2  1  0  0  0  0
  2  3  1  0  0  0  0
  2  4  1  0  0  0  0
  2  5  1  0  0  0  0
  5  6  2  0  0  0  0
  5  7  1  0  0  0  0
  7  8  1  0  0  0  0
  7  9  1  0  0  0  0
  9 10  1  0  0  0  0
  9 11  1  0  0  0  0
  9 21  1  0  0  0  0
 11 12  1  0  0  0  0
 11 13  1  0  0  0  0
 11 14  1  0  0  0  0
 14 15  1  0  0  0  0
 14 16  1  0  0  0  0
 14 17  1  0  0  0  0
 17 18  2  0  0  0  0
 17 19  1  0  0  0  0
 19 20  1  0  0  0  0
 21 22  2  0  0  0  0
 21 23  1  0  0  0  0
 23 24  1  0  0  0  0
 23 25  1  0  0  0  0
 25 26  1  0  0  0  0
 25 27  1  0  0  0  0
 25 28  1  0  0  0  0
M  END
$$$$

  -OEChem-03222214033D

 28 27  0     1  0  0  0  0  0999 V2000
   -2.6049   -4.1792    0.2188 H   0  0  0  0  0  0  0  0  0  0  0  0
   -2.5941   -3.1830   -0.2330 C   0  0  0  0  0  0  0  0  0  0  0  0
   -3.4177   -2.5988    0.1842 H   0  0  0  0  0  0  0  0  0  0  0  0
   -2.7371   -3.2861   -1.3113 H   0  0  0  0  0  0  0  0  0  0  0  0
   -1.2721   -2.4959    0.0527 C   0  0  0  0  0  0  0  0  0  0  0  0
   -0.4240   -3.0645    0.7152 O   0  0  0  0  0  0  0  0  0  0  0  0
   -1.0410   -1.2230   -0.4320 N   0  0  0  0  0  0  0  0  0  0  0  0
   -1.7469   -0.8457   -1.0573 H   0  0  0  0  0  0  0  0  0  0  0  0
    0.2616   -0.5309   -0.3554 C   0  0  1  0  0  0  0  0  0  0  0  0
    1.0013   -1.1832   -0.8346 H   0  0  0  0  0  0  0  0  0  0  0  0
    0.1717    0.7641   -1.2103 C   0  0  0  0  0  0  0  0  0  0  0  0
    0.9375    0.6777   -1.9897 H   0  0  0  0  0  0  0  0  0  0  0  0
   -0.7936    0.8171   -1.7248 H   0  0  0  0  0  0  0  0  0  0  0  0
    0.4069    2.1047   -0.4704 C   0  0  0  0  0  0  0  0  0  0  0  0
   -0.4470    2.3376    0.1702 H   0  0  0  0  0  0  0  0  0  0  0  0
    1.2957    2.0337    0.1626 H   0  0  0  0  0  0  0  0  0  0  0  0
    0.6580    3.2795   -1.4153 C   0  0  0  0  0  0  0  0  0  0  0  0
    0.2566    3.2217   -2.5651 O   0  0  0  0  0  0  0  0  0  0  0  0
    1.3010    4.3538   -0.9116 O   0  0  0  0  0  0  0  0  0  0  0  0
    1.3673    4.9790   -1.6493 H   0  0  0  0  0  0  0  0  0  0  0  0
    0.7820   -0.3266    1.0888 C   0  0  0  0  0  0  0  0  0  0  0  0
    1.9875   -0.3098    1.2991 O   0  0  0  0  0  0  0  0  0  0  0  0
   -0.0758    0.1224    2.0772 N   0  0  0  0  0  0  0  0  0  0  0  0
   -1.0653   -0.0157    1.8997 H   0  0  0  0  0  0  0  0  0  0  0  0
    0.3626    0.3668    3.4456 C   0  0  0  0  0  0  0  0  0  0  0  0
    1.1522    1.1255    3.4660 H   0  0  0  0  0  0  0  0  0  0  0  0
   -0.4737    0.7254    4.0532 H   0  0  0  0  0  0  0  0  0  0  0  0
    0.7488   -0.5549    3.8935 H   0  0  0  0  0  0  0  0  0  0  0  0
  1  2  1  0  0  0  0
  2  3  1  0  0  0  0
  2  4  1  0  0  0  0
  2  5  1  0  0  0  0
  5  6  2  0  0  0  0
  5  7  1  0  0  0  0
  7  8  1  0  0  0  0
  7  9  1  0  0  0  0
  9 10  1  0  0  0  0
  9 11  1  0  0  0  0
  9 21  1  0  0  0  0
 11 12  1  0  0  0  0
 11 13  1  0  0  0  0
 11 14  1  0  0  0  0
 14 15  1  0  0  0  0
 14 16  1  0  0  0  0
 14 17  1  0  0  0  0
 17 18  2  0  0  0  0
 17 19  1  0  0  0  0
 19 20  1  0  0  0  0
 21 22  2  0  0  0  0
 21 23  1  0  0  0  0
 23 24  1  0  0  0  0
 23 25  1  0  0  0  0
 25 26  1  0  0  0  0
 25 27  1  0  0  0  0
 25 28  1  0  0  0  0
M  END
$$$$

  -OEChem-03222214033D

 28 27  0     1  0  0  0  0  0999 V2000
   -2.6329   -4.1547    0.2499 H   0  0  0  0  0  0  0  0  0  0  0  0
   -2.6128   -3.1631   -0.2113 C   0  0  0  0  0  0  0  0  0  0  0  0
   -3.4273   -2.5654    0.2048 H   0  0  0  0  0  0  0  0  0  0  0  0
   -2.7625   -3.2744   -1.2878 H   0  0  0  0  0  0  0  0  0  0  0  0
   -1.2811   -2.4894    0.0603 C   0  0  0  0  0  0  0  0  0  0  0  0
   -0.4362   -3.0623    0.7232 O   0  0  0  0  0  0  0  0  0  0  0  0
   -1.0364   -1.2257   -0.4413 N   0  0  0  0  0  0  0  0  0  0  0  0
   -1.7409   -0.8472   -1.0678 H   0  0  0  0  0  0  0  0  0  0  0  0
    0.2740   -0.5469   -0.3785 C   0  0  1  0  0  0  0  0  0  0  0  0
    1.0156   -1.1992   -0.8543 H   0  0  0  0  0  0  0  0  0  0  0  0
    0.1869    0.7519   -1.2260 C   0  0  0  0  0  0  0  0  0  0  0  0
    0.6883    0.5685   -2.1827 H   0  0  0  0  0  0  0  0  0  0  0  0
   -0.8635    0.9658   -1.4512 H   0  0  0  0  0  0  0  0  0  0  0  0
    0.7908    2.0248   -0.5852 C   0  0  0  0  0  0  0  0  0  0  0  0
    0.2880    2.2479    0.3588 H   0  0  0  0  0  0  0  0  0  0  0  0
    1.8512    1.8588   -0.3724 H   0  0  0  0  0  0  0  0  0  0  0  0
    0.6762    3.2696   -1.4652 C   0  0  0  0  0  0  0  0  0  0  0  0
    0.0169    3.2311   -2.4904 O   0  0  0  0  0  0  0  0  0  0  0  0
    1.3163    4.3797   -1.0426 O   0  0  0  0  0  0  0  0  0  0  0  0
    1.1365    5.0494   -1.7197 H   0  0  0  0  0  0  0  0  0  0  0  0
    0.7894   -0.3362    1.0675 C   0  0  0  0  0  0  0  0  0  0  0  0
    1.9935   -0.3384    1.2872 O   0  0  0  0  0  0  0  0  0  0  0  0
   -0.0677    0.1308    2.0483 N   0  0  0  0  0  0  0  0  0  0  0  0
   -1.0585    0.0142    1.8630 H   0  0  0  0  0  0  0  0  0  0  0  0
    0.3646    0.3750    3.4188 C   0  0  0  0  0  0  0  0  0  0  0  0
    1.1645    1.1228    3.4418 H   0  0  0  0  0  0  0  0  0  0  0  0
   -0.4707    0.7478    4.0191 H   0  0  0  0  0  0  0  0  0  0  0  0
    0.7348   -0.5501    3.8732 H   0  0  0  0  0  0  0  0  0  0  0  0
  1  2  1  0  0  0  0
  2  3  1  0  0  0  0
  2  4  1  0  0  0  0
  2  5  1  0  0  0  0
  5  6  2  0  0  0  0
  5  7  1  0  0  0  0
  7  8  1  0  0  0  0
  7  9  1  0  0  0  0
  9 10  1  0  0  0  0
  9 11  1  0  0  0  0
  9 21  1  0  0  0  0
 11 12  1  0  0  0  0
 11 13  1  0  0  0  0
 11 14  1  0  0  0  0
 14 15  1  0  0  0  0
 14 16  1  0  0  0  0
 14 17  1  0  0  0  0
 17 18  2  0  0  0  0
 17 19  1  0  0  0  0
 19 20  1  0  0  0  0
 21 22  2  0  0  0  0
 21 23  1  0  0  0  0
 23 24  1  0  0  0  0
 23 25  1  0  0  0  0
 25 26  1  0  0  0  0
 25 27  1  0  0  0  0
 25 28  1  0  0  0  0
M  END
$$$$

  -OEChem-03222214033D

 28 27  0     1  0  0  0  0  0999 V2000
   -2.6495   -4.1459    0.2288 H   0  0  0  0  0  0  0  0  0  0  0  0
   -2.6346   -3.1381   -0.1959 C   0  0  0  0  0  0  0  0  0  0  0  0
   -3.4293   -2.5490    0.2679 H   0  0  0  0  0  0  0  0  0  0  0  0
   -2.8204   -3.2082   -1.2704 H   0  0  0  0  0  0  0  0  0  0  0  0
   -1.2889   -2.4852    0.0580 C   0  0  0  0  0  0  0  0  0  0  0  0
   -0.4404   -3.0735    0.7027 O   0  0  0  0  0  0  0  0  0  0  0  0
   -1.0390   -1.2179   -0.4317 N   0  0  0  0  0  0  0  0  0  0  0  0
   -1.7498   -0.8228   -1.0408 H   0  0  0  0  0  0  0  0  0  0  0  0
    0.2741   -0.5440   -0.3666 C   0  0  1  0  0  0  0  0  0  0  0  0
    1.0093   -1.2051   -0.8401 H   0  0  0  0  0  0  0  0  0  0  0  0
    0.2086    0.7483   -1.2277 C   0  0  0  0  0  0  0  0  0  0  0  0
    0.6994    0.5575   -2.1882 H   0  0  0  0  0  0  0  0  0  0  0  0
   -0.8444    0.9577   -1.4449 H   0  0  0  0  0  0  0  0  0  0  0  0
    0.8138    2.0330   -0.6062 C   0  0  0  0  0  0  0  0  0  0  0  0
    0.4772    2.1524    0.4253 H   0  0  0  0  0  0  0  0  0  0  0  0
    1.9048    1.9573   -0.5943 H   0  0  0  0  0  0  0  0  0  0  0  0
    0.4088    3.3210   -1.3257 C   0  0  0  0  0  0  0  0  0  0  0  0
   -0.2309    3.2653   -2.3624 O   0  0  0  0  0  0  0  0  0  0  0  0
    0.7863    4.4849   -0.7564 O   0  0  0  0  0  0  0  0  0  0  0  0
    0.4559    5.1763   -1.3500 H   0  0  0  0  0  0  0  0  0  0  0  0
    0.7966   -0.3476    1.0785 C   0  0  0  0  0  0  0  0  0  0  0  0
    2.0023   -0.3421    1.2887 O   0  0  0  0  0  0  0  0  0  0  0  0
   -0.0547    0.1130    2.0676 N   0  0  0  0  0  0  0  0  0  0  0  0
   -1.0465    0.0017    1.8842 H   0  0  0  0  0  0  0  0  0  0  0  0
    0.3814    0.3268    3.4421 C   0  0  0  0  0  0  0  0  0  0  0  0
    1.1770    1.0782    3.4806 H   0  0  0  0  0  0  0  0  0  0  0  0
   -0.4543    0.6793    4.0540 H   0  0  0  0  0  0  0  0  0  0  0  0
    0.7579   -0.6070    3.8732 H   0  0  0  0  0  0  0  0  0  0  0  0
  1  2  1  0  0  0  0
  2  3  1  0  0  0  0
  2  4  1  0  0  0  0
  2  5  1  0  0  0  0
  5  6  2  0  0  0  0
  5  7  1  0  0  0  0
  7  8  1  0  0  0  0
  7  9  1  0  0  0  0
  9 10  1  0  0  0  0
  9 11  1  0  0  0  0
  9 21  1  0  0  0  0
 11 12  1  0  0  0  0
 11 13  1  0  0  0  0
 11 14  1  0  0  0  0
 14 15  1  0  0  0  0
 14 16  1  0  0  0  0
 14 17  1  0  0  0  0
 17 18  2  0  0  0  0
 17 19  1  0  0  0  0
 19 20  1  0  0  0  0
 21 22  2  0  0  0  0
 21 23  1  0  0  0  0
 23 24  1  0  0  0  0
 23 25  1  0  0  0  0
 25 26  1  0  0  0  0
 25 27  1  0  0  0  0
 25 28  1  0  0  0  0
M  END
$$$$

  -OEChem-03222214033D

 28 27  0     1  0  0  0  0  0999 V2000
   -2.6907   -4.1225    0.2488 H   0  0  0  0  0  0  0  0  0  0  0  0
   -2.6559   -3.1254   -0.1998 C   0  0  0  0  0  0  0  0  0  0  0  0
   -3.4533   -2.5172    0.2336 H   0  0  0  0  0  0  0  0  0  0  0  0
   -2.8212   -3.2194   -1.2758 H   0  0  0  0  0  0  0  0  0  0  0  0
   -1.3076   -2.4818    0.0637 C   0  0  0  0  0  0  0  0  0  0  0  0
   -0.4624   -3.0828    0.7010 O   0  0  0  0  0  0  0  0  0  0  0  0
   -1.0480   -1.2130   -0.4169 N   0  0  0  0  0  0  0  0  0  0  0  0
   -1.7594   -0.8048   -1.0164 H   0  0  0  0  0  0  0  0  0  0  0  0
    0.2726   -0.5532   -0.3558 C   0  0  1  0  0  0  0  0  0  0  0  0
    0.9967   -1.2218   -0.8354 H   0  0  0  0  0  0  0  0  0  0  0  0
    0.2199    0.7412   -1.2190 C   0  0  0  0  0  0  0  0  0  0  0  0
    0.6951    0.5432   -2.1857 H   0  0  0  0  0  0  0  0  0  0  0  0
   -0.8350    0.9483   -1.4262 H   0  0  0  0  0  0  0  0  0  0  0  0
    0.8357    2.0380   -0.6221 C   0  0  0  0  0  0  0  0  0  0  0  0
    0.7299    2.0596    0.4628 H   0  0  0  0  0  0  0  0  0  0  0  0
    1.9054    2.0734   -0.8451 H   0  0  0  0  0  0  0  0  0  0  0  0
    0.1712    3.3277   -1.1077 C   0  0  0  0  0  0  0  0  0  0  0  0
   -0.4648    3.3286   -2.1480 O   0  0  0  0  0  0  0  0  0  0  0  0
    0.3290    4.4275   -0.3411 O   0  0  0  0  0  0  0  0  0  0  0  0
   -0.1394    5.1342   -0.8109 H   0  0  0  0  0  0  0  0  0  0  0  0
    0.8061   -0.3753    1.0866 C   0  0  0  0  0  0  0  0  0  0  0  0
    2.0138   -0.3713    1.2865 O   0  0  0  0  0  0  0  0  0  0  0  0
   -0.0361    0.0856    2.0830 N   0  0  0  0  0  0  0  0  0  0  0  0
   -1.0304   -0.0179    1.9081 H   0  0  0  0  0  0  0  0  0  0  0  0
    0.4147    0.3198    3.4491 C   0  0  0  0  0  0  0  0  0  0  0  0
    1.2110    1.0714    3.4666 H   0  0  0  0  0  0  0  0  0  0  0  0
   -0.4137    0.6828    4.0648 H   0  0  0  0  0  0  0  0  0  0  0  0
    0.7959   -0.6076    3.8898 H   0  0  0  0  0  0  0  0  0  0  0  0
  1  2  1  0  0  0  0
  2  3  1  0  0  0  0
  2  4  1  0  0  0  0
  2  5  1  0  0  0  0
  5  6  2  0  0  0  0
  5  7  1  0  0  0  0
  7  8  1  0  0  0  0
  7  9  1  0  0  0  0
  9 10  1  0  0  0  0
  9 11  1  0  0  0  0
  9 21  1  0  0  0  0
 11 12  1  0  0  0  0
 11 13  1  0  0  0  0
 11 14  1  0  0  0  0
 14 15  1  0  0  0  0
 14 16  1  0  0  0  0
 14 17  1  0  0  0  0
 17 18  2  0  0  0  0
 17 19  1  0  0  0  0
 19 20  1  0  0  0  0
 21 22  2  0  0  0  0
 21 23  1  0  0  0  0
 23 24  1  0  0  0  0
 23 25  1  0  0  0  0
 25 26  1  0  0  0  0
 25 27  1  0  0  0  0
 25 28  1  0  0  0  0
M  END
$$$$

  -OEChem-03222214033D

 28 27  0     1  0  0  0  0  0999 V2000
   -2.7395   -4.0691    0.3061 H   0  0  0  0  0  0  0  0  0  0  0  0
   -2.6773   -3.0889   -0.1752 C   0  0  0  0  0  0  0  0  0  0  0  0
   -3.4569   -2.4448    0.2385 H   0  0  0  0  0  0  0  0  0  0  0  0
   -2.8463   -3.2132   -1.2475 H   0  0  0  0  0  0  0  0  0  0  0  0
   -1.3112   -2.4745    0.0666 C   0  0  0  0  0  0  0  0  0  0  0  0
   -0.4674   -3.0948    0.6869 O   0  0  0  0  0  0  0  0  0  0  0  0
   -1.0346   -1.2098   -0.4156 N   0  0  0  0  0  0  0  0  0  0  0  0
   -1.7468   -0.7867   -1.0037 H   0  0  0  0  0  0  0  0  0  0  0  0
    0.2948   -0.5665   -0.3576 C   0  0  1  0  0  0  0  0  0  0  0  0
    1.0123   -1.2393   -0.8416 H   0  0  0  0  0  0  0  0  0  0  0  0
    0.2380    0.7323   -1.2172 C   0  0  0  0  0  0  0  0  0  0  0  0
    0.7107    0.5268   -2.1833 H   0  0  0  0  0  0  0  0  0  0  0  0
   -0.8161    0.9358   -1.4321 H   0  0  0  0  0  0  0  0  0  0  0  0
    0.8602    2.0405   -0.6436 C   0  0  0  0  0  0  0  0  0  0  0  0
    1.0544    1.9733    0.4265 H   0  0  0  0  0  0  0  0  0  0  0  0
    1.8251    2.2213   -1.1245 H   0  0  0  0  0  0  0  0  0  0  0  0
   -0.0239    3.2729   -0.8357 C   0  0  0  0  0  0  0  0  0  0  0  0
   -0.6369    3.4082   -1.8806 O   0  0  0  0  0  0  0  0  0  0  0  0
   -0.0855    4.1648    0.1759 O   0  0  0  0  0  0  0  0  0  0  0  0
   -0.6683    4.8707   -0.1428 H   0  0  0  0  0  0  0  0  0  0  0  0
    0.8259   -0.3970    1.0868 C   0  0  0  0  0  0  0  0  0  0  0  0
    2.0320   -0.4248    1.2941 O   0  0  0  0  0  0  0  0  0  0  0  0
   -0.0130    0.0745    2.0809 N   0  0  0  0  0  0  0  0  0  0  0  0
   -1.0084    0.0128    1.8946 H   0  0  0  0  0  0  0  0  0  0  0  0
    0.4341    0.3187    3.4465 C   0  0  0  0  0  0  0  0  0  0  0  0
    1.2415    1.0585    3.4597 H   0  0  0  0  0  0  0  0  0  0  0  0
   -0.3924    0.7022    4.0522 H   0  0  0  0  0  0  0  0  0  0  0  0
    0.7985   -0.6082    3.9021 H   0  0  0  0  0  0  0  0  0  0  0  0
  1  2  1  0  0  0  0
  2  3  1  0  0  0  0
  2  4  1  0  0  0  0
  2  5  1  0  0  0  0
  5  6  2  0  0  0  0
  5  7  1  0  0  0  0
  7  8  1  0  0  0  0
  7  9  1  0  0  0  0
  9 10  1  0  0  0  0
  9 11  1  0  0  0  0
  9 21  1  0  0  0  0
 11 12  1  0  0  0  0
 11 13  1  0  0  0  0
 11 14  1  0  0  0  0
 14 15  1  0  0  0  0
 14 16  1  0  0  0  0
 14 17  1  0  0  0  0
 17 18  2  0  0  0  0
 17 19  1  0  0  0  0
 19 20  1  0  0  0  0
 21 22  2  0  0  0  0
 21 23  1  0  0  0  0
 23 24  1  0  0  0  0
 23 25  1  0  0  0  0
 25 26  1  0  0  0  0
 25 27  1  0  0  0  0
 25 28  1  0  0  0  0
M  END
$$$$

  -OEChem-03222214033D

 28 27  0     1  0  0  0  0  0999 V2000
   -2.7036   -4.0593    0.2365 H   0  0  0  0  0  0  0  0  0  0  0  0
   -2.6587   -3.0423   -0.1641 C   0  0  0  0  0  0  0  0  0  0  0  0
   -3.3250   -2.4051    0.4220 H   0  0  0  0  0  0  0  0  0  0  0  0
   -2.9980   -3.0576   -1.2025 H   0  0  0  0  0  0  0  0  0  0  0  0
   -1.2380   -2.5161   -0.0904 C   0  0  0  0  0  0  0  0  0  0  0  0
   -0.3478   -3.2289    0.3360 O   0  0  0  0  0  0  0  0  0  0  0  0
   -0.9589   -1.2311   -0.5130 N   0  0  0  0  0  0  0  0  0  0  0  0
   -1.7465   -0.6696   -0.8231 H   0  0  0  0  0  0  0  0  0  0  0  0
    0.3610   -0.5832   -0.3783 C   0  0  1  0  0  0  0  0  0  0  0  0
    1.1100   -1.2120   -0.8740 H   0  0  0  0  0  0  0  0  0  0  0  0
    0.2818    0.7656   -1.1504 C   0  0  0  0  0  0  0  0  0  0  0  0
    0.8223    0.6216   -2.0921 H   0  0  0  0  0  0  0  0  0  0  0  0
   -0.7570    0.9631   -1.4352 H   0  0  0  0  0  0  0  0  0  0  0  0
    0.8663    2.0378   -0.4700 C   0  0  0  0  0  0  0  0  0  0  0  0
    1.3522    1.8503    0.4872 H   0  0  0  0  0  0  0  0  0  0  0  0
    1.6413    2.4473   -1.1241 H   0  0  0  0  0  0  0  0  0  0  0  0
   -0.1895    3.1205   -0.2669 C   0  0  0  0  0  0  0  0  0  0  0  0
   -1.2408    2.8100    0.2699 O   0  0  0  0  0  0  0  0  0  0  0  0
    0.0851    4.3710   -0.6947 O   0  0  0  0  0  0  0  0  0  0  0  0
   -0.6951    4.8984   -0.4649 H   0  0  0  0  0  0  0  0  0  0  0  0
    0.8128   -0.4786    1.0987 C   0  0  0  0  0  0  0  0  0  0  0  0
    2.0003   -0.5672    1.3821 O   0  0  0  0  0  0  0  0  0  0  0  0
   -0.0783   -0.0556    2.0691 N   0  0  0  0  0  0  0  0  0  0  0  0
   -1.0246    0.1556    1.7672 H   0  0  0  0  0  0  0  0  0  0  0  0
    0.3087    0.2296    3.4444 C   0  0  0  0  0  0  0  0  0  0  0  0
    1.0301    1.0527    3.4762 H   0  0  0  0  0  0  0  0  0  0  0  0
   -0.5685    0.5139    4.0334 H   0  0  0  0  0  0  0  0  0  0  0  0
    0.7618   -0.6549    3.9046 H   0  0  0  0  0  0  0  0  0  0  0  0
  1  2  1  0  0  0  0
  2  3  1  0  0  0  0
  2  4  1  0  0  0  0
  2  5  1  0  0  0  0
  5  6  2  0  0  0  0
  5  7  1  0  0  0  0
  7  8  1  0  0  0  0
  7  9  1  0  0  0  0
  9 10  1  0  0  0  0
  9 11  1  0  0  0  0
  9 21  1  0  0  0  0
 11 12  1  0  0  0  0
 11 13  1  0  0  0  0
 11 14  1  0  0  0  0
 14 15  1  0  0  0  0
 14 16  1  0  0  0  0
 14 17  1  0  0  0  0
 17 18  2  0  0  0  0
 17 19  1  0  0  0  0
 19 20  1  0  0  0  0
 21 22  2  0  0  0  0
 21 23  1  0  0  0  0
 23 24  1  0  0  0  0
 23 25  1  0  0  0  0
 25 26  1  0  0  0  0
 25 27  1  0  0  0  0
 25 28  1  0  0  0  0
M  END
$$$$

  -OEChem-03222214033D

 28 27  0     1  0  0  0  0  0999 V2000
   -2.7131   -4.0459    0.2930 H   0  0  0  0  0  0  0  0  0  0  0  0
   -2.6662   -3.0318   -0.1143 C   0  0  0  0  0  0  0  0  0  0  0  0
   -3.2949   -2.3792    0.4959 H   0  0  0  0  0  0  0  0  0  0  0  0
   -3.0492   -3.0457   -1.1374 H   0  0  0  0  0  0  0  0  0  0  0  0
   -1.2344   -2.5313   -0.1043 C   0  0  0  0  0  0  0  0  0  0  0  0
   -0.3371   -3.2617    0.2757 O   0  0  0  0  0  0  0  0  0  0  0  0
   -0.9536   -1.2520   -0.5421 N   0  0  0  0  0  0  0  0  0  0  0  0
   -1.7513   -0.6682   -0.7747 H   0  0  0  0  0  0  0  0  0  0  0  0
    0.3670   -0.6095   -0.4014 C   0  0  1  0  0  0  0  0  0  0  0  0
    1.1190   -1.2423   -0.8872 H   0  0  0  0  0  0  0  0  0  0  0  0
    0.2871    0.7335   -1.1804 C   0  0  0  0  0  0  0  0  0  0  0  0
    0.8511    0.5834   -2.1072 H   0  0  0  0  0  0  0  0  0  0  0  0
   -0.7431    0.9396   -1.4905 H   0  0  0  0  0  0  0  0  0  0  0  0
    0.8716    1.9928   -0.4856 C   0  0  0  0  0  0  0  0  0  0  0  0
    1.5935    1.7648    0.3005 H   0  0  0  0  0  0  0  0  0  0  0  0
    1.4220    2.5618   -1.2400 H   0  0  0  0  0  0  0  0  0  0  0  0
   -0.2147    2.9207    0.0561 C   0  0  0  0  0  0  0  0  0  0  0  0
   -1.2194    2.4275    0.5466 O   0  0  0  0  0  0  0  0  0  0  0  0
   -0.0091    4.2516   -0.0321 O   0  0  0  0  0  0  0  0  0  0  0  0
   -0.7886    4.6614    0.3726 H   0  0  0  0  0  0  0  0  0  0  0  0
    0.8066   -0.4883    1.0795 C   0  0  0  0  0  0  0  0  0  0  0  0
    1.9865   -0.6181    1.3791 O   0  0  0  0  0  0  0  0  0  0  0  0
   -0.0871   -0.0482    2.0400 N   0  0  0  0  0  0  0  0  0  0  0  0
   -0.9753    0.3100    1.6969 H   0  0  0  0  0  0  0  0  0  0  0  0
    0.3104    0.2698    3.4051 C   0  0  0  0  0  0  0  0  0  0  0  0
    1.0038    1.1171    3.4148 H   0  0  0  0  0  0  0  0  0  0  0  0
   -0.5679    0.5309    4.0030 H   0  0  0  0  0  0  0  0  0  0  0  0
    0.7998   -0.5920    3.8715 H   0  0  0  0  0  0  0  0  0  0  0  0
  1  2  1  0  0  0  0
  2  3  1  0  0  0  0
  2  4  1  0  0  0  0
  2  5  1  0  0  0  0
  5  6  2  0  0  0  0
  5  7  1  0  0  0  0
  7  8  1  0  0  0  0
  7  9  1  0  0  0  0
  9 10  1  0  0  0  0
  9 11  1  0  0  0  0
  9 21  1  0  0  0  0
 11 12  1  0  0  0  0
 11 13  1  0  0  0  0
 11 14  1  0  0  0  0
 14 15  1  0  0  0  0
 14 16  1  0  0  0  0
 14 17  1  0  0  0  0
 17 18  2  0  0  0  0
 17 19  1  0  0  0  0
 19 20  1  0  0  0  0
 21 22  2  0  0  0  0
 21 23  1  0  0  0  0
 23 24  1  0  0  0  0
 23 25  1  0  0  0  0
 25 26  1  0  0  0  0
 25 27  1  0  0  0  0
 25 28  1  0  0  0  0
M  END
$$$$

  -OEChem-03222214033D

 28 27  0     1  0  0  0  0  0999 V2000
   -2.6976   -4.0767    0.3123 H   0  0  0  0  0  0  0  0  0  0  0  0
   -2.6625   -3.0664   -0.1050 C   0  0  0  0  0  0  0  0  0  0  0  0
   -3.3017   -2.4156    0.4962 H   0  0  0  0  0  0  0  0  0  0  0  0
   -3.0418   -3.0955   -1.1292 H   0  0  0  0  0  0  0  0  0  0  0  0
   -1.2370   -2.5481   -0.0951 C   0  0  0  0  0  0  0  0  0  0  0  0
   -0.3310   -3.2668    0.2869 O   0  0  0  0  0  0  0  0  0  0  0  0
   -0.9717   -1.2660   -0.5336 N   0  0  0  0  0  0  0  0  0  0  0  0
   -1.7774   -0.6865   -0.7501 H   0  0  0  0  0  0  0  0  0  0  0  0
    0.3411   -0.6088   -0.3947 C   0  0  1  0  0  0  0  0  0  0  0  0
    1.0912   -1.2527   -0.8692 H   0  0  0  0  0  0  0  0  0  0  0  0
    0.2790    0.7105   -1.2135 C   0  0  0  0  0  0  0  0  0  0  0  0
    0.8638    0.5373   -2.1229 H   0  0  0  0  0  0  0  0  0  0  0  0
   -0.7442    0.9124   -1.5481 H   0  0  0  0  0  0  0  0  0  0  0  0
    0.8510    1.9798   -0.5343 C   0  0  0  0  0  0  0  0  0  0  0  0
    1.7229    1.7536    0.0846 H   0  0  0  0  0  0  0  0  0  0  0  0
    1.1985    2.6537   -1.3218 H   0  0  0  0  0  0  0  0  0  0  0  0
   -0.1796    2.7632    0.2841 C   0  0  0  0  0  0  0  0  0  0  0  0
   -1.2499    2.2461    0.5702 O   0  0  0  0  0  0  0  0  0  0  0  0
    0.1557    4.0173    0.6531 O   0  0  0  0  0  0  0  0  0  0  0  0
   -0.6005    4.3506    1.1593 H   0  0  0  0  0  0  0  0  0  0  0  0
    0.8021   -0.4714    1.0787 C   0  0  0  0  0  0  0  0  0  0  0  0
    1.9898   -0.5756    1.3563 O   0  0  0  0  0  0  0  0  0  0  0  0
   -0.0761   -0.0372    2.0550 N   0  0  0  0  0  0  0  0  0  0  0  0
   -0.9774    0.3040    1.7271 H   0  0  0  0  0  0  0  0  0  0  0  0
    0.3429    0.2904    3.4113 C   0  0  0  0  0  0  0  0  0  0  0  0
    1.0328    1.1406    3.4052 H   0  0  0  0  0  0  0  0  0  0  0  0
   -0.5264    0.5509    4.0223 H   0  0  0  0  0  0  0  0  0  0  0  0
    0.8436   -0.5669    3.8740 H   0  0  0  0  0  0  0  0  0  0  0  0
  1  2  1  0  0  0  0
  2  3  1  0  0  0  0
  2  4  1  0  0  0  0
  2  5  1  0  0  0  0
  5  6  2  0  0  0  0
  5  7  1  0  0  0  0
  7  8  1  0  0  0  0
  7  9  1  0  0  0  0
  9 10  1  0  0  0  0
  9 11  1  0  0  0  0
  9 21  1  0  0  0  0
 11 12  1  0  0  0  0
 11 13  1  0  0  0  0
 11 14  1  0  0  0  0
 14 15  1  0  0  0  0
 14 16  1  0  0  0  0
 14 17  1  0  0  0  0
 17 18  2  0  0  0  0
 17 19  1  0  0  0  0
 19 20  1  0  0  0  0
 21 22  2  0  0  0  0
 21 23  1  0  0  0  0
 23 24  1  0  0  0  0
 23 25  1  0  0  0  0
 25 26  1  0  0  0  0
 25 27  1  0  0  0  0
 25 28  1  0  0  0  0
M  END
$$$$

  -OEChem-03222214033D

 28 27  0     1  0  0  0  0  0999 V2000
   -2.6804   -4.1151    0.2947 H   0  0  0  0  0  0  0  0  0  0  0  0
   -2.6583   -3.1017   -0.1162 C   0  0  0  0  0  0  0  0  0  0  0  0
   -3.3156   -2.4663    0.4819 H   0  0  0  0  0  0  0  0  0  0  0  0
   -3.0257   -3.1311   -1.1447 H   0  0  0  0  0  0  0  0  0  0  0  0
   -1.2423   -2.5585   -0.0871 C   0  0  0  0  0  0  0  0  0  0  0  0
   -0.3294   -3.2625    0.3058 O   0  0  0  0  0  0  0  0  0  0  0  0
   -0.9933   -1.2688   -0.5125 N   0  0  0  0  0  0  0  0  0  0  0  0
   -1.8035   -0.7011   -0.7437 H   0  0  0  0  0  0  0  0  0  0  0  0
    0.3113   -0.5969   -0.3735 C   0  0  1  0  0  0  0  0  0  0  0  0
    1.0572   -1.2536   -0.8373 H   0  0  0  0  0  0  0  0  0  0  0  0
    0.2834    0.6978   -1.2335 C   0  0  0  0  0  0  0  0  0  0  0  0
    0.8776    0.4980   -2.1312 H   0  0  0  0  0  0  0  0  0  0  0  0
   -0.7363    0.8986   -1.5794 H   0  0  0  0  0  0  0  0  0  0  0  0
    0.8421    1.9862   -0.5852 C   0  0  0  0  0  0  0  0  0  0  0  0
    1.8154    1.7846   -0.1280 H   0  0  0  0  0  0  0  0  0  0  0  0
    1.0048    2.7293   -1.3700 H   0  0  0  0  0  0  0  0  0  0  0  0
   -0.0756    2.6276    0.4593 C   0  0  0  0  0  0  0  0  0  0  0  0
   -1.2169    2.2128    0.6026 O   0  0  0  0  0  0  0  0  0  0  0  0
    0.4300    3.6569    1.1702 O   0  0  0  0  0  0  0  0  0  0  0  0
   -0.2808    3.9352    1.7668 H   0  0  0  0  0  0  0  0  0  0  0  0
    0.7969   -0.4596    1.0919 C   0  0  0  0  0  0  0  0  0  0  0  0
    1.9940   -0.5247    1.3394 O   0  0  0  0  0  0  0  0  0  0  0  0
   -0.0644   -0.0438    2.0910 N   0  0  0  0  0  0  0  0  0  0  0  0
   -0.9902    0.2541    1.7914 H   0  0  0  0  0  0  0  0  0  0  0  0
    0.3795    0.2906    3.4380 C   0  0  0  0  0  0  0  0  0  0  0  0
    1.0612    1.1473    3.4159 H   0  0  0  0  0  0  0  0  0  0  0  0
   -0.4793    0.5444    4.0666 H   0  0  0  0  0  0  0  0  0  0  0  0
    0.8981   -0.5609    3.8914 H   0  0  0  0  0  0  0  0  0  0  0  0
  1  2  1  0  0  0  0
  2  3  1  0  0  0  0
  2  4  1  0  0  0  0
  2  5  1  0  0  0  0
  5  6  2  0  0  0  0
  5  7  1  0  0  0  0
  7  8  1  0  0  0  0
  7  9  1  0  0  0  0
  9 10  1  0  0  0  0
  9 11  1  0  0  0  0
  9 21  1  0  0  0  0
 11 12  1  0  0  0  0
 11 13  1  0  0  0  0
 11 14  1  0  0  0  0
 14 15  1  0  0  0  0
 14 16  1  0  0  0  0
 14 17  1  0  0  0  0
 17 18  2  0  0  0  0
 17 19  1  0  0  0  0
 19 20  1  0  0  0  0
 21 22  2  0  0  0  0
 21 23  1  0  0  0  0
 23 24  1  0  0  0  0
 23 25  1  0  0  0  0
 25 26  1  0  0  0  0
 25 27  1  0  0  0  0
 25 28  1  0  0  0  0
M  END
$$$$

  -OEChem-03222214033D

 28 27  0     1  0  0  0  0  0999 V2000
   -2.6760   -4.1477    0.2329 H   0  0  0  0  0  0  0  0  0  0  0  0
   -2.6617   -3.1225   -0.1480 C   0  0  0  0  0  0  0  0  0  0  0  0
   -3.3310   -2.5121    0.4629 H   0  0  0  0  0  0  0  0  0  0  0  0
   -3.0209   -3.1259   -1.1799 H   0  0  0  0  0  0  0  0  0  0  0  0
   -1.2517   -2.5653   -0.0916 C   0  0  0  0  0  0  0  0  0  0  0  0
   -0.3354   -3.2676    0.2965 O   0  0  0  0  0  0  0  0  0  0  0  0
   -1.0132   -1.2630   -0.4838 N   0  0  0  0  0  0  0  0  0  0  0  0
   -1.8266   -0.7004   -0.7154 H   0  0  0  0  0  0  0  0  0  0  0  0
    0.2847   -0.5814   -0.3317 C   0  0  1  0  0  0  0  0  0  0  0  0
    1.0231   -1.2539   -0.7847 H   0  0  0  0  0  0  0  0  0  0  0  0
    0.3055    0.6850   -1.2357 C   0  0  0  0  0  0  0  0  0  0  0  0
    0.9091    0.4483   -2.1182 H   0  0  0  0  0  0  0  0  0  0  0  0
   -0.7098    0.8803   -1.5971 H   0  0  0  0  0  0  0  0  0  0  0  0
    0.8429    2.0093   -0.6445 C   0  0  0  0  0  0  0  0  0  0  0  0
    1.8872    1.8633   -0.3518 H   0  0  0  0  0  0  0  0  0  0  0  0
    0.8240    2.7828   -1.4163 H   0  0  0  0  0  0  0  0  0  0  0  0
    0.0854    2.5414    0.5717 C   0  0  0  0  0  0  0  0  0  0  0  0
   -1.0899    2.2377    0.7172 O   0  0  0  0  0  0  0  0  0  0  0  0
    0.7462    3.3673    1.4095 O   0  0  0  0  0  0  0  0  0  0  0  0
    0.1073    3.6079    2.0965 H   0  0  0  0  0  0  0  0  0  0  0  0
    0.7948   -0.4636    1.1269 C   0  0  0  0  0  0  0  0  0  0  0  0
    1.9983   -0.5103    1.3448 O   0  0  0  0  0  0  0  0  0  0  0  0
   -0.0461   -0.0777    2.1549 N   0  0  0  0  0  0  0  0  0  0  0  0
   -0.9855    0.2067    1.8874 H   0  0  0  0  0  0  0  0  0  0  0  0
    0.4249    0.2206    3.5014 C   0  0  0  0  0  0  0  0  0  0  0  0
    1.1061    1.0778    3.4886 H   0  0  0  0  0  0  0  0  0  0  0  0
   -0.4207    0.4560    4.1546 H   0  0  0  0  0  0  0  0  0  0  0  0
    0.9534   -0.6423    3.9206 H   0  0  0  0  0  0  0  0  0  0  0  0
  1  2  1  0  0  0  0
  2  3  1  0  0  0  0
  2  4  1  0  0  0  0
  2  5  1  0  0  0  0
  5  6  2  0  0  0  0
  5  7  1  0  0  0  0
  7  8  1  0  0  0  0
  7  9  1  0  0  0  0
  9 10  1  0  0  0  0
  9 11  1  0  0  0  0
  9 21  1  0  0  0  0
 11 12  1  0  0  0  0
 11 13  1  0  0  0  0
 11 14  1  0  0  0  0
 14 15  1  0  0  0  0
 14 16  1  0  0  0  0
 14 17  1  0  0  0  0
 17 18  2  0  0  0  0
 17 19  1  0  0  0  0
 19 20  1  0  0  0  0
 21 22  2  0  0  0  0
 21 23  1  0  0  0  0
 23 24  1  0  0  0  0
 23 25  1  0  0  0  0
 25 26  1  0  0  0  0
 25 27  1  0  0  0  0
 25 28  1  0  0  0  0
M  END
$$$$

  -OEChem-03222214033D

 28 27  0     1  0  0  0  0  0999 V2000
   -2.6351   -4.1863    0.1666 H   0  0  0  0  0  0  0  0  0  0  0  0
   -2.6365   -3.1493   -0.1813 C   0  0  0  0  0  0  0  0  0  0  0  0
   -3.3121   -2.5683    0.4507 H   0  0  0  0  0  0  0  0  0  0  0  0
   -2.9987   -3.1249   -1.2118 H   0  0  0  0  0  0  0  0  0  0  0  0
   -1.2348   -2.5738   -0.1111 C   0  0  0  0  0  0  0  0  0  0  0  0
   -0.3081   -3.2747    0.2535 O   0  0  0  0  0  0  0  0  0  0  0  0
   -1.0162   -1.2577   -0.4680 N   0  0  0  0  0  0  0  0  0  0  0  0
   -1.8385   -0.7023   -0.6842 H   0  0  0  0  0  0  0  0  0  0  0  0
    0.2746   -0.5624   -0.3099 C   0  0  1  0  0  0  0  0  0  0  0  0
    1.0139   -1.2300   -0.7695 H   0  0  0  0  0  0  0  0  0  0  0  0
    0.2995    0.6978   -1.2276 C   0  0  0  0  0  0  0  0  0  0  0  0
    0.8853    0.4485   -2.1189 H   0  0  0  0  0  0  0  0  0  0  0  0
   -0.7245    0.8768   -1.5713 H   0  0  0  0  0  0  0  0  0  0  0  0
    0.8108    2.0607   -0.6991 C   0  0  0  0  0  0  0  0  0  0  0  0
    1.9019    2.0050   -0.6369 H   0  0  0  0  0  0  0  0  0  0  0  0
    0.5646    2.8450   -1.4193 H   0  0  0  0  0  0  0  0  0  0  0  0
    0.3117    2.5003    0.6723 C   0  0  0  0  0  0  0  0  0  0  0  0
   -0.8703    2.3336    0.9333 O   0  0  0  0  0  0  0  0  0  0  0  0
    1.1810    3.1050    1.5087 O   0  0  0  0  0  0  0  0  0  0  0  0
    0.6762    3.3065    2.3099 H   0  0  0  0  0  0  0  0  0  0  0  0
    0.7975   -0.4793    1.1468 C   0  0  0  0  0  0  0  0  0  0  0  0
    2.0023   -0.5349    1.3544 O   0  0  0  0  0  0  0  0  0  0  0  0
   -0.0369   -0.1350    2.1954 N   0  0  0  0  0  0  0  0  0  0  0  0
   -0.9749    0.1683    1.9458 H   0  0  0  0  0  0  0  0  0  0  0  0
    0.4402    0.0991    3.5524 C   0  0  0  0  0  0  0  0  0  0  0  0
    1.1532    0.9297    3.5722 H   0  0  0  0  0  0  0  0  0  0  0  0
   -0.3987    0.3445    4.2105 H   0  0  0  0  0  0  0  0  0  0  0  0
    0.9335   -0.7974    3.9426 H   0  0  0  0  0  0  0  0  0  0  0  0
  1  2  1  0  0  0  0
  2  3  1  0  0  0  0
  2  4  1  0  0  0  0
  2  5  1  0  0  0  0
  5  6  2  0  0  0  0
  5  7  1  0  0  0  0
  7  8  1  0  0  0  0
  7  9  1  0  0  0  0
  9 10  1  0  0  0  0
  9 11  1  0  0  0  0
  9 21  1  0  0  0  0
 11 12  1  0  0  0  0
 11 13  1  0  0  0  0
 11 14  1  0  0  0  0
 14 15  1  0  0  0  0
 14 16  1  0  0  0  0
 14 17  1  0  0  0  0
 17 18  2  0  0  0  0
 17 19  1  0  0  0  0
 19 20  1  0  0  0  0
 21 22  2  0  0  0  0
 21 23  1  0  0  0  0
 23 24  1  0  0  0  0
 23 25  1  0  0  0  0
 25 26  1  0  0  0  0
 25 27  1  0  0  0  0
 25 28  1  0  0  0  0
M  END
$$$$

  -OEChem-03222214033D

 28 27  0     1  0  0  0  0  0999 V2000
   -2.8128   -4.0759    0.0974 H   0  0  0  0  0  0  0  0  0  0  0  0
   -2.7458   -3.0394   -0.2455 C   0  0  0  0  0  0  0  0  0  0  0  0
   -3.4178   -2.4256    0.3590 H   0  0  0  0  0  0  0  0  0  0  0  0
   -3.0608   -2.9941   -1.2908 H   0  0  0  0  0  0  0  0  0  0  0  0
   -1.3207   -2.5370   -0.1111 C   0  0  0  0  0  0  0  0  0  0  0  0
   -0.4523   -3.2782    0.3123 O   0  0  0  0  0  0  0  0  0  0  0  0
   -1.0162   -1.2396   -0.4741 N   0  0  0  0  0  0  0  0  0  0  0  0
   -1.7943   -0.6528   -0.7591 H   0  0  0  0  0  0  0  0  0  0  0  0
    0.3004   -0.6074   -0.2637 C   0  0  1  0  0  0  0  0  0  0  0  0
    1.0279   -1.3194   -0.6727 H   0  0  0  0  0  0  0  0  0  0  0  0
    0.4291    0.6274   -1.2124 C   0  0  0  0  0  0  0  0  0  0  0  0
    1.0259    0.3159   -2.0765 H   0  0  0  0  0  0  0  0  0  0  0  0
   -0.5747    0.8372   -1.5958 H   0  0  0  0  0  0  0  0  0  0  0  0
    0.9735    2.0053   -0.7490 C   0  0  0  0  0  0  0  0  0  0  0  0
    2.0573    1.9905   -0.8977 H   0  0  0  0  0  0  0  0  0  0  0  0
    0.5718    2.7882   -1.3977 H   0  0  0  0  0  0  0  0  0  0  0  0
    0.7522    2.4285    0.6952 C   0  0  0  0  0  0  0  0  0  0  0  0
   -0.4019    2.5126    1.0845 O   0  0  0  0  0  0  0  0  0  0  0  0
    1.8227    2.7467    1.4524 O   0  0  0  0  0  0  0  0  0  0  0  0
    1.4706    2.9607    2.3283 H   0  0  0  0  0  0  0  0  0  0  0  0
    0.7440   -0.5352    1.2197 C   0  0  0  0  0  0  0  0  0  0  0  0
    1.9251   -0.6851    1.5020 O   0  0  0  0  0  0  0  0  0  0  0  0
   -0.1276   -0.1367    2.2172 N   0  0  0  0  0  0  0  0  0  0  0  0
   -1.0255    0.2314    1.9164 H   0  0  0  0  0  0  0  0  0  0  0  0
    0.2792    0.0516    3.6038 C   0  0  0  0  0  0  0  0  0  0  0  0
    1.0517    0.8238    3.6771 H   0  0  0  0  0  0  0  0  0  0  0  0
   -0.5778    0.3587    4.2108 H   0  0  0  0  0  0  0  0  0  0  0  0
    0.6757   -0.8831    4.0145 H   0  0  0  0  0  0  0  0  0  0  0  0
  1  2  1  0  0  0  0
  2  3  1  0  0  0  0
  2  4  1  0  0  0  0
  2  5  1  0  0  0  0
  5  6  2  0  0  0  0
  5  7  1  0  0  0  0
  7  8  1  0  0  0  0
  7  9  1  0  0  0  0
  9 10  1  0  0  0  0
  9 11  1  0  0  0  0
  9 21  1  0  0  0  0
 11 12  1  0  0  0  0
 11 13  1  0  0  0  0
 11 14  1  0  0  0  0
 14 15  1  0  0  0  0
 14 16  1  0  0  0  0
 14 17  1  0  0  0  0
 17 18  2  0  0  0  0
 17 19  1  0  0  0  0
 19 20  1  0  0  0  0
 21 22  2  0  0  0  0
 21 23  1  0  0  0  0
 23 24  1  0  0  0  0
 23 25  1  0  0  0  0
 25 26  1  0  0  0  0
 25 27  1  0  0  0  0
 25 28  1  0  0  0  0
M  END
$$$$

  -OEChem-03222214033D

 28 27  0     1  0  0  0  0  0999 V2000
   -3.0094   -3.8755    0.0649 H   0  0  0  0  0  0  0  0  0  0  0  0
   -2.8788   -2.8448   -0.2773 C   0  0  0  0  0  0  0  0  0  0  0  0
   -3.5431   -2.1967    0.2990 H   0  0  0  0  0  0  0  0  0  0  0  0
   -3.1503   -2.7893   -1.3342 H   0  0  0  0  0  0  0  0  0  0  0  0
   -1.4371   -2.4123   -0.0882 C   0  0  0  0  0  0  0  0  0  0  0  0
   -0.6245   -3.1960    0.3657 O   0  0  0  0  0  0  0  0  0  0  0  0
   -1.0548   -1.1316   -0.4385 N   0  0  0  0  0  0  0  0  0  0  0  0
   -1.7748   -0.5306   -0.8266 H   0  0  0  0  0  0  0  0  0  0  0  0
    0.3177   -0.5997   -0.3047 C   0  0  1  0  0  0  0  0  0  0  0  0
    0.9751   -1.3284   -0.7947 H   0  0  0  0  0  0  0  0  0  0  0  0
    0.4315    0.6860   -1.1885 C   0  0  0  0  0  0  0  0  0  0  0  0
    0.9236    0.3846   -2.1197 H   0  0  0  0  0  0  0  0  0  0  0  0
   -0.5892    0.9661   -1.4672 H   0  0  0  0  0  0  0  0  0  0  0  0
    1.0918    2.0244   -0.7431 C   0  0  0  0  0  0  0  0  0  0  0  0
    2.0535    2.0923   -1.2614 H   0  0  0  0  0  0  0  0  0  0  0  0
    0.4788    2.8509   -1.1120 H   0  0  0  0  0  0  0  0  0  0  0  0
    1.3850    2.3064    0.7245 C   0  0  0  0  0  0  0  0  0  0  0  0
    2.5406    2.3458    1.1000 O   0  0  0  0  0  0  0  0  0  0  0  0
    0.3385    2.6349    1.5123 O   0  0  0  0  0  0  0  0  0  0  0  0
    0.7423    2.8022    2.3785 H   0  0  0  0  0  0  0  0  0  0  0  0
    0.8364   -0.6132    1.1539 C   0  0  0  0  0  0  0  0  0  0  0  0
    2.0024   -0.9029    1.3793 O   0  0  0  0  0  0  0  0  0  0  0  0
    0.0391   -0.1855    2.2005 N   0  0  0  0  0  0  0  0  0  0  0  0
   -0.9297    0.0229    1.9856 H   0  0  0  0  0  0  0  0  0  0  0  0
    0.4690   -0.2243    3.5925 C   0  0  0  0  0  0  0  0  0  0  0  0
    1.3811    0.3666    3.7288 H   0  0  0  0  0  0  0  0  0  0  0  0
   -0.3095    0.1876    4.2415 H   0  0  0  0  0  0  0  0  0  0  0  0
    0.6689   -1.2560    3.9007 H   0  0  0  0  0  0  0  0  0  0  0  0
  1  2  1  0  0  0  0
  2  3  1  0  0  0  0
  2  4  1  0  0  0  0
  2  5  1  0  0  0  0
  5  6  2  0  0  0  0
  5  7  1  0  0  0  0
  7  8  1  0  0  0  0
  7  9  1  0  0  0  0
  9 10  1  0  0  0  0
  9 11  1  0  0  0  0
  9 21  1  0  0  0  0
 11 12  1  0  0  0  0
 11 13  1  0  0  0  0
 11 14  1  0  0  0  0
 14 15  1  0  0  0  0
 14 16  1  0  0  0  0
 14 17  1  0  0  0  0
 17 18  2  0  0  0  0
 17 19  1  0  0  0  0
 19 20  1  0  0  0  0
 21 22  2  0  0  0  0
 21 23  1  0  0  0  0
 23 24  1  0  0  0  0
 23 25  1  0  0  0  0
 25 26  1  0  0  0  0
 25 27  1  0  0  0  0
 25 28  1  0  0  0  0
M  END
$$$$

  -OEChem-03222214033D

 28 27  0     1  0  0  0  0  0999 V2000
   -3.0849   -3.8088    0.1575 H   0  0  0  0  0  0  0  0  0  0  0  0
   -2.9401   -2.7934   -0.2226 C   0  0  0  0  0  0  0  0  0  0  0  0
   -3.5612   -2.1092    0.3602 H   0  0  0  0  0  0  0  0  0  0  0  0
   -3.2541   -2.7614   -1.2686 H   0  0  0  0  0  0  0  0  0  0  0  0
   -1.4802   -2.3976   -0.1075 C   0  0  0  0  0  0  0  0  0  0  0  0
   -0.6612   -3.2093    0.2815 O   0  0  0  0  0  0  0  0  0  0  0  0
   -1.0868   -1.1228   -0.4677 N   0  0  0  0  0  0  0  0  0  0  0  0
   -1.8170   -0.4938   -0.7855 H   0  0  0  0  0  0  0  0  0  0  0  0
    0.2906   -0.6030   -0.3320 C   0  0  1  0  0  0  0  0  0  0  0  0
    0.9635   -1.3103   -0.8319 H   0  0  0  0  0  0  0  0  0  0  0  0
    0.3599    0.7235   -1.1643 C   0  0  0  0  0  0  0  0  0  0  0  0
    0.8550    0.4559   -2.1043 H   0  0  0  0  0  0  0  0  0  0  0  0
   -0.6639    0.9984   -1.4374 H   0  0  0  0  0  0  0  0  0  0  0  0
    1.0181    2.0546   -0.6875 C   0  0  0  0  0  0  0  0  0  0  0  0
    1.7932    2.3204   -1.4117 H   0  0  0  0  0  0  0  0  0  0  0  0
    0.2631    2.8447   -0.7377 H   0  0  0  0  0  0  0  0  0  0  0  0
    1.6669    2.1508    0.6845 C   0  0  0  0  0  0  0  0  0  0  0  0
    0.9966    2.5722    1.6114 O   0  0  0  0  0  0  0  0  0  0  0  0
    2.9686    1.8132    0.7887 O   0  0  0  0  0  0  0  0  0  0  0  0
    3.1638    1.8073    1.7379 H   0  0  0  0  0  0  0  0  0  0  0  0
    0.7533   -0.6301    1.1475 C   0  0  0  0  0  0  0  0  0  0  0  0
    1.9018   -0.9455    1.4296 O   0  0  0  0  0  0  0  0  0  0  0  0
   -0.0848   -0.1914    2.1572 N   0  0  0  0  0  0  0  0  0  0  0  0
   -0.9902    0.1734    1.8847 H   0  0  0  0  0  0  0  0  0  0  0  0
    0.3156   -0.1158    3.5563 C   0  0  0  0  0  0  0  0  0  0  0  0
    1.1504    0.5818    3.6798 H   0  0  0  0  0  0  0  0  0  0  0  0
   -0.5199    0.2335    4.1701 H   0  0  0  0  0  0  0  0  0  0  0  0
    0.6228   -1.1023    3.9195 H   0  0  0  0  0  0  0  0  0  0  0  0
  1  2  1  0  0  0  0
  2  3  1  0  0  0  0
  2  4  1  0  0  0  0
  2  5  1  0  0  0  0
  5  6  2  0  0  0  0
  5  7  1  0  0  0  0
  7  8  1  0  0  0  0
  7  9  1  0  0  0  0
  9 10  1  0  0  0  0
  9 11  1  0  0  0  0
  9 21  1  0  0  0  0
 11 12  1  0  0  0  0
 11 13  1  0  0  0  0
 11 14  1  0  0  0  0
 14 15  1  0  0  0  0
 14 16  1  0  0  0  0
 14 17  1  0  0  0  0
 17 18  2  0  0  0  0
 17 19  1  0  0  0  0
 19 20  1  0  0  0  0
 21 22  2  0  0  0  0
 21 23  1  0  0  0  0
 23 24  1  0  0  0  0
 23 25  1  0  0  0  0
 25 26  1  0  0  0  0
 25 27  1  0  0  0  0
 25 28  1  0  0  0  0
M  END
$$$$

  -OEChem-03222214033D

 28 27  0     1  0  0  0  0  0999 V2000
   -2.6056   -4.1619    0.3374 H   0  0  0  0  0  0  0  0  0  0  0  0
   -2.5762   -3.1524   -0.0830 C   0  0  0  0  0  0  0  0  0  0  0  0
   -3.2980   -2.5292    0.4502 H   0  0  0  0  0  0  0  0  0  0  0  0
   -2.8553   -3.2035   -1.1381 H   0  0  0  0  0  0  0  0  0  0  0  0
   -1.1821   -2.5710    0.0579 C   0  0  0  0  0  0  0  0  0  0  0  0
   -0.2995   -3.2342    0.5695 O   0  0  0  0  0  0  0  0  0  0  0  0
   -0.9193   -1.2998   -0.4168 N   0  0  0  0  0  0  0  0  0  0  0  0
   -1.6883   -0.8134   -0.8660 H   0  0  0  0  0  0  0  0  0  0  0  0
    0.3885   -0.6175   -0.3060 C   0  0  1  0  0  0  0  0  0  0  0  0
    1.1583   -1.2650   -0.7426 H   0  0  0  0  0  0  0  0  0  0  0  0
    0.2881    0.6591   -1.2107 C   0  0  0  0  0  0  0  0  0  0  0  0
    0.8456    0.4047   -2.1187 H   0  0  0  0  0  0  0  0  0  0  0  0
   -0.7523    0.7888   -1.5255 H   0  0  0  0  0  0  0  0  0  0  0  0
    0.7786    2.0788   -0.7949 C   0  0  0  0  0  0  0  0  0  0  0  0
    1.2802    2.5356   -1.6524 H   0  0  0  0  0  0  0  0  0  0  0  0
   -0.1052    2.6884   -0.5845 H   0  0  0  0  0  0  0  0  0  0  0  0
    1.7063    2.2318    0.4013 C   0  0  0  0  0  0  0  0  0  0  0  0
    1.2679    2.7360    1.4206 O   0  0  0  0  0  0  0  0  0  0  0  0
    2.9847    1.8290    0.2492 O   0  0  0  0  0  0  0  0  0  0  0  0
    3.3637    1.8358    1.1424 H   0  0  0  0  0  0  0  0  0  0  0  0
    0.7951   -0.4585    1.1826 C   0  0  0  0  0  0  0  0  0  0  0  0
    1.9555   -0.6353    1.5318 O   0  0  0  0  0  0  0  0  0  0  0  0
   -0.1284   -0.0248    2.1173 N   0  0  0  0  0  0  0  0  0  0  0  0
   -1.0775    0.1300    1.7982 H   0  0  0  0  0  0  0  0  0  0  0  0
    0.1977    0.2049    3.5190 C   0  0  0  0  0  0  0  0  0  0  0  0
    0.9939    0.9511    3.6107 H   0  0  0  0  0  0  0  0  0  0  0  0
   -0.6813    0.5723    4.0569 H   0  0  0  0  0  0  0  0  0  0  0  0
    0.5302   -0.7257    3.9911 H   0  0  0  0  0  0  0  0  0  0  0  0
  1  2  1  0  0  0  0
  2  3  1  0  0  0  0
  2  4  1  0  0  0  0
  2  5  1  0  0  0  0
  5  6  2  0  0  0  0
  5  7  1  0  0  0  0
  7  8  1  0  0  0  0
  7  9  1  0  0  0  0
  9 10  1  0  0  0  0
  9 11  1  0  0  0  0
  9 21  1  0  0  0  0
 11 12  1  0  0  0  0
 11 13  1  0  0  0  0
 11 14  1  0  0  0  0
 14 15  1  0  0  0  0
 14 16  1  0  0  0  0
 14 17  1  0  0  0  0
 17 18  2  0  0  0  0
 17 19  1  0  0  0  0
 19 20  1  0  0  0  0
 21 22  2  0  0  0  0
 21 23  1  0  0  0  0
 23 24  1  0  0  0  0
 23 25  1  0  0  0  0
 25 26  1  0  0  0  0
 25 27  1  0  0  0  0
 25 28  1  0  0  0  0
M  END
$$$$

  -OEChem-03222214033D

 28 27  0     1  0  0  0  0  0999 V2000
   -2.7803   -4.0092    0.4541 H   0  0  0  0  0  0  0  0  0  0  0  0
   -2.6989   -3.0271   -0.0208 C   0  0  0  0  0  0  0  0  0  0  0  0
   -3.4229   -2.3525    0.4418 H   0  0  0  0  0  0  0  0  0  0  0  0
   -2.9324   -3.1315   -1.0831 H   0  0  0  0  0  0  0  0  0  0  0  0
   -1.2942   -2.4802    0.1510 C   0  0  0  0  0  0  0  0  0  0  0  0
   -0.4658   -3.1299    0.7602 O   0  0  0  0  0  0  0  0  0  0  0  0
   -0.9673   -1.2542   -0.3984 N   0  0  0  0  0  0  0  0  0  0  0  0
   -1.6784   -0.8211   -0.9787 H   0  0  0  0  0  0  0  0  0  0  0  0
    0.3869   -0.6551   -0.3815 C   0  0  1  0  0  0  0  0  0  0  0  0
    1.1029   -1.3446   -0.8444 H   0  0  0  0  0  0  0  0  0  0  0  0
    0.2859    0.6296   -1.2711 C   0  0  0  0  0  0  0  0  0  0  0  0
    0.7608    0.3585   -2.2205 H   0  0  0  0  0  0  0  0  0  0  0  0
   -0.7650    0.8326   -1.5016 H   0  0  0  0  0  0  0  0  0  0  0  0
    0.9013    1.9965   -0.8576 C   0  0  0  0  0  0  0  0  0  0  0  0
    1.1156    2.5790   -1.7579 H   0  0  0  0  0  0  0  0  0  0  0  0
    0.1436    2.5463   -0.2926 H   0  0  0  0  0  0  0  0  0  0  0  0
    2.1558    1.9874    0.0067 C   0  0  0  0  0  0  0  0  0  0  0  0
    3.1856    1.5967   -0.5107 O   0  0  0  0  0  0  0  0  0  0  0  0
    2.0824    2.4464    1.2737 O   0  0  0  0  0  0  0  0  0  0  0  0
    2.9516    2.2360    1.6520 H   0  0  0  0  0  0  0  0  0  0  0  0
    0.8573   -0.4590    1.0843 C   0  0  0  0  0  0  0  0  0  0  0  0
    2.0110   -0.7003    1.4134 O   0  0  0  0  0  0  0  0  0  0  0  0
   -0.0097    0.0764    2.0209 N   0  0  0  0  0  0  0  0  0  0  0  0
   -0.9831    0.1447    1.7465 H   0  0  0  0  0  0  0  0  0  0  0  0
    0.3367    0.2181    3.4291 C   0  0  0  0  0  0  0  0  0  0  0  0
    1.2124    0.8649    3.5454 H   0  0  0  0  0  0  0  0  0  0  0  0
   -0.4956    0.6650    3.9810 H   0  0  0  0  0  0  0  0  0  0  0  0
    0.5608   -0.7603    3.8673 H   0  0  0  0  0  0  0  0  0  0  0  0
  1  2  1  0  0  0  0
  2  3  1  0  0  0  0
  2  4  1  0  0  0  0
  2  5  1  0  0  0  0
  5  6  2  0  0  0  0
  5  7  1  0  0  0  0
  7  8  1  0  0  0  0
  7  9  1  0  0  0  0
  9 10  1  0  0  0  0
  9 11  1  0  0  0  0
  9 21  1  0  0  0  0
 11 12  1  0  0  0  0
 11 13  1  0  0  0  0
 11 14  1  0  0  0  0
 14 15  1  0  0  0  0
 14 16  1  0  0  0  0
 14 17  1  0  0  0  0
 17 18  2  0  0  0  0
 17 19  1  0  0  0  0
 19 20  1  0  0  0  0
 21 22  2  0  0  0  0
 21 23  1  0  0  0  0
 23 24  1  0  0  0  0
 23 25  1  0  0  0  0
 25 26  1  0  0  0  0
 25 27  1  0  0  0  0
 25 28  1  0  0  0  0
M  END
$$$$

  -OEChem-03222214033D

 28 27  0     1  0  0  0  0  0999 V2000
   -2.7453   -4.0348    0.4047 H   0  0  0  0  0  0  0  0  0  0  0  0
   -2.6736   -3.0539   -0.0742 C   0  0  0  0  0  0  0  0  0  0  0  0
   -3.4325   -2.3961    0.3562 H   0  0  0  0  0  0  0  0  0  0  0  0
   -2.8652   -3.1719   -1.1435 H   0  0  0  0  0  0  0  0  0  0  0  0
   -1.2921   -2.4668    0.1450 C   0  0  0  0  0  0  0  0  0  0  0  0
   -0.4779   -3.0759    0.8124 O   0  0  0  0  0  0  0  0  0  0  0  0
   -0.9737   -1.2460   -0.4201 N   0  0  0  0  0  0  0  0  0  0  0  0
   -1.6638   -0.8578   -1.0552 H   0  0  0  0  0  0  0  0  0  0  0  0
    0.3729   -0.6324   -0.3928 C   0  0  1  0  0  0  0  0  0  0  0  0
    1.1010   -1.3156   -0.8462 H   0  0  0  0  0  0  0  0  0  0  0  0
    0.2678    0.6494   -1.2818 C   0  0  0  0  0  0  0  0  0  0  0  0
    0.7437    0.3995   -2.2365 H   0  0  0  0  0  0  0  0  0  0  0  0
   -0.7834    0.8595   -1.5030 H   0  0  0  0  0  0  0  0  0  0  0  0
    0.8852    1.9898   -0.8058 C   0  0  0  0  0  0  0  0  0  0  0  0
    0.9027    2.6971   -1.6390 H   0  0  0  0  0  0  0  0  0  0  0  0
    0.2403    2.4137   -0.0312 H   0  0  0  0  0  0  0  0  0  0  0  0
    2.2939    1.9044   -0.2287 C   0  0  0  0  0  0  0  0  0  0  0  0
    3.1586    1.3962   -0.9194 O   0  0  0  0  0  0  0  0  0  0  0  0
    2.5183    2.4093    1.0027 O   0  0  0  0  0  0  0  0  0  0  0  0
    3.4199    2.1227    1.2195 H   0  0  0  0  0  0  0  0  0  0  0  0
    0.8426   -0.3983    1.0680 C   0  0  0  0  0  0  0  0  0  0  0  0
    2.0023   -0.6133    1.3957 O   0  0  0  0  0  0  0  0  0  0  0  0
   -0.0263    0.1489    1.9955 N   0  0  0  0  0  0  0  0  0  0  0  0
   -1.0060    0.1695    1.7353 H   0  0  0  0  0  0  0  0  0  0  0  0
    0.3358    0.3428    3.3938 C   0  0  0  0  0  0  0  0  0  0  0  0
    1.1998    1.0109    3.4757 H   0  0  0  0  0  0  0  0  0  0  0  0
   -0.4983    0.7898    3.9429 H   0  0  0  0  0  0  0  0  0  0  0  0
    0.5859   -0.6159    3.8605 H   0  0  0  0  0  0  0  0  0  0  0  0
  1  2  1  0  0  0  0
  2  3  1  0  0  0  0
  2  4  1  0  0  0  0
  2  5  1  0  0  0  0
  5  6  2  0  0  0  0
  5  7  1  0  0  0  0
  7  8  1  0  0  0  0
  7  9  1  0  0  0  0
  9 10  1  0  0  0  0
  9 11  1  0  0  0  0
  9 21  1  0  0  0  0
 11 12  1  0  0  0  0
 11 13  1  0  0  0  0
 11 14  1  0  0  0  0
 14 15  1  0  0  0  0
 14 16  1  0  0  0  0
 14 17  1  0  0  0  0
 17 18  2  0  0  0  0
 17 19  1  0  0  0  0
 19 20  1  0  0  0  0
 21 22  2  0  0  0  0
 21 23  1  0  0  0  0
 23 24  1  0  0  0  0
 23 25  1  0  0  0  0
 25 26  1  0  0  0  0
 25 27  1  0  0  0  0
 25 28  1  0  0  0  0
M  END
$$$$

  -OEChem-03222214033D

 28 27  0     1  0  0  0  0  0999 V2000
   -2.6790   -4.0908    0.3741 H   0  0  0  0  0  0  0  0  0  0  0  0
   -2.6345   -3.1097   -0.1078 C   0  0  0  0  0  0  0  0  0  0  0  0
   -3.4239   -2.4785    0.3070 H   0  0  0  0  0  0  0  0  0  0  0  0
   -2.8033   -3.2384   -1.1796 H   0  0  0  0  0  0  0  0  0  0  0  0
   -1.2791   -2.4717    0.1321 C   0  0  0  0  0  0  0  0  0  0  0  0
   -0.4556   -3.0457    0.8195 O   0  0  0  0  0  0  0  0  0  0  0  0
   -0.9945   -1.2418   -0.4311 N   0  0  0  0  0  0  0  0  0  0  0  0
   -1.6835   -0.8835   -1.0848 H   0  0  0  0  0  0  0  0  0  0  0  0
    0.3373   -0.5985   -0.4034 C   0  0  1  0  0  0  0  0  0  0  0  0
    1.0735   -1.2713   -0.8590 H   0  0  0  0  0  0  0  0  0  0  0  0
    0.2317    0.6794   -1.2914 C   0  0  0  0  0  0  0  0  0  0  0  0
    0.6948    0.4498   -2.2578 H   0  0  0  0  0  0  0  0  0  0  0  0
   -0.8225    0.8946   -1.4921 H   0  0  0  0  0  0  0  0  0  0  0  0
    0.8481    1.9949   -0.7565 C   0  0  0  0  0  0  0  0  0  0  0  0
    0.6796    2.7933   -1.4834 H   0  0  0  0  0  0  0  0  0  0  0  0
    0.3456    2.2874    0.1693 H   0  0  0  0  0  0  0  0  0  0  0  0
    2.3500    1.9216   -0.4903 C   0  0  0  0  0  0  0  0  0  0  0  0
    3.0593    1.3656   -1.3105 O   0  0  0  0  0  0  0  0  0  0  0  0
    2.8211    2.5033    0.6323 O   0  0  0  0  0  0  0  0  0  0  0  0
    3.7542    2.2416    0.6700 H   0  0  0  0  0  0  0  0  0  0  0  0
    0.8284   -0.3472    1.0468 C   0  0  0  0  0  0  0  0  0  0  0  0
    2.0089   -0.4871    1.3367 O   0  0  0  0  0  0  0  0  0  0  0  0
   -0.0354    0.1841    1.9881 N   0  0  0  0  0  0  0  0  0  0  0  0
   -1.0227    0.1447    1.7598 H   0  0  0  0  0  0  0  0  0  0  0  0
    0.3573    0.4155    3.3722 C   0  0  0  0  0  0  0  0  0  0  0  0
    1.2064    1.1059    3.4186 H   0  0  0  0  0  0  0  0  0  0  0  0
   -0.4731    0.8537    3.9337 H   0  0  0  0  0  0  0  0  0  0  0  0
    0.6433   -0.5269    3.8513 H   0  0  0  0  0  0  0  0  0  0  0  0
  1  2  1  0  0  0  0
  2  3  1  0  0  0  0
  2  4  1  0  0  0  0
  2  5  1  0  0  0  0
  5  6  2  0  0  0  0
  5  7  1  0  0  0  0
  7  8  1  0  0  0  0
  7  9  1  0  0  0  0
  9 10  1  0  0  0  0
  9 11  1  0  0  0  0
  9 21  1  0  0  0  0
 11 12  1  0  0  0  0
 11 13  1  0  0  0  0
 11 14  1  0  0  0  0
 14 15  1  0  0  0  0
 14 16  1  0  0  0  0
 14 17  1  0  0  0  0
 17 18  2  0  0  0  0
 17 19  1  0  0  0  0
 19 20  1  0  0  0  0
 21 22  2  0  0  0  0
 21 23  1  0  0  0  0
 23 24  1  0  0  0  0
 23 25  1  0  0  0  0
 25 26  1  0  0  0  0
 25 27  1  0  0  0  0
 25 28  1  0  0  0  0
M  END
$$$$

  -OEChem-03222214033D

 28 27  0     1  0  0  0  0  0999 V2000
   -2.6503   -4.1318    0.3344 H   0  0  0  0  0  0  0  0  0  0  0  0
   -2.6217   -3.1496   -0.1462 C   0  0  0  0  0  0  0  0  0  0  0  0
   -3.4307   -2.5368    0.2586 H   0  0  0  0  0  0  0  0  0  0  0  0
   -2.7735   -3.2806   -1.2203 H   0  0  0  0  0  0  0  0  0  0  0  0
   -1.2838   -2.4822    0.1119 C   0  0  0  0  0  0  0  0  0  0  0  0
   -0.4535   -3.0404    0.8045 O   0  0  0  0  0  0  0  0  0  0  0  0
   -1.0234   -1.2396   -0.4342 N   0  0  0  0  0  0  0  0  0  0  0  0
   -1.7153   -0.8892   -1.0894 H   0  0  0  0  0  0  0  0  0  0  0  0
    0.2977   -0.5765   -0.4006 C   0  0  1  0  0  0  0  0  0  0  0  0
    1.0339   -1.2491   -0.8570 H   0  0  0  0  0  0  0  0  0  0  0  0
    0.2143    0.6958   -1.2943 C   0  0  0  0  0  0  0  0  0  0  0  0
    0.6644    0.4694   -2.2672 H   0  0  0  0  0  0  0  0  0  0  0  0
   -0.8399    0.9182   -1.4858 H   0  0  0  0  0  0  0  0  0  0  0  0
    0.8291    1.9998   -0.7268 C   0  0  0  0  0  0  0  0  0  0  0  0
    0.4869    2.8402   -1.3355 H   0  0  0  0  0  0  0  0  0  0  0  0
    0.4835    2.1880    0.2922 H   0  0  0  0  0  0  0  0  0  0  0  0
    2.3576    2.0288   -0.7567 C   0  0  0  0  0  0  0  0  0  0  0  0
    2.9471    1.4739   -1.6681 O   0  0  0  0  0  0  0  0  0  0  0  0
    2.9833    2.7113    0.2250 O   0  0  0  0  0  0  0  0  0  0  0  0
    3.9267    2.5425    0.0796 H   0  0  0  0  0  0  0  0  0  0  0  0
    0.8107   -0.3292    1.0417 C   0  0  0  0  0  0  0  0  0  0  0  0
    2.0097   -0.3704    1.2817 O   0  0  0  0  0  0  0  0  0  0  0  0
   -0.0457    0.1795    2.0024 N   0  0  0  0  0  0  0  0  0  0  0  0
   -1.0366    0.0752    1.8121 H   0  0  0  0  0  0  0  0  0  0  0  0
    0.3804    0.4513    3.3696 C   0  0  0  0  0  0  0  0  0  0  0  0
    1.1994    1.1786    3.3784 H   0  0  0  0  0  0  0  0  0  0  0  0
   -0.4503    0.8625    3.9510 H   0  0  0  0  0  0  0  0  0  0  0  0
    0.7225   -0.4697    3.8535 H   0  0  0  0  0  0  0  0  0  0  0  0
  1  2  1  0  0  0  0
  2  3  1  0  0  0  0
  2  4  1  0  0  0  0
  2  5  1  0  0  0  0
  5  6  2  0  0  0  0
  5  7  1  0  0  0  0
  7  8  1  0  0  0  0
  7  9  1  0  0  0  0
  9 10  1  0  0  0  0
  9 11  1  0  0  0  0
  9 21  1  0  0  0  0
 11 12  1  0  0  0  0
 11 13  1  0  0  0  0
 11 14  1  0  0  0  0
 14 15  1  0  0  0  0
 14 16  1  0  0  0  0
 14 17  1  0  0  0  0
 17 18  2  0  0  0  0
 17 19  1  0  0  0  0
 19 20  1  0  0  0  0
 21 22  2  0  0  0  0
 21 23  1  0  0  0  0
 23 24  1  0  0  0  0
 23 25  1  0  0  0  0
 25 26  1  0  0  0  0
 25 27  1  0  0  0  0
 25 28  1  0  0  0  0
M  END
$$$$

  -OEChem-03222214033D

 28 27  0     1  0  0  0  0  0999 V2000
   -2.6455   -4.1522    0.3025 H   0  0  0  0  0  0  0  0  0  0  0  0
   -2.6211   -3.1675   -0.1736 C   0  0  0  0  0  0  0  0  0  0  0  0
   -3.4404   -2.5644    0.2244 H   0  0  0  0  0  0  0  0  0  0  0  0
   -2.7592   -3.2952   -1.2500 H   0  0  0  0  0  0  0  0  0  0  0  0
   -1.2935   -2.4874    0.1026 C   0  0  0  0  0  0  0  0  0  0  0  0
   -0.4623   -3.0427    0.7966 O   0  0  0  0  0  0  0  0  0  0  0  0
   -1.0415   -1.2367   -0.4281 N   0  0  0  0  0  0  0  0  0  0  0  0
   -1.7319   -0.8865   -1.0851 H   0  0  0  0  0  0  0  0  0  0  0  0
    0.2759   -0.5674   -0.3860 C   0  0  1  0  0  0  0  0  0  0  0  0
    1.0105   -1.2432   -0.8402 H   0  0  0  0  0  0  0  0  0  0  0  0
    0.2130    0.7003   -1.2867 C   0  0  0  0  0  0  0  0  0  0  0  0
    0.6493    0.4624   -2.2625 H   0  0  0  0  0  0  0  0  0  0  0  0
   -0.8414    0.9253   -1.4751 H   0  0  0  0  0  0  0  0  0  0  0  0
    0.8229    2.0125   -0.7203 C   0  0  0  0  0  0  0  0  0  0  0  0
    0.3015    2.8538   -1.1835 H   0  0  0  0  0  0  0  0  0  0  0  0
    0.6671    2.1135    0.3548 H   0  0  0  0  0  0  0  0  0  0  0  0
    2.3059    2.2129   -1.0389 C   0  0  0  0  0  0  0  0  0  0  0  0
    2.7937    1.6874   -2.0248 O   0  0  0  0  0  0  0  0  0  0  0  0
    3.0045    3.0165   -0.2097 O   0  0  0  0  0  0  0  0  0  0  0  0
    3.9160    2.9776   -0.5367 H   0  0  0  0  0  0  0  0  0  0  0  0
    0.7977   -0.3308    1.0531 C   0  0  0  0  0  0  0  0  0  0  0  0
    2.0023   -0.3206    1.2677 O   0  0  0  0  0  0  0  0  0  0  0  0
   -0.0555    0.1638    2.0240 N   0  0  0  0  0  0  0  0  0  0  0  0
   -1.0461    0.0316    1.8490 H   0  0  0  0  0  0  0  0  0  0  0  0
    0.3834    0.4402    3.3862 C   0  0  0  0  0  0  0  0  0  0  0  0
    1.1874    1.1840    3.3868 H   0  0  0  0  0  0  0  0  0  0  0  0
   -0.4474    0.8324    3.9803 H   0  0  0  0  0  0  0  0  0  0  0  0
    0.7507   -0.4754    3.8618 H   0  0  0  0  0  0  0  0  0  0  0  0
  1  2  1  0  0  0  0
  2  3  1  0  0  0  0
  2  4  1  0  0  0  0
  2  5  1  0  0  0  0
  5  6  2  0  0  0  0
  5  7  1  0  0  0  0
  7  8  1  0  0  0  0
  7  9  1  0  0  0  0
  9 10  1  0  0  0  0
  9 11  1  0  0  0  0
  9 21  1  0  0  0  0
 11 12  1  0  0  0  0
 11 13  1  0  0  0  0
 11 14  1  0  0  0  0
 14 15  1  0  0  0  0
 14 16  1  0  0  0  0
 14 17  1  0  0  0  0
 17 18  2  0  0  0  0
 17 19  1  0  0  0  0
 19 20  1  0  0  0  0
 21 22  2  0  0  0  0
 21 23  1  0  0  0  0
 23 24  1  0  0  0  0
 23 25  1  0  0  0  0
 25 26  1  0  0  0  0
 25 27  1  0  0  0  0
 25 28  1  0  0  0  0
M  END
$$$$

  -OEChem-03222214033D

 28 27  0     1  0  0  0  0  0999 V2000
   -2.6597   -4.1115    0.3767 H   0  0  0  0  0  0  0  0  0  0  0  0
   -2.5958   -3.1740   -0.1833 C   0  0  0  0  0  0  0  0  0  0  0  0
   -3.4213   -2.5265    0.1216 H   0  0  0  0  0  0  0  0  0  0  0  0
   -2.6878   -3.3951   -1.2495 H   0  0  0  0  0  0  0  0  0  0  0  0
   -1.2692   -2.4913    0.0916 C   0  0  0  0  0  0  0  0  0  0  0  0
   -0.4301   -3.0495    0.7738 O   0  0  0  0  0  0  0  0  0  0  0  0
   -1.0267   -1.2338   -0.4271 N   0  0  0  0  0  0  0  0  0  0  0  0
   -1.7243   -0.8762   -1.0725 H   0  0  0  0  0  0  0  0  0  0  0  0
    0.2825   -0.5498   -0.3708 C   0  0  1  0  0  0  0  0  0  0  0  0
    1.0269   -1.2162   -0.8223 H   0  0  0  0  0  0  0  0  0  0  0  0
    0.2073    0.7172   -1.2734 C   0  0  0  0  0  0  0  0  0  0  0  0
    0.6584    0.4702   -2.2400 H   0  0  0  0  0  0  0  0  0  0  0  0
   -0.8481    0.9198   -1.4810 H   0  0  0  0  0  0  0  0  0  0  0  0
    0.7875    2.0551   -0.7239 C   0  0  0  0  0  0  0  0  0  0  0  0
    0.0896    2.8571   -0.9771 H   0  0  0  0  0  0  0  0  0  0  0  0
    0.8771    2.0674    0.3624 H   0  0  0  0  0  0  0  0  0  0  0  0
    2.1325    2.4570   -1.3310 C   0  0  0  0  0  0  0  0  0  0  0  0
    2.3514    2.2382   -2.5101 O   0  0  0  0  0  0  0  0  0  0  0  0
    3.0099    3.0882   -0.5232 O   0  0  0  0  0  0  0  0  0  0  0  0
    3.7983    3.2308   -1.0681 H   0  0  0  0  0  0  0  0  0  0  0  0
    0.7914   -0.3187    1.0733 C   0  0  0  0  0  0  0  0  0  0  0  0
    1.9946   -0.3102    1.2953 O   0  0  0  0  0  0  0  0  0  0  0  0
   -0.0707    0.1587    2.0449 N   0  0  0  0  0  0  0  0  0  0  0  0
   -1.0597    0.0272    1.8611 H   0  0  0  0  0  0  0  0  0  0  0  0
    0.3579    0.4158    3.4145 C   0  0  0  0  0  0  0  0  0  0  0  0
    1.1477    1.1746    3.4346 H   0  0  0  0  0  0  0  0  0  0  0  0
   -0.4830    0.7792    4.0127 H   0  0  0  0  0  0  0  0  0  0  0  0
    0.7403   -0.5022    3.8734 H   0  0  0  0  0  0  0  0  0  0  0  0
  1  2  1  0  0  0  0
  2  3  1  0  0  0  0
  2  4  1  0  0  0  0
  2  5  1  0  0  0  0
  5  6  2  0  0  0  0
  5  7  1  0  0  0  0
  7  8  1  0  0  0  0
  7  9  1  0  0  0  0
  9 10  1  0  0  0  0
  9 11  1  0  0  0  0
  9 21  1  0  0  0  0
 11 12  1  0  0  0  0
 11 13  1  0  0  0  0
 11 14  1  0  0  0  0
 14 15  1  0  0  0  0
 14 16  1  0  0  0  0
 14 17  1  0  0  0  0
 17 18  2  0  0  0  0
 17 19  1  0  0  0  0
 19 20  1  0  0  0  0
 21 22  2  0  0  0  0
 21 23  1  0  0  0  0
 23 24  1  0  0  0  0
 23 25  1  0  0  0  0
 25 26  1  0  0  0  0
 25 27  1  0  0  0  0
 25 28  1  0  0  0  0
M  END
$$$$

  -OEChem-03222214033D

 28 27  0     1  0  0  0  0  0999 V2000
   -2.5965   -4.1370    0.3154 H   0  0  0  0  0  0  0  0  0  0  0  0
   -2.5515   -3.1777   -0.2082 C   0  0  0  0  0  0  0  0  0  0  0  0
   -3.3854   -2.5561    0.1266 H   0  0  0  0  0  0  0  0  0  0  0  0
   -2.6476   -3.3592   -1.2815 H   0  0  0  0  0  0  0  0  0  0  0  0
   -1.2339   -2.4850    0.0844 C   0  0  0  0  0  0  0  0  0  0  0  0
   -0.3943   -3.0444    0.7650 O   0  0  0  0  0  0  0  0  0  0  0  0
   -0.9969   -1.2226   -0.4250 N   0  0  0  0  0  0  0  0  0  0  0  0
   -1.6927   -0.8661   -1.0731 H   0  0  0  0  0  0  0  0  0  0  0  0
    0.3060   -0.5277   -0.3545 C   0  0  1  0  0  0  0  0  0  0  0  0
    1.0640   -1.1746   -0.8116 H   0  0  0  0  0  0  0  0  0  0  0  0
    0.1972    0.7554   -1.2322 C   0  0  0  0  0  0  0  0  0  0  0  0
    0.6831    0.5249   -2.1865 H   0  0  0  0  0  0  0  0  0  0  0  0
   -0.8564    0.9361   -1.4678 H   0  0  0  0  0  0  0  0  0  0  0  0
    0.7511    2.1029   -0.6782 C   0  0  0  0  0  0  0  0  0  0  0  0
   -0.0625    2.8306   -0.6238 H   0  0  0  0  0  0  0  0  0  0  0  0
    1.1562    2.0136    0.3296 H   0  0  0  0  0  0  0  0  0  0  0  0
    1.8537    2.6985   -1.5524 C   0  0  0  0  0  0  0  0  0  0  0  0
    1.6588    2.7998   -2.7516 O   0  0  0  0  0  0  0  0  0  0  0  0
    2.9876    3.1130   -0.9496 O   0  0  0  0  0  0  0  0  0  0  0  0
    3.5544    3.4374   -1.6652 H   0  0  0  0  0  0  0  0  0  0  0  0
    0.7887   -0.3071    1.1002 C   0  0  0  0  0  0  0  0  0  0  0  0
    1.9866   -0.3165    1.3502 O   0  0  0  0  0  0  0  0  0  0  0  0
   -0.0943    0.1542    2.0604 N   0  0  0  0  0  0  0  0  0  0  0  0
   -1.0797    0.0366    1.8488 H   0  0  0  0  0  0  0  0  0  0  0  0
    0.3024    0.3883    3.4433 C   0  0  0  0  0  0  0  0  0  0  0  0
    1.1005    1.1367    3.4923 H   0  0  0  0  0  0  0  0  0  0  0  0
   -0.5486    0.7555    4.0246 H   0  0  0  0  0  0  0  0  0  0  0  0
    0.6621   -0.5399    3.8999 H   0  0  0  0  0  0  0  0  0  0  0  0
  1  2  1  0  0  0  0
  2  3  1  0  0  0  0
  2  4  1  0  0  0  0
  2  5  1  0  0  0  0
  5  6  2  0  0  0  0
  5  7  1  0  0  0  0
  7  8  1  0  0  0  0
  7  9  1  0  0  0  0
  9 10  1  0  0  0  0
  9 11  1  0  0  0  0
  9 21  1  0  0  0  0
 11 12  1  0  0  0  0
 11 13  1  0  0  0  0
 11 14  1  0  0  0  0
 14 15  1  0  0  0  0
 14 16  1  0  0  0  0
 14 17  1  0  0  0  0
 17 18  2  0  0  0  0
 17 19  1  0  0  0  0
 19 20  1  0  0  0  0
 21 22  2  0  0  0  0
 21 23  1  0  0  0  0
 23 24  1  0  0  0  0
 23 25  1  0  0  0  0
 25 26  1  0  0  0  0
 25 27  1  0  0  0  0
 25 28  1  0  0  0  0
M  END
$$$$

  -OEChem-03222214033D

 28 27  0     1  0  0  0  0  0999 V2000
   -2.5830   -4.1438    0.2717 H   0  0  0  0  0  0  0  0  0  0  0  0
   -2.5521   -3.1647   -0.2150 C   0  0  0  0  0  0  0  0  0  0  0  0
   -3.3784   -2.5584    0.1635 H   0  0  0  0  0  0  0  0  0  0  0  0
   -2.6737   -3.3043   -1.2919 H   0  0  0  0  0  0  0  0  0  0  0  0
   -1.2292   -2.4808    0.0741 C   0  0  0  0  0  0  0  0  0  0  0  0
   -0.3892   -3.0468    0.7486 O   0  0  0  0  0  0  0  0  0  0  0  0
   -0.9875   -1.2182   -0.4326 N   0  0  0  0  0  0  0  0  0  0  0  0
   -1.6850   -0.8539   -1.0747 H   0  0  0  0  0  0  0  0  0  0  0  0
    0.3164   -0.5264   -0.3576 C   0  0  1  0  0  0  0  0  0  0  0  0
    1.0765   -1.1658   -0.8216 H   0  0  0  0  0  0  0  0  0  0  0  0
    0.1935    0.7689   -1.2137 C   0  0  0  0  0  0  0  0  0  0  0  0
    0.7064    0.5522   -2.1574 H   0  0  0  0  0  0  0  0  0  0  0  0
   -0.8549    0.9518   -1.4706 H   0  0  0  0  0  0  0  0  0  0  0  0
    0.7506    2.1009   -0.6334 C   0  0  0  0  0  0  0  0  0  0  0  0
   -0.0692    2.7189   -0.2593 H   0  0  0  0  0  0  0  0  0  0  0  0
    1.4308    1.9252    0.2010 H   0  0  0  0  0  0  0  0  0  0  0  0
    1.5587    2.8984   -1.6561 C   0  0  0  0  0  0  0  0  0  0  0  0
    1.1167    3.0164   -2.7861 O   0  0  0  0  0  0  0  0  0  0  0  0
    2.7188    3.4584   -1.2538 O   0  0  0  0  0  0  0  0  0  0  0  0
    3.0718    3.9059   -2.0375 H   0  0  0  0  0  0  0  0  0  0  0  0
    0.7901   -0.3119    1.1016 C   0  0  0  0  0  0  0  0  0  0  0  0
    1.9851   -0.3412    1.3644 O   0  0  0  0  0  0  0  0  0  0  0  0
   -0.0978    0.1482    2.0577 N   0  0  0  0  0  0  0  0  0  0  0  0
   -1.0818    0.0394    1.8357 H   0  0  0  0  0  0  0  0  0  0  0  0
    0.2863    0.3595    3.4478 C   0  0  0  0  0  0  0  0  0  0  0  0
    1.0940    1.0961    3.5153 H   0  0  0  0  0  0  0  0  0  0  0  0
   -0.5665    0.7311    4.0240 H   0  0  0  0  0  0  0  0  0  0  0  0
    0.6277   -0.5793    3.8969 H   0  0  0  0  0  0  0  0  0  0  0  0
  1  2  1  0  0  0  0
  2  3  1  0  0  0  0
  2  4  1  0  0  0  0
  2  5  1  0  0  0  0
  5  6  2  0  0  0  0
  5  7  1  0  0  0  0
  7  8  1  0  0  0  0
  7  9  1  0  0  0  0
  9 10  1  0  0  0  0
  9 11  1  0  0  0  0
  9 21  1  0  0  0  0
 11 12  1  0  0  0  0
 11 13  1  0  0  0  0
 11 14  1  0  0  0  0
 14 15  1  0  0  0  0
 14 16  1  0  0  0  0
 14 17  1  0  0  0  0
 17 18  2  0  0  0  0
 17 19  1  0  0  0  0
 19 20  1  0  0  0  0
 21 22  2  0  0  0  0
 21 23  1  0  0  0  0
 23 24  1  0  0  0  0
 23 25  1  0  0  0  0
 25 26  1  0  0  0  0
 25 27  1  0  0  0  0
 25 28  1  0  0  0  0
M  END
$$$$

  -OEChem-03222214033D

 28 27  0     1  0  0  0  0  0999 V2000
   -2.6014   -4.1473    0.2558 H   0  0  0  0  0  0  0  0  0  0  0  0
   -2.5754   -3.1596   -0.2134 C   0  0  0  0  0  0  0  0  0  0  0  0
   -3.3941   -2.5580    0.1883 H   0  0  0  0  0  0  0  0  0  0  0  0
   -2.7134   -3.2798   -1.2906 H   0  0  0  0  0  0  0  0  0  0  0  0
   -1.2468   -2.4836    0.0681 C   0  0  0  0  0  0  0  0  0  0  0  0
   -0.4097   -3.0515    0.7445 O   0  0  0  0  0  0  0  0  0  0  0  0
   -0.9980   -1.2240   -0.4425 N   0  0  0  0  0  0  0  0  0  0  0  0
   -1.6931   -0.8584   -1.0865 H   0  0  0  0  0  0  0  0  0  0  0  0
    0.3097   -0.5393   -0.3713 C   0  0  1  0  0  0  0  0  0  0  0  0
    1.0654   -1.1799   -0.8406 H   0  0  0  0  0  0  0  0  0  0  0  0
    0.1883    0.7623   -1.2145 C   0  0  0  0  0  0  0  0  0  0  0  0
    0.7075    0.5608   -2.1585 H   0  0  0  0  0  0  0  0  0  0  0  0
   -0.8584    0.9585   -1.4691 H   0  0  0  0  0  0  0  0  0  0  0  0
    0.7640    2.0671   -0.6023 C   0  0  0  0  0  0  0  0  0  0  0  0
    0.0193    2.5508    0.0345 H   0  0  0  0  0  0  0  0  0  0  0  0
    1.6379    1.8454    0.0147 H   0  0  0  0  0  0  0  0  0  0  0  0
    1.2605    3.0558   -1.6567 C   0  0  0  0  0  0  0  0  0  0  0  0
    0.7023    3.0982   -2.7399 O   0  0  0  0  0  0  0  0  0  0  0  0
    2.2881    3.8648   -1.3238 O   0  0  0  0  0  0  0  0  0  0  0  0
    2.4493    4.4086   -2.1097 H   0  0  0  0  0  0  0  0  0  0  0  0
    0.7918   -0.3203    1.0852 C   0  0  0  0  0  0  0  0  0  0  0  0
    1.9879   -0.3575    1.3425 O   0  0  0  0  0  0  0  0  0  0  0  0
   -0.0874    0.1492    2.0448 N   0  0  0  0  0  0  0  0  0  0  0  0
   -1.0736    0.0465    1.8296 H   0  0  0  0  0  0  0  0  0  0  0  0
    0.3078    0.3670    3.4311 C   0  0  0  0  0  0  0  0  0  0  0  0
    1.1231    1.0963    3.4881 H   0  0  0  0  0  0  0  0  0  0  0  0
   -0.5373    0.7509    4.0104 H   0  0  0  0  0  0  0  0  0  0  0  0
    0.6433   -0.5717    3.8848 H   0  0  0  0  0  0  0  0  0  0  0  0
  1  2  1  0  0  0  0
  2  3  1  0  0  0  0
  2  4  1  0  0  0  0
  2  5  1  0  0  0  0
  5  6  2  0  0  0  0
  5  7  1  0  0  0  0
  7  8  1  0  0  0  0
  7  9  1  0  0  0  0
  9 10  1  0  0  0  0
  9 11  1  0  0  0  0
  9 21  1  0  0  0  0
 11 12  1  0  0  0  0
 11 13  1  0  0  0  0
 11 14  1  0  0  0  0
 14 15  1  0  0  0  0
 14 16  1  0  0  0  0
 14 17  1  0  0  0  0
 17 18  2  0  0  0  0
 17 19  1  0  0  0  0
 19 20  1  0  0  0  0
 21 22  2  0  0  0  0
 21 23  1  0  0  0  0
 23 24  1  0  0  0  0
 23 25  1  0  0  0  0
 25 26  1  0  0  0  0
 25 27  1  0  0  0  0
 25 28  1  0  0  0  0
M  END
$$$$

  -OEChem-03222214033D

 28 27  0     1  0  0  0  0  0999 V2000
   -2.6102   -4.1577    0.2483 H   0  0  0  0  0  0  0  0  0  0  0  0
   -2.5933   -3.1645   -0.2096 C   0  0  0  0  0  0  0  0  0  0  0  0
   -3.4124   -2.5724    0.2051 H   0  0  0  0  0  0  0  0  0  0  0  0
   -2.7387   -3.2731   -1.2871 H   0  0  0  0  0  0  0  0  0  0  0  0
   -1.2666   -2.4843    0.0707 C   0  0  0  0  0  0  0  0  0  0  0  0
   -0.4282   -3.0491    0.7483 O   0  0  0  0  0  0  0  0  0  0  0  0
   -1.0197   -1.2254   -0.4425 N   0  0  0  0  0  0  0  0  0  0  0  0
   -1.7164   -0.8612   -1.0858 H   0  0  0  0  0  0  0  0  0  0  0  0
    0.2908   -0.5453   -0.3820 C   0  0  1  0  0  0  0  0  0  0  0  0
    1.0381   -1.1916   -0.8571 H   0  0  0  0  0  0  0  0  0  0  0  0
    0.1823    0.7574   -1.2221 C   0  0  0  0  0  0  0  0  0  0  0  0
    0.6892    0.5689   -2.1750 H   0  0  0  0  0  0  0  0  0  0  0  0
   -0.8665    0.9685   -1.4560 H   0  0  0  0  0  0  0  0  0  0  0  0
    0.7808    2.0373   -0.5876 C   0  0  0  0  0  0  0  0  0  0  0  0
    0.1512    2.3848    0.2352 H   0  0  0  0  0  0  0  0  0  0  0  0
    1.7739    1.8179   -0.1848 H   0  0  0  0  0  0  0  0  0  0  0  0
    0.9665    3.1803   -1.5854 C   0  0  0  0  0  0  0  0  0  0  0  0
    0.3483    3.1689   -2.6366 O   0  0  0  0  0  0  0  0  0  0  0  0
    1.8062    4.1768   -1.2348 O   0  0  0  0  0  0  0  0  0  0  0  0
    1.7920    4.7953   -1.9808 H   0  0  0  0  0  0  0  0  0  0  0  0
    0.7911   -0.3253    1.0684 C   0  0  0  0  0  0  0  0  0  0  0  0
    1.9912   -0.3494    1.3080 O   0  0  0  0  0  0  0  0  0  0  0  0
   -0.0768    0.1485    2.0363 N   0  0  0  0  0  0  0  0  0  0  0  0
   -1.0653    0.0423    1.8336 H   0  0  0  0  0  0  0  0  0  0  0  0
    0.3342    0.3766    3.4161 C   0  0  0  0  0  0  0  0  0  0  0  0
    1.1433    1.1135    3.4588 H   0  0  0  0  0  0  0  0  0  0  0  0
   -0.5072    0.7560    4.0039 H   0  0  0  0  0  0  0  0  0  0  0  0
    0.6839   -0.5569    3.8698 H   0  0  0  0  0  0  0  0  0  0  0  0
  1  2  1  0  0  0  0
  2  3  1  0  0  0  0
  2  4  1  0  0  0  0
  2  5  1  0  0  0  0
  5  6  2  0  0  0  0
  5  7  1  0  0  0  0
  7  8  1  0  0  0  0
  7  9  1  0  0  0  0
  9 10  1  0  0  0  0
  9 11  1  0  0  0  0
  9 21  1  0  0  0  0
 11 12  1  0  0  0  0
 11 13  1  0  0  0  0
 11 14  1  0  0  0  0
 14 15  1  0  0  0  0
 14 16  1  0  0  0  0
 14 17  1  0  0  0  0
 17 18  2  0  0  0  0
 17 19  1  0  0  0  0
 19 20  1  0  0  0  0
 21 22  2  0  0  0  0
 21 23  1  0  0  0  0
 23 24  1  0  0  0  0
 23 25  1  0  0  0  0
 25 26  1  0  0  0  0
 25 27  1  0  0  0  0
 25 28  1  0  0  0  0
M  END
$$$$

  -OEChem-03222214033D

 28 27  0     1  0  0  0  0  0999 V2000
   -2.6481   -4.1330    0.2782 H   0  0  0  0  0  0  0  0  0  0  0  0
   -2.6169   -3.1468   -0.1941 C   0  0  0  0  0  0  0  0  0  0  0  0
   -3.4215   -2.5340    0.2190 H   0  0  0  0  0  0  0  0  0  0  0  0
   -2.7740   -3.2677   -1.2687 H   0  0  0  0  0  0  0  0  0  0  0  0
   -1.2752   -2.4871    0.0639 C   0  0  0  0  0  0  0  0  0  0  0  0
   -0.4356   -3.0620    0.7318 O   0  0  0  0  0  0  0  0  0  0  0  0
   -1.0151   -1.2348   -0.4585 N   0  0  0  0  0  0  0  0  0  0  0  0
   -1.7149   -0.8579   -1.0914 H   0  0  0  0  0  0  0  0  0  0  0  0
    0.3008   -0.5664   -0.4009 C   0  0  1  0  0  0  0  0  0  0  0  0
    1.0475   -1.2128   -0.8763 H   0  0  0  0  0  0  0  0  0  0  0  0
    0.1923    0.7370   -1.2325 C   0  0  0  0  0  0  0  0  0  0  0  0
    0.4093    0.4996   -2.2797 H   0  0  0  0  0  0  0  0  0  0  0  0
   -0.8408    1.0991   -1.1871 H   0  0  0  0  0  0  0  0  0  0  0  0
    1.1017    1.9028   -0.7735 C   0  0  0  0  0  0  0  0  0  0  0  0
    0.8703    2.1852    0.2565 H   0  0  0  0  0  0  0  0  0  0  0  0
    2.1474    1.5828   -0.8058 H   0  0  0  0  0  0  0  0  0  0  0  0
    0.9590    3.1645   -1.6252 C   0  0  0  0  0  0  0  0  0  0  0  0
    0.0974    3.2223   -2.4866 O   0  0  0  0  0  0  0  0  0  0  0  0
    1.8089    4.1797   -1.3647 O   0  0  0  0  0  0  0  0  0  0  0  0
    1.5712    4.8785   -1.9927 H   0  0  0  0  0  0  0  0  0  0  0  0
    0.8016   -0.3387    1.0475 C   0  0  0  0  0  0  0  0  0  0  0  0
    2.0024   -0.3564    1.2847 O   0  0  0  0  0  0  0  0  0  0  0  0
   -0.0645    0.1513    2.0087 N   0  0  0  0  0  0  0  0  0  0  0  0
   -1.0537    0.0522    1.8060 H   0  0  0  0  0  0  0  0  0  0  0  0
    0.3467    0.4055    3.3837 C   0  0  0  0  0  0  0  0  0  0  0  0
    1.1565    1.1423    3.4129 H   0  0  0  0  0  0  0  0  0  0  0  0
   -0.4943    0.7968    3.9639 H   0  0  0  0  0  0  0  0  0  0  0  0
    0.6951   -0.5193    3.8555 H   0  0  0  0  0  0  0  0  0  0  0  0
  1  2  1  0  0  0  0
  2  3  1  0  0  0  0
  2  4  1  0  0  0  0
  2  5  1  0  0  0  0
  5  6  2  0  0  0  0
  5  7  1  0  0  0  0
  7  8  1  0  0  0  0
  7  9  1  0  0  0  0
  9 10  1  0  0  0  0
  9 11  1  0  0  0  0
  9 21  1  0  0  0  0
 11 12  1  0  0  0  0
 11 13  1  0  0  0  0
 11 14  1  0  0  0  0
 14 15  1  0  0  0  0
 14 16  1  0  0  0  0
 14 17  1  0  0  0  0
 17 18  2  0  0  0  0
 17 19  1  0  0  0  0
 19 20  1  0  0  0  0
 21 22  2  0  0  0  0
 21 23  1  0  0  0  0
 23 24  1  0  0  0  0
 23 25  1  0  0  0  0
 25 26  1  0  0  0  0
 25 27  1  0  0  0  0
 25 28  1  0  0  0  0
M  END
$$$$

  -OEChem-03222214033D

 28 27  0     1  0  0  0  0  0999 V2000
   -2.6682   -4.1196    0.2521 H   0  0  0  0  0  0  0  0  0  0  0  0
   -2.6374   -3.1178   -0.1861 C   0  0  0  0  0  0  0  0  0  0  0  0
   -3.4267   -2.5123    0.2655 H   0  0  0  0  0  0  0  0  0  0  0  0
   -2.8183   -3.1998   -1.2606 H   0  0  0  0  0  0  0  0  0  0  0  0
   -1.2850   -2.4784    0.0665 C   0  0  0  0  0  0  0  0  0  0  0  0
   -0.4491   -3.0671    0.7267 O   0  0  0  0  0  0  0  0  0  0  0  0
   -1.0132   -1.2258   -0.4483 N   0  0  0  0  0  0  0  0  0  0  0  0
   -1.7133   -0.8341   -1.0717 H   0  0  0  0  0  0  0  0  0  0  0  0
    0.3077   -0.5673   -0.3865 C   0  0  1  0  0  0  0  0  0  0  0  0
    1.0493   -1.2233   -0.8572 H   0  0  0  0  0  0  0  0  0  0  0  0
    0.2166    0.7291   -1.2337 C   0  0  0  0  0  0  0  0  0  0  0  0
    0.4205    0.4860   -2.2820 H   0  0  0  0  0  0  0  0  0  0  0  0
   -0.8175    1.0866   -1.1784 H   0  0  0  0  0  0  0  0  0  0  0  0
    1.1230    1.9100   -0.7988 C   0  0  0  0  0  0  0  0  0  0  0  0
    1.0649    2.0652    0.2806 H   0  0  0  0  0  0  0  0  0  0  0  0
    2.1640    1.6829   -1.0447 H   0  0  0  0  0  0  0  0  0  0  0  0
    0.7376    3.2494   -1.4298 C   0  0  0  0  0  0  0  0  0  0  0  0
   -0.1228    3.2910   -2.2933 O   0  0  0  0  0  0  0  0  0  0  0  0
    1.3886    4.3453   -0.9867 O   0  0  0  0  0  0  0  0  0  0  0  0
    1.0239    5.0827   -1.4992 H   0  0  0  0  0  0  0  0  0  0  0  0
    0.8087   -0.3512    1.0628 C   0  0  0  0  0  0  0  0  0  0  0  0
    2.0096   -0.3773    1.2990 O   0  0  0  0  0  0  0  0  0  0  0  0
   -0.0528    0.1394    2.0276 N   0  0  0  0  0  0  0  0  0  0  0  0
   -1.0427    0.0513    1.8231 H   0  0  0  0  0  0  0  0  0  0  0  0
    0.3593    0.3610    3.4082 C   0  0  0  0  0  0  0  0  0  0  0  0
    1.1703    1.0956    3.4539 H   0  0  0  0  0  0  0  0  0  0  0  0
   -0.4809    0.7394    3.9983 H   0  0  0  0  0  0  0  0  0  0  0  0
    0.7069   -0.5753    3.8580 H   0  0  0  0  0  0  0  0  0  0  0  0
  1  2  1  0  0  0  0
  2  3  1  0  0  0  0
  2  4  1  0  0  0  0
  2  5  1  0  0  0  0
  5  6  2  0  0  0  0
  5  7  1  0  0  0  0
  7  8  1  0  0  0  0
  7  9  1  0  0  0  0
  9 10  1  0  0  0  0
  9 11  1  0  0  0  0
  9 21  1  0  0  0  0
 11 12  1  0  0  0  0
 11 13  1  0  0  0  0
 11 14  1  0  0  0  0
 14 15  1  0  0  0  0
 14 16  1  0  0  0  0
 14 17  1  0  0  0  0
 17 18  2  0  0  0  0
 17 19  1  0  0  0  0
 19 20  1  0  0  0  0
 21 22  2  0  0  0  0
 21 23  1  0  0  0  0
 23 24  1  0  0  0  0
 23 25  1  0  0  0  0
 25 26  1  0  0  0  0
 25 27  1  0  0  0  0
 25 28  1  0  0  0  0
M  END
$$$$

  -OEChem-03222214033D

 28 27  0     1  0  0  0  0  0999 V2000
   -2.7116   -4.0867    0.2838 H   0  0  0  0  0  0  0  0  0  0  0  0
   -2.6571   -3.0998   -0.1851 C   0  0  0  0  0  0  0  0  0  0  0  0
   -3.4477   -2.4702    0.2298 H   0  0  0  0  0  0  0  0  0  0  0  0
   -2.8158   -3.2134   -1.2603 H   0  0  0  0  0  0  0  0  0  0  0  0
   -1.3009   -2.4718    0.0756 C   0  0  0  0  0  0  0  0  0  0  0  0
   -0.4712   -3.0714    0.7341 O   0  0  0  0  0  0  0  0  0  0  0  0
   -1.0155   -1.2211   -0.4375 N   0  0  0  0  0  0  0  0  0  0  0  0
   -1.7125   -0.8209   -1.0590 H   0  0  0  0  0  0  0  0  0  0  0  0
    0.3142   -0.5791   -0.3800 C   0  0  1  0  0  0  0  0  0  0  0  0
    1.0461   -1.2429   -0.8539 H   0  0  0  0  0  0  0  0  0  0  0  0
    0.2322    0.7195   -1.2299 C   0  0  0  0  0  0  0  0  0  0  0  0
    0.4103    0.4757   -2.2826 H   0  0  0  0  0  0  0  0  0  0  0  0
   -0.8012    1.0749   -1.1555 H   0  0  0  0  0  0  0  0  0  0  0  0
    1.1441    1.9120   -0.8234 C   0  0  0  0  0  0  0  0  0  0  0  0
    1.3151    1.9340    0.2536 H   0  0  0  0  0  0  0  0  0  0  0  0
    2.1210    1.8061   -1.3023 H   0  0  0  0  0  0  0  0  0  0  0  0
    0.5573    3.2831   -1.1645 C   0  0  0  0  0  0  0  0  0  0  0  0
   -0.2830    3.3787   -2.0432 O   0  0  0  0  0  0  0  0  0  0  0  0
    1.0164    4.3435   -0.4671 O   0  0  0  0  0  0  0  0  0  0  0  0
    0.5474    5.1096   -0.8313 H   0  0  0  0  0  0  0  0  0  0  0  0
    0.8193   -0.3749    1.0693 C   0  0  0  0  0  0  0  0  0  0  0  0
    2.0194   -0.4267    1.3054 O   0  0  0  0  0  0  0  0  0  0  0  0
   -0.0336    0.1232    2.0378 N   0  0  0  0  0  0  0  0  0  0  0  0
   -1.0255    0.0590    1.8344 H   0  0  0  0  0  0  0  0  0  0  0  0
    0.3878    0.3542    3.4139 C   0  0  0  0  0  0  0  0  0  0  0  0
    1.2091    1.0778    3.4473 H   0  0  0  0  0  0  0  0  0  0  0  0
   -0.4439    0.7513    4.0035 H   0  0  0  0  0  0  0  0  0  0  0  0
    0.7244   -0.5817    3.8724 H   0  0  0  0  0  0  0  0  0  0  0  0
  1  2  1  0  0  0  0
  2  3  1  0  0  0  0
  2  4  1  0  0  0  0
  2  5  1  0  0  0  0
  5  6  2  0  0  0  0
  5  7  1  0  0  0  0
  7  8  1  0  0  0  0
  7  9  1  0  0  0  0
  9 10  1  0  0  0  0
  9 11  1  0  0  0  0
  9 21  1  0  0  0  0
 11 12  1  0  0  0  0
 11 13  1  0  0  0  0
 11 14  1  0  0  0  0
 14 15  1  0  0  0  0
 14 16  1  0  0  0  0
 14 17  1  0  0  0  0
 17 18  2  0  0  0  0
 17 19  1  0  0  0  0
 19 20  1  0  0  0  0
 21 22  2  0  0  0  0
 21 23  1  0  0  0  0
 23 24  1  0  0  0  0
 23 25  1  0  0  0  0
 25 26  1  0  0  0  0
 25 27  1  0  0  0  0
 25 28  1  0  0  0  0
M  END
$$$$

  -OEChem-03222214033D

 28 27  0     1  0  0  0  0  0999 V2000
   -2.7410   -4.0349    0.3690 H   0  0  0  0  0  0  0  0  0  0  0  0
   -2.6658   -3.0700   -0.1405 C   0  0  0  0  0  0  0  0  0  0  0  0
   -3.4325   -2.4017    0.2585 H   0  0  0  0  0  0  0  0  0  0  0  0
   -2.8425   -3.2218   -1.2080 H   0  0  0  0  0  0  0  0  0  0  0  0
   -1.2889   -2.4717    0.0772 C   0  0  0  0  0  0  0  0  0  0  0  0
   -0.4531   -3.0888    0.7110 O   0  0  0  0  0  0  0  0  0  0  0  0
   -0.9931   -1.2279   -0.4465 N   0  0  0  0  0  0  0  0  0  0  0  0
   -1.7003   -0.8110   -1.0449 H   0  0  0  0  0  0  0  0  0  0  0  0
    0.3417   -0.5953   -0.3979 C   0  0  1  0  0  0  0  0  0  0  0  0
    1.0726   -1.2579   -0.8754 H   0  0  0  0  0  0  0  0  0  0  0  0
    0.2447    0.7089   -1.2394 C   0  0  0  0  0  0  0  0  0  0  0  0
    0.4169    0.4641   -2.2928 H   0  0  0  0  0  0  0  0  0  0  0  0
   -0.7914    1.0563   -1.1647 H   0  0  0  0  0  0  0  0  0  0  0  0
    1.1583    1.9087   -0.8501 C   0  0  0  0  0  0  0  0  0  0  0  0
    1.6055    1.7885    0.1365 H   0  0  0  0  0  0  0  0  0  0  0  0
    1.9878    1.9714   -1.5589 H   0  0  0  0  0  0  0  0  0  0  0  0
    0.4284    3.2518   -0.8352 C   0  0  0  0  0  0  0  0  0  0  0  0
   -0.3990    3.4880   -1.6990 O   0  0  0  0  0  0  0  0  0  0  0  0
    0.7392    4.1244    0.1467 O   0  0  0  0  0  0  0  0  0  0  0  0
    0.1904    4.9049   -0.0231 H   0  0  0  0  0  0  0  0  0  0  0  0
    0.8376   -0.3895    1.0549 C   0  0  0  0  0  0  0  0  0  0  0  0
    2.0318   -0.4770    1.3095 O   0  0  0  0  0  0  0  0  0  0  0  0
   -0.0203    0.1197    2.0130 N   0  0  0  0  0  0  0  0  0  0  0  0
   -1.0097    0.0922    1.7907 H   0  0  0  0  0  0  0  0  0  0  0  0
    0.3866    0.3686    3.3900 C   0  0  0  0  0  0  0  0  0  0  0  0
    1.2276    1.0695    3.4209 H   0  0  0  0  0  0  0  0  0  0  0  0
   -0.4424    0.8026    3.9571 H   0  0  0  0  0  0  0  0  0  0  0  0
    0.6888   -0.5660    3.8742 H   0  0  0  0  0  0  0  0  0  0  0  0
  1  2  1  0  0  0  0
  2  3  1  0  0  0  0
  2  4  1  0  0  0  0
  2  5  1  0  0  0  0
  5  6  2  0  0  0  0
  5  7  1  0  0  0  0
  7  8  1  0  0  0  0
  7  9  1  0  0  0  0
  9 10  1  0  0  0  0
  9 11  1  0  0  0  0
  9 21  1  0  0  0  0
 11 12  1  0  0  0  0
 11 13  1  0  0  0  0
 11 14  1  0  0  0  0
 14 15  1  0  0  0  0
 14 16  1  0  0  0  0
 14 17  1  0  0  0  0
 17 18  2  0  0  0  0
 17 19  1  0  0  0  0
 19 20  1  0  0  0  0
 21 22  2  0  0  0  0
 21 23  1  0  0  0  0
 23 24  1  0  0  0  0
 23 25  1  0  0  0  0
 25 26  1  0  0  0  0
 25 27  1  0  0  0  0
 25 28  1  0  0  0  0
M  END
$$$$

  -OEChem-03222214033D

 28 27  0     1  0  0  0  0  0999 V2000
   -2.7406   -4.0415    0.2656 H   0  0  0  0  0  0  0  0  0  0  0  0
   -2.6717   -3.0412   -0.1718 C   0  0  0  0  0  0  0  0  0  0  0  0
   -3.3519   -2.3761    0.3655 H   0  0  0  0  0  0  0  0  0  0  0  0
   -2.9747   -3.0945   -1.2201 H   0  0  0  0  0  0  0  0  0  0  0  0
   -1.2492   -2.5244   -0.0680 C   0  0  0  0  0  0  0  0  0  0  0  0
   -0.3802   -3.2306    0.4097 O   0  0  0  0  0  0  0  0  0  0  0  0
   -0.9441   -1.2594   -0.5315 N   0  0  0  0  0  0  0  0  0  0  0  0
   -1.7088   -0.7173   -0.9211 H   0  0  0  0  0  0  0  0  0  0  0  0
    0.3821   -0.6243   -0.3987 C   0  0  1  0  0  0  0  0  0  0  0  0
    1.1412   -1.2546   -0.8760 H   0  0  0  0  0  0  0  0  0  0  0  0
    0.2936    0.7203   -1.1704 C   0  0  0  0  0  0  0  0  0  0  0  0
    0.5572    0.5166   -2.2136 H   0  0  0  0  0  0  0  0  0  0  0  0
   -0.7484    1.0571   -1.1825 H   0  0  0  0  0  0  0  0  0  0  0  0
    1.1862    1.8897   -0.6655 C   0  0  0  0  0  0  0  0  0  0  0  0
    1.8487    1.6093    0.1537 H   0  0  0  0  0  0  0  0  0  0  0  0
    1.8397    2.1951   -1.4875 H   0  0  0  0  0  0  0  0  0  0  0  0
    0.3799    3.1148   -0.2388 C   0  0  0  0  0  0  0  0  0  0  0  0
   -0.6042    2.9547    0.4652 O   0  0  0  0  0  0  0  0  0  0  0  0
    0.7938    4.3254   -0.6695 O   0  0  0  0  0  0  0  0  0  0  0  0
    0.1714    4.9608   -0.2842 H   0  0  0  0  0  0  0  0  0  0  0  0
    0.8051   -0.4756    1.0854 C   0  0  0  0  0  0  0  0  0  0  0  0
    1.9776   -0.6271    1.4046 O   0  0  0  0  0  0  0  0  0  0  0  0
   -0.0938   -0.0077    2.0271 N   0  0  0  0  0  0  0  0  0  0  0  0
   -0.9993    0.2959    1.6829 H   0  0  0  0  0  0  0  0  0  0  0  0
    0.2895    0.3353    3.3904 C   0  0  0  0  0  0  0  0  0  0  0  0
    1.0075    1.1620    3.3894 H   0  0  0  0  0  0  0  0  0  0  0  0
   -0.5903    0.6395    3.9654 H   0  0  0  0  0  0  0  0  0  0  0  0
    0.7449   -0.5273    3.8883 H   0  0  0  0  0  0  0  0  0  0  0  0
  1  2  1  0  0  0  0
  2  3  1  0  0  0  0
  2  4  1  0  0  0  0
  2  5  1  0  0  0  0
  5  6  2  0  0  0  0
  5  7  1  0  0  0  0
  7  8  1  0  0  0  0
  7  9  1  0  0  0  0
  9 10  1  0  0  0  0
  9 11  1  0  0  0  0
  9 21  1  0  0  0  0
 11 12  1  0  0  0  0
 11 13  1  0  0  0  0
 11 14  1  0  0  0  0
 14 15  1  0  0  0  0
 14 16  1  0  0  0  0
 14 17  1  0  0  0  0
 17 18  2  0  0  0  0
 17 19  1  0  0  0  0
 19 20  1  0  0  0  0
 21 22  2  0  0  0  0
 21 23  1  0  0  0  0
 23 24  1  0  0  0  0
 23 25  1  0  0  0  0
 25 26  1  0  0  0  0
 25 27  1  0  0  0  0
 25 28  1  0  0  0  0
M  END
$$$$

  -OEChem-03222214033D

 28 27  0     1  0  0  0  0  0999 V2000
   -2.7195   -4.0632    0.3147 H   0  0  0  0  0  0  0  0  0  0  0  0
   -2.6666   -3.0629   -0.1246 C   0  0  0  0  0  0  0  0  0  0  0  0
   -3.3269   -2.3979    0.4371 H   0  0  0  0  0  0  0  0  0  0  0  0
   -3.0070   -3.1160   -1.1614 H   0  0  0  0  0  0  0  0  0  0  0  0
   -1.2413   -2.5460   -0.0726 C   0  0  0  0  0  0  0  0  0  0  0  0
   -0.3540   -3.2545    0.3668 O   0  0  0  0  0  0  0  0  0  0  0  0
   -0.9534   -1.2806   -0.5453 N   0  0  0  0  0  0  0  0  0  0  0  0
   -1.7391   -0.7243   -0.8671 H   0  0  0  0  0  0  0  0  0  0  0  0
    0.3655   -0.6321   -0.4143 C   0  0  1  0  0  0  0  0  0  0  0  0
    1.1278   -1.2651   -0.8835 H   0  0  0  0  0  0  0  0  0  0  0  0
    0.2742    0.6984   -1.2069 C   0  0  0  0  0  0  0  0  0  0  0  0
    0.5752    0.4733   -2.2354 H   0  0  0  0  0  0  0  0  0  0  0  0
   -0.7664    1.0345   -1.2641 H   0  0  0  0  0  0  0  0  0  0  0  0
    1.1605    1.8661   -0.6960 C   0  0  0  0  0  0  0  0  0  0  0  0
    1.9961    1.5197   -0.0843 H   0  0  0  0  0  0  0  0  0  0  0  0
    1.6059    2.3498   -1.5696 H   0  0  0  0  0  0  0  0  0  0  0  0
    0.3899    2.9557    0.0540 C   0  0  0  0  0  0  0  0  0  0  0  0
   -0.6689    2.6830    0.5984 O   0  0  0  0  0  0  0  0  0  0  0  0
    0.9319    4.1916    0.0727 O   0  0  0  0  0  0  0  0  0  0  0  0
    0.3214    4.7329    0.5961 H   0  0  0  0  0  0  0  0  0  0  0  0
    0.7957   -0.4643    1.0661 C   0  0  0  0  0  0  0  0  0  0  0  0
    1.9697   -0.6136    1.3804 O   0  0  0  0  0  0  0  0  0  0  0  0
   -0.0990    0.0035    2.0117 N   0  0  0  0  0  0  0  0  0  0  0  0
   -0.9738    0.3762    1.6535 H   0  0  0  0  0  0  0  0  0  0  0  0
    0.3015    0.3604    3.3662 C   0  0  0  0  0  0  0  0  0  0  0  0
    1.0117    1.1936    3.3486 H   0  0  0  0  0  0  0  0  0  0  0  0
   -0.5726    0.6604    3.9518 H   0  0  0  0  0  0  0  0  0  0  0  0
    0.7720   -0.4946    3.8635 H   0  0  0  0  0  0  0  0  0  0  0  0
  1  2  1  0  0  0  0
  2  3  1  0  0  0  0
  2  4  1  0  0  0  0
  2  5  1  0  0  0  0
  5  6  2  0  0  0  0
  5  7  1  0  0  0  0
  7  8  1  0  0  0  0
  7  9  1  0  0  0  0
  9 10  1  0  0  0  0
  9 11  1  0  0  0  0
  9 21  1  0  0  0  0
 11 12  1  0  0  0  0
 11 13  1  0  0  0  0
 11 14  1  0  0  0  0
 14 15  1  0  0  0  0
 14 16  1  0  0  0  0
 14 17  1  0  0  0  0
 17 18  2  0  0  0  0
 17 19  1  0  0  0  0
 19 20  1  0  0  0  0
 21 22  2  0  0  0  0
 21 23  1  0  0  0  0
 23 24  1  0  0  0  0
 23 25  1  0  0  0  0
 25 26  1  0  0  0  0
 25 27  1  0  0  0  0
 25 28  1  0  0  0  0
M  END
$$$$

  -OEChem-03222214033D

 28 27  0     1  0  0  0  0  0999 V2000
   -2.6910   -4.1003    0.3161 H   0  0  0  0  0  0  0  0  0  0  0  0
   -2.6569   -3.0951   -0.1140 C   0  0  0  0  0  0  0  0  0  0  0  0
   -3.3264   -2.4466    0.4558 H   0  0  0  0  0  0  0  0  0  0  0  0
   -2.9998   -3.1445   -1.1502 H   0  0  0  0  0  0  0  0  0  0  0  0
   -1.2406   -2.5544   -0.0622 C   0  0  0  0  0  0  0  0  0  0  0  0
   -0.3417   -3.2470    0.3796 O   0  0  0  0  0  0  0  0  0  0  0  0
   -0.9736   -1.2843   -0.5340 N   0  0  0  0  0  0  0  0  0  0  0  0
   -1.7685   -0.7368   -0.8488 H   0  0  0  0  0  0  0  0  0  0  0  0
    0.3370   -0.6197   -0.4099 C   0  0  1  0  0  0  0  0  0  0  0  0
    1.0976   -1.2610   -0.8706 H   0  0  0  0  0  0  0  0  0  0  0  0
    0.2602    0.6883   -1.2397 C   0  0  0  0  0  0  0  0  0  0  0  0
    0.5807    0.4375   -2.2562 H   0  0  0  0  0  0  0  0  0  0  0  0
   -0.7774    1.0283   -1.3221 H   0  0  0  0  0  0  0  0  0  0  0  0
    1.1393    1.8619   -0.7397 C   0  0  0  0  0  0  0  0  0  0  0  0
    2.0784    1.4925   -0.3181 H   0  0  0  0  0  0  0  0  0  0  0  0
    1.4043    2.4788   -1.6021 H   0  0  0  0  0  0  0  0  0  0  0  0
    0.4616    2.7956    0.2686 C   0  0  0  0  0  0  0  0  0  0  0  0
   -0.6916    2.5904    0.6160 O   0  0  0  0  0  0  0  0  0  0  0  0
    1.1912    3.8379    0.7180 O   0  0  0  0  0  0  0  0  0  0  0  0
    0.6153    4.3071    1.3402 H   0  0  0  0  0  0  0  0  0  0  0  0
    0.7880   -0.4433    1.0633 C   0  0  0  0  0  0  0  0  0  0  0  0
    1.9726   -0.5550    1.3519 O   0  0  0  0  0  0  0  0  0  0  0  0
   -0.0933    0.0129    2.0271 N   0  0  0  0  0  0  0  0  0  0  0  0
   -0.9873    0.3591    1.6893 H   0  0  0  0  0  0  0  0  0  0  0  0
    0.3281    0.3757    3.3740 C   0  0  0  0  0  0  0  0  0  0  0  0
    1.0214    1.2227    3.3433 H   0  0  0  0  0  0  0  0  0  0  0  0
   -0.5392    0.6570    3.9788 H   0  0  0  0  0  0  0  0  0  0  0  0
    0.8259   -0.4705    3.8596 H   0  0  0  0  0  0  0  0  0  0  0  0
  1  2  1  0  0  0  0
  2  3  1  0  0  0  0
  2  4  1  0  0  0  0
  2  5  1  0  0  0  0
  5  6  2  0  0  0  0
  5  7  1  0  0  0  0
  7  8  1  0  0  0  0
  7  9  1  0  0  0  0
  9 10  1  0  0  0  0
  9 11  1  0  0  0  0
  9 21  1  0  0  0  0
 11 12  1  0  0  0  0
 11 13  1  0  0  0  0
 11 14  1  0  0  0  0
 14 15  1  0  0  0  0
 14 16  1  0  0  0  0
 14 17  1  0  0  0  0
 17 18  2  0  0  0  0
 17 19  1  0  0  0  0
 19 20  1  0  0  0  0
 21 22  2  0  0  0  0
 21 23  1  0  0  0  0
 23 24  1  0  0  0  0
 23 25  1  0  0  0  0
 25 26  1  0  0  0  0
 25 27  1  0  0  0  0
 25 28  1  0  0  0  0
M  END
$$$$

  -OEChem-03222214033D

 28 27  0     1  0  0  0  0  0999 V2000
   -2.6776   -4.1242    0.2934 H   0  0  0  0  0  0  0  0  0  0  0  0
   -2.6535   -3.1135   -0.1243 C   0  0  0  0  0  0  0  0  0  0  0  0
   -3.3348   -2.4803    0.4490 H   0  0  0  0  0  0  0  0  0  0  0  0
   -2.9901   -3.1548   -1.1629 H   0  0  0  0  0  0  0  0  0  0  0  0
   -1.2442   -2.5558   -0.0573 C   0  0  0  0  0  0  0  0  0  0  0  0
   -0.3403   -3.2417    0.3846 O   0  0  0  0  0  0  0  0  0  0  0  0
   -0.9895   -1.2764   -0.5107 N   0  0  0  0  0  0  0  0  0  0  0  0
   -1.7873   -0.7362   -0.8312 H   0  0  0  0  0  0  0  0  0  0  0  0
    0.3161   -0.6020   -0.3859 C   0  0  1  0  0  0  0  0  0  0  0  0
    1.0701   -1.2564   -0.8392 H   0  0  0  0  0  0  0  0  0  0  0  0
    0.2697    0.6830   -1.2556 C   0  0  0  0  0  0  0  0  0  0  0  0
    0.5936    0.4044   -2.2637 H   0  0  0  0  0  0  0  0  0  0  0  0
   -0.7653    1.0294   -1.3455 H   0  0  0  0  0  0  0  0  0  0  0  0
    1.1345    1.8786   -0.7884 C   0  0  0  0  0  0  0  0  0  0  0  0
    2.1424    1.5257   -0.5493 H   0  0  0  0  0  0  0  0  0  0  0  0
    1.2272    2.5903   -1.6126 H   0  0  0  0  0  0  0  0  0  0  0  0
    0.5900    2.6514    0.4152 C   0  0  0  0  0  0  0  0  0  0  0  0
   -0.5992    2.5801    0.6860 O   0  0  0  0  0  0  0  0  0  0  0  0
    1.4594    3.4210    1.1023 O   0  0  0  0  0  0  0  0  0  0  0  0
    0.9409    3.8270    1.8124 H   0  0  0  0  0  0  0  0  0  0  0  0
    0.7894   -0.4369    1.0807 C   0  0  0  0  0  0  0  0  0  0  0  0
    1.9830   -0.5154    1.3402 O   0  0  0  0  0  0  0  0  0  0  0  0
   -0.0774   -0.0010    2.0667 N   0  0  0  0  0  0  0  0  0  0  0  0
   -0.9950    0.3070    1.7577 H   0  0  0  0  0  0  0  0  0  0  0  0
    0.3602    0.3450    3.4130 C   0  0  0  0  0  0  0  0  0  0  0  0
    1.0647    1.1826    3.3842 H   0  0  0  0  0  0  0  0  0  0  0  0
   -0.4982    0.6332    4.0269 H   0  0  0  0  0  0  0  0  0  0  0  0
    0.8505   -0.5118    3.8872 H   0  0  0  0  0  0  0  0  0  0  0  0
  1  2  1  0  0  0  0
  2  3  1  0  0  0  0
  2  4  1  0  0  0  0
  2  5  1  0  0  0  0
  5  6  2  0  0  0  0
  5  7  1  0  0  0  0
  7  8  1  0  0  0  0
  7  9  1  0  0  0  0
  9 10  1  0  0  0  0
  9 11  1  0  0  0  0
  9 21  1  0  0  0  0
 11 12  1  0  0  0  0
 11 13  1  0  0  0  0
 11 14  1  0  0  0  0
 14 15  1  0  0  0  0
 14 16  1  0  0  0  0
 14 17  1  0  0  0  0
 17 18  2  0  0  0  0
 17 19  1  0  0  0  0
 19 20  1  0  0  0  0
 21 22  2  0  0  0  0
 21 23  1  0  0  0  0
 23 24  1  0  0  0  0
 23 25  1  0  0  0  0
 25 26  1  0  0  0  0
 25 27  1  0  0  0  0
 25 28  1  0  0  0  0
M  END
$$$$

  -OEChem-03222214033D

 28 27  0     1  0  0  0  0  0999 V2000
   -2.6726   -4.1331    0.2662 H   0  0  0  0  0  0  0  0  0  0  0  0
   -2.6507   -3.1182   -0.1411 C   0  0  0  0  0  0  0  0  0  0  0  0
   -3.3381   -2.4940    0.4347 H   0  0  0  0  0  0  0  0  0  0  0  0
   -2.9811   -3.1505   -1.1821 H   0  0  0  0  0  0  0  0  0  0  0  0
   -1.2440   -2.5557   -0.0596 C   0  0  0  0  0  0  0  0  0  0  0  0
   -0.3389   -3.2452    0.3740 O   0  0  0  0  0  0  0  0  0  0  0  0
   -0.9934   -1.2669   -0.4884 N   0  0  0  0  0  0  0  0  0  0  0  0
   -1.7920   -0.7256   -0.8045 H   0  0  0  0  0  0  0  0  0  0  0  0
    0.3103   -0.5899   -0.3539 C   0  0  1  0  0  0  0  0  0  0  0  0
    1.0613   -1.2534   -0.7992 H   0  0  0  0  0  0  0  0  0  0  0  0
    0.2917    0.6760   -1.2577 C   0  0  0  0  0  0  0  0  0  0  0  0
    0.6038    0.3701   -2.2619 H   0  0  0  0  0  0  0  0  0  0  0  0
   -0.7433    1.0238   -1.3413 H   0  0  0  0  0  0  0  0  0  0  0  0
    1.1326    1.9097   -0.8480 C   0  0  0  0  0  0  0  0  0  0  0  0
    2.1845    1.6107   -0.8135 H   0  0  0  0  0  0  0  0  0  0  0  0
    1.0361    2.6818   -1.6155 H   0  0  0  0  0  0  0  0  0  0  0  0
    0.7907    2.5464    0.4968 C   0  0  0  0  0  0  0  0  0  0  0  0
   -0.3822    2.5974    0.8334 O   0  0  0  0  0  0  0  0  0  0  0  0
    1.7956    3.0818    1.2206 O   0  0  0  0  0  0  0  0  0  0  0  0
    1.3816    3.4270    2.0248 H   0  0  0  0  0  0  0  0  0  0  0  0
    0.7876   -0.4507    1.1137 C   0  0  0  0  0  0  0  0  0  0  0  0
    1.9822   -0.5338    1.3664 O   0  0  0  0  0  0  0  0  0  0  0  0
   -0.0748   -0.0382    2.1134 N   0  0  0  0  0  0  0  0  0  0  0  0
   -0.9974    0.2680    1.8196 H   0  0  0  0  0  0  0  0  0  0  0  0
    0.3609    0.2493    3.4738 C   0  0  0  0  0  0  0  0  0  0  0  0
    1.0966    1.0602    3.4787 H   0  0  0  0  0  0  0  0  0  0  0  0
   -0.4928    0.5504    4.0883 H   0  0  0  0  0  0  0  0  0  0  0  0
    0.8139   -0.6400    3.9248 H   0  0  0  0  0  0  0  0  0  0  0  0
  1  2  1  0  0  0  0
  2  3  1  0  0  0  0
  2  4  1  0  0  0  0
  2  5  1  0  0  0  0
  5  6  2  0  0  0  0
  5  7  1  0  0  0  0
  7  8  1  0  0  0  0
  7  9  1  0  0  0  0
  9 10  1  0  0  0  0
  9 11  1  0  0  0  0
  9 21  1  0  0  0  0
 11 12  1  0  0  0  0
 11 13  1  0  0  0  0
 11 14  1  0  0  0  0
 14 15  1  0  0  0  0
 14 16  1  0  0  0  0
 14 17  1  0  0  0  0
 17 18  2  0  0  0  0
 17 19  1  0  0  0  0
 19 20  1  0  0  0  0
 21 22  2  0  0  0  0
 21 23  1  0  0  0  0
 23 24  1  0  0  0  0
 23 25  1  0  0  0  0
 25 26  1  0  0  0  0
 25 27  1  0  0  0  0
 25 28  1  0  0  0  0
M  END
$$$$

  -OEChem-03222214033D

 28 27  0     1  0  0  0  0  0999 V2000
   -2.7389   -4.0958    0.1928 H   0  0  0  0  0  0  0  0  0  0  0  0
   -2.6864   -3.0735   -0.1931 C   0  0  0  0  0  0  0  0  0  0  0  0
   -3.3714   -2.4456    0.3816 H   0  0  0  0  0  0  0  0  0  0  0  0
   -2.9955   -3.0772   -1.2411 H   0  0  0  0  0  0  0  0  0  0  0  0
   -1.2703   -2.5433   -0.0726 C   0  0  0  0  0  0  0  0  0  0  0  0
   -0.3908   -3.2564    0.3749 O   0  0  0  0  0  0  0  0  0  0  0  0
   -0.9833   -1.2576   -0.4884 N   0  0  0  0  0  0  0  0  0  0  0  0
   -1.7633   -0.7015   -0.8241 H   0  0  0  0  0  0  0  0  0  0  0  0
    0.3314   -0.6069   -0.3242 C   0  0  1  0  0  0  0  0  0  0  0  0
    1.0814   -1.2833   -0.7519 H   0  0  0  0  0  0  0  0  0  0  0  0
    0.3500    0.6549   -1.2395 C   0  0  0  0  0  0  0  0  0  0  0  0
    0.6416    0.3328   -2.2447 H   0  0  0  0  0  0  0  0  0  0  0  0
   -0.6822    1.0132   -1.3108 H   0  0  0  0  0  0  0  0  0  0  0  0
    1.1820    1.9131   -0.8791 C   0  0  0  0  0  0  0  0  0  0  0  0
    2.2317    1.6807   -1.0810 H   0  0  0  0  0  0  0  0  0  0  0  0
    0.8983    2.7329   -1.5440 H   0  0  0  0  0  0  0  0  0  0  0  0
    1.1173    2.4289    0.5527 C   0  0  0  0  0  0  0  0  0  0  0  0
    0.0138    2.6493    1.0252 O   0  0  0  0  0  0  0  0  0  0  0  0
    2.2731    2.6797    1.2025 O   0  0  0  0  0  0  0  0  0  0  0  0
    2.0178    2.9569    2.0941 H   0  0  0  0  0  0  0  0  0  0  0  0
    0.7645   -0.4937    1.1593 C   0  0  0  0  0  0  0  0  0  0  0  0
    1.9436   -0.6317    1.4563 O   0  0  0  0  0  0  0  0  0  0  0  0
   -0.1225   -0.0739    2.1345 N   0  0  0  0  0  0  0  0  0  0  0  0
   -1.0256    0.2618    1.8155 H   0  0  0  0  0  0  0  0  0  0  0  0
    0.2722    0.1803    3.5138 C   0  0  0  0  0  0  0  0  0  0  0  0
    1.0154    0.9828    3.5582 H   0  0  0  0  0  0  0  0  0  0  0  0
   -0.5972    0.4790    4.1069 H   0  0  0  0  0  0  0  0  0  0  0  0
    0.7010   -0.7228    3.9610 H   0  0  0  0  0  0  0  0  0  0  0  0
  1  2  1  0  0  0  0
  2  3  1  0  0  0  0
  2  4  1  0  0  0  0
  2  5  1  0  0  0  0
  5  6  2  0  0  0  0
  5  7  1  0  0  0  0
  7  8  1  0  0  0  0
  7  9  1  0  0  0  0
  9 10  1  0  0  0  0
  9 11  1  0  0  0  0
  9 21  1  0  0  0  0
 11 12  1  0  0  0  0
 11 13  1  0  0  0  0
 11 14  1  0  0  0  0
 14 15  1  0  0  0  0
 14 16  1  0  0  0  0
 14 17  1  0  0  0  0
 17 18  2  0  0  0  0
 17 19  1  0  0  0  0
 19 20  1  0  0  0  0
 21 22  2  0  0  0  0
 21 23  1  0  0  0  0
 23 24  1  0  0  0  0
 23 25  1  0  0  0  0
 25 26  1  0  0  0  0
 25 27  1  0  0  0  0
 25 28  1  0  0  0  0
M  END
$$$$

  -OEChem-03222214033D

 28 27  0     1  0  0  0  0  0999 V2000
   -2.8260   -4.0172    0.2362 H   0  0  0  0  0  0  0  0  0  0  0  0
   -2.7383   -3.0097   -0.1804 C   0  0  0  0  0  0  0  0  0  0  0  0
   -3.4116   -2.3449    0.3660 H   0  0  0  0  0  0  0  0  0  0  0  0
   -3.0349   -3.0370   -1.2316 H   0  0  0  0  0  0  0  0  0  0  0  0
   -1.3084   -2.5182   -0.0569 C   0  0  0  0  0  0  0  0  0  0  0  0
   -0.4534   -3.2516    0.4042 O   0  0  0  0  0  0  0  0  0  0  0  0
   -0.9823   -1.2448   -0.4831 N   0  0  0  0  0  0  0  0  0  0  0  0
   -1.7386   -0.6816   -0.8585 H   0  0  0  0  0  0  0  0  0  0  0  0
    0.3515   -0.6292   -0.3226 C   0  0  1  0  0  0  0  0  0  0  0  0
    1.0945   -1.3117   -0.7523 H   0  0  0  0  0  0  0  0  0  0  0  0
    0.3707    0.6477   -1.2217 C   0  0  0  0  0  0  0  0  0  0  0  0
    0.6119    0.3304   -2.2416 H   0  0  0  0  0  0  0  0  0  0  0  0
   -0.6593    1.0185   -1.2452 H   0  0  0  0  0  0  0  0  0  0  0  0
    1.2149    1.9146   -0.9036 C   0  0  0  0  0  0  0  0  0  0  0  0
    2.1890    1.7775   -1.3821 H   0  0  0  0  0  0  0  0  0  0  0  0
    0.7476    2.7810   -1.3792 H   0  0  0  0  0  0  0  0  0  0  0  0
    1.5104    2.2821    0.5430 C   0  0  0  0  0  0  0  0  0  0  0  0
    0.5781    2.6642    1.2299 O   0  0  0  0  0  0  0  0  0  0  0  0
    2.7876    2.2258    0.9742 O   0  0  0  0  0  0  0  0  0  0  0  0
    2.7512    2.4014    1.9260 H   0  0  0  0  0  0  0  0  0  0  0  0
    0.7513   -0.5317    1.1718 C   0  0  0  0  0  0  0  0  0  0  0  0
    1.9093   -0.7377    1.5096 O   0  0  0  0  0  0  0  0  0  0  0  0
   -0.1514   -0.0860    2.1209 N   0  0  0  0  0  0  0  0  0  0  0  0
   -1.0463    0.2496    1.7825 H   0  0  0  0  0  0  0  0  0  0  0  0
    0.2010    0.1361    3.5171 C   0  0  0  0  0  0  0  0  0  0  0  0
    0.9678    0.9131    3.6002 H   0  0  0  0  0  0  0  0  0  0  0  0
   -0.6794    0.4559    4.0825 H   0  0  0  0  0  0  0  0  0  0  0  0
    0.5831   -0.7866    3.9664 H   0  0  0  0  0  0  0  0  0  0  0  0
  1  2  1  0  0  0  0
  2  3  1  0  0  0  0
  2  4  1  0  0  0  0
  2  5  1  0  0  0  0
  5  6  2  0  0  0  0
  5  7  1  0  0  0  0
  7  8  1  0  0  0  0
  7  9  1  0  0  0  0
  9 10  1  0  0  0  0
  9 11  1  0  0  0  0
  9 21  1  0  0  0  0
 11 12  1  0  0  0  0
 11 13  1  0  0  0  0
 11 14  1  0  0  0  0
 14 15  1  0  0  0  0
 14 16  1  0  0  0  0
 14 17  1  0  0  0  0
 17 18  2  0  0  0  0
 17 19  1  0  0  0  0
 19 20  1  0  0  0  0
 21 22  2  0  0  0  0
 21 23  1  0  0  0  0
 23 24  1  0  0  0  0
 23 25  1  0  0  0  0
 25 26  1  0  0  0  0
 25 27  1  0  0  0  0
 25 28  1  0  0  0  0
M  END
$$$$

  -OEChem-03222214033D

 28 27  0     1  0  0  0  0  0999 V2000
   -3.0071   -3.8541    0.2161 H   0  0  0  0  0  0  0  0  0  0  0  0
   -2.8766   -2.8462   -0.1882 C   0  0  0  0  0  0  0  0  0  0  0  0
   -3.5196   -2.1600    0.3679 H   0  0  0  0  0  0  0  0  0  0  0  0
   -3.1759   -2.8477   -1.2390 H   0  0  0  0  0  0  0  0  0  0  0  0
   -1.4266   -2.4187   -0.0627 C   0  0  0  0  0  0  0  0  0  0  0  0
   -0.6002   -3.2016    0.3671 O   0  0  0  0  0  0  0  0  0  0  0  0
   -1.0497   -1.1517   -0.4664 N   0  0  0  0  0  0  0  0  0  0  0  0
   -1.7802   -0.5598   -0.8481 H   0  0  0  0  0  0  0  0  0  0  0  0
    0.3221   -0.6098   -0.3572 C   0  0  1  0  0  0  0  0  0  0  0  0
    1.0181   -1.2916   -0.8602 H   0  0  0  0  0  0  0  0  0  0  0  0
    0.3163    0.7266   -1.1701 C   0  0  0  0  0  0  0  0  0  0  0  0
    0.4658    0.4651   -2.2231 H   0  0  0  0  0  0  0  0  0  0  0  0
   -0.6998    1.1275   -1.0922 H   0  0  0  0  0  0  0  0  0  0  0  0
    1.2223    1.9546   -0.8549 C   0  0  0  0  0  0  0  0  0  0  0  0
    2.0093    1.9779   -1.6140 H   0  0  0  0  0  0  0  0  0  0  0  0
    0.6348    2.8677   -0.9866 H   0  0  0  0  0  0  0  0  0  0  0  0
    1.9377    2.0574    0.4830 C   0  0  0  0  0  0  0  0  0  0  0  0
    1.3254    2.5295    1.4251 O   0  0  0  0  0  0  0  0  0  0  0  0
    3.2247    1.6574    0.5449 O   0  0  0  0  0  0  0  0  0  0  0  0
    3.4493    1.6513    1.4881 H   0  0  0  0  0  0  0  0  0  0  0  0
    0.7760   -0.5906    1.1261 C   0  0  0  0  0  0  0  0  0  0  0  0
    1.9206   -0.9040    1.4271 O   0  0  0  0  0  0  0  0  0  0  0  0
   -0.0751   -0.1319    2.1159 N   0  0  0  0  0  0  0  0  0  0  0  0
   -0.9862    0.2041    1.8267 H   0  0  0  0  0  0  0  0  0  0  0  0
    0.3144   -0.0093    3.5146 C   0  0  0  0  0  0  0  0  0  0  0  0
    1.1360    0.7064    3.6226 H   0  0  0  0  0  0  0  0  0  0  0  0
   -0.5312    0.3420    4.1135 H   0  0  0  0  0  0  0  0  0  0  0  0
    0.6368   -0.9794    3.9075 H   0  0  0  0  0  0  0  0  0  0  0  0
  1  2  1  0  0  0  0
  2  3  1  0  0  0  0
  2  4  1  0  0  0  0
  2  5  1  0  0  0  0
  5  6  2  0  0  0  0
  5  7  1  0  0  0  0
  7  8  1  0  0  0  0
  7  9  1  0  0  0  0
  9 10  1  0  0  0  0
  9 11  1  0  0  0  0
  9 21  1  0  0  0  0
 11 12  1  0  0  0  0
 11 13  1  0  0  0  0
 11 14  1  0  0  0  0
 14 15  1  0  0  0  0
 14 16  1  0  0  0  0
 14 17  1  0  0  0  0
 17 18  2  0  0  0  0
 17 19  1  0  0  0  0
 19 20  1  0  0  0  0
 21 22  2  0  0  0  0
 21 23  1  0  0  0  0
 23 24  1  0  0  0  0
 23 25  1  0  0  0  0
 25 26  1  0  0  0  0
 25 27  1  0  0  0  0
 25 28  1  0  0  0  0
M  END
$$$$

  -OEChem-03222214033D

 28 27  0     1  0  0  0  0  0999 V2000
   -2.5887   -4.1693    0.3478 H   0  0  0  0  0  0  0  0  0  0  0  0
   -2.5591   -3.1666   -0.0886 C   0  0  0  0  0  0  0  0  0  0  0  0
   -3.2965   -2.5411    0.4199 H   0  0  0  0  0  0  0  0  0  0  0  0
   -2.8167   -3.2374   -1.1480 H   0  0  0  0  0  0  0  0  0  0  0  0
   -1.1730   -2.5706    0.0701 C   0  0  0  0  0  0  0  0  0  0  0  0
   -0.2940   -3.2210    0.6035 O   0  0  0  0  0  0  0  0  0  0  0  0
   -0.9138   -1.3033   -0.4175 N   0  0  0  0  0  0  0  0  0  0  0  0
   -1.6696   -0.8474   -0.9181 H   0  0  0  0  0  0  0  0  0  0  0  0
    0.3971   -0.6215   -0.3345 C   0  0  1  0  0  0  0  0  0  0  0  0
    1.1699   -1.2438   -0.8008 H   0  0  0  0  0  0  0  0  0  0  0  0
    0.2317    0.6755   -1.1949 C   0  0  0  0  0  0  0  0  0  0  0  0
    0.4336    0.3857   -2.2316 H   0  0  0  0  0  0  0  0  0  0  0  0
   -0.8251    0.9600   -1.1542 H   0  0  0  0  0  0  0  0  0  0  0  0
    1.0006    2.0064   -0.9303 C   0  0  0  0  0  0  0  0  0  0  0  0
    1.5651    2.2536   -1.8335 H   0  0  0  0  0  0  0  0  0  0  0  0
    0.2675    2.8064   -0.7901 H   0  0  0  0  0  0  0  0  0  0  0  0
    1.9845    2.0902    0.2262 C   0  0  0  0  0  0  0  0  0  0  0  0
    1.6229    2.6322    1.2563 O   0  0  0  0  0  0  0  0  0  0  0  0
    3.2155    1.5714    0.0385 O   0  0  0  0  0  0  0  0  0  0  0  0
    3.6137    1.5374    0.9232 H   0  0  0  0  0  0  0  0  0  0  0  0
    0.8201   -0.4576    1.1497 C   0  0  0  0  0  0  0  0  0  0  0  0
    1.9767   -0.6683    1.4937 O   0  0  0  0  0  0  0  0  0  0  0  0
   -0.0924   -0.0180    2.0919 N   0  0  0  0  0  0  0  0  0  0  0  0
   -1.0426    0.1445    1.7800 H   0  0  0  0  0  0  0  0  0  0  0  0
    0.2494    0.2160    3.4889 C   0  0  0  0  0  0  0  0  0  0  0  0
    1.0272    0.9828    3.5696 H   0  0  0  0  0  0  0  0  0  0  0  0
   -0.6306    0.5580    4.0416 H   0  0  0  0  0  0  0  0  0  0  0  0
    0.6135   -0.7067    3.9529 H   0  0  0  0  0  0  0  0  0  0  0  0
  1  2  1  0  0  0  0
  2  3  1  0  0  0  0
  2  4  1  0  0  0  0
  2  5  1  0  0  0  0
  5  6  2  0  0  0  0
  5  7  1  0  0  0  0
  7  8  1  0  0  0  0
  7  9  1  0  0  0  0
  9 10  1  0  0  0  0
  9 11  1  0  0  0  0
  9 21  1  0  0  0  0
 11 12  1  0  0  0  0
 11 13  1  0  0  0  0
 11 14  1  0  0  0  0
 14 15  1  0  0  0  0
 14 16  1  0  0  0  0
 14 17  1  0  0  0  0
 17 18  2  0  0  0  0
 17 19  1  0  0  0  0
 19 20  1  0  0  0  0
 21 22  2  0  0  0  0
 21 23  1  0  0  0  0
 23 24  1  0  0  0  0
 23 25  1  0  0  0  0
 25 26  1  0  0  0  0
 25 27  1  0  0  0  0
 25 28  1  0  0  0  0
M  END
$$$$

  -OEChem-03222214033D

 28 27  0     1  0  0  0  0  0999 V2000
   -2.7531   -4.0273    0.5654 H   0  0  0  0  0  0  0  0  0  0  0  0
   -2.6733   -3.0617    0.0573 C   0  0  0  0  0  0  0  0  0  0  0  0
   -3.4042   -2.3753    0.4911 H   0  0  0  0  0  0  0  0  0  0  0  0
   -2.8986   -3.2043   -1.0023 H   0  0  0  0  0  0  0  0  0  0  0  0
   -1.2726   -2.5018    0.2208 C   0  0  0  0  0  0  0  0  0  0  0  0
   -0.4482   -3.1237    0.8634 O   0  0  0  0  0  0  0  0  0  0  0  0
   -0.9465   -1.2972   -0.3751 N   0  0  0  0  0  0  0  0  0  0  0  0
   -1.6510   -0.9000   -0.9884 H   0  0  0  0  0  0  0  0  0  0  0  0
    0.4075   -0.6969   -0.3847 C   0  0  1  0  0  0  0  0  0  0  0  0
    1.1329   -1.3803   -0.8415 H   0  0  0  0  0  0  0  0  0  0  0  0
    0.2622    0.5764   -1.2797 C   0  0  0  0  0  0  0  0  0  0  0  0
    0.4233    0.2366   -2.3084 H   0  0  0  0  0  0  0  0  0  0  0  0
   -0.7749    0.9244   -1.2246 H   0  0  0  0  0  0  0  0  0  0  0  0
    1.1319    1.8533   -1.0870 C   0  0  0  0  0  0  0  0  0  0  0  0
    1.4197    2.2365   -2.0702 H   0  0  0  0  0  0  0  0  0  0  0  0
    0.5063    2.6186   -0.6194 H   0  0  0  0  0  0  0  0  0  0  0  0
    2.3924    1.7595   -0.2390 C   0  0  0  0  0  0  0  0  0  0  0  0
    3.3673    1.2333   -0.7428 O   0  0  0  0  0  0  0  0  0  0  0  0
    2.3825    2.2870    1.0034 O   0  0  0  0  0  0  0  0  0  0  0  0
    3.2199    1.9886    1.3943 H   0  0  0  0  0  0  0  0  0  0  0  0
    0.8745   -0.4485    1.0755 C   0  0  0  0  0  0  0  0  0  0  0  0
    2.0181   -0.7084    1.4262 O   0  0  0  0  0  0  0  0  0  0  0  0
    0.0066    0.1199    1.9915 N   0  0  0  0  0  0  0  0  0  0  0  0
   -0.9650    0.1869    1.7105 H   0  0  0  0  0  0  0  0  0  0  0  0
    0.3489    0.3048    3.3956 C   0  0  0  0  0  0  0  0  0  0  0  0
    1.2308    0.9467    3.4932 H   0  0  0  0  0  0  0  0  0  0  0  0
   -0.4811    0.7778    3.9288 H   0  0  0  0  0  0  0  0  0  0  0  0
    0.5612   -0.6605    3.8673 H   0  0  0  0  0  0  0  0  0  0  0  0
  1  2  1  0  0  0  0
  2  3  1  0  0  0  0
  2  4  1  0  0  0  0
  2  5  1  0  0  0  0
  5  6  2  0  0  0  0
  5  7  1  0  0  0  0
  7  8  1  0  0  0  0
  7  9  1  0  0  0  0
  9 10  1  0  0  0  0
  9 11  1  0  0  0  0
  9 21  1  0  0  0  0
 11 12  1  0  0  0  0
 11 13  1  0  0  0  0
 11 14  1  0  0  0  0
 14 15  1  0  0  0  0
 14 16  1  0  0  0  0
 14 17  1  0  0  0  0
 17 18  2  0  0  0  0
 17 19  1  0  0  0  0
 19 20  1  0  0  0  0
 21 22  2  0  0  0  0
 21 23  1  0  0  0  0
 23 24  1  0  0  0  0
 23 25  1  0  0  0  0
 25 26  1  0  0  0  0
 25 27  1  0  0  0  0
 25 28  1  0  0  0  0
M  END
$$$$

  -OEChem-03222214033D

 28 27  0     1  0  0  0  0  0999 V2000
   -2.7858   -3.9962    0.4507 H   0  0  0  0  0  0  0  0  0  0  0  0
   -2.6941   -3.0254   -0.0449 C   0  0  0  0  0  0  0  0  0  0  0  0
   -3.4464   -2.3483    0.3666 H   0  0  0  0  0  0  0  0  0  0  0  0
   -2.8775   -3.1596   -1.1136 H   0  0  0  0  0  0  0  0  0  0  0  0
   -1.3054   -2.4560    0.1769 C   0  0  0  0  0  0  0  0  0  0  0  0
   -0.5097   -3.0636    0.8674 O   0  0  0  0  0  0  0  0  0  0  0  0
   -0.9611   -1.2550   -0.4155 N   0  0  0  0  0  0  0  0  0  0  0  0
   -1.6354   -0.8800   -1.0750 H   0  0  0  0  0  0  0  0  0  0  0  0
    0.3971   -0.6659   -0.4027 C   0  0  1  0  0  0  0  0  0  0  0  0
    1.1240   -1.3489   -0.8580 H   0  0  0  0  0  0  0  0  0  0  0  0
    0.2719    0.6213   -1.2767 C   0  0  0  0  0  0  0  0  0  0  0  0
    0.4540    0.3055   -2.3096 H   0  0  0  0  0  0  0  0  0  0  0  0
   -0.7588    0.9885   -1.2334 H   0  0  0  0  0  0  0  0  0  0  0  0
    1.1730    1.8570   -1.0114 C   0  0  0  0  0  0  0  0  0  0  0  0
    1.2868    2.4305   -1.9351 H   0  0  0  0  0  0  0  0  0  0  0  0
    0.6620    2.5019   -0.2909 H   0  0  0  0  0  0  0  0  0  0  0  0
    2.5600    1.5820   -0.4451 C   0  0  0  0  0  0  0  0  0  0  0  0
    3.3062    0.8755   -1.0987 O   0  0  0  0  0  0  0  0  0  0  0  0
    2.8973    2.1411    0.7361 O   0  0  0  0  0  0  0  0  0  0  0  0
    3.7346    1.7124    0.9756 H   0  0  0  0  0  0  0  0  0  0  0  0
    0.8576   -0.4123    1.0595 C   0  0  0  0  0  0  0  0  0  0  0  0
    1.9971   -0.6796    1.4187 O   0  0  0  0  0  0  0  0  0  0  0  0
   -0.0111    0.1689    1.9664 N   0  0  0  0  0  0  0  0  0  0  0  0
   -0.9845    0.2121    1.6862 H   0  0  0  0  0  0  0  0  0  0  0  0
    0.3217    0.3365    3.3754 C   0  0  0  0  0  0  0  0  0  0  0  0
    1.2151    0.9603    3.4860 H   0  0  0  0  0  0  0  0  0  0  0  0
   -0.5041    0.8213    3.9046 H   0  0  0  0  0  0  0  0  0  0  0  0
    0.5110   -0.6364    3.8415 H   0  0  0  0  0  0  0  0  0  0  0  0
  1  2  1  0  0  0  0
  2  3  1  0  0  0  0
  2  4  1  0  0  0  0
  2  5  1  0  0  0  0
  5  6  2  0  0  0  0
  5  7  1  0  0  0  0
  7  8  1  0  0  0  0
  7  9  1  0  0  0  0
  9 10  1  0  0  0  0
  9 11  1  0  0  0  0
  9 21  1  0  0  0  0
 11 12  1  0  0  0  0
 11 13  1  0  0  0  0
 11 14  1  0  0  0  0
 14 15  1  0  0  0  0
 14 16  1  0  0  0  0
 14 17  1  0  0  0  0
 17 18  2  0  0  0  0
 17 19  1  0  0  0  0
 19 20  1  0  0  0  0
 21 22  2  0  0  0  0
 21 23  1  0  0  0  0
 23 24  1  0  0  0  0
 23 25  1  0  0  0  0
 25 26  1  0  0  0  0
 25 27  1  0  0  0  0
 25 28  1  0  0  0  0
M  END
$$$$

  -OEChem-03222214033D

 28 27  0     1  0  0  0  0  0999 V2000
   -2.7032   -4.0611    0.4099 H   0  0  0  0  0  0  0  0  0  0  0  0
   -2.6436   -3.0882   -0.0864 C   0  0  0  0  0  0  0  0  0  0  0  0
   -3.4310   -2.4429    0.3099 H   0  0  0  0  0  0  0  0  0  0  0  0
   -2.8018   -3.2315   -1.1579 H   0  0  0  0  0  0  0  0  0  0  0  0
   -1.2844   -2.4610    0.1591 C   0  0  0  0  0  0  0  0  0  0  0  0
   -0.4787   -3.0310    0.8702 O   0  0  0  0  0  0  0  0  0  0  0  0
   -0.9775   -1.2492   -0.4314 N   0  0  0  0  0  0  0  0  0  0  0  0
   -1.6500   -0.9089   -1.1114 H   0  0  0  0  0  0  0  0  0  0  0  0
    0.3655   -0.6287   -0.4206 C   0  0  1  0  0  0  0  0  0  0  0  0
    1.1015   -1.2957   -0.8857 H   0  0  0  0  0  0  0  0  0  0  0  0
    0.2263    0.6654   -1.2754 C   0  0  0  0  0  0  0  0  0  0  0  0
    0.4058    0.3831   -2.3185 H   0  0  0  0  0  0  0  0  0  0  0  0
   -0.8036    1.0318   -1.2128 H   0  0  0  0  0  0  0  0  0  0  0  0
    1.1376    1.8730   -0.9439 C   0  0  0  0  0  0  0  0  0  0  0  0
    1.0814    2.6076   -1.7510 H   0  0  0  0  0  0  0  0  0  0  0  0
    0.7665    2.3554   -0.0351 H   0  0  0  0  0  0  0  0  0  0  0  0
    2.6061    1.5269   -0.7118 C   0  0  0  0  0  0  0  0  0  0  0  0
    3.1419    0.7464   -1.4794 O   0  0  0  0  0  0  0  0  0  0  0  0
    3.2451    2.1230    0.3162 O   0  0  0  0  0  0  0  0  0  0  0  0
    4.1011    1.6697    0.3673 H   0  0  0  0  0  0  0  0  0  0  0  0
    0.8441   -0.3624    1.0330 C   0  0  0  0  0  0  0  0  0  0  0  0
    2.0083   -0.5534    1.3581 O   0  0  0  0  0  0  0  0  0  0  0  0
   -0.0240    0.1994    1.9528 N   0  0  0  0  0  0  0  0  0  0  0  0
   -1.0065    0.1846    1.7015 H   0  0  0  0  0  0  0  0  0  0  0  0
    0.3386    0.4021    3.3499 C   0  0  0  0  0  0  0  0  0  0  0  0
    1.2175    1.0511    3.4273 H   0  0  0  0  0  0  0  0  0  0  0  0
   -0.4863    0.8747    3.8913 H   0  0  0  0  0  0  0  0  0  0  0  0
    0.5658   -0.5566    3.8283 H   0  0  0  0  0  0  0  0  0  0  0  0
  1  2  1  0  0  0  0
  2  3  1  0  0  0  0
  2  4  1  0  0  0  0
  2  5  1  0  0  0  0
  5  6  2  0  0  0  0
  5  7  1  0  0  0  0
  7  8  1  0  0  0  0
  7  9  1  0  0  0  0
  9 10  1  0  0  0  0
  9 11  1  0  0  0  0
  9 21  1  0  0  0  0
 11 12  1  0  0  0  0
 11 13  1  0  0  0  0
 11 14  1  0  0  0  0
 14 15  1  0  0  0  0
 14 16  1  0  0  0  0
 14 17  1  0  0  0  0
 17 18  2  0  0  0  0
 17 19  1  0  0  0  0
 19 20  1  0  0  0  0
 21 22  2  0  0  0  0
 21 23  1  0  0  0  0
 23 24  1  0  0  0  0
 23 25  1  0  0  0  0
 25 26  1  0  0  0  0
 25 27  1  0  0  0  0
 25 28  1  0  0  0  0
M  END
$$$$

  -OEChem-03222214033D

 28 27  0     1  0  0  0  0  0999 V2000
   -2.6565   -4.1091    0.3651 H   0  0  0  0  0  0  0  0  0  0  0  0
   -2.6197   -3.1307   -0.1227 C   0  0  0  0  0  0  0  0  0  0  0  0
   -3.4244   -2.5085    0.2760 H   0  0  0  0  0  0  0  0  0  0  0  0
   -2.7705   -3.2688   -1.1960 H   0  0  0  0  0  0  0  0  0  0  0  0
   -1.2775   -2.4718    0.1332 C   0  0  0  0  0  0  0  0  0  0  0  0
   -0.4612   -3.0235    0.8471 O   0  0  0  0  0  0  0  0  0  0  0  0
   -0.9999   -1.2457   -0.4412 N   0  0  0  0  0  0  0  0  0  0  0  0
   -1.6784   -0.9132   -1.1193 H   0  0  0  0  0  0  0  0  0  0  0  0
    0.3301   -0.6001   -0.4254 C   0  0  1  0  0  0  0  0  0  0  0  0
    1.0693   -1.2593   -0.8958 H   0  0  0  0  0  0  0  0  0  0  0  0
    0.1998    0.6937   -1.2768 C   0  0  0  0  0  0  0  0  0  0  0  0
    0.3721    0.4324   -2.3267 H   0  0  0  0  0  0  0  0  0  0  0  0
   -0.8275    1.0649   -1.2010 H   0  0  0  0  0  0  0  0  0  0  0  0
    1.1193    1.8784   -0.8931 C   0  0  0  0  0  0  0  0  0  0  0  0
    0.9184    2.7201   -1.5602 H   0  0  0  0  0  0  0  0  0  0  0  0
    0.8979    2.2115    0.1245 H   0  0  0  0  0  0  0  0  0  0  0  0
    2.6120    1.5600   -0.9834 C   0  0  0  0  0  0  0  0  0  0  0  0
    2.9959    0.7605   -1.8205 O   0  0  0  0  0  0  0  0  0  0  0  0
    3.4429    2.2209   -0.1506 O   0  0  0  0  0  0  0  0  0  0  0  0
    4.3122    1.8188   -0.2995 H   0  0  0  0  0  0  0  0  0  0  0  0
    0.8278   -0.3374    1.0204 C   0  0  0  0  0  0  0  0  0  0  0  0
    2.0173   -0.4225    1.2943 O   0  0  0  0  0  0  0  0  0  0  0  0
   -0.0372    0.1986    1.9581 N   0  0  0  0  0  0  0  0  0  0  0  0
   -1.0252    0.1186    1.7421 H   0  0  0  0  0  0  0  0  0  0  0  0
    0.3588    0.4428    3.3395 C   0  0  0  0  0  0  0  0  0  0  0  0
    1.2030    1.1394    3.3792 H   0  0  0  0  0  0  0  0  0  0  0  0
   -0.4729    0.8790    3.9009 H   0  0  0  0  0  0  0  0  0  0  0  0
    0.6531   -0.4943    3.8240 H   0  0  0  0  0  0  0  0  0  0  0  0
  1  2  1  0  0  0  0
  2  3  1  0  0  0  0
  2  4  1  0  0  0  0
  2  5  1  0  0  0  0
  5  6  2  0  0  0  0
  5  7  1  0  0  0  0
  7  8  1  0  0  0  0
  7  9  1  0  0  0  0
  9 10  1  0  0  0  0
  9 11  1  0  0  0  0
  9 21  1  0  0  0  0
 11 12  1  0  0  0  0
 11 13  1  0  0  0  0
 11 14  1  0  0  0  0
 14 15  1  0  0  0  0
 14 16  1  0  0  0  0
 14 17  1  0  0  0  0
 17 18  2  0  0  0  0
 17 19  1  0  0  0  0
 19 20  1  0  0  0  0
 21 22  2  0  0  0  0
 21 23  1  0  0  0  0
 23 24  1  0  0  0  0
 23 25  1  0  0  0  0
 25 26  1  0  0  0  0
 25 27  1  0  0  0  0
 25 28  1  0  0  0  0
M  END
$$$$

  -OEChem-03222214033D

 28 27  0     1  0  0  0  0  0999 V2000
   -2.6409   -4.1367    0.3209 H   0  0  0  0  0  0  0  0  0  0  0  0
   -2.6157   -3.1523   -0.1554 C   0  0  0  0  0  0  0  0  0  0  0  0
   -3.4317   -2.5466    0.2457 H   0  0  0  0  0  0  0  0  0  0  0  0
   -2.7584   -3.2799   -1.2312 H   0  0  0  0  0  0  0  0  0  0  0  0
   -1.2848   -2.4765    0.1154 C   0  0  0  0  0  0  0  0  0  0  0  0
   -0.4635   -3.0237    0.8274 O   0  0  0  0  0  0  0  0  0  0  0  0
   -1.0218   -1.2390   -0.4412 N   0  0  0  0  0  0  0  0  0  0  0  0
   -1.7027   -0.9048   -1.1162 H   0  0  0  0  0  0  0  0  0  0  0  0
    0.3023   -0.5824   -0.4162 C   0  0  1  0  0  0  0  0  0  0  0  0
    1.0410   -1.2430   -0.8855 H   0  0  0  0  0  0  0  0  0  0  0  0
    0.1928    0.7043   -1.2789 C   0  0  0  0  0  0  0  0  0  0  0  0
    0.3508    0.4453   -2.3317 H   0  0  0  0  0  0  0  0  0  0  0  0
   -0.8316    1.0811   -1.1967 H   0  0  0  0  0  0  0  0  0  0  0  0
    1.1133    1.8842   -0.8750 C   0  0  0  0  0  0  0  0  0  0  0  0
    0.7705    2.7832   -1.3931 H   0  0  0  0  0  0  0  0  0  0  0  0
    1.0501    2.0965    0.1949 H   0  0  0  0  0  0  0  0  0  0  0  0
    2.5799    1.6854   -1.2625 C   0  0  0  0  0  0  0  0  0  0  0  0
    2.8721    0.8821   -2.1323 O   0  0  0  0  0  0  0  0  0  0  0  0
    3.4908    2.4554   -0.6314 O   0  0  0  0  0  0  0  0  0  0  0  0
    4.3483    2.1444   -0.9589 H   0  0  0  0  0  0  0  0  0  0  0  0
    0.8144   -0.3304    1.0248 C   0  0  0  0  0  0  0  0  0  0  0  0
    2.0145   -0.3556    1.2634 O   0  0  0  0  0  0  0  0  0  0  0  0
   -0.0443    0.1879    1.9781 N   0  0  0  0  0  0  0  0  0  0  0  0
   -1.0341    0.0779    1.7840 H   0  0  0  0  0  0  0  0  0  0  0  0
    0.3738    0.4459    3.3505 C   0  0  0  0  0  0  0  0  0  0  0  0
    1.1978    1.1670    3.3720 H   0  0  0  0  0  0  0  0  0  0  0  0
   -0.4582    0.8582    3.9292 H   0  0  0  0  0  0  0  0  0  0  0  0
    0.7053   -0.4816    3.8293 H   0  0  0  0  0  0  0  0  0  0  0  0
  1  2  1  0  0  0  0
  2  3  1  0  0  0  0
  2  4  1  0  0  0  0
  2  5  1  0  0  0  0
  5  6  2  0  0  0  0
  5  7  1  0  0  0  0
  7  8  1  0  0  0  0
  7  9  1  0  0  0  0
  9 10  1  0  0  0  0
  9 11  1  0  0  0  0
  9 21  1  0  0  0  0
 11 12  1  0  0  0  0
 11 13  1  0  0  0  0
 11 14  1  0  0  0  0
 14 15  1  0  0  0  0
 14 16  1  0  0  0  0
 14 17  1  0  0  0  0
 17 18  2  0  0  0  0
 17 19  1  0  0  0  0
 19 20  1  0  0  0  0
 21 22  2  0  0  0  0
 21 23  1  0  0  0  0
 23 24  1  0  0  0  0
 23 25  1  0  0  0  0
 25 26  1  0  0  0  0
 25 27  1  0  0  0  0
 25 28  1  0  0  0  0
M  END
$$$$

  -OEChem-03222214033D

 28 27  0     1  0  0  0  0  0999 V2000
   -2.6633   -4.1316    0.2919 H   0  0  0  0  0  0  0  0  0  0  0  0
   -2.6276   -3.1469   -0.1834 C   0  0  0  0  0  0  0  0  0  0  0  0
   -3.4491   -2.5399    0.2041 H   0  0  0  0  0  0  0  0  0  0  0  0
   -2.7526   -3.2740   -1.2615 H   0  0  0  0  0  0  0  0  0  0  0  0
   -1.2997   -2.4743    0.1105 C   0  0  0  0  0  0  0  0  0  0  0  0
   -0.4878   -3.0291    0.8273 O   0  0  0  0  0  0  0  0  0  0  0  0
   -1.0262   -1.2340   -0.4346 N   0  0  0  0  0  0  0  0  0  0  0  0
   -1.6975   -0.8944   -1.1165 H   0  0  0  0  0  0  0  0  0  0  0  0
    0.3022   -0.5862   -0.3969 C   0  0  1  0  0  0  0  0  0  0  0  0
    1.0385   -1.2513   -0.8634 H   0  0  0  0  0  0  0  0  0  0  0  0
    0.2088    0.7001   -1.2627 C   0  0  0  0  0  0  0  0  0  0  0  0
    0.3444    0.4376   -2.3173 H   0  0  0  0  0  0  0  0  0  0  0  0
   -0.8134    1.0808   -1.1691 H   0  0  0  0  0  0  0  0  0  0  0  0
    1.1271    1.8899   -0.8667 C   0  0  0  0  0  0  0  0  0  0  0  0
    0.6392    2.8119   -1.1922 H   0  0  0  0  0  0  0  0  0  0  0  0
    1.2593    1.9809    0.2126 H   0  0  0  0  0  0  0  0  0  0  0  0
    2.5021    1.8804   -1.5388 C   0  0  0  0  0  0  0  0  0  0  0  0
    2.7616    1.0539   -2.3968 O   0  0  0  0  0  0  0  0  0  0  0  0
    3.3709    2.8385   -1.1537 O   0  0  0  0  0  0  0  0  0  0  0  0
    4.1818    2.6523   -1.6511 H   0  0  0  0  0  0  0  0  0  0  0  0
    0.8090   -0.3486    1.0480 C   0  0  0  0  0  0  0  0  0  0  0  0
    2.0089   -0.3772    1.2882 O   0  0  0  0  0  0  0  0  0  0  0  0
   -0.0502    0.1679    2.0019 N   0  0  0  0  0  0  0  0  0  0  0  0
   -1.0399    0.0628    1.8048 H   0  0  0  0  0  0  0  0  0  0  0  0
    0.3647    0.4183    3.3768 C   0  0  0  0  0  0  0  0  0  0  0  0
    1.1897    1.1380    3.4043 H   0  0  0  0  0  0  0  0  0  0  0  0
   -0.4684    0.8290    3.9550 H   0  0  0  0  0  0  0  0  0  0  0  0
    0.6936   -0.5120    3.8517 H   0  0  0  0  0  0  0  0  0  0  0  0
  1  2  1  0  0  0  0
  2  3  1  0  0  0  0
  2  4  1  0  0  0  0
  2  5  1  0  0  0  0
  5  6  2  0  0  0  0
  5  7  1  0  0  0  0
  7  8  1  0  0  0  0
  7  9  1  0  0  0  0
  9 10  1  0  0  0  0
  9 11  1  0  0  0  0
  9 21  1  0  0  0  0
 11 12  1  0  0  0  0
 11 13  1  0  0  0  0
 11 14  1  0  0  0  0
 14 15  1  0  0  0  0
 14 16  1  0  0  0  0
 14 17  1  0  0  0  0
 17 18  2  0  0  0  0
 17 19  1  0  0  0  0
 19 20  1  0  0  0  0
 21 22  2  0  0  0  0
 21 23  1  0  0  0  0
 23 24  1  0  0  0  0
 23 25  1  0  0  0  0
 25 26  1  0  0  0  0
 25 27  1  0  0  0  0
 25 28  1  0  0  0  0
M  END
$$$$

  -OEChem-03222214033D

 28 27  0     1  0  0  0  0  0999 V2000
   -2.6956   -4.1019    0.2890 H   0  0  0  0  0  0  0  0  0  0  0  0
   -2.6400   -3.1202   -0.1901 C   0  0  0  0  0  0  0  0  0  0  0  0
   -3.4510   -2.4961    0.1924 H   0  0  0  0  0  0  0  0  0  0  0  0
   -2.7638   -3.2489   -1.2682 H   0  0  0  0  0  0  0  0  0  0  0  0
   -1.3009   -2.4713    0.1048 C   0  0  0  0  0  0  0  0  0  0  0  0
   -0.4964   -3.0422    0.8172 O   0  0  0  0  0  0  0  0  0  0  0  0
   -1.0102   -1.2327   -0.4349 N   0  0  0  0  0  0  0  0  0  0  0  0
   -1.6774   -0.8798   -1.1142 H   0  0  0  0  0  0  0  0  0  0  0  0
    0.3230   -0.5954   -0.3854 C   0  0  1  0  0  0  0  0  0  0  0  0
    1.0601   -1.2614   -0.8492 H   0  0  0  0  0  0  0  0  0  0  0  0
    0.2322    0.6948   -1.2475 C   0  0  0  0  0  0  0  0  0  0  0  0
    0.3568    0.4261   -2.3014 H   0  0  0  0  0  0  0  0  0  0  0  0
   -0.7907    1.0737   -1.1524 H   0  0  0  0  0  0  0  0  0  0  0  0
    1.1458    1.8964   -0.8608 C   0  0  0  0  0  0  0  0  0  0  0  0
    0.5452    2.8070   -0.9287 H   0  0  0  0  0  0  0  0  0  0  0  0
    1.5081    1.8479    0.1658 H   0  0  0  0  0  0  0  0  0  0  0  0
    2.3534    2.1127   -1.7761 C   0  0  0  0  0  0  0  0  0  0  0  0
    2.6255    1.3028   -2.6453 O   0  0  0  0  0  0  0  0  0  0  0  0
    3.0690    3.2387   -1.5718 O   0  0  0  0  0  0  0  0  0  0  0  0
    3.7964    3.1907   -2.2108 H   0  0  0  0  0  0  0  0  0  0  0  0
    0.8124   -0.3679    1.0669 C   0  0  0  0  0  0  0  0  0  0  0  0
    2.0065   -0.4315    1.3286 O   0  0  0  0  0  0  0  0  0  0  0  0
   -0.0529    0.1517    2.0132 N   0  0  0  0  0  0  0  0  0  0  0  0
   -1.0411    0.0714    1.7983 H   0  0  0  0  0  0  0  0  0  0  0  0
    0.3448    0.3821    3.3966 C   0  0  0  0  0  0  0  0  0  0  0  0
    1.1818    1.0869    3.4433 H   0  0  0  0  0  0  0  0  0  0  0  0
   -0.4899    0.8019    3.9661 H   0  0  0  0  0  0  0  0  0  0  0  0
    0.6503   -0.5581    3.8678 H   0  0  0  0  0  0  0  0  0  0  0  0
  1  2  1  0  0  0  0
  2  3  1  0  0  0  0
  2  4  1  0  0  0  0
  2  5  1  0  0  0  0
  5  6  2  0  0  0  0
  5  7  1  0  0  0  0
  7  8  1  0  0  0  0
  7  9  1  0  0  0  0
  9 10  1  0  0  0  0
  9 11  1  0  0  0  0
  9 21  1  0  0  0  0
 11 12  1  0  0  0  0
 11 13  1  0  0  0  0
 11 14  1  0  0  0  0
 14 15  1  0  0  0  0
 14 16  1  0  0  0  0
 14 17  1  0  0  0  0
 17 18  2  0  0  0  0
 17 19  1  0  0  0  0
 19 20  1  0  0  0  0
 21 22  2  0  0  0  0
 21 23  1  0  0  0  0
 23 24  1  0  0  0  0
 23 25  1  0  0  0  0
 25 26  1  0  0  0  0
 25 27  1  0  0  0  0
 25 28  1  0  0  0  0
M  END
$$$$

  -OEChem-03222214033D

 28 27  0     1  0  0  0  0  0999 V2000
   -2.6792   -4.1008    0.3128 H   0  0  0  0  0  0  0  0  0  0  0  0
   -2.6308   -3.1182   -0.1656 C   0  0  0  0  0  0  0  0  0  0  0  0
   -3.4350   -2.4943    0.2317 H   0  0  0  0  0  0  0  0  0  0  0  0
   -2.7729   -3.2454   -1.2416 H   0  0  0  0  0  0  0  0  0  0  0  0
   -1.2861   -2.4713    0.1083 C   0  0  0  0  0  0  0  0  0  0  0  0
   -0.4740   -3.0420    0.8122 O   0  0  0  0  0  0  0  0  0  0  0  0
   -0.9971   -1.2356   -0.4395 N   0  0  0  0  0  0  0  0  0  0  0  0
   -1.6699   -0.8816   -1.1128 H   0  0  0  0  0  0  0  0  0  0  0  0
    0.3343   -0.5941   -0.3925 C   0  0  1  0  0  0  0  0  0  0  0  0
    1.0762   -1.2563   -0.8541 H   0  0  0  0  0  0  0  0  0  0  0  0
    0.2268    0.6965   -1.2526 C   0  0  0  0  0  0  0  0  0  0  0  0
    0.3702    0.4044   -2.2970 H   0  0  0  0  0  0  0  0  0  0  0  0
   -0.8009    1.0676   -1.1820 H   0  0  0  0  0  0  0  0  0  0  0  0
    1.1336    1.9097   -0.8726 C   0  0  0  0  0  0  0  0  0  0  0  0
    0.4916    2.7575   -0.6202 H   0  0  0  0  0  0  0  0  0  0  0  0
    1.7434    1.7079    0.0075 H   0  0  0  0  0  0  0  0  0  0  0  0
    2.1095    2.3820   -1.9555 C   0  0  0  0  0  0  0  0  0  0  0  0
    2.1650    1.8226   -3.0367 O   0  0  0  0  0  0  0  0  0  0  0  0
    2.8718    3.4514   -1.6449 O   0  0  0  0  0  0  0  0  0  0  0  0
    3.4307    3.5954   -2.4238 H   0  0  0  0  0  0  0  0  0  0  0  0
    0.8128   -0.3585    1.0629 C   0  0  0  0  0  0  0  0  0  0  0  0
    2.0017   -0.4495    1.3402 O   0  0  0  0  0  0  0  0  0  0  0  0
   -0.0586    0.1631    2.0022 N   0  0  0  0  0  0  0  0  0  0  0  0
   -1.0449    0.0955    1.7743 H   0  0  0  0  0  0  0  0  0  0  0  0
    0.3244    0.3744    3.3926 C   0  0  0  0  0  0  0  0  0  0  0  0
    1.1694    1.0681    3.4571 H   0  0  0  0  0  0  0  0  0  0  0  0
   -0.5120    0.7988    3.9558 H   0  0  0  0  0  0  0  0  0  0  0  0
    0.6120   -0.5747    3.8575 H   0  0  0  0  0  0  0  0  0  0  0  0
  1  2  1  0  0  0  0
  2  3  1  0  0  0  0
  2  4  1  0  0  0  0
  2  5  1  0  0  0  0
  5  6  2  0  0  0  0
  5  7  1  0  0  0  0
  7  8  1  0  0  0  0
  7  9  1  0  0  0  0
  9 10  1  0  0  0  0
  9 11  1  0  0  0  0
  9 21  1  0  0  0  0
 11 12  1  0  0  0  0
 11 13  1  0  0  0  0
 11 14  1  0  0  0  0
 14 15  1  0  0  0  0
 14 16  1  0  0  0  0
 14 17  1  0  0  0  0
 17 18  2  0  0  0  0
 17 19  1  0  0  0  0
 19 20  1  0  0  0  0
 21 22  2  0  0  0  0
 21 23  1  0  0  0  0
 23 24  1  0  0  0  0
 23 25  1  0  0  0  0
 25 26  1  0  0  0  0
 25 27  1  0  0  0  0
 25 28  1  0  0  0  0
M  END
$$$$

  -OEChem-03222214033D

 28 27  0     1  0  0  0  0  0999 V2000
   -2.6007   -4.1094    0.3252 H   0  0  0  0  0  0  0  0  0  0  0  0
   -2.5494   -3.1493   -0.1966 C   0  0  0  0  0  0  0  0  0  0  0  0
   -3.3681   -2.5158    0.1528 H   0  0  0  0  0  0  0  0  0  0  0  0
   -2.6650   -3.3263   -1.2686 H   0  0  0  0  0  0  0  0  0  0  0  0
   -1.2172   -2.4773    0.0777 C   0  0  0  0  0  0  0  0  0  0  0  0
   -0.3853   -3.0409    0.7638 O   0  0  0  0  0  0  0  0  0  0  0  0
   -0.9592   -1.2289   -0.4556 N   0  0  0  0  0  0  0  0  0  0  0  0
   -1.6480   -0.8747   -1.1127 H   0  0  0  0  0  0  0  0  0  0  0  0
    0.3503   -0.5466   -0.3909 C   0  0  1  0  0  0  0  0  0  0  0  0
    1.1178   -1.1736   -0.8593 H   0  0  0  0  0  0  0  0  0  0  0  0
    0.1957    0.7590   -1.2166 C   0  0  0  0  0  0  0  0  0  0  0  0
    0.4128    0.4958   -2.2578 H   0  0  0  0  0  0  0  0  0  0  0  0
   -0.8464    1.0939   -1.1869 H   0  0  0  0  0  0  0  0  0  0  0  0
    1.0634    1.9768   -0.7953 C   0  0  0  0  0  0  0  0  0  0  0  0
    0.4624    2.6944   -0.2312 H   0  0  0  0  0  0  0  0  0  0  0  0
    1.8898    1.6650   -0.1537 H   0  0  0  0  0  0  0  0  0  0  0  0
    1.7122    2.6805   -1.9863 C   0  0  0  0  0  0  0  0  0  0  0  0
    1.0381    2.8879   -2.9808 O   0  0  0  0  0  0  0  0  0  0  0  0
    3.0030    3.0590   -1.8764 O   0  0  0  0  0  0  0  0  0  0  0  0
    3.2184    3.4818   -2.7213 H   0  0  0  0  0  0  0  0  0  0  0  0
    0.8079   -0.3089    1.0715 C   0  0  0  0  0  0  0  0  0  0  0  0
    1.9944   -0.3802    1.3632 O   0  0  0  0  0  0  0  0  0  0  0  0
   -0.0878    0.1770    2.0073 N   0  0  0  0  0  0  0  0  0  0  0  0
   -1.0693    0.0961    1.7640 H   0  0  0  0  0  0  0  0  0  0  0  0
    0.2716    0.3859    3.4044 C   0  0  0  0  0  0  0  0  0  0  0  0
    1.1011    1.0965    3.4860 H   0  0  0  0  0  0  0  0  0  0  0  0
   -0.5815    0.7891    3.9584 H   0  0  0  0  0  0  0  0  0  0  0  0
    0.5718   -0.5601    3.8674 H   0  0  0  0  0  0  0  0  0  0  0  0
  1  2  1  0  0  0  0
  2  3  1  0  0  0  0
  2  4  1  0  0  0  0
  2  5  1  0  0  0  0
  5  6  2  0  0  0  0
  5  7  1  0  0  0  0
  7  8  1  0  0  0  0
  7  9  1  0  0  0  0
  9 10  1  0  0  0  0
  9 11  1  0  0  0  0
  9 21  1  0  0  0  0
 11 12  1  0  0  0  0
 11 13  1  0  0  0  0
 11 14  1  0  0  0  0
 14 15  1  0  0  0  0
 14 16  1  0  0  0  0
 14 17  1  0  0  0  0
 17 18  2  0  0  0  0
 17 19  1  0  0  0  0
 19 20  1  0  0  0  0
 21 22  2  0  0  0  0
 21 23  1  0  0  0  0
 23 24  1  0  0  0  0
 23 25  1  0  0  0  0
 25 26  1  0  0  0  0
 25 27  1  0  0  0  0
 25 28  1  0  0  0  0
M  END
$$$$

  -OEChem-03222214033D

 28 27  0     1  0  0  0  0  0999 V2000
   -2.6125   -4.1255    0.3052 H   0  0  0  0  0  0  0  0  0  0  0  0
   -2.5751   -3.1516   -0.1916 C   0  0  0  0  0  0  0  0  0  0  0  0
   -3.3861   -2.5295    0.1944 H   0  0  0  0  0  0  0  0  0  0  0  0
   -2.7166   -3.2996   -1.2650 H   0  0  0  0  0  0  0  0  0  0  0  0
   -1.2377   -2.4845    0.0691 C   0  0  0  0  0  0  0  0  0  0  0  0
   -0.4012   -3.0501    0.7484 O   0  0  0  0  0  0  0  0  0  0  0  0
   -0.9797   -1.2366   -0.4650 N   0  0  0  0  0  0  0  0  0  0  0  0
   -1.6750   -0.8738   -1.1106 H   0  0  0  0  0  0  0  0  0  0  0  0
    0.3309   -0.5576   -0.4037 C   0  0  1  0  0  0  0  0  0  0  0  0
    1.0931   -1.1883   -0.8757 H   0  0  0  0  0  0  0  0  0  0  0  0
    0.1864    0.7503   -1.2239 C   0  0  0  0  0  0  0  0  0  0  0  0
    0.4192    0.4961   -2.2641 H   0  0  0  0  0  0  0  0  0  0  0  0
   -0.8522    1.0976   -1.2022 H   0  0  0  0  0  0  0  0  0  0  0  0
    1.0739    1.9389   -0.7744 C   0  0  0  0  0  0  0  0  0  0  0  0
    0.5789    2.5091    0.0156 H   0  0  0  0  0  0  0  0  0  0  0  0
    2.0196    1.5640   -0.3738 H   0  0  0  0  0  0  0  0  0  0  0  0
    1.4549    2.8749   -1.9209 C   0  0  0  0  0  0  0  0  0  0  0  0
    0.6830    3.0150   -2.8545 O   0  0  0  0  0  0  0  0  0  0  0  0
    2.6332    3.5272   -1.8332 O   0  0  0  0  0  0  0  0  0  0  0  0
    2.6879    4.0643   -2.6381 H   0  0  0  0  0  0  0  0  0  0  0  0
    0.8023   -0.3166    1.0537 C   0  0  0  0  0  0  0  0  0  0  0  0
    1.9937   -0.3711    1.3292 O   0  0  0  0  0  0  0  0  0  0  0  0
   -0.0832    0.1738    1.9968 N   0  0  0  0  0  0  0  0  0  0  0  0
   -1.0679    0.0864    1.7684 H   0  0  0  0  0  0  0  0  0  0  0  0
    0.2966    0.4053    3.3849 C   0  0  0  0  0  0  0  0  0  0  0  0
    1.1220    1.1228    3.4422 H   0  0  0  0  0  0  0  0  0  0  0  0
   -0.5500    0.8106    3.9473 H   0  0  0  0  0  0  0  0  0  0  0  0
    0.6117   -0.5318    3.8562 H   0  0  0  0  0  0  0  0  0  0  0  0
  1  2  1  0  0  0  0
  2  3  1  0  0  0  0
  2  4  1  0  0  0  0
  2  5  1  0  0  0  0
  5  6  2  0  0  0  0
  5  7  1  0  0  0  0
  7  8  1  0  0  0  0
  7  9  1  0  0  0  0
  9 10  1  0  0  0  0
  9 11  1  0  0  0  0
  9 21  1  0  0  0  0
 11 12  1  0  0  0  0
 11 13  1  0  0  0  0
 11 14  1  0  0  0  0
 14 15  1  0  0  0  0
 14 16  1  0  0  0  0
 14 17  1  0  0  0  0
 17 18  2  0  0  0  0
 17 19  1  0  0  0  0
 19 20  1  0  0  0  0
 21 22  2  0  0  0  0
 21 23  1  0  0  0  0
 23 24  1  0  0  0  0
 23 25  1  0  0  0  0
 25 26  1  0  0  0  0
 25 27  1  0  0  0  0
 25 28  1  0  0  0  0
M  END
$$$$

  -OEChem-03222214033D

 28 27  0     1  0  0  0  0  0999 V2000
   -2.6270   -4.1356    0.2875 H   0  0  0  0  0  0  0  0  0  0  0  0
   -2.5951   -3.1552   -0.1965 C   0  0  0  0  0  0  0  0  0  0  0  0
   -3.4055   -2.5402    0.2017 H   0  0  0  0  0  0  0  0  0  0  0  0
   -2.7413   -3.2899   -1.2710 H   0  0  0  0  0  0  0  0  0  0  0  0
   -1.2583   -2.4876    0.0659 C   0  0  0  0  0  0  0  0  0  0  0  0
   -0.4205   -3.0539    0.7432 O   0  0  0  0  0  0  0  0  0  0  0  0
   -1.0018   -1.2376   -0.4639 N   0  0  0  0  0  0  0  0  0  0  0  0
   -1.6988   -0.8713   -1.1058 H   0  0  0  0  0  0  0  0  0  0  0  0
    0.3105   -0.5621   -0.4062 C   0  0  1  0  0  0  0  0  0  0  0  0
    1.0651   -1.1991   -0.8818 H   0  0  0  0  0  0  0  0  0  0  0  0
    0.1822    0.7453   -1.2280 C   0  0  0  0  0  0  0  0  0  0  0  0
    0.4113    0.5038   -2.2718 H   0  0  0  0  0  0  0  0  0  0  0  0
   -0.8527    1.1034   -1.1959 H   0  0  0  0  0  0  0  0  0  0  0  0
    1.0845    1.9137   -0.7641 C   0  0  0  0  0  0  0  0  0  0  0  0
    0.7124    2.3351    0.1736 H   0  0  0  0  0  0  0  0  0  0  0  0
    2.0977    1.5406   -0.5865 H   0  0  0  0  0  0  0  0  0  0  0  0
    1.1981    3.0384   -1.7929 C   0  0  0  0  0  0  0  0  0  0  0  0
    0.3558    3.1399   -2.6690 O   0  0  0  0  0  0  0  0  0  0  0  0
    2.2371    3.8904   -1.6669 O   0  0  0  0  0  0  0  0  0  0  0  0
    2.1374    4.5227   -2.3946 H   0  0  0  0  0  0  0  0  0  0  0  0
    0.8001   -0.3245    1.0452 C   0  0  0  0  0  0  0  0  0  0  0  0
    1.9973   -0.3570    1.2983 O   0  0  0  0  0  0  0  0  0  0  0  0
   -0.0741    0.1663    1.9986 N   0  0  0  0  0  0  0  0  0  0  0  0
   -1.0617    0.0710    1.7859 H   0  0  0  0  0  0  0  0  0  0  0  0
    0.3247    0.4156    3.3783 C   0  0  0  0  0  0  0  0  0  0  0  0
    1.1391    1.1468    3.4167 H   0  0  0  0  0  0  0  0  0  0  0  0
   -0.5194    0.8119    3.9506 H   0  0  0  0  0  0  0  0  0  0  0  0
    0.6621   -0.5122    3.8523 H   0  0  0  0  0  0  0  0  0  0  0  0
  1  2  1  0  0  0  0
  2  3  1  0  0  0  0
  2  4  1  0  0  0  0
  2  5  1  0  0  0  0
  5  6  2  0  0  0  0
  5  7  1  0  0  0  0
  7  8  1  0  0  0  0
  7  9  1  0  0  0  0
  9 10  1  0  0  0  0
  9 11  1  0  0  0  0
  9 21  1  0  0  0  0
 11 12  1  0  0  0  0
 11 13  1  0  0  0  0
 11 14  1  0  0  0  0
 14 15  1  0  0  0  0
 14 16  1  0  0  0  0
 14 17  1  0  0  0  0
 17 18  2  0  0  0  0
 17 19  1  0  0  0  0
 19 20  1  0  0  0  0
 21 22  2  0  0  0  0
 21 23  1  0  0  0  0
 23 24  1  0  0  0  0
 23 25  1  0  0  0  0
 25 26  1  0  0  0  0
 25 27  1  0  0  0  0
 25 28  1  0  0  0  0
M  END
$$$$

  -OEChem-03222214033D

 28 27  0     1  0  0  0  0  0999 V2000
   -2.6463   -4.1347    0.2645 H   0  0  0  0  0  0  0  0  0  0  0  0
   -2.6210   -3.1393   -0.1883 C   0  0  0  0  0  0  0  0  0  0  0  0
   -3.4206   -2.5349    0.2465 H   0  0  0  0  0  0  0  0  0  0  0  0
   -2.7906   -3.2388   -1.2632 H   0  0  0  0  0  0  0  0  0  0  0  0
   -1.2765   -2.4849    0.0675 C   0  0  0  0  0  0  0  0  0  0  0  0
   -0.4443   -3.0546    0.7490 O   0  0  0  0  0  0  0  0  0  0  0  0
   -1.0067   -1.2419   -0.4713 N   0  0  0  0  0  0  0  0  0  0  0  0
   -1.7038   -0.8657   -1.1077 H   0  0  0  0  0  0  0  0  0  0  0  0
    0.3103   -0.5780   -0.4138 C   0  0  1  0  0  0  0  0  0  0  0  0
    1.0580   -1.2236   -0.8884 H   0  0  0  0  0  0  0  0  0  0  0  0
    0.1867    0.7212   -1.2403 C   0  0  0  0  0  0  0  0  0  0  0  0
    0.1395    0.4569   -2.3025 H   0  0  0  0  0  0  0  0  0  0  0  0
   -0.7556    1.2159   -0.9791 H   0  0  0  0  0  0  0  0  0  0  0  0
    1.3290    1.7414   -1.0204 C   0  0  0  0  0  0  0  0  0  0  0  0
    1.3708    2.0480    0.0280 H   0  0  0  0  0  0  0  0  0  0  0  0
    2.2868    1.2752   -1.2681 H   0  0  0  0  0  0  0  0  0  0  0  0
    1.1799    3.0157   -1.8524 C   0  0  0  0  0  0  0  0  0  0  0  0
    0.1953    3.1707   -2.5556 O   0  0  0  0  0  0  0  0  0  0  0  0
    2.1688    3.9288   -1.7589 O   0  0  0  0  0  0  0  0  0  0  0  0
    1.9021    4.6535   -2.3444 H   0  0  0  0  0  0  0  0  0  0  0  0
    0.8079   -0.3268    1.0309 C   0  0  0  0  0  0  0  0  0  0  0  0
    2.0073   -0.3596    1.2745 O   0  0  0  0  0  0  0  0  0  0  0  0
   -0.0566    0.1832    1.9826 N   0  0  0  0  0  0  0  0  0  0  0  0
   -1.0461    0.0972    1.7753 H   0  0  0  0  0  0  0  0  0  0  0  0
    0.3512    0.4347    3.3592 C   0  0  0  0  0  0  0  0  0  0  0  0
    1.1694    1.1620    3.3909 H   0  0  0  0  0  0  0  0  0  0  0  0
   -0.4876    0.8362    3.9356 H   0  0  0  0  0  0  0  0  0  0  0  0
    0.6870   -0.4937    3.8332 H   0  0  0  0  0  0  0  0  0  0  0  0
  1  2  1  0  0  0  0
  2  3  1  0  0  0  0
  2  4  1  0  0  0  0
  2  5  1  0  0  0  0
  5  6  2  0  0  0  0
  5  7  1  0  0  0  0
  7  8  1  0  0  0  0
  7  9  1  0  0  0  0
  9 10  1  0  0  0  0
  9 11  1  0  0  0  0
  9 21  1  0  0  0  0
 11 12  1  0  0  0  0
 11 13  1  0  0  0  0
 11 14  1  0  0  0  0
 14 15  1  0  0  0  0
 14 16  1  0  0  0  0
 14 17  1  0  0  0  0
 17 18  2  0  0  0  0
 17 19  1  0  0  0  0
 19 20  1  0  0  0  0
 21 22  2  0  0  0  0
 21 23  1  0  0  0  0
 23 24  1  0  0  0  0
 23 25  1  0  0  0  0
 25 26  1  0  0  0  0
 25 27  1  0  0  0  0
 25 28  1  0  0  0  0
M  END
$$$$

  -OEChem-03222214033D

 28 27  0     1  0  0  0  0  0999 V2000
   -2.6751   -4.1060    0.2813 H   0  0  0  0  0  0  0  0  0  0  0  0
   -2.6364   -3.1125   -0.1748 C   0  0  0  0  0  0  0  0  0  0  0  0
   -3.4231   -2.4935    0.2633 H   0  0  0  0  0  0  0  0  0  0  0  0
   -2.8148   -3.2127   -1.2482 H   0  0  0  0  0  0  0  0  0  0  0  0
   -1.2797   -2.4788    0.0696 C   0  0  0  0  0  0  0  0  0  0  0  0
   -0.4475   -3.0643    0.7375 O   0  0  0  0  0  0  0  0  0  0  0  0
   -0.9978   -1.2371   -0.4661 N   0  0  0  0  0  0  0  0  0  0  0  0
   -1.6989   -0.8433   -1.0870 H   0  0  0  0  0  0  0  0  0  0  0  0
    0.3252   -0.5843   -0.4078 C   0  0  1  0  0  0  0  0  0  0  0  0
    1.0690   -1.2360   -0.8801 H   0  0  0  0  0  0  0  0  0  0  0  0
    0.2101    0.7124   -1.2426 C   0  0  0  0  0  0  0  0  0  0  0  0
    0.1394    0.4550   -2.3050 H   0  0  0  0  0  0  0  0  0  0  0  0
   -0.7289    1.2012   -0.9591 H   0  0  0  0  0  0  0  0  0  0  0  0
    1.3488    1.7450   -1.0449 C   0  0  0  0  0  0  0  0  0  0  0  0
    1.5624    1.8883    0.0163 H   0  0  0  0  0  0  0  0  0  0  0  0
    2.2633    1.3774   -1.5177 H   0  0  0  0  0  0  0  0  0  0  0  0
    1.0225    3.1336   -1.5969 C   0  0  0  0  0  0  0  0  0  0  0  0
    0.0088    3.3048   -2.2532 O   0  0  0  0  0  0  0  0  0  0  0  0
    1.9006    4.1222   -1.3277 O   0  0  0  0  0  0  0  0  0  0  0  0
    1.5356    4.9109   -1.7565 H   0  0  0  0  0  0  0  0  0  0  0  0
    0.8163   -0.3446    1.0409 C   0  0  0  0  0  0  0  0  0  0  0  0
    2.0129   -0.3977    1.2940 O   0  0  0  0  0  0  0  0  0  0  0  0
   -0.0492    0.1680    1.9902 N   0  0  0  0  0  0  0  0  0  0  0  0
   -1.0380    0.0972    1.7746 H   0  0  0  0  0  0  0  0  0  0  0  0
    0.3509    0.4040    3.3717 C   0  0  0  0  0  0  0  0  0  0  0  0
    1.1750    1.1239    3.4150 H   0  0  0  0  0  0  0  0  0  0  0  0
   -0.4886    0.8077    3.9457 H   0  0  0  0  0  0  0  0  0  0  0  0
    0.6753   -0.5312    3.8405 H   0  0  0  0  0  0  0  0  0  0  0  0
  1  2  1  0  0  0  0
  2  3  1  0  0  0  0
  2  4  1  0  0  0  0
  2  5  1  0  0  0  0
  5  6  2  0  0  0  0
  5  7  1  0  0  0  0
  7  8  1  0  0  0  0
  7  9  1  0  0  0  0
  9 10  1  0  0  0  0
  9 11  1  0  0  0  0
  9 21  1  0  0  0  0
 11 12  1  0  0  0  0
 11 13  1  0  0  0  0
 11 14  1  0  0  0  0
 14 15  1  0  0  0  0
 14 16  1  0  0  0  0
 14 17  1  0  0  0  0
 17 18  2  0  0  0  0
 17 19  1  0  0  0  0
 19 20  1  0  0  0  0
 21 22  2  0  0  0  0
 21 23  1  0  0  0  0
 23 24  1  0  0  0  0
 23 25  1  0  0  0  0
 25 26  1  0  0  0  0
 25 27  1  0  0  0  0
 25 28  1  0  0  0  0
M  END
$$$$

  -OEChem-03222214033D

 28 27  0     1  0  0  0  0  0999 V2000
   -2.7096   -4.0707    0.3273 H   0  0  0  0  0  0  0  0  0  0  0  0
   -2.6505   -3.0927   -0.1591 C   0  0  0  0  0  0  0  0  0  0  0  0
   -3.4293   -2.4473    0.2541 H   0  0  0  0  0  0  0  0  0  0  0  0
   -2.8235   -3.2234   -1.2300 H   0  0  0  0  0  0  0  0  0  0  0  0
   -1.2845   -2.4756    0.0751 C   0  0  0  0  0  0  0  0  0  0  0  0
   -0.4536   -3.0741    0.7328 O   0  0  0  0  0  0  0  0  0  0  0  0
   -0.9909   -1.2375   -0.4633 N   0  0  0  0  0  0  0  0  0  0  0  0
   -1.6925   -0.8341   -1.0774 H   0  0  0  0  0  0  0  0  0  0  0  0
    0.3386   -0.5965   -0.4084 C   0  0  1  0  0  0  0  0  0  0  0  0
    1.0773   -1.2538   -0.8814 H   0  0  0  0  0  0  0  0  0  0  0  0
    0.2249    0.7004   -1.2466 C   0  0  0  0  0  0  0  0  0  0  0  0
    0.1346    0.4449   -2.3076 H   0  0  0  0  0  0  0  0  0  0  0  0
   -0.7127    1.1819   -0.9470 H   0  0  0  0  0  0  0  0  0  0  0  0
    1.3609    1.7459   -1.0737 C   0  0  0  0  0  0  0  0  0  0  0  0
    1.7767    1.7175   -0.0656 H   0  0  0  0  0  0  0  0  0  0  0  0
    2.1773    1.5152   -1.7628 H   0  0  0  0  0  0  0  0  0  0  0  0
    0.9114    3.1915   -1.2939 C   0  0  0  0  0  0  0  0  0  0  0  0
   -0.0942    3.4190   -1.9454 O   0  0  0  0  0  0  0  0  0  0  0  0
    1.6757    4.1650   -0.7556 O   0  0  0  0  0  0  0  0  0  0  0  0
    1.2443    4.9960   -1.0059 H   0  0  0  0  0  0  0  0  0  0  0  0
    0.8278   -0.3613    1.0424 C   0  0  0  0  0  0  0  0  0  0  0  0
    2.0196   -0.4524    1.3066 O   0  0  0  0  0  0  0  0  0  0  0  0
   -0.0341    0.1597    1.9904 N   0  0  0  0  0  0  0  0  0  0  0  0
   -1.0227    0.1221    1.7656 H   0  0  0  0  0  0  0  0  0  0  0  0
    0.3644    0.3972    3.3721 C   0  0  0  0  0  0  0  0  0  0  0  0
    1.2029    1.1005    3.4139 H   0  0  0  0  0  0  0  0  0  0  0  0
   -0.4691    0.8223    3.9393 H   0  0  0  0  0  0  0  0  0  0  0  0
    0.6676   -0.5409    3.8490 H   0  0  0  0  0  0  0  0  0  0  0  0
  1  2  1  0  0  0  0
  2  3  1  0  0  0  0
  2  4  1  0  0  0  0
  2  5  1  0  0  0  0
  5  6  2  0  0  0  0
  5  7  1  0  0  0  0
  7  8  1  0  0  0  0
  7  9  1  0  0  0  0
  9 10  1  0  0  0  0
  9 11  1  0  0  0  0
  9 21  1  0  0  0  0
 11 12  1  0  0  0  0
 11 13  1  0  0  0  0
 11 14  1  0  0  0  0
 14 15  1  0  0  0  0
 14 16  1  0  0  0  0
 14 17  1  0  0  0  0
 17 18  2  0  0  0  0
 17 19  1  0  0  0  0
 19 20  1  0  0  0  0
 21 22  2  0  0  0  0
 21 23  1  0  0  0  0
 23 24  1  0  0  0  0
 23 25  1  0  0  0  0
 25 26  1  0  0  0  0
 25 27  1  0  0  0  0
 25 28  1  0  0  0  0
M  END
$$$$

  -OEChem-03222214033D

 28 27  0     1  0  0  0  0  0999 V2000
   -2.7241   -4.0435    0.3869 H   0  0  0  0  0  0  0  0  0  0  0  0
   -2.6511   -3.0848   -0.1348 C   0  0  0  0  0  0  0  0  0  0  0  0
   -3.4254   -2.4164    0.2489 H   0  0  0  0  0  0  0  0  0  0  0  0
   -2.8180   -3.2527   -1.2015 H   0  0  0  0  0  0  0  0  0  0  0  0
   -1.2799   -2.4741    0.0857 C   0  0  0  0  0  0  0  0  0  0  0  0
   -0.4470   -3.0746    0.7387 O   0  0  0  0  0  0  0  0  0  0  0  0
   -0.9831   -1.2420   -0.4645 N   0  0  0  0  0  0  0  0  0  0  0  0
   -1.6890   -0.8367   -1.0722 H   0  0  0  0  0  0  0  0  0  0  0  0
    0.3490   -0.6051   -0.4204 C   0  0  1  0  0  0  0  0  0  0  0  0
    1.0862   -1.2619   -0.8959 H   0  0  0  0  0  0  0  0  0  0  0  0
    0.2227    0.6935   -1.2542 C   0  0  0  0  0  0  0  0  0  0  0  0
    0.1258    0.4346   -2.3135 H   0  0  0  0  0  0  0  0  0  0  0  0
   -0.7183    1.1673   -0.9537 H   0  0  0  0  0  0  0  0  0  0  0  0
    1.3586    1.7438   -1.0969 C   0  0  0  0  0  0  0  0  0  0  0  0
    1.9880    1.5350   -0.2311 H   0  0  0  0  0  0  0  0  0  0  0  0
    2.0118    1.6979   -1.9718 H   0  0  0  0  0  0  0  0  0  0  0  0
    0.8567    3.1801   -0.9447 C   0  0  0  0  0  0  0  0  0  0  0  0
   -0.1375    3.5318   -1.5569 O   0  0  0  0  0  0  0  0  0  0  0  0
    1.5563    4.0059   -0.1383 O   0  0  0  0  0  0  0  0  0  0  0  0
    1.0956    4.8572   -0.1822 H   0  0  0  0  0  0  0  0  0  0  0  0
    0.8388   -0.3615    1.0297 C   0  0  0  0  0  0  0  0  0  0  0  0
    2.0260   -0.4802    1.3032 O   0  0  0  0  0  0  0  0  0  0  0  0
   -0.0209    0.1695    1.9740 N   0  0  0  0  0  0  0  0  0  0  0  0
   -1.0085    0.1513    1.7435 H   0  0  0  0  0  0  0  0  0  0  0  0
    0.3761    0.4123    3.3552 C   0  0  0  0  0  0  0  0  0  0  0  0
    1.2276    1.1001    3.3947 H   0  0  0  0  0  0  0  0  0  0  0  0
   -0.4518    0.8582    3.9145 H   0  0  0  0  0  0  0  0  0  0  0  0
    0.6594   -0.5272    3.8415 H   0  0  0  0  0  0  0  0  0  0  0  0
  1  2  1  0  0  0  0
  2  3  1  0  0  0  0
  2  4  1  0  0  0  0
  2  5  1  0  0  0  0
  5  6  2  0  0  0  0
  5  7  1  0  0  0  0
  7  8  1  0  0  0  0
  7  9  1  0  0  0  0
  9 10  1  0  0  0  0
  9 11  1  0  0  0  0
  9 21  1  0  0  0  0
 11 12  1  0  0  0  0
 11 13  1  0  0  0  0
 11 14  1  0  0  0  0
 14 15  1  0  0  0  0
 14 16  1  0  0  0  0
 14 17  1  0  0  0  0
 17 18  2  0  0  0  0
 17 19  1  0  0  0  0
 19 20  1  0  0  0  0
 21 22  2  0  0  0  0
 21 23  1  0  0  0  0
 23 24  1  0  0  0  0
 23 25  1  0  0  0  0
 25 26  1  0  0  0  0
 25 27  1  0  0  0  0
 25 28  1  0  0  0  0
M  END
$$$$

  -OEChem-03222214033D

 28 27  0     1  0  0  0  0  0999 V2000
   -2.7510   -4.0553    0.2844 H   0  0  0  0  0  0  0  0  0  0  0  0
   -2.6746   -3.0686   -0.1815 C   0  0  0  0  0  0  0  0  0  0  0  0
   -3.3801   -2.3933    0.3082 H   0  0  0  0  0  0  0  0  0  0  0  0
   -2.9375   -3.1581   -1.2382 H   0  0  0  0  0  0  0  0  0  0  0  0
   -1.2615   -2.5349   -0.0419 C   0  0  0  0  0  0  0  0  0  0  0  0
   -0.4032   -3.2191    0.4845 O   0  0  0  0  0  0  0  0  0  0  0  0
   -0.9516   -1.2828   -0.5362 N   0  0  0  0  0  0  0  0  0  0  0  0
   -1.7029   -0.7669   -0.9829 H   0  0  0  0  0  0  0  0  0  0  0  0
    0.3734   -0.6450   -0.4130 C   0  0  1  0  0  0  0  0  0  0  0  0
    1.1333   -1.2781   -0.8853 H   0  0  0  0  0  0  0  0  0  0  0  0
    0.2700    0.6882   -1.1897 C   0  0  0  0  0  0  0  0  0  0  0  0
    0.2662    0.4538   -2.2594 H   0  0  0  0  0  0  0  0  0  0  0  0
   -0.6981    1.1506   -0.9703 H   0  0  0  0  0  0  0  0  0  0  0  0
    1.4055    1.7134   -0.9197 C   0  0  0  0  0  0  0  0  0  0  0  0
    2.1773    1.3172   -0.2574 H   0  0  0  0  0  0  0  0  0  0  0  0
    1.9019    1.9266   -1.8703 H   0  0  0  0  0  0  0  0  0  0  0  0
    0.9149    3.0456   -0.3511 C   0  0  0  0  0  0  0  0  0  0  0  0
    0.0002    3.0522    0.4564 O   0  0  0  0  0  0  0  0  0  0  0  0
    1.5255    4.1688   -0.7840 O   0  0  0  0  0  0  0  0  0  0  0  0
    1.0961    4.8928   -0.3033 H   0  0  0  0  0  0  0  0  0  0  0  0
    0.8033   -0.4501    1.0642 C   0  0  0  0  0  0  0  0  0  0  0  0
    1.9738   -0.6110    1.3866 O   0  0  0  0  0  0  0  0  0  0  0  0
   -0.0902    0.0466    1.9958 N   0  0  0  0  0  0  0  0  0  0  0  0
   -0.9952    0.3430    1.6466 H   0  0  0  0  0  0  0  0  0  0  0  0
    0.3041    0.4384    3.3425 C   0  0  0  0  0  0  0  0  0  0  0  0
    1.0174    1.2685    3.3060 H   0  0  0  0  0  0  0  0  0  0  0  0
   -0.5718    0.7573    3.9153 H   0  0  0  0  0  0  0  0  0  0  0  0
    0.7689   -0.4041    3.8655 H   0  0  0  0  0  0  0  0  0  0  0  0
  1  2  1  0  0  0  0
  2  3  1  0  0  0  0
  2  4  1  0  0  0  0
  2  5  1  0  0  0  0
  5  6  2  0  0  0  0
  5  7  1  0  0  0  0
  7  8  1  0  0  0  0
  7  9  1  0  0  0  0
  9 10  1  0  0  0  0
  9 11  1  0  0  0  0
  9 21  1  0  0  0  0
 11 12  1  0  0  0  0
 11 13  1  0  0  0  0
 11 14  1  0  0  0  0
 14 15  1  0  0  0  0
 14 16  1  0  0  0  0
 14 17  1  0  0  0  0
 17 18  2  0  0  0  0
 17 19  1  0  0  0  0
 19 20  1  0  0  0  0
 21 22  2  0  0  0  0
 21 23  1  0  0  0  0
 23 24  1  0  0  0  0
 23 25  1  0  0  0  0
 25 26  1  0  0  0  0
 25 27  1  0  0  0  0
 25 28  1  0  0  0  0
M  END
$$$$

  -OEChem-03222214033D

 28 27  0     1  0  0  0  0  0999 V2000
   -2.7069   -4.1040    0.3058 H   0  0  0  0  0  0  0  0  0  0  0  0
   -2.6611   -3.1060   -0.1395 C   0  0  0  0  0  0  0  0  0  0  0  0
   -3.3562   -2.4521    0.3925 H   0  0  0  0  0  0  0  0  0  0  0  0
   -2.9629   -3.1751   -1.1874 H   0  0  0  0  0  0  0  0  0  0  0  0
   -1.2510   -2.5554   -0.0405 C   0  0  0  0  0  0  0  0  0  0  0  0
   -0.3695   -3.2296    0.4599 O   0  0  0  0  0  0  0  0  0  0  0  0
   -0.9698   -1.2987   -0.5399 N   0  0  0  0  0  0  0  0  0  0  0  0
   -1.7429   -0.7831   -0.9483 H   0  0  0  0  0  0  0  0  0  0  0  0
    0.3445   -0.6384   -0.4292 C   0  0  1  0  0  0  0  0  0  0  0  0
    1.1075   -1.2691   -0.8999 H   0  0  0  0  0  0  0  0  0  0  0  0
    0.2327    0.6827   -1.2233 C   0  0  0  0  0  0  0  0  0  0  0  0
    0.2580    0.4247   -2.2871 H   0  0  0  0  0  0  0  0  0  0  0  0
   -0.7421    1.1465   -1.0415 H   0  0  0  0  0  0  0  0  0  0  0  0
    1.3671    1.7054   -0.9492 C   0  0  0  0  0  0  0  0  0  0  0  0
    2.2483    1.2191   -0.5229 H   0  0  0  0  0  0  0  0  0  0  0  0
    1.6803    2.1222   -1.9102 H   0  0  0  0  0  0  0  0  0  0  0  0
    0.9760    2.8978   -0.0708 C   0  0  0  0  0  0  0  0  0  0  0  0
   -0.0747    2.8873    0.5506 O   0  0  0  0  0  0  0  0  0  0  0  0
    1.8383    3.9355   -0.0399 O   0  0  0  0  0  0  0  0  0  0  0  0
    1.4437    4.5770    0.5700 H   0  0  0  0  0  0  0  0  0  0  0  0
    0.7914   -0.4305    1.0415 C   0  0  0  0  0  0  0  0  0  0  0  0
    1.9725   -0.5503    1.3421 O   0  0  0  0  0  0  0  0  0  0  0  0
   -0.0961    0.0537    1.9856 N   0  0  0  0  0  0  0  0  0  0  0  0
   -1.0034    0.3519    1.6428 H   0  0  0  0  0  0  0  0  0  0  0  0
    0.3156    0.4677    3.3206 C   0  0  0  0  0  0  0  0  0  0  0  0
    0.9994    1.3210    3.2625 H   0  0  0  0  0  0  0  0  0  0  0  0
   -0.5575    0.7609    3.9111 H   0  0  0  0  0  0  0  0  0  0  0  0
    0.8202   -0.3551    3.8383 H   0  0  0  0  0  0  0  0  0  0  0  0
  1  2  1  0  0  0  0
  2  3  1  0  0  0  0
  2  4  1  0  0  0  0
  2  5  1  0  0  0  0
  5  6  2  0  0  0  0
  5  7  1  0  0  0  0
  7  8  1  0  0  0  0
  7  9  1  0  0  0  0
  9 10  1  0  0  0  0
  9 11  1  0  0  0  0
  9 21  1  0  0  0  0
 11 12  1  0  0  0  0
 11 13  1  0  0  0  0
 11 14  1  0  0  0  0
 14 15  1  0  0  0  0
 14 16  1  0  0  0  0
 14 17  1  0  0  0  0
 17 18  2  0  0  0  0
 17 19  1  0  0  0  0
 19 20  1  0  0  0  0
 21 22  2  0  0  0  0
 21 23  1  0  0  0  0
 23 24  1  0  0  0  0
 23 25  1  0  0  0  0
 25 26  1  0  0  0  0
 25 27  1  0  0  0  0
 25 28  1  0  0  0  0
M  END
$$$$

  -OEChem-03222214033D

 28 27  0     1  0  0  0  0  0999 V2000
   -2.6746   -4.1309    0.3130 H   0  0  0  0  0  0  0  0  0  0  0  0
   -2.6476   -3.1296   -0.1266 C   0  0  0  0  0  0  0  0  0  0  0  0
   -3.3502   -2.4899    0.4127 H   0  0  0  0  0  0  0  0  0  0  0  0
   -2.9537   -3.1975   -1.1733 H   0  0  0  0  0  0  0  0  0  0  0  0
   -1.2459   -2.5576   -0.0324 C   0  0  0  0  0  0  0  0  0  0  0  0
   -0.3521   -3.2196    0.4626 O   0  0  0  0  0  0  0  0  0  0  0  0
   -0.9852   -1.2950   -0.5279 N   0  0  0  0  0  0  0  0  0  0  0  0
   -1.7676   -0.7870   -0.9285 H   0  0  0  0  0  0  0  0  0  0  0  0
    0.3228   -0.6213   -0.4277 C   0  0  1  0  0  0  0  0  0  0  0  0
    1.0827   -1.2575   -0.8965 H   0  0  0  0  0  0  0  0  0  0  0  0
    0.2182    0.6853   -1.2477 C   0  0  0  0  0  0  0  0  0  0  0  0
    0.2523    0.4077   -2.3061 H   0  0  0  0  0  0  0  0  0  0  0  0
   -0.7550    1.1581   -1.0798 H   0  0  0  0  0  0  0  0  0  0  0  0
    1.3478    1.7128   -0.9844 C   0  0  0  0  0  0  0  0  0  0  0  0
    2.2873    1.1929   -0.7743 H   0  0  0  0  0  0  0  0  0  0  0  0
    1.5028    2.2956   -1.8959 H   0  0  0  0  0  0  0  0  0  0  0  0
    1.0783    2.7224    0.1355 C   0  0  0  0  0  0  0  0  0  0  0  0
   -0.0416    2.8266    0.6104 O   0  0  0  0  0  0  0  0  0  0  0  0
    2.1170    3.4912    0.5233 O   0  0  0  0  0  0  0  0  0  0  0  0
    1.7716    4.0476    1.2371 H   0  0  0  0  0  0  0  0  0  0  0  0
    0.7897   -0.4139    1.0355 C   0  0  0  0  0  0  0  0  0  0  0  0
    1.9809   -0.4906    1.3083 O   0  0  0  0  0  0  0  0  0  0  0  0
   -0.0880    0.0560    1.9956 N   0  0  0  0  0  0  0  0  0  0  0  0
   -1.0130    0.3214    1.6742 H   0  0  0  0  0  0  0  0  0  0  0  0
    0.3386    0.4766    3.3236 C   0  0  0  0  0  0  0  0  0  0  0  0
    1.0289    1.3238    3.2536 H   0  0  0  0  0  0  0  0  0  0  0  0
   -0.5268    0.7817    3.9193 H   0  0  0  0  0  0  0  0  0  0  0  0
    0.8410   -0.3470    3.8421 H   0  0  0  0  0  0  0  0  0  0  0  0
  1  2  1  0  0  0  0
  2  3  1  0  0  0  0
  2  4  1  0  0  0  0
  2  5  1  0  0  0  0
  5  6  2  0  0  0  0
  5  7  1  0  0  0  0
  7  8  1  0  0  0  0
  7  9  1  0  0  0  0
  9 10  1  0  0  0  0
  9 11  1  0  0  0  0
  9 21  1  0  0  0  0
 11 12  1  0  0  0  0
 11 13  1  0  0  0  0
 11 14  1  0  0  0  0
 14 15  1  0  0  0  0
 14 16  1  0  0  0  0
 14 17  1  0  0  0  0
 17 18  2  0  0  0  0
 17 19  1  0  0  0  0
 19 20  1  0  0  0  0
 21 22  2  0  0  0  0
 21 23  1  0  0  0  0
 23 24  1  0  0  0  0
 23 25  1  0  0  0  0
 25 26  1  0  0  0  0
 25 27  1  0  0  0  0
 25 28  1  0  0  0  0
M  END
$$$$

  -OEChem-03222214033D

 28 27  0     1  0  0  0  0  0999 V2000
   -2.6725   -4.1321    0.2924 H   0  0  0  0  0  0  0  0  0  0  0  0
   -2.6453   -3.1256   -0.1350 C   0  0  0  0  0  0  0  0  0  0  0  0
   -3.3499   -2.4938    0.4109 H   0  0  0  0  0  0  0  0  0  0  0  0
   -2.9495   -3.1810   -1.1829 H   0  0  0  0  0  0  0  0  0  0  0  0
   -1.2443   -2.5530   -0.0306 C   0  0  0  0  0  0  0  0  0  0  0  0
   -0.3504   -3.2192    0.4586 O   0  0  0  0  0  0  0  0  0  0  0  0
   -0.9855   -1.2832   -0.5086 N   0  0  0  0  0  0  0  0  0  0  0  0
   -1.7675   -0.7742   -0.9083 H   0  0  0  0  0  0  0  0  0  0  0  0
    0.3212   -0.6075   -0.4025 C   0  0  1  0  0  0  0  0  0  0  0  0
    1.0779   -1.2536   -0.8631 H   0  0  0  0  0  0  0  0  0  0  0  0
    0.2354    0.6784   -1.2615 C   0  0  0  0  0  0  0  0  0  0  0  0
    0.2664    0.3747   -2.3131 H   0  0  0  0  0  0  0  0  0  0  0  0
   -0.7346    1.1596   -1.0972 H   0  0  0  0  0  0  0  0  0  0  0  0
    1.3438    1.7348   -1.0320 C   0  0  0  0  0  0  0  0  0  0  0  0
    2.3168    1.2342   -1.0267 H   0  0  0  0  0  0  0  0  0  0  0  0
    1.3424    2.4382   -1.8683 H   0  0  0  0  0  0  0  0  0  0  0  0
    1.2212    2.5591    0.2508 C   0  0  0  0  0  0  0  0  0  0  0  0
    0.1119    2.7796    0.7104 O   0  0  0  0  0  0  0  0  0  0  0  0
    2.3562    3.0552    0.7855 O   0  0  0  0  0  0  0  0  0  0  0  0
    2.0809    3.5180    1.5903 H   0  0  0  0  0  0  0  0  0  0  0  0
    0.7946   -0.4173    1.0598 C   0  0  0  0  0  0  0  0  0  0  0  0
    1.9884   -0.4901    1.3204 O   0  0  0  0  0  0  0  0  0  0  0  0
   -0.0755    0.0371    2.0341 N   0  0  0  0  0  0  0  0  0  0  0  0
   -1.0078    0.2954    1.7288 H   0  0  0  0  0  0  0  0  0  0  0  0
    0.3585    0.4247    3.3699 C   0  0  0  0  0  0  0  0  0  0  0  0
    1.0597    1.2639    3.3164 H   0  0  0  0  0  0  0  0  0  0  0  0
   -0.5018    0.7287    3.9739 H   0  0  0  0  0  0  0  0  0  0  0  0
    0.8515   -0.4154    3.8706 H   0  0  0  0  0  0  0  0  0  0  0  0
  1  2  1  0  0  0  0
  2  3  1  0  0  0  0
  2  4  1  0  0  0  0
  2  5  1  0  0  0  0
  5  6  2  0  0  0  0
  5  7  1  0  0  0  0
  7  8  1  0  0  0  0
  7  9  1  0  0  0  0
  9 10  1  0  0  0  0
  9 11  1  0  0  0  0
  9 21  1  0  0  0  0
 11 12  1  0  0  0  0
 11 13  1  0  0  0  0
 11 14  1  0  0  0  0
 14 15  1  0  0  0  0
 14 16  1  0  0  0  0
 14 17  1  0  0  0  0
 17 18  2  0  0  0  0
 17 19  1  0  0  0  0
 19 20  1  0  0  0  0
 21 22  2  0  0  0  0
 21 23  1  0  0  0  0
 23 24  1  0  0  0  0
 23 25  1  0  0  0  0
 25 26  1  0  0  0  0
 25 27  1  0  0  0  0
 25 28  1  0  0  0  0
M  END
$$$$

  -OEChem-03222214033D

 28 27  0     1  0  0  0  0  0999 V2000
   -2.6756   -4.1290    0.2685 H   0  0  0  0  0  0  0  0  0  0  0  0
   -2.6426   -3.1171   -0.1456 C   0  0  0  0  0  0  0  0  0  0  0  0
   -3.3476   -2.4895    0.4047 H   0  0  0  0  0  0  0  0  0  0  0  0
   -2.9416   -3.1576   -1.1958 H   0  0  0  0  0  0  0  0  0  0  0  0
   -1.2399   -2.5511   -0.0267 C   0  0  0  0  0  0  0  0  0  0  0  0
   -0.3517   -3.2270    0.4593 O   0  0  0  0  0  0  0  0  0  0  0  0
   -0.9736   -1.2771   -0.4899 N   0  0  0  0  0  0  0  0  0  0  0  0
   -1.7515   -0.7629   -0.8910 H   0  0  0  0  0  0  0  0  0  0  0  0
    0.3360   -0.6066   -0.3748 C   0  0  1  0  0  0  0  0  0  0  0  0
    1.0933   -1.2567   -0.8281 H   0  0  0  0  0  0  0  0  0  0  0  0
    0.2591    0.6697   -1.2558 C   0  0  0  0  0  0  0  0  0  0  0  0
    0.2655    0.3522   -2.3038 H   0  0  0  0  0  0  0  0  0  0  0  0
   -0.7072    1.1509   -1.0698 H   0  0  0  0  0  0  0  0  0  0  0  0
    1.3376    1.7684   -1.0802 C   0  0  0  0  0  0  0  0  0  0  0  0
    2.3114    1.3279   -1.3129 H   0  0  0  0  0  0  0  0  0  0  0  0
    1.1568    2.5654   -1.8058 H   0  0  0  0  0  0  0  0  0  0  0  0
    1.4482    2.4174    0.2964 C   0  0  0  0  0  0  0  0  0  0  0  0
    0.4178    2.7335    0.8684 O   0  0  0  0  0  0  0  0  0  0  0  0
    2.6802    2.6741    0.7829 O   0  0  0  0  0  0  0  0  0  0  0  0
    2.5382    3.0362    1.6696 H   0  0  0  0  0  0  0  0  0  0  0  0
    0.7923   -0.4418    1.0960 C   0  0  0  0  0  0  0  0  0  0  0  0
    1.9792   -0.5468    1.3763 O   0  0  0  0  0  0  0  0  0  0  0  0
   -0.0884   -0.0001    2.0669 N   0  0  0  0  0  0  0  0  0  0  0  0
   -1.0174    0.2634    1.7573 H   0  0  0  0  0  0  0  0  0  0  0  0
    0.3239    0.3375    3.4228 C   0  0  0  0  0  0  0  0  0  0  0  0
    1.0274    1.1764    3.4111 H   0  0  0  0  0  0  0  0  0  0  0  0
   -0.5458    0.6217    4.0227 H   0  0  0  0  0  0  0  0  0  0  0  0
    0.8067   -0.5217    3.9005 H   0  0  0  0  0  0  0  0  0  0  0  0
  1  2  1  0  0  0  0
  2  3  1  0  0  0  0
  2  4  1  0  0  0  0
  2  5  1  0  0  0  0
  5  6  2  0  0  0  0
  5  7  1  0  0  0  0
  7  8  1  0  0  0  0
  7  9  1  0  0  0  0
  9 10  1  0  0  0  0
  9 11  1  0  0  0  0
  9 21  1  0  0  0  0
 11 12  1  0  0  0  0
 11 13  1  0  0  0  0
 11 14  1  0  0  0  0
 14 15  1  0  0  0  0
 14 16  1  0  0  0  0
 14 17  1  0  0  0  0
 17 18  2  0  0  0  0
 17 19  1  0  0  0  0
 19 20  1  0  0  0  0
 21 22  2  0  0  0  0
 21 23  1  0  0  0  0
 23 24  1  0  0  0  0
 23 25  1  0  0  0  0
 25 26  1  0  0  0  0
 25 27  1  0  0  0  0
 25 28  1  0  0  0  0
M  END
$$$$

  -OEChem-03222214033D

 28 27  0     1  0  0  0  0  0999 V2000
   -2.6844   -4.1136    0.2588 H   0  0  0  0  0  0  0  0  0  0  0  0
   -2.6390   -3.1013   -0.1531 C   0  0  0  0  0  0  0  0  0  0  0  0
   -3.3455   -2.4697    0.3905 H   0  0  0  0  0  0  0  0  0  0  0  0
   -2.9256   -3.1377   -1.2067 H   0  0  0  0  0  0  0  0  0  0  0  0
   -1.2339   -2.5461   -0.0167 C   0  0  0  0  0  0  0  0  0  0  0  0
   -0.3580   -3.2295    0.4802 O   0  0  0  0  0  0  0  0  0  0  0  0
   -0.9527   -1.2749   -0.4796 N   0  0  0  0  0  0  0  0  0  0  0  0
   -1.7189   -0.7633   -0.9051 H   0  0  0  0  0  0  0  0  0  0  0  0
    0.3630   -0.6149   -0.3596 C   0  0  1  0  0  0  0  0  0  0  0  0
    1.1234   -1.2625   -0.8116 H   0  0  0  0  0  0  0  0  0  0  0  0
    0.2730    0.6676   -1.2368 C   0  0  0  0  0  0  0  0  0  0  0  0
    0.2389    0.3559   -2.2859 H   0  0  0  0  0  0  0  0  0  0  0  0
   -0.6886    1.1399   -1.0085 H   0  0  0  0  0  0  0  0  0  0  0  0
    1.3235    1.8031   -1.1100 C   0  0  0  0  0  0  0  0  0  0  0  0
    2.2379    1.4610   -1.6030 H   0  0  0  0  0  0  0  0  0  0  0  0
    0.9695    2.6792   -1.6597 H   0  0  0  0  0  0  0  0  0  0  0  0
    1.7282    2.2627    0.2842 C   0  0  0  0  0  0  0  0  0  0  0  0
    0.8526    2.6873    1.0193 O   0  0  0  0  0  0  0  0  0  0  0  0
    3.0356    2.2286    0.6164 O   0  0  0  0  0  0  0  0  0  0  0  0
    3.0686    2.4550    1.5577 H   0  0  0  0  0  0  0  0  0  0  0  0
    0.7905   -0.4644    1.1225 C   0  0  0  0  0  0  0  0  0  0  0  0
    1.9614   -0.6256    1.4406 O   0  0  0  0  0  0  0  0  0  0  0  0
   -0.1086   -0.0202    2.0757 N   0  0  0  0  0  0  0  0  0  0  0  0
   -1.0320    0.2437    1.7518 H   0  0  0  0  0  0  0  0  0  0  0  0
    0.2668    0.2714    3.4527 C   0  0  0  0  0  0  0  0  0  0  0  0
    0.9917    1.0912    3.4862 H   0  0  0  0  0  0  0  0  0  0  0  0
   -0.6143    0.5640    4.0315 H   0  0  0  0  0  0  0  0  0  0  0  0
    0.7106   -0.6126    3.9229 H   0  0  0  0  0  0  0  0  0  0  0  0
  1  2  1  0  0  0  0
  2  3  1  0  0  0  0
  2  4  1  0  0  0  0
  2  5  1  0  0  0  0
  5  6  2  0  0  0  0
  5  7  1  0  0  0  0
  7  8  1  0  0  0  0
  7  9  1  0  0  0  0
  9 10  1  0  0  0  0
  9 11  1  0  0  0  0
  9 21  1  0  0  0  0
 11 12  1  0  0  0  0
 11 13  1  0  0  0  0
 11 14  1  0  0  0  0
 14 15  1  0  0  0  0
 14 16  1  0  0  0  0
 14 17  1  0  0  0  0
 17 18  2  0  0  0  0
 17 19  1  0  0  0  0
 19 20  1  0  0  0  0
 21 22  2  0  0  0  0
 21 23  1  0  0  0  0
 23 24  1  0  0  0  0
 23 25  1  0  0  0  0
 25 26  1  0  0  0  0
 25 27  1  0  0  0  0
 25 28  1  0  0  0  0
M  END
$$$$

  -OEChem-03222214033D

 28 27  0     1  0  0  0  0  0999 V2000
   -2.6967   -4.0867    0.2609 H   0  0  0  0  0  0  0  0  0  0  0  0
   -2.6365   -3.0788   -0.1597 C   0  0  0  0  0  0  0  0  0  0  0  0
   -3.3441   -2.4360    0.3691 H   0  0  0  0  0  0  0  0  0  0  0  0
   -2.9105   -3.1223   -1.2164 H   0  0  0  0  0  0  0  0  0  0  0  0
   -1.2279   -2.5357   -0.0101 C   0  0  0  0  0  0  0  0  0  0  0  0
   -0.3658   -3.2241    0.5033 O   0  0  0  0  0  0  0  0  0  0  0  0
   -0.9295   -1.2702   -0.4789 N   0  0  0  0  0  0  0  0  0  0  0  0
   -1.6801   -0.7660   -0.9398 H   0  0  0  0  0  0  0  0  0  0  0  0
    0.3935   -0.6222   -0.3577 C   0  0  1  0  0  0  0  0  0  0  0  0
    1.1574   -1.2614   -0.8154 H   0  0  0  0  0  0  0  0  0  0  0  0
    0.2799    0.6769   -1.2113 C   0  0  0  0  0  0  0  0  0  0  0  0
    0.2087    0.3840   -2.2642 H   0  0  0  0  0  0  0  0  0  0  0  0
   -0.6773    1.1358   -0.9407 H   0  0  0  0  0  0  0  0  0  0  0  0
    1.3118    1.8356   -1.1093 C   0  0  0  0  0  0  0  0  0  0  0  0
    2.1002    1.6336   -1.8400 H   0  0  0  0  0  0  0  0  0  0  0  0
    0.8296    2.7690   -1.4129 H   0  0  0  0  0  0  0  0  0  0  0  0
    2.0198    2.0830    0.2141 C   0  0  0  0  0  0  0  0  0  0  0  0
    1.3825    2.6081    1.1108 O   0  0  0  0  0  0  0  0  0  0  0  0
    3.3182    1.7313    0.3187 O   0  0  0  0  0  0  0  0  0  0  0  0
    3.5288    1.8081    1.2621 H   0  0  0  0  0  0  0  0  0  0  0  0
    0.7969   -0.4770    1.1333 C   0  0  0  0  0  0  0  0  0  0  0  0
    1.9489   -0.6944    1.4870 O   0  0  0  0  0  0  0  0  0  0  0  0
   -0.1178   -0.0221    2.0663 N   0  0  0  0  0  0  0  0  0  0  0  0
   -1.0449    0.2129    1.7322 H   0  0  0  0  0  0  0  0  0  0  0  0
    0.2218    0.2343    3.4597 C   0  0  0  0  0  0  0  0  0  0  0  0
    0.9862    1.0152    3.5297 H   0  0  0  0  0  0  0  0  0  0  0  0
   -0.6633    0.5662    4.0104 H   0  0  0  0  0  0  0  0  0  0  0  0
    0.6030   -0.6762    3.9340 H   0  0  0  0  0  0  0  0  0  0  0  0
  1  2  1  0  0  0  0
  2  3  1  0  0  0  0
  2  4  1  0  0  0  0
  2  5  1  0  0  0  0
  5  6  2  0  0  0  0
  5  7  1  0  0  0  0
  7  8  1  0  0  0  0
  7  9  1  0  0  0  0
  9 10  1  0  0  0  0
  9 11  1  0  0  0  0
  9 21  1  0  0  0  0
 11 12  1  0  0  0  0
 11 13  1  0  0  0  0
 11 14  1  0  0  0  0
 14 15  1  0  0  0  0
 14 16  1  0  0  0  0
 14 17  1  0  0  0  0
 17 18  2  0  0  0  0
 17 19  1  0  0  0  0
 19 20  1  0  0  0  0
 21 22  2  0  0  0  0
 21 23  1  0  0  0  0
 23 24  1  0  0  0  0
 23 25  1  0  0  0  0
 25 26  1  0  0  0  0
 25 27  1  0  0  0  0
 25 28  1  0  0  0  0
M  END
$$$$

  -OEChem-03222214033D

 28 27  0     1  0  0  0  0  0999 V2000
   -2.5685   -4.1692    0.2561 H   0  0  0  0  0  0  0  0  0  0  0  0
   -2.5316   -3.1626   -0.1704 C   0  0  0  0  0  0  0  0  0  0  0  0
   -3.2782   -2.5418    0.3304 H   0  0  0  0  0  0  0  0  0  0  0  0
   -2.7702   -3.2239   -1.2349 H   0  0  0  0  0  0  0  0  0  0  0  0
   -1.1491   -2.5677    0.0186 C   0  0  0  0  0  0  0  0  0  0  0  0
   -0.2833   -3.2158    0.5757 O   0  0  0  0  0  0  0  0  0  0  0  0
   -0.8787   -1.3024   -0.4676 N   0  0  0  0  0  0  0  0  0  0  0  0
   -1.6239   -0.8457   -0.9834 H   0  0  0  0  0  0  0  0  0  0  0  0
    0.4275   -0.6190   -0.3526 C   0  0  1  0  0  0  0  0  0  0  0  0
    1.2140   -1.2279   -0.8131 H   0  0  0  0  0  0  0  0  0  0  0  0
    0.2471    0.6819   -1.1943 C   0  0  0  0  0  0  0  0  0  0  0  0
    0.1714    0.3892   -2.2470 H   0  0  0  0  0  0  0  0  0  0  0  0
   -0.7252    1.0986   -0.9094 H   0  0  0  0  0  0  0  0  0  0  0  0
    1.2305    1.8853   -1.1082 C   0  0  0  0  0  0  0  0  0  0  0  0
    1.8448    1.8762   -2.0129 H   0  0  0  0  0  0  0  0  0  0  0  0
    0.6558    2.8158   -1.1268 H   0  0  0  0  0  0  0  0  0  0  0  0
    2.2035    1.9573    0.0573 C   0  0  0  0  0  0  0  0  0  0  0  0
    1.8544    2.5581    1.0586 O   0  0  0  0  0  0  0  0  0  0  0  0
    3.3987    1.3467   -0.0788 O   0  0  0  0  0  0  0  0  0  0  0  0
    3.7680    1.3154    0.8187 H   0  0  0  0  0  0  0  0  0  0  0  0
    0.8187   -0.4431    1.1398 C   0  0  0  0  0  0  0  0  0  0  0  0
    1.9631   -0.6688    1.5145 O   0  0  0  0  0  0  0  0  0  0  0  0
   -0.1130    0.0026    2.0602 N   0  0  0  0  0  0  0  0  0  0  0  0
   -1.0540    0.1743    1.7263 H   0  0  0  0  0  0  0  0  0  0  0  0
    0.2054    0.2552    3.4594 C   0  0  0  0  0  0  0  0  0  0  0  0
    0.9809    1.0244    3.5410 H   0  0  0  0  0  0  0  0  0  0  0  0
   -0.6834    0.6024    3.9944 H   0  0  0  0  0  0  0  0  0  0  0  0
    0.5641   -0.6604    3.9414 H   0  0  0  0  0  0  0  0  0  0  0  0
  1  2  1  0  0  0  0
  2  3  1  0  0  0  0
  2  4  1  0  0  0  0
  2  5  1  0  0  0  0
  5  6  2  0  0  0  0
  5  7  1  0  0  0  0
  7  8  1  0  0  0  0
  7  9  1  0  0  0  0
  9 10  1  0  0  0  0
  9 11  1  0  0  0  0
  9 21  1  0  0  0  0
 11 12  1  0  0  0  0
 11 13  1  0  0  0  0
 11 14  1  0  0  0  0
 14 15  1  0  0  0  0
 14 16  1  0  0  0  0
 14 17  1  0  0  0  0
 17 18  2  0  0  0  0
 17 19  1  0  0  0  0
 19 20  1  0  0  0  0
 21 22  2  0  0  0  0
 21 23  1  0  0  0  0
 23 24  1  0  0  0  0
 23 25  1  0  0  0  0
 25 26  1  0  0  0  0
 25 27  1  0  0  0  0
 25 28  1  0  0  0  0
M  END
$$$$

  -OEChem-03222214033D

 28 27  0     1  0  0  0  0  0999 V2000
   -2.6982   -4.0618    0.5612 H   0  0  0  0  0  0  0  0  0  0  0  0
   -2.6281   -3.0961    0.0520 C   0  0  0  0  0  0  0  0  0  0  0  0
   -3.3647   -2.4159    0.4862 H   0  0  0  0  0  0  0  0  0  0  0  0
   -2.8541   -3.2416   -1.0070 H   0  0  0  0  0  0  0  0  0  0  0  0
   -1.2325   -2.5224    0.2121 C   0  0  0  0  0  0  0  0  0  0  0  0
   -0.4027   -3.1306    0.8607 O   0  0  0  0  0  0  0  0  0  0  0  0
   -0.9188   -1.3184   -0.3909 N   0  0  0  0  0  0  0  0  0  0  0  0
   -1.6276   -0.9308   -1.0053 H   0  0  0  0  0  0  0  0  0  0  0  0
    0.4263   -0.7006   -0.3978 C   0  0  1  0  0  0  0  0  0  0  0  0
    1.1629   -1.3682   -0.8602 H   0  0  0  0  0  0  0  0  0  0  0  0
    0.2445    0.5710   -1.2803 C   0  0  0  0  0  0  0  0  0  0  0  0
    0.1099    0.2262   -2.3111 H   0  0  0  0  0  0  0  0  0  0  0  0
   -0.6957    1.0453   -0.9784 H   0  0  0  0  0  0  0  0  0  0  0  0
    1.2962    1.7180   -1.3123 C   0  0  0  0  0  0  0  0  0  0  0  0
    1.6288    1.8524   -2.3458 H   0  0  0  0  0  0  0  0  0  0  0  0
    0.8031    2.6482   -1.0168 H   0  0  0  0  0  0  0  0  0  0  0  0
    2.5457    1.5876   -0.4546 C   0  0  0  0  0  0  0  0  0  0  0  0
    3.4845    0.9643   -0.9148 O   0  0  0  0  0  0  0  0  0  0  0  0
    2.5619    2.1860    0.7550 O   0  0  0  0  0  0  0  0  0  0  0  0
    3.3657    1.8426    1.1788 H   0  0  0  0  0  0  0  0  0  0  0  0
    0.8898   -0.4315    1.0608 C   0  0  0  0  0  0  0  0  0  0  0  0
    2.0321   -0.6864    1.4201 O   0  0  0  0  0  0  0  0  0  0  0  0
    0.0147    0.1346    1.9715 N   0  0  0  0  0  0  0  0  0  0  0  0
   -0.9573    0.1872    1.6890 H   0  0  0  0  0  0  0  0  0  0  0  0
    0.3503    0.3204    3.3774 C   0  0  0  0  0  0  0  0  0  0  0  0
    1.2354    0.9574    3.4780 H   0  0  0  0  0  0  0  0  0  0  0  0
   -0.4794    0.7995    3.9056 H   0  0  0  0  0  0  0  0  0  0  0  0
    0.5551   -0.6451    3.8523 H   0  0  0  0  0  0  0  0  0  0  0  0
  1  2  1  0  0  0  0
  2  3  1  0  0  0  0
  2  4  1  0  0  0  0
  2  5  1  0  0  0  0
  5  6  2  0  0  0  0
  5  7  1  0  0  0  0
  7  8  1  0  0  0  0
  7  9  1  0  0  0  0
  9 10  1  0  0  0  0
  9 11  1  0  0  0  0
  9 21  1  0  0  0  0
 11 12  1  0  0  0  0
 11 13  1  0  0  0  0
 11 14  1  0  0  0  0
 14 15  1  0  0  0  0
 14 16  1  0  0  0  0
 14 17  1  0  0  0  0
 17 18  2  0  0  0  0
 17 19  1  0  0  0  0
 19 20  1  0  0  0  0
 21 22  2  0  0  0  0
 21 23  1  0  0  0  0
 23 24  1  0  0  0  0
 23 25  1  0  0  0  0
 25 26  1  0  0  0  0
 25 27  1  0  0  0  0
 25 28  1  0  0  0  0
M  END
$$$$

  -OEChem-03222214033D

 28 27  0     1  0  0  0  0  0999 V2000
   -2.8083   -3.9783    0.4728 H   0  0  0  0  0  0  0  0  0  0  0  0
   -2.7072   -3.0168   -0.0391 C   0  0  0  0  0  0  0  0  0  0  0  0
   -3.4598   -2.3289    0.3535 H   0  0  0  0  0  0  0  0  0  0  0  0
   -2.8814   -3.1688   -1.1070 H   0  0  0  0  0  0  0  0  0  0  0  0
   -1.3173   -2.4510    0.1854 C   0  0  0  0  0  0  0  0  0  0  0  0
   -0.5307   -3.0530    0.8911 O   0  0  0  0  0  0  0  0  0  0  0  0
   -0.9622   -1.2594   -0.4197 N   0  0  0  0  0  0  0  0  0  0  0  0
   -1.6296   -0.8900   -1.0895 H   0  0  0  0  0  0  0  0  0  0  0  0
    0.4015   -0.6842   -0.4131 C   0  0  1  0  0  0  0  0  0  0  0  0
    1.1205   -1.3699   -0.8769 H   0  0  0  0  0  0  0  0  0  0  0  0
    0.2673    0.6075   -1.2710 C   0  0  0  0  0  0  0  0  0  0  0  0
    0.1585    0.2789   -2.3101 H   0  0  0  0  0  0  0  0  0  0  0  0
   -0.6643    1.1135   -0.9956 H   0  0  0  0  0  0  0  0  0  0  0  0
    1.3779    1.6939   -1.2504 C   0  0  0  0  0  0  0  0  0  0  0  0
    1.5433    2.0602   -2.2672 H   0  0  0  0  0  0  0  0  0  0  0  0
    1.0162    2.5402   -0.6595 H   0  0  0  0  0  0  0  0  0  0  0  0
    2.7272    1.2990   -0.6669 C   0  0  0  0  0  0  0  0  0  0  0  0
    3.3749    0.4577   -1.2636 O   0  0  0  0  0  0  0  0  0  0  0  0
    3.1406    1.9021    0.4673 O   0  0  0  0  0  0  0  0  0  0  0  0
    3.9129    1.3848    0.7477 H   0  0  0  0  0  0  0  0  0  0  0  0
    0.8692   -0.4188    1.0456 C   0  0  0  0  0  0  0  0  0  0  0  0
    2.0025   -0.7028    1.4114 O   0  0  0  0  0  0  0  0  0  0  0  0
    0.0079    0.1816    1.9471 N   0  0  0  0  0  0  0  0  0  0  0  0
   -0.9649    0.2311    1.6660 H   0  0  0  0  0  0  0  0  0  0  0  0
    0.3382    0.3460    3.3573 C   0  0  0  0  0  0  0  0  0  0  0  0
    1.2514    0.9400    3.4706 H   0  0  0  0  0  0  0  0  0  0  0  0
   -0.4735    0.8613    3.8793 H   0  0  0  0  0  0  0  0  0  0  0  0
    0.4925   -0.6300    3.8298 H   0  0  0  0  0  0  0  0  0  0  0  0
  1  2  1  0  0  0  0
  2  3  1  0  0  0  0
  2  4  1  0  0  0  0
  2  5  1  0  0  0  0
  5  6  2  0  0  0  0
  5  7  1  0  0  0  0
  7  8  1  0  0  0  0
  7  9  1  0  0  0  0
  9 10  1  0  0  0  0
  9 11  1  0  0  0  0
  9 21  1  0  0  0  0
 11 12  1  0  0  0  0
 11 13  1  0  0  0  0
 11 14  1  0  0  0  0
 14 15  1  0  0  0  0
 14 16  1  0  0  0  0
 14 17  1  0  0  0  0
 17 18  2  0  0  0  0
 17 19  1  0  0  0  0
 19 20  1  0  0  0  0
 21 22  2  0  0  0  0
 21 23  1  0  0  0  0
 23 24  1  0  0  0  0
 23 25  1  0  0  0  0
 25 26  1  0  0  0  0
 25 27  1  0  0  0  0
 25 28  1  0  0  0  0
M  END
$$$$

  -OEChem-03222214033D

 28 27  0     1  0  0  0  0  0999 V2000
   -2.7443   -4.0393    0.4340 H   0  0  0  0  0  0  0  0  0  0  0  0
   -2.6722   -3.0694   -0.0665 C   0  0  0  0  0  0  0  0  0  0  0  0
   -3.4461   -2.4093    0.3322 H   0  0  0  0  0  0  0  0  0  0  0  0
   -2.8393   -3.2145   -1.1364 H   0  0  0  0  0  0  0  0  0  0  0  0
   -1.3014   -2.4633    0.1674 C   0  0  0  0  0  0  0  0  0  0  0  0
   -0.5055   -3.0354    0.8877 O   0  0  0  0  0  0  0  0  0  0  0  0
   -0.9765   -1.2638   -0.4381 N   0  0  0  0  0  0  0  0  0  0  0  0
   -1.6450   -0.9195   -1.1202 H   0  0  0  0  0  0  0  0  0  0  0  0
    0.3737   -0.6606   -0.4307 C   0  0  1  0  0  0  0  0  0  0  0  0
    1.0994   -1.3357   -0.8995 H   0  0  0  0  0  0  0  0  0  0  0  0
    0.2314    0.6386   -1.2694 C   0  0  0  0  0  0  0  0  0  0  0  0
    0.1426    0.3292   -2.3164 H   0  0  0  0  0  0  0  0  0  0  0  0
   -0.7032    1.1410   -0.9982 H   0  0  0  0  0  0  0  0  0  0  0  0
    1.3561    1.7037   -1.1954 C   0  0  0  0  0  0  0  0  0  0  0  0
    1.3705    2.2888   -2.1184 H   0  0  0  0  0  0  0  0  0  0  0  0
    1.1202    2.3905   -0.3774 H   0  0  0  0  0  0  0  0  0  0  0  0
    2.7643    1.1784   -0.9343 C   0  0  0  0  0  0  0  0  0  0  0  0
    3.1749    0.2696   -1.6348 O   0  0  0  0  0  0  0  0  0  0  0  0
    3.4969    1.7683    0.0331 O   0  0  0  0  0  0  0  0  0  0  0  0
    4.2791    1.2026    0.1273 H   0  0  0  0  0  0  0  0  0  0  0  0
    0.8552   -0.3788    1.0188 C   0  0  0  0  0  0  0  0  0  0  0  0
    2.0133   -0.5877    1.3541 O   0  0  0  0  0  0  0  0  0  0  0  0
   -0.0081    0.2079    1.9273 N   0  0  0  0  0  0  0  0  0  0  0  0
   -0.9890    0.2038    1.6699 H   0  0  0  0  0  0  0  0  0  0  0  0
    0.3460    0.4077    3.3270 C   0  0  0  0  0  0  0  0  0  0  0  0
    1.2316    1.0465    3.4115 H   0  0  0  0  0  0  0  0  0  0  0  0
   -0.4779    0.8903    3.8609 H   0  0  0  0  0  0  0  0  0  0  0  0
    0.5580   -0.5531    3.8079 H   0  0  0  0  0  0  0  0  0  0  0  0
  1  2  1  0  0  0  0
  2  3  1  0  0  0  0
  2  4  1  0  0  0  0
  2  5  1  0  0  0  0
  5  6  2  0  0  0  0
  5  7  1  0  0  0  0
  7  8  1  0  0  0  0
  7  9  1  0  0  0  0
  9 10  1  0  0  0  0
  9 11  1  0  0  0  0
  9 21  1  0  0  0  0
 11 12  1  0  0  0  0
 11 13  1  0  0  0  0
 11 14  1  0  0  0  0
 14 15  1  0  0  0  0
 14 16  1  0  0  0  0
 14 17  1  0  0  0  0
 17 18  2  0  0  0  0
 17 19  1  0  0  0  0
 19 20  1  0  0  0  0
 21 22  2  0  0  0  0
 21 23  1  0  0  0  0
 23 24  1  0  0  0  0
 23 25  1  0  0  0  0
 25 26  1  0  0  0  0
 25 27  1  0  0  0  0
 25 28  1  0  0  0  0
M  END
$$$$

  -OEChem-03222214033D

 28 27  0     1  0  0  0  0  0999 V2000
   -2.6940   -4.0920    0.3942 H   0  0  0  0  0  0  0  0  0  0  0  0
   -2.6419   -3.1243   -0.1133 C   0  0  0  0  0  0  0  0  0  0  0  0
   -3.4458   -2.4870    0.2623 H   0  0  0  0  0  0  0  0  0  0  0  0
   -2.7808   -3.2833   -1.1854 H   0  0  0  0  0  0  0  0  0  0  0  0
   -1.2968   -2.4719    0.1456 C   0  0  0  0  0  0  0  0  0  0  0  0
   -0.4953   -3.0152    0.8823 O   0  0  0  0  0  0  0  0  0  0  0  0
   -1.0030   -1.2583   -0.4471 N   0  0  0  0  0  0  0  0  0  0  0  0
   -1.6689   -0.9373   -1.1430 H   0  0  0  0  0  0  0  0  0  0  0  0
    0.3343   -0.6291   -0.4376 C   0  0  1  0  0  0  0  0  0  0  0  0
    1.0623   -1.2952   -0.9152 H   0  0  0  0  0  0  0  0  0  0  0  0
    0.1924    0.6738   -1.2657 C   0  0  0  0  0  0  0  0  0  0  0  0
    0.1082    0.3883   -2.3200 H   0  0  0  0  0  0  0  0  0  0  0  0
   -0.7386    1.1775   -0.9857 H   0  0  0  0  0  0  0  0  0  0  0  0
    1.3329    1.7137   -1.1394 C   0  0  0  0  0  0  0  0  0  0  0  0
    1.2277    2.4691   -1.9220 H   0  0  0  0  0  0  0  0  0  0  0  0
    1.2387    2.2247   -0.1770 H   0  0  0  0  0  0  0  0  0  0  0  0
    2.7472    1.1399   -1.2134 C   0  0  0  0  0  0  0  0  0  0  0  0
    2.9675    0.2271   -1.9913 O   0  0  0  0  0  0  0  0  0  0  0  0
    3.6995    1.7133   -0.4484 O   0  0  0  0  0  0  0  0  0  0  0  0
    4.4820    1.1536   -0.5648 H   0  0  0  0  0  0  0  0  0  0  0  0
    0.8400   -0.3466    1.0017 C   0  0  0  0  0  0  0  0  0  0  0  0
    2.0263   -0.4575    1.2804 O   0  0  0  0  0  0  0  0  0  0  0  0
   -0.0150    0.2172    1.9321 N   0  0  0  0  0  0  0  0  0  0  0  0
   -1.0039    0.1460    1.7183 H   0  0  0  0  0  0  0  0  0  0  0  0
    0.3835    0.4594    3.3131 C   0  0  0  0  0  0  0  0  0  0  0  0
    1.2426    1.1376    3.3509 H   0  0  0  0  0  0  0  0  0  0  0  0
   -0.4398    0.9161    3.8704 H   0  0  0  0  0  0  0  0  0  0  0  0
    0.6562   -0.4819    3.8024 H   0  0  0  0  0  0  0  0  0  0  0  0
  1  2  1  0  0  0  0
  2  3  1  0  0  0  0
  2  4  1  0  0  0  0
  2  5  1  0  0  0  0
  5  6  2  0  0  0  0
  5  7  1  0  0  0  0
  7  8  1  0  0  0  0
  7  9  1  0  0  0  0
  9 10  1  0  0  0  0
  9 11  1  0  0  0  0
  9 21  1  0  0  0  0
 11 12  1  0  0  0  0
 11 13  1  0  0  0  0
 11 14  1  0  0  0  0
 14 15  1  0  0  0  0
 14 16  1  0  0  0  0
 14 17  1  0  0  0  0
 17 18  2  0  0  0  0
 17 19  1  0  0  0  0
 19 20  1  0  0  0  0
 21 22  2  0  0  0  0
 21 23  1  0  0  0  0
 23 24  1  0  0  0  0
 23 25  1  0  0  0  0
 25 26  1  0  0  0  0
 25 27  1  0  0  0  0
 25 28  1  0  0  0  0
M  END
$$$$

  -OEChem-03222214033D

 28 27  0     1  0  0  0  0  0999 V2000
   -2.6436   -4.1363    0.3349 H   0  0  0  0  0  0  0  0  0  0  0  0
   -2.6162   -3.1575   -0.1527 C   0  0  0  0  0  0  0  0  0  0  0  0
   -3.4373   -2.5491    0.2334 H   0  0  0  0  0  0  0  0  0  0  0  0
   -2.7486   -3.2983   -1.2282 H   0  0  0  0  0  0  0  0  0  0  0  0
   -1.2897   -2.4751    0.1229 C   0  0  0  0  0  0  0  0  0  0  0  0
   -0.4789   -3.0071    0.8580 O   0  0  0  0  0  0  0  0  0  0  0  0
   -1.0216   -1.2473   -0.4516 N   0  0  0  0  0  0  0  0  0  0  0  0
   -1.6917   -0.9311   -1.1459 H   0  0  0  0  0  0  0  0  0  0  0  0
    0.3055   -0.5985   -0.4366 C   0  0  1  0  0  0  0  0  0  0  0  0
    1.0369   -1.2572   -0.9197 H   0  0  0  0  0  0  0  0  0  0  0  0
    0.1681    0.7023   -1.2659 C   0  0  0  0  0  0  0  0  0  0  0  0
    0.0763    0.4345   -2.3242 H   0  0  0  0  0  0  0  0  0  0  0  0
   -0.7578    1.2084   -0.9741 H   0  0  0  0  0  0  0  0  0  0  0  0
    1.3192    1.7239   -1.1005 C   0  0  0  0  0  0  0  0  0  0  0  0
    1.1119    2.5997   -1.7200 H   0  0  0  0  0  0  0  0  0  0  0  0
    1.3722    2.0685   -0.0640 H   0  0  0  0  0  0  0  0  0  0  0  0
    2.6943    1.1867   -1.5003 C   0  0  0  0  0  0  0  0  0  0  0  0
    2.7672    0.2895   -2.3235 O   0  0  0  0  0  0  0  0  0  0  0  0
    3.7757    1.7755   -0.9487 O   0  0  0  0  0  0  0  0  0  0  0  0
    4.5311    1.2593   -1.2680 H   0  0  0  0  0  0  0  0  0  0  0  0
    0.8273   -0.3259    0.9971 C   0  0  0  0  0  0  0  0  0  0  0  0
    2.0275   -0.3666    1.2335 O   0  0  0  0  0  0  0  0  0  0  0  0
   -0.0224    0.2133    1.9465 N   0  0  0  0  0  0  0  0  0  0  0  0
   -1.0136    0.1066    1.7580 H   0  0  0  0  0  0  0  0  0  0  0  0
    0.4019    0.4817    3.3151 C   0  0  0  0  0  0  0  0  0  0  0  0
    1.2349    1.1926    3.3266 H   0  0  0  0  0  0  0  0  0  0  0  0
   -0.4237    0.9114    3.8901 H   0  0  0  0  0  0  0  0  0  0  0  0
    0.7224   -0.4444    3.8042 H   0  0  0  0  0  0  0  0  0  0  0  0
  1  2  1  0  0  0  0
  2  3  1  0  0  0  0
  2  4  1  0  0  0  0
  2  5  1  0  0  0  0
  5  6  2  0  0  0  0
  5  7  1  0  0  0  0
  7  8  1  0  0  0  0
  7  9  1  0  0  0  0
  9 10  1  0  0  0  0
  9 11  1  0  0  0  0
  9 21  1  0  0  0  0
 11 12  1  0  0  0  0
 11 13  1  0  0  0  0
 11 14  1  0  0  0  0
 14 15  1  0  0  0  0
 14 16  1  0  0  0  0
 14 17  1  0  0  0  0
 17 18  2  0  0  0  0
 17 19  1  0  0  0  0
 19 20  1  0  0  0  0
 21 22  2  0  0  0  0
 21 23  1  0  0  0  0
 23 24  1  0  0  0  0
 23 25  1  0  0  0  0
 25 26  1  0  0  0  0
 25 27  1  0  0  0  0
 25 28  1  0  0  0  0
M  END
$$$$

  -OEChem-03222214033D

 28 27  0     1  0  0  0  0  0999 V2000
   -2.6345   -4.1431    0.3003 H   0  0  0  0  0  0  0  0  0  0  0  0
   -2.6155   -3.1549   -0.1682 C   0  0  0  0  0  0  0  0  0  0  0  0
   -3.4375   -2.5585    0.2345 H   0  0  0  0  0  0  0  0  0  0  0  0
   -2.7537   -3.2754   -1.2454 H   0  0  0  0  0  0  0  0  0  0  0  0
   -1.2908   -2.4714    0.1129 C   0  0  0  0  0  0  0  0  0  0  0  0
   -0.4797   -3.0063    0.8458 O   0  0  0  0  0  0  0  0  0  0  0  0
   -1.0253   -1.2378   -0.4507 N   0  0  0  0  0  0  0  0  0  0  0  0
   -1.6927   -0.9195   -1.1467 H   0  0  0  0  0  0  0  0  0  0  0  0
    0.2998   -0.5854   -0.4255 C   0  0  1  0  0  0  0  0  0  0  0  0
    1.0349   -1.2436   -0.9040 H   0  0  0  0  0  0  0  0  0  0  0  0
    0.1740    0.7071   -1.2691 C   0  0  0  0  0  0  0  0  0  0  0  0
    0.0661    0.4422   -2.3266 H   0  0  0  0  0  0  0  0  0  0  0  0
   -0.7473    1.2171   -0.9691 H   0  0  0  0  0  0  0  0  0  0  0  0
    1.3251    1.7298   -1.0945 C   0  0  0  0  0  0  0  0  0  0  0  0
    1.0128    2.6790   -1.5367 H   0  0  0  0  0  0  0  0  0  0  0  0
    1.5320    1.9292   -0.0405 H   0  0  0  0  0  0  0  0  0  0  0  0
    2.6268    1.3273   -1.7904 C   0  0  0  0  0  0  0  0  0  0  0  0
    2.6288    0.4080   -2.5920 O   0  0  0  0  0  0  0  0  0  0  0  0
    3.7266    2.0516   -1.4963 O   0  0  0  0  0  0  0  0  0  0  0  0
    4.4448    1.6251   -1.9877 H   0  0  0  0  0  0  0  0  0  0  0  0
    0.8168   -0.3230    1.0112 C   0  0  0  0  0  0  0  0  0  0  0  0
    2.0178   -0.3576    1.2463 O   0  0  0  0  0  0  0  0  0  0  0  0
   -0.0357    0.2058    1.9638 N   0  0  0  0  0  0  0  0  0  0  0  0
   -1.0260    0.0904    1.7752 H   0  0  0  0  0  0  0  0  0  0  0  0
    0.3864    0.4538    3.3371 C   0  0  0  0  0  0  0  0  0  0  0  0
    1.2196    1.1641    3.3609 H   0  0  0  0  0  0  0  0  0  0  0  0
   -0.4399    0.8746    3.9178 H   0  0  0  0  0  0  0  0  0  0  0  0
    0.7065   -0.4796    3.8123 H   0  0  0  0  0  0  0  0  0  0  0  0
  1  2  1  0  0  0  0
  2  3  1  0  0  0  0
  2  4  1  0  0  0  0
  2  5  1  0  0  0  0
  5  6  2  0  0  0  0
  5  7  1  0  0  0  0
  7  8  1  0  0  0  0
  7  9  1  0  0  0  0
  9 10  1  0  0  0  0
  9 11  1  0  0  0  0
  9 21  1  0  0  0  0
 11 12  1  0  0  0  0
 11 13  1  0  0  0  0
 11 14  1  0  0  0  0
 14 15  1  0  0  0  0
 14 16  1  0  0  0  0
 14 17  1  0  0  0  0
 17 18  2  0  0  0  0
 17 19  1  0  0  0  0
 19 20  1  0  0  0  0
 21 22  2  0  0  0  0
 21 23  1  0  0  0  0
 23 24  1  0  0  0  0
 23 25  1  0  0  0  0
 25 26  1  0  0  0  0
 25 27  1  0  0  0  0
 25 28  1  0  0  0  0
M  END
$$$$

  -OEChem-03222214033D

 28 27  0     1  0  0  0  0  0999 V2000
   -2.6809   -4.1111    0.2985 H   0  0  0  0  0  0  0  0  0  0  0  0
   -2.6304   -3.1340   -0.1908 C   0  0  0  0  0  0  0  0  0  0  0  0
   -3.4520   -2.5142    0.1754 H   0  0  0  0  0  0  0  0  0  0  0  0
   -2.7410   -3.2761   -1.2685 H   0  0  0  0  0  0  0  0  0  0  0  0
   -1.3016   -2.4674    0.1112 C   0  0  0  0  0  0  0  0  0  0  0  0
   -0.5035   -3.0176    0.8468 O   0  0  0  0  0  0  0  0  0  0  0  0
   -1.0147   -1.2360   -0.4464 N   0  0  0  0  0  0  0  0  0  0  0  0
   -1.6741   -0.9053   -1.1441 H   0  0  0  0  0  0  0  0  0  0  0  0
    0.3175   -0.5984   -0.4078 C   0  0  1  0  0  0  0  0  0  0  0  0
    1.0524   -1.2583   -0.8837 H   0  0  0  0  0  0  0  0  0  0  0  0
    0.2008    0.6961   -1.2501 C   0  0  0  0  0  0  0  0  0  0  0  0
    0.0687    0.4369   -2.3061 H   0  0  0  0  0  0  0  0  0  0  0  0
   -0.7153    1.2062   -0.9342 H   0  0  0  0  0  0  0  0  0  0  0  0
    1.3496    1.7271   -1.0822 C   0  0  0  0  0  0  0  0  0  0  0  0
    0.9428    2.7196   -1.2915 H   0  0  0  0  0  0  0  0  0  0  0  0
    1.7378    1.7625   -0.0632 H   0  0  0  0  0  0  0  0  0  0  0  0
    2.5189    1.5298   -2.0489 C   0  0  0  0  0  0  0  0  0  0  0  0
    2.5337    0.5753   -2.8075 O   0  0  0  0  0  0  0  0  0  0  0  0
    3.4919    2.4644   -2.0234 O   0  0  0  0  0  0  0  0  0  0  0  0
    4.1477    2.1596   -2.6690 H   0  0  0  0  0  0  0  0  0  0  0  0
    0.8183   -0.3472    1.0368 C   0  0  0  0  0  0  0  0  0  0  0  0
    2.0133   -0.4154    1.2939 O   0  0  0  0  0  0  0  0  0  0  0  0
   -0.0402    0.1879    1.9805 N   0  0  0  0  0  0  0  0  0  0  0  0
   -1.0295    0.1008    1.7732 H   0  0  0  0  0  0  0  0  0  0  0  0
    0.3648    0.4288    3.3599 C   0  0  0  0  0  0  0  0  0  0  0  0
    1.2074    1.1274    3.3965 H   0  0  0  0  0  0  0  0  0  0  0  0
   -0.4643    0.8609    3.9284 H   0  0  0  0  0  0  0  0  0  0  0  0
    0.6647   -0.5094    3.8390 H   0  0  0  0  0  0  0  0  0  0  0  0
  1  2  1  0  0  0  0
  2  3  1  0  0  0  0
  2  4  1  0  0  0  0
  2  5  1  0  0  0  0
  5  6  2  0  0  0  0
  5  7  1  0  0  0  0
  7  8  1  0  0  0  0
  7  9  1  0  0  0  0
  9 10  1  0  0  0  0
  9 11  1  0  0  0  0
  9 21  1  0  0  0  0
 11 12  1  0  0  0  0
 11 13  1  0  0  0  0
 11 14  1  0  0  0  0
 14 15  1  0  0  0  0
 14 16  1  0  0  0  0
 14 17  1  0  0  0  0
 17 18  2  0  0  0  0
 17 19  1  0  0  0  0
 19 20  1  0  0  0  0
 21 22  2  0  0  0  0
 21 23  1  0  0  0  0
 23 24  1  0  0  0  0
 23 25  1  0  0  0  0
 25 26  1  0  0  0  0
 25 27  1  0  0  0  0
 25 28  1  0  0  0  0
M  END
$$$$

  -OEChem-03222214033D

 28 27  0     1  0  0  0  0  0999 V2000
   -2.7050   -4.0829    0.3080 H   0  0  0  0  0  0  0  0  0  0  0  0
   -2.6429   -3.1079   -0.1841 C   0  0  0  0  0  0  0  0  0  0  0  0
   -3.4518   -2.4747    0.1878 H   0  0  0  0  0  0  0  0  0  0  0  0
   -2.7643   -3.2510   -1.2606 H   0  0  0  0  0  0  0  0  0  0  0  0
   -1.3014   -2.4620    0.1069 C   0  0  0  0  0  0  0  0  0  0  0  0
   -0.5066   -3.0253    0.8361 O   0  0  0  0  0  0  0  0  0  0  0  0
   -0.9994   -1.2342   -0.4513 N   0  0  0  0  0  0  0  0  0  0  0  0
   -1.6561   -0.8933   -1.1468 H   0  0  0  0  0  0  0  0  0  0  0  0
    0.3384   -0.6073   -0.4053 C   0  0  1  0  0  0  0  0  0  0  0  0
    1.0732   -1.2698   -0.8780 H   0  0  0  0  0  0  0  0  0  0  0  0
    0.2282    0.6924   -1.2410 C   0  0  0  0  0  0  0  0  0  0  0  0
    0.0857    0.4330   -2.2952 H   0  0  0  0  0  0  0  0  0  0  0  0
   -0.6863    1.2041   -0.9223 H   0  0  0  0  0  0  0  0  0  0  0  0
    1.3788    1.7266   -1.0759 C   0  0  0  0  0  0  0  0  0  0  0  0
    0.9318    2.7213   -0.9989 H   0  0  0  0  0  0  0  0  0  0  0  0
    1.9573    1.5748   -0.1646 H   0  0  0  0  0  0  0  0  0  0  0  0
    2.3607    1.7747   -2.2483 C   0  0  0  0  0  0  0  0  0  0  0  0
    2.4164    0.8495   -3.0401 O   0  0  0  0  0  0  0  0  0  0  0  0
    3.1332    2.8768   -2.3499 O   0  0  0  0  0  0  0  0  0  0  0  0
    3.6993    2.7151   -3.1201 H   0  0  0  0  0  0  0  0  0  0  0  0
    0.8222   -0.3613    1.0467 C   0  0  0  0  0  0  0  0  0  0  0  0
    2.0091   -0.4647    1.3282 O   0  0  0  0  0  0  0  0  0  0  0  0
   -0.0442    0.1804    1.9793 N   0  0  0  0  0  0  0  0  0  0  0  0
   -1.0309    0.1129    1.7532 H   0  0  0  0  0  0  0  0  0  0  0  0
    0.3394    0.4034    3.3677 C   0  0  0  0  0  0  0  0  0  0  0  0
    1.1932    1.0867    3.4251 H   0  0  0  0  0  0  0  0  0  0  0  0
   -0.4923    0.8461    3.9240 H   0  0  0  0  0  0  0  0  0  0  0  0
    0.6136   -0.5434    3.8450 H   0  0  0  0  0  0  0  0  0  0  0  0
  1  2  1  0  0  0  0
  2  3  1  0  0  0  0
  2  4  1  0  0  0  0
  2  5  1  0  0  0  0
  5  6  2  0  0  0  0
  5  7  1  0  0  0  0
  7  8  1  0  0  0  0
  7  9  1  0  0  0  0
  9 10  1  0  0  0  0
  9 11  1  0  0  0  0
  9 21  1  0  0  0  0
 11 12  1  0  0  0  0
 11 13  1  0  0  0  0
 11 14  1  0  0  0  0
 14 15  1  0  0  0  0
 14 16  1  0  0  0  0
 14 17  1  0  0  0  0
 17 18  2  0  0  0  0
 17 19  1  0  0  0  0
 19 20  1  0  0  0  0
 21 22  2  0  0  0  0
 21 23  1  0  0  0  0
 23 24  1  0  0  0  0
 23 25  1  0  0  0  0
 25 26  1  0  0  0  0
 25 27  1  0  0  0  0
 25 28  1  0  0  0  0
M  END
$$$$

  -OEChem-03222214033D

 28 27  0     1  0  0  0  0  0999 V2000
   -2.7892   -3.9856    0.3878 H   0  0  0  0  0  0  0  0  0  0  0  0
   -2.6584   -3.0754   -0.2047 C   0  0  0  0  0  0  0  0  0  0  0  0
   -3.4656   -2.3803    0.0377 H   0  0  0  0  0  0  0  0  0  0  0  0
   -2.7147   -3.3352   -1.2646 H   0  0  0  0  0  0  0  0  0  0  0  0
   -1.3141   -2.4425    0.1021 C   0  0  0  0  0  0  0  0  0  0  0  0
   -0.5327   -3.0138    0.8393 O   0  0  0  0  0  0  0  0  0  0  0  0
   -0.9925   -1.2193   -0.4554 N   0  0  0  0  0  0  0  0  0  0  0  0
   -1.6397   -0.8727   -1.1571 H   0  0  0  0  0  0  0  0  0  0  0  0
    0.3530   -0.6095   -0.4041 C   0  0  1  0  0  0  0  0  0  0  0  0
    1.0838   -1.2750   -0.8784 H   0  0  0  0  0  0  0  0  0  0  0  0
    0.2518    0.6991   -1.2248 C   0  0  0  0  0  0  0  0  0  0  0  0
    0.1310    0.4334   -2.2803 H   0  0  0  0  0  0  0  0  0  0  0  0
   -0.6647    1.2194   -0.9271 H   0  0  0  0  0  0  0  0  0  0  0  0
    1.4163    1.7135   -1.0462 C   0  0  0  0  0  0  0  0  0  0  0  0
    1.0168    2.6485   -0.6441 H   0  0  0  0  0  0  0  0  0  0  0  0
    2.1670    1.3558   -0.3403 H   0  0  0  0  0  0  0  0  0  0  0  0
    2.1650    2.0236   -2.3422 C   0  0  0  0  0  0  0  0  0  0  0  0
    2.3737    1.1311   -3.1453 O   0  0  0  0  0  0  0  0  0  0  0  0
    2.5584    3.2997   -2.5400 O   0  0  0  0  0  0  0  0  0  0  0  0
    3.0250    3.2886   -3.3899 H   0  0  0  0  0  0  0  0  0  0  0  0
    0.8321   -0.3689    1.0516 C   0  0  0  0  0  0  0  0  0  0  0  0
    2.0129   -0.5049    1.3447 O   0  0  0  0  0  0  0  0  0  0  0  0
   -0.0301    0.1841    1.9815 N   0  0  0  0  0  0  0  0  0  0  0  0
   -1.0161    0.1406    1.7471 H   0  0  0  0  0  0  0  0  0  0  0  0
    0.3473    0.3831    3.3755 C   0  0  0  0  0  0  0  0  0  0  0  0
    1.2195    1.0416    3.4475 H   0  0  0  0  0  0  0  0  0  0  0  0
   -0.4763    0.8431    3.9297 H   0  0  0  0  0  0  0  0  0  0  0  0
    0.5909   -0.5758    3.8451 H   0  0  0  0  0  0  0  0  0  0  0  0
  1  2  1  0  0  0  0
  2  3  1  0  0  0  0
  2  4  1  0  0  0  0
  2  5  1  0  0  0  0
  5  6  2  0  0  0  0
  5  7  1  0  0  0  0
  7  8  1  0  0  0  0
  7  9  1  0  0  0  0
  9 10  1  0  0  0  0
  9 11  1  0  0  0  0
  9 21  1  0  0  0  0
 11 12  1  0  0  0  0
 11 13  1  0  0  0  0
 11 14  1  0  0  0  0
 14 15  1  0  0  0  0
 14 16  1  0  0  0  0
 14 17  1  0  0  0  0
 17 18  2  0  0  0  0
 17 19  1  0  0  0  0
 19 20  1  0  0  0  0
 21 22  2  0  0  0  0
 21 23  1  0  0  0  0
 23 24  1  0  0  0  0
 23 25  1  0  0  0  0
 25 26  1  0  0  0  0
 25 27  1  0  0  0  0
 25 28  1  0  0  0  0
M  END
$$$$

  -OEChem-03222214033D

 28 27  0     1  0  0  0  0  0999 V2000
   -2.6020   -4.1025    0.3574 H   0  0  0  0  0  0  0  0  0  0  0  0
   -2.5443   -3.1603   -0.1953 C   0  0  0  0  0  0  0  0  0  0  0  0
   -3.3668   -2.5158    0.1240 H   0  0  0  0  0  0  0  0  0  0  0  0
   -2.6478   -3.3725   -1.2621 H   0  0  0  0  0  0  0  0  0  0  0  0
   -1.2145   -2.4805    0.0707 C   0  0  0  0  0  0  0  0  0  0  0  0
   -0.3797   -3.0339    0.7619 O   0  0  0  0  0  0  0  0  0  0  0  0
   -0.9604   -1.2373   -0.4762 N   0  0  0  0  0  0  0  0  0  0  0  0
   -1.6526   -0.8875   -1.1323 H   0  0  0  0  0  0  0  0  0  0  0  0
    0.3466   -0.5522   -0.4178 C   0  0  1  0  0  0  0  0  0  0  0  0
    1.1132   -1.1730   -0.8951 H   0  0  0  0  0  0  0  0  0  0  0  0
    0.1772    0.7577   -1.2203 C   0  0  0  0  0  0  0  0  0  0  0  0
    0.1229    0.4816   -2.2794 H   0  0  0  0  0  0  0  0  0  0  0  0
   -0.7765    1.2296   -0.9604 H   0  0  0  0  0  0  0  0  0  0  0  0
    1.2912    1.8156   -1.0129 C   0  0  0  0  0  0  0  0  0  0  0  0
    0.9472    2.6034   -0.3380 H   0  0  0  0  0  0  0  0  0  0  0  0
    2.1733    1.3559   -0.5600 H   0  0  0  0  0  0  0  0  0  0  0  0
    1.7655    2.4386   -2.3241 C   0  0  0  0  0  0  0  0  0  0  0  0
    0.9297    2.7960   -3.1365 O   0  0  0  0  0  0  0  0  0  0  0  0
    3.0938    2.5713   -2.5227 O   0  0  0  0  0  0  0  0  0  0  0  0
    3.1816    2.9847   -3.3947 H   0  0  0  0  0  0  0  0  0  0  0  0
    0.8131   -0.2927    1.0381 C   0  0  0  0  0  0  0  0  0  0  0  0
    2.0013   -0.3548    1.3248 O   0  0  0  0  0  0  0  0  0  0  0  0
   -0.0781    0.2046    1.9721 N   0  0  0  0  0  0  0  0  0  0  0  0
   -1.0609    0.1225    1.7345 H   0  0  0  0  0  0  0  0  0  0  0  0
    0.2880    0.4263    3.3656 C   0  0  0  0  0  0  0  0  0  0  0  0
    1.1117    1.1447    3.4369 H   0  0  0  0  0  0  0  0  0  0  0  0
   -0.5652    0.8255    3.9224 H   0  0  0  0  0  0  0  0  0  0  0  0
    0.5999   -0.5139    3.8329 H   0  0  0  0  0  0  0  0  0  0  0  0
  1  2  1  0  0  0  0
  2  3  1  0  0  0  0
  2  4  1  0  0  0  0
  2  5  1  0  0  0  0
  5  6  2  0  0  0  0
  5  7  1  0  0  0  0
  7  8  1  0  0  0  0
  7  9  1  0  0  0  0
  9 10  1  0  0  0  0
  9 11  1  0  0  0  0
  9 21  1  0  0  0  0
 11 12  1  0  0  0  0
 11 13  1  0  0  0  0
 11 14  1  0  0  0  0
 14 15  1  0  0  0  0
 14 16  1  0  0  0  0
 14 17  1  0  0  0  0
 17 18  2  0  0  0  0
 17 19  1  0  0  0  0
 19 20  1  0  0  0  0
 21 22  2  0  0  0  0
 21 23  1  0  0  0  0
 23 24  1  0  0  0  0
 23 25  1  0  0  0  0
 25 26  1  0  0  0  0
 25 27  1  0  0  0  0
 25 28  1  0  0  0  0
M  END
$$$$

  -OEChem-03222214033D

 28 27  0     1  0  0  0  0  0999 V2000
   -2.6170   -4.1271    0.3172 H   0  0  0  0  0  0  0  0  0  0  0  0
   -2.5763   -3.1612   -0.1945 C   0  0  0  0  0  0  0  0  0  0  0  0
   -3.3867   -2.5311    0.1794 H   0  0  0  0  0  0  0  0  0  0  0  0
   -2.7153   -3.3256   -1.2656 H   0  0  0  0  0  0  0  0  0  0  0  0
   -1.2383   -2.4927    0.0595 C   0  0  0  0  0  0  0  0  0  0  0  0
   -0.4016   -3.0506    0.7449 O   0  0  0  0  0  0  0  0  0  0  0  0
   -0.9815   -1.2487   -0.4835 N   0  0  0  0  0  0  0  0  0  0  0  0
   -1.6783   -0.8880   -1.1287 H   0  0  0  0  0  0  0  0  0  0  0  0
    0.3264   -0.5669   -0.4240 C   0  0  1  0  0  0  0  0  0  0  0  0
    1.0881   -1.1924   -0.9034 H   0  0  0  0  0  0  0  0  0  0  0  0
    0.1696    0.7438   -1.2249 C   0  0  0  0  0  0  0  0  0  0  0  0
    0.1325    0.4721   -2.2860 H   0  0  0  0  0  0  0  0  0  0  0  0
   -0.7821    1.2257   -0.9763 H   0  0  0  0  0  0  0  0  0  0  0  0
    1.2987    1.7770   -0.9961 C   0  0  0  0  0  0  0  0  0  0  0  0
    1.0739    2.4032   -0.1287 H   0  0  0  0  0  0  0  0  0  0  0  0
    2.2371    1.2523   -0.7925 H   0  0  0  0  0  0  0  0  0  0  0  0
    1.5565    2.6657   -2.2120 C   0  0  0  0  0  0  0  0  0  0  0  0
    0.6259    2.9490   -2.9475 O   0  0  0  0  0  0  0  0  0  0  0  0
    2.8152    3.1105   -2.4096 O   0  0  0  0  0  0  0  0  0  0  0  0
    2.7707    3.6535   -3.2110 H   0  0  0  0  0  0  0  0  0  0  0  0
    0.8068   -0.3068    1.0265 C   0  0  0  0  0  0  0  0  0  0  0  0
    2.0013   -0.3413    1.2915 O   0  0  0  0  0  0  0  0  0  0  0  0
   -0.0744    0.1933    1.9683 N   0  0  0  0  0  0  0  0  0  0  0  0
   -1.0604    0.0973    1.7490 H   0  0  0  0  0  0  0  0  0  0  0  0
    0.3143    0.4538    3.3490 C   0  0  0  0  0  0  0  0  0  0  0  0
    1.1277    1.1862    3.3871 H   0  0  0  0  0  0  0  0  0  0  0  0
   -0.5340    0.8534    3.9127 H   0  0  0  0  0  0  0  0  0  0  0  0
    0.6498   -0.4700    3.8324 H   0  0  0  0  0  0  0  0  0  0  0  0
  1  2  1  0  0  0  0
  2  3  1  0  0  0  0
  2  4  1  0  0  0  0
  2  5  1  0  0  0  0
  5  6  2  0  0  0  0
  5  7  1  0  0  0  0
  7  8  1  0  0  0  0
  7  9  1  0  0  0  0
  9 10  1  0  0  0  0
  9 11  1  0  0  0  0
  9 21  1  0  0  0  0
 11 12  1  0  0  0  0
 11 13  1  0  0  0  0
 11 14  1  0  0  0  0
 14 15  1  0  0  0  0
 14 16  1  0  0  0  0
 14 17  1  0  0  0  0
 17 18  2  0  0  0  0
 17 19  1  0  0  0  0
 19 20  1  0  0  0  0
 21 22  2  0  0  0  0
 21 23  1  0  0  0  0
 23 24  1  0  0  0  0
 23 25  1  0  0  0  0
 25 26  1  0  0  0  0
 25 27  1  0  0  0  0
 25 28  1  0  0  0  0
M  END
$$$$

  -OEChem-03222214033D

 28 27  0     1  0  0  0  0  0999 V2000
   -2.6352   -4.1342    0.2974 H   0  0  0  0  0  0  0  0  0  0  0  0
   -2.5997   -3.1595   -0.1976 C   0  0  0  0  0  0  0  0  0  0  0  0
   -3.4081   -2.5374    0.1938 H   0  0  0  0  0  0  0  0  0  0  0  0
   -2.7471   -3.3059   -1.2704 H   0  0  0  0  0  0  0  0  0  0  0  0
   -1.2606   -2.4936    0.0582 C   0  0  0  0  0  0  0  0  0  0  0  0
   -0.4240   -3.0561    0.7400 O   0  0  0  0  0  0  0  0  0  0  0  0
   -1.0005   -1.2485   -0.4806 N   0  0  0  0  0  0  0  0  0  0  0  0
   -1.6985   -0.8804   -1.1205 H   0  0  0  0  0  0  0  0  0  0  0  0
    0.3105   -0.5727   -0.4210 C   0  0  1  0  0  0  0  0  0  0  0  0
    1.0657   -1.2067   -0.8998 H   0  0  0  0  0  0  0  0  0  0  0  0
    0.1698    0.7339   -1.2309 C   0  0  0  0  0  0  0  0  0  0  0  0
    0.1353    0.4686   -2.2935 H   0  0  0  0  0  0  0  0  0  0  0  0
   -0.7778    1.2233   -0.9807 H   0  0  0  0  0  0  0  0  0  0  0  0
    1.3079    1.7535   -0.9963 C   0  0  0  0  0  0  0  0  0  0  0  0
    1.2083    2.2161   -0.0106 H   0  0  0  0  0  0  0  0  0  0  0  0
    2.2700    1.2328   -1.0234 H   0  0  0  0  0  0  0  0  0  0  0  0
    1.3567    2.8621   -2.0474 C   0  0  0  0  0  0  0  0  0  0  0  0
    0.3725    3.0859   -2.7322 O   0  0  0  0  0  0  0  0  0  0  0  0
    2.5067    3.5591   -2.1595 O   0  0  0  0  0  0  0  0  0  0  0  0
    2.3437    4.2084   -2.8604 H   0  0  0  0  0  0  0  0  0  0  0  0
    0.8040   -0.3158    1.0247 C   0  0  0  0  0  0  0  0  0  0  0  0
    2.0028   -0.3374    1.2715 O   0  0  0  0  0  0  0  0  0  0  0  0
   -0.0666    0.1872    1.9745 N   0  0  0  0  0  0  0  0  0  0  0  0
   -1.0552    0.0914    1.7672 H   0  0  0  0  0  0  0  0  0  0  0  0
    0.3393    0.4575    3.3482 C   0  0  0  0  0  0  0  0  0  0  0  0
    1.1483    1.1953    3.3714 H   0  0  0  0  0  0  0  0  0  0  0  0
   -0.5036    0.8543    3.9220 H   0  0  0  0  0  0  0  0  0  0  0  0
    0.6879   -0.4613    3.8315 H   0  0  0  0  0  0  0  0  0  0  0  0
  1  2  1  0  0  0  0
  2  3  1  0  0  0  0
  2  4  1  0  0  0  0
  2  5  1  0  0  0  0
  5  6  2  0  0  0  0
  5  7  1  0  0  0  0
  7  8  1  0  0  0  0
  7  9  1  0  0  0  0
  9 10  1  0  0  0  0
  9 11  1  0  0  0  0
  9 21  1  0  0  0  0
 11 12  1  0  0  0  0
 11 13  1  0  0  0  0
 11 14  1  0  0  0  0
 14 15  1  0  0  0  0
 14 16  1  0  0  0  0
 14 17  1  0  0  0  0
 17 18  2  0  0  0  0
 17 19  1  0  0  0  0
 19 20  1  0  0  0  0
 21 22  2  0  0  0  0
 21 23  1  0  0  0  0
 23 24  1  0  0  0  0
 23 25  1  0  0  0  0
 25 26  1  0  0  0  0
 25 27  1  0  0  0  0
 25 28  1  0  0  0  0
M  END
$$$$
