default_name
  -OEChem-02102213163D

 28 27  0     1  0  0  0  0  0999 V2000
   -3.2133   -3.5565    1.2809 H   0  0  0  0  0  0  0  0  0  0  0  0
   -3.1873   -2.5755    0.8089 C   0  0  0  0  0  0  0  0  0  0  0  0
   -3.8793   -1.9065    1.3169 H   0  0  0  0  0  0  0  0  0  0  0  0
   -3.4623   -2.6685   -0.2401 H   0  0  0  0  0  0  0  0  0  0  0  0
   -1.7863   -2.0195    0.9119 C   0  0  0  0  0  0  0  0  0  0  0  0
   -0.9073   -2.6615    1.4699 O   0  0  0  0  0  0  0  0  0  0  0  0
   -1.5803   -0.8195    0.3749 N   0  0  0  0  0  0  0  0  0  0  0  0
   -2.3603   -0.3345   -0.0451 H   0  0  0  0  0  0  0  0  0  0  0  0
   -0.2933   -0.1205    0.3719 C   0  0  1  0  0  0  0  0  0  0  0  0
    0.3577   -0.5843    1.1143 H   0  0  0  0  0  0  0  0  0  0  0  0
    0.3613   -0.2794   -1.0156 C   0  0  0  0  0  0  0  0  0  0  0  0
    0.4901   -1.3456   -1.2095 H   0  0  0  0  0  0  0  0  0  0  0  0
   -0.3066    0.1257   -1.7771 H   0  0  0  0  0  0  0  0  0  0  0  0
    1.7275    0.4162   -1.1437 C   0  0  0  0  0  0  0  0  0  0  0  0
    1.6194    1.4845   -0.9556 H   0  0  0  0  0  0  0  0  0  0  0  0
    2.4146   -0.0069   -0.4119 H   0  0  0  0  0  0  0  0  0  0  0  0
    2.3406    0.2357   -2.5286 C   0  0  0  0  0  0  0  0  0  0  0  0
    1.8887   -0.4819   -3.4065 O   0  0  0  0  0  0  0  0  0  0  0  0
    3.4718    0.9286   -2.7568 O   0  0  0  0  0  0  0  0  0  0  0  0
    3.7310    0.6991   -3.6509 H   0  0  0  0  0  0  0  0  0  0  0  0
   -0.4860    1.3537    0.7622 C   0  0  0  0  0  0  0  0  0  0  0  0
   -1.3956    2.0096    0.2582 O   0  0  0  0  0  0  0  0  0  0  0  0
    0.3741    1.8728    1.6466 N   0  0  0  0  0  0  0  0  0  0  0  0
    1.0814    1.2667    2.0345 H   0  0  0  0  0  0  0  0  0  0  0  0
    0.3380    3.2610    2.1024 C   0  0  0  0  0  0  0  0  0  0  0  0
   -0.6389    3.4820    2.5363 H   0  0  0  0  0  0  0  0  0  0  0  0
    1.1108    3.4337    2.8528 H   0  0  0  0  0  0  0  0  0  0  0  0
    0.5009    3.9312    1.2562 H   0  0  0  0  0  0  0  0  0  0  0  0
  5  6  2  0  0  0  0
  5  7  1  0  0  0  0
  2  3  1  0  0  0  0
  2  4  1  0  0  0  0
  2  5  1  0  0  0  0
  1  2  1  0  0  0  0
 21 22  2  0  0  0  0
 21 23  1  0  0  0  0
 19 20  1  0  0  0  0
 17 18  2  0  0  0  0
 17 19  1  0  0  0  0
 14 15  1  0  0  0  0
 14 16  1  0  0  0  0
 14 17  1  0  0  0  0
 11 12  1  0  0  0  0
 11 13  1  0  0  0  0
 11 14  1  0  0  0  0
  9 10  1  0  0  0  0
  9 11  1  0  0  0  0
  9 21  1  0  0  0  0
  7  8  1  0  0  0  0
  7  9  1  0  0  0  0
 25 26  1  0  0  0  0
 25 27  1  0  0  0  0
 25 28  1  0  0  0  0
 23 24  1  0  0  0  0
 23 25  1  0  0  0  0
M  END
$$$$
default_name
  -OEChem-02102213163D

 28 27  0     1  0  0  0  0  0999 V2000
   -3.2133   -3.5565    1.2809 H   0  0  0  0  0  0  0  0  0  0  0  0
   -3.1873   -2.5755    0.8089 C   0  0  0  0  0  0  0  0  0  0  0  0
   -3.8793   -1.9065    1.3169 H   0  0  0  0  0  0  0  0  0  0  0  0
   -3.4623   -2.6685   -0.2401 H   0  0  0  0  0  0  0  0  0  0  0  0
   -1.7863   -2.0195    0.9119 C   0  0  0  0  0  0  0  0  0  0  0  0
   -0.9073   -2.6615    1.4699 O   0  0  0  0  0  0  0  0  0  0  0  0
   -1.5803   -0.8195    0.3749 N   0  0  0  0  0  0  0  0  0  0  0  0
   -2.3603   -0.3345   -0.0451 H   0  0  0  0  0  0  0  0  0  0  0  0
   -0.2933   -0.1205    0.3719 C   0  0  1  0  0  0  0  0  0  0  0  0
    0.3577   -0.5843    1.1143 H   0  0  0  0  0  0  0  0  0  0  0  0
    0.3613   -0.2794   -1.0156 C   0  0  0  0  0  0  0  0  0  0  0  0
    0.4901   -1.3456   -1.2095 H   0  0  0  0  0  0  0  0  0  0  0  0
   -0.3066    0.1257   -1.7771 H   0  0  0  0  0  0  0  0  0  0  0  0
    1.7275    0.4162   -1.1437 C   0  0  0  0  0  0  0  0  0  0  0  0
    1.6793    1.4129   -0.7048 H   0  0  0  0  0  0  0  0  0  0  0  0
    2.4785   -0.1700   -0.6155 H   0  0  0  0  0  0  0  0  0  0  0  0
    2.1713    0.5558   -2.5963 C   0  0  0  0  0  0  0  0  0  0  0  0
    1.5968    0.0641   -3.5545 O   0  0  0  0  0  0  0  0  0  0  0  0
    3.2926    1.2737   -2.7936 O   0  0  0  0  0  0  0  0  0  0  0  0
    3.4394    1.2551   -3.7409 H   0  0  0  0  0  0  0  0  0  0  0  0
   -0.4860    1.3537    0.7622 C   0  0  0  0  0  0  0  0  0  0  0  0
   -1.3956    2.0096    0.2582 O   0  0  0  0  0  0  0  0  0  0  0  0
    0.3741    1.8728    1.6466 N   0  0  0  0  0  0  0  0  0  0  0  0
    1.0814    1.2667    2.0345 H   0  0  0  0  0  0  0  0  0  0  0  0
    0.3380    3.2610    2.1024 C   0  0  0  0  0  0  0  0  0  0  0  0
   -0.6389    3.4820    2.5363 H   0  0  0  0  0  0  0  0  0  0  0  0
    1.1108    3.4337    2.8528 H   0  0  0  0  0  0  0  0  0  0  0  0
    0.5009    3.9312    1.2562 H   0  0  0  0  0  0  0  0  0  0  0  0
  5  6  2  0  0  0  0
  5  7  1  0  0  0  0
  2  3  1  0  0  0  0
  2  4  1  0  0  0  0
  2  5  1  0  0  0  0
  1  2  1  0  0  0  0
 21 22  2  0  0  0  0
 21 23  1  0  0  0  0
 19 20  1  0  0  0  0
 17 18  2  0  0  0  0
 17 19  1  0  0  0  0
 14 15  1  0  0  0  0
 14 16  1  0  0  0  0
 14 17  1  0  0  0  0
 11 12  1  0  0  0  0
 11 13  1  0  0  0  0
 11 14  1  0  0  0  0
  9 10  1  0  0  0  0
  9 11  1  0  0  0  0
  9 21  1  0  0  0  0
  7  8  1  0  0  0  0
  7  9  1  0  0  0  0
 25 26  1  0  0  0  0
 25 27  1  0  0  0  0
 25 28  1  0  0  0  0
 23 24  1  0  0  0  0
 23 25  1  0  0  0  0
M  END
$$$$
default_name
  -OEChem-02102213163D

 28 27  0     1  0  0  0  0  0999 V2000
   -3.2133   -3.5565    1.2809 H   0  0  0  0  0  0  0  0  0  0  0  0
   -3.1873   -2.5755    0.8089 C   0  0  0  0  0  0  0  0  0  0  0  0
   -3.8793   -1.9065    1.3169 H   0  0  0  0  0  0  0  0  0  0  0  0
   -3.4623   -2.6685   -0.2401 H   0  0  0  0  0  0  0  0  0  0  0  0
   -1.7863   -2.0195    0.9119 C   0  0  0  0  0  0  0  0  0  0  0  0
   -0.9073   -2.6615    1.4699 O   0  0  0  0  0  0  0  0  0  0  0  0
   -1.5803   -0.8195    0.3749 N   0  0  0  0  0  0  0  0  0  0  0  0
   -2.3603   -0.3345   -0.0451 H   0  0  0  0  0  0  0  0  0  0  0  0
   -0.2933   -0.1205    0.3719 C   0  0  1  0  0  0  0  0  0  0  0  0
    0.3577   -0.5843    1.1143 H   0  0  0  0  0  0  0  0  0  0  0  0
    0.3613   -0.2794   -1.0156 C   0  0  0  0  0  0  0  0  0  0  0  0
    0.4901   -1.3456   -1.2095 H   0  0  0  0  0  0  0  0  0  0  0  0
   -0.3066    0.1257   -1.7771 H   0  0  0  0  0  0  0  0  0  0  0  0
    1.7275    0.4162   -1.1437 C   0  0  0  0  0  0  0  0  0  0  0  0
    1.7651    1.2848   -0.4861 H   0  0  0  0  0  0  0  0  0  0  0  0
    2.5130   -0.2821   -0.8571 H   0  0  0  0  0  0  0  0  0  0  0  0
    2.0067    0.8843   -2.5683 C   0  0  0  0  0  0  0  0  0  0  0  0
    1.3093    0.6319   -3.5377 O   0  0  0  0  0  0  0  0  0  0  0  0
    3.1226    1.6195   -2.7289 O   0  0  0  0  0  0  0  0  0  0  0  0
    3.1592    1.8191   -3.6660 H   0  0  0  0  0  0  0  0  0  0  0  0
   -0.4860    1.3537    0.7622 C   0  0  0  0  0  0  0  0  0  0  0  0
   -1.3956    2.0096    0.2582 O   0  0  0  0  0  0  0  0  0  0  0  0
    0.3741    1.8728    1.6466 N   0  0  0  0  0  0  0  0  0  0  0  0
    1.0814    1.2667    2.0345 H   0  0  0  0  0  0  0  0  0  0  0  0
    0.3380    3.2610    2.1024 C   0  0  0  0  0  0  0  0  0  0  0  0
   -0.6389    3.4820    2.5363 H   0  0  0  0  0  0  0  0  0  0  0  0
    1.1108    3.4337    2.8528 H   0  0  0  0  0  0  0  0  0  0  0  0
    0.5009    3.9312    1.2562 H   0  0  0  0  0  0  0  0  0  0  0  0
  5  6  2  0  0  0  0
  5  7  1  0  0  0  0
  2  3  1  0  0  0  0
  2  4  1  0  0  0  0
  2  5  1  0  0  0  0
  1  2  1  0  0  0  0
 21 22  2  0  0  0  0
 21 23  1  0  0  0  0
 19 20  1  0  0  0  0
 17 18  2  0  0  0  0
 17 19  1  0  0  0  0
 14 15  1  0  0  0  0
 14 16  1  0  0  0  0
 14 17  1  0  0  0  0
 11 12  1  0  0  0  0
 11 13  1  0  0  0  0
 11 14  1  0  0  0  0
  9 10  1  0  0  0  0
  9 11  1  0  0  0  0
  9 21  1  0  0  0  0
  7  8  1  0  0  0  0
  7  9  1  0  0  0  0
 25 26  1  0  0  0  0
 25 27  1  0  0  0  0
 25 28  1  0  0  0  0
 23 24  1  0  0  0  0
 23 25  1  0  0  0  0
M  END
$$$$
default_name
  -OEChem-02102213163D

 28 27  0     1  0  0  0  0  0999 V2000
   -3.2133   -3.5565    1.2809 H   0  0  0  0  0  0  0  0  0  0  0  0
   -3.1873   -2.5755    0.8089 C   0  0  0  0  0  0  0  0  0  0  0  0
   -3.8793   -1.9065    1.3169 H   0  0  0  0  0  0  0  0  0  0  0  0
   -3.4623   -2.6685   -0.2401 H   0  0  0  0  0  0  0  0  0  0  0  0
   -1.7863   -2.0195    0.9119 C   0  0  0  0  0  0  0  0  0  0  0  0
   -0.9073   -2.6615    1.4699 O   0  0  0  0  0  0  0  0  0  0  0  0
   -1.5803   -0.8195    0.3749 N   0  0  0  0  0  0  0  0  0  0  0  0
   -2.3603   -0.3345   -0.0451 H   0  0  0  0  0  0  0  0  0  0  0  0
   -0.2933   -0.1205    0.3719 C   0  0  1  0  0  0  0  0  0  0  0  0
    0.3577   -0.5843    1.1143 H   0  0  0  0  0  0  0  0  0  0  0  0
    0.3613   -0.2794   -1.0156 C   0  0  0  0  0  0  0  0  0  0  0  0
    0.4901   -1.3456   -1.2095 H   0  0  0  0  0  0  0  0  0  0  0  0
   -0.3066    0.1257   -1.7771 H   0  0  0  0  0  0  0  0  0  0  0  0
    1.7275    0.4162   -1.1437 C   0  0  0  0  0  0  0  0  0  0  0  0
    1.8707    1.1090   -0.3143 H   0  0  0  0  0  0  0  0  0  0  0  0
    2.5155   -0.3356   -1.1203 H   0  0  0  0  0  0  0  0  0  0  0  0
    1.8580    1.1986   -2.4465 C   0  0  0  0  0  0  0  0  0  0  0  0
    1.0458    1.1827   -3.3574 O   0  0  0  0  0  0  0  0  0  0  0  0
    2.9734    1.9423   -2.5670 O   0  0  0  0  0  0  0  0  0  0  0  0
    2.9096    2.3528   -3.4311 H   0  0  0  0  0  0  0  0  0  0  0  0
   -0.4860    1.3537    0.7622 C   0  0  0  0  0  0  0  0  0  0  0  0
   -1.3956    2.0096    0.2582 O   0  0  0  0  0  0  0  0  0  0  0  0
    0.3741    1.8728    1.6466 N   0  0  0  0  0  0  0  0  0  0  0  0
    1.0814    1.2667    2.0345 H   0  0  0  0  0  0  0  0  0  0  0  0
    0.3380    3.2610    2.1024 C   0  0  0  0  0  0  0  0  0  0  0  0
   -0.6389    3.4820    2.5363 H   0  0  0  0  0  0  0  0  0  0  0  0
    1.1108    3.4337    2.8528 H   0  0  0  0  0  0  0  0  0  0  0  0
    0.5009    3.9312    1.2562 H   0  0  0  0  0  0  0  0  0  0  0  0
  5  6  2  0  0  0  0
  5  7  1  0  0  0  0
  2  3  1  0  0  0  0
  2  4  1  0  0  0  0
  2  5  1  0  0  0  0
  1  2  1  0  0  0  0
 21 22  2  0  0  0  0
 21 23  1  0  0  0  0
 19 20  1  0  0  0  0
 17 18  2  0  0  0  0
 17 19  1  0  0  0  0
 14 15  1  0  0  0  0
 14 16  1  0  0  0  0
 14 17  1  0  0  0  0
 11 12  1  0  0  0  0
 11 13  1  0  0  0  0
 11 14  1  0  0  0  0
  9 10  1  0  0  0  0
  9 11  1  0  0  0  0
  9 21  1  0  0  0  0
  7  8  1  0  0  0  0
  7  9  1  0  0  0  0
 25 26  1  0  0  0  0
 25 27  1  0  0  0  0
 25 28  1  0  0  0  0
 23 24  1  0  0  0  0
 23 25  1  0  0  0  0
M  END
$$$$
default_name
  -OEChem-02102213163D

 28 27  0     1  0  0  0  0  0999 V2000
   -3.2133   -3.5565    1.2809 H   0  0  0  0  0  0  0  0  0  0  0  0
   -3.1873   -2.5755    0.8089 C   0  0  0  0  0  0  0  0  0  0  0  0
   -3.8793   -1.9065    1.3169 H   0  0  0  0  0  0  0  0  0  0  0  0
   -3.4623   -2.6685   -0.2401 H   0  0  0  0  0  0  0  0  0  0  0  0
   -1.7863   -2.0195    0.9119 C   0  0  0  0  0  0  0  0  0  0  0  0
   -0.9073   -2.6615    1.4699 O   0  0  0  0  0  0  0  0  0  0  0  0
   -1.5803   -0.8195    0.3749 N   0  0  0  0  0  0  0  0  0  0  0  0
   -2.3603   -0.3345   -0.0451 H   0  0  0  0  0  0  0  0  0  0  0  0
   -0.2933   -0.1205    0.3719 C   0  0  1  0  0  0  0  0  0  0  0  0
    0.3577   -0.5843    1.1143 H   0  0  0  0  0  0  0  0  0  0  0  0
    0.3613   -0.2794   -1.0156 C   0  0  0  0  0  0  0  0  0  0  0  0
    0.4901   -1.3456   -1.2095 H   0  0  0  0  0  0  0  0  0  0  0  0
   -0.3066    0.1257   -1.7771 H   0  0  0  0  0  0  0  0  0  0  0  0
    1.7275    0.4162   -1.1437 C   0  0  0  0  0  0  0  0  0  0  0  0
    1.9890    0.8974   -0.2012 H   0  0  0  0  0  0  0  0  0  0  0  0
    2.4860   -0.3269   -1.3872 H   0  0  0  0  0  0  0  0  0  0  0  0
    1.7355    1.4775   -2.2392 C   0  0  0  0  0  0  0  0  0  0  0  0
    0.8242    1.6789   -3.0259 O   0  0  0  0  0  0  0  0  0  0  0  0
    2.8553    2.2200   -2.3190 O   0  0  0  0  0  0  0  0  0  0  0  0
    2.7074    2.8196   -3.0524 H   0  0  0  0  0  0  0  0  0  0  0  0
   -0.4860    1.3537    0.7622 C   0  0  0  0  0  0  0  0  0  0  0  0
   -1.3956    2.0096    0.2582 O   0  0  0  0  0  0  0  0  0  0  0  0
    0.3741    1.8728    1.6466 N   0  0  0  0  0  0  0  0  0  0  0  0
    1.0814    1.2667    2.0345 H   0  0  0  0  0  0  0  0  0  0  0  0
    0.3380    3.2610    2.1024 C   0  0  0  0  0  0  0  0  0  0  0  0
   -0.6389    3.4820    2.5363 H   0  0  0  0  0  0  0  0  0  0  0  0
    1.1108    3.4337    2.8528 H   0  0  0  0  0  0  0  0  0  0  0  0
    0.5009    3.9312    1.2562 H   0  0  0  0  0  0  0  0  0  0  0  0
  5  6  2  0  0  0  0
  5  7  1  0  0  0  0
  2  3  1  0  0  0  0
  2  4  1  0  0  0  0
  2  5  1  0  0  0  0
  1  2  1  0  0  0  0
 21 22  2  0  0  0  0
 21 23  1  0  0  0  0
 19 20  1  0  0  0  0
 17 18  2  0  0  0  0
 17 19  1  0  0  0  0
 14 15  1  0  0  0  0
 14 16  1  0  0  0  0
 14 17  1  0  0  0  0
 11 12  1  0  0  0  0
 11 13  1  0  0  0  0
 11 14  1  0  0  0  0
  9 10  1  0  0  0  0
  9 11  1  0  0  0  0
  9 21  1  0  0  0  0
  7  8  1  0  0  0  0
  7  9  1  0  0  0  0
 25 26  1  0  0  0  0
 25 27  1  0  0  0  0
 25 28  1  0  0  0  0
 23 24  1  0  0  0  0
 23 25  1  0  0  0  0
M  END
$$$$
default_name
  -OEChem-02102213163D

 28 27  0     1  0  0  0  0  0999 V2000
   -3.2133   -3.5565    1.2809 H   0  0  0  0  0  0  0  0  0  0  0  0
   -3.1873   -2.5755    0.8089 C   0  0  0  0  0  0  0  0  0  0  0  0
   -3.8793   -1.9065    1.3169 H   0  0  0  0  0  0  0  0  0  0  0  0
   -3.4623   -2.6685   -0.2401 H   0  0  0  0  0  0  0  0  0  0  0  0
   -1.7863   -2.0195    0.9119 C   0  0  0  0  0  0  0  0  0  0  0  0
   -0.9073   -2.6615    1.4699 O   0  0  0  0  0  0  0  0  0  0  0  0
   -1.5803   -0.8195    0.3749 N   0  0  0  0  0  0  0  0  0  0  0  0
   -2.3603   -0.3345   -0.0451 H   0  0  0  0  0  0  0  0  0  0  0  0
   -0.2933   -0.1205    0.3719 C   0  0  1  0  0  0  0  0  0  0  0  0
    0.3577   -0.5843    1.1143 H   0  0  0  0  0  0  0  0  0  0  0  0
    0.3613   -0.2794   -1.0156 C   0  0  0  0  0  0  0  0  0  0  0  0
    0.4901   -1.3456   -1.2095 H   0  0  0  0  0  0  0  0  0  0  0  0
   -0.3066    0.1257   -1.7771 H   0  0  0  0  0  0  0  0  0  0  0  0
    1.7275    0.4162   -1.1437 C   0  0  0  0  0  0  0  0  0  0  0  0
    2.1120    0.6644   -0.1544 H   0  0  0  0  0  0  0  0  0  0  0  0
    2.4265   -0.2564   -1.6395 H   0  0  0  0  0  0  0  0  0  0  0  0
    1.6474    1.7019   -1.9605 C   0  0  0  0  0  0  0  0  0  0  0  0
    0.6597    2.0868   -2.5656 O   0  0  0  0  0  0  0  0  0  0  0  0
    2.7761    2.4339   -2.0018 O   0  0  0  0  0  0  0  0  0  0  0  0
    2.5665    3.1879   -2.5556 H   0  0  0  0  0  0  0  0  0  0  0  0
   -0.4860    1.3537    0.7622 C   0  0  0  0  0  0  0  0  0  0  0  0
   -1.3956    2.0096    0.2582 O   0  0  0  0  0  0  0  0  0  0  0  0
    0.3741    1.8728    1.6466 N   0  0  0  0  0  0  0  0  0  0  0  0
    1.0814    1.2667    2.0345 H   0  0  0  0  0  0  0  0  0  0  0  0
    0.3380    3.2610    2.1024 C   0  0  0  0  0  0  0  0  0  0  0  0
   -0.6389    3.4820    2.5363 H   0  0  0  0  0  0  0  0  0  0  0  0
    1.1108    3.4337    2.8528 H   0  0  0  0  0  0  0  0  0  0  0  0
    0.5009    3.9312    1.2562 H   0  0  0  0  0  0  0  0  0  0  0  0
  5  6  2  0  0  0  0
  5  7  1  0  0  0  0
  2  3  1  0  0  0  0
  2  4  1  0  0  0  0
  2  5  1  0  0  0  0
  1  2  1  0  0  0  0
 21 22  2  0  0  0  0
 21 23  1  0  0  0  0
 19 20  1  0  0  0  0
 17 18  2  0  0  0  0
 17 19  1  0  0  0  0
 14 15  1  0  0  0  0
 14 16  1  0  0  0  0
 14 17  1  0  0  0  0
 11 12  1  0  0  0  0
 11 13  1  0  0  0  0
 11 14  1  0  0  0  0
  9 10  1  0  0  0  0
  9 11  1  0  0  0  0
  9 21  1  0  0  0  0
  7  8  1  0  0  0  0
  7  9  1  0  0  0  0
 25 26  1  0  0  0  0
 25 27  1  0  0  0  0
 25 28  1  0  0  0  0
 23 24  1  0  0  0  0
 23 25  1  0  0  0  0
M  END
$$$$
default_name
  -OEChem-02102213163D

 28 27  0     1  0  0  0  0  0999 V2000
   -3.2133   -3.5565    1.2809 H   0  0  0  0  0  0  0  0  0  0  0  0
   -3.1873   -2.5755    0.8089 C   0  0  0  0  0  0  0  0  0  0  0  0
   -3.8793   -1.9065    1.3169 H   0  0  0  0  0  0  0  0  0  0  0  0
   -3.4623   -2.6685   -0.2401 H   0  0  0  0  0  0  0  0  0  0  0  0
   -1.7863   -2.0195    0.9119 C   0  0  0  0  0  0  0  0  0  0  0  0
   -0.9073   -2.6615    1.4699 O   0  0  0  0  0  0  0  0  0  0  0  0
   -1.5803   -0.8195    0.3749 N   0  0  0  0  0  0  0  0  0  0  0  0
   -2.3603   -0.3345   -0.0451 H   0  0  0  0  0  0  0  0  0  0  0  0
   -0.2933   -0.1205    0.3719 C   0  0  1  0  0  0  0  0  0  0  0  0
    0.3577   -0.5843    1.1143 H   0  0  0  0  0  0  0  0  0  0  0  0
    0.3613   -0.2794   -1.0156 C   0  0  0  0  0  0  0  0  0  0  0  0
    0.4901   -1.3456   -1.2095 H   0  0  0  0  0  0  0  0  0  0  0  0
   -0.3066    0.1257   -1.7771 H   0  0  0  0  0  0  0  0  0  0  0  0
    1.7275    0.4162   -1.1437 C   0  0  0  0  0  0  0  0  0  0  0  0
    2.2313    0.4260   -0.1771 H   0  0  0  0  0  0  0  0  0  0  0  0
    2.3410   -0.1291   -1.8600 H   0  0  0  0  0  0  0  0  0  0  0  0
    1.5997    1.8564   -1.6295 C   0  0  0  0  0  0  0  0  0  0  0  0
    0.5634    2.3786   -2.0080 O   0  0  0  0  0  0  0  0  0  0  0  0
    2.7414    2.5693   -1.6370 O   0  0  0  0  0  0  0  0  0  0  0  0
    2.4964    3.4325   -1.9747 H   0  0  0  0  0  0  0  0  0  0  0  0
   -0.4860    1.3537    0.7622 C   0  0  0  0  0  0  0  0  0  0  0  0
   -1.3956    2.0096    0.2582 O   0  0  0  0  0  0  0  0  0  0  0  0
    0.3741    1.8728    1.6466 N   0  0  0  0  0  0  0  0  0  0  0  0
    1.0814    1.2667    2.0345 H   0  0  0  0  0  0  0  0  0  0  0  0
    0.3380    3.2610    2.1024 C   0  0  0  0  0  0  0  0  0  0  0  0
   -0.6389    3.4820    2.5363 H   0  0  0  0  0  0  0  0  0  0  0  0
    1.1108    3.4337    2.8528 H   0  0  0  0  0  0  0  0  0  0  0  0
    0.5009    3.9312    1.2562 H   0  0  0  0  0  0  0  0  0  0  0  0
  5  6  2  0  0  0  0
  5  7  1  0  0  0  0
  2  3  1  0  0  0  0
  2  4  1  0  0  0  0
  2  5  1  0  0  0  0
  1  2  1  0  0  0  0
 21 22  2  0  0  0  0
 21 23  1  0  0  0  0
 19 20  1  0  0  0  0
 17 18  2  0  0  0  0
 17 19  1  0  0  0  0
 14 15  1  0  0  0  0
 14 16  1  0  0  0  0
 14 17  1  0  0  0  0
 11 12  1  0  0  0  0
 11 13  1  0  0  0  0
 11 14  1  0  0  0  0
  9 10  1  0  0  0  0
  9 11  1  0  0  0  0
  9 21  1  0  0  0  0
  7  8  1  0  0  0  0
  7  9  1  0  0  0  0
 25 26  1  0  0  0  0
 25 27  1  0  0  0  0
 25 28  1  0  0  0  0
 23 24  1  0  0  0  0
 23 25  1  0  0  0  0
M  END
$$$$
default_name
  -OEChem-02102213163D

 28 27  0     1  0  0  0  0  0999 V2000
   -3.2133   -3.5565    1.2809 H   0  0  0  0  0  0  0  0  0  0  0  0
   -3.1873   -2.5755    0.8089 C   0  0  0  0  0  0  0  0  0  0  0  0
   -3.8793   -1.9065    1.3169 H   0  0  0  0  0  0  0  0  0  0  0  0
   -3.4623   -2.6685   -0.2401 H   0  0  0  0  0  0  0  0  0  0  0  0
   -1.7863   -2.0195    0.9119 C   0  0  0  0  0  0  0  0  0  0  0  0
   -0.9073   -2.6615    1.4699 O   0  0  0  0  0  0  0  0  0  0  0  0
   -1.5803   -0.8195    0.3749 N   0  0  0  0  0  0  0  0  0  0  0  0
   -2.3603   -0.3345   -0.0451 H   0  0  0  0  0  0  0  0  0  0  0  0
   -0.2933   -0.1205    0.3719 C   0  0  1  0  0  0  0  0  0  0  0  0
    0.3577   -0.5843    1.1143 H   0  0  0  0  0  0  0  0  0  0  0  0
    0.3613   -0.2794   -1.0156 C   0  0  0  0  0  0  0  0  0  0  0  0
    0.4901   -1.3456   -1.2095 H   0  0  0  0  0  0  0  0  0  0  0  0
   -0.3066    0.1257   -1.7771 H   0  0  0  0  0  0  0  0  0  0  0  0
    1.7275    0.4162   -1.1437 C   0  0  0  0  0  0  0  0  0  0  0  0
    2.3387    0.1984   -0.2678 H   0  0  0  0  0  0  0  0  0  0  0  0
    2.2353    0.0464   -2.0337 H   0  0  0  0  0  0  0  0  0  0  0  0
    1.5958    1.9307   -1.2686 C   0  0  0  0  0  0  0  0  0  0  0  0
    0.5420    2.5343   -1.3911 O   0  0  0  0  0  0  0  0  0  0  0  0
    2.7535    2.6169   -1.2494 O   0  0  0  0  0  0  0  0  0  0  0  0
    2.5020    3.5367   -1.3491 H   0  0  0  0  0  0  0  0  0  0  0  0
   -0.4860    1.3537    0.7622 C   0  0  0  0  0  0  0  0  0  0  0  0
   -1.3956    2.0096    0.2582 O   0  0  0  0  0  0  0  0  0  0  0  0
    0.3741    1.8728    1.6466 N   0  0  0  0  0  0  0  0  0  0  0  0
    1.0814    1.2667    2.0345 H   0  0  0  0  0  0  0  0  0  0  0  0
    0.3380    3.2610    2.1024 C   0  0  0  0  0  0  0  0  0  0  0  0
   -0.6389    3.4820    2.5363 H   0  0  0  0  0  0  0  0  0  0  0  0
    1.1108    3.4337    2.8528 H   0  0  0  0  0  0  0  0  0  0  0  0
    0.5009    3.9312    1.2562 H   0  0  0  0  0  0  0  0  0  0  0  0
  5  6  2  0  0  0  0
  5  7  1  0  0  0  0
  2  3  1  0  0  0  0
  2  4  1  0  0  0  0
  2  5  1  0  0  0  0
  1  2  1  0  0  0  0
 21 22  2  0  0  0  0
 21 23  1  0  0  0  0
 19 20  1  0  0  0  0
 17 18  2  0  0  0  0
 17 19  1  0  0  0  0
 14 15  1  0  0  0  0
 14 16  1  0  0  0  0
 14 17  1  0  0  0  0
 11 12  1  0  0  0  0
 11 13  1  0  0  0  0
 11 14  1  0  0  0  0
  9 10  1  0  0  0  0
  9 11  1  0  0  0  0
  9 21  1  0  0  0  0
  7  8  1  0  0  0  0
  7  9  1  0  0  0  0
 25 26  1  0  0  0  0
 25 27  1  0  0  0  0
 25 28  1  0  0  0  0
 23 24  1  0  0  0  0
 23 25  1  0  0  0  0
M  END
$$$$
default_name
  -OEChem-02102213163D

 28 27  0     1  0  0  0  0  0999 V2000
   -3.2133   -3.5565    1.2809 H   0  0  0  0  0  0  0  0  0  0  0  0
   -3.1873   -2.5755    0.8089 C   0  0  0  0  0  0  0  0  0  0  0  0
   -3.8793   -1.9065    1.3169 H   0  0  0  0  0  0  0  0  0  0  0  0
   -3.4623   -2.6685   -0.2401 H   0  0  0  0  0  0  0  0  0  0  0  0
   -1.7863   -2.0195    0.9119 C   0  0  0  0  0  0  0  0  0  0  0  0
   -0.9073   -2.6615    1.4699 O   0  0  0  0  0  0  0  0  0  0  0  0
   -1.5803   -0.8195    0.3749 N   0  0  0  0  0  0  0  0  0  0  0  0
   -2.3603   -0.3345   -0.0451 H   0  0  0  0  0  0  0  0  0  0  0  0
   -0.2933   -0.1205    0.3719 C   0  0  1  0  0  0  0  0  0  0  0  0
    0.3577   -0.5843    1.1143 H   0  0  0  0  0  0  0  0  0  0  0  0
    0.3613   -0.2794   -1.0156 C   0  0  0  0  0  0  0  0  0  0  0  0
    0.4901   -1.3456   -1.2095 H   0  0  0  0  0  0  0  0  0  0  0  0
   -0.3066    0.1257   -1.7771 H   0  0  0  0  0  0  0  0  0  0  0  0
    1.7275    0.4162   -1.1437 C   0  0  0  0  0  0  0  0  0  0  0  0
    2.4269   -0.0030   -0.4203 H   0  0  0  0  0  0  0  0  0  0  0  0
    2.1167    0.2581   -2.1488 H   0  0  0  0  0  0  0  0  0  0  0  0
    1.6358    1.9195   -0.9025 C   0  0  0  0  0  0  0  0  0  0  0  0
    0.5969    2.5434   -0.7569 O   0  0  0  0  0  0  0  0  0  0  0  0
    2.8116    2.5736   -0.8655 O   0  0  0  0  0  0  0  0  0  0  0  0
    2.5829    3.4935   -0.7215 H   0  0  0  0  0  0  0  0  0  0  0  0
   -0.4860    1.3537    0.7622 C   0  0  0  0  0  0  0  0  0  0  0  0
   -1.3956    2.0096    0.2582 O   0  0  0  0  0  0  0  0  0  0  0  0
    0.3741    1.8728    1.6466 N   0  0  0  0  0  0  0  0  0  0  0  0
    1.0814    1.2667    2.0345 H   0  0  0  0  0  0  0  0  0  0  0  0
    0.3380    3.2610    2.1024 C   0  0  0  0  0  0  0  0  0  0  0  0
   -0.6389    3.4820    2.5363 H   0  0  0  0  0  0  0  0  0  0  0  0
    1.1108    3.4337    2.8528 H   0  0  0  0  0  0  0  0  0  0  0  0
    0.5009    3.9312    1.2562 H   0  0  0  0  0  0  0  0  0  0  0  0
  5  6  2  0  0  0  0
  5  7  1  0  0  0  0
  2  3  1  0  0  0  0
  2  4  1  0  0  0  0
  2  5  1  0  0  0  0
  1  2  1  0  0  0  0
 21 22  2  0  0  0  0
 21 23  1  0  0  0  0
 19 20  1  0  0  0  0
 17 18  2  0  0  0  0
 17 19  1  0  0  0  0
 14 15  1  0  0  0  0
 14 16  1  0  0  0  0
 14 17  1  0  0  0  0
 11 12  1  0  0  0  0
 11 13  1  0  0  0  0
 11 14  1  0  0  0  0
  9 10  1  0  0  0  0
  9 11  1  0  0  0  0
  9 21  1  0  0  0  0
  7  8  1  0  0  0  0
  7  9  1  0  0  0  0
 25 26  1  0  0  0  0
 25 27  1  0  0  0  0
 25 28  1  0  0  0  0
 23 24  1  0  0  0  0
 23 25  1  0  0  0  0
M  END
$$$$
default_name
  -OEChem-02102213163D

 28 27  0     1  0  0  0  0  0999 V2000
   -3.2133   -3.5565    1.2809 H   0  0  0  0  0  0  0  0  0  0  0  0
   -3.1873   -2.5755    0.8089 C   0  0  0  0  0  0  0  0  0  0  0  0
   -3.8793   -1.9065    1.3169 H   0  0  0  0  0  0  0  0  0  0  0  0
   -3.4623   -2.6685   -0.2401 H   0  0  0  0  0  0  0  0  0  0  0  0
   -1.7863   -2.0195    0.9119 C   0  0  0  0  0  0  0  0  0  0  0  0
   -0.9073   -2.6615    1.4699 O   0  0  0  0  0  0  0  0  0  0  0  0
   -1.5803   -0.8195    0.3749 N   0  0  0  0  0  0  0  0  0  0  0  0
   -2.3603   -0.3345   -0.0451 H   0  0  0  0  0  0  0  0  0  0  0  0
   -0.2933   -0.1205    0.3719 C   0  0  1  0  0  0  0  0  0  0  0  0
    0.3577   -0.5843    1.1143 H   0  0  0  0  0  0  0  0  0  0  0  0
    0.3613   -0.2794   -1.0156 C   0  0  0  0  0  0  0  0  0  0  0  0
    0.4901   -1.3456   -1.2095 H   0  0  0  0  0  0  0  0  0  0  0  0
   -0.3066    0.1257   -1.7771 H   0  0  0  0  0  0  0  0  0  0  0  0
    1.7275    0.4162   -1.1437 C   0  0  0  0  0  0  0  0  0  0  0  0
    2.4900   -0.1643   -0.6242 H   0  0  0  0  0  0  0  0  0  0  0  0
    1.9932    0.4916   -2.1975 H   0  0  0  0  0  0  0  0  0  0  0  0
    1.7171    1.8237   -0.5561 C   0  0  0  0  0  0  0  0  0  0  0  0
    0.7243    2.4052   -0.1486 O   0  0  0  0  0  0  0  0  0  0  0  0
    2.9117    2.4423   -0.5114 O   0  0  0  0  0  0  0  0  0  0  0  0
    2.7336    3.3058   -0.1347 H   0  0  0  0  0  0  0  0  0  0  0  0
   -0.4860    1.3537    0.7622 C   0  0  0  0  0  0  0  0  0  0  0  0
   -1.3956    2.0096    0.2582 O   0  0  0  0  0  0  0  0  0  0  0  0
    0.3741    1.8728    1.6466 N   0  0  0  0  0  0  0  0  0  0  0  0
    1.0814    1.2667    2.0345 H   0  0  0  0  0  0  0  0  0  0  0  0
    0.3380    3.2610    2.1024 C   0  0  0  0  0  0  0  0  0  0  0  0
   -0.6389    3.4820    2.5363 H   0  0  0  0  0  0  0  0  0  0  0  0
    1.1108    3.4337    2.8528 H   0  0  0  0  0  0  0  0  0  0  0  0
    0.5009    3.9312    1.2562 H   0  0  0  0  0  0  0  0  0  0  0  0
  5  6  2  0  0  0  0
  5  7  1  0  0  0  0
  2  3  1  0  0  0  0
  2  4  1  0  0  0  0
  2  5  1  0  0  0  0
  1  2  1  0  0  0  0
 21 22  2  0  0  0  0
 21 23  1  0  0  0  0
 19 20  1  0  0  0  0
 17 18  2  0  0  0  0
 17 19  1  0  0  0  0
 14 15  1  0  0  0  0
 14 16  1  0  0  0  0
 14 17  1  0  0  0  0
 11 12  1  0  0  0  0
 11 13  1  0  0  0  0
 11 14  1  0  0  0  0
  9 10  1  0  0  0  0
  9 11  1  0  0  0  0
  9 21  1  0  0  0  0
  7  8  1  0  0  0  0
  7  9  1  0  0  0  0
 25 26  1  0  0  0  0
 25 27  1  0  0  0  0
 25 28  1  0  0  0  0
 23 24  1  0  0  0  0
 23 25  1  0  0  0  0
M  END
$$$$
default_name
  -OEChem-02102213163D

 28 27  0     1  0  0  0  0  0999 V2000
   -3.2133   -3.5565    1.2809 H   0  0  0  0  0  0  0  0  0  0  0  0
   -3.1873   -2.5755    0.8089 C   0  0  0  0  0  0  0  0  0  0  0  0
   -3.8793   -1.9065    1.3169 H   0  0  0  0  0  0  0  0  0  0  0  0
   -3.4623   -2.6685   -0.2401 H   0  0  0  0  0  0  0  0  0  0  0  0
   -1.7863   -2.0195    0.9119 C   0  0  0  0  0  0  0  0  0  0  0  0
   -0.9073   -2.6615    1.4699 O   0  0  0  0  0  0  0  0  0  0  0  0
   -1.5803   -0.8195    0.3749 N   0  0  0  0  0  0  0  0  0  0  0  0
   -2.3603   -0.3345   -0.0451 H   0  0  0  0  0  0  0  0  0  0  0  0
   -0.2933   -0.1205    0.3719 C   0  0  1  0  0  0  0  0  0  0  0  0
    0.3577   -0.5843    1.1143 H   0  0  0  0  0  0  0  0  0  0  0  0
    0.3613   -0.2794   -1.0156 C   0  0  0  0  0  0  0  0  0  0  0  0
    0.4901   -1.3456   -1.2095 H   0  0  0  0  0  0  0  0  0  0  0  0
   -0.3066    0.1257   -1.7771 H   0  0  0  0  0  0  0  0  0  0  0  0
    1.7275    0.4162   -1.1437 C   0  0  0  0  0  0  0  0  0  0  0  0
    2.5235   -0.2747   -0.8656 H   0  0  0  0  0  0  0  0  0  0  0  0
    1.8733    0.7310   -2.1764 H   0  0  0  0  0  0  0  0  0  0  0  0
    1.8341    1.6498   -0.2530 C   0  0  0  0  0  0  0  0  0  0  0  0
    0.9156    2.1292    0.3923 O   0  0  0  0  0  0  0  0  0  0  0  0
    3.0470    2.2319   -0.2113 O   0  0  0  0  0  0  0  0  0  0  0  0
    2.9437    2.9863    0.3713 H   0  0  0  0  0  0  0  0  0  0  0  0
   -0.4860    1.3537    0.7622 C   0  0  0  0  0  0  0  0  0  0  0  0
   -1.3956    2.0096    0.2582 O   0  0  0  0  0  0  0  0  0  0  0  0
    0.3741    1.8728    1.6466 N   0  0  0  0  0  0  0  0  0  0  0  0
    1.0814    1.2667    2.0345 H   0  0  0  0  0  0  0  0  0  0  0  0
    0.3380    3.2610    2.1024 C   0  0  0  0  0  0  0  0  0  0  0  0
   -0.6389    3.4820    2.5363 H   0  0  0  0  0  0  0  0  0  0  0  0
    1.1108    3.4337    2.8528 H   0  0  0  0  0  0  0  0  0  0  0  0
    0.5009    3.9312    1.2562 H   0  0  0  0  0  0  0  0  0  0  0  0
  5  6  2  0  0  0  0
  5  7  1  0  0  0  0
  2  3  1  0  0  0  0
  2  4  1  0  0  0  0
  2  5  1  0  0  0  0
  1  2  1  0  0  0  0
 21 22  2  0  0  0  0
 21 23  1  0  0  0  0
 19 20  1  0  0  0  0
 17 18  2  0  0  0  0
 17 19  1  0  0  0  0
 14 15  1  0  0  0  0
 14 16  1  0  0  0  0
 14 17  1  0  0  0  0
 11 12  1  0  0  0  0
 11 13  1  0  0  0  0
 11 14  1  0  0  0  0
  9 10  1  0  0  0  0
  9 11  1  0  0  0  0
  9 21  1  0  0  0  0
  7  8  1  0  0  0  0
  7  9  1  0  0  0  0
 25 26  1  0  0  0  0
 25 27  1  0  0  0  0
 25 28  1  0  0  0  0
 23 24  1  0  0  0  0
 23 25  1  0  0  0  0
M  END
$$$$
default_name
  -OEChem-02102213163D

 28 27  0     1  0  0  0  0  0999 V2000
   -3.2133   -3.5565    1.2809 H   0  0  0  0  0  0  0  0  0  0  0  0
   -3.1873   -2.5755    0.8089 C   0  0  0  0  0  0  0  0  0  0  0  0
   -3.8793   -1.9065    1.3169 H   0  0  0  0  0  0  0  0  0  0  0  0
   -3.4623   -2.6685   -0.2401 H   0  0  0  0  0  0  0  0  0  0  0  0
   -1.7863   -2.0195    0.9119 C   0  0  0  0  0  0  0  0  0  0  0  0
   -0.9073   -2.6615    1.4699 O   0  0  0  0  0  0  0  0  0  0  0  0
   -1.5803   -0.8195    0.3749 N   0  0  0  0  0  0  0  0  0  0  0  0
   -2.3603   -0.3345   -0.0451 H   0  0  0  0  0  0  0  0  0  0  0  0
   -0.2933   -0.1205    0.3719 C   0  0  1  0  0  0  0  0  0  0  0  0
    0.3577   -0.5843    1.1143 H   0  0  0  0  0  0  0  0  0  0  0  0
    0.3613   -0.2794   -1.0156 C   0  0  0  0  0  0  0  0  0  0  0  0
    0.4901   -1.3456   -1.2095 H   0  0  0  0  0  0  0  0  0  0  0  0
   -0.3066    0.1257   -1.7771 H   0  0  0  0  0  0  0  0  0  0  0  0
    1.7275    0.4162   -1.1437 C   0  0  0  0  0  0  0  0  0  0  0  0
    2.5253   -0.3265   -1.1281 H   0  0  0  0  0  0  0  0  0  0  0  0
    1.7651    0.9600   -2.0869 H   0  0  0  0  0  0  0  0  0  0  0  0
    1.9788    1.4097   -0.0139 C   0  0  0  0  0  0  0  0  0  0  0  0
    1.1577    1.7342    0.8289 O   0  0  0  0  0  0  0  0  0  0  0  0
    3.2082    1.9568    0.0144 O   0  0  0  0  0  0  0  0  0  0  0  0
    3.1990    2.5569    0.7621 H   0  0  0  0  0  0  0  0  0  0  0  0
   -0.4860    1.3537    0.7622 C   0  0  0  0  0  0  0  0  0  0  0  0
   -1.3956    2.0096    0.2582 O   0  0  0  0  0  0  0  0  0  0  0  0
    0.3741    1.8728    1.6466 N   0  0  0  0  0  0  0  0  0  0  0  0
    1.0814    1.2667    2.0345 H   0  0  0  0  0  0  0  0  0  0  0  0
    0.3380    3.2610    2.1024 C   0  0  0  0  0  0  0  0  0  0  0  0
   -0.6389    3.4820    2.5363 H   0  0  0  0  0  0  0  0  0  0  0  0
    1.1108    3.4337    2.8528 H   0  0  0  0  0  0  0  0  0  0  0  0
    0.5009    3.9312    1.2562 H   0  0  0  0  0  0  0  0  0  0  0  0
  5  6  2  0  0  0  0
  5  7  1  0  0  0  0
  2  3  1  0  0  0  0
  2  4  1  0  0  0  0
  2  5  1  0  0  0  0
  1  2  1  0  0  0  0
 21 22  2  0  0  0  0
 21 23  1  0  0  0  0
 19 20  1  0  0  0  0
 17 18  2  0  0  0  0
 17 19  1  0  0  0  0
 14 15  1  0  0  0  0
 14 16  1  0  0  0  0
 14 17  1  0  0  0  0
 11 12  1  0  0  0  0
 11 13  1  0  0  0  0
 11 14  1  0  0  0  0
  9 10  1  0  0  0  0
  9 11  1  0  0  0  0
  9 21  1  0  0  0  0
  7  8  1  0  0  0  0
  7  9  1  0  0  0  0
 25 26  1  0  0  0  0
 25 27  1  0  0  0  0
 25 28  1  0  0  0  0
 23 24  1  0  0  0  0
 23 25  1  0  0  0  0
M  END
$$$$
default_name
  -OEChem-02102213163D

 28 27  0     1  0  0  0  0  0999 V2000
   -3.2133   -3.5565    1.2809 H   0  0  0  0  0  0  0  0  0  0  0  0
   -3.1873   -2.5755    0.8089 C   0  0  0  0  0  0  0  0  0  0  0  0
   -3.8793   -1.9065    1.3169 H   0  0  0  0  0  0  0  0  0  0  0  0
   -3.4623   -2.6685   -0.2401 H   0  0  0  0  0  0  0  0  0  0  0  0
   -1.7863   -2.0195    0.9119 C   0  0  0  0  0  0  0  0  0  0  0  0
   -0.9073   -2.6615    1.4699 O   0  0  0  0  0  0  0  0  0  0  0  0
   -1.5803   -0.8195    0.3749 N   0  0  0  0  0  0  0  0  0  0  0  0
   -2.3603   -0.3345   -0.0451 H   0  0  0  0  0  0  0  0  0  0  0  0
   -0.2933   -0.1205    0.3719 C   0  0  1  0  0  0  0  0  0  0  0  0
    0.3577   -0.5843    1.1143 H   0  0  0  0  0  0  0  0  0  0  0  0
    0.3613   -0.2794   -1.0156 C   0  0  0  0  0  0  0  0  0  0  0  0
    0.4901   -1.3456   -1.2095 H   0  0  0  0  0  0  0  0  0  0  0  0
   -0.3066    0.1257   -1.7771 H   0  0  0  0  0  0  0  0  0  0  0  0
    1.7275    0.4162   -1.1437 C   0  0  0  0  0  0  0  0  0  0  0  0
    2.4951   -0.3163   -1.3937 H   0  0  0  0  0  0  0  0  0  0  0  0
    1.6760    1.1630   -1.9352 H   0  0  0  0  0  0  0  0  0  0  0  0
    2.1413    1.1197    0.1449 C   0  0  0  0  0  0  0  0  0  0  0  0
    1.4341    1.2470    1.1315 O   0  0  0  0  0  0  0  0  0  0  0  0
    3.3845    1.6357    0.1503 O   0  0  0  0  0  0  0  0  0  0  0  0
    3.4820    2.0468    1.0109 H   0  0  0  0  0  0  0  0  0  0  0  0
   -0.4860    1.3537    0.7622 C   0  0  0  0  0  0  0  0  0  0  0  0
   -1.3956    2.0096    0.2582 O   0  0  0  0  0  0  0  0  0  0  0  0
    0.3741    1.8728    1.6466 N   0  0  0  0  0  0  0  0  0  0  0  0
    1.0814    1.2667    2.0345 H   0  0  0  0  0  0  0  0  0  0  0  0
    0.3380    3.2610    2.1024 C   0  0  0  0  0  0  0  0  0  0  0  0
   -0.6389    3.4820    2.5363 H   0  0  0  0  0  0  0  0  0  0  0  0
    1.1108    3.4337    2.8528 H   0  0  0  0  0  0  0  0  0  0  0  0
    0.5009    3.9312    1.2562 H   0  0  0  0  0  0  0  0  0  0  0  0
  5  6  2  0  0  0  0
  5  7  1  0  0  0  0
  2  3  1  0  0  0  0
  2  4  1  0  0  0  0
  2  5  1  0  0  0  0
  1  2  1  0  0  0  0
 21 22  2  0  0  0  0
 21 23  1  0  0  0  0
 19 20  1  0  0  0  0
 17 18  2  0  0  0  0
 17 19  1  0  0  0  0
 14 15  1  0  0  0  0
 14 16  1  0  0  0  0
 14 17  1  0  0  0  0
 11 12  1  0  0  0  0
 11 13  1  0  0  0  0
 11 14  1  0  0  0  0
  9 10  1  0  0  0  0
  9 11  1  0  0  0  0
  9 21  1  0  0  0  0
  7  8  1  0  0  0  0
  7  9  1  0  0  0  0
 25 26  1  0  0  0  0
 25 27  1  0  0  0  0
 25 28  1  0  0  0  0
 23 24  1  0  0  0  0
 23 25  1  0  0  0  0
M  END
$$$$
default_name
  -OEChem-02102213163D

 28 27  0     1  0  0  0  0  0999 V2000
   -3.2133   -3.5565    1.2809 H   0  0  0  0  0  0  0  0  0  0  0  0
   -3.1873   -2.5755    0.8089 C   0  0  0  0  0  0  0  0  0  0  0  0
   -3.8793   -1.9065    1.3169 H   0  0  0  0  0  0  0  0  0  0  0  0
   -3.4623   -2.6685   -0.2401 H   0  0  0  0  0  0  0  0  0  0  0  0
   -1.7863   -2.0195    0.9119 C   0  0  0  0  0  0  0  0  0  0  0  0
   -0.9073   -2.6615    1.4699 O   0  0  0  0  0  0  0  0  0  0  0  0
   -1.5803   -0.8195    0.3749 N   0  0  0  0  0  0  0  0  0  0  0  0
   -2.3603   -0.3345   -0.0451 H   0  0  0  0  0  0  0  0  0  0  0  0
   -0.2933   -0.1205    0.3719 C   0  0  1  0  0  0  0  0  0  0  0  0
    0.3577   -0.5843    1.1143 H   0  0  0  0  0  0  0  0  0  0  0  0
    0.3613   -0.2794   -1.0156 C   0  0  0  0  0  0  0  0  0  0  0  0
    0.4901   -1.3456   -1.2095 H   0  0  0  0  0  0  0  0  0  0  0  0
   -0.3066    0.1257   -1.7771 H   0  0  0  0  0  0  0  0  0  0  0  0
    1.7275    0.4162   -1.1437 C   0  0  0  0  0  0  0  0  0  0  0  0
    2.4351   -0.2447   -1.6445 H   0  0  0  0  0  0  0  0  0  0  0  0
    1.6121    1.3261   -1.7316 H   0  0  0  0  0  0  0  0  0  0  0  0
    2.3107    0.7995    0.2126 C   0  0  0  0  0  0  0  0  0  0  0  0
    1.7260    0.7010    1.2795 O   0  0  0  0  0  0  0  0  0  0  0  0
    3.5637    1.2905    0.1871 O   0  0  0  0  0  0  0  0  0  0  0  0
    3.7736    1.4908    1.1010 H   0  0  0  0  0  0  0  0  0  0  0  0
   -0.4860    1.3537    0.7622 C   0  0  0  0  0  0  0  0  0  0  0  0
   -1.3956    2.0096    0.2582 O   0  0  0  0  0  0  0  0  0  0  0  0
    0.3741    1.8728    1.6466 N   0  0  0  0  0  0  0  0  0  0  0  0
    1.0814    1.2667    2.0345 H   0  0  0  0  0  0  0  0  0  0  0  0
    0.3380    3.2610    2.1024 C   0  0  0  0  0  0  0  0  0  0  0  0
   -0.6389    3.4820    2.5363 H   0  0  0  0  0  0  0  0  0  0  0  0
    1.1108    3.4337    2.8528 H   0  0  0  0  0  0  0  0  0  0  0  0
    0.5009    3.9312    1.2562 H   0  0  0  0  0  0  0  0  0  0  0  0
  5  6  2  0  0  0  0
  5  7  1  0  0  0  0
  2  3  1  0  0  0  0
  2  4  1  0  0  0  0
  2  5  1  0  0  0  0
  1  2  1  0  0  0  0
 21 22  2  0  0  0  0
 21 23  1  0  0  0  0
 19 20  1  0  0  0  0
 17 18  2  0  0  0  0
 17 19  1  0  0  0  0
 14 15  1  0  0  0  0
 14 16  1  0  0  0  0
 14 17  1  0  0  0  0
 11 12  1  0  0  0  0
 11 13  1  0  0  0  0
 11 14  1  0  0  0  0
  9 10  1  0  0  0  0
  9 11  1  0  0  0  0
  9 21  1  0  0  0  0
  7  8  1  0  0  0  0
  7  9  1  0  0  0  0
 25 26  1  0  0  0  0
 25 27  1  0  0  0  0
 25 28  1  0  0  0  0
 23 24  1  0  0  0  0
 23 25  1  0  0  0  0
M  END
$$$$
default_name
  -OEChem-02102213163D

 28 27  0     1  0  0  0  0  0999 V2000
   -3.2133   -3.5565    1.2809 H   0  0  0  0  0  0  0  0  0  0  0  0
   -3.1873   -2.5755    0.8089 C   0  0  0  0  0  0  0  0  0  0  0  0
   -3.8793   -1.9065    1.3169 H   0  0  0  0  0  0  0  0  0  0  0  0
   -3.4623   -2.6685   -0.2401 H   0  0  0  0  0  0  0  0  0  0  0  0
   -1.7863   -2.0195    0.9119 C   0  0  0  0  0  0  0  0  0  0  0  0
   -0.9073   -2.6615    1.4699 O   0  0  0  0  0  0  0  0  0  0  0  0
   -1.5803   -0.8195    0.3749 N   0  0  0  0  0  0  0  0  0  0  0  0
   -2.3603   -0.3345   -0.0451 H   0  0  0  0  0  0  0  0  0  0  0  0
   -0.2933   -0.1205    0.3719 C   0  0  1  0  0  0  0  0  0  0  0  0
    0.3577   -0.5843    1.1143 H   0  0  0  0  0  0  0  0  0  0  0  0
    0.3613   -0.2794   -1.0156 C   0  0  0  0  0  0  0  0  0  0  0  0
    0.4901   -1.3456   -1.2095 H   0  0  0  0  0  0  0  0  0  0  0  0
   -0.3066    0.1257   -1.7771 H   0  0  0  0  0  0  0  0  0  0  0  0
    1.7275    0.4162   -1.1437 C   0  0  0  0  0  0  0  0  0  0  0  0
    2.3494   -0.1166   -1.8632 H   0  0  0  0  0  0  0  0  0  0  0  0
    1.5777    1.4382   -1.4899 H   0  0  0  0  0  0  0  0  0  0  0  0
    2.4753    0.4711    0.1846 C   0  0  0  0  0  0  0  0  0  0  0  0
    2.0135    0.1332    1.2627 O   0  0  0  0  0  0  0  0  0  0  0  0
    3.7336    0.9447    0.1224 O   0  0  0  0  0  0  0  0  0  0  0  0
    4.0538    0.9267    1.0260 H   0  0  0  0  0  0  0  0  0  0  0  0
   -0.4860    1.3537    0.7622 C   0  0  0  0  0  0  0  0  0  0  0  0
   -1.3956    2.0096    0.2582 O   0  0  0  0  0  0  0  0  0  0  0  0
    0.3741    1.8728    1.6466 N   0  0  0  0  0  0  0  0  0  0  0  0
    1.0814    1.2667    2.0345 H   0  0  0  0  0  0  0  0  0  0  0  0
    0.3380    3.2610    2.1024 C   0  0  0  0  0  0  0  0  0  0  0  0
   -0.6389    3.4820    2.5363 H   0  0  0  0  0  0  0  0  0  0  0  0
    1.1108    3.4337    2.8528 H   0  0  0  0  0  0  0  0  0  0  0  0
    0.5009    3.9312    1.2562 H   0  0  0  0  0  0  0  0  0  0  0  0
  5  6  2  0  0  0  0
  5  7  1  0  0  0  0
  2  3  1  0  0  0  0
  2  4  1  0  0  0  0
  2  5  1  0  0  0  0
  1  2  1  0  0  0  0
 21 22  2  0  0  0  0
 21 23  1  0  0  0  0
 19 20  1  0  0  0  0
 17 18  2  0  0  0  0
 17 19  1  0  0  0  0
 14 15  1  0  0  0  0
 14 16  1  0  0  0  0
 14 17  1  0  0  0  0
 11 12  1  0  0  0  0
 11 13  1  0  0  0  0
 11 14  1  0  0  0  0
  9 10  1  0  0  0  0
  9 11  1  0  0  0  0
  9 21  1  0  0  0  0
  7  8  1  0  0  0  0
  7  9  1  0  0  0  0
 25 26  1  0  0  0  0
 25 27  1  0  0  0  0
 25 28  1  0  0  0  0
 23 24  1  0  0  0  0
 23 25  1  0  0  0  0
M  END
$$$$
default_name
  -OEChem-02102213163D

 28 27  0     1  0  0  0  0  0999 V2000
   -3.2133   -3.5565    1.2809 H   0  0  0  0  0  0  0  0  0  0  0  0
   -3.1873   -2.5755    0.8089 C   0  0  0  0  0  0  0  0  0  0  0  0
   -3.8793   -1.9065    1.3169 H   0  0  0  0  0  0  0  0  0  0  0  0
   -3.4623   -2.6685   -0.2401 H   0  0  0  0  0  0  0  0  0  0  0  0
   -1.7863   -2.0195    0.9119 C   0  0  0  0  0  0  0  0  0  0  0  0
   -0.9073   -2.6615    1.4699 O   0  0  0  0  0  0  0  0  0  0  0  0
   -1.5803   -0.8195    0.3749 N   0  0  0  0  0  0  0  0  0  0  0  0
   -2.3603   -0.3345   -0.0451 H   0  0  0  0  0  0  0  0  0  0  0  0
   -0.2933   -0.1205    0.3719 C   0  0  1  0  0  0  0  0  0  0  0  0
    0.3577   -0.5843    1.1143 H   0  0  0  0  0  0  0  0  0  0  0  0
    0.3613   -0.2794   -1.0156 C   0  0  0  0  0  0  0  0  0  0  0  0
    0.4901   -1.3456   -1.2095 H   0  0  0  0  0  0  0  0  0  0  0  0
   -0.3066    0.1257   -1.7771 H   0  0  0  0  0  0  0  0  0  0  0  0
    1.7275    0.4162   -1.1437 C   0  0  0  0  0  0  0  0  0  0  0  0
    2.2438    0.0592   -2.0349 H   0  0  0  0  0  0  0  0  0  0  0  0
    1.5751    1.4917   -1.2267 H   0  0  0  0  0  0  0  0  0  0  0  0
    2.6239    0.1567    0.0627 C   0  0  0  0  0  0  0  0  0  0  0  0
    2.2770   -0.4176    1.0824 O   0  0  0  0  0  0  0  0  0  0  0  0
    3.8828    0.6220   -0.0395 O   0  0  0  0  0  0  0  0  0  0  0  0
    4.3034    0.3931    0.7912 H   0  0  0  0  0  0  0  0  0  0  0  0
   -0.4860    1.3537    0.7622 C   0  0  0  0  0  0  0  0  0  0  0  0
   -1.3956    2.0096    0.2582 O   0  0  0  0  0  0  0  0  0  0  0  0
    0.3741    1.8728    1.6466 N   0  0  0  0  0  0  0  0  0  0  0  0
    1.0814    1.2667    2.0345 H   0  0  0  0  0  0  0  0  0  0  0  0
    0.3380    3.2610    2.1024 C   0  0  0  0  0  0  0  0  0  0  0  0
   -0.6389    3.4820    2.5363 H   0  0  0  0  0  0  0  0  0  0  0  0
    1.1108    3.4337    2.8528 H   0  0  0  0  0  0  0  0  0  0  0  0
    0.5009    3.9312    1.2562 H   0  0  0  0  0  0  0  0  0  0  0  0
  5  6  2  0  0  0  0
  5  7  1  0  0  0  0
  2  3  1  0  0  0  0
  2  4  1  0  0  0  0
  2  5  1  0  0  0  0
  1  2  1  0  0  0  0
 21 22  2  0  0  0  0
 21 23  1  0  0  0  0
 19 20  1  0  0  0  0
 17 18  2  0  0  0  0
 17 19  1  0  0  0  0
 14 15  1  0  0  0  0
 14 16  1  0  0  0  0
 14 17  1  0  0  0  0
 11 12  1  0  0  0  0
 11 13  1  0  0  0  0
 11 14  1  0  0  0  0
  9 10  1  0  0  0  0
  9 11  1  0  0  0  0
  9 21  1  0  0  0  0
  7  8  1  0  0  0  0
  7  9  1  0  0  0  0
 25 26  1  0  0  0  0
 25 27  1  0  0  0  0
 25 28  1  0  0  0  0
 23 24  1  0  0  0  0
 23 25  1  0  0  0  0
M  END
$$$$
default_name
  -OEChem-02102213163D

 28 27  0     1  0  0  0  0  0999 V2000
   -3.2133   -3.5565    1.2809 H   0  0  0  0  0  0  0  0  0  0  0  0
   -3.1873   -2.5755    0.8089 C   0  0  0  0  0  0  0  0  0  0  0  0
   -3.8793   -1.9065    1.3169 H   0  0  0  0  0  0  0  0  0  0  0  0
   -3.4623   -2.6685   -0.2401 H   0  0  0  0  0  0  0  0  0  0  0  0
   -1.7863   -2.0195    0.9119 C   0  0  0  0  0  0  0  0  0  0  0  0
   -0.9073   -2.6615    1.4699 O   0  0  0  0  0  0  0  0  0  0  0  0
   -1.5803   -0.8195    0.3749 N   0  0  0  0  0  0  0  0  0  0  0  0
   -2.3603   -0.3345   -0.0451 H   0  0  0  0  0  0  0  0  0  0  0  0
   -0.2933   -0.1205    0.3719 C   0  0  1  0  0  0  0  0  0  0  0  0
    0.3577   -0.5843    1.1143 H   0  0  0  0  0  0  0  0  0  0  0  0
    0.3613   -0.2794   -1.0156 C   0  0  0  0  0  0  0  0  0  0  0  0
    0.4901   -1.3456   -1.2095 H   0  0  0  0  0  0  0  0  0  0  0  0
   -0.3066    0.1257   -1.7771 H   0  0  0  0  0  0  0  0  0  0  0  0
    1.7275    0.4162   -1.1437 C   0  0  0  0  0  0  0  0  0  0  0  0
    2.1254    0.2708   -2.1481 H   0  0  0  0  0  0  0  0  0  0  0  0
    1.6046    1.4829   -0.9599 H   0  0  0  0  0  0  0  0  0  0  0  0
    2.7465   -0.1222   -0.1446 C   0  0  0  0  0  0  0  0  0  0  0  0
    2.4986   -0.9138    0.7508 O   0  0  0  0  0  0  0  0  0  0  0  0
    4.0010    0.3442   -0.2875 O   0  0  0  0  0  0  0  0  0  0  0  0
    4.5056   -0.0738    0.4125 H   0  0  0  0  0  0  0  0  0  0  0  0
   -0.4860    1.3537    0.7622 C   0  0  0  0  0  0  0  0  0  0  0  0
   -1.3956    2.0096    0.2582 O   0  0  0  0  0  0  0  0  0  0  0  0
    0.3741    1.8728    1.6466 N   0  0  0  0  0  0  0  0  0  0  0  0
    1.0814    1.2667    2.0345 H   0  0  0  0  0  0  0  0  0  0  0  0
    0.3380    3.2610    2.1024 C   0  0  0  0  0  0  0  0  0  0  0  0
   -0.6389    3.4820    2.5363 H   0  0  0  0  0  0  0  0  0  0  0  0
    1.1108    3.4337    2.8528 H   0  0  0  0  0  0  0  0  0  0  0  0
    0.5009    3.9312    1.2562 H   0  0  0  0  0  0  0  0  0  0  0  0
  5  6  2  0  0  0  0
  5  7  1  0  0  0  0
  2  3  1  0  0  0  0
  2  4  1  0  0  0  0
  2  5  1  0  0  0  0
  1  2  1  0  0  0  0
 21 22  2  0  0  0  0
 21 23  1  0  0  0  0
 19 20  1  0  0  0  0
 17 18  2  0  0  0  0
 17 19  1  0  0  0  0
 14 15  1  0  0  0  0
 14 16  1  0  0  0  0
 14 17  1  0  0  0  0
 11 12  1  0  0  0  0
 11 13  1  0  0  0  0
 11 14  1  0  0  0  0
  9 10  1  0  0  0  0
  9 11  1  0  0  0  0
  9 21  1  0  0  0  0
  7  8  1  0  0  0  0
  7  9  1  0  0  0  0
 25 26  1  0  0  0  0
 25 27  1  0  0  0  0
 25 28  1  0  0  0  0
 23 24  1  0  0  0  0
 23 25  1  0  0  0  0
M  END
$$$$
default_name
  -OEChem-02102213163D

 28 27  0     1  0  0  0  0  0999 V2000
   -3.2133   -3.5565    1.2809 H   0  0  0  0  0  0  0  0  0  0  0  0
   -3.1873   -2.5755    0.8089 C   0  0  0  0  0  0  0  0  0  0  0  0
   -3.8793   -1.9065    1.3169 H   0  0  0  0  0  0  0  0  0  0  0  0
   -3.4623   -2.6685   -0.2401 H   0  0  0  0  0  0  0  0  0  0  0  0
   -1.7863   -2.0195    0.9119 C   0  0  0  0  0  0  0  0  0  0  0  0
   -0.9073   -2.6615    1.4699 O   0  0  0  0  0  0  0  0  0  0  0  0
   -1.5803   -0.8195    0.3749 N   0  0  0  0  0  0  0  0  0  0  0  0
   -2.3603   -0.3345   -0.0451 H   0  0  0  0  0  0  0  0  0  0  0  0
   -0.2933   -0.1205    0.3719 C   0  0  1  0  0  0  0  0  0  0  0  0
    0.3577   -0.5843    1.1143 H   0  0  0  0  0  0  0  0  0  0  0  0
    0.3613   -0.2794   -1.0156 C   0  0  0  0  0  0  0  0  0  0  0  0
    0.4901   -1.3456   -1.2095 H   0  0  0  0  0  0  0  0  0  0  0  0
   -0.3066    0.1257   -1.7771 H   0  0  0  0  0  0  0  0  0  0  0  0
    1.7275    0.4162   -1.1437 C   0  0  0  0  0  0  0  0  0  0  0  0
    2.0024    0.5038   -2.1949 H   0  0  0  0  0  0  0  0  0  0  0  0
    1.6641    1.4125   -0.7076 H   0  0  0  0  0  0  0  0  0  0  0  0
    2.8346   -0.3466   -0.4233 C   0  0  0  0  0  0  0  0  0  0  0  0
    2.6631   -1.3217    0.2905 O   0  0  0  0  0  0  0  0  0  0  0  0
    4.0801    0.1303   -0.6047 O   0  0  0  0  0  0  0  0  0  0  0  0
    4.6465   -0.4420   -0.0843 H   0  0  0  0  0  0  0  0  0  0  0  0
   -0.4860    1.3537    0.7622 C   0  0  0  0  0  0  0  0  0  0  0  0
   -1.3956    2.0096    0.2582 O   0  0  0  0  0  0  0  0  0  0  0  0
    0.3741    1.8728    1.6466 N   0  0  0  0  0  0  0  0  0  0  0  0
    1.0814    1.2667    2.0345 H   0  0  0  0  0  0  0  0  0  0  0  0
    0.3380    3.2610    2.1024 C   0  0  0  0  0  0  0  0  0  0  0  0
   -0.6389    3.4820    2.5363 H   0  0  0  0  0  0  0  0  0  0  0  0
    1.1108    3.4337    2.8528 H   0  0  0  0  0  0  0  0  0  0  0  0
    0.5009    3.9312    1.2562 H   0  0  0  0  0  0  0  0  0  0  0  0
  5  6  2  0  0  0  0
  5  7  1  0  0  0  0
  2  3  1  0  0  0  0
  2  4  1  0  0  0  0
  2  5  1  0  0  0  0
  1  2  1  0  0  0  0
 21 22  2  0  0  0  0
 21 23  1  0  0  0  0
 19 20  1  0  0  0  0
 17 18  2  0  0  0  0
 17 19  1  0  0  0  0
 14 15  1  0  0  0  0
 14 16  1  0  0  0  0
 14 17  1  0  0  0  0
 11 12  1  0  0  0  0
 11 13  1  0  0  0  0
 11 14  1  0  0  0  0
  9 10  1  0  0  0  0
  9 11  1  0  0  0  0
  9 21  1  0  0  0  0
  7  8  1  0  0  0  0
  7  9  1  0  0  0  0
 25 26  1  0  0  0  0
 25 27  1  0  0  0  0
 25 28  1  0  0  0  0
 23 24  1  0  0  0  0
 23 25  1  0  0  0  0
M  END
$$$$
default_name
  -OEChem-02102213163D

 28 27  0     1  0  0  0  0  0999 V2000
   -3.2133   -3.5565    1.2809 H   0  0  0  0  0  0  0  0  0  0  0  0
   -3.1873   -2.5755    0.8089 C   0  0  0  0  0  0  0  0  0  0  0  0
   -3.8793   -1.9065    1.3169 H   0  0  0  0  0  0  0  0  0  0  0  0
   -3.4623   -2.6685   -0.2401 H   0  0  0  0  0  0  0  0  0  0  0  0
   -1.7863   -2.0195    0.9119 C   0  0  0  0  0  0  0  0  0  0  0  0
   -0.9073   -2.6615    1.4699 O   0  0  0  0  0  0  0  0  0  0  0  0
   -1.5803   -0.8195    0.3749 N   0  0  0  0  0  0  0  0  0  0  0  0
   -2.3603   -0.3345   -0.0451 H   0  0  0  0  0  0  0  0  0  0  0  0
   -0.2933   -0.1205    0.3719 C   0  0  1  0  0  0  0  0  0  0  0  0
    0.3577   -0.5843    1.1143 H   0  0  0  0  0  0  0  0  0  0  0  0
    0.3613   -0.2794   -1.0156 C   0  0  0  0  0  0  0  0  0  0  0  0
    0.4901   -1.3456   -1.2095 H   0  0  0  0  0  0  0  0  0  0  0  0
   -0.3066    0.1257   -1.7771 H   0  0  0  0  0  0  0  0  0  0  0  0
    1.7275    0.4162   -1.1437 C   0  0  0  0  0  0  0  0  0  0  0  0
    1.8832    0.7422   -2.1722 H   0  0  0  0  0  0  0  0  0  0  0  0
    1.7496    1.2852   -0.4871 H   0  0  0  0  0  0  0  0  0  0  0  0
    2.8822   -0.5011   -0.7543 C   0  0  0  0  0  0  0  0  0  0  0  0
    2.7594   -1.6135   -0.2670 O   0  0  0  0  0  0  0  0  0  0  0  0
    4.1148   -0.0050   -0.9695 O   0  0  0  0  0  0  0  0  0  0  0  0
    4.7166   -0.6866   -0.6653 H   0  0  0  0  0  0  0  0  0  0  0  0
   -0.4860    1.3537    0.7622 C   0  0  0  0  0  0  0  0  0  0  0  0
   -1.3956    2.0096    0.2582 O   0  0  0  0  0  0  0  0  0  0  0  0
    0.3741    1.8728    1.6466 N   0  0  0  0  0  0  0  0  0  0  0  0
    1.0814    1.2667    2.0345 H   0  0  0  0  0  0  0  0  0  0  0  0
    0.3380    3.2610    2.1024 C   0  0  0  0  0  0  0  0  0  0  0  0
   -0.6389    3.4820    2.5363 H   0  0  0  0  0  0  0  0  0  0  0  0
    1.1108    3.4337    2.8528 H   0  0  0  0  0  0  0  0  0  0  0  0
    0.5009    3.9312    1.2562 H   0  0  0  0  0  0  0  0  0  0  0  0
  5  6  2  0  0  0  0
  5  7  1  0  0  0  0
  2  3  1  0  0  0  0
  2  4  1  0  0  0  0
  2  5  1  0  0  0  0
  1  2  1  0  0  0  0
 21 22  2  0  0  0  0
 21 23  1  0  0  0  0
 19 20  1  0  0  0  0
 17 18  2  0  0  0  0
 17 19  1  0  0  0  0
 14 15  1  0  0  0  0
 14 16  1  0  0  0  0
 14 17  1  0  0  0  0
 11 12  1  0  0  0  0
 11 13  1  0  0  0  0
 11 14  1  0  0  0  0
  9 10  1  0  0  0  0
  9 11  1  0  0  0  0
  9 21  1  0  0  0  0
  7  8  1  0  0  0  0
  7  9  1  0  0  0  0
 25 26  1  0  0  0  0
 25 27  1  0  0  0  0
 25 28  1  0  0  0  0
 23 24  1  0  0  0  0
 23 25  1  0  0  0  0
M  END
$$$$
default_name
  -OEChem-02102213163D

 28 27  0     1  0  0  0  0  0999 V2000
   -3.2133   -3.5565    1.2809 H   0  0  0  0  0  0  0  0  0  0  0  0
   -3.1873   -2.5755    0.8089 C   0  0  0  0  0  0  0  0  0  0  0  0
   -3.8793   -1.9065    1.3169 H   0  0  0  0  0  0  0  0  0  0  0  0
   -3.4623   -2.6685   -0.2401 H   0  0  0  0  0  0  0  0  0  0  0  0
   -1.7863   -2.0195    0.9119 C   0  0  0  0  0  0  0  0  0  0  0  0
   -0.9073   -2.6615    1.4699 O   0  0  0  0  0  0  0  0  0  0  0  0
   -1.5803   -0.8195    0.3749 N   0  0  0  0  0  0  0  0  0  0  0  0
   -2.3603   -0.3345   -0.0451 H   0  0  0  0  0  0  0  0  0  0  0  0
   -0.2933   -0.1205    0.3719 C   0  0  1  0  0  0  0  0  0  0  0  0
    0.3577   -0.5843    1.1143 H   0  0  0  0  0  0  0  0  0  0  0  0
    0.3613   -0.2794   -1.0156 C   0  0  0  0  0  0  0  0  0  0  0  0
    0.4901   -1.3456   -1.2095 H   0  0  0  0  0  0  0  0  0  0  0  0
   -0.3066    0.1257   -1.7771 H   0  0  0  0  0  0  0  0  0  0  0  0
    1.7275    0.4162   -1.1437 C   0  0  0  0  0  0  0  0  0  0  0  0
    1.7758    0.9698   -2.0815 H   0  0  0  0  0  0  0  0  0  0  0  0
    1.8553    1.1097   -0.3133 H   0  0  0  0  0  0  0  0  0  0  0  0
    2.8862   -0.5753   -1.1152 C   0  0  0  0  0  0  0  0  0  0  0  0
    2.7808   -1.7692   -0.8840 O   0  0  0  0  0  0  0  0  0  0  0  0
    4.1027   -0.0527   -1.3571 O   0  0  0  0  0  0  0  0  0  0  0  0
    4.7110   -0.7909   -1.2909 H   0  0  0  0  0  0  0  0  0  0  0  0
   -0.4860    1.3537    0.7622 C   0  0  0  0  0  0  0  0  0  0  0  0
   -1.3956    2.0096    0.2582 O   0  0  0  0  0  0  0  0  0  0  0  0
    0.3741    1.8728    1.6466 N   0  0  0  0  0  0  0  0  0  0  0  0
    1.0814    1.2667    2.0345 H   0  0  0  0  0  0  0  0  0  0  0  0
    0.3380    3.2610    2.1024 C   0  0  0  0  0  0  0  0  0  0  0  0
   -0.6389    3.4820    2.5363 H   0  0  0  0  0  0  0  0  0  0  0  0
    1.1108    3.4337    2.8528 H   0  0  0  0  0  0  0  0  0  0  0  0
    0.5009    3.9312    1.2562 H   0  0  0  0  0  0  0  0  0  0  0  0
  5  6  2  0  0  0  0
  5  7  1  0  0  0  0
  2  3  1  0  0  0  0
  2  4  1  0  0  0  0
  2  5  1  0  0  0  0
  1  2  1  0  0  0  0
 21 22  2  0  0  0  0
 21 23  1  0  0  0  0
 19 20  1  0  0  0  0
 17 18  2  0  0  0  0
 17 19  1  0  0  0  0
 14 15  1  0  0  0  0
 14 16  1  0  0  0  0
 14 17  1  0  0  0  0
 11 12  1  0  0  0  0
 11 13  1  0  0  0  0
 11 14  1  0  0  0  0
  9 10  1  0  0  0  0
  9 11  1  0  0  0  0
  9 21  1  0  0  0  0
  7  8  1  0  0  0  0
  7  9  1  0  0  0  0
 25 26  1  0  0  0  0
 25 27  1  0  0  0  0
 25 28  1  0  0  0  0
 23 24  1  0  0  0  0
 23 25  1  0  0  0  0
M  END
$$$$
default_name
  -OEChem-02102213163D

 28 27  0     1  0  0  0  0  0999 V2000
   -3.2133   -3.5565    1.2809 H   0  0  0  0  0  0  0  0  0  0  0  0
   -3.1873   -2.5755    0.8089 C   0  0  0  0  0  0  0  0  0  0  0  0
   -3.8793   -1.9065    1.3169 H   0  0  0  0  0  0  0  0  0  0  0  0
   -3.4623   -2.6685   -0.2401 H   0  0  0  0  0  0  0  0  0  0  0  0
   -1.7863   -2.0195    0.9119 C   0  0  0  0  0  0  0  0  0  0  0  0
   -0.9073   -2.6615    1.4699 O   0  0  0  0  0  0  0  0  0  0  0  0
   -1.5803   -0.8195    0.3749 N   0  0  0  0  0  0  0  0  0  0  0  0
   -2.3603   -0.3345   -0.0451 H   0  0  0  0  0  0  0  0  0  0  0  0
   -0.2933   -0.1205    0.3719 C   0  0  1  0  0  0  0  0  0  0  0  0
    0.3577   -0.5843    1.1143 H   0  0  0  0  0  0  0  0  0  0  0  0
    0.3613   -0.2794   -1.0156 C   0  0  0  0  0  0  0  0  0  0  0  0
    0.4901   -1.3456   -1.2095 H   0  0  0  0  0  0  0  0  0  0  0  0
   -0.3066    0.1257   -1.7771 H   0  0  0  0  0  0  0  0  0  0  0  0
    1.7275    0.4162   -1.1437 C   0  0  0  0  0  0  0  0  0  0  0  0
    1.6875    1.1712   -1.9290 H   0  0  0  0  0  0  0  0  0  0  0  0
    1.9739    0.8980   -0.1982 H   0  0  0  0  0  0  0  0  0  0  0  0
    2.8461   -0.5642   -1.4813 C   0  0  0  0  0  0  0  0  0  0  0  0
    2.7259   -1.7783   -1.5182 O   0  0  0  0  0  0  0  0  0  0  0  0
    4.0446   -0.0094   -1.7410 O   0  0  0  0  0  0  0  0  0  0  0  0
    4.6301   -0.7476   -1.9185 H   0  0  0  0  0  0  0  0  0  0  0  0
   -0.4860    1.3537    0.7622 C   0  0  0  0  0  0  0  0  0  0  0  0
   -1.3956    2.0096    0.2582 O   0  0  0  0  0  0  0  0  0  0  0  0
    0.3741    1.8728    1.6466 N   0  0  0  0  0  0  0  0  0  0  0  0
    1.0814    1.2667    2.0345 H   0  0  0  0  0  0  0  0  0  0  0  0
    0.3380    3.2610    2.1024 C   0  0  0  0  0  0  0  0  0  0  0  0
   -0.6389    3.4820    2.5363 H   0  0  0  0  0  0  0  0  0  0  0  0
    1.1108    3.4337    2.8528 H   0  0  0  0  0  0  0  0  0  0  0  0
    0.5009    3.9312    1.2562 H   0  0  0  0  0  0  0  0  0  0  0  0
  5  6  2  0  0  0  0
  5  7  1  0  0  0  0
  2  3  1  0  0  0  0
  2  4  1  0  0  0  0
  2  5  1  0  0  0  0
  1  2  1  0  0  0  0
 21 22  2  0  0  0  0
 21 23  1  0  0  0  0
 19 20  1  0  0  0  0
 17 18  2  0  0  0  0
 17 19  1  0  0  0  0
 14 15  1  0  0  0  0
 14 16  1  0  0  0  0
 14 17  1  0  0  0  0
 11 12  1  0  0  0  0
 11 13  1  0  0  0  0
 11 14  1  0  0  0  0
  9 10  1  0  0  0  0
  9 11  1  0  0  0  0
  9 21  1  0  0  0  0
  7  8  1  0  0  0  0
  7  9  1  0  0  0  0
 25 26  1  0  0  0  0
 25 27  1  0  0  0  0
 25 28  1  0  0  0  0
 23 24  1  0  0  0  0
 23 25  1  0  0  0  0
M  END
$$$$
default_name
  -OEChem-02102213163D

 28 27  0     1  0  0  0  0  0999 V2000
   -3.2133   -3.5565    1.2809 H   0  0  0  0  0  0  0  0  0  0  0  0
   -3.1873   -2.5755    0.8089 C   0  0  0  0  0  0  0  0  0  0  0  0
   -3.8793   -1.9065    1.3169 H   0  0  0  0  0  0  0  0  0  0  0  0
   -3.4623   -2.6685   -0.2401 H   0  0  0  0  0  0  0  0  0  0  0  0
   -1.7863   -2.0195    0.9119 C   0  0  0  0  0  0  0  0  0  0  0  0
   -0.9073   -2.6615    1.4699 O   0  0  0  0  0  0  0  0  0  0  0  0
   -1.5803   -0.8195    0.3749 N   0  0  0  0  0  0  0  0  0  0  0  0
   -2.3603   -0.3345   -0.0451 H   0  0  0  0  0  0  0  0  0  0  0  0
   -0.2933   -0.1205    0.3719 C   0  0  1  0  0  0  0  0  0  0  0  0
    0.3577   -0.5843    1.1143 H   0  0  0  0  0  0  0  0  0  0  0  0
    0.3613   -0.2794   -1.0156 C   0  0  0  0  0  0  0  0  0  0  0  0
    0.4901   -1.3456   -1.2095 H   0  0  0  0  0  0  0  0  0  0  0  0
   -0.3066    0.1257   -1.7771 H   0  0  0  0  0  0  0  0  0  0  0  0
    1.7275    0.4162   -1.1437 C   0  0  0  0  0  0  0  0  0  0  0  0
    1.6245    1.3325   -1.7251 H   0  0  0  0  0  0  0  0  0  0  0  0
    2.0974    0.6644   -0.1496 H   0  0  0  0  0  0  0  0  0  0  0  0
    2.7649   -0.4684   -1.8277 C   0  0  0  0  0  0  0  0  0  0  0  0
    2.5985   -1.6401   -2.1264 O   0  0  0  0  0  0  0  0  0  0  0  0
    3.9446    0.1220   -2.0951 O   0  0  0  0  0  0  0  0  0  0  0  0
    4.4794   -0.5599   -2.5053 H   0  0  0  0  0  0  0  0  0  0  0  0
   -0.4860    1.3537    0.7622 C   0  0  0  0  0  0  0  0  0  0  0  0
   -1.3956    2.0096    0.2582 O   0  0  0  0  0  0  0  0  0  0  0  0
    0.3741    1.8728    1.6466 N   0  0  0  0  0  0  0  0  0  0  0  0
    1.0814    1.2667    2.0345 H   0  0  0  0  0  0  0  0  0  0  0  0
    0.3380    3.2610    2.1024 C   0  0  0  0  0  0  0  0  0  0  0  0
   -0.6389    3.4820    2.5363 H   0  0  0  0  0  0  0  0  0  0  0  0
    1.1108    3.4337    2.8528 H   0  0  0  0  0  0  0  0  0  0  0  0
    0.5009    3.9312    1.2562 H   0  0  0  0  0  0  0  0  0  0  0  0
  5  6  2  0  0  0  0
  5  7  1  0  0  0  0
  2  3  1  0  0  0  0
  2  4  1  0  0  0  0
  2  5  1  0  0  0  0
  1  2  1  0  0  0  0
 21 22  2  0  0  0  0
 21 23  1  0  0  0  0
 19 20  1  0  0  0  0
 17 18  2  0  0  0  0
 17 19  1  0  0  0  0
 14 15  1  0  0  0  0
 14 16  1  0  0  0  0
 14 17  1  0  0  0  0
 11 12  1  0  0  0  0
 11 13  1  0  0  0  0
 11 14  1  0  0  0  0
  9 10  1  0  0  0  0
  9 11  1  0  0  0  0
  9 21  1  0  0  0  0
  7  8  1  0  0  0  0
  7  9  1  0  0  0  0
 25 26  1  0  0  0  0
 25 27  1  0  0  0  0
 25 28  1  0  0  0  0
 23 24  1  0  0  0  0
 23 25  1  0  0  0  0
M  END
$$$$
default_name
  -OEChem-02102213163D

 28 27  0     1  0  0  0  0  0999 V2000
   -3.2133   -3.5565    1.2809 H   0  0  0  0  0  0  0  0  0  0  0  0
   -3.1873   -2.5755    0.8089 C   0  0  0  0  0  0  0  0  0  0  0  0
   -3.8793   -1.9065    1.3169 H   0  0  0  0  0  0  0  0  0  0  0  0
   -3.4623   -2.6685   -0.2401 H   0  0  0  0  0  0  0  0  0  0  0  0
   -1.7863   -2.0195    0.9119 C   0  0  0  0  0  0  0  0  0  0  0  0
   -0.9073   -2.6615    1.4699 O   0  0  0  0  0  0  0  0  0  0  0  0
   -1.5803   -0.8195    0.3749 N   0  0  0  0  0  0  0  0  0  0  0  0
   -2.3603   -0.3345   -0.0451 H   0  0  0  0  0  0  0  0  0  0  0  0
   -0.2933   -0.1205    0.3719 C   0  0  1  0  0  0  0  0  0  0  0  0
    0.3577   -0.5843    1.1143 H   0  0  0  0  0  0  0  0  0  0  0  0
    0.3613   -0.2794   -1.0156 C   0  0  0  0  0  0  0  0  0  0  0  0
    0.4901   -1.3456   -1.2095 H   0  0  0  0  0  0  0  0  0  0  0  0
   -0.3066    0.1257   -1.7771 H   0  0  0  0  0  0  0  0  0  0  0  0
    1.7275    0.4162   -1.1437 C   0  0  0  0  0  0  0  0  0  0  0  0
    1.5910    1.4429   -1.4837 H   0  0  0  0  0  0  0  0  0  0  0  0
    2.2173    0.4250   -0.1707 H   0  0  0  0  0  0  0  0  0  0  0  0
    2.6479   -0.2945   -2.1308 C   0  0  0  0  0  0  0  0  0  0  0  0
    2.4072   -1.3641   -2.6673 O   0  0  0  0  0  0  0  0  0  0  0  0
    3.8093    0.3323   -2.3952 O   0  0  0  0  0  0  0  0  0  0  0  0
    4.2693   -0.2404   -3.0113 H   0  0  0  0  0  0  0  0  0  0  0  0
   -0.4860    1.3537    0.7622 C   0  0  0  0  0  0  0  0  0  0  0  0
   -1.3956    2.0096    0.2582 O   0  0  0  0  0  0  0  0  0  0  0  0
    0.3741    1.8728    1.6466 N   0  0  0  0  0  0  0  0  0  0  0  0
    1.0814    1.2667    2.0345 H   0  0  0  0  0  0  0  0  0  0  0  0
    0.3380    3.2610    2.1024 C   0  0  0  0  0  0  0  0  0  0  0  0
   -0.6389    3.4820    2.5363 H   0  0  0  0  0  0  0  0  0  0  0  0
    1.1108    3.4337    2.8528 H   0  0  0  0  0  0  0  0  0  0  0  0
    0.5009    3.9312    1.2562 H   0  0  0  0  0  0  0  0  0  0  0  0
  5  6  2  0  0  0  0
  5  7  1  0  0  0  0
  2  3  1  0  0  0  0
  2  4  1  0  0  0  0
  2  5  1  0  0  0  0
  1  2  1  0  0  0  0
 21 22  2  0  0  0  0
 21 23  1  0  0  0  0
 19 20  1  0  0  0  0
 17 18  2  0  0  0  0
 17 19  1  0  0  0  0
 14 15  1  0  0  0  0
 14 16  1  0  0  0  0
 14 17  1  0  0  0  0
 11 12  1  0  0  0  0
 11 13  1  0  0  0  0
 11 14  1  0  0  0  0
  9 10  1  0  0  0  0
  9 11  1  0  0  0  0
  9 21  1  0  0  0  0
  7  8  1  0  0  0  0
  7  9  1  0  0  0  0
 25 26  1  0  0  0  0
 25 27  1  0  0  0  0
 25 28  1  0  0  0  0
 23 24  1  0  0  0  0
 23 25  1  0  0  0  0
M  END
$$$$
default_name
  -OEChem-02102213163D

 28 27  0     1  0  0  0  0  0999 V2000
   -3.2133   -3.5565    1.2809 H   0  0  0  0  0  0  0  0  0  0  0  0
   -3.1873   -2.5755    0.8089 C   0  0  0  0  0  0  0  0  0  0  0  0
   -3.8793   -1.9065    1.3169 H   0  0  0  0  0  0  0  0  0  0  0  0
   -3.4623   -2.6685   -0.2401 H   0  0  0  0  0  0  0  0  0  0  0  0
   -1.7863   -2.0195    0.9119 C   0  0  0  0  0  0  0  0  0  0  0  0
   -0.9073   -2.6615    1.4699 O   0  0  0  0  0  0  0  0  0  0  0  0
   -1.5803   -0.8195    0.3749 N   0  0  0  0  0  0  0  0  0  0  0  0
   -2.3603   -0.3345   -0.0451 H   0  0  0  0  0  0  0  0  0  0  0  0
   -0.2933   -0.1205    0.3719 C   0  0  1  0  0  0  0  0  0  0  0  0
    0.3577   -0.5843    1.1143 H   0  0  0  0  0  0  0  0  0  0  0  0
    0.3613   -0.2794   -1.0156 C   0  0  0  0  0  0  0  0  0  0  0  0
    0.4901   -1.3456   -1.2095 H   0  0  0  0  0  0  0  0  0  0  0  0
   -0.3066    0.1257   -1.7771 H   0  0  0  0  0  0  0  0  0  0  0  0
    1.7275    0.4162   -1.1437 C   0  0  0  0  0  0  0  0  0  0  0  0
    1.5892    1.4947   -1.2212 H   0  0  0  0  0  0  0  0  0  0  0  0
    2.3255    0.1960   -0.2602 H   0  0  0  0  0  0  0  0  0  0  0  0
    2.5032   -0.0544   -2.3698 C   0  0  0  0  0  0  0  0  0  0  0  0
    2.1651   -0.9691   -3.1039 O   0  0  0  0  0  0  0  0  0  0  0  0
    3.6480    0.6075   -2.6209 O   0  0  0  0  0  0  0  0  0  0  0  0
    4.0140    0.1890   -3.4020 H   0  0  0  0  0  0  0  0  0  0  0  0
   -0.4860    1.3537    0.7622 C   0  0  0  0  0  0  0  0  0  0  0  0
   -1.3956    2.0096    0.2582 O   0  0  0  0  0  0  0  0  0  0  0  0
    0.3741    1.8728    1.6466 N   0  0  0  0  0  0  0  0  0  0  0  0
    1.0814    1.2667    2.0345 H   0  0  0  0  0  0  0  0  0  0  0  0
    0.3380    3.2610    2.1024 C   0  0  0  0  0  0  0  0  0  0  0  0
   -0.6389    3.4820    2.5363 H   0  0  0  0  0  0  0  0  0  0  0  0
    1.1108    3.4337    2.8528 H   0  0  0  0  0  0  0  0  0  0  0  0
    0.5009    3.9312    1.2562 H   0  0  0  0  0  0  0  0  0  0  0  0
  5  6  2  0  0  0  0
  5  7  1  0  0  0  0
  2  3  1  0  0  0  0
  2  4  1  0  0  0  0
  2  5  1  0  0  0  0
  1  2  1  0  0  0  0
 21 22  2  0  0  0  0
 21 23  1  0  0  0  0
 19 20  1  0  0  0  0
 17 18  2  0  0  0  0
 17 19  1  0  0  0  0
 14 15  1  0  0  0  0
 14 16  1  0  0  0  0
 14 17  1  0  0  0  0
 11 12  1  0  0  0  0
 11 13  1  0  0  0  0
 11 14  1  0  0  0  0
  9 10  1  0  0  0  0
  9 11  1  0  0  0  0
  9 21  1  0  0  0  0
  7  8  1  0  0  0  0
  7  9  1  0  0  0  0
 25 26  1  0  0  0  0
 25 27  1  0  0  0  0
 25 28  1  0  0  0  0
 23 24  1  0  0  0  0
 23 25  1  0  0  0  0
M  END
$$$$
default_name
  -OEChem-02102213163D

 28 27  0     1  0  0  0  0  0999 V2000
   -3.2133   -3.5565    1.2809 H   0  0  0  0  0  0  0  0  0  0  0  0
   -3.1873   -2.5755    0.8089 C   0  0  0  0  0  0  0  0  0  0  0  0
   -3.8793   -1.9065    1.3169 H   0  0  0  0  0  0  0  0  0  0  0  0
   -3.4623   -2.6685   -0.2401 H   0  0  0  0  0  0  0  0  0  0  0  0
   -1.7863   -2.0195    0.9119 C   0  0  0  0  0  0  0  0  0  0  0  0
   -0.9073   -2.6615    1.4699 O   0  0  0  0  0  0  0  0  0  0  0  0
   -1.5803   -0.8195    0.3749 N   0  0  0  0  0  0  0  0  0  0  0  0
   -2.3603   -0.3345   -0.0451 H   0  0  0  0  0  0  0  0  0  0  0  0
   -0.2933   -0.1205    0.3719 C   0  0  1  0  0  0  0  0  0  0  0  0
    0.3577   -0.5843    1.1143 H   0  0  0  0  0  0  0  0  0  0  0  0
    0.3613   -0.2794   -1.0156 C   0  0  0  0  0  0  0  0  0  0  0  0
    0.2476   -1.3192   -1.3270 H   0  0  0  0  0  0  0  0  0  0  0  0
   -0.1640    0.3498   -1.7355 H   0  0  0  0  0  0  0  0  0  0  0  0
    1.8554    0.0863   -1.0456 C   0  0  0  0  0  0  0  0  0  0  0  0
    1.9899    1.1238   -0.7394 H   0  0  0  0  0  0  0  0  0  0  0  0
    2.3963   -0.5617   -0.3569 H   0  0  0  0  0  0  0  0  0  0  0  0
    2.4645   -0.0841   -2.4335 C   0  0  0  0  0  0  0  0  0  0  0  0
    1.8941   -0.5779   -3.3930 O   0  0  0  0  0  0  0  0  0  0  0  0
    3.7334    0.3447   -2.5664 O   0  0  0  0  0  0  0  0  0  0  0  0
    3.9678    0.1576   -3.4771 H   0  0  0  0  0  0  0  0  0  0  0  0
   -0.4860    1.3537    0.7622 C   0  0  0  0  0  0  0  0  0  0  0  0
   -1.3956    2.0096    0.2582 O   0  0  0  0  0  0  0  0  0  0  0  0
    0.3741    1.8728    1.6466 N   0  0  0  0  0  0  0  0  0  0  0  0
    1.0814    1.2667    2.0345 H   0  0  0  0  0  0  0  0  0  0  0  0
    0.3380    3.2610    2.1024 C   0  0  0  0  0  0  0  0  0  0  0  0
   -0.6389    3.4820    2.5363 H   0  0  0  0  0  0  0  0  0  0  0  0
    1.1108    3.4337    2.8528 H   0  0  0  0  0  0  0  0  0  0  0  0
    0.5009    3.9312    1.2562 H   0  0  0  0  0  0  0  0  0  0  0  0
  5  6  2  0  0  0  0
  5  7  1  0  0  0  0
  2  3  1  0  0  0  0
  2  4  1  0  0  0  0
  2  5  1  0  0  0  0
  1  2  1  0  0  0  0
 21 22  2  0  0  0  0
 21 23  1  0  0  0  0
 19 20  1  0  0  0  0
 17 18  2  0  0  0  0
 17 19  1  0  0  0  0
 14 15  1  0  0  0  0
 14 16  1  0  0  0  0
 14 17  1  0  0  0  0
 11 12  1  0  0  0  0
 11 13  1  0  0  0  0
 11 14  1  0  0  0  0
  9 10  1  0  0  0  0
  9 11  1  0  0  0  0
  9 21  1  0  0  0  0
  7  8  1  0  0  0  0
  7  9  1  0  0  0  0
 25 26  1  0  0  0  0
 25 27  1  0  0  0  0
 25 28  1  0  0  0  0
 23 24  1  0  0  0  0
 23 25  1  0  0  0  0
M  END
$$$$
default_name
  -OEChem-02102213163D

 28 27  0     1  0  0  0  0  0999 V2000
   -3.2133   -3.5565    1.2809 H   0  0  0  0  0  0  0  0  0  0  0  0
   -3.1873   -2.5755    0.8089 C   0  0  0  0  0  0  0  0  0  0  0  0
   -3.8793   -1.9065    1.3169 H   0  0  0  0  0  0  0  0  0  0  0  0
   -3.4623   -2.6685   -0.2401 H   0  0  0  0  0  0  0  0  0  0  0  0
   -1.7863   -2.0195    0.9119 C   0  0  0  0  0  0  0  0  0  0  0  0
   -0.9073   -2.6615    1.4699 O   0  0  0  0  0  0  0  0  0  0  0  0
   -1.5803   -0.8195    0.3749 N   0  0  0  0  0  0  0  0  0  0  0  0
   -2.3603   -0.3345   -0.0451 H   0  0  0  0  0  0  0  0  0  0  0  0
   -0.2933   -0.1205    0.3719 C   0  0  1  0  0  0  0  0  0  0  0  0
    0.3577   -0.5843    1.1143 H   0  0  0  0  0  0  0  0  0  0  0  0
    0.3613   -0.2794   -1.0156 C   0  0  0  0  0  0  0  0  0  0  0  0
    0.2476   -1.3192   -1.3270 H   0  0  0  0  0  0  0  0  0  0  0  0
   -0.1640    0.3498   -1.7355 H   0  0  0  0  0  0  0  0  0  0  0  0
    1.8554    0.0863   -1.0456 C   0  0  0  0  0  0  0  0  0  0  0  0
    2.0217    1.0138   -0.4976 H   0  0  0  0  0  0  0  0  0  0  0  0
    2.4288   -0.7125   -0.5768 H   0  0  0  0  0  0  0  0  0  0  0  0
    2.3767    0.2722   -2.4669 C   0  0  0  0  0  0  0  0  0  0  0  0
    1.7425    0.0339   -3.4823 O   0  0  0  0  0  0  0  0  0  0  0  0
    3.6406    0.7242   -2.5665 O   0  0  0  0  0  0  0  0  0  0  0  0
    3.8166    0.7728   -3.5077 H   0  0  0  0  0  0  0  0  0  0  0  0
   -0.4860    1.3537    0.7622 C   0  0  0  0  0  0  0  0  0  0  0  0
   -1.3956    2.0096    0.2582 O   0  0  0  0  0  0  0  0  0  0  0  0
    0.3741    1.8728    1.6466 N   0  0  0  0  0  0  0  0  0  0  0  0
    1.0814    1.2667    2.0345 H   0  0  0  0  0  0  0  0  0  0  0  0
    0.3380    3.2610    2.1024 C   0  0  0  0  0  0  0  0  0  0  0  0
   -0.6389    3.4820    2.5363 H   0  0  0  0  0  0  0  0  0  0  0  0
    1.1108    3.4337    2.8528 H   0  0  0  0  0  0  0  0  0  0  0  0
    0.5009    3.9312    1.2562 H   0  0  0  0  0  0  0  0  0  0  0  0
  5  6  2  0  0  0  0
  5  7  1  0  0  0  0
  2  3  1  0  0  0  0
  2  4  1  0  0  0  0
  2  5  1  0  0  0  0
  1  2  1  0  0  0  0
 21 22  2  0  0  0  0
 21 23  1  0  0  0  0
 19 20  1  0  0  0  0
 17 18  2  0  0  0  0
 17 19  1  0  0  0  0
 14 15  1  0  0  0  0
 14 16  1  0  0  0  0
 14 17  1  0  0  0  0
 11 12  1  0  0  0  0
 11 13  1  0  0  0  0
 11 14  1  0  0  0  0
  9 10  1  0  0  0  0
  9 11  1  0  0  0  0
  9 21  1  0  0  0  0
  7  8  1  0  0  0  0
  7  9  1  0  0  0  0
 25 26  1  0  0  0  0
 25 27  1  0  0  0  0
 25 28  1  0  0  0  0
 23 24  1  0  0  0  0
 23 25  1  0  0  0  0
M  END
$$$$
default_name
  -OEChem-02102213163D

 28 27  0     1  0  0  0  0  0999 V2000
   -3.2133   -3.5565    1.2809 H   0  0  0  0  0  0  0  0  0  0  0  0
   -3.1873   -2.5755    0.8089 C   0  0  0  0  0  0  0  0  0  0  0  0
   -3.8793   -1.9065    1.3169 H   0  0  0  0  0  0  0  0  0  0  0  0
   -3.4623   -2.6685   -0.2401 H   0  0  0  0  0  0  0  0  0  0  0  0
   -1.7863   -2.0195    0.9119 C   0  0  0  0  0  0  0  0  0  0  0  0
   -0.9073   -2.6615    1.4699 O   0  0  0  0  0  0  0  0  0  0  0  0
   -1.5803   -0.8195    0.3749 N   0  0  0  0  0  0  0  0  0  0  0  0
   -2.3603   -0.3345   -0.0451 H   0  0  0  0  0  0  0  0  0  0  0  0
   -0.2933   -0.1205    0.3719 C   0  0  1  0  0  0  0  0  0  0  0  0
    0.3577   -0.5843    1.1143 H   0  0  0  0  0  0  0  0  0  0  0  0
    0.3613   -0.2794   -1.0156 C   0  0  0  0  0  0  0  0  0  0  0  0
    0.2476   -1.3192   -1.3270 H   0  0  0  0  0  0  0  0  0  0  0  0
   -0.1640    0.3498   -1.7355 H   0  0  0  0  0  0  0  0  0  0  0  0
    1.8554    0.0863   -1.0456 C   0  0  0  0  0  0  0  0  0  0  0  0
    2.0667    0.8467   -0.2936 H   0  0  0  0  0  0  0  0  0  0  0  0
    2.4459   -0.8031   -0.8291 H   0  0  0  0  0  0  0  0  0  0  0  0
    2.2915    0.6251   -2.4042 C   0  0  0  0  0  0  0  0  0  0  0  0
    1.5937    0.6481   -3.4054 O   0  0  0  0  0  0  0  0  0  0  0  0
    3.5527    1.0912   -2.4654 O   0  0  0  0  0  0  0  0  0  0  0  0
    3.6717    1.3755   -3.3734 H   0  0  0  0  0  0  0  0  0  0  0  0
   -0.4860    1.3537    0.7622 C   0  0  0  0  0  0  0  0  0  0  0  0
   -1.3956    2.0096    0.2582 O   0  0  0  0  0  0  0  0  0  0  0  0
    0.3741    1.8728    1.6466 N   0  0  0  0  0  0  0  0  0  0  0  0
    1.0814    1.2667    2.0345 H   0  0  0  0  0  0  0  0  0  0  0  0
    0.3380    3.2610    2.1024 C   0  0  0  0  0  0  0  0  0  0  0  0
   -0.6389    3.4820    2.5363 H   0  0  0  0  0  0  0  0  0  0  0  0
    1.1108    3.4337    2.8528 H   0  0  0  0  0  0  0  0  0  0  0  0
    0.5009    3.9312    1.2562 H   0  0  0  0  0  0  0  0  0  0  0  0
  5  6  2  0  0  0  0
  5  7  1  0  0  0  0
  2  3  1  0  0  0  0
  2  4  1  0  0  0  0
  2  5  1  0  0  0  0
  1  2  1  0  0  0  0
 21 22  2  0  0  0  0
 21 23  1  0  0  0  0
 19 20  1  0  0  0  0
 17 18  2  0  0  0  0
 17 19  1  0  0  0  0
 14 15  1  0  0  0  0
 14 16  1  0  0  0  0
 14 17  1  0  0  0  0
 11 12  1  0  0  0  0
 11 13  1  0  0  0  0
 11 14  1  0  0  0  0
  9 10  1  0  0  0  0
  9 11  1  0  0  0  0
  9 21  1  0  0  0  0
  7  8  1  0  0  0  0
  7  9  1  0  0  0  0
 25 26  1  0  0  0  0
 25 27  1  0  0  0  0
 25 28  1  0  0  0  0
 23 24  1  0  0  0  0
 23 25  1  0  0  0  0
M  END
$$$$
default_name
  -OEChem-02102213163D

 28 27  0     1  0  0  0  0  0999 V2000
   -3.2133   -3.5565    1.2809 H   0  0  0  0  0  0  0  0  0  0  0  0
   -3.1873   -2.5755    0.8089 C   0  0  0  0  0  0  0  0  0  0  0  0
   -3.8793   -1.9065    1.3169 H   0  0  0  0  0  0  0  0  0  0  0  0
   -3.4623   -2.6685   -0.2401 H   0  0  0  0  0  0  0  0  0  0  0  0
   -1.7863   -2.0195    0.9119 C   0  0  0  0  0  0  0  0  0  0  0  0
   -0.9073   -2.6615    1.4699 O   0  0  0  0  0  0  0  0  0  0  0  0
   -1.5803   -0.8195    0.3749 N   0  0  0  0  0  0  0  0  0  0  0  0
   -2.3603   -0.3345   -0.0451 H   0  0  0  0  0  0  0  0  0  0  0  0
   -0.2933   -0.1205    0.3719 C   0  0  1  0  0  0  0  0  0  0  0  0
    0.3577   -0.5843    1.1143 H   0  0  0  0  0  0  0  0  0  0  0  0
    0.3613   -0.2794   -1.0156 C   0  0  0  0  0  0  0  0  0  0  0  0
    0.2476   -1.3192   -1.3270 H   0  0  0  0  0  0  0  0  0  0  0  0
   -0.1640    0.3498   -1.7355 H   0  0  0  0  0  0  0  0  0  0  0  0
    1.8554    0.0863   -1.0456 C   0  0  0  0  0  0  0  0  0  0  0  0
    2.1219    0.6337   -0.1414 H   0  0  0  0  0  0  0  0  0  0  0  0
    2.4465   -0.8273   -1.0966 H   0  0  0  0  0  0  0  0  0  0  0  0
    2.2149    0.9508   -2.2497 C   0  0  0  0  0  0  0  0  0  0  0  0
    1.4578    1.2228   -3.1677 O   0  0  0  0  0  0  0  0  0  0  0  0
    3.4760    1.4208   -2.2702 O   0  0  0  0  0  0  0  0  0  0  0  0
    3.5432    1.9246   -3.0832 H   0  0  0  0  0  0  0  0  0  0  0  0
   -0.4860    1.3537    0.7622 C   0  0  0  0  0  0  0  0  0  0  0  0
   -1.3956    2.0096    0.2582 O   0  0  0  0  0  0  0  0  0  0  0  0
    0.3741    1.8728    1.6466 N   0  0  0  0  0  0  0  0  0  0  0  0
    1.0814    1.2667    2.0345 H   0  0  0  0  0  0  0  0  0  0  0  0
    0.3380    3.2610    2.1024 C   0  0  0  0  0  0  0  0  0  0  0  0
   -0.6389    3.4820    2.5363 H   0  0  0  0  0  0  0  0  0  0  0  0
    1.1108    3.4337    2.8528 H   0  0  0  0  0  0  0  0  0  0  0  0
    0.5009    3.9312    1.2562 H   0  0  0  0  0  0  0  0  0  0  0  0
  5  6  2  0  0  0  0
  5  7  1  0  0  0  0
  2  3  1  0  0  0  0
  2  4  1  0  0  0  0
  2  5  1  0  0  0  0
  1  2  1  0  0  0  0
 21 22  2  0  0  0  0
 21 23  1  0  0  0  0
 19 20  1  0  0  0  0
 17 18  2  0  0  0  0
 17 19  1  0  0  0  0
 14 15  1  0  0  0  0
 14 16  1  0  0  0  0
 14 17  1  0  0  0  0
 11 12  1  0  0  0  0
 11 13  1  0  0  0  0
 11 14  1  0  0  0  0
  9 10  1  0  0  0  0
  9 11  1  0  0  0  0
  9 21  1  0  0  0  0
  7  8  1  0  0  0  0
  7  9  1  0  0  0  0
 25 26  1  0  0  0  0
 25 27  1  0  0  0  0
 25 28  1  0  0  0  0
 23 24  1  0  0  0  0
 23 25  1  0  0  0  0
M  END
$$$$
default_name
  -OEChem-02102213163D

 28 27  0     1  0  0  0  0  0999 V2000
   -3.2133   -3.5565    1.2809 H   0  0  0  0  0  0  0  0  0  0  0  0
   -3.1873   -2.5755    0.8089 C   0  0  0  0  0  0  0  0  0  0  0  0
   -3.8793   -1.9065    1.3169 H   0  0  0  0  0  0  0  0  0  0  0  0
   -3.4623   -2.6685   -0.2401 H   0  0  0  0  0  0  0  0  0  0  0  0
   -1.7863   -2.0195    0.9119 C   0  0  0  0  0  0  0  0  0  0  0  0
   -0.9073   -2.6615    1.4699 O   0  0  0  0  0  0  0  0  0  0  0  0
   -1.5803   -0.8195    0.3749 N   0  0  0  0  0  0  0  0  0  0  0  0
   -2.3603   -0.3345   -0.0451 H   0  0  0  0  0  0  0  0  0  0  0  0
   -0.2933   -0.1205    0.3719 C   0  0  1  0  0  0  0  0  0  0  0  0
    0.3577   -0.5843    1.1143 H   0  0  0  0  0  0  0  0  0  0  0  0
    0.3613   -0.2794   -1.0156 C   0  0  0  0  0  0  0  0  0  0  0  0
    0.2476   -1.3192   -1.3270 H   0  0  0  0  0  0  0  0  0  0  0  0
   -0.1640    0.3498   -1.7355 H   0  0  0  0  0  0  0  0  0  0  0  0
    1.8554    0.0863   -1.0456 C   0  0  0  0  0  0  0  0  0  0  0  0
    2.1835    0.3894   -0.0513 H   0  0  0  0  0  0  0  0  0  0  0  0
    2.4304   -0.7835   -1.3611 H   0  0  0  0  0  0  0  0  0  0  0  0
    2.1521    1.2268   -2.0139 C   0  0  0  0  0  0  0  0  0  0  0  0
    1.3441    1.7189   -2.7852 O   0  0  0  0  0  0  0  0  0  0  0  0
    3.4156    1.6904   -1.9940 O   0  0  0  0  0  0  0  0  0  0  0  0
    3.4396    2.3827   -2.6569 H   0  0  0  0  0  0  0  0  0  0  0  0
   -0.4860    1.3537    0.7622 C   0  0  0  0  0  0  0  0  0  0  0  0
   -1.3956    2.0096    0.2582 O   0  0  0  0  0  0  0  0  0  0  0  0
    0.3741    1.8728    1.6466 N   0  0  0  0  0  0  0  0  0  0  0  0
    1.0814    1.2667    2.0345 H   0  0  0  0  0  0  0  0  0  0  0  0
    0.3380    3.2610    2.1024 C   0  0  0  0  0  0  0  0  0  0  0  0
   -0.6389    3.4820    2.5363 H   0  0  0  0  0  0  0  0  0  0  0  0
    1.1108    3.4337    2.8528 H   0  0  0  0  0  0  0  0  0  0  0  0
    0.5009    3.9312    1.2562 H   0  0  0  0  0  0  0  0  0  0  0  0
  5  6  2  0  0  0  0
  5  7  1  0  0  0  0
  2  3  1  0  0  0  0
  2  4  1  0  0  0  0
  2  5  1  0  0  0  0
  1  2  1  0  0  0  0
 21 22  2  0  0  0  0
 21 23  1  0  0  0  0
 19 20  1  0  0  0  0
 17 18  2  0  0  0  0
 17 19  1  0  0  0  0
 14 15  1  0  0  0  0
 14 16  1  0  0  0  0
 14 17  1  0  0  0  0
 11 12  1  0  0  0  0
 11 13  1  0  0  0  0
 11 14  1  0  0  0  0
  9 10  1  0  0  0  0
  9 11  1  0  0  0  0
  9 21  1  0  0  0  0
  7  8  1  0  0  0  0
  7  9  1  0  0  0  0
 25 26  1  0  0  0  0
 25 27  1  0  0  0  0
 25 28  1  0  0  0  0
 23 24  1  0  0  0  0
 23 25  1  0  0  0  0
M  END
$$$$
default_name
  -OEChem-02102213163D

 28 27  0     1  0  0  0  0  0999 V2000
   -3.2133   -3.5565    1.2809 H   0  0  0  0  0  0  0  0  0  0  0  0
   -3.1873   -2.5755    0.8089 C   0  0  0  0  0  0  0  0  0  0  0  0
   -3.8793   -1.9065    1.3169 H   0  0  0  0  0  0  0  0  0  0  0  0
   -3.4623   -2.6685   -0.2401 H   0  0  0  0  0  0  0  0  0  0  0  0
   -1.7863   -2.0195    0.9119 C   0  0  0  0  0  0  0  0  0  0  0  0
   -0.9073   -2.6615    1.4699 O   0  0  0  0  0  0  0  0  0  0  0  0
   -1.5803   -0.8195    0.3749 N   0  0  0  0  0  0  0  0  0  0  0  0
   -2.3603   -0.3345   -0.0451 H   0  0  0  0  0  0  0  0  0  0  0  0
   -0.2933   -0.1205    0.3719 C   0  0  1  0  0  0  0  0  0  0  0  0
    0.3577   -0.5843    1.1143 H   0  0  0  0  0  0  0  0  0  0  0  0
    0.3613   -0.2794   -1.0156 C   0  0  0  0  0  0  0  0  0  0  0  0
    0.2476   -1.3192   -1.3270 H   0  0  0  0  0  0  0  0  0  0  0  0
   -0.1640    0.3498   -1.7355 H   0  0  0  0  0  0  0  0  0  0  0  0
    1.8554    0.0863   -1.0456 C   0  0  0  0  0  0  0  0  0  0  0  0
    2.2473    0.1305   -0.0294 H   0  0  0  0  0  0  0  0  0  0  0  0
    2.3989   -0.6746   -1.6046 H   0  0  0  0  0  0  0  0  0  0  0  0
    2.1073    1.4345   -1.7129 C   0  0  0  0  0  0  0  0  0  0  0  0
    1.2603    2.1025   -2.2840 O   0  0  0  0  0  0  0  0  0  0  0  0
    3.3755    1.8818   -1.6558 O   0  0  0  0  0  0  0  0  0  0  0  0
    3.3681    2.7186   -2.1237 H   0  0  0  0  0  0  0  0  0  0  0  0
   -0.4860    1.3537    0.7622 C   0  0  0  0  0  0  0  0  0  0  0  0
   -1.3956    2.0096    0.2582 O   0  0  0  0  0  0  0  0  0  0  0  0
    0.3741    1.8728    1.6466 N   0  0  0  0  0  0  0  0  0  0  0  0
    1.0814    1.2667    2.0345 H   0  0  0  0  0  0  0  0  0  0  0  0
    0.3380    3.2610    2.1024 C   0  0  0  0  0  0  0  0  0  0  0  0
   -0.6389    3.4820    2.5363 H   0  0  0  0  0  0  0  0  0  0  0  0
    1.1108    3.4337    2.8528 H   0  0  0  0  0  0  0  0  0  0  0  0
    0.5009    3.9312    1.2562 H   0  0  0  0  0  0  0  0  0  0  0  0
  5  6  2  0  0  0  0
  5  7  1  0  0  0  0
  2  3  1  0  0  0  0
  2  4  1  0  0  0  0
  2  5  1  0  0  0  0
  1  2  1  0  0  0  0
 21 22  2  0  0  0  0
 21 23  1  0  0  0  0
 19 20  1  0  0  0  0
 17 18  2  0  0  0  0
 17 19  1  0  0  0  0
 14 15  1  0  0  0  0
 14 16  1  0  0  0  0
 14 17  1  0  0  0  0
 11 12  1  0  0  0  0
 11 13  1  0  0  0  0
 11 14  1  0  0  0  0
  9 10  1  0  0  0  0
  9 11  1  0  0  0  0
  9 21  1  0  0  0  0
  7  8  1  0  0  0  0
  7  9  1  0  0  0  0
 25 26  1  0  0  0  0
 25 27  1  0  0  0  0
 25 28  1  0  0  0  0
 23 24  1  0  0  0  0
 23 25  1  0  0  0  0
M  END
$$$$
default_name
  -OEChem-02102213163D

 28 27  0     1  0  0  0  0  0999 V2000
   -3.2133   -3.5565    1.2809 H   0  0  0  0  0  0  0  0  0  0  0  0
   -3.1873   -2.5755    0.8089 C   0  0  0  0  0  0  0  0  0  0  0  0
   -3.8793   -1.9065    1.3169 H   0  0  0  0  0  0  0  0  0  0  0  0
   -3.4623   -2.6685   -0.2401 H   0  0  0  0  0  0  0  0  0  0  0  0
   -1.7863   -2.0195    0.9119 C   0  0  0  0  0  0  0  0  0  0  0  0
   -0.9073   -2.6615    1.4699 O   0  0  0  0  0  0  0  0  0  0  0  0
   -1.5803   -0.8195    0.3749 N   0  0  0  0  0  0  0  0  0  0  0  0
   -2.3603   -0.3345   -0.0451 H   0  0  0  0  0  0  0  0  0  0  0  0
   -0.2933   -0.1205    0.3719 C   0  0  1  0  0  0  0  0  0  0  0  0
    0.3577   -0.5843    1.1143 H   0  0  0  0  0  0  0  0  0  0  0  0
    0.3613   -0.2794   -1.0156 C   0  0  0  0  0  0  0  0  0  0  0  0
    0.2476   -1.3192   -1.3270 H   0  0  0  0  0  0  0  0  0  0  0  0
   -0.1640    0.3498   -1.7355 H   0  0  0  0  0  0  0  0  0  0  0  0
    1.8554    0.0863   -1.0456 C   0  0  0  0  0  0  0  0  0  0  0  0
    2.3090   -0.1254   -0.0773 H   0  0  0  0  0  0  0  0  0  0  0  0
    2.3539   -0.5080   -1.8104 H   0  0  0  0  0  0  0  0  0  0  0  0
    2.0836    1.5597   -1.3672 C   0  0  0  0  0  0  0  0  0  0  0  0
    1.2121    2.3475   -1.6984 O   0  0  0  0  0  0  0  0  0  0  0  0
    3.3586    1.9818   -1.2785 O   0  0  0  0  0  0  0  0  0  0  0  0
    3.3336    2.9094   -1.5198 H   0  0  0  0  0  0  0  0  0  0  0  0
   -0.4860    1.3537    0.7622 C   0  0  0  0  0  0  0  0  0  0  0  0
   -1.3956    2.0096    0.2582 O   0  0  0  0  0  0  0  0  0  0  0  0
    0.3741    1.8728    1.6466 N   0  0  0  0  0  0  0  0  0  0  0  0
    1.0814    1.2667    2.0345 H   0  0  0  0  0  0  0  0  0  0  0  0
    0.3380    3.2610    2.1024 C   0  0  0  0  0  0  0  0  0  0  0  0
   -0.6389    3.4820    2.5363 H   0  0  0  0  0  0  0  0  0  0  0  0
    1.1108    3.4337    2.8528 H   0  0  0  0  0  0  0  0  0  0  0  0
    0.5009    3.9312    1.2562 H   0  0  0  0  0  0  0  0  0  0  0  0
  5  6  2  0  0  0  0
  5  7  1  0  0  0  0
  2  3  1  0  0  0  0
  2  4  1  0  0  0  0
  2  5  1  0  0  0  0
  1  2  1  0  0  0  0
 21 22  2  0  0  0  0
 21 23  1  0  0  0  0
 19 20  1  0  0  0  0
 17 18  2  0  0  0  0
 17 19  1  0  0  0  0
 14 15  1  0  0  0  0
 14 16  1  0  0  0  0
 14 17  1  0  0  0  0
 11 12  1  0  0  0  0
 11 13  1  0  0  0  0
 11 14  1  0  0  0  0
  9 10  1  0  0  0  0
  9 11  1  0  0  0  0
  9 21  1  0  0  0  0
  7  8  1  0  0  0  0
  7  9  1  0  0  0  0
 25 26  1  0  0  0  0
 25 27  1  0  0  0  0
 25 28  1  0  0  0  0
 23 24  1  0  0  0  0
 23 25  1  0  0  0  0
M  END
$$$$
default_name
  -OEChem-02102213163D

 28 27  0     1  0  0  0  0  0999 V2000
   -3.2133   -3.5565    1.2809 H   0  0  0  0  0  0  0  0  0  0  0  0
   -3.1873   -2.5755    0.8089 C   0  0  0  0  0  0  0  0  0  0  0  0
   -3.8793   -1.9065    1.3169 H   0  0  0  0  0  0  0  0  0  0  0  0
   -3.4623   -2.6685   -0.2401 H   0  0  0  0  0  0  0  0  0  0  0  0
   -1.7863   -2.0195    0.9119 C   0  0  0  0  0  0  0  0  0  0  0  0
   -0.9073   -2.6615    1.4699 O   0  0  0  0  0  0  0  0  0  0  0  0
   -1.5803   -0.8195    0.3749 N   0  0  0  0  0  0  0  0  0  0  0  0
   -2.3603   -0.3345   -0.0451 H   0  0  0  0  0  0  0  0  0  0  0  0
   -0.2933   -0.1205    0.3719 C   0  0  1  0  0  0  0  0  0  0  0  0
    0.3577   -0.5843    1.1143 H   0  0  0  0  0  0  0  0  0  0  0  0
    0.3613   -0.2794   -1.0156 C   0  0  0  0  0  0  0  0  0  0  0  0
    0.2476   -1.3192   -1.3270 H   0  0  0  0  0  0  0  0  0  0  0  0
   -0.1640    0.3498   -1.7355 H   0  0  0  0  0  0  0  0  0  0  0  0
    1.8554    0.0863   -1.0456 C   0  0  0  0  0  0  0  0  0  0  0  0
    2.3643   -0.3609   -0.1916 H   0  0  0  0  0  0  0  0  0  0  0  0
    2.2987   -0.2951   -1.9647 H   0  0  0  0  0  0  0  0  0  0  0  0
    2.0826    1.5939   -1.0003 C   0  0  0  0  0  0  0  0  0  0  0  0
    1.2028    2.4371   -1.0682 O   0  0  0  0  0  0  0  0  0  0  0  0
    3.3660    1.9837   -0.8879 O   0  0  0  0  0  0  0  0  0  0  0  0
    3.3383    2.9420   -0.8864 H   0  0  0  0  0  0  0  0  0  0  0  0
   -0.4860    1.3537    0.7622 C   0  0  0  0  0  0  0  0  0  0  0  0
   -1.3956    2.0096    0.2582 O   0  0  0  0  0  0  0  0  0  0  0  0
    0.3741    1.8728    1.6466 N   0  0  0  0  0  0  0  0  0  0  0  0
    1.0814    1.2667    2.0345 H   0  0  0  0  0  0  0  0  0  0  0  0
    0.3380    3.2610    2.1024 C   0  0  0  0  0  0  0  0  0  0  0  0
   -0.6389    3.4820    2.5363 H   0  0  0  0  0  0  0  0  0  0  0  0
    1.1108    3.4337    2.8528 H   0  0  0  0  0  0  0  0  0  0  0  0
    0.5009    3.9312    1.2562 H   0  0  0  0  0  0  0  0  0  0  0  0
  5  6  2  0  0  0  0
  5  7  1  0  0  0  0
  2  3  1  0  0  0  0
  2  4  1  0  0  0  0
  2  5  1  0  0  0  0
  1  2  1  0  0  0  0
 21 22  2  0  0  0  0
 21 23  1  0  0  0  0
 19 20  1  0  0  0  0
 17 18  2  0  0  0  0
 17 19  1  0  0  0  0
 14 15  1  0  0  0  0
 14 16  1  0  0  0  0
 14 17  1  0  0  0  0
 11 12  1  0  0  0  0
 11 13  1  0  0  0  0
 11 14  1  0  0  0  0
  9 10  1  0  0  0  0
  9 11  1  0  0  0  0
  9 21  1  0  0  0  0
  7  8  1  0  0  0  0
  7  9  1  0  0  0  0
 25 26  1  0  0  0  0
 25 27  1  0  0  0  0
 25 28  1  0  0  0  0
 23 24  1  0  0  0  0
 23 25  1  0  0  0  0
M  END
$$$$
default_name
  -OEChem-02102213163D

 28 27  0     1  0  0  0  0  0999 V2000
   -3.2133   -3.5565    1.2809 H   0  0  0  0  0  0  0  0  0  0  0  0
   -3.1873   -2.5755    0.8089 C   0  0  0  0  0  0  0  0  0  0  0  0
   -3.8793   -1.9065    1.3169 H   0  0  0  0  0  0  0  0  0  0  0  0
   -3.4623   -2.6685   -0.2401 H   0  0  0  0  0  0  0  0  0  0  0  0
   -1.7863   -2.0195    0.9119 C   0  0  0  0  0  0  0  0  0  0  0  0
   -0.9073   -2.6615    1.4699 O   0  0  0  0  0  0  0  0  0  0  0  0
   -1.5803   -0.8195    0.3749 N   0  0  0  0  0  0  0  0  0  0  0  0
   -2.3603   -0.3345   -0.0451 H   0  0  0  0  0  0  0  0  0  0  0  0
   -0.2933   -0.1205    0.3719 C   0  0  1  0  0  0  0  0  0  0  0  0
    0.3577   -0.5843    1.1143 H   0  0  0  0  0  0  0  0  0  0  0  0
    0.3613   -0.2794   -1.0156 C   0  0  0  0  0  0  0  0  0  0  0  0
    0.2476   -1.3192   -1.3270 H   0  0  0  0  0  0  0  0  0  0  0  0
   -0.1640    0.3498   -1.7355 H   0  0  0  0  0  0  0  0  0  0  0  0
    1.8554    0.0863   -1.0456 C   0  0  0  0  0  0  0  0  0  0  0  0
    2.4095   -0.5598   -0.3647 H   0  0  0  0  0  0  0  0  0  0  0  0
    2.2370   -0.0505   -2.0567 H   0  0  0  0  0  0  0  0  0  0  0  0
    2.1044    1.5347   -0.6373 C   0  0  0  0  0  0  0  0  0  0  0  0
    1.2331    2.3654   -0.4363 O   0  0  0  0  0  0  0  0  0  0  0  0
    3.3972    1.8872   -0.5106 O   0  0  0  0  0  0  0  0  0  0  0  0
    3.3820    2.8144   -0.2667 H   0  0  0  0  0  0  0  0  0  0  0  0
   -0.4860    1.3537    0.7622 C   0  0  0  0  0  0  0  0  0  0  0  0
   -1.3956    2.0096    0.2582 O   0  0  0  0  0  0  0  0  0  0  0  0
    0.3741    1.8728    1.6466 N   0  0  0  0  0  0  0  0  0  0  0  0
    1.0814    1.2667    2.0345 H   0  0  0  0  0  0  0  0  0  0  0  0
    0.3380    3.2610    2.1024 C   0  0  0  0  0  0  0  0  0  0  0  0
   -0.6389    3.4820    2.5363 H   0  0  0  0  0  0  0  0  0  0  0  0
    1.1108    3.4337    2.8528 H   0  0  0  0  0  0  0  0  0  0  0  0
    0.5009    3.9312    1.2562 H   0  0  0  0  0  0  0  0  0  0  0  0
  5  6  2  0  0  0  0
  5  7  1  0  0  0  0
  2  3  1  0  0  0  0
  2  4  1  0  0  0  0
  2  5  1  0  0  0  0
  1  2  1  0  0  0  0
 21 22  2  0  0  0  0
 21 23  1  0  0  0  0
 19 20  1  0  0  0  0
 17 18  2  0  0  0  0
 17 19  1  0  0  0  0
 14 15  1  0  0  0  0
 14 16  1  0  0  0  0
 14 17  1  0  0  0  0
 11 12  1  0  0  0  0
 11 13  1  0  0  0  0
 11 14  1  0  0  0  0
  9 10  1  0  0  0  0
  9 11  1  0  0  0  0
  9 21  1  0  0  0  0
  7  8  1  0  0  0  0
  7  9  1  0  0  0  0
 25 26  1  0  0  0  0
 25 27  1  0  0  0  0
 25 28  1  0  0  0  0
 23 24  1  0  0  0  0
 23 25  1  0  0  0  0
M  END
$$$$
default_name
  -OEChem-02102213163D

 28 27  0     1  0  0  0  0  0999 V2000
   -3.2133   -3.5565    1.2809 H   0  0  0  0  0  0  0  0  0  0  0  0
   -3.1873   -2.5755    0.8089 C   0  0  0  0  0  0  0  0  0  0  0  0
   -3.8793   -1.9065    1.3169 H   0  0  0  0  0  0  0  0  0  0  0  0
   -3.4623   -2.6685   -0.2401 H   0  0  0  0  0  0  0  0  0  0  0  0
   -1.7863   -2.0195    0.9119 C   0  0  0  0  0  0  0  0  0  0  0  0
   -0.9073   -2.6615    1.4699 O   0  0  0  0  0  0  0  0  0  0  0  0
   -1.5803   -0.8195    0.3749 N   0  0  0  0  0  0  0  0  0  0  0  0
   -2.3603   -0.3345   -0.0451 H   0  0  0  0  0  0  0  0  0  0  0  0
   -0.2933   -0.1205    0.3719 C   0  0  1  0  0  0  0  0  0  0  0  0
    0.3577   -0.5843    1.1143 H   0  0  0  0  0  0  0  0  0  0  0  0
    0.3613   -0.2794   -1.0156 C   0  0  0  0  0  0  0  0  0  0  0  0
    0.2476   -1.3192   -1.3270 H   0  0  0  0  0  0  0  0  0  0  0  0
   -0.1640    0.3498   -1.7355 H   0  0  0  0  0  0  0  0  0  0  0  0
    1.8554    0.0863   -1.0456 C   0  0  0  0  0  0  0  0  0  0  0  0
    2.4416   -0.7088   -0.5846 H   0  0  0  0  0  0  0  0  0  0  0  0
    2.1729    0.2093   -2.0804 H   0  0  0  0  0  0  0  0  0  0  0  0
    2.1475    1.3861   -0.3029 C   0  0  0  0  0  0  0  0  0  0  0  0
    1.3008    2.1372    0.1541 O   0  0  0  0  0  0  0  0  0  0  0  0
    3.4501    1.6991   -0.1723 O   0  0  0  0  0  0  0  0  0  0  0  0
    3.4617    2.5351    0.2971 H   0  0  0  0  0  0  0  0  0  0  0  0
   -0.4860    1.3537    0.7622 C   0  0  0  0  0  0  0  0  0  0  0  0
   -1.3956    2.0096    0.2582 O   0  0  0  0  0  0  0  0  0  0  0  0
    0.3741    1.8728    1.6466 N   0  0  0  0  0  0  0  0  0  0  0  0
    1.0814    1.2667    2.0345 H   0  0  0  0  0  0  0  0  0  0  0  0
    0.3380    3.2610    2.1024 C   0  0  0  0  0  0  0  0  0  0  0  0
   -0.6389    3.4820    2.5363 H   0  0  0  0  0  0  0  0  0  0  0  0
    1.1108    3.4337    2.8528 H   0  0  0  0  0  0  0  0  0  0  0  0
    0.5009    3.9312    1.2562 H   0  0  0  0  0  0  0  0  0  0  0  0
  5  6  2  0  0  0  0
  5  7  1  0  0  0  0
  2  3  1  0  0  0  0
  2  4  1  0  0  0  0
  2  5  1  0  0  0  0
  1  2  1  0  0  0  0
 21 22  2  0  0  0  0
 21 23  1  0  0  0  0
 19 20  1  0  0  0  0
 17 18  2  0  0  0  0
 17 19  1  0  0  0  0
 14 15  1  0  0  0  0
 14 16  1  0  0  0  0
 14 17  1  0  0  0  0
 11 12  1  0  0  0  0
 11 13  1  0  0  0  0
 11 14  1  0  0  0  0
  9 10  1  0  0  0  0
  9 11  1  0  0  0  0
  9 21  1  0  0  0  0
  7  8  1  0  0  0  0
  7  9  1  0  0  0  0
 25 26  1  0  0  0  0
 25 27  1  0  0  0  0
 25 28  1  0  0  0  0
 23 24  1  0  0  0  0
 23 25  1  0  0  0  0
M  END
$$$$
default_name
  -OEChem-02102213163D

 28 27  0     1  0  0  0  0  0999 V2000
   -3.2133   -3.5565    1.2809 H   0  0  0  0  0  0  0  0  0  0  0  0
   -3.1873   -2.5755    0.8089 C   0  0  0  0  0  0  0  0  0  0  0  0
   -3.8793   -1.9065    1.3169 H   0  0  0  0  0  0  0  0  0  0  0  0
   -3.4623   -2.6685   -0.2401 H   0  0  0  0  0  0  0  0  0  0  0  0
   -1.7863   -2.0195    0.9119 C   0  0  0  0  0  0  0  0  0  0  0  0
   -0.9073   -2.6615    1.4699 O   0  0  0  0  0  0  0  0  0  0  0  0
   -1.5803   -0.8195    0.3749 N   0  0  0  0  0  0  0  0  0  0  0  0
   -2.3603   -0.3345   -0.0451 H   0  0  0  0  0  0  0  0  0  0  0  0
   -0.2933   -0.1205    0.3719 C   0  0  1  0  0  0  0  0  0  0  0  0
    0.3577   -0.5843    1.1143 H   0  0  0  0  0  0  0  0  0  0  0  0
    0.3613   -0.2794   -1.0156 C   0  0  0  0  0  0  0  0  0  0  0  0
    0.2476   -1.3192   -1.3270 H   0  0  0  0  0  0  0  0  0  0  0  0
   -0.1640    0.3498   -1.7355 H   0  0  0  0  0  0  0  0  0  0  0  0
    1.8554    0.0863   -1.0456 C   0  0  0  0  0  0  0  0  0  0  0  0
    2.4582   -0.7975   -0.8365 H   0  0  0  0  0  0  0  0  0  0  0  0
    2.1109    0.4665   -2.0340 H   0  0  0  0  0  0  0  0  0  0  0  0
    2.2090    1.1583   -0.0198 C   0  0  0  0  0  0  0  0  0  0  0  0
    1.4014    1.7679    0.6629 O   0  0  0  0  0  0  0  0  0  0  0  0
    3.5210    1.4321    0.1039 O   0  0  0  0  0  0  0  0  0  0  0  0
    3.5720    2.1231    0.7666 H   0  0  0  0  0  0  0  0  0  0  0  0
   -0.4860    1.3537    0.7622 C   0  0  0  0  0  0  0  0  0  0  0  0
   -1.3956    2.0096    0.2582 O   0  0  0  0  0  0  0  0  0  0  0  0
    0.3741    1.8728    1.6466 N   0  0  0  0  0  0  0  0  0  0  0  0
    1.0814    1.2667    2.0345 H   0  0  0  0  0  0  0  0  0  0  0  0
    0.3380    3.2610    2.1024 C   0  0  0  0  0  0  0  0  0  0  0  0
   -0.6389    3.4820    2.5363 H   0  0  0  0  0  0  0  0  0  0  0  0
    1.1108    3.4337    2.8528 H   0  0  0  0  0  0  0  0  0  0  0  0
    0.5009    3.9312    1.2562 H   0  0  0  0  0  0  0  0  0  0  0  0
  5  6  2  0  0  0  0
  5  7  1  0  0  0  0
  2  3  1  0  0  0  0
  2  4  1  0  0  0  0
  2  5  1  0  0  0  0
  1  2  1  0  0  0  0
 21 22  2  0  0  0  0
 21 23  1  0  0  0  0
 19 20  1  0  0  0  0
 17 18  2  0  0  0  0
 17 19  1  0  0  0  0
 14 15  1  0  0  0  0
 14 16  1  0  0  0  0
 14 17  1  0  0  0  0
 11 12  1  0  0  0  0
 11 13  1  0  0  0  0
 11 14  1  0  0  0  0
  9 10  1  0  0  0  0
  9 11  1  0  0  0  0
  9 21  1  0  0  0  0
  7  8  1  0  0  0  0
  7  9  1  0  0  0  0
 25 26  1  0  0  0  0
 25 27  1  0  0  0  0
 25 28  1  0  0  0  0
 23 24  1  0  0  0  0
 23 25  1  0  0  0  0
M  END
$$$$
default_name
  -OEChem-02102213163D

 28 27  0     1  0  0  0  0  0999 V2000
   -3.2133   -3.5565    1.2809 H   0  0  0  0  0  0  0  0  0  0  0  0
   -3.1873   -2.5755    0.8089 C   0  0  0  0  0  0  0  0  0  0  0  0
   -3.8793   -1.9065    1.3169 H   0  0  0  0  0  0  0  0  0  0  0  0
   -3.4623   -2.6685   -0.2401 H   0  0  0  0  0  0  0  0  0  0  0  0
   -1.7863   -2.0195    0.9119 C   0  0  0  0  0  0  0  0  0  0  0  0
   -0.9073   -2.6615    1.4699 O   0  0  0  0  0  0  0  0  0  0  0  0
   -1.5803   -0.8195    0.3749 N   0  0  0  0  0  0  0  0  0  0  0  0
   -2.3603   -0.3345   -0.0451 H   0  0  0  0  0  0  0  0  0  0  0  0
   -0.2933   -0.1205    0.3719 C   0  0  1  0  0  0  0  0  0  0  0  0
    0.3577   -0.5843    1.1143 H   0  0  0  0  0  0  0  0  0  0  0  0
    0.3613   -0.2794   -1.0156 C   0  0  0  0  0  0  0  0  0  0  0  0
    0.2476   -1.3192   -1.3270 H   0  0  0  0  0  0  0  0  0  0  0  0
   -0.1640    0.3498   -1.7355 H   0  0  0  0  0  0  0  0  0  0  0  0
    1.8554    0.0863   -1.0456 C   0  0  0  0  0  0  0  0  0  0  0  0
    2.4584   -0.8200   -1.1031 H   0  0  0  0  0  0  0  0  0  0  0  0
    2.0552    0.7036   -1.9207 H   0  0  0  0  0  0  0  0  0  0  0  0
    2.2846    0.8669    0.1925 C   0  0  0  0  0  0  0  0  0  0  0  0
    1.5280    1.2829    1.0553 O   0  0  0  0  0  0  0  0  0  0  0  0
    3.6051    1.1044    0.2993 O   0  0  0  0  0  0  0  0  0  0  0  0
    3.7053    1.6067    1.1098 H   0  0  0  0  0  0  0  0  0  0  0  0
   -0.4860    1.3537    0.7622 C   0  0  0  0  0  0  0  0  0  0  0  0
   -1.3956    2.0096    0.2582 O   0  0  0  0  0  0  0  0  0  0  0  0
    0.3741    1.8728    1.6466 N   0  0  0  0  0  0  0  0  0  0  0  0
    1.0814    1.2667    2.0345 H   0  0  0  0  0  0  0  0  0  0  0  0
    0.3380    3.2610    2.1024 C   0  0  0  0  0  0  0  0  0  0  0  0
   -0.6389    3.4820    2.5363 H   0  0  0  0  0  0  0  0  0  0  0  0
    1.1108    3.4337    2.8528 H   0  0  0  0  0  0  0  0  0  0  0  0
    0.5009    3.9312    1.2562 H   0  0  0  0  0  0  0  0  0  0  0  0
  5  6  2  0  0  0  0
  5  7  1  0  0  0  0
  2  3  1  0  0  0  0
  2  4  1  0  0  0  0
  2  5  1  0  0  0  0
  1  2  1  0  0  0  0
 21 22  2  0  0  0  0
 21 23  1  0  0  0  0
 19 20  1  0  0  0  0
 17 18  2  0  0  0  0
 17 19  1  0  0  0  0
 14 15  1  0  0  0  0
 14 16  1  0  0  0  0
 14 17  1  0  0  0  0
 11 12  1  0  0  0  0
 11 13  1  0  0  0  0
 11 14  1  0  0  0  0
  9 10  1  0  0  0  0
  9 11  1  0  0  0  0
  9 21  1  0  0  0  0
  7  8  1  0  0  0  0
  7  9  1  0  0  0  0
 25 26  1  0  0  0  0
 25 27  1  0  0  0  0
 25 28  1  0  0  0  0
 23 24  1  0  0  0  0
 23 25  1  0  0  0  0
M  END
$$$$
default_name
  -OEChem-02102213163D

 28 27  0     1  0  0  0  0  0999 V2000
   -3.2133   -3.5565    1.2809 H   0  0  0  0  0  0  0  0  0  0  0  0
   -3.1873   -2.5755    0.8089 C   0  0  0  0  0  0  0  0  0  0  0  0
   -3.8793   -1.9065    1.3169 H   0  0  0  0  0  0  0  0  0  0  0  0
   -3.4623   -2.6685   -0.2401 H   0  0  0  0  0  0  0  0  0  0  0  0
   -1.7863   -2.0195    0.9119 C   0  0  0  0  0  0  0  0  0  0  0  0
   -0.9073   -2.6615    1.4699 O   0  0  0  0  0  0  0  0  0  0  0  0
   -1.5803   -0.8195    0.3749 N   0  0  0  0  0  0  0  0  0  0  0  0
   -2.3603   -0.3345   -0.0451 H   0  0  0  0  0  0  0  0  0  0  0  0
   -0.2933   -0.1205    0.3719 C   0  0  1  0  0  0  0  0  0  0  0  0
    0.3577   -0.5843    1.1143 H   0  0  0  0  0  0  0  0  0  0  0  0
    0.3613   -0.2794   -1.0156 C   0  0  0  0  0  0  0  0  0  0  0  0
    0.2476   -1.3192   -1.3270 H   0  0  0  0  0  0  0  0  0  0  0  0
   -0.1640    0.3498   -1.7355 H   0  0  0  0  0  0  0  0  0  0  0  0
    1.8554    0.0863   -1.0456 C   0  0  0  0  0  0  0  0  0  0  0  0
    2.4420   -0.7747   -1.3663 H   0  0  0  0  0  0  0  0  0  0  0  0
    2.0095    0.9044   -1.7482 H   0  0  0  0  0  0  0  0  0  0  0  0
    2.3692    0.5316    0.3197 C   0  0  0  0  0  0  0  0  0  0  0  0
    1.6720    0.7151    1.3047 O   0  0  0  0  0  0  0  0  0  0  0  0
    3.6968    0.7383    0.4004 O   0  0  0  0  0  0  0  0  0  0  0  0
    3.8526    1.0209    1.3033 H   0  0  0  0  0  0  0  0  0  0  0  0
   -0.4860    1.3537    0.7622 C   0  0  0  0  0  0  0  0  0  0  0  0
   -1.3956    2.0096    0.2582 O   0  0  0  0  0  0  0  0  0  0  0  0
    0.3741    1.8728    1.6466 N   0  0  0  0  0  0  0  0  0  0  0  0
    1.0814    1.2667    2.0345 H   0  0  0  0  0  0  0  0  0  0  0  0
    0.3380    3.2610    2.1024 C   0  0  0  0  0  0  0  0  0  0  0  0
   -0.6389    3.4820    2.5363 H   0  0  0  0  0  0  0  0  0  0  0  0
    1.1108    3.4337    2.8528 H   0  0  0  0  0  0  0  0  0  0  0  0
    0.5009    3.9312    1.2562 H   0  0  0  0  0  0  0  0  0  0  0  0
  5  6  2  0  0  0  0
  5  7  1  0  0  0  0
  2  3  1  0  0  0  0
  2  4  1  0  0  0  0
  2  5  1  0  0  0  0
  1  2  1  0  0  0  0
 21 22  2  0  0  0  0
 21 23  1  0  0  0  0
 19 20  1  0  0  0  0
 17 18  2  0  0  0  0
 17 19  1  0  0  0  0
 14 15  1  0  0  0  0
 14 16  1  0  0  0  0
 14 17  1  0  0  0  0
 11 12  1  0  0  0  0
 11 13  1  0  0  0  0
 11 14  1  0  0  0  0
  9 10  1  0  0  0  0
  9 11  1  0  0  0  0
  9 21  1  0  0  0  0
  7  8  1  0  0  0  0
  7  9  1  0  0  0  0
 25 26  1  0  0  0  0
 25 27  1  0  0  0  0
 25 28  1  0  0  0  0
 23 24  1  0  0  0  0
 23 25  1  0  0  0  0
M  END
$$$$
default_name
  -OEChem-02102213163D

 28 27  0     1  0  0  0  0  0999 V2000
   -3.2133   -3.5565    1.2809 H   0  0  0  0  0  0  0  0  0  0  0  0
   -3.1873   -2.5755    0.8089 C   0  0  0  0  0  0  0  0  0  0  0  0
   -3.8793   -1.9065    1.3169 H   0  0  0  0  0  0  0  0  0  0  0  0
   -3.4623   -2.6685   -0.2401 H   0  0  0  0  0  0  0  0  0  0  0  0
   -1.7863   -2.0195    0.9119 C   0  0  0  0  0  0  0  0  0  0  0  0
   -0.9073   -2.6615    1.4699 O   0  0  0  0  0  0  0  0  0  0  0  0
   -1.5803   -0.8195    0.3749 N   0  0  0  0  0  0  0  0  0  0  0  0
   -2.3603   -0.3345   -0.0451 H   0  0  0  0  0  0  0  0  0  0  0  0
   -0.2933   -0.1205    0.3719 C   0  0  1  0  0  0  0  0  0  0  0  0
    0.3577   -0.5843    1.1143 H   0  0  0  0  0  0  0  0  0  0  0  0
    0.3613   -0.2794   -1.0156 C   0  0  0  0  0  0  0  0  0  0  0  0
    0.2476   -1.3192   -1.3270 H   0  0  0  0  0  0  0  0  0  0  0  0
   -0.1640    0.3498   -1.7355 H   0  0  0  0  0  0  0  0  0  0  0  0
    1.8554    0.0863   -1.0456 C   0  0  0  0  0  0  0  0  0  0  0  0
    2.4102   -0.6647   -1.6081 H   0  0  0  0  0  0  0  0  0  0  0  0
    1.9770    1.0552   -1.5284 H   0  0  0  0  0  0  0  0  0  0  0  0
    2.4571    0.1753    0.3531 C   0  0  0  0  0  0  0  0  0  0  0  0
    1.8236    0.1033    1.3940 O   0  0  0  0  0  0  0  0  0  0  0  0
    3.7897    0.3589    0.4005 O   0  0  0  0  0  0  0  0  0  0  0  0
    4.0038    0.4057    1.3339 H   0  0  0  0  0  0  0  0  0  0  0  0
   -0.4860    1.3537    0.7622 C   0  0  0  0  0  0  0  0  0  0  0  0
   -1.3956    2.0096    0.2582 O   0  0  0  0  0  0  0  0  0  0  0  0
    0.3741    1.8728    1.6466 N   0  0  0  0  0  0  0  0  0  0  0  0
    1.0814    1.2667    2.0345 H   0  0  0  0  0  0  0  0  0  0  0  0
    0.3380    3.2610    2.1024 C   0  0  0  0  0  0  0  0  0  0  0  0
   -0.6389    3.4820    2.5363 H   0  0  0  0  0  0  0  0  0  0  0  0
    1.1108    3.4337    2.8528 H   0  0  0  0  0  0  0  0  0  0  0  0
    0.5009    3.9312    1.2562 H   0  0  0  0  0  0  0  0  0  0  0  0
  5  6  2  0  0  0  0
  5  7  1  0  0  0  0
  2  3  1  0  0  0  0
  2  4  1  0  0  0  0
  2  5  1  0  0  0  0
  1  2  1  0  0  0  0
 21 22  2  0  0  0  0
 21 23  1  0  0  0  0
 19 20  1  0  0  0  0
 17 18  2  0  0  0  0
 17 19  1  0  0  0  0
 14 15  1  0  0  0  0
 14 16  1  0  0  0  0
 14 17  1  0  0  0  0
 11 12  1  0  0  0  0
 11 13  1  0  0  0  0
 11 14  1  0  0  0  0
  9 10  1  0  0  0  0
  9 11  1  0  0  0  0
  9 21  1  0  0  0  0
  7  8  1  0  0  0  0
  7  9  1  0  0  0  0
 25 26  1  0  0  0  0
 25 27  1  0  0  0  0
 25 28  1  0  0  0  0
 23 24  1  0  0  0  0
 23 25  1  0  0  0  0
M  END
$$$$
default_name
  -OEChem-02102213163D

 28 27  0     1  0  0  0  0  0999 V2000
   -3.2133   -3.5565    1.2809 H   0  0  0  0  0  0  0  0  0  0  0  0
   -3.1873   -2.5755    0.8089 C   0  0  0  0  0  0  0  0  0  0  0  0
   -3.8793   -1.9065    1.3169 H   0  0  0  0  0  0  0  0  0  0  0  0
   -3.4623   -2.6685   -0.2401 H   0  0  0  0  0  0  0  0  0  0  0  0
   -1.7863   -2.0195    0.9119 C   0  0  0  0  0  0  0  0  0  0  0  0
   -0.9073   -2.6615    1.4699 O   0  0  0  0  0  0  0  0  0  0  0  0
   -1.5803   -0.8195    0.3749 N   0  0  0  0  0  0  0  0  0  0  0  0
   -2.3603   -0.3345   -0.0451 H   0  0  0  0  0  0  0  0  0  0  0  0
   -0.2933   -0.1205    0.3719 C   0  0  1  0  0  0  0  0  0  0  0  0
    0.3577   -0.5843    1.1143 H   0  0  0  0  0  0  0  0  0  0  0  0
    0.3613   -0.2794   -1.0156 C   0  0  0  0  0  0  0  0  0  0  0  0
    0.2476   -1.3192   -1.3270 H   0  0  0  0  0  0  0  0  0  0  0  0
   -0.1640    0.3498   -1.7355 H   0  0  0  0  0  0  0  0  0  0  0  0
    1.8554    0.0863   -1.0456 C   0  0  0  0  0  0  0  0  0  0  0  0
    2.3652   -0.4975   -1.8121 H   0  0  0  0  0  0  0  0  0  0  0  0
    1.9599    1.1459   -1.2761 H   0  0  0  0  0  0  0  0  0  0  0  0
    2.5422   -0.1776    0.2904 C   0  0  0  0  0  0  0  0  0  0  0  0
    1.9724   -0.5109    1.3171 O   0  0  0  0  0  0  0  0  0  0  0  0
    3.8775   -0.0082    0.2994 O   0  0  0  0  0  0  0  0  0  0  0  0
    4.1486   -0.1970    1.1995 H   0  0  0  0  0  0  0  0  0  0  0  0
   -0.4860    1.3537    0.7622 C   0  0  0  0  0  0  0  0  0  0  0  0
   -1.3956    2.0096    0.2582 O   0  0  0  0  0  0  0  0  0  0  0  0
    0.3741    1.8728    1.6466 N   0  0  0  0  0  0  0  0  0  0  0  0
    1.0814    1.2667    2.0345 H   0  0  0  0  0  0  0  0  0  0  0  0
    0.3380    3.2610    2.1024 C   0  0  0  0  0  0  0  0  0  0  0  0
   -0.6389    3.4820    2.5363 H   0  0  0  0  0  0  0  0  0  0  0  0
    1.1108    3.4337    2.8528 H   0  0  0  0  0  0  0  0  0  0  0  0
    0.5009    3.9312    1.2562 H   0  0  0  0  0  0  0  0  0  0  0  0
  5  6  2  0  0  0  0
  5  7  1  0  0  0  0
  2  3  1  0  0  0  0
  2  4  1  0  0  0  0
  2  5  1  0  0  0  0
  1  2  1  0  0  0  0
 21 22  2  0  0  0  0
 21 23  1  0  0  0  0
 19 20  1  0  0  0  0
 17 18  2  0  0  0  0
 17 19  1  0  0  0  0
 14 15  1  0  0  0  0
 14 16  1  0  0  0  0
 14 17  1  0  0  0  0
 11 12  1  0  0  0  0
 11 13  1  0  0  0  0
 11 14  1  0  0  0  0
  9 10  1  0  0  0  0
  9 11  1  0  0  0  0
  9 21  1  0  0  0  0
  7  8  1  0  0  0  0
  7  9  1  0  0  0  0
 25 26  1  0  0  0  0
 25 27  1  0  0  0  0
 25 28  1  0  0  0  0
 23 24  1  0  0  0  0
 23 25  1  0  0  0  0
M  END
$$$$
default_name
  -OEChem-02102213163D

 28 27  0     1  0  0  0  0  0999 V2000
   -3.2133   -3.5565    1.2809 H   0  0  0  0  0  0  0  0  0  0  0  0
   -3.1873   -2.5755    0.8089 C   0  0  0  0  0  0  0  0  0  0  0  0
   -3.8793   -1.9065    1.3169 H   0  0  0  0  0  0  0  0  0  0  0  0
   -3.4623   -2.6685   -0.2401 H   0  0  0  0  0  0  0  0  0  0  0  0
   -1.7863   -2.0195    0.9119 C   0  0  0  0  0  0  0  0  0  0  0  0
   -0.9073   -2.6615    1.4699 O   0  0  0  0  0  0  0  0  0  0  0  0
   -1.5803   -0.8195    0.3749 N   0  0  0  0  0  0  0  0  0  0  0  0
   -2.3603   -0.3345   -0.0451 H   0  0  0  0  0  0  0  0  0  0  0  0
   -0.2933   -0.1205    0.3719 C   0  0  1  0  0  0  0  0  0  0  0  0
    0.3577   -0.5843    1.1143 H   0  0  0  0  0  0  0  0  0  0  0  0
    0.3613   -0.2794   -1.0156 C   0  0  0  0  0  0  0  0  0  0  0  0
    0.2476   -1.3192   -1.3270 H   0  0  0  0  0  0  0  0  0  0  0  0
   -0.1640    0.3498   -1.7355 H   0  0  0  0  0  0  0  0  0  0  0  0
    1.8554    0.0863   -1.0456 C   0  0  0  0  0  0  0  0  0  0  0  0
    2.3100   -0.2845   -1.9643 H   0  0  0  0  0  0  0  0  0  0  0  0
    1.9593    1.1701   -1.0086 H   0  0  0  0  0  0  0  0  0  0  0  0
    2.6188   -0.5033    0.1359 C   0  0  0  0  0  0  0  0  0  0  0  0
    2.1083   -1.0856    1.0794 O   0  0  0  0  0  0  0  0  0  0  0  0
    3.9542   -0.3377    0.1042 O   0  0  0  0  0  0  0  0  0  0  0  0
    4.2772   -0.7461    0.9093 H   0  0  0  0  0  0  0  0  0  0  0  0
   -0.4860    1.3537    0.7622 C   0  0  0  0  0  0  0  0  0  0  0  0
   -1.3956    2.0096    0.2582 O   0  0  0  0  0  0  0  0  0  0  0  0
    0.3741    1.8728    1.6466 N   0  0  0  0  0  0  0  0  0  0  0  0
    1.0814    1.2667    2.0345 H   0  0  0  0  0  0  0  0  0  0  0  0
    0.3380    3.2610    2.1024 C   0  0  0  0  0  0  0  0  0  0  0  0
   -0.6389    3.4820    2.5363 H   0  0  0  0  0  0  0  0  0  0  0  0
    1.1108    3.4337    2.8528 H   0  0  0  0  0  0  0  0  0  0  0  0
    0.5009    3.9312    1.2562 H   0  0  0  0  0  0  0  0  0  0  0  0
  5  6  2  0  0  0  0
  5  7  1  0  0  0  0
  2  3  1  0  0  0  0
  2  4  1  0  0  0  0
  2  5  1  0  0  0  0
  1  2  1  0  0  0  0
 21 22  2  0  0  0  0
 21 23  1  0  0  0  0
 19 20  1  0  0  0  0
 17 18  2  0  0  0  0
 17 19  1  0  0  0  0
 14 15  1  0  0  0  0
 14 16  1  0  0  0  0
 14 17  1  0  0  0  0
 11 12  1  0  0  0  0
 11 13  1  0  0  0  0
 11 14  1  0  0  0  0
  9 10  1  0  0  0  0
  9 11  1  0  0  0  0
  9 21  1  0  0  0  0
  7  8  1  0  0  0  0
  7  9  1  0  0  0  0
 25 26  1  0  0  0  0
 25 27  1  0  0  0  0
 25 28  1  0  0  0  0
 23 24  1  0  0  0  0
 23 25  1  0  0  0  0
M  END
$$$$
default_name
  -OEChem-02102213163D

 28 27  0     1  0  0  0  0  0999 V2000
   -3.2133   -3.5565    1.2809 H   0  0  0  0  0  0  0  0  0  0  0  0
   -3.1873   -2.5755    0.8089 C   0  0  0  0  0  0  0  0  0  0  0  0
   -3.8793   -1.9065    1.3169 H   0  0  0  0  0  0  0  0  0  0  0  0
   -3.4623   -2.6685   -0.2401 H   0  0  0  0  0  0  0  0  0  0  0  0
   -1.7863   -2.0195    0.9119 C   0  0  0  0  0  0  0  0  0  0  0  0
   -0.9073   -2.6615    1.4699 O   0  0  0  0  0  0  0  0  0  0  0  0
   -1.5803   -0.8195    0.3749 N   0  0  0  0  0  0  0  0  0  0  0  0
   -2.3603   -0.3345   -0.0451 H   0  0  0  0  0  0  0  0  0  0  0  0
   -0.2933   -0.1205    0.3719 C   0  0  1  0  0  0  0  0  0  0  0  0
    0.3577   -0.5843    1.1143 H   0  0  0  0  0  0  0  0  0  0  0  0
    0.3613   -0.2794   -1.0156 C   0  0  0  0  0  0  0  0  0  0  0  0
    0.2476   -1.3192   -1.3270 H   0  0  0  0  0  0  0  0  0  0  0  0
   -0.1640    0.3498   -1.7355 H   0  0  0  0  0  0  0  0  0  0  0  0
    1.8554    0.0863   -1.0456 C   0  0  0  0  0  0  0  0  0  0  0  0
    2.2484   -0.0403   -2.0545 H   0  0  0  0  0  0  0  0  0  0  0  0
    1.9754    1.1262   -0.7441 H   0  0  0  0  0  0  0  0  0  0  0  0
    2.6817   -0.7793   -0.0999 C   0  0  0  0  0  0  0  0  0  0  0  0
    2.2220   -1.5817    0.6969 O   0  0  0  0  0  0  0  0  0  0  0  0
    4.0147   -0.6074   -0.1720 O   0  0  0  0  0  0  0  0  0  0  0  0
    4.3808   -1.2042    0.4830 H   0  0  0  0  0  0  0  0  0  0  0  0
   -0.4860    1.3537    0.7622 C   0  0  0  0  0  0  0  0  0  0  0  0
   -1.3956    2.0096    0.2582 O   0  0  0  0  0  0  0  0  0  0  0  0
    0.3741    1.8728    1.6466 N   0  0  0  0  0  0  0  0  0  0  0  0
    1.0814    1.2667    2.0345 H   0  0  0  0  0  0  0  0  0  0  0  0
    0.3380    3.2610    2.1024 C   0  0  0  0  0  0  0  0  0  0  0  0
   -0.6389    3.4820    2.5363 H   0  0  0  0  0  0  0  0  0  0  0  0
    1.1108    3.4337    2.8528 H   0  0  0  0  0  0  0  0  0  0  0  0
    0.5009    3.9312    1.2562 H   0  0  0  0  0  0  0  0  0  0  0  0
  5  6  2  0  0  0  0
  5  7  1  0  0  0  0
  2  3  1  0  0  0  0
  2  4  1  0  0  0  0
  2  5  1  0  0  0  0
  1  2  1  0  0  0  0
 21 22  2  0  0  0  0
 21 23  1  0  0  0  0
 19 20  1  0  0  0  0
 17 18  2  0  0  0  0
 17 19  1  0  0  0  0
 14 15  1  0  0  0  0
 14 16  1  0  0  0  0
 14 17  1  0  0  0  0
 11 12  1  0  0  0  0
 11 13  1  0  0  0  0
 11 14  1  0  0  0  0
  9 10  1  0  0  0  0
  9 11  1  0  0  0  0
  9 21  1  0  0  0  0
  7  8  1  0  0  0  0
  7  9  1  0  0  0  0
 25 26  1  0  0  0  0
 25 27  1  0  0  0  0
 25 28  1  0  0  0  0
 23 24  1  0  0  0  0
 23 25  1  0  0  0  0
M  END
$$$$
default_name
  -OEChem-02102213163D

 28 27  0     1  0  0  0  0  0999 V2000
   -3.2133   -3.5565    1.2809 H   0  0  0  0  0  0  0  0  0  0  0  0
   -3.1873   -2.5755    0.8089 C   0  0  0  0  0  0  0  0  0  0  0  0
   -3.8793   -1.9065    1.3169 H   0  0  0  0  0  0  0  0  0  0  0  0
   -3.4623   -2.6685   -0.2401 H   0  0  0  0  0  0  0  0  0  0  0  0
   -1.7863   -2.0195    0.9119 C   0  0  0  0  0  0  0  0  0  0  0  0
   -0.9073   -2.6615    1.4699 O   0  0  0  0  0  0  0  0  0  0  0  0
   -1.5803   -0.8195    0.3749 N   0  0  0  0  0  0  0  0  0  0  0  0
   -2.3603   -0.3345   -0.0451 H   0  0  0  0  0  0  0  0  0  0  0  0
   -0.2933   -0.1205    0.3719 C   0  0  1  0  0  0  0  0  0  0  0  0
    0.3577   -0.5843    1.1143 H   0  0  0  0  0  0  0  0  0  0  0  0
    0.3613   -0.2794   -1.0156 C   0  0  0  0  0  0  0  0  0  0  0  0
    0.2476   -1.3192   -1.3270 H   0  0  0  0  0  0  0  0  0  0  0  0
   -0.1640    0.3498   -1.7355 H   0  0  0  0  0  0  0  0  0  0  0  0
    1.8554    0.0863   -1.0456 C   0  0  0  0  0  0  0  0  0  0  0  0
    2.1846    0.2186   -2.0763 H   0  0  0  0  0  0  0  0  0  0  0  0
    2.0069    1.0173   -0.5006 H   0  0  0  0  0  0  0  0  0  0  0  0
    2.7265   -0.9870   -0.4009 C   0  0  0  0  0  0  0  0  0  0  0  0
    2.3059   -1.9653    0.1957 O   0  0  0  0  0  0  0  0  0  0  0  0
    4.0547   -0.7987   -0.5102 O   0  0  0  0  0  0  0  0  0  0  0  0
    4.4523   -1.5400   -0.0502 H   0  0  0  0  0  0  0  0  0  0  0  0
   -0.4860    1.3537    0.7622 C   0  0  0  0  0  0  0  0  0  0  0  0
   -1.3956    2.0096    0.2582 O   0  0  0  0  0  0  0  0  0  0  0  0
    0.3741    1.8728    1.6466 N   0  0  0  0  0  0  0  0  0  0  0  0
    1.0814    1.2667    2.0345 H   0  0  0  0  0  0  0  0  0  0  0  0
    0.3380    3.2610    2.1024 C   0  0  0  0  0  0  0  0  0  0  0  0
   -0.6389    3.4820    2.5363 H   0  0  0  0  0  0  0  0  0  0  0  0
    1.1108    3.4337    2.8528 H   0  0  0  0  0  0  0  0  0  0  0  0
    0.5009    3.9312    1.2562 H   0  0  0  0  0  0  0  0  0  0  0  0
  5  6  2  0  0  0  0
  5  7  1  0  0  0  0
  2  3  1  0  0  0  0
  2  4  1  0  0  0  0
  2  5  1  0  0  0  0
  1  2  1  0  0  0  0
 21 22  2  0  0  0  0
 21 23  1  0  0  0  0
 19 20  1  0  0  0  0
 17 18  2  0  0  0  0
 17 19  1  0  0  0  0
 14 15  1  0  0  0  0
 14 16  1  0  0  0  0
 14 17  1  0  0  0  0
 11 12  1  0  0  0  0
 11 13  1  0  0  0  0
 11 14  1  0  0  0  0
  9 10  1  0  0  0  0
  9 11  1  0  0  0  0
  9 21  1  0  0  0  0
  7  8  1  0  0  0  0
  7  9  1  0  0  0  0
 25 26  1  0  0  0  0
 25 27  1  0  0  0  0
 25 28  1  0  0  0  0
 23 24  1  0  0  0  0
 23 25  1  0  0  0  0
M  END
$$$$
default_name
  -OEChem-02102213163D

 28 27  0     1  0  0  0  0  0999 V2000
   -3.2133   -3.5565    1.2809 H   0  0  0  0  0  0  0  0  0  0  0  0
   -3.1873   -2.5755    0.8089 C   0  0  0  0  0  0  0  0  0  0  0  0
   -3.8793   -1.9065    1.3169 H   0  0  0  0  0  0  0  0  0  0  0  0
   -3.4623   -2.6685   -0.2401 H   0  0  0  0  0  0  0  0  0  0  0  0
   -1.7863   -2.0195    0.9119 C   0  0  0  0  0  0  0  0  0  0  0  0
   -0.9073   -2.6615    1.4699 O   0  0  0  0  0  0  0  0  0  0  0  0
   -1.5803   -0.8195    0.3749 N   0  0  0  0  0  0  0  0  0  0  0  0
   -2.3603   -0.3345   -0.0451 H   0  0  0  0  0  0  0  0  0  0  0  0
   -0.2933   -0.1205    0.3719 C   0  0  1  0  0  0  0  0  0  0  0  0
    0.3577   -0.5843    1.1143 H   0  0  0  0  0  0  0  0  0  0  0  0
    0.3613   -0.2794   -1.0156 C   0  0  0  0  0  0  0  0  0  0  0  0
    0.2476   -1.3192   -1.3270 H   0  0  0  0  0  0  0  0  0  0  0  0
   -0.1640    0.3498   -1.7355 H   0  0  0  0  0  0  0  0  0  0  0  0
    1.8554    0.0863   -1.0456 C   0  0  0  0  0  0  0  0  0  0  0  0
    2.1229    0.4745   -2.0284 H   0  0  0  0  0  0  0  0  0  0  0  0
    2.0518    0.8507   -0.2947 H   0  0  0  0  0  0  0  0  0  0  0  0
    2.7501   -1.1122   -0.7466 C   0  0  0  0  0  0  0  0  0  0  0  0
    2.3540   -2.2103   -0.3899 O   0  0  0  0  0  0  0  0  0  0  0  0
    4.0716   -0.8987   -0.8875 O   0  0  0  0  0  0  0  0  0  0  0  0
    4.4868   -1.7308   -0.6541 H   0  0  0  0  0  0  0  0  0  0  0  0
   -0.4860    1.3537    0.7622 C   0  0  0  0  0  0  0  0  0  0  0  0
   -1.3956    2.0096    0.2582 O   0  0  0  0  0  0  0  0  0  0  0  0
    0.3741    1.8728    1.6466 N   0  0  0  0  0  0  0  0  0  0  0  0
    1.0814    1.2667    2.0345 H   0  0  0  0  0  0  0  0  0  0  0  0
    0.3380    3.2610    2.1024 C   0  0  0  0  0  0  0  0  0  0  0  0
   -0.6389    3.4820    2.5363 H   0  0  0  0  0  0  0  0  0  0  0  0
    1.1108    3.4337    2.8528 H   0  0  0  0  0  0  0  0  0  0  0  0
    0.5009    3.9312    1.2562 H   0  0  0  0  0  0  0  0  0  0  0  0
  5  6  2  0  0  0  0
  5  7  1  0  0  0  0
  2  3  1  0  0  0  0
  2  4  1  0  0  0  0
  2  5  1  0  0  0  0
  1  2  1  0  0  0  0
 21 22  2  0  0  0  0
 21 23  1  0  0  0  0
 19 20  1  0  0  0  0
 17 18  2  0  0  0  0
 17 19  1  0  0  0  0
 14 15  1  0  0  0  0
 14 16  1  0  0  0  0
 14 17  1  0  0  0  0
 11 12  1  0  0  0  0
 11 13  1  0  0  0  0
 11 14  1  0  0  0  0
  9 10  1  0  0  0  0
  9 11  1  0  0  0  0
  9 21  1  0  0  0  0
  7  8  1  0  0  0  0
  7  9  1  0  0  0  0
 25 26  1  0  0  0  0
 25 27  1  0  0  0  0
 25 28  1  0  0  0  0
 23 24  1  0  0  0  0
 23 25  1  0  0  0  0
M  END
$$$$
default_name
  -OEChem-02102213163D

 28 27  0     1  0  0  0  0  0999 V2000
   -3.2133   -3.5565    1.2809 H   0  0  0  0  0  0  0  0  0  0  0  0
   -3.1873   -2.5755    0.8089 C   0  0  0  0  0  0  0  0  0  0  0  0
   -3.8793   -1.9065    1.3169 H   0  0  0  0  0  0  0  0  0  0  0  0
   -3.4623   -2.6685   -0.2401 H   0  0  0  0  0  0  0  0  0  0  0  0
   -1.7863   -2.0195    0.9119 C   0  0  0  0  0  0  0  0  0  0  0  0
   -0.9073   -2.6615    1.4699 O   0  0  0  0  0  0  0  0  0  0  0  0
   -1.5803   -0.8195    0.3749 N   0  0  0  0  0  0  0  0  0  0  0  0
   -2.3603   -0.3345   -0.0451 H   0  0  0  0  0  0  0  0  0  0  0  0
   -0.2933   -0.1205    0.3719 C   0  0  1  0  0  0  0  0  0  0  0  0
    0.3577   -0.5843    1.1143 H   0  0  0  0  0  0  0  0  0  0  0  0
    0.3613   -0.2794   -1.0156 C   0  0  0  0  0  0  0  0  0  0  0  0
    0.2476   -1.3192   -1.3270 H   0  0  0  0  0  0  0  0  0  0  0  0
   -0.1640    0.3498   -1.7355 H   0  0  0  0  0  0  0  0  0  0  0  0
    1.8554    0.0863   -1.0456 C   0  0  0  0  0  0  0  0  0  0  0  0
    2.0676    0.7100   -1.9141 H   0  0  0  0  0  0  0  0  0  0  0  0
    2.1071    0.6379   -0.1405 H   0  0  0  0  0  0  0  0  0  0  0  0
    2.7511   -1.1464   -1.1135 C   0  0  0  0  0  0  0  0  0  0  0  0
    2.3633   -2.2999   -1.0201 O   0  0  0  0  0  0  0  0  0  0  0  0
    4.0642   -0.9006   -1.2781 O   0  0  0  0  0  0  0  0  0  0  0  0
    4.4821   -1.7635   -1.2874 H   0  0  0  0  0  0  0  0  0  0  0  0
   -0.4860    1.3537    0.7622 C   0  0  0  0  0  0  0  0  0  0  0  0
   -1.3956    2.0096    0.2582 O   0  0  0  0  0  0  0  0  0  0  0  0
    0.3741    1.8728    1.6466 N   0  0  0  0  0  0  0  0  0  0  0  0
    1.0814    1.2667    2.0345 H   0  0  0  0  0  0  0  0  0  0  0  0
    0.3380    3.2610    2.1024 C   0  0  0  0  0  0  0  0  0  0  0  0
   -0.6389    3.4820    2.5363 H   0  0  0  0  0  0  0  0  0  0  0  0
    1.1108    3.4337    2.8528 H   0  0  0  0  0  0  0  0  0  0  0  0
    0.5009    3.9312    1.2562 H   0  0  0  0  0  0  0  0  0  0  0  0
  5  6  2  0  0  0  0
  5  7  1  0  0  0  0
  2  3  1  0  0  0  0
  2  4  1  0  0  0  0
  2  5  1  0  0  0  0
  1  2  1  0  0  0  0
 21 22  2  0  0  0  0
 21 23  1  0  0  0  0
 19 20  1  0  0  0  0
 17 18  2  0  0  0  0
 17 19  1  0  0  0  0
 14 15  1  0  0  0  0
 14 16  1  0  0  0  0
 14 17  1  0  0  0  0
 11 12  1  0  0  0  0
 11 13  1  0  0  0  0
 11 14  1  0  0  0  0
  9 10  1  0  0  0  0
  9 11  1  0  0  0  0
  9 21  1  0  0  0  0
  7  8  1  0  0  0  0
  7  9  1  0  0  0  0
 25 26  1  0  0  0  0
 25 27  1  0  0  0  0
 25 28  1  0  0  0  0
 23 24  1  0  0  0  0
 23 25  1  0  0  0  0
M  END
$$$$
default_name
  -OEChem-02102213163D

 28 27  0     1  0  0  0  0  0999 V2000
   -3.2133   -3.5565    1.2809 H   0  0  0  0  0  0  0  0  0  0  0  0
   -3.1873   -2.5755    0.8089 C   0  0  0  0  0  0  0  0  0  0  0  0
   -3.8793   -1.9065    1.3169 H   0  0  0  0  0  0  0  0  0  0  0  0
   -3.4623   -2.6685   -0.2401 H   0  0  0  0  0  0  0  0  0  0  0  0
   -1.7863   -2.0195    0.9119 C   0  0  0  0  0  0  0  0  0  0  0  0
   -0.9073   -2.6615    1.4699 O   0  0  0  0  0  0  0  0  0  0  0  0
   -1.5803   -0.8195    0.3749 N   0  0  0  0  0  0  0  0  0  0  0  0
   -2.3603   -0.3345   -0.0451 H   0  0  0  0  0  0  0  0  0  0  0  0
   -0.2933   -0.1205    0.3719 C   0  0  1  0  0  0  0  0  0  0  0  0
    0.3577   -0.5843    1.1143 H   0  0  0  0  0  0  0  0  0  0  0  0
    0.3613   -0.2794   -1.0156 C   0  0  0  0  0  0  0  0  0  0  0  0
    0.2476   -1.3192   -1.3270 H   0  0  0  0  0  0  0  0  0  0  0  0
   -0.1640    0.3498   -1.7355 H   0  0  0  0  0  0  0  0  0  0  0  0
    1.8554    0.0863   -1.0456 C   0  0  0  0  0  0  0  0  0  0  0  0
    2.0223    0.9090   -1.7410 H   0  0  0  0  0  0  0  0  0  0  0  0
    2.1688    0.3932   -0.0485 H   0  0  0  0  0  0  0  0  0  0  0  0
    2.7293   -1.0872   -1.4765 C   0  0  0  0  0  0  0  0  0  0  0  0
    2.3331   -2.2282   -1.6520 O   0  0  0  0  0  0  0  0  0  0  0  0
    4.0330   -0.8042   -1.6554 O   0  0  0  0  0  0  0  0  0  0  0  0
    4.4383   -1.6358   -1.9072 H   0  0  0  0  0  0  0  0  0  0  0  0
   -0.4860    1.3537    0.7622 C   0  0  0  0  0  0  0  0  0  0  0  0
   -1.3956    2.0096    0.2582 O   0  0  0  0  0  0  0  0  0  0  0  0
    0.3741    1.8728    1.6466 N   0  0  0  0  0  0  0  0  0  0  0  0
    1.0814    1.2667    2.0345 H   0  0  0  0  0  0  0  0  0  0  0  0
    0.3380    3.2610    2.1024 C   0  0  0  0  0  0  0  0  0  0  0  0
   -0.6389    3.4820    2.5363 H   0  0  0  0  0  0  0  0  0  0  0  0
    1.1108    3.4337    2.8528 H   0  0  0  0  0  0  0  0  0  0  0  0
    0.5009    3.9312    1.2562 H   0  0  0  0  0  0  0  0  0  0  0  0
  5  6  2  0  0  0  0
  5  7  1  0  0  0  0
  2  3  1  0  0  0  0
  2  4  1  0  0  0  0
  2  5  1  0  0  0  0
  1  2  1  0  0  0  0
 21 22  2  0  0  0  0
 21 23  1  0  0  0  0
 19 20  1  0  0  0  0
 17 18  2  0  0  0  0
 17 19  1  0  0  0  0
 14 15  1  0  0  0  0
 14 16  1  0  0  0  0
 14 17  1  0  0  0  0
 11 12  1  0  0  0  0
 11 13  1  0  0  0  0
 11 14  1  0  0  0  0
  9 10  1  0  0  0  0
  9 11  1  0  0  0  0
  9 21  1  0  0  0  0
  7  8  1  0  0  0  0
  7  9  1  0  0  0  0
 25 26  1  0  0  0  0
 25 27  1  0  0  0  0
 25 28  1  0  0  0  0
 23 24  1  0  0  0  0
 23 25  1  0  0  0  0
M  END
$$$$
default_name
  -OEChem-02102213163D

 28 27  0     1  0  0  0  0  0999 V2000
   -3.2133   -3.5565    1.2809 H   0  0  0  0  0  0  0  0  0  0  0  0
   -3.1873   -2.5755    0.8089 C   0  0  0  0  0  0  0  0  0  0  0  0
   -3.8793   -1.9065    1.3169 H   0  0  0  0  0  0  0  0  0  0  0  0
   -3.4623   -2.6685   -0.2401 H   0  0  0  0  0  0  0  0  0  0  0  0
   -1.7863   -2.0195    0.9119 C   0  0  0  0  0  0  0  0  0  0  0  0
   -0.9073   -2.6615    1.4699 O   0  0  0  0  0  0  0  0  0  0  0  0
   -1.5803   -0.8195    0.3749 N   0  0  0  0  0  0  0  0  0  0  0  0
   -2.3603   -0.3345   -0.0451 H   0  0  0  0  0  0  0  0  0  0  0  0
   -0.2933   -0.1205    0.3719 C   0  0  1  0  0  0  0  0  0  0  0  0
    0.3577   -0.5843    1.1143 H   0  0  0  0  0  0  0  0  0  0  0  0
    0.3613   -0.2794   -1.0156 C   0  0  0  0  0  0  0  0  0  0  0  0
    0.2476   -1.3192   -1.3270 H   0  0  0  0  0  0  0  0  0  0  0  0
   -0.1640    0.3498   -1.7355 H   0  0  0  0  0  0  0  0  0  0  0  0
    1.8554    0.0863   -1.0456 C   0  0  0  0  0  0  0  0  0  0  0  0
    1.9903    1.0579   -1.5211 H   0  0  0  0  0  0  0  0  0  0  0  0
    2.2329    0.1334   -0.0248 H   0  0  0  0  0  0  0  0  0  0  0  0
    2.6862   -0.9386   -1.8109 C   0  0  0  0  0  0  0  0  0  0  0  0
    2.2653   -2.0000   -2.2424 O   0  0  0  0  0  0  0  0  0  0  0  0
    3.9801   -0.6161   -1.9937 O   0  0  0  0  0  0  0  0  0  0  0  0
    4.3586   -1.3565   -2.4710 H   0  0  0  0  0  0  0  0  0  0  0  0
   -0.4860    1.3537    0.7622 C   0  0  0  0  0  0  0  0  0  0  0  0
   -1.3956    2.0096    0.2582 O   0  0  0  0  0  0  0  0  0  0  0  0
    0.3741    1.8728    1.6466 N   0  0  0  0  0  0  0  0  0  0  0  0
    1.0814    1.2667    2.0345 H   0  0  0  0  0  0  0  0  0  0  0  0
    0.3380    3.2610    2.1024 C   0  0  0  0  0  0  0  0  0  0  0  0
   -0.6389    3.4820    2.5363 H   0  0  0  0  0  0  0  0  0  0  0  0
    1.1108    3.4337    2.8528 H   0  0  0  0  0  0  0  0  0  0  0  0
    0.5009    3.9312    1.2562 H   0  0  0  0  0  0  0  0  0  0  0  0
  5  6  2  0  0  0  0
  5  7  1  0  0  0  0
  2  3  1  0  0  0  0
  2  4  1  0  0  0  0
  2  5  1  0  0  0  0
  1  2  1  0  0  0  0
 21 22  2  0  0  0  0
 21 23  1  0  0  0  0
 19 20  1  0  0  0  0
 17 18  2  0  0  0  0
 17 19  1  0  0  0  0
 14 15  1  0  0  0  0
 14 16  1  0  0  0  0
 14 17  1  0  0  0  0
 11 12  1  0  0  0  0
 11 13  1  0  0  0  0
 11 14  1  0  0  0  0
  9 10  1  0  0  0  0
  9 11  1  0  0  0  0
  9 21  1  0  0  0  0
  7  8  1  0  0  0  0
  7  9  1  0  0  0  0
 25 26  1  0  0  0  0
 25 27  1  0  0  0  0
 25 28  1  0  0  0  0
 23 24  1  0  0  0  0
 23 25  1  0  0  0  0
M  END
$$$$
default_name
  -OEChem-02102213163D

 28 27  0     1  0  0  0  0  0999 V2000
   -3.2133   -3.5565    1.2809 H   0  0  0  0  0  0  0  0  0  0  0  0
   -3.1873   -2.5755    0.8089 C   0  0  0  0  0  0  0  0  0  0  0  0
   -3.8793   -1.9065    1.3169 H   0  0  0  0  0  0  0  0  0  0  0  0
   -3.4623   -2.6685   -0.2401 H   0  0  0  0  0  0  0  0  0  0  0  0
   -1.7863   -2.0195    0.9119 C   0  0  0  0  0  0  0  0  0  0  0  0
   -0.9073   -2.6615    1.4699 O   0  0  0  0  0  0  0  0  0  0  0  0
   -1.5803   -0.8195    0.3749 N   0  0  0  0  0  0  0  0  0  0  0  0
   -2.3603   -0.3345   -0.0451 H   0  0  0  0  0  0  0  0  0  0  0  0
   -0.2933   -0.1205    0.3719 C   0  0  1  0  0  0  0  0  0  0  0  0
    0.3577   -0.5843    1.1143 H   0  0  0  0  0  0  0  0  0  0  0  0
    0.3613   -0.2794   -1.0156 C   0  0  0  0  0  0  0  0  0  0  0  0
    0.2476   -1.3192   -1.3270 H   0  0  0  0  0  0  0  0  0  0  0  0
   -0.1640    0.3498   -1.7355 H   0  0  0  0  0  0  0  0  0  0  0  0
    1.8554    0.0863   -1.0456 C   0  0  0  0  0  0  0  0  0  0  0  0
    1.9736    1.1466   -1.2692 H   0  0  0  0  0  0  0  0  0  0  0  0
    2.2949   -0.1238   -0.0712 H   0  0  0  0  0  0  0  0  0  0  0  0
    2.6248   -0.7108   -2.0940 C   0  0  0  0  0  0  0  0  0  0  0  0
    2.1647   -1.6307   -2.7512 O   0  0  0  0  0  0  0  0  0  0  0  0
    3.9092   -0.3490   -2.2700 O   0  0  0  0  0  0  0  0  0  0  0  0
    4.2484   -0.9446   -2.9405 H   0  0  0  0  0  0  0  0  0  0  0  0
   -0.4860    1.3537    0.7622 C   0  0  0  0  0  0  0  0  0  0  0  0
   -1.3956    2.0096    0.2582 O   0  0  0  0  0  0  0  0  0  0  0  0
    0.3741    1.8728    1.6466 N   0  0  0  0  0  0  0  0  0  0  0  0
    1.0814    1.2667    2.0345 H   0  0  0  0  0  0  0  0  0  0  0  0
    0.3380    3.2610    2.1024 C   0  0  0  0  0  0  0  0  0  0  0  0
   -0.6389    3.4820    2.5363 H   0  0  0  0  0  0  0  0  0  0  0  0
    1.1108    3.4337    2.8528 H   0  0  0  0  0  0  0  0  0  0  0  0
    0.5009    3.9312    1.2562 H   0  0  0  0  0  0  0  0  0  0  0  0
  5  6  2  0  0  0  0
  5  7  1  0  0  0  0
  2  3  1  0  0  0  0
  2  4  1  0  0  0  0
  2  5  1  0  0  0  0
  1  2  1  0  0  0  0
 21 22  2  0  0  0  0
 21 23  1  0  0  0  0
 19 20  1  0  0  0  0
 17 18  2  0  0  0  0
 17 19  1  0  0  0  0
 14 15  1  0  0  0  0
 14 16  1  0  0  0  0
 14 17  1  0  0  0  0
 11 12  1  0  0  0  0
 11 13  1  0  0  0  0
 11 14  1  0  0  0  0
  9 10  1  0  0  0  0
  9 11  1  0  0  0  0
  9 21  1  0  0  0  0
  7  8  1  0  0  0  0
  7  9  1  0  0  0  0
 25 26  1  0  0  0  0
 25 27  1  0  0  0  0
 25 28  1  0  0  0  0
 23 24  1  0  0  0  0
 23 25  1  0  0  0  0
M  END
$$$$
default_name
  -OEChem-02102213163D

 28 27  0     1  0  0  0  0  0999 V2000
   -3.2133   -3.5565    1.2809 H   0  0  0  0  0  0  0  0  0  0  0  0
   -3.1873   -2.5755    0.8089 C   0  0  0  0  0  0  0  0  0  0  0  0
   -3.8793   -1.9065    1.3169 H   0  0  0  0  0  0  0  0  0  0  0  0
   -3.4623   -2.6685   -0.2401 H   0  0  0  0  0  0  0  0  0  0  0  0
   -1.7863   -2.0195    0.9119 C   0  0  0  0  0  0  0  0  0  0  0  0
   -0.9073   -2.6615    1.4699 O   0  0  0  0  0  0  0  0  0  0  0  0
   -1.5803   -0.8195    0.3749 N   0  0  0  0  0  0  0  0  0  0  0  0
   -2.3603   -0.3345   -0.0451 H   0  0  0  0  0  0  0  0  0  0  0  0
   -0.2933   -0.1205    0.3719 C   0  0  1  0  0  0  0  0  0  0  0  0
    0.3577   -0.5843    1.1143 H   0  0  0  0  0  0  0  0  0  0  0  0
    0.3613   -0.2794   -1.0156 C   0  0  0  0  0  0  0  0  0  0  0  0
    0.2476   -1.3192   -1.3270 H   0  0  0  0  0  0  0  0  0  0  0  0
   -0.1640    0.3498   -1.7355 H   0  0  0  0  0  0  0  0  0  0  0  0
    1.8554    0.0863   -1.0456 C   0  0  0  0  0  0  0  0  0  0  0  0
    1.9735    1.1691   -1.0026 H   0  0  0  0  0  0  0  0  0  0  0  0
    2.3506   -0.3608   -0.1845 H   0  0  0  0  0  0  0  0  0  0  0  0
    2.5492   -0.4194   -2.3063 C   0  0  0  0  0  0  0  0  0  0  0  0
    2.0381   -1.1457   -3.1436 O   0  0  0  0  0  0  0  0  0  0  0  0
    3.8251   -0.0213   -2.4653 O   0  0  0  0  0  0  0  0  0  0  0  0
    4.1150   -0.4281   -3.2837 H   0  0  0  0  0  0  0  0  0  0  0  0
   -0.4860    1.3537    0.7622 C   0  0  0  0  0  0  0  0  0  0  0  0
   -1.3956    2.0096    0.2582 O   0  0  0  0  0  0  0  0  0  0  0  0
    0.3741    1.8728    1.6466 N   0  0  0  0  0  0  0  0  0  0  0  0
    1.0814    1.2667    2.0345 H   0  0  0  0  0  0  0  0  0  0  0  0
    0.3380    3.2610    2.1024 C   0  0  0  0  0  0  0  0  0  0  0  0
   -0.6389    3.4820    2.5363 H   0  0  0  0  0  0  0  0  0  0  0  0
    1.1108    3.4337    2.8528 H   0  0  0  0  0  0  0  0  0  0  0  0
    0.5009    3.9312    1.2562 H   0  0  0  0  0  0  0  0  0  0  0  0
  5  6  2  0  0  0  0
  5  7  1  0  0  0  0
  2  3  1  0  0  0  0
  2  4  1  0  0  0  0
  2  5  1  0  0  0  0
  1  2  1  0  0  0  0
 21 22  2  0  0  0  0
 21 23  1  0  0  0  0
 19 20  1  0  0  0  0
 17 18  2  0  0  0  0
 17 19  1  0  0  0  0
 14 15  1  0  0  0  0
 14 16  1  0  0  0  0
 14 17  1  0  0  0  0
 11 12  1  0  0  0  0
 11 13  1  0  0  0  0
 11 14  1  0  0  0  0
  9 10  1  0  0  0  0
  9 11  1  0  0  0  0
  9 21  1  0  0  0  0
  7  8  1  0  0  0  0
  7  9  1  0  0  0  0
 25 26  1  0  0  0  0
 25 27  1  0  0  0  0
 25 28  1  0  0  0  0
 23 24  1  0  0  0  0
 23 25  1  0  0  0  0
M  END
$$$$
default_name
  -OEChem-02102213163D

 28 27  0     1  0  0  0  0  0999 V2000
   -3.2133   -3.5565    1.2809 H   0  0  0  0  0  0  0  0  0  0  0  0
   -3.1873   -2.5755    0.8089 C   0  0  0  0  0  0  0  0  0  0  0  0
   -3.8793   -1.9065    1.3169 H   0  0  0  0  0  0  0  0  0  0  0  0
   -3.4623   -2.6685   -0.2401 H   0  0  0  0  0  0  0  0  0  0  0  0
   -1.7863   -2.0195    0.9119 C   0  0  0  0  0  0  0  0  0  0  0  0
   -0.9073   -2.6615    1.4699 O   0  0  0  0  0  0  0  0  0  0  0  0
   -1.5803   -0.8195    0.3749 N   0  0  0  0  0  0  0  0  0  0  0  0
   -2.3603   -0.3345   -0.0451 H   0  0  0  0  0  0  0  0  0  0  0  0
   -0.2933   -0.1205    0.3719 C   0  0  1  0  0  0  0  0  0  0  0  0
    0.3577   -0.5843    1.1143 H   0  0  0  0  0  0  0  0  0  0  0  0
    0.3613   -0.2794   -1.0156 C   0  0  0  0  0  0  0  0  0  0  0  0
    0.0226   -1.2243   -1.4440 H   0  0  0  0  0  0  0  0  0  0  0  0
    0.0248    0.5285   -1.6669 H   0  0  0  0  0  0  0  0  0  0  0  0
    1.8994   -0.2729   -0.9837 C   0  0  0  0  0  0  0  0  0  0  0  0
    2.2581    0.6654   -0.5604 H   0  0  0  0  0  0  0  0  0  0  0  0
    2.2480   -1.0993   -0.3653 H   0  0  0  0  0  0  0  0  0  0  0  0
    2.5072   -0.4322   -2.3735 C   0  0  0  0  0  0  0  0  0  0  0  0
    1.8765   -0.6734   -3.3903 O   0  0  0  0  0  0  0  0  0  0  0  0
    3.8452   -0.3010   -2.4398 O   0  0  0  0  0  0  0  0  0  0  0  0
    4.0658   -0.4396   -3.3625 H   0  0  0  0  0  0  0  0  0  0  0  0
   -0.4860    1.3537    0.7622 C   0  0  0  0  0  0  0  0  0  0  0  0
   -1.3956    2.0096    0.2582 O   0  0  0  0  0  0  0  0  0  0  0  0
    0.3741    1.8728    1.6466 N   0  0  0  0  0  0  0  0  0  0  0  0
    1.0814    1.2667    2.0345 H   0  0  0  0  0  0  0  0  0  0  0  0
    0.3380    3.2610    2.1024 C   0  0  0  0  0  0  0  0  0  0  0  0
   -0.6389    3.4820    2.5363 H   0  0  0  0  0  0  0  0  0  0  0  0
    1.1108    3.4337    2.8528 H   0  0  0  0  0  0  0  0  0  0  0  0
    0.5009    3.9312    1.2562 H   0  0  0  0  0  0  0  0  0  0  0  0
  5  6  2  0  0  0  0
  5  7  1  0  0  0  0
  2  3  1  0  0  0  0
  2  4  1  0  0  0  0
  2  5  1  0  0  0  0
  1  2  1  0  0  0  0
 21 22  2  0  0  0  0
 21 23  1  0  0  0  0
 19 20  1  0  0  0  0
 17 18  2  0  0  0  0
 17 19  1  0  0  0  0
 14 15  1  0  0  0  0
 14 16  1  0  0  0  0
 14 17  1  0  0  0  0
 11 12  1  0  0  0  0
 11 13  1  0  0  0  0
 11 14  1  0  0  0  0
  9 10  1  0  0  0  0
  9 11  1  0  0  0  0
  9 21  1  0  0  0  0
  7  8  1  0  0  0  0
  7  9  1  0  0  0  0
 25 26  1  0  0  0  0
 25 27  1  0  0  0  0
 25 28  1  0  0  0  0
 23 24  1  0  0  0  0
 23 25  1  0  0  0  0
M  END
$$$$
default_name
  -OEChem-02102213163D

 28 27  0     1  0  0  0  0  0999 V2000
   -3.2133   -3.5565    1.2809 H   0  0  0  0  0  0  0  0  0  0  0  0
   -3.1873   -2.5755    0.8089 C   0  0  0  0  0  0  0  0  0  0  0  0
   -3.8793   -1.9065    1.3169 H   0  0  0  0  0  0  0  0  0  0  0  0
   -3.4623   -2.6685   -0.2401 H   0  0  0  0  0  0  0  0  0  0  0  0
   -1.7863   -2.0195    0.9119 C   0  0  0  0  0  0  0  0  0  0  0  0
   -0.9073   -2.6615    1.4699 O   0  0  0  0  0  0  0  0  0  0  0  0
   -1.5803   -0.8195    0.3749 N   0  0  0  0  0  0  0  0  0  0  0  0
   -2.3603   -0.3345   -0.0451 H   0  0  0  0  0  0  0  0  0  0  0  0
   -0.2933   -0.1205    0.3719 C   0  0  1  0  0  0  0  0  0  0  0  0
    0.3577   -0.5843    1.1143 H   0  0  0  0  0  0  0  0  0  0  0  0
    0.3613   -0.2794   -1.0156 C   0  0  0  0  0  0  0  0  0  0  0  0
    0.0226   -1.2243   -1.4440 H   0  0  0  0  0  0  0  0  0  0  0  0
    0.0248    0.5285   -1.6669 H   0  0  0  0  0  0  0  0  0  0  0  0
    1.8994   -0.2729   -0.9837 C   0  0  0  0  0  0  0  0  0  0  0  0
    2.2539    0.5259   -0.3321 H   0  0  0  0  0  0  0  0  0  0  0  0
    2.2535   -1.2292   -0.6003 H   0  0  0  0  0  0  0  0  0  0  0  0
    2.5056   -0.0638   -2.3676 C   0  0  0  0  0  0  0  0  0  0  0  0
    1.8743   -0.0372   -3.4120 O   0  0  0  0  0  0  0  0  0  0  0  0
    3.8427    0.0874   -2.3982 O   0  0  0  0  0  0  0  0  0  0  0  0
    4.0624    0.1936   -3.3254 H   0  0  0  0  0  0  0  0  0  0  0  0
   -0.4860    1.3537    0.7622 C   0  0  0  0  0  0  0  0  0  0  0  0
   -1.3956    2.0096    0.2582 O   0  0  0  0  0  0  0  0  0  0  0  0
    0.3741    1.8728    1.6466 N   0  0  0  0  0  0  0  0  0  0  0  0
    1.0814    1.2667    2.0345 H   0  0  0  0  0  0  0  0  0  0  0  0
    0.3380    3.2610    2.1024 C   0  0  0  0  0  0  0  0  0  0  0  0
   -0.6389    3.4820    2.5363 H   0  0  0  0  0  0  0  0  0  0  0  0
    1.1108    3.4337    2.8528 H   0  0  0  0  0  0  0  0  0  0  0  0
    0.5009    3.9312    1.2562 H   0  0  0  0  0  0  0  0  0  0  0  0
  5  6  2  0  0  0  0
  5  7  1  0  0  0  0
  2  3  1  0  0  0  0
  2  4  1  0  0  0  0
  2  5  1  0  0  0  0
  1  2  1  0  0  0  0
 21 22  2  0  0  0  0
 21 23  1  0  0  0  0
 19 20  1  0  0  0  0
 17 18  2  0  0  0  0
 17 19  1  0  0  0  0
 14 15  1  0  0  0  0
 14 16  1  0  0  0  0
 14 17  1  0  0  0  0
 11 12  1  0  0  0  0
 11 13  1  0  0  0  0
 11 14  1  0  0  0  0
  9 10  1  0  0  0  0
  9 11  1  0  0  0  0
  9 21  1  0  0  0  0
  7  8  1  0  0  0  0
  7  9  1  0  0  0  0
 25 26  1  0  0  0  0
 25 27  1  0  0  0  0
 25 28  1  0  0  0  0
 23 24  1  0  0  0  0
 23 25  1  0  0  0  0
M  END
$$$$
default_name
  -OEChem-02102213163D

 28 27  0     1  0  0  0  0  0999 V2000
   -3.2133   -3.5565    1.2809 H   0  0  0  0  0  0  0  0  0  0  0  0
   -3.1873   -2.5755    0.8089 C   0  0  0  0  0  0  0  0  0  0  0  0
   -3.8793   -1.9065    1.3169 H   0  0  0  0  0  0  0  0  0  0  0  0
   -3.4623   -2.6685   -0.2401 H   0  0  0  0  0  0  0  0  0  0  0  0
   -1.7863   -2.0195    0.9119 C   0  0  0  0  0  0  0  0  0  0  0  0
   -0.9073   -2.6615    1.4699 O   0  0  0  0  0  0  0  0  0  0  0  0
   -1.5803   -0.8195    0.3749 N   0  0  0  0  0  0  0  0  0  0  0  0
   -2.3603   -0.3345   -0.0451 H   0  0  0  0  0  0  0  0  0  0  0  0
   -0.2933   -0.1205    0.3719 C   0  0  1  0  0  0  0  0  0  0  0  0
    0.3577   -0.5843    1.1143 H   0  0  0  0  0  0  0  0  0  0  0  0
    0.3613   -0.2794   -1.0156 C   0  0  0  0  0  0  0  0  0  0  0  0
    0.0226   -1.2243   -1.4440 H   0  0  0  0  0  0  0  0  0  0  0  0
    0.0248    0.5285   -1.6669 H   0  0  0  0  0  0  0  0  0  0  0  0
    1.8994   -0.2729   -0.9837 C   0  0  0  0  0  0  0  0  0  0  0  0
    2.2509    0.3321   -0.1478 H   0  0  0  0  0  0  0  0  0  0  0  0
    2.2591   -1.2938   -0.8610 H   0  0  0  0  0  0  0  0  0  0  0  0
    2.5020    0.2905   -2.2666 C   0  0  0  0  0  0  0  0  0  0  0  0
    1.8687    0.5830   -3.2682 O   0  0  0  0  0  0  0  0  0  0  0  0
    3.8382    0.4519   -2.2575 O   0  0  0  0  0  0  0  0  0  0  0  0
    4.0557    0.7956   -3.1258 H   0  0  0  0  0  0  0  0  0  0  0  0
   -0.4860    1.3537    0.7622 C   0  0  0  0  0  0  0  0  0  0  0  0
   -1.3956    2.0096    0.2582 O   0  0  0  0  0  0  0  0  0  0  0  0
    0.3741    1.8728    1.6466 N   0  0  0  0  0  0  0  0  0  0  0  0
    1.0814    1.2667    2.0345 H   0  0  0  0  0  0  0  0  0  0  0  0
    0.3380    3.2610    2.1024 C   0  0  0  0  0  0  0  0  0  0  0  0
   -0.6389    3.4820    2.5363 H   0  0  0  0  0  0  0  0  0  0  0  0
    1.1108    3.4337    2.8528 H   0  0  0  0  0  0  0  0  0  0  0  0
    0.5009    3.9312    1.2562 H   0  0  0  0  0  0  0  0  0  0  0  0
  5  6  2  0  0  0  0
  5  7  1  0  0  0  0
  2  3  1  0  0  0  0
  2  4  1  0  0  0  0
  2  5  1  0  0  0  0
  1  2  1  0  0  0  0
 21 22  2  0  0  0  0
 21 23  1  0  0  0  0
 19 20  1  0  0  0  0
 17 18  2  0  0  0  0
 17 19  1  0  0  0  0
 14 15  1  0  0  0  0
 14 16  1  0  0  0  0
 14 17  1  0  0  0  0
 11 12  1  0  0  0  0
 11 13  1  0  0  0  0
 11 14  1  0  0  0  0
  9 10  1  0  0  0  0
  9 11  1  0  0  0  0
  9 21  1  0  0  0  0
  7  8  1  0  0  0  0
  7  9  1  0  0  0  0
 25 26  1  0  0  0  0
 25 27  1  0  0  0  0
 25 28  1  0  0  0  0
 23 24  1  0  0  0  0
 23 25  1  0  0  0  0
M  END
$$$$
default_name
  -OEChem-02102213163D

 28 27  0     1  0  0  0  0  0999 V2000
   -3.2133   -3.5565    1.2809 H   0  0  0  0  0  0  0  0  0  0  0  0
   -3.1873   -2.5755    0.8089 C   0  0  0  0  0  0  0  0  0  0  0  0
   -3.8793   -1.9065    1.3169 H   0  0  0  0  0  0  0  0  0  0  0  0
   -3.4623   -2.6685   -0.2401 H   0  0  0  0  0  0  0  0  0  0  0  0
   -1.7863   -2.0195    0.9119 C   0  0  0  0  0  0  0  0  0  0  0  0
   -0.9073   -2.6615    1.4699 O   0  0  0  0  0  0  0  0  0  0  0  0
   -1.5803   -0.8195    0.3749 N   0  0  0  0  0  0  0  0  0  0  0  0
   -2.3603   -0.3345   -0.0451 H   0  0  0  0  0  0  0  0  0  0  0  0
   -0.2933   -0.1205    0.3719 C   0  0  1  0  0  0  0  0  0  0  0  0
    0.3577   -0.5843    1.1143 H   0  0  0  0  0  0  0  0  0  0  0  0
    0.3613   -0.2794   -1.0156 C   0  0  0  0  0  0  0  0  0  0  0  0
    0.0226   -1.2243   -1.4440 H   0  0  0  0  0  0  0  0  0  0  0  0
    0.0248    0.5285   -1.6669 H   0  0  0  0  0  0  0  0  0  0  0  0
    1.8994   -0.2729   -0.9837 C   0  0  0  0  0  0  0  0  0  0  0  0
    2.2493    0.0971   -0.0198 H   0  0  0  0  0  0  0  0  0  0  0  0
    2.2647   -1.2888   -1.1295 H   0  0  0  0  0  0  0  0  0  0  0  0
    2.4967    0.6066   -2.0774 C   0  0  0  0  0  0  0  0  0  0  0  0
    1.8601    1.1448   -2.9689 O   0  0  0  0  0  0  0  0  0  0  0  0
    3.8321    0.7675   -2.0273 O   0  0  0  0  0  0  0  0  0  0  0  0
    4.0462    1.3253   -2.7772 H   0  0  0  0  0  0  0  0  0  0  0  0
   -0.4860    1.3537    0.7622 C   0  0  0  0  0  0  0  0  0  0  0  0
   -1.3956    2.0096    0.2582 O   0  0  0  0  0  0  0  0  0  0  0  0
    0.3741    1.8728    1.6466 N   0  0  0  0  0  0  0  0  0  0  0  0
    1.0814    1.2667    2.0345 H   0  0  0  0  0  0  0  0  0  0  0  0
    0.3380    3.2610    2.1024 C   0  0  0  0  0  0  0  0  0  0  0  0
   -0.6389    3.4820    2.5363 H   0  0  0  0  0  0  0  0  0  0  0  0
    1.1108    3.4337    2.8528 H   0  0  0  0  0  0  0  0  0  0  0  0
    0.5009    3.9312    1.2562 H   0  0  0  0  0  0  0  0  0  0  0  0
  5  6  2  0  0  0  0
  5  7  1  0  0  0  0
  2  3  1  0  0  0  0
  2  4  1  0  0  0  0
  2  5  1  0  0  0  0
  1  2  1  0  0  0  0
 21 22  2  0  0  0  0
 21 23  1  0  0  0  0
 19 20  1  0  0  0  0
 17 18  2  0  0  0  0
 17 19  1  0  0  0  0
 14 15  1  0  0  0  0
 14 16  1  0  0  0  0
 14 17  1  0  0  0  0
 11 12  1  0  0  0  0
 11 13  1  0  0  0  0
 11 14  1  0  0  0  0
  9 10  1  0  0  0  0
  9 11  1  0  0  0  0
  9 21  1  0  0  0  0
  7  8  1  0  0  0  0
  7  9  1  0  0  0  0
 25 26  1  0  0  0  0
 25 27  1  0  0  0  0
 25 28  1  0  0  0  0
 23 24  1  0  0  0  0
 23 25  1  0  0  0  0
M  END
$$$$
default_name
  -OEChem-02102213163D

 28 27  0     1  0  0  0  0  0999 V2000
   -3.2133   -3.5565    1.2809 H   0  0  0  0  0  0  0  0  0  0  0  0
   -3.1873   -2.5755    0.8089 C   0  0  0  0  0  0  0  0  0  0  0  0
   -3.8793   -1.9065    1.3169 H   0  0  0  0  0  0  0  0  0  0  0  0
   -3.4623   -2.6685   -0.2401 H   0  0  0  0  0  0  0  0  0  0  0  0
   -1.7863   -2.0195    0.9119 C   0  0  0  0  0  0  0  0  0  0  0  0
   -0.9073   -2.6615    1.4699 O   0  0  0  0  0  0  0  0  0  0  0  0
   -1.5803   -0.8195    0.3749 N   0  0  0  0  0  0  0  0  0  0  0  0
   -2.3603   -0.3345   -0.0451 H   0  0  0  0  0  0  0  0  0  0  0  0
   -0.2933   -0.1205    0.3719 C   0  0  1  0  0  0  0  0  0  0  0  0
    0.3577   -0.5843    1.1143 H   0  0  0  0  0  0  0  0  0  0  0  0
    0.3613   -0.2794   -1.0156 C   0  0  0  0  0  0  0  0  0  0  0  0
    0.0226   -1.2243   -1.4440 H   0  0  0  0  0  0  0  0  0  0  0  0
    0.0248    0.5285   -1.6669 H   0  0  0  0  0  0  0  0  0  0  0  0
    1.8994   -0.2729   -0.9837 C   0  0  0  0  0  0  0  0  0  0  0  0
    2.2490   -0.1630    0.0430 H   0  0  0  0  0  0  0  0  0  0  0  0
    2.2697   -1.2145   -1.3875 H   0  0  0  0  0  0  0  0  0  0  0  0
    2.4901    0.8629   -1.8128 C   0  0  0  0  0  0  0  0  0  0  0  0
    1.8491    1.6100   -2.5344 O   0  0  0  0  0  0  0  0  0  0  0  0
    3.8248    1.0127   -1.7233 O   0  0  0  0  0  0  0  0  0  0  0  0
    4.0346    1.7468   -2.3034 H   0  0  0  0  0  0  0  0  0  0  0  0
   -0.4860    1.3537    0.7622 C   0  0  0  0  0  0  0  0  0  0  0  0
   -1.3956    2.0096    0.2582 O   0  0  0  0  0  0  0  0  0  0  0  0
    0.3741    1.8728    1.6466 N   0  0  0  0  0  0  0  0  0  0  0  0
    1.0814    1.2667    2.0345 H   0  0  0  0  0  0  0  0  0  0  0  0
    0.3380    3.2610    2.1024 C   0  0  0  0  0  0  0  0  0  0  0  0
   -0.6389    3.4820    2.5363 H   0  0  0  0  0  0  0  0  0  0  0  0
    1.1108    3.4337    2.8528 H   0  0  0  0  0  0  0  0  0  0  0  0
    0.5009    3.9312    1.2562 H   0  0  0  0  0  0  0  0  0  0  0  0
  5  6  2  0  0  0  0
  5  7  1  0  0  0  0
  2  3  1  0  0  0  0
  2  4  1  0  0  0  0
  2  5  1  0  0  0  0
  1  2  1  0  0  0  0
 21 22  2  0  0  0  0
 21 23  1  0  0  0  0
 19 20  1  0  0  0  0
 17 18  2  0  0  0  0
 17 19  1  0  0  0  0
 14 15  1  0  0  0  0
 14 16  1  0  0  0  0
 14 17  1  0  0  0  0
 11 12  1  0  0  0  0
 11 13  1  0  0  0  0
 11 14  1  0  0  0  0
  9 10  1  0  0  0  0
  9 11  1  0  0  0  0
  9 21  1  0  0  0  0
  7  8  1  0  0  0  0
  7  9  1  0  0  0  0
 25 26  1  0  0  0  0
 25 27  1  0  0  0  0
 25 28  1  0  0  0  0
 23 24  1  0  0  0  0
 23 25  1  0  0  0  0
M  END
$$$$
default_name
  -OEChem-02102213163D

 28 27  0     1  0  0  0  0  0999 V2000
   -3.2133   -3.5565    1.2809 H   0  0  0  0  0  0  0  0  0  0  0  0
   -3.1873   -2.5755    0.8089 C   0  0  0  0  0  0  0  0  0  0  0  0
   -3.8793   -1.9065    1.3169 H   0  0  0  0  0  0  0  0  0  0  0  0
   -3.4623   -2.6685   -0.2401 H   0  0  0  0  0  0  0  0  0  0  0  0
   -1.7863   -2.0195    0.9119 C   0  0  0  0  0  0  0  0  0  0  0  0
   -0.9073   -2.6615    1.4699 O   0  0  0  0  0  0  0  0  0  0  0  0
   -1.5803   -0.8195    0.3749 N   0  0  0  0  0  0  0  0  0  0  0  0
   -2.3603   -0.3345   -0.0451 H   0  0  0  0  0  0  0  0  0  0  0  0
   -0.2933   -0.1205    0.3719 C   0  0  1  0  0  0  0  0  0  0  0  0
    0.3577   -0.5843    1.1143 H   0  0  0  0  0  0  0  0  0  0  0  0
    0.3613   -0.2794   -1.0156 C   0  0  0  0  0  0  0  0  0  0  0  0
    0.0226   -1.2243   -1.4440 H   0  0  0  0  0  0  0  0  0  0  0  0
    0.0248    0.5285   -1.6669 H   0  0  0  0  0  0  0  0  0  0  0  0
    1.8994   -0.2729   -0.9837 C   0  0  0  0  0  0  0  0  0  0  0  0
    2.2503   -0.4305    0.0363 H   0  0  0  0  0  0  0  0  0  0  0  0
    2.2739   -1.0758   -1.6175 H   0  0  0  0  0  0  0  0  0  0  0  0
    2.4827    1.0420   -1.4908 C   0  0  0  0  0  0  0  0  0  0  0  0
    1.8365    1.9469   -1.9944 O   0  0  0  0  0  0  0  0  0  0  0  0
    3.8167    1.1709   -1.3662 O   0  0  0  0  0  0  0  0  0  0  0  0
    4.0216    2.0312   -1.7366 H   0  0  0  0  0  0  0  0  0  0  0  0
   -0.4860    1.3537    0.7622 C   0  0  0  0  0  0  0  0  0  0  0  0
   -1.3956    2.0096    0.2582 O   0  0  0  0  0  0  0  0  0  0  0  0
    0.3741    1.8728    1.6466 N   0  0  0  0  0  0  0  0  0  0  0  0
    1.0814    1.2667    2.0345 H   0  0  0  0  0  0  0  0  0  0  0  0
    0.3380    3.2610    2.1024 C   0  0  0  0  0  0  0  0  0  0  0  0
   -0.6389    3.4820    2.5363 H   0  0  0  0  0  0  0  0  0  0  0  0
    1.1108    3.4337    2.8528 H   0  0  0  0  0  0  0  0  0  0  0  0
    0.5009    3.9312    1.2562 H   0  0  0  0  0  0  0  0  0  0  0  0
  5  6  2  0  0  0  0
  5  7  1  0  0  0  0
  2  3  1  0  0  0  0
  2  4  1  0  0  0  0
  2  5  1  0  0  0  0
  1  2  1  0  0  0  0
 21 22  2  0  0  0  0
 21 23  1  0  0  0  0
 19 20  1  0  0  0  0
 17 18  2  0  0  0  0
 17 19  1  0  0  0  0
 14 15  1  0  0  0  0
 14 16  1  0  0  0  0
 14 17  1  0  0  0  0
 11 12  1  0  0  0  0
 11 13  1  0  0  0  0
 11 14  1  0  0  0  0
  9 10  1  0  0  0  0
  9 11  1  0  0  0  0
  9 21  1  0  0  0  0
  7  8  1  0  0  0  0
  7  9  1  0  0  0  0
 25 26  1  0  0  0  0
 25 27  1  0  0  0  0
 25 28  1  0  0  0  0
 23 24  1  0  0  0  0
 23 25  1  0  0  0  0
M  END
$$$$
default_name
  -OEChem-02102213163D

 28 27  0     1  0  0  0  0  0999 V2000
   -3.2133   -3.5565    1.2809 H   0  0  0  0  0  0  0  0  0  0  0  0
   -3.1873   -2.5755    0.8089 C   0  0  0  0  0  0  0  0  0  0  0  0
   -3.8793   -1.9065    1.3169 H   0  0  0  0  0  0  0  0  0  0  0  0
   -3.4623   -2.6685   -0.2401 H   0  0  0  0  0  0  0  0  0  0  0  0
   -1.7863   -2.0195    0.9119 C   0  0  0  0  0  0  0  0  0  0  0  0
   -0.9073   -2.6615    1.4699 O   0  0  0  0  0  0  0  0  0  0  0  0
   -1.5803   -0.8195    0.3749 N   0  0  0  0  0  0  0  0  0  0  0  0
   -2.3603   -0.3345   -0.0451 H   0  0  0  0  0  0  0  0  0  0  0  0
   -0.2933   -0.1205    0.3719 C   0  0  1  0  0  0  0  0  0  0  0  0
    0.3577   -0.5843    1.1143 H   0  0  0  0  0  0  0  0  0  0  0  0
    0.3613   -0.2794   -1.0156 C   0  0  0  0  0  0  0  0  0  0  0  0
    0.0226   -1.2243   -1.4440 H   0  0  0  0  0  0  0  0  0  0  0  0
    0.0248    0.5285   -1.6669 H   0  0  0  0  0  0  0  0  0  0  0  0
    1.8994   -0.2729   -0.9837 C   0  0  0  0  0  0  0  0  0  0  0  0
    2.2530   -0.6871   -0.0393 H   0  0  0  0  0  0  0  0  0  0  0  0
    2.2769   -0.8824   -1.8039 H   0  0  0  0  0  0  0  0  0  0  0  0
    2.4749    1.1317   -1.1335 C   0  0  0  0  0  0  0  0  0  0  0  0
    1.8231    2.1324   -1.3855 O   0  0  0  0  0  0  0  0  0  0  0  0
    3.8084    1.2313   -0.9803 O   0  0  0  0  0  0  0  0  0  0  0  0
    4.0082    2.1592   -1.1156 H   0  0  0  0  0  0  0  0  0  0  0  0
   -0.4860    1.3537    0.7622 C   0  0  0  0  0  0  0  0  0  0  0  0
   -1.3956    2.0096    0.2582 O   0  0  0  0  0  0  0  0  0  0  0  0
    0.3741    1.8728    1.6466 N   0  0  0  0  0  0  0  0  0  0  0  0
    1.0814    1.2667    2.0345 H   0  0  0  0  0  0  0  0  0  0  0  0
    0.3380    3.2610    2.1024 C   0  0  0  0  0  0  0  0  0  0  0  0
   -0.6389    3.4820    2.5363 H   0  0  0  0  0  0  0  0  0  0  0  0
    1.1108    3.4337    2.8528 H   0  0  0  0  0  0  0  0  0  0  0  0
    0.5009    3.9312    1.2562 H   0  0  0  0  0  0  0  0  0  0  0  0
  5  6  2  0  0  0  0
  5  7  1  0  0  0  0
  2  3  1  0  0  0  0
  2  4  1  0  0  0  0
  2  5  1  0  0  0  0
  1  2  1  0  0  0  0
 21 22  2  0  0  0  0
 21 23  1  0  0  0  0
 19 20  1  0  0  0  0
 17 18  2  0  0  0  0
 17 19  1  0  0  0  0
 14 15  1  0  0  0  0
 14 16  1  0  0  0  0
 14 17  1  0  0  0  0
 11 12  1  0  0  0  0
 11 13  1  0  0  0  0
 11 14  1  0  0  0  0
  9 10  1  0  0  0  0
  9 11  1  0  0  0  0
  9 21  1  0  0  0  0
  7  8  1  0  0  0  0
  7  9  1  0  0  0  0
 25 26  1  0  0  0  0
 25 27  1  0  0  0  0
 25 28  1  0  0  0  0
 23 24  1  0  0  0  0
 23 25  1  0  0  0  0
M  END
$$$$
default_name
  -OEChem-02102213163D

 28 27  0     1  0  0  0  0  0999 V2000
   -3.2133   -3.5565    1.2809 H   0  0  0  0  0  0  0  0  0  0  0  0
   -3.1873   -2.5755    0.8089 C   0  0  0  0  0  0  0  0  0  0  0  0
   -3.8793   -1.9065    1.3169 H   0  0  0  0  0  0  0  0  0  0  0  0
   -3.4623   -2.6685   -0.2401 H   0  0  0  0  0  0  0  0  0  0  0  0
   -1.7863   -2.0195    0.9119 C   0  0  0  0  0  0  0  0  0  0  0  0
   -0.9073   -2.6615    1.4699 O   0  0  0  0  0  0  0  0  0  0  0  0
   -1.5803   -0.8195    0.3749 N   0  0  0  0  0  0  0  0  0  0  0  0
   -2.3603   -0.3345   -0.0451 H   0  0  0  0  0  0  0  0  0  0  0  0
   -0.2933   -0.1205    0.3719 C   0  0  1  0  0  0  0  0  0  0  0  0
    0.3577   -0.5843    1.1143 H   0  0  0  0  0  0  0  0  0  0  0  0
    0.3613   -0.2794   -1.0156 C   0  0  0  0  0  0  0  0  0  0  0  0
    0.0226   -1.2243   -1.4440 H   0  0  0  0  0  0  0  0  0  0  0  0
    0.0248    0.5285   -1.6669 H   0  0  0  0  0  0  0  0  0  0  0  0
    1.8994   -0.2729   -0.9837 C   0  0  0  0  0  0  0  0  0  0  0  0
    2.2568   -0.9154   -0.1788 H   0  0  0  0  0  0  0  0  0  0  0  0
    2.2786   -0.6473   -1.9338 H   0  0  0  0  0  0  0  0  0  0  0  0
    2.4673    1.1257   -0.7652 C   0  0  0  0  0  0  0  0  0  0  0  0
    1.8098    2.1540   -0.7494 O   0  0  0  0  0  0  0  0  0  0  0  0
    3.8006    1.1897   -0.5919 O   0  0  0  0  0  0  0  0  0  0  0  0
    3.9953    2.1221   -0.4825 H   0  0  0  0  0  0  0  0  0  0  0  0
   -0.4860    1.3537    0.7622 C   0  0  0  0  0  0  0  0  0  0  0  0
   -1.3956    2.0096    0.2582 O   0  0  0  0  0  0  0  0  0  0  0  0
    0.3741    1.8728    1.6466 N   0  0  0  0  0  0  0  0  0  0  0  0
    1.0814    1.2667    2.0345 H   0  0  0  0  0  0  0  0  0  0  0  0
    0.3380    3.2610    2.1024 C   0  0  0  0  0  0  0  0  0  0  0  0
   -0.6389    3.4820    2.5363 H   0  0  0  0  0  0  0  0  0  0  0  0
    1.1108    3.4337    2.8528 H   0  0  0  0  0  0  0  0  0  0  0  0
    0.5009    3.9312    1.2562 H   0  0  0  0  0  0  0  0  0  0  0  0
  5  6  2  0  0  0  0
  5  7  1  0  0  0  0
  2  3  1  0  0  0  0
  2  4  1  0  0  0  0
  2  5  1  0  0  0  0
  1  2  1  0  0  0  0
 21 22  2  0  0  0  0
 21 23  1  0  0  0  0
 19 20  1  0  0  0  0
 17 18  2  0  0  0  0
 17 19  1  0  0  0  0
 14 15  1  0  0  0  0
 14 16  1  0  0  0  0
 14 17  1  0  0  0  0
 11 12  1  0  0  0  0
 11 13  1  0  0  0  0
 11 14  1  0  0  0  0
  9 10  1  0  0  0  0
  9 11  1  0  0  0  0
  9 21  1  0  0  0  0
  7  8  1  0  0  0  0
  7  9  1  0  0  0  0
 25 26  1  0  0  0  0
 25 27  1  0  0  0  0
 25 28  1  0  0  0  0
 23 24  1  0  0  0  0
 23 25  1  0  0  0  0
M  END
$$$$
default_name
  -OEChem-02102213163D

 28 27  0     1  0  0  0  0  0999 V2000
   -3.2133   -3.5565    1.2809 H   0  0  0  0  0  0  0  0  0  0  0  0
   -3.1873   -2.5755    0.8089 C   0  0  0  0  0  0  0  0  0  0  0  0
   -3.8793   -1.9065    1.3169 H   0  0  0  0  0  0  0  0  0  0  0  0
   -3.4623   -2.6685   -0.2401 H   0  0  0  0  0  0  0  0  0  0  0  0
   -1.7863   -2.0195    0.9119 C   0  0  0  0  0  0  0  0  0  0  0  0
   -0.9073   -2.6615    1.4699 O   0  0  0  0  0  0  0  0  0  0  0  0
   -1.5803   -0.8195    0.3749 N   0  0  0  0  0  0  0  0  0  0  0  0
   -2.3603   -0.3345   -0.0451 H   0  0  0  0  0  0  0  0  0  0  0  0
   -0.2933   -0.1205    0.3719 C   0  0  1  0  0  0  0  0  0  0  0  0
    0.3577   -0.5843    1.1143 H   0  0  0  0  0  0  0  0  0  0  0  0
    0.3613   -0.2794   -1.0156 C   0  0  0  0  0  0  0  0  0  0  0  0
    0.0226   -1.2243   -1.4440 H   0  0  0  0  0  0  0  0  0  0  0  0
    0.0248    0.5285   -1.6669 H   0  0  0  0  0  0  0  0  0  0  0  0
    1.8994   -0.2729   -0.9837 C   0  0  0  0  0  0  0  0  0  0  0  0
    2.2616   -1.0998   -0.3726 H   0  0  0  0  0  0  0  0  0  0  0  0
    2.2789   -0.3866   -1.9985 H   0  0  0  0  0  0  0  0  0  0  0  0
    2.4604    1.0247   -0.4109 C   0  0  0  0  0  0  0  0  0  0  0  0
    1.7976    2.0102   -0.1293 O   0  0  0  0  0  0  0  0  0  0  0  0
    3.7936    1.0489   -0.2275 O   0  0  0  0  0  0  0  0  0  0  0  0
    3.9836    1.9224    0.1193 H   0  0  0  0  0  0  0  0  0  0  0  0
   -0.4860    1.3537    0.7622 C   0  0  0  0  0  0  0  0  0  0  0  0
   -1.3956    2.0096    0.2582 O   0  0  0  0  0  0  0  0  0  0  0  0
    0.3741    1.8728    1.6466 N   0  0  0  0  0  0  0  0  0  0  0  0
    1.0814    1.2667    2.0345 H   0  0  0  0  0  0  0  0  0  0  0  0
    0.3380    3.2610    2.1024 C   0  0  0  0  0  0  0  0  0  0  0  0
   -0.6389    3.4820    2.5363 H   0  0  0  0  0  0  0  0  0  0  0  0
    1.1108    3.4337    2.8528 H   0  0  0  0  0  0  0  0  0  0  0  0
    0.5009    3.9312    1.2562 H   0  0  0  0  0  0  0  0  0  0  0  0
  5  6  2  0  0  0  0
  5  7  1  0  0  0  0
  2  3  1  0  0  0  0
  2  4  1  0  0  0  0
  2  5  1  0  0  0  0
  1  2  1  0  0  0  0
 21 22  2  0  0  0  0
 21 23  1  0  0  0  0
 19 20  1  0  0  0  0
 17 18  2  0  0  0  0
 17 19  1  0  0  0  0
 14 15  1  0  0  0  0
 14 16  1  0  0  0  0
 14 17  1  0  0  0  0
 11 12  1  0  0  0  0
 11 13  1  0  0  0  0
 11 14  1  0  0  0  0
  9 10  1  0  0  0  0
  9 11  1  0  0  0  0
  9 21  1  0  0  0  0
  7  8  1  0  0  0  0
  7  9  1  0  0  0  0
 25 26  1  0  0  0  0
 25 27  1  0  0  0  0
 25 28  1  0  0  0  0
 23 24  1  0  0  0  0
 23 25  1  0  0  0  0
M  END
$$$$
default_name
  -OEChem-02102213163D

 28 27  0     1  0  0  0  0  0999 V2000
   -3.2133   -3.5565    1.2809 H   0  0  0  0  0  0  0  0  0  0  0  0
   -3.1873   -2.5755    0.8089 C   0  0  0  0  0  0  0  0  0  0  0  0
   -3.8793   -1.9065    1.3169 H   0  0  0  0  0  0  0  0  0  0  0  0
   -3.4623   -2.6685   -0.2401 H   0  0  0  0  0  0  0  0  0  0  0  0
   -1.7863   -2.0195    0.9119 C   0  0  0  0  0  0  0  0  0  0  0  0
   -0.9073   -2.6615    1.4699 O   0  0  0  0  0  0  0  0  0  0  0  0
   -1.5803   -0.8195    0.3749 N   0  0  0  0  0  0  0  0  0  0  0  0
   -2.3603   -0.3345   -0.0451 H   0  0  0  0  0  0  0  0  0  0  0  0
   -0.2933   -0.1205    0.3719 C   0  0  1  0  0  0  0  0  0  0  0  0
    0.3577   -0.5843    1.1143 H   0  0  0  0  0  0  0  0  0  0  0  0
    0.3613   -0.2794   -1.0156 C   0  0  0  0  0  0  0  0  0  0  0  0
    0.0226   -1.2243   -1.4440 H   0  0  0  0  0  0  0  0  0  0  0  0
    0.0248    0.5285   -1.6669 H   0  0  0  0  0  0  0  0  0  0  0  0
    1.8994   -0.2729   -0.9837 C   0  0  0  0  0  0  0  0  0  0  0  0
    2.2670   -1.2277   -0.6075 H   0  0  0  0  0  0  0  0  0  0  0  0
    2.2776   -0.1181   -1.9935 H   0  0  0  0  0  0  0  0  0  0  0  0
    2.4546    0.8354   -0.0949 C   0  0  0  0  0  0  0  0  0  0  0  0
    1.7872    1.7108    0.4324 O   0  0  0  0  0  0  0  0  0  0  0  0
    3.7880    0.8187    0.0880 O   0  0  0  0  0  0  0  0  0  0  0  0
    3.9741    1.5736    0.6490 H   0  0  0  0  0  0  0  0  0  0  0  0
   -0.4860    1.3537    0.7622 C   0  0  0  0  0  0  0  0  0  0  0  0
   -1.3956    2.0096    0.2582 O   0  0  0  0  0  0  0  0  0  0  0  0
    0.3741    1.8728    1.6466 N   0  0  0  0  0  0  0  0  0  0  0  0
    1.0814    1.2667    2.0345 H   0  0  0  0  0  0  0  0  0  0  0  0
    0.3380    3.2610    2.1024 C   0  0  0  0  0  0  0  0  0  0  0  0
   -0.6389    3.4820    2.5363 H   0  0  0  0  0  0  0  0  0  0  0  0
    1.1108    3.4337    2.8528 H   0  0  0  0  0  0  0  0  0  0  0  0
    0.5009    3.9312    1.2562 H   0  0  0  0  0  0  0  0  0  0  0  0
  5  6  2  0  0  0  0
  5  7  1  0  0  0  0
  2  3  1  0  0  0  0
  2  4  1  0  0  0  0
  2  5  1  0  0  0  0
  1  2  1  0  0  0  0
 21 22  2  0  0  0  0
 21 23  1  0  0  0  0
 19 20  1  0  0  0  0
 17 18  2  0  0  0  0
 17 19  1  0  0  0  0
 14 15  1  0  0  0  0
 14 16  1  0  0  0  0
 14 17  1  0  0  0  0
 11 12  1  0  0  0  0
 11 13  1  0  0  0  0
 11 14  1  0  0  0  0
  9 10  1  0  0  0  0
  9 11  1  0  0  0  0
  9 21  1  0  0  0  0
  7  8  1  0  0  0  0
  7  9  1  0  0  0  0
 25 26  1  0  0  0  0
 25 27  1  0  0  0  0
 25 28  1  0  0  0  0
 23 24  1  0  0  0  0
 23 25  1  0  0  0  0
M  END
$$$$
default_name
  -OEChem-02102213163D

 28 27  0     1  0  0  0  0  0999 V2000
   -3.2133   -3.5565    1.2809 H   0  0  0  0  0  0  0  0  0  0  0  0
   -3.1873   -2.5755    0.8089 C   0  0  0  0  0  0  0  0  0  0  0  0
   -3.8793   -1.9065    1.3169 H   0  0  0  0  0  0  0  0  0  0  0  0
   -3.4623   -2.6685   -0.2401 H   0  0  0  0  0  0  0  0  0  0  0  0
   -1.7863   -2.0195    0.9119 C   0  0  0  0  0  0  0  0  0  0  0  0
   -0.9073   -2.6615    1.4699 O   0  0  0  0  0  0  0  0  0  0  0  0
   -1.5803   -0.8195    0.3749 N   0  0  0  0  0  0  0  0  0  0  0  0
   -2.3603   -0.3345   -0.0451 H   0  0  0  0  0  0  0  0  0  0  0  0
   -0.2933   -0.1205    0.3719 C   0  0  1  0  0  0  0  0  0  0  0  0
    0.3577   -0.5843    1.1143 H   0  0  0  0  0  0  0  0  0  0  0  0
    0.3613   -0.2794   -1.0156 C   0  0  0  0  0  0  0  0  0  0  0  0
    0.0226   -1.2243   -1.4440 H   0  0  0  0  0  0  0  0  0  0  0  0
    0.0248    0.5285   -1.6669 H   0  0  0  0  0  0  0  0  0  0  0  0
    1.8994   -0.2729   -0.9837 C   0  0  0  0  0  0  0  0  0  0  0  0
    2.2727   -1.2905   -0.8675 H   0  0  0  0  0  0  0  0  0  0  0  0
    2.2750    0.1400   -1.9192 H   0  0  0  0  0  0  0  0  0  0  0  0
    2.4505    0.5707    0.1614 C   0  0  0  0  0  0  0  0  0  0  0  0
    1.7794    1.2761    0.8975 O   0  0  0  0  0  0  0  0  0  0  0  0
    3.7842    0.5146    0.3332 O   0  0  0  0  0  0  0  0  0  0  0  0
    3.9674    1.0997    1.0704 H   0  0  0  0  0  0  0  0  0  0  0  0
   -0.4860    1.3537    0.7622 C   0  0  0  0  0  0  0  0  0  0  0  0
   -1.3956    2.0096    0.2582 O   0  0  0  0  0  0  0  0  0  0  0  0
    0.3741    1.8728    1.6466 N   0  0  0  0  0  0  0  0  0  0  0  0
    1.0814    1.2667    2.0345 H   0  0  0  0  0  0  0  0  0  0  0  0
    0.3380    3.2610    2.1024 C   0  0  0  0  0  0  0  0  0  0  0  0
   -0.6389    3.4820    2.5363 H   0  0  0  0  0  0  0  0  0  0  0  0
    1.1108    3.4337    2.8528 H   0  0  0  0  0  0  0  0  0  0  0  0
    0.5009    3.9312    1.2562 H   0  0  0  0  0  0  0  0  0  0  0  0
  5  6  2  0  0  0  0
  5  7  1  0  0  0  0
  2  3  1  0  0  0  0
  2  4  1  0  0  0  0
  2  5  1  0  0  0  0
  1  2  1  0  0  0  0
 21 22  2  0  0  0  0
 21 23  1  0  0  0  0
 19 20  1  0  0  0  0
 17 18  2  0  0  0  0
 17 19  1  0  0  0  0
 14 15  1  0  0  0  0
 14 16  1  0  0  0  0
 14 17  1  0  0  0  0
 11 12  1  0  0  0  0
 11 13  1  0  0  0  0
 11 14  1  0  0  0  0
  9 10  1  0  0  0  0
  9 11  1  0  0  0  0
  9 21  1  0  0  0  0
  7  8  1  0  0  0  0
  7  9  1  0  0  0  0
 25 26  1  0  0  0  0
 25 27  1  0  0  0  0
 25 28  1  0  0  0  0
 23 24  1  0  0  0  0
 23 25  1  0  0  0  0
M  END
$$$$
default_name
  -OEChem-02102213163D

 28 27  0     1  0  0  0  0  0999 V2000
   -3.2133   -3.5565    1.2809 H   0  0  0  0  0  0  0  0  0  0  0  0
   -3.1873   -2.5755    0.8089 C   0  0  0  0  0  0  0  0  0  0  0  0
   -3.8793   -1.9065    1.3169 H   0  0  0  0  0  0  0  0  0  0  0  0
   -3.4623   -2.6685   -0.2401 H   0  0  0  0  0  0  0  0  0  0  0  0
   -1.7863   -2.0195    0.9119 C   0  0  0  0  0  0  0  0  0  0  0  0
   -0.9073   -2.6615    1.4699 O   0  0  0  0  0  0  0  0  0  0  0  0
   -1.5803   -0.8195    0.3749 N   0  0  0  0  0  0  0  0  0  0  0  0
   -2.3603   -0.3345   -0.0451 H   0  0  0  0  0  0  0  0  0  0  0  0
   -0.2933   -0.1205    0.3719 C   0  0  1  0  0  0  0  0  0  0  0  0
    0.3577   -0.5843    1.1143 H   0  0  0  0  0  0  0  0  0  0  0  0
    0.3613   -0.2794   -1.0156 C   0  0  0  0  0  0  0  0  0  0  0  0
    0.0226   -1.2243   -1.4440 H   0  0  0  0  0  0  0  0  0  0  0  0
    0.0248    0.5285   -1.6669 H   0  0  0  0  0  0  0  0  0  0  0  0
    1.8994   -0.2729   -0.9837 C   0  0  0  0  0  0  0  0  0  0  0  0
    2.2782   -1.2838   -1.1350 H   0  0  0  0  0  0  0  0  0  0  0  0
    2.2712    0.3701   -1.7806 H   0  0  0  0  0  0  0  0  0  0  0  0
    2.4481    0.2487    0.3405 C   0  0  0  0  0  0  0  0  0  0  0  0
    1.7747    0.7359    1.2343 O   0  0  0  0  0  0  0  0  0  0  0  0
    3.7825    0.1574    0.4914 O   0  0  0  0  0  0  0  0  0  0  0  0
    3.9639    0.5328    1.3548 H   0  0  0  0  0  0  0  0  0  0  0  0
   -0.4860    1.3537    0.7622 C   0  0  0  0  0  0  0  0  0  0  0  0
   -1.3956    2.0096    0.2582 O   0  0  0  0  0  0  0  0  0  0  0  0
    0.3741    1.8728    1.6466 N   0  0  0  0  0  0  0  0  0  0  0  0
    1.0814    1.2667    2.0345 H   0  0  0  0  0  0  0  0  0  0  0  0
    0.3380    3.2610    2.1024 C   0  0  0  0  0  0  0  0  0  0  0  0
   -0.6389    3.4820    2.5363 H   0  0  0  0  0  0  0  0  0  0  0  0
    1.1108    3.4337    2.8528 H   0  0  0  0  0  0  0  0  0  0  0  0
    0.5009    3.9312    1.2562 H   0  0  0  0  0  0  0  0  0  0  0  0
  5  6  2  0  0  0  0
  5  7  1  0  0  0  0
  2  3  1  0  0  0  0
  2  4  1  0  0  0  0
  2  5  1  0  0  0  0
  1  2  1  0  0  0  0
 21 22  2  0  0  0  0
 21 23  1  0  0  0  0
 19 20  1  0  0  0  0
 17 18  2  0  0  0  0
 17 19  1  0  0  0  0
 14 15  1  0  0  0  0
 14 16  1  0  0  0  0
 14 17  1  0  0  0  0
 11 12  1  0  0  0  0
 11 13  1  0  0  0  0
 11 14  1  0  0  0  0
  9 10  1  0  0  0  0
  9 11  1  0  0  0  0
  9 21  1  0  0  0  0
  7  8  1  0  0  0  0
  7  9  1  0  0  0  0
 25 26  1  0  0  0  0
 25 27  1  0  0  0  0
 25 28  1  0  0  0  0
 23 24  1  0  0  0  0
 23 25  1  0  0  0  0
M  END
$$$$
default_name
  -OEChem-02102213163D

 28 27  0     1  0  0  0  0  0999 V2000
   -3.2133   -3.5565    1.2809 H   0  0  0  0  0  0  0  0  0  0  0  0
   -3.1873   -2.5755    0.8089 C   0  0  0  0  0  0  0  0  0  0  0  0
   -3.8793   -1.9065    1.3169 H   0  0  0  0  0  0  0  0  0  0  0  0
   -3.4623   -2.6685   -0.2401 H   0  0  0  0  0  0  0  0  0  0  0  0
   -1.7863   -2.0195    0.9119 C   0  0  0  0  0  0  0  0  0  0  0  0
   -0.9073   -2.6615    1.4699 O   0  0  0  0  0  0  0  0  0  0  0  0
   -1.5803   -0.8195    0.3749 N   0  0  0  0  0  0  0  0  0  0  0  0
   -2.3603   -0.3345   -0.0451 H   0  0  0  0  0  0  0  0  0  0  0  0
   -0.2933   -0.1205    0.3719 C   0  0  1  0  0  0  0  0  0  0  0  0
    0.3577   -0.5843    1.1143 H   0  0  0  0  0  0  0  0  0  0  0  0
    0.3613   -0.2794   -1.0156 C   0  0  0  0  0  0  0  0  0  0  0  0
    0.0226   -1.2243   -1.4440 H   0  0  0  0  0  0  0  0  0  0  0  0
    0.0248    0.5285   -1.6669 H   0  0  0  0  0  0  0  0  0  0  0  0
    1.8994   -0.2729   -0.9837 C   0  0  0  0  0  0  0  0  0  0  0  0
    2.2832   -1.2081   -1.3915 H   0  0  0  0  0  0  0  0  0  0  0  0
    2.2664    0.5564   -1.5872 H   0  0  0  0  0  0  0  0  0  0  0  0
    2.4478   -0.1087    0.4302 C   0  0  0  0  0  0  0  0  0  0  0  0
    1.7734    0.1269    1.4199 O   0  0  0  0  0  0  0  0  0  0  0  0
    3.7828   -0.2286    0.5518 O   0  0  0  0  0  0  0  0  0  0  0  0
    3.9639   -0.0884    1.4829 H   0  0  0  0  0  0  0  0  0  0  0  0
   -0.4860    1.3537    0.7622 C   0  0  0  0  0  0  0  0  0  0  0  0
   -1.3956    2.0096    0.2582 O   0  0  0  0  0  0  0  0  0  0  0  0
    0.3741    1.8728    1.6466 N   0  0  0  0  0  0  0  0  0  0  0  0
    1.0814    1.2667    2.0345 H   0  0  0  0  0  0  0  0  0  0  0  0
    0.3380    3.2610    2.1024 C   0  0  0  0  0  0  0  0  0  0  0  0
   -0.6389    3.4820    2.5363 H   0  0  0  0  0  0  0  0  0  0  0  0
    1.1108    3.4337    2.8528 H   0  0  0  0  0  0  0  0  0  0  0  0
    0.5009    3.9312    1.2562 H   0  0  0  0  0  0  0  0  0  0  0  0
  5  6  2  0  0  0  0
  5  7  1  0  0  0  0
  2  3  1  0  0  0  0
  2  4  1  0  0  0  0
  2  5  1  0  0  0  0
  1  2  1  0  0  0  0
 21 22  2  0  0  0  0
 21 23  1  0  0  0  0
 19 20  1  0  0  0  0
 17 18  2  0  0  0  0
 17 19  1  0  0  0  0
 14 15  1  0  0  0  0
 14 16  1  0  0  0  0
 14 17  1  0  0  0  0
 11 12  1  0  0  0  0
 11 13  1  0  0  0  0
 11 14  1  0  0  0  0
  9 10  1  0  0  0  0
  9 11  1  0  0  0  0
  9 21  1  0  0  0  0
  7  8  1  0  0  0  0
  7  9  1  0  0  0  0
 25 26  1  0  0  0  0
 25 27  1  0  0  0  0
 25 28  1  0  0  0  0
 23 24  1  0  0  0  0
 23 25  1  0  0  0  0
M  END
$$$$
default_name
  -OEChem-02102213163D

 28 27  0     1  0  0  0  0  0999 V2000
   -3.2133   -3.5565    1.2809 H   0  0  0  0  0  0  0  0  0  0  0  0
   -3.1873   -2.5755    0.8089 C   0  0  0  0  0  0  0  0  0  0  0  0
   -3.8793   -1.9065    1.3169 H   0  0  0  0  0  0  0  0  0  0  0  0
   -3.4623   -2.6685   -0.2401 H   0  0  0  0  0  0  0  0  0  0  0  0
   -1.7863   -2.0195    0.9119 C   0  0  0  0  0  0  0  0  0  0  0  0
   -0.9073   -2.6615    1.4699 O   0  0  0  0  0  0  0  0  0  0  0  0
   -1.5803   -0.8195    0.3749 N   0  0  0  0  0  0  0  0  0  0  0  0
   -2.3603   -0.3345   -0.0451 H   0  0  0  0  0  0  0  0  0  0  0  0
   -0.2933   -0.1205    0.3719 C   0  0  1  0  0  0  0  0  0  0  0  0
    0.3577   -0.5843    1.1143 H   0  0  0  0  0  0  0  0  0  0  0  0
    0.3613   -0.2794   -1.0156 C   0  0  0  0  0  0  0  0  0  0  0  0
    0.0226   -1.2243   -1.4440 H   0  0  0  0  0  0  0  0  0  0  0  0
    0.0248    0.5285   -1.6669 H   0  0  0  0  0  0  0  0  0  0  0  0
    1.8994   -0.2729   -0.9837 C   0  0  0  0  0  0  0  0  0  0  0  0
    2.2874   -1.0686   -1.6198 H   0  0  0  0  0  0  0  0  0  0  0  0
    2.2609    0.6864   -1.3522 H   0  0  0  0  0  0  0  0  0  0  0  0
    2.4494   -0.4771    0.4243 C   0  0  0  0  0  0  0  0  0  0  0  0
    1.7757   -0.5093    1.4415 O   0  0  0  0  0  0  0  0  0  0  0  0
    3.7854   -0.6171    0.5103 O   0  0  0  0  0  0  0  0  0  0  0  0
    3.9673   -0.7215    1.4458 H   0  0  0  0  0  0  0  0  0  0  0  0
   -0.4860    1.3537    0.7622 C   0  0  0  0  0  0  0  0  0  0  0  0
   -1.3956    2.0096    0.2582 O   0  0  0  0  0  0  0  0  0  0  0  0
    0.3741    1.8728    1.6466 N   0  0  0  0  0  0  0  0  0  0  0  0
    1.0814    1.2667    2.0345 H   0  0  0  0  0  0  0  0  0  0  0  0
    0.3380    3.2610    2.1024 C   0  0  0  0  0  0  0  0  0  0  0  0
   -0.6389    3.4820    2.5363 H   0  0  0  0  0  0  0  0  0  0  0  0
    1.1108    3.4337    2.8528 H   0  0  0  0  0  0  0  0  0  0  0  0
    0.5009    3.9312    1.2562 H   0  0  0  0  0  0  0  0  0  0  0  0
  5  6  2  0  0  0  0
  5  7  1  0  0  0  0
  2  3  1  0  0  0  0
  2  4  1  0  0  0  0
  2  5  1  0  0  0  0
  1  2  1  0  0  0  0
 21 22  2  0  0  0  0
 21 23  1  0  0  0  0
 19 20  1  0  0  0  0
 17 18  2  0  0  0  0
 17 19  1  0  0  0  0
 14 15  1  0  0  0  0
 14 16  1  0  0  0  0
 14 17  1  0  0  0  0
 11 12  1  0  0  0  0
 11 13  1  0  0  0  0
 11 14  1  0  0  0  0
  9 10  1  0  0  0  0
  9 11  1  0  0  0  0
  9 21  1  0  0  0  0
  7  8  1  0  0  0  0
  7  9  1  0  0  0  0
 25 26  1  0  0  0  0
 25 27  1  0  0  0  0
 25 28  1  0  0  0  0
 23 24  1  0  0  0  0
 23 25  1  0  0  0  0
M  END
$$$$
default_name
  -OEChem-02102213163D

 28 27  0     1  0  0  0  0  0999 V2000
   -3.2133   -3.5565    1.2809 H   0  0  0  0  0  0  0  0  0  0  0  0
   -3.1873   -2.5755    0.8089 C   0  0  0  0  0  0  0  0  0  0  0  0
   -3.8793   -1.9065    1.3169 H   0  0  0  0  0  0  0  0  0  0  0  0
   -3.4623   -2.6685   -0.2401 H   0  0  0  0  0  0  0  0  0  0  0  0
   -1.7863   -2.0195    0.9119 C   0  0  0  0  0  0  0  0  0  0  0  0
   -0.9073   -2.6615    1.4699 O   0  0  0  0  0  0  0  0  0  0  0  0
   -1.5803   -0.8195    0.3749 N   0  0  0  0  0  0  0  0  0  0  0  0
   -2.3603   -0.3345   -0.0451 H   0  0  0  0  0  0  0  0  0  0  0  0
   -0.2933   -0.1205    0.3719 C   0  0  1  0  0  0  0  0  0  0  0  0
    0.3577   -0.5843    1.1143 H   0  0  0  0  0  0  0  0  0  0  0  0
    0.3613   -0.2794   -1.0156 C   0  0  0  0  0  0  0  0  0  0  0  0
    0.0226   -1.2243   -1.4440 H   0  0  0  0  0  0  0  0  0  0  0  0
    0.0248    0.5285   -1.6669 H   0  0  0  0  0  0  0  0  0  0  0  0
    1.8994   -0.2729   -0.9837 C   0  0  0  0  0  0  0  0  0  0  0  0
    2.2904   -0.8748   -1.8042 H   0  0  0  0  0  0  0  0  0  0  0  0
    2.2553    0.7510   -1.0915 H   0  0  0  0  0  0  0  0  0  0  0  0
    2.4530   -0.8314    0.3233 C   0  0  0  0  0  0  0  0  0  0  0  0
    1.7813   -1.1295    1.2978 O   0  0  0  0  0  0  0  0  0  0  0  0
    3.7898   -0.9815    0.3696 O   0  0  0  0  0  0  0  0  0  0  0  0
    3.9740   -1.3235    1.2462 H   0  0  0  0  0  0  0  0  0  0  0  0
   -0.4860    1.3537    0.7622 C   0  0  0  0  0  0  0  0  0  0  0  0
   -1.3956    2.0096    0.2582 O   0  0  0  0  0  0  0  0  0  0  0  0
    0.3741    1.8728    1.6466 N   0  0  0  0  0  0  0  0  0  0  0  0
    1.0814    1.2667    2.0345 H   0  0  0  0  0  0  0  0  0  0  0  0
    0.3380    3.2610    2.1024 C   0  0  0  0  0  0  0  0  0  0  0  0
   -0.6389    3.4820    2.5363 H   0  0  0  0  0  0  0  0  0  0  0  0
    1.1108    3.4337    2.8528 H   0  0  0  0  0  0  0  0  0  0  0  0
    0.5009    3.9312    1.2562 H   0  0  0  0  0  0  0  0  0  0  0  0
  5  6  2  0  0  0  0
  5  7  1  0  0  0  0
  2  3  1  0  0  0  0
  2  4  1  0  0  0  0
  2  5  1  0  0  0  0
  1  2  1  0  0  0  0
 21 22  2  0  0  0  0
 21 23  1  0  0  0  0
 19 20  1  0  0  0  0
 17 18  2  0  0  0  0
 17 19  1  0  0  0  0
 14 15  1  0  0  0  0
 14 16  1  0  0  0  0
 14 17  1  0  0  0  0
 11 12  1  0  0  0  0
 11 13  1  0  0  0  0
 11 14  1  0  0  0  0
  9 10  1  0  0  0  0
  9 11  1  0  0  0  0
  9 21  1  0  0  0  0
  7  8  1  0  0  0  0
  7  9  1  0  0  0  0
 25 26  1  0  0  0  0
 25 27  1  0  0  0  0
 25 28  1  0  0  0  0
 23 24  1  0  0  0  0
 23 25  1  0  0  0  0
M  END
$$$$
default_name
  -OEChem-02102213163D

 28 27  0     1  0  0  0  0  0999 V2000
   -3.2133   -3.5565    1.2809 H   0  0  0  0  0  0  0  0  0  0  0  0
   -3.1873   -2.5755    0.8089 C   0  0  0  0  0  0  0  0  0  0  0  0
   -3.8793   -1.9065    1.3169 H   0  0  0  0  0  0  0  0  0  0  0  0
   -3.4623   -2.6685   -0.2401 H   0  0  0  0  0  0  0  0  0  0  0  0
   -1.7863   -2.0195    0.9119 C   0  0  0  0  0  0  0  0  0  0  0  0
   -0.9073   -2.6615    1.4699 O   0  0  0  0  0  0  0  0  0  0  0  0
   -1.5803   -0.8195    0.3749 N   0  0  0  0  0  0  0  0  0  0  0  0
   -2.3603   -0.3345   -0.0451 H   0  0  0  0  0  0  0  0  0  0  0  0
   -0.2933   -0.1205    0.3719 C   0  0  1  0  0  0  0  0  0  0  0  0
    0.3577   -0.5843    1.1143 H   0  0  0  0  0  0  0  0  0  0  0  0
    0.3613   -0.2794   -1.0156 C   0  0  0  0  0  0  0  0  0  0  0  0
    0.0226   -1.2243   -1.4440 H   0  0  0  0  0  0  0  0  0  0  0  0
    0.0248    0.5285   -1.6669 H   0  0  0  0  0  0  0  0  0  0  0  0
    1.8994   -0.2729   -0.9837 C   0  0  0  0  0  0  0  0  0  0  0  0
    2.2920   -0.6398   -1.9321 H   0  0  0  0  0  0  0  0  0  0  0  0
    2.2497    0.7460   -0.8230 H   0  0  0  0  0  0  0  0  0  0  0  0
    2.4583   -1.1475    0.1340 C   0  0  0  0  0  0  0  0  0  0  0  0
    1.7899   -1.6913    0.9985 O   0  0  0  0  0  0  0  0  0  0  0  0
    3.7959   -1.2971    0.1394 O   0  0  0  0  0  0  0  0  0  0  0  0
    3.9835   -1.8533    0.8976 H   0  0  0  0  0  0  0  0  0  0  0  0
   -0.4860    1.3537    0.7622 C   0  0  0  0  0  0  0  0  0  0  0  0
   -1.3956    2.0096    0.2582 O   0  0  0  0  0  0  0  0  0  0  0  0
    0.3741    1.8728    1.6466 N   0  0  0  0  0  0  0  0  0  0  0  0
    1.0814    1.2667    2.0345 H   0  0  0  0  0  0  0  0  0  0  0  0
    0.3380    3.2610    2.1024 C   0  0  0  0  0  0  0  0  0  0  0  0
   -0.6389    3.4820    2.5363 H   0  0  0  0  0  0  0  0  0  0  0  0
    1.1108    3.4337    2.8528 H   0  0  0  0  0  0  0  0  0  0  0  0
    0.5009    3.9312    1.2562 H   0  0  0  0  0  0  0  0  0  0  0  0
  5  6  2  0  0  0  0
  5  7  1  0  0  0  0
  2  3  1  0  0  0  0
  2  4  1  0  0  0  0
  2  5  1  0  0  0  0
  1  2  1  0  0  0  0
 21 22  2  0  0  0  0
 21 23  1  0  0  0  0
 19 20  1  0  0  0  0
 17 18  2  0  0  0  0
 17 19  1  0  0  0  0
 14 15  1  0  0  0  0
 14 16  1  0  0  0  0
 14 17  1  0  0  0  0
 11 12  1  0  0  0  0
 11 13  1  0  0  0  0
 11 14  1  0  0  0  0
  9 10  1  0  0  0  0
  9 11  1  0  0  0  0
  9 21  1  0  0  0  0
  7  8  1  0  0  0  0
  7  9  1  0  0  0  0
 25 26  1  0  0  0  0
 25 27  1  0  0  0  0
 25 28  1  0  0  0  0
 23 24  1  0  0  0  0
 23 25  1  0  0  0  0
M  END
$$$$
default_name
  -OEChem-02102213163D

 28 27  0     1  0  0  0  0  0999 V2000
   -3.2133   -3.5565    1.2809 H   0  0  0  0  0  0  0  0  0  0  0  0
   -3.1873   -2.5755    0.8089 C   0  0  0  0  0  0  0  0  0  0  0  0
   -3.8793   -1.9065    1.3169 H   0  0  0  0  0  0  0  0  0  0  0  0
   -3.4623   -2.6685   -0.2401 H   0  0  0  0  0  0  0  0  0  0  0  0
   -1.7863   -2.0195    0.9119 C   0  0  0  0  0  0  0  0  0  0  0  0
   -0.9073   -2.6615    1.4699 O   0  0  0  0  0  0  0  0  0  0  0  0
   -1.5803   -0.8195    0.3749 N   0  0  0  0  0  0  0  0  0  0  0  0
   -2.3603   -0.3345   -0.0451 H   0  0  0  0  0  0  0  0  0  0  0  0
   -0.2933   -0.1205    0.3719 C   0  0  1  0  0  0  0  0  0  0  0  0
    0.3577   -0.5843    1.1143 H   0  0  0  0  0  0  0  0  0  0  0  0
    0.3613   -0.2794   -1.0156 C   0  0  0  0  0  0  0  0  0  0  0  0
    0.0226   -1.2243   -1.4440 H   0  0  0  0  0  0  0  0  0  0  0  0
    0.0248    0.5285   -1.6669 H   0  0  0  0  0  0  0  0  0  0  0  0
    1.8994   -0.2729   -0.9837 C   0  0  0  0  0  0  0  0  0  0  0  0
    2.2922   -0.3797   -1.9949 H   0  0  0  0  0  0  0  0  0  0  0  0
    2.2447    0.6717   -0.5650 H   0  0  0  0  0  0  0  0  0  0  0  0
    2.4649   -1.4039   -0.1306 C   0  0  0  0  0  0  0  0  0  0  0  0
    1.8008   -2.1565    0.5640 O   0  0  0  0  0  0  0  0  0  0  0  0
    3.8033   -1.5424   -0.1646 O   0  0  0  0  0  0  0  0  0  0  0  0
    3.9951   -2.2747    0.4237 H   0  0  0  0  0  0  0  0  0  0  0  0
   -0.4860    1.3537    0.7622 C   0  0  0  0  0  0  0  0  0  0  0  0
   -1.3956    2.0096    0.2582 O   0  0  0  0  0  0  0  0  0  0  0  0
    0.3741    1.8728    1.6466 N   0  0  0  0  0  0  0  0  0  0  0  0
    1.0814    1.2667    2.0345 H   0  0  0  0  0  0  0  0  0  0  0  0
    0.3380    3.2610    2.1024 C   0  0  0  0  0  0  0  0  0  0  0  0
   -0.6389    3.4820    2.5363 H   0  0  0  0  0  0  0  0  0  0  0  0
    1.1108    3.4337    2.8528 H   0  0  0  0  0  0  0  0  0  0  0  0
    0.5009    3.9312    1.2562 H   0  0  0  0  0  0  0  0  0  0  0  0
  5  6  2  0  0  0  0
  5  7  1  0  0  0  0
  2  3  1  0  0  0  0
  2  4  1  0  0  0  0
  2  5  1  0  0  0  0
  1  2  1  0  0  0  0
 21 22  2  0  0  0  0
 21 23  1  0  0  0  0
 19 20  1  0  0  0  0
 17 18  2  0  0  0  0
 17 19  1  0  0  0  0
 14 15  1  0  0  0  0
 14 16  1  0  0  0  0
 14 17  1  0  0  0  0
 11 12  1  0  0  0  0
 11 13  1  0  0  0  0
 11 14  1  0  0  0  0
  9 10  1  0  0  0  0
  9 11  1  0  0  0  0
  9 21  1  0  0  0  0
  7  8  1  0  0  0  0
  7  9  1  0  0  0  0
 25 26  1  0  0  0  0
 25 27  1  0  0  0  0
 25 28  1  0  0  0  0
 23 24  1  0  0  0  0
 23 25  1  0  0  0  0
M  END
$$$$
default_name
  -OEChem-02102213163D

 28 27  0     1  0  0  0  0  0999 V2000
   -3.2133   -3.5565    1.2809 H   0  0  0  0  0  0  0  0  0  0  0  0
   -3.1873   -2.5755    0.8089 C   0  0  0  0  0  0  0  0  0  0  0  0
   -3.8793   -1.9065    1.3169 H   0  0  0  0  0  0  0  0  0  0  0  0
   -3.4623   -2.6685   -0.2401 H   0  0  0  0  0  0  0  0  0  0  0  0
   -1.7863   -2.0195    0.9119 C   0  0  0  0  0  0  0  0  0  0  0  0
   -0.9073   -2.6615    1.4699 O   0  0  0  0  0  0  0  0  0  0  0  0
   -1.5803   -0.8195    0.3749 N   0  0  0  0  0  0  0  0  0  0  0  0
   -2.3603   -0.3345   -0.0451 H   0  0  0  0  0  0  0  0  0  0  0  0
   -0.2933   -0.1205    0.3719 C   0  0  1  0  0  0  0  0  0  0  0  0
    0.3577   -0.5843    1.1143 H   0  0  0  0  0  0  0  0  0  0  0  0
    0.3613   -0.2794   -1.0156 C   0  0  0  0  0  0  0  0  0  0  0  0
    0.0226   -1.2243   -1.4440 H   0  0  0  0  0  0  0  0  0  0  0  0
    0.0248    0.5285   -1.6669 H   0  0  0  0  0  0  0  0  0  0  0  0
    1.8994   -0.2729   -0.9837 C   0  0  0  0  0  0  0  0  0  0  0  0
    2.2909   -0.1122   -1.9882 H   0  0  0  0  0  0  0  0  0  0  0  0
    2.2405    0.5330   -0.3349 H   0  0  0  0  0  0  0  0  0  0  0  0
    2.4723   -1.5830   -0.4525 C   0  0  0  0  0  0  0  0  0  0  0  0
    1.8135   -2.4933    0.0239 O   0  0  0  0  0  0  0  0  0  0  0  0
    3.8113   -1.7006   -0.5217 O   0  0  0  0  0  0  0  0  0  0  0  0
    4.0080   -2.5591   -0.1430 H   0  0  0  0  0  0  0  0  0  0  0  0
   -0.4860    1.3537    0.7622 C   0  0  0  0  0  0  0  0  0  0  0  0
   -1.3956    2.0096    0.2582 O   0  0  0  0  0  0  0  0  0  0  0  0
    0.3741    1.8728    1.6466 N   0  0  0  0  0  0  0  0  0  0  0  0
    1.0814    1.2667    2.0345 H   0  0  0  0  0  0  0  0  0  0  0  0
    0.3380    3.2610    2.1024 C   0  0  0  0  0  0  0  0  0  0  0  0
   -0.6389    3.4820    2.5363 H   0  0  0  0  0  0  0  0  0  0  0  0
    1.1108    3.4337    2.8528 H   0  0  0  0  0  0  0  0  0  0  0  0
    0.5009    3.9312    1.2562 H   0  0  0  0  0  0  0  0  0  0  0  0
  5  6  2  0  0  0  0
  5  7  1  0  0  0  0
  2  3  1  0  0  0  0
  2  4  1  0  0  0  0
  2  5  1  0  0  0  0
  1  2  1  0  0  0  0
 21 22  2  0  0  0  0
 21 23  1  0  0  0  0
 19 20  1  0  0  0  0
 17 18  2  0  0  0  0
 17 19  1  0  0  0  0
 14 15  1  0  0  0  0
 14 16  1  0  0  0  0
 14 17  1  0  0  0  0
 11 12  1  0  0  0  0
 11 13  1  0  0  0  0
 11 14  1  0  0  0  0
  9 10  1  0  0  0  0
  9 11  1  0  0  0  0
  9 21  1  0  0  0  0
  7  8  1  0  0  0  0
  7  9  1  0  0  0  0
 25 26  1  0  0  0  0
 25 27  1  0  0  0  0
 25 28  1  0  0  0  0
 23 24  1  0  0  0  0
 23 25  1  0  0  0  0
M  END
$$$$
default_name
  -OEChem-02102213163D

 28 27  0     1  0  0  0  0  0999 V2000
   -3.2133   -3.5565    1.2809 H   0  0  0  0  0  0  0  0  0  0  0  0
   -3.1873   -2.5755    0.8089 C   0  0  0  0  0  0  0  0  0  0  0  0
   -3.8793   -1.9065    1.3169 H   0  0  0  0  0  0  0  0  0  0  0  0
   -3.4623   -2.6685   -0.2401 H   0  0  0  0  0  0  0  0  0  0  0  0
   -1.7863   -2.0195    0.9119 C   0  0  0  0  0  0  0  0  0  0  0  0
   -0.9073   -2.6615    1.4699 O   0  0  0  0  0  0  0  0  0  0  0  0
   -1.5803   -0.8195    0.3749 N   0  0  0  0  0  0  0  0  0  0  0  0
   -2.3603   -0.3345   -0.0451 H   0  0  0  0  0  0  0  0  0  0  0  0
   -0.2933   -0.1205    0.3719 C   0  0  1  0  0  0  0  0  0  0  0  0
    0.3577   -0.5843    1.1143 H   0  0  0  0  0  0  0  0  0  0  0  0
    0.3613   -0.2794   -1.0156 C   0  0  0  0  0  0  0  0  0  0  0  0
    0.0226   -1.2243   -1.4440 H   0  0  0  0  0  0  0  0  0  0  0  0
    0.0248    0.5285   -1.6669 H   0  0  0  0  0  0  0  0  0  0  0  0
    1.8994   -0.2729   -0.9837 C   0  0  0  0  0  0  0  0  0  0  0  0
    2.2883    0.1444   -1.9126 H   0  0  0  0  0  0  0  0  0  0  0  0
    2.2375    0.3396   -0.1486 H   0  0  0  0  0  0  0  0  0  0  0  0
    2.4801   -1.6726   -0.8098 C   0  0  0  0  0  0  0  0  0  0  0  0
    1.8269   -2.6789   -0.5849 O   0  0  0  0  0  0  0  0  0  0  0  0
    3.8196   -1.7609   -0.9076 O   0  0  0  0  0  0  0  0  0  0  0  0
    4.0214   -2.6872   -0.7640 H   0  0  0  0  0  0  0  0  0  0  0  0
   -0.4860    1.3537    0.7622 C   0  0  0  0  0  0  0  0  0  0  0  0
   -1.3956    2.0096    0.2582 O   0  0  0  0  0  0  0  0  0  0  0  0
    0.3741    1.8728    1.6466 N   0  0  0  0  0  0  0  0  0  0  0  0
    1.0814    1.2667    2.0345 H   0  0  0  0  0  0  0  0  0  0  0  0
    0.3380    3.2610    2.1024 C   0  0  0  0  0  0  0  0  0  0  0  0
   -0.6389    3.4820    2.5363 H   0  0  0  0  0  0  0  0  0  0  0  0
    1.1108    3.4337    2.8528 H   0  0  0  0  0  0  0  0  0  0  0  0
    0.5009    3.9312    1.2562 H   0  0  0  0  0  0  0  0  0  0  0  0
  5  6  2  0  0  0  0
  5  7  1  0  0  0  0
  2  3  1  0  0  0  0
  2  4  1  0  0  0  0
  2  5  1  0  0  0  0
  1  2  1  0  0  0  0
 21 22  2  0  0  0  0
 21 23  1  0  0  0  0
 19 20  1  0  0  0  0
 17 18  2  0  0  0  0
 17 19  1  0  0  0  0
 14 15  1  0  0  0  0
 14 16  1  0  0  0  0
 14 17  1  0  0  0  0
 11 12  1  0  0  0  0
 11 13  1  0  0  0  0
 11 14  1  0  0  0  0
  9 10  1  0  0  0  0
  9 11  1  0  0  0  0
  9 21  1  0  0  0  0
  7  8  1  0  0  0  0
  7  9  1  0  0  0  0
 25 26  1  0  0  0  0
 25 27  1  0  0  0  0
 25 28  1  0  0  0  0
 23 24  1  0  0  0  0
 23 25  1  0  0  0  0
M  END
$$$$
default_name
  -OEChem-02102213163D

 28 27  0     1  0  0  0  0  0999 V2000
   -3.2133   -3.5565    1.2809 H   0  0  0  0  0  0  0  0  0  0  0  0
   -3.1873   -2.5755    0.8089 C   0  0  0  0  0  0  0  0  0  0  0  0
   -3.8793   -1.9065    1.3169 H   0  0  0  0  0  0  0  0  0  0  0  0
   -3.4623   -2.6685   -0.2401 H   0  0  0  0  0  0  0  0  0  0  0  0
   -1.7863   -2.0195    0.9119 C   0  0  0  0  0  0  0  0  0  0  0  0
   -0.9073   -2.6615    1.4699 O   0  0  0  0  0  0  0  0  0  0  0  0
   -1.5803   -0.8195    0.3749 N   0  0  0  0  0  0  0  0  0  0  0  0
   -2.3603   -0.3345   -0.0451 H   0  0  0  0  0  0  0  0  0  0  0  0
   -0.2933   -0.1205    0.3719 C   0  0  1  0  0  0  0  0  0  0  0  0
    0.3577   -0.5843    1.1143 H   0  0  0  0  0  0  0  0  0  0  0  0
    0.3613   -0.2794   -1.0156 C   0  0  0  0  0  0  0  0  0  0  0  0
    0.0226   -1.2243   -1.4440 H   0  0  0  0  0  0  0  0  0  0  0  0
    0.0248    0.5285   -1.6669 H   0  0  0  0  0  0  0  0  0  0  0  0
    1.8994   -0.2729   -0.9837 C   0  0  0  0  0  0  0  0  0  0  0  0
    2.2844    0.3727   -1.7731 H   0  0  0  0  0  0  0  0  0  0  0  0
    2.2358    0.1045   -0.0187 H   0  0  0  0  0  0  0  0  0  0  0  0
    2.4877   -1.6667   -1.1782 C   0  0  0  0  0  0  0  0  0  0  0  0
    1.8401   -2.7005   -1.2210 O   0  0  0  0  0  0  0  0  0  0  0  0
    3.8275   -1.7193   -1.2960 O   0  0  0  0  0  0  0  0  0  0  0  0
    4.0344   -2.6500   -1.3971 H   0  0  0  0  0  0  0  0  0  0  0  0
   -0.4860    1.3537    0.7622 C   0  0  0  0  0  0  0  0  0  0  0  0
   -1.3956    2.0096    0.2582 O   0  0  0  0  0  0  0  0  0  0  0  0
    0.3741    1.8728    1.6466 N   0  0  0  0  0  0  0  0  0  0  0  0
    1.0814    1.2667    2.0345 H   0  0  0  0  0  0  0  0  0  0  0  0
    0.3380    3.2610    2.1024 C   0  0  0  0  0  0  0  0  0  0  0  0
   -0.6389    3.4820    2.5363 H   0  0  0  0  0  0  0  0  0  0  0  0
    1.1108    3.4337    2.8528 H   0  0  0  0  0  0  0  0  0  0  0  0
    0.5009    3.9312    1.2562 H   0  0  0  0  0  0  0  0  0  0  0  0
  5  6  2  0  0  0  0
  5  7  1  0  0  0  0
  2  3  1  0  0  0  0
  2  4  1  0  0  0  0
  2  5  1  0  0  0  0
  1  2  1  0  0  0  0
 21 22  2  0  0  0  0
 21 23  1  0  0  0  0
 19 20  1  0  0  0  0
 17 18  2  0  0  0  0
 17 19  1  0  0  0  0
 14 15  1  0  0  0  0
 14 16  1  0  0  0  0
 14 17  1  0  0  0  0
 11 12  1  0  0  0  0
 11 13  1  0  0  0  0
 11 14  1  0  0  0  0
  9 10  1  0  0  0  0
  9 11  1  0  0  0  0
  9 21  1  0  0  0  0
  7  8  1  0  0  0  0
  7  9  1  0  0  0  0
 25 26  1  0  0  0  0
 25 27  1  0  0  0  0
 25 28  1  0  0  0  0
 23 24  1  0  0  0  0
 23 25  1  0  0  0  0
M  END
$$$$
default_name
  -OEChem-02102213163D

 28 27  0     1  0  0  0  0  0999 V2000
   -3.2133   -3.5565    1.2809 H   0  0  0  0  0  0  0  0  0  0  0  0
   -3.1873   -2.5755    0.8089 C   0  0  0  0  0  0  0  0  0  0  0  0
   -3.8793   -1.9065    1.3169 H   0  0  0  0  0  0  0  0  0  0  0  0
   -3.4623   -2.6685   -0.2401 H   0  0  0  0  0  0  0  0  0  0  0  0
   -1.7863   -2.0195    0.9119 C   0  0  0  0  0  0  0  0  0  0  0  0
   -0.9073   -2.6615    1.4699 O   0  0  0  0  0  0  0  0  0  0  0  0
   -1.5803   -0.8195    0.3749 N   0  0  0  0  0  0  0  0  0  0  0  0
   -2.3603   -0.3345   -0.0451 H   0  0  0  0  0  0  0  0  0  0  0  0
   -0.2933   -0.1205    0.3719 C   0  0  1  0  0  0  0  0  0  0  0  0
    0.3577   -0.5843    1.1143 H   0  0  0  0  0  0  0  0  0  0  0  0
    0.3613   -0.2794   -1.0156 C   0  0  0  0  0  0  0  0  0  0  0  0
    0.0226   -1.2243   -1.4440 H   0  0  0  0  0  0  0  0  0  0  0  0
    0.0248    0.5285   -1.6669 H   0  0  0  0  0  0  0  0  0  0  0  0
    1.8994   -0.2729   -0.9837 C   0  0  0  0  0  0  0  0  0  0  0  0
    2.2796    0.5571   -1.5793 H   0  0  0  0  0  0  0  0  0  0  0  0
    2.2355   -0.1562    0.0460 H   0  0  0  0  0  0  0  0  0  0  0  0
    2.4946   -1.5656   -1.5324 C   0  0  0  0  0  0  0  0  0  0  0  0
    1.8524   -2.5567   -1.8411 O   0  0  0  0  0  0  0  0  0  0  0  0
    3.8344   -1.5786   -1.6604 O   0  0  0  0  0  0  0  0  0  0  0  0
    4.0460   -2.4503   -1.9989 H   0  0  0  0  0  0  0  0  0  0  0  0
   -0.4860    1.3537    0.7622 C   0  0  0  0  0  0  0  0  0  0  0  0
   -1.3956    2.0096    0.2582 O   0  0  0  0  0  0  0  0  0  0  0  0
    0.3741    1.8728    1.6466 N   0  0  0  0  0  0  0  0  0  0  0  0
    1.0814    1.2667    2.0345 H   0  0  0  0  0  0  0  0  0  0  0  0
    0.3380    3.2610    2.1024 C   0  0  0  0  0  0  0  0  0  0  0  0
   -0.6389    3.4820    2.5363 H   0  0  0  0  0  0  0  0  0  0  0  0
    1.1108    3.4337    2.8528 H   0  0  0  0  0  0  0  0  0  0  0  0
    0.5009    3.9312    1.2562 H   0  0  0  0  0  0  0  0  0  0  0  0
  5  6  2  0  0  0  0
  5  7  1  0  0  0  0
  2  3  1  0  0  0  0
  2  4  1  0  0  0  0
  2  5  1  0  0  0  0
  1  2  1  0  0  0  0
 21 22  2  0  0  0  0
 21 23  1  0  0  0  0
 19 20  1  0  0  0  0
 17 18  2  0  0  0  0
 17 19  1  0  0  0  0
 14 15  1  0  0  0  0
 14 16  1  0  0  0  0
 14 17  1  0  0  0  0
 11 12  1  0  0  0  0
 11 13  1  0  0  0  0
 11 14  1  0  0  0  0
  9 10  1  0  0  0  0
  9 11  1  0  0  0  0
  9 21  1  0  0  0  0
  7  8  1  0  0  0  0
  7  9  1  0  0  0  0
 25 26  1  0  0  0  0
 25 27  1  0  0  0  0
 25 28  1  0  0  0  0
 23 24  1  0  0  0  0
 23 25  1  0  0  0  0
M  END
$$$$
default_name
  -OEChem-02102213163D

 28 27  0     1  0  0  0  0  0999 V2000
   -3.2133   -3.5565    1.2809 H   0  0  0  0  0  0  0  0  0  0  0  0
   -3.1873   -2.5755    0.8089 C   0  0  0  0  0  0  0  0  0  0  0  0
   -3.8793   -1.9065    1.3169 H   0  0  0  0  0  0  0  0  0  0  0  0
   -3.4623   -2.6685   -0.2401 H   0  0  0  0  0  0  0  0  0  0  0  0
   -1.7863   -2.0195    0.9119 C   0  0  0  0  0  0  0  0  0  0  0  0
   -0.9073   -2.6615    1.4699 O   0  0  0  0  0  0  0  0  0  0  0  0
   -1.5803   -0.8195    0.3749 N   0  0  0  0  0  0  0  0  0  0  0  0
   -2.3603   -0.3345   -0.0451 H   0  0  0  0  0  0  0  0  0  0  0  0
   -0.2933   -0.1205    0.3719 C   0  0  1  0  0  0  0  0  0  0  0  0
    0.3577   -0.5843    1.1143 H   0  0  0  0  0  0  0  0  0  0  0  0
    0.3613   -0.2794   -1.0156 C   0  0  0  0  0  0  0  0  0  0  0  0
    0.0226   -1.2243   -1.4440 H   0  0  0  0  0  0  0  0  0  0  0  0
    0.0248    0.5285   -1.6669 H   0  0  0  0  0  0  0  0  0  0  0  0
    1.8994   -0.2729   -0.9837 C   0  0  0  0  0  0  0  0  0  0  0  0
    2.2742    0.6850   -1.3444 H   0  0  0  0  0  0  0  0  0  0  0  0
    2.2368   -0.4247    0.0410 H   0  0  0  0  0  0  0  0  0  0  0  0
    2.5004   -1.3763   -1.8485 C   0  0  0  0  0  0  0  0  0  0  0  0
    1.8628   -2.2572   -2.4028 O   0  0  0  0  0  0  0  0  0  0  0  0
    3.8400   -1.3483   -1.9760 O   0  0  0  0  0  0  0  0  0  0  0  0
    4.0555   -2.1016   -2.5286 H   0  0  0  0  0  0  0  0  0  0  0  0
   -0.4860    1.3537    0.7622 C   0  0  0  0  0  0  0  0  0  0  0  0
   -1.3956    2.0096    0.2582 O   0  0  0  0  0  0  0  0  0  0  0  0
    0.3741    1.8728    1.6466 N   0  0  0  0  0  0  0  0  0  0  0  0
    1.0814    1.2667    2.0345 H   0  0  0  0  0  0  0  0  0  0  0  0
    0.3380    3.2610    2.1024 C   0  0  0  0  0  0  0  0  0  0  0  0
   -0.6389    3.4820    2.5363 H   0  0  0  0  0  0  0  0  0  0  0  0
    1.1108    3.4337    2.8528 H   0  0  0  0  0  0  0  0  0  0  0  0
    0.5009    3.9312    1.2562 H   0  0  0  0  0  0  0  0  0  0  0  0
  5  6  2  0  0  0  0
  5  7  1  0  0  0  0
  2  3  1  0  0  0  0
  2  4  1  0  0  0  0
  2  5  1  0  0  0  0
  1  2  1  0  0  0  0
 21 22  2  0  0  0  0
 21 23  1  0  0  0  0
 19 20  1  0  0  0  0
 17 18  2  0  0  0  0
 17 19  1  0  0  0  0
 14 15  1  0  0  0  0
 14 16  1  0  0  0  0
 14 17  1  0  0  0  0
 11 12  1  0  0  0  0
 11 13  1  0  0  0  0
 11 14  1  0  0  0  0
  9 10  1  0  0  0  0
  9 11  1  0  0  0  0
  9 21  1  0  0  0  0
  7  8  1  0  0  0  0
  7  9  1  0  0  0  0
 25 26  1  0  0  0  0
 25 27  1  0  0  0  0
 25 28  1  0  0  0  0
 23 24  1  0  0  0  0
 23 25  1  0  0  0  0
M  END
$$$$
default_name
  -OEChem-02102213163D

 28 27  0     1  0  0  0  0  0999 V2000
   -3.2133   -3.5565    1.2809 H   0  0  0  0  0  0  0  0  0  0  0  0
   -3.1873   -2.5755    0.8089 C   0  0  0  0  0  0  0  0  0  0  0  0
   -3.8793   -1.9065    1.3169 H   0  0  0  0  0  0  0  0  0  0  0  0
   -3.4623   -2.6685   -0.2401 H   0  0  0  0  0  0  0  0  0  0  0  0
   -1.7863   -2.0195    0.9119 C   0  0  0  0  0  0  0  0  0  0  0  0
   -0.9073   -2.6615    1.4699 O   0  0  0  0  0  0  0  0  0  0  0  0
   -1.5803   -0.8195    0.3749 N   0  0  0  0  0  0  0  0  0  0  0  0
   -2.3603   -0.3345   -0.0451 H   0  0  0  0  0  0  0  0  0  0  0  0
   -0.2933   -0.1205    0.3719 C   0  0  1  0  0  0  0  0  0  0  0  0
    0.3577   -0.5843    1.1143 H   0  0  0  0  0  0  0  0  0  0  0  0
    0.3613   -0.2794   -1.0156 C   0  0  0  0  0  0  0  0  0  0  0  0
    0.0226   -1.2243   -1.4440 H   0  0  0  0  0  0  0  0  0  0  0  0
    0.0248    0.5285   -1.6669 H   0  0  0  0  0  0  0  0  0  0  0  0
    1.8994   -0.2729   -0.9837 C   0  0  0  0  0  0  0  0  0  0  0  0
    2.2686    0.7478   -1.0844 H   0  0  0  0  0  0  0  0  0  0  0  0
    2.2394   -0.6828   -0.0333 H   0  0  0  0  0  0  0  0  0  0  0  0
    2.5045   -1.1116   -2.1048 C   0  0  0  0  0  0  0  0  0  0  0  0
    1.8706   -1.8226   -2.8679 O   0  0  0  0  0  0  0  0  0  0  0  0
    3.8438   -1.0442   -2.2212 O   0  0  0  0  0  0  0  0  0  0  0  0
    4.0623   -1.6276   -2.9500 H   0  0  0  0  0  0  0  0  0  0  0  0
   -0.4860    1.3537    0.7622 C   0  0  0  0  0  0  0  0  0  0  0  0
   -1.3956    2.0096    0.2582 O   0  0  0  0  0  0  0  0  0  0  0  0
    0.3741    1.8728    1.6466 N   0  0  0  0  0  0  0  0  0  0  0  0
    1.0814    1.2667    2.0345 H   0  0  0  0  0  0  0  0  0  0  0  0
    0.3380    3.2610    2.1024 C   0  0  0  0  0  0  0  0  0  0  0  0
   -0.6389    3.4820    2.5363 H   0  0  0  0  0  0  0  0  0  0  0  0
    1.1108    3.4337    2.8528 H   0  0  0  0  0  0  0  0  0  0  0  0
    0.5009    3.9312    1.2562 H   0  0  0  0  0  0  0  0  0  0  0  0
  5  6  2  0  0  0  0
  5  7  1  0  0  0  0
  2  3  1  0  0  0  0
  2  4  1  0  0  0  0
  2  5  1  0  0  0  0
  1  2  1  0  0  0  0
 21 22  2  0  0  0  0
 21 23  1  0  0  0  0
 19 20  1  0  0  0  0
 17 18  2  0  0  0  0
 17 19  1  0  0  0  0
 14 15  1  0  0  0  0
 14 16  1  0  0  0  0
 14 17  1  0  0  0  0
 11 12  1  0  0  0  0
 11 13  1  0  0  0  0
 11 14  1  0  0  0  0
  9 10  1  0  0  0  0
  9 11  1  0  0  0  0
  9 21  1  0  0  0  0
  7  8  1  0  0  0  0
  7  9  1  0  0  0  0
 25 26  1  0  0  0  0
 25 27  1  0  0  0  0
 25 28  1  0  0  0  0
 23 24  1  0  0  0  0
 23 25  1  0  0  0  0
M  END
$$$$
default_name
  -OEChem-02102213163D

 28 27  0     1  0  0  0  0  0999 V2000
   -3.2133   -3.5565    1.2809 H   0  0  0  0  0  0  0  0  0  0  0  0
   -3.1873   -2.5755    0.8089 C   0  0  0  0  0  0  0  0  0  0  0  0
   -3.8793   -1.9065    1.3169 H   0  0  0  0  0  0  0  0  0  0  0  0
   -3.4623   -2.6685   -0.2401 H   0  0  0  0  0  0  0  0  0  0  0  0
   -1.7863   -2.0195    0.9119 C   0  0  0  0  0  0  0  0  0  0  0  0
   -0.9073   -2.6615    1.4699 O   0  0  0  0  0  0  0  0  0  0  0  0
   -1.5803   -0.8195    0.3749 N   0  0  0  0  0  0  0  0  0  0  0  0
   -2.3603   -0.3345   -0.0451 H   0  0  0  0  0  0  0  0  0  0  0  0
   -0.2933   -0.1205    0.3719 C   0  0  1  0  0  0  0  0  0  0  0  0
    0.3577   -0.5843    1.1143 H   0  0  0  0  0  0  0  0  0  0  0  0
    0.3613   -0.2794   -1.0156 C   0  0  0  0  0  0  0  0  0  0  0  0
    0.0226   -1.2243   -1.4440 H   0  0  0  0  0  0  0  0  0  0  0  0
    0.0248    0.5285   -1.6669 H   0  0  0  0  0  0  0  0  0  0  0  0
    1.8994   -0.2729   -0.9837 C   0  0  0  0  0  0  0  0  0  0  0  0
    2.2631    0.7411   -0.8170 H   0  0  0  0  0  0  0  0  0  0  0  0
    2.2432   -0.9129   -0.1719 H   0  0  0  0  0  0  0  0  0  0  0  0
    2.5069   -0.7896   -2.2839 C   0  0  0  0  0  0  0  0  0  0  0  0
    1.8753   -1.2824   -3.2047 O   0  0  0  0  0  0  0  0  0  0  0  0
    3.8456   -0.6870   -2.3794 O   0  0  0  0  0  0  0  0  0  0  0  0
    4.0658   -1.0607   -3.2344 H   0  0  0  0  0  0  0  0  0  0  0  0
   -0.4860    1.3537    0.7622 C   0  0  0  0  0  0  0  0  0  0  0  0
   -1.3956    2.0096    0.2582 O   0  0  0  0  0  0  0  0  0  0  0  0
    0.3741    1.8728    1.6466 N   0  0  0  0  0  0  0  0  0  0  0  0
    1.0814    1.2667    2.0345 H   0  0  0  0  0  0  0  0  0  0  0  0
    0.3380    3.2610    2.1024 C   0  0  0  0  0  0  0  0  0  0  0  0
   -0.6389    3.4820    2.5363 H   0  0  0  0  0  0  0  0  0  0  0  0
    1.1108    3.4337    2.8528 H   0  0  0  0  0  0  0  0  0  0  0  0
    0.5009    3.9312    1.2562 H   0  0  0  0  0  0  0  0  0  0  0  0
  5  6  2  0  0  0  0
  5  7  1  0  0  0  0
  2  3  1  0  0  0  0
  2  4  1  0  0  0  0
  2  5  1  0  0  0  0
  1  2  1  0  0  0  0
 21 22  2  0  0  0  0
 21 23  1  0  0  0  0
 19 20  1  0  0  0  0
 17 18  2  0  0  0  0
 17 19  1  0  0  0  0
 14 15  1  0  0  0  0
 14 16  1  0  0  0  0
 14 17  1  0  0  0  0
 11 12  1  0  0  0  0
 11 13  1  0  0  0  0
 11 14  1  0  0  0  0
  9 10  1  0  0  0  0
  9 11  1  0  0  0  0
  9 21  1  0  0  0  0
  7  8  1  0  0  0  0
  7  9  1  0  0  0  0
 25 26  1  0  0  0  0
 25 27  1  0  0  0  0
 25 28  1  0  0  0  0
 23 24  1  0  0  0  0
 23 25  1  0  0  0  0
M  END
$$$$
default_name
  -OEChem-02102213163D

 28 27  0     1  0  0  0  0  0999 V2000
   -3.2133   -3.5565    1.2809 H   0  0  0  0  0  0  0  0  0  0  0  0
   -3.1873   -2.5755    0.8089 C   0  0  0  0  0  0  0  0  0  0  0  0
   -3.8793   -1.9065    1.3169 H   0  0  0  0  0  0  0  0  0  0  0  0
   -3.4623   -2.6685   -0.2401 H   0  0  0  0  0  0  0  0  0  0  0  0
   -1.7863   -2.0195    0.9119 C   0  0  0  0  0  0  0  0  0  0  0  0
   -0.9073   -2.6615    1.4699 O   0  0  0  0  0  0  0  0  0  0  0  0
   -1.5803   -0.8195    0.3749 N   0  0  0  0  0  0  0  0  0  0  0  0
   -2.3603   -0.3345   -0.0451 H   0  0  0  0  0  0  0  0  0  0  0  0
   -0.2933   -0.1205    0.3719 C   0  0  1  0  0  0  0  0  0  0  0  0
    0.3577   -0.5843    1.1143 H   0  0  0  0  0  0  0  0  0  0  0  0
    0.3613   -0.2794   -1.0156 C   0  0  0  0  0  0  0  0  0  0  0  0
   -0.1696   -1.0673   -1.5526 H   0  0  0  0  0  0  0  0  0  0  0  0
    0.2469    0.6496   -1.5760 H   0  0  0  0  0  0  0  0  0  0  0  0
    1.8567   -0.6370   -0.9621 C   0  0  0  0  0  0  0  0  0  0  0  0
    2.4056    0.1406   -0.4307 H   0  0  0  0  0  0  0  0  0  0  0  0
    1.9799   -1.5831   -0.4364 H   0  0  0  0  0  0  0  0  0  0  0  0
    2.4658   -0.7851   -2.3526 C   0  0  0  0  0  0  0  0  0  0  0  0
    1.8373   -0.7618   -3.3987 O   0  0  0  0  0  0  0  0  0  0  0  0
    3.7994   -0.9647   -2.3853 O   0  0  0  0  0  0  0  0  0  0  0  0
    4.0184   -1.0518   -3.3147 H   0  0  0  0  0  0  0  0  0  0  0  0
   -0.4860    1.3537    0.7622 C   0  0  0  0  0  0  0  0  0  0  0  0
   -1.3956    2.0096    0.2582 O   0  0  0  0  0  0  0  0  0  0  0  0
    0.3741    1.8728    1.6466 N   0  0  0  0  0  0  0  0  0  0  0  0
    1.0814    1.2667    2.0345 H   0  0  0  0  0  0  0  0  0  0  0  0
    0.3380    3.2610    2.1024 C   0  0  0  0  0  0  0  0  0  0  0  0
   -0.6389    3.4820    2.5363 H   0  0  0  0  0  0  0  0  0  0  0  0
    1.1108    3.4337    2.8528 H   0  0  0  0  0  0  0  0  0  0  0  0
    0.5009    3.9312    1.2562 H   0  0  0  0  0  0  0  0  0  0  0  0
  5  6  2  0  0  0  0
  5  7  1  0  0  0  0
  2  3  1  0  0  0  0
  2  4  1  0  0  0  0
  2  5  1  0  0  0  0
  1  2  1  0  0  0  0
 21 22  2  0  0  0  0
 21 23  1  0  0  0  0
 19 20  1  0  0  0  0
 17 18  2  0  0  0  0
 17 19  1  0  0  0  0
 14 15  1  0  0  0  0
 14 16  1  0  0  0  0
 14 17  1  0  0  0  0
 11 12  1  0  0  0  0
 11 13  1  0  0  0  0
 11 14  1  0  0  0  0
  9 10  1  0  0  0  0
  9 11  1  0  0  0  0
  9 21  1  0  0  0  0
  7  8  1  0  0  0  0
  7  9  1  0  0  0  0
 25 26  1  0  0  0  0
 25 27  1  0  0  0  0
 25 28  1  0  0  0  0
 23 24  1  0  0  0  0
 23 25  1  0  0  0  0
M  END
$$$$
default_name
  -OEChem-02102213163D

 28 27  0     1  0  0  0  0  0999 V2000
   -3.2133   -3.5565    1.2809 H   0  0  0  0  0  0  0  0  0  0  0  0
   -3.1873   -2.5755    0.8089 C   0  0  0  0  0  0  0  0  0  0  0  0
   -3.8793   -1.9065    1.3169 H   0  0  0  0  0  0  0  0  0  0  0  0
   -3.4623   -2.6685   -0.2401 H   0  0  0  0  0  0  0  0  0  0  0  0
   -1.7863   -2.0195    0.9119 C   0  0  0  0  0  0  0  0  0  0  0  0
   -0.9073   -2.6615    1.4699 O   0  0  0  0  0  0  0  0  0  0  0  0
   -1.5803   -0.8195    0.3749 N   0  0  0  0  0  0  0  0  0  0  0  0
   -2.3603   -0.3345   -0.0451 H   0  0  0  0  0  0  0  0  0  0  0  0
   -0.2933   -0.1205    0.3719 C   0  0  1  0  0  0  0  0  0  0  0  0
    0.3577   -0.5843    1.1143 H   0  0  0  0  0  0  0  0  0  0  0  0
    0.3613   -0.2794   -1.0156 C   0  0  0  0  0  0  0  0  0  0  0  0
   -0.1696   -1.0673   -1.5526 H   0  0  0  0  0  0  0  0  0  0  0  0
    0.2469    0.6496   -1.5760 H   0  0  0  0  0  0  0  0  0  0  0  0
    1.8567   -0.6370   -0.9621 C   0  0  0  0  0  0  0  0  0  0  0  0
    2.3602   -0.0176   -0.2197 H   0  0  0  0  0  0  0  0  0  0  0  0
    1.9644   -1.6848   -0.6845 H   0  0  0  0  0  0  0  0  0  0  0  0
    2.5492   -0.4293   -2.3052 C   0  0  0  0  0  0  0  0  0  0  0  0
    1.9832   -0.1442   -3.3483 O   0  0  0  0  0  0  0  0  0  0  0  0
    3.8851   -0.5932   -2.3002 O   0  0  0  0  0  0  0  0  0  0  0  0
    4.1601   -0.4432   -3.2064 H   0  0  0  0  0  0  0  0  0  0  0  0
   -0.4860    1.3537    0.7622 C   0  0  0  0  0  0  0  0  0  0  0  0
   -1.3956    2.0096    0.2582 O   0  0  0  0  0  0  0  0  0  0  0  0
    0.3741    1.8728    1.6466 N   0  0  0  0  0  0  0  0  0  0  0  0
    1.0814    1.2667    2.0345 H   0  0  0  0  0  0  0  0  0  0  0  0
    0.3380    3.2610    2.1024 C   0  0  0  0  0  0  0  0  0  0  0  0
   -0.6389    3.4820    2.5363 H   0  0  0  0  0  0  0  0  0  0  0  0
    1.1108    3.4337    2.8528 H   0  0  0  0  0  0  0  0  0  0  0  0
    0.5009    3.9312    1.2562 H   0  0  0  0  0  0  0  0  0  0  0  0
  5  6  2  0  0  0  0
  5  7  1  0  0  0  0
  2  3  1  0  0  0  0
  2  4  1  0  0  0  0
  2  5  1  0  0  0  0
  1  2  1  0  0  0  0
 21 22  2  0  0  0  0
 21 23  1  0  0  0  0
 19 20  1  0  0  0  0
 17 18  2  0  0  0  0
 17 19  1  0  0  0  0
 14 15  1  0  0  0  0
 14 16  1  0  0  0  0
 14 17  1  0  0  0  0
 11 12  1  0  0  0  0
 11 13  1  0  0  0  0
 11 14  1  0  0  0  0
  9 10  1  0  0  0  0
  9 11  1  0  0  0  0
  9 21  1  0  0  0  0
  7  8  1  0  0  0  0
  7  9  1  0  0  0  0
 25 26  1  0  0  0  0
 25 27  1  0  0  0  0
 25 28  1  0  0  0  0
 23 24  1  0  0  0  0
 23 25  1  0  0  0  0
M  END
$$$$
default_name
  -OEChem-02102213163D

 28 27  0     1  0  0  0  0  0999 V2000
   -3.2133   -3.5565    1.2809 H   0  0  0  0  0  0  0  0  0  0  0  0
   -3.1873   -2.5755    0.8089 C   0  0  0  0  0  0  0  0  0  0  0  0
   -3.8793   -1.9065    1.3169 H   0  0  0  0  0  0  0  0  0  0  0  0
   -3.4623   -2.6685   -0.2401 H   0  0  0  0  0  0  0  0  0  0  0  0
   -1.7863   -2.0195    0.9119 C   0  0  0  0  0  0  0  0  0  0  0  0
   -0.9073   -2.6615    1.4699 O   0  0  0  0  0  0  0  0  0  0  0  0
   -1.5803   -0.8195    0.3749 N   0  0  0  0  0  0  0  0  0  0  0  0
   -2.3603   -0.3345   -0.0451 H   0  0  0  0  0  0  0  0  0  0  0  0
   -0.2933   -0.1205    0.3719 C   0  0  1  0  0  0  0  0  0  0  0  0
    0.3577   -0.5843    1.1143 H   0  0  0  0  0  0  0  0  0  0  0  0
    0.3613   -0.2794   -1.0156 C   0  0  0  0  0  0  0  0  0  0  0  0
   -0.1696   -1.0673   -1.5526 H   0  0  0  0  0  0  0  0  0  0  0  0
    0.2469    0.6496   -1.5760 H   0  0  0  0  0  0  0  0  0  0  0  0
    1.8567   -0.6370   -0.9621 C   0  0  0  0  0  0  0  0  0  0  0  0
    2.3051   -0.2239   -0.0585 H   0  0  0  0  0  0  0  0  0  0  0  0
    1.9653   -1.7208   -0.9507 H   0  0  0  0  0  0  0  0  0  0  0  0
    2.6237   -0.0969   -2.1648 C   0  0  0  0  0  0  0  0  0  0  0  0
    2.1155    0.4410   -3.1355 O   0  0  0  0  0  0  0  0  0  0  0  0
    3.9595   -0.2550   -2.1193 O   0  0  0  0  0  0  0  0  0  0  0  0
    4.2849    0.1188   -2.9401 H   0  0  0  0  0  0  0  0  0  0  0  0
   -0.4860    1.3537    0.7622 C   0  0  0  0  0  0  0  0  0  0  0  0
   -1.3956    2.0096    0.2582 O   0  0  0  0  0  0  0  0  0  0  0  0
    0.3741    1.8728    1.6466 N   0  0  0  0  0  0  0  0  0  0  0  0
    1.0814    1.2667    2.0345 H   0  0  0  0  0  0  0  0  0  0  0  0
    0.3380    3.2610    2.1024 C   0  0  0  0  0  0  0  0  0  0  0  0
   -0.6389    3.4820    2.5363 H   0  0  0  0  0  0  0  0  0  0  0  0
    1.1108    3.4337    2.8528 H   0  0  0  0  0  0  0  0  0  0  0  0
    0.5009    3.9312    1.2562 H   0  0  0  0  0  0  0  0  0  0  0  0
  5  6  2  0  0  0  0
  5  7  1  0  0  0  0
  2  3  1  0  0  0  0
  2  4  1  0  0  0  0
  2  5  1  0  0  0  0
  1  2  1  0  0  0  0
 21 22  2  0  0  0  0
 21 23  1  0  0  0  0
 19 20  1  0  0  0  0
 17 18  2  0  0  0  0
 17 19  1  0  0  0  0
 14 15  1  0  0  0  0
 14 16  1  0  0  0  0
 14 17  1  0  0  0  0
 11 12  1  0  0  0  0
 11 13  1  0  0  0  0
 11 14  1  0  0  0  0
  9 10  1  0  0  0  0
  9 11  1  0  0  0  0
  9 21  1  0  0  0  0
  7  8  1  0  0  0  0
  7  9  1  0  0  0  0
 25 26  1  0  0  0  0
 25 27  1  0  0  0  0
 25 28  1  0  0  0  0
 23 24  1  0  0  0  0
 23 25  1  0  0  0  0
M  END
$$$$
default_name
  -OEChem-02102213163D

 28 27  0     1  0  0  0  0  0999 V2000
   -3.2133   -3.5565    1.2809 H   0  0  0  0  0  0  0  0  0  0  0  0
   -3.1873   -2.5755    0.8089 C   0  0  0  0  0  0  0  0  0  0  0  0
   -3.8793   -1.9065    1.3169 H   0  0  0  0  0  0  0  0  0  0  0  0
   -3.4623   -2.6685   -0.2401 H   0  0  0  0  0  0  0  0  0  0  0  0
   -1.7863   -2.0195    0.9119 C   0  0  0  0  0  0  0  0  0  0  0  0
   -0.9073   -2.6615    1.4699 O   0  0  0  0  0  0  0  0  0  0  0  0
   -1.5803   -0.8195    0.3749 N   0  0  0  0  0  0  0  0  0  0  0  0
   -2.3603   -0.3345   -0.0451 H   0  0  0  0  0  0  0  0  0  0  0  0
   -0.2933   -0.1205    0.3719 C   0  0  1  0  0  0  0  0  0  0  0  0
    0.3577   -0.5843    1.1143 H   0  0  0  0  0  0  0  0  0  0  0  0
    0.3613   -0.2794   -1.0156 C   0  0  0  0  0  0  0  0  0  0  0  0
   -0.1696   -1.0673   -1.5526 H   0  0  0  0  0  0  0  0  0  0  0  0
    0.2469    0.6496   -1.5760 H   0  0  0  0  0  0  0  0  0  0  0  0
    1.8567   -0.6370   -0.9621 C   0  0  0  0  0  0  0  0  0  0  0  0
    2.2441   -0.4642    0.0420 H   0  0  0  0  0  0  0  0  0  0  0  0
    1.9825   -1.6887   -1.2168 H   0  0  0  0  0  0  0  0  0  0  0  0
    2.6842    0.1896   -1.9412 C   0  0  0  0  0  0  0  0  0  0  0  0
    2.2252    0.9540   -2.7748 O   0  0  0  0  0  0  0  0  0  0  0  0
    4.0175    0.0268   -1.8550 O   0  0  0  0  0  0  0  0  0  0  0  0
    4.3844    0.5957   -2.5340 H   0  0  0  0  0  0  0  0  0  0  0  0
   -0.4860    1.3537    0.7622 C   0  0  0  0  0  0  0  0  0  0  0  0
   -1.3956    2.0096    0.2582 O   0  0  0  0  0  0  0  0  0  0  0  0
    0.3741    1.8728    1.6466 N   0  0  0  0  0  0  0  0  0  0  0  0
    1.0814    1.2667    2.0345 H   0  0  0  0  0  0  0  0  0  0  0  0
    0.3380    3.2610    2.1024 C   0  0  0  0  0  0  0  0  0  0  0  0
   -0.6389    3.4820    2.5363 H   0  0  0  0  0  0  0  0  0  0  0  0
    1.1108    3.4337    2.8528 H   0  0  0  0  0  0  0  0  0  0  0  0
    0.5009    3.9312    1.2562 H   0  0  0  0  0  0  0  0  0  0  0  0
  5  6  2  0  0  0  0
  5  7  1  0  0  0  0
  2  3  1  0  0  0  0
  2  4  1  0  0  0  0
  2  5  1  0  0  0  0
  1  2  1  0  0  0  0
 21 22  2  0  0  0  0
 21 23  1  0  0  0  0
 19 20  1  0  0  0  0
 17 18  2  0  0  0  0
 17 19  1  0  0  0  0
 14 15  1  0  0  0  0
 14 16  1  0  0  0  0
 14 17  1  0  0  0  0
 11 12  1  0  0  0  0
 11 13  1  0  0  0  0
 11 14  1  0  0  0  0
  9 10  1  0  0  0  0
  9 11  1  0  0  0  0
  9 21  1  0  0  0  0
  7  8  1  0  0  0  0
  7  9  1  0  0  0  0
 25 26  1  0  0  0  0
 25 27  1  0  0  0  0
 25 28  1  0  0  0  0
 23 24  1  0  0  0  0
 23 25  1  0  0  0  0
M  END
$$$$
default_name
  -OEChem-02102213163D

 28 27  0     1  0  0  0  0  0999 V2000
   -3.2133   -3.5565    1.2809 H   0  0  0  0  0  0  0  0  0  0  0  0
   -3.1873   -2.5755    0.8089 C   0  0  0  0  0  0  0  0  0  0  0  0
   -3.8793   -1.9065    1.3169 H   0  0  0  0  0  0  0  0  0  0  0  0
   -3.4623   -2.6685   -0.2401 H   0  0  0  0  0  0  0  0  0  0  0  0
   -1.7863   -2.0195    0.9119 C   0  0  0  0  0  0  0  0  0  0  0  0
   -0.9073   -2.6615    1.4699 O   0  0  0  0  0  0  0  0  0  0  0  0
   -1.5803   -0.8195    0.3749 N   0  0  0  0  0  0  0  0  0  0  0  0
   -2.3603   -0.3345   -0.0451 H   0  0  0  0  0  0  0  0  0  0  0  0
   -0.2933   -0.1205    0.3719 C   0  0  1  0  0  0  0  0  0  0  0  0
    0.3577   -0.5843    1.1143 H   0  0  0  0  0  0  0  0  0  0  0  0
    0.3613   -0.2794   -1.0156 C   0  0  0  0  0  0  0  0  0  0  0  0
   -0.1696   -1.0673   -1.5526 H   0  0  0  0  0  0  0  0  0  0  0  0
    0.2469    0.6496   -1.5760 H   0  0  0  0  0  0  0  0  0  0  0  0
    1.8567   -0.6370   -0.9621 C   0  0  0  0  0  0  0  0  0  0  0  0
    2.1812   -0.7222    0.0750 H   0  0  0  0  0  0  0  0  0  0  0  0
    2.0149   -1.5905   -1.4647 H   0  0  0  0  0  0  0  0  0  0  0  0
    2.7266    0.4106   -1.6494 C   0  0  0  0  0  0  0  0  0  0  0  0
    2.3049    1.3597   -2.2907 O   0  0  0  0  0  0  0  0  0  0  0  0
    4.0550    0.2331   -1.5254 O   0  0  0  0  0  0  0  0  0  0  0  0
    4.4518    0.9551   -2.0158 H   0  0  0  0  0  0  0  0  0  0  0  0
   -0.4860    1.3537    0.7622 C   0  0  0  0  0  0  0  0  0  0  0  0
   -1.3956    2.0096    0.2582 O   0  0  0  0  0  0  0  0  0  0  0  0
    0.3741    1.8728    1.6466 N   0  0  0  0  0  0  0  0  0  0  0  0
    1.0814    1.2667    2.0345 H   0  0  0  0  0  0  0  0  0  0  0  0
    0.3380    3.2610    2.1024 C   0  0  0  0  0  0  0  0  0  0  0  0
   -0.6389    3.4820    2.5363 H   0  0  0  0  0  0  0  0  0  0  0  0
    1.1108    3.4337    2.8528 H   0  0  0  0  0  0  0  0  0  0  0  0
    0.5009    3.9312    1.2562 H   0  0  0  0  0  0  0  0  0  0  0  0
  5  6  2  0  0  0  0
  5  7  1  0  0  0  0
  2  3  1  0  0  0  0
  2  4  1  0  0  0  0
  2  5  1  0  0  0  0
  1  2  1  0  0  0  0
 21 22  2  0  0  0  0
 21 23  1  0  0  0  0
 19 20  1  0  0  0  0
 17 18  2  0  0  0  0
 17 19  1  0  0  0  0
 14 15  1  0  0  0  0
 14 16  1  0  0  0  0
 14 17  1  0  0  0  0
 11 12  1  0  0  0  0
 11 13  1  0  0  0  0
 11 14  1  0  0  0  0
  9 10  1  0  0  0  0
  9 11  1  0  0  0  0
  9 21  1  0  0  0  0
  7  8  1  0  0  0  0
  7  9  1  0  0  0  0
 25 26  1  0  0  0  0
 25 27  1  0  0  0  0
 25 28  1  0  0  0  0
 23 24  1  0  0  0  0
 23 25  1  0  0  0  0
M  END
$$$$
default_name
  -OEChem-02102213163D

 28 27  0     1  0  0  0  0  0999 V2000
   -3.2133   -3.5565    1.2809 H   0  0  0  0  0  0  0  0  0  0  0  0
   -3.1873   -2.5755    0.8089 C   0  0  0  0  0  0  0  0  0  0  0  0
   -3.8793   -1.9065    1.3169 H   0  0  0  0  0  0  0  0  0  0  0  0
   -3.4623   -2.6685   -0.2401 H   0  0  0  0  0  0  0  0  0  0  0  0
   -1.7863   -2.0195    0.9119 C   0  0  0  0  0  0  0  0  0  0  0  0
   -0.9073   -2.6615    1.4699 O   0  0  0  0  0  0  0  0  0  0  0  0
   -1.5803   -0.8195    0.3749 N   0  0  0  0  0  0  0  0  0  0  0  0
   -2.3603   -0.3345   -0.0451 H   0  0  0  0  0  0  0  0  0  0  0  0
   -0.2933   -0.1205    0.3719 C   0  0  1  0  0  0  0  0  0  0  0  0
    0.3577   -0.5843    1.1143 H   0  0  0  0  0  0  0  0  0  0  0  0
    0.3613   -0.2794   -1.0156 C   0  0  0  0  0  0  0  0  0  0  0  0
   -0.1696   -1.0673   -1.5526 H   0  0  0  0  0  0  0  0  0  0  0  0
    0.2469    0.6496   -1.5760 H   0  0  0  0  0  0  0  0  0  0  0  0
    1.8567   -0.6370   -0.9621 C   0  0  0  0  0  0  0  0  0  0  0  0
    2.1209   -0.9802    0.0382 H   0  0  0  0  0  0  0  0  0  0  0  0
    2.0601   -1.4329   -1.6775 H   0  0  0  0  0  0  0  0  0  0  0  0
    2.7480    0.5511   -1.3094 C   0  0  0  0  0  0  0  0  0  0  0  0
    2.3492    1.6305   -1.7163 O   0  0  0  0  0  0  0  0  0  0  0  0
    4.0696    0.3498   -1.1528 O   0  0  0  0  0  0  0  0  0  0  0  0
    4.4825    1.1725   -1.4208 H   0  0  0  0  0  0  0  0  0  0  0  0
   -0.4860    1.3537    0.7622 C   0  0  0  0  0  0  0  0  0  0  0  0
   -1.3956    2.0096    0.2582 O   0  0  0  0  0  0  0  0  0  0  0  0
    0.3741    1.8728    1.6466 N   0  0  0  0  0  0  0  0  0  0  0  0
    1.0814    1.2667    2.0345 H   0  0  0  0  0  0  0  0  0  0  0  0
    0.3380    3.2610    2.1024 C   0  0  0  0  0  0  0  0  0  0  0  0
   -0.6389    3.4820    2.5363 H   0  0  0  0  0  0  0  0  0  0  0  0
    1.1108    3.4337    2.8528 H   0  0  0  0  0  0  0  0  0  0  0  0
    0.5009    3.9312    1.2562 H   0  0  0  0  0  0  0  0  0  0  0  0
  5  6  2  0  0  0  0
  5  7  1  0  0  0  0
  2  3  1  0  0  0  0
  2  4  1  0  0  0  0
  2  5  1  0  0  0  0
  1  2  1  0  0  0  0
 21 22  2  0  0  0  0
 21 23  1  0  0  0  0
 19 20  1  0  0  0  0
 17 18  2  0  0  0  0
 17 19  1  0  0  0  0
 14 15  1  0  0  0  0
 14 16  1  0  0  0  0
 14 17  1  0  0  0  0
 11 12  1  0  0  0  0
 11 13  1  0  0  0  0
 11 14  1  0  0  0  0
  9 10  1  0  0  0  0
  9 11  1  0  0  0  0
  9 21  1  0  0  0  0
  7  8  1  0  0  0  0
  7  9  1  0  0  0  0
 25 26  1  0  0  0  0
 25 27  1  0  0  0  0
 25 28  1  0  0  0  0
 23 24  1  0  0  0  0
 23 25  1  0  0  0  0
M  END
$$$$
default_name
  -OEChem-02102213163D

 28 27  0     1  0  0  0  0  0999 V2000
   -3.2133   -3.5565    1.2809 H   0  0  0  0  0  0  0  0  0  0  0  0
   -3.1873   -2.5755    0.8089 C   0  0  0  0  0  0  0  0  0  0  0  0
   -3.8793   -1.9065    1.3169 H   0  0  0  0  0  0  0  0  0  0  0  0
   -3.4623   -2.6685   -0.2401 H   0  0  0  0  0  0  0  0  0  0  0  0
   -1.7863   -2.0195    0.9119 C   0  0  0  0  0  0  0  0  0  0  0  0
   -0.9073   -2.6615    1.4699 O   0  0  0  0  0  0  0  0  0  0  0  0
   -1.5803   -0.8195    0.3749 N   0  0  0  0  0  0  0  0  0  0  0  0
   -2.3603   -0.3345   -0.0451 H   0  0  0  0  0  0  0  0  0  0  0  0
   -0.2933   -0.1205    0.3719 C   0  0  1  0  0  0  0  0  0  0  0  0
    0.3577   -0.5843    1.1143 H   0  0  0  0  0  0  0  0  0  0  0  0
    0.3613   -0.2794   -1.0156 C   0  0  0  0  0  0  0  0  0  0  0  0
   -0.1696   -1.0673   -1.5526 H   0  0  0  0  0  0  0  0  0  0  0  0
    0.2469    0.6496   -1.5760 H   0  0  0  0  0  0  0  0  0  0  0  0
    1.8567   -0.6370   -0.9621 C   0  0  0  0  0  0  0  0  0  0  0  0
    2.0671   -1.2207   -0.0659 H   0  0  0  0  0  0  0  0  0  0  0  0
    2.1152   -1.2269   -1.8407 H   0  0  0  0  0  0  0  0  0  0  0  0
    2.7470    0.6014   -0.9444 C   0  0  0  0  0  0  0  0  0  0  0  0
    2.3549    1.7480   -1.0906 O   0  0  0  0  0  0  0  0  0  0  0  0
    4.0602    0.3688   -0.7627 O   0  0  0  0  0  0  0  0  0  0  0  0
    4.4745    1.2331   -0.7895 H   0  0  0  0  0  0  0  0  0  0  0  0
   -0.4860    1.3537    0.7622 C   0  0  0  0  0  0  0  0  0  0  0  0
   -1.3956    2.0096    0.2582 O   0  0  0  0  0  0  0  0  0  0  0  0
    0.3741    1.8728    1.6466 N   0  0  0  0  0  0  0  0  0  0  0  0
    1.0814    1.2667    2.0345 H   0  0  0  0  0  0  0  0  0  0  0  0
    0.3380    3.2610    2.1024 C   0  0  0  0  0  0  0  0  0  0  0  0
   -0.6389    3.4820    2.5363 H   0  0  0  0  0  0  0  0  0  0  0  0
    1.1108    3.4337    2.8528 H   0  0  0  0  0  0  0  0  0  0  0  0
    0.5009    3.9312    1.2562 H   0  0  0  0  0  0  0  0  0  0  0  0
  5  6  2  0  0  0  0
  5  7  1  0  0  0  0
  2  3  1  0  0  0  0
  2  4  1  0  0  0  0
  2  5  1  0  0  0  0
  1  2  1  0  0  0  0
 21 22  2  0  0  0  0
 21 23  1  0  0  0  0
 19 20  1  0  0  0  0
 17 18  2  0  0  0  0
 17 19  1  0  0  0  0
 14 15  1  0  0  0  0
 14 16  1  0  0  0  0
 14 17  1  0  0  0  0
 11 12  1  0  0  0  0
 11 13  1  0  0  0  0
 11 14  1  0  0  0  0
  9 10  1  0  0  0  0
  9 11  1  0  0  0  0
  9 21  1  0  0  0  0
  7  8  1  0  0  0  0
  7  9  1  0  0  0  0
 25 26  1  0  0  0  0
 25 27  1  0  0  0  0
 25 28  1  0  0  0  0
 23 24  1  0  0  0  0
 23 25  1  0  0  0  0
M  END
$$$$
default_name
  -OEChem-02102213163D

 28 27  0     1  0  0  0  0  0999 V2000
   -3.2133   -3.5565    1.2809 H   0  0  0  0  0  0  0  0  0  0  0  0
   -3.1873   -2.5755    0.8089 C   0  0  0  0  0  0  0  0  0  0  0  0
   -3.8793   -1.9065    1.3169 H   0  0  0  0  0  0  0  0  0  0  0  0
   -3.4623   -2.6685   -0.2401 H   0  0  0  0  0  0  0  0  0  0  0  0
   -1.7863   -2.0195    0.9119 C   0  0  0  0  0  0  0  0  0  0  0  0
   -0.9073   -2.6615    1.4699 O   0  0  0  0  0  0  0  0  0  0  0  0
   -1.5803   -0.8195    0.3749 N   0  0  0  0  0  0  0  0  0  0  0  0
   -2.3603   -0.3345   -0.0451 H   0  0  0  0  0  0  0  0  0  0  0  0
   -0.2933   -0.1205    0.3719 C   0  0  1  0  0  0  0  0  0  0  0  0
    0.3577   -0.5843    1.1143 H   0  0  0  0  0  0  0  0  0  0  0  0
    0.3613   -0.2794   -1.0156 C   0  0  0  0  0  0  0  0  0  0  0  0
   -0.1696   -1.0673   -1.5526 H   0  0  0  0  0  0  0  0  0  0  0  0
    0.2469    0.6496   -1.5760 H   0  0  0  0  0  0  0  0  0  0  0  0
    1.8567   -0.6370   -0.9621 C   0  0  0  0  0  0  0  0  0  0  0  0
    2.0235   -1.4274   -0.2302 H   0  0  0  0  0  0  0  0  0  0  0  0
    2.1764   -0.9862   -1.9432 H   0  0  0  0  0  0  0  0  0  0  0  0
    2.7236    0.5582   -0.5793 C   0  0  0  0  0  0  0  0  0  0  0  0
    2.3217    1.7041   -0.4563 O   0  0  0  0  0  0  0  0  0  0  0  0
    4.0275    0.2891   -0.3817 O   0  0  0  0  0  0  0  0  0  0  0  0
    4.4282    1.1327   -0.1650 H   0  0  0  0  0  0  0  0  0  0  0  0
   -0.4860    1.3537    0.7622 C   0  0  0  0  0  0  0  0  0  0  0  0
   -1.3956    2.0096    0.2582 O   0  0  0  0  0  0  0  0  0  0  0  0
    0.3741    1.8728    1.6466 N   0  0  0  0  0  0  0  0  0  0  0  0
    1.0814    1.2667    2.0345 H   0  0  0  0  0  0  0  0  0  0  0  0
    0.3380    3.2610    2.1024 C   0  0  0  0  0  0  0  0  0  0  0  0
   -0.6389    3.4820    2.5363 H   0  0  0  0  0  0  0  0  0  0  0  0
    1.1108    3.4337    2.8528 H   0  0  0  0  0  0  0  0  0  0  0  0
    0.5009    3.9312    1.2562 H   0  0  0  0  0  0  0  0  0  0  0  0
  5  6  2  0  0  0  0
  5  7  1  0  0  0  0
  2  3  1  0  0  0  0
  2  4  1  0  0  0  0
  2  5  1  0  0  0  0
  1  2  1  0  0  0  0
 21 22  2  0  0  0  0
 21 23  1  0  0  0  0
 19 20  1  0  0  0  0
 17 18  2  0  0  0  0
 17 19  1  0  0  0  0
 14 15  1  0  0  0  0
 14 16  1  0  0  0  0
 14 17  1  0  0  0  0
 11 12  1  0  0  0  0
 11 13  1  0  0  0  0
 11 14  1  0  0  0  0
  9 10  1  0  0  0  0
  9 11  1  0  0  0  0
  9 21  1  0  0  0  0
  7  8  1  0  0  0  0
  7  9  1  0  0  0  0
 25 26  1  0  0  0  0
 25 27  1  0  0  0  0
 25 28  1  0  0  0  0
 23 24  1  0  0  0  0
 23 25  1  0  0  0  0
M  END
$$$$
default_name
  -OEChem-02102213163D

 28 27  0     1  0  0  0  0  0999 V2000
   -3.2133   -3.5565    1.2809 H   0  0  0  0  0  0  0  0  0  0  0  0
   -3.1873   -2.5755    0.8089 C   0  0  0  0  0  0  0  0  0  0  0  0
   -3.8793   -1.9065    1.3169 H   0  0  0  0  0  0  0  0  0  0  0  0
   -3.4623   -2.6685   -0.2401 H   0  0  0  0  0  0  0  0  0  0  0  0
   -1.7863   -2.0195    0.9119 C   0  0  0  0  0  0  0  0  0  0  0  0
   -0.9073   -2.6615    1.4699 O   0  0  0  0  0  0  0  0  0  0  0  0
   -1.5803   -0.8195    0.3749 N   0  0  0  0  0  0  0  0  0  0  0  0
   -2.3603   -0.3345   -0.0451 H   0  0  0  0  0  0  0  0  0  0  0  0
   -0.2933   -0.1205    0.3719 C   0  0  1  0  0  0  0  0  0  0  0  0
    0.3577   -0.5843    1.1143 H   0  0  0  0  0  0  0  0  0  0  0  0
    0.3613   -0.2794   -1.0156 C   0  0  0  0  0  0  0  0  0  0  0  0
   -0.1696   -1.0673   -1.5526 H   0  0  0  0  0  0  0  0  0  0  0  0
    0.2469    0.6496   -1.5760 H   0  0  0  0  0  0  0  0  0  0  0  0
    1.8567   -0.6370   -0.9621 C   0  0  0  0  0  0  0  0  0  0  0  0
    1.9932   -1.5860   -0.4435 H   0  0  0  0  0  0  0  0  0  0  0  0
    2.2395   -0.7275   -1.9780 H   0  0  0  0  0  0  0  0  0  0  0  0
    2.6795    0.4244   -0.2388 C   0  0  0  0  0  0  0  0  0  0  0  0
    2.2520    1.5019    0.1433 O   0  0  0  0  0  0  0  0  0  0  0  0
    3.9737    0.1158   -0.0357 O   0  0  0  0  0  0  0  0  0  0  0  0
    4.3468    0.8783    0.4102 H   0  0  0  0  0  0  0  0  0  0  0  0
   -0.4860    1.3537    0.7622 C   0  0  0  0  0  0  0  0  0  0  0  0
   -1.3956    2.0096    0.2582 O   0  0  0  0  0  0  0  0  0  0  0  0
    0.3741    1.8728    1.6466 N   0  0  0  0  0  0  0  0  0  0  0  0
    1.0814    1.2667    2.0345 H   0  0  0  0  0  0  0  0  0  0  0  0
    0.3380    3.2610    2.1024 C   0  0  0  0  0  0  0  0  0  0  0  0
   -0.6389    3.4820    2.5363 H   0  0  0  0  0  0  0  0  0  0  0  0
    1.1108    3.4337    2.8528 H   0  0  0  0  0  0  0  0  0  0  0  0
    0.5009    3.9312    1.2562 H   0  0  0  0  0  0  0  0  0  0  0  0
  5  6  2  0  0  0  0
  5  7  1  0  0  0  0
  2  3  1  0  0  0  0
  2  4  1  0  0  0  0
  2  5  1  0  0  0  0
  1  2  1  0  0  0  0
 21 22  2  0  0  0  0
 21 23  1  0  0  0  0
 19 20  1  0  0  0  0
 17 18  2  0  0  0  0
 17 19  1  0  0  0  0
 14 15  1  0  0  0  0
 14 16  1  0  0  0  0
 14 17  1  0  0  0  0
 11 12  1  0  0  0  0
 11 13  1  0  0  0  0
 11 14  1  0  0  0  0
  9 10  1  0  0  0  0
  9 11  1  0  0  0  0
  9 21  1  0  0  0  0
  7  8  1  0  0  0  0
  7  9  1  0  0  0  0
 25 26  1  0  0  0  0
 25 27  1  0  0  0  0
 25 28  1  0  0  0  0
 23 24  1  0  0  0  0
 23 25  1  0  0  0  0
M  END
$$$$
default_name
  -OEChem-02102213163D

 28 27  0     1  0  0  0  0  0999 V2000
   -3.2133   -3.5565    1.2809 H   0  0  0  0  0  0  0  0  0  0  0  0
   -3.1873   -2.5755    0.8089 C   0  0  0  0  0  0  0  0  0  0  0  0
   -3.8793   -1.9065    1.3169 H   0  0  0  0  0  0  0  0  0  0  0  0
   -3.4623   -2.6685   -0.2401 H   0  0  0  0  0  0  0  0  0  0  0  0
   -1.7863   -2.0195    0.9119 C   0  0  0  0  0  0  0  0  0  0  0  0
   -0.9073   -2.6615    1.4699 O   0  0  0  0  0  0  0  0  0  0  0  0
   -1.5803   -0.8195    0.3749 N   0  0  0  0  0  0  0  0  0  0  0  0
   -2.3603   -0.3345   -0.0451 H   0  0  0  0  0  0  0  0  0  0  0  0
   -0.2933   -0.1205    0.3719 C   0  0  1  0  0  0  0  0  0  0  0  0
    0.3577   -0.5843    1.1143 H   0  0  0  0  0  0  0  0  0  0  0  0
    0.3613   -0.2794   -1.0156 C   0  0  0  0  0  0  0  0  0  0  0  0
   -0.1696   -1.0673   -1.5526 H   0  0  0  0  0  0  0  0  0  0  0  0
    0.2469    0.6496   -1.5760 H   0  0  0  0  0  0  0  0  0  0  0  0
    1.8567   -0.6370   -0.9621 C   0  0  0  0  0  0  0  0  0  0  0  0
    1.9782   -1.6858   -0.6913 H   0  0  0  0  0  0  0  0  0  0  0  0
    2.3002   -0.4682   -1.9427 H   0  0  0  0  0  0  0  0  0  0  0  0
    2.6175    0.2090    0.0537 C   0  0  0  0  0  0  0  0  0  0  0  0
    2.1503    1.1551    0.6674 O   0  0  0  0  0  0  0  0  0  0  0  0
    3.9025   -0.1390    0.2518 O   0  0  0  0  0  0  0  0  0  0  0  0
    4.2358    0.4870    0.8969 H   0  0  0  0  0  0  0  0  0  0  0  0
   -0.4860    1.3537    0.7622 C   0  0  0  0  0  0  0  0  0  0  0  0
   -1.3956    2.0096    0.2582 O   0  0  0  0  0  0  0  0  0  0  0  0
    0.3741    1.8728    1.6466 N   0  0  0  0  0  0  0  0  0  0  0  0
    1.0814    1.2667    2.0345 H   0  0  0  0  0  0  0  0  0  0  0  0
    0.3380    3.2610    2.1024 C   0  0  0  0  0  0  0  0  0  0  0  0
   -0.6389    3.4820    2.5363 H   0  0  0  0  0  0  0  0  0  0  0  0
    1.1108    3.4337    2.8528 H   0  0  0  0  0  0  0  0  0  0  0  0
    0.5009    3.9312    1.2562 H   0  0  0  0  0  0  0  0  0  0  0  0
  5  6  2  0  0  0  0
  5  7  1  0  0  0  0
  2  3  1  0  0  0  0
  2  4  1  0  0  0  0
  2  5  1  0  0  0  0
  1  2  1  0  0  0  0
 21 22  2  0  0  0  0
 21 23  1  0  0  0  0
 19 20  1  0  0  0  0
 17 18  2  0  0  0  0
 17 19  1  0  0  0  0
 14 15  1  0  0  0  0
 14 16  1  0  0  0  0
 14 17  1  0  0  0  0
 11 12  1  0  0  0  0
 11 13  1  0  0  0  0
 11 14  1  0  0  0  0
  9 10  1  0  0  0  0
  9 11  1  0  0  0  0
  9 21  1  0  0  0  0
  7  8  1  0  0  0  0
  7  9  1  0  0  0  0
 25 26  1  0  0  0  0
 25 27  1  0  0  0  0
 25 28  1  0  0  0  0
 23 24  1  0  0  0  0
 23 25  1  0  0  0  0
M  END
$$$$
default_name
  -OEChem-02102213163D

 28 27  0     1  0  0  0  0  0999 V2000
   -3.2133   -3.5565    1.2809 H   0  0  0  0  0  0  0  0  0  0  0  0
   -3.1873   -2.5755    0.8089 C   0  0  0  0  0  0  0  0  0  0  0  0
   -3.8793   -1.9065    1.3169 H   0  0  0  0  0  0  0  0  0  0  0  0
   -3.4623   -2.6685   -0.2401 H   0  0  0  0  0  0  0  0  0  0  0  0
   -1.7863   -2.0195    0.9119 C   0  0  0  0  0  0  0  0  0  0  0  0
   -0.9073   -2.6615    1.4699 O   0  0  0  0  0  0  0  0  0  0  0  0
   -1.5803   -0.8195    0.3749 N   0  0  0  0  0  0  0  0  0  0  0  0
   -2.3603   -0.3345   -0.0451 H   0  0  0  0  0  0  0  0  0  0  0  0
   -0.2933   -0.1205    0.3719 C   0  0  1  0  0  0  0  0  0  0  0  0
    0.3577   -0.5843    1.1143 H   0  0  0  0  0  0  0  0  0  0  0  0
    0.3613   -0.2794   -1.0156 C   0  0  0  0  0  0  0  0  0  0  0  0
   -0.1696   -1.0673   -1.5526 H   0  0  0  0  0  0  0  0  0  0  0  0
    0.2469    0.6496   -1.5760 H   0  0  0  0  0  0  0  0  0  0  0  0
    1.8567   -0.6370   -0.9621 C   0  0  0  0  0  0  0  0  0  0  0  0
    1.9795   -1.7201   -0.9566 H   0  0  0  0  0  0  0  0  0  0  0  0
    2.3544   -0.2261   -1.8397 H   0  0  0  0  0  0  0  0  0  0  0  0
    2.5420   -0.0731    0.2784 C   0  0  0  0  0  0  0  0  0  0  0  0
    2.0237    0.6873    1.0802 O   0  0  0  0  0  0  0  0  0  0  0  0
    3.8188   -0.4581    0.4610 O   0  0  0  0  0  0  0  0  0  0  0  0
    4.1029   -0.0143    1.2620 H   0  0  0  0  0  0  0  0  0  0  0  0
   -0.4860    1.3537    0.7622 C   0  0  0  0  0  0  0  0  0  0  0  0
   -1.3956    2.0096    0.2582 O   0  0  0  0  0  0  0  0  0  0  0  0
    0.3741    1.8728    1.6466 N   0  0  0  0  0  0  0  0  0  0  0  0
    1.0814    1.2667    2.0345 H   0  0  0  0  0  0  0  0  0  0  0  0
    0.3380    3.2610    2.1024 C   0  0  0  0  0  0  0  0  0  0  0  0
   -0.6389    3.4820    2.5363 H   0  0  0  0  0  0  0  0  0  0  0  0
    1.1108    3.4337    2.8528 H   0  0  0  0  0  0  0  0  0  0  0  0
    0.5009    3.9312    1.2562 H   0  0  0  0  0  0  0  0  0  0  0  0
  5  6  2  0  0  0  0
  5  7  1  0  0  0  0
  2  3  1  0  0  0  0
  2  4  1  0  0  0  0
  2  5  1  0  0  0  0
  1  2  1  0  0  0  0
 21 22  2  0  0  0  0
 21 23  1  0  0  0  0
 19 20  1  0  0  0  0
 17 18  2  0  0  0  0
 17 19  1  0  0  0  0
 14 15  1  0  0  0  0
 14 16  1  0  0  0  0
 14 17  1  0  0  0  0
 11 12  1  0  0  0  0
 11 13  1  0  0  0  0
 11 14  1  0  0  0  0
  9 10  1  0  0  0  0
  9 11  1  0  0  0  0
  9 21  1  0  0  0  0
  7  8  1  0  0  0  0
  7  9  1  0  0  0  0
 25 26  1  0  0  0  0
 25 27  1  0  0  0  0
 25 28  1  0  0  0  0
 23 24  1  0  0  0  0
 23 25  1  0  0  0  0
M  END
$$$$
default_name
  -OEChem-02102213163D

 28 27  0     1  0  0  0  0  0999 V2000
   -3.2133   -3.5565    1.2809 H   0  0  0  0  0  0  0  0  0  0  0  0
   -3.1873   -2.5755    0.8089 C   0  0  0  0  0  0  0  0  0  0  0  0
   -3.8793   -1.9065    1.3169 H   0  0  0  0  0  0  0  0  0  0  0  0
   -3.4623   -2.6685   -0.2401 H   0  0  0  0  0  0  0  0  0  0  0  0
   -1.7863   -2.0195    0.9119 C   0  0  0  0  0  0  0  0  0  0  0  0
   -0.9073   -2.6615    1.4699 O   0  0  0  0  0  0  0  0  0  0  0  0
   -1.5803   -0.8195    0.3749 N   0  0  0  0  0  0  0  0  0  0  0  0
   -2.3603   -0.3345   -0.0451 H   0  0  0  0  0  0  0  0  0  0  0  0
   -0.2933   -0.1205    0.3719 C   0  0  1  0  0  0  0  0  0  0  0  0
    0.3577   -0.5843    1.1143 H   0  0  0  0  0  0  0  0  0  0  0  0
    0.3613   -0.2794   -1.0156 C   0  0  0  0  0  0  0  0  0  0  0  0
   -0.1696   -1.0673   -1.5526 H   0  0  0  0  0  0  0  0  0  0  0  0
    0.2469    0.6496   -1.5760 H   0  0  0  0  0  0  0  0  0  0  0  0
    1.8567   -0.6370   -0.9621 C   0  0  0  0  0  0  0  0  0  0  0  0
    1.9970   -1.6864   -1.2215 H   0  0  0  0  0  0  0  0  0  0  0  0
    2.3984   -0.0177   -1.6761 H   0  0  0  0  0  0  0  0  0  0  0  0
    2.4582   -0.4028    0.4199 C   0  0  0  0  0  0  0  0  0  0  0  0
    1.8808    0.1305    1.3538 O   0  0  0  0  0  0  0  0  0  0  0  0
    3.7281   -0.8198    0.5778 O   0  0  0  0  0  0  0  0  0  0  0  0
    3.9571   -0.5916    1.4804 H   0  0  0  0  0  0  0  0  0  0  0  0
   -0.4860    1.3537    0.7622 C   0  0  0  0  0  0  0  0  0  0  0  0
   -1.3956    2.0096    0.2582 O   0  0  0  0  0  0  0  0  0  0  0  0
    0.3741    1.8728    1.6466 N   0  0  0  0  0  0  0  0  0  0  0  0
    1.0814    1.2667    2.0345 H   0  0  0  0  0  0  0  0  0  0  0  0
    0.3380    3.2610    2.1024 C   0  0  0  0  0  0  0  0  0  0  0  0
   -0.6389    3.4820    2.5363 H   0  0  0  0  0  0  0  0  0  0  0  0
    1.1108    3.4337    2.8528 H   0  0  0  0  0  0  0  0  0  0  0  0
    0.5009    3.9312    1.2562 H   0  0  0  0  0  0  0  0  0  0  0  0
  5  6  2  0  0  0  0
  5  7  1  0  0  0  0
  2  3  1  0  0  0  0
  2  4  1  0  0  0  0
  2  5  1  0  0  0  0
  1  2  1  0  0  0  0
 21 22  2  0  0  0  0
 21 23  1  0  0  0  0
 19 20  1  0  0  0  0
 17 18  2  0  0  0  0
 17 19  1  0  0  0  0
 14 15  1  0  0  0  0
 14 16  1  0  0  0  0
 14 17  1  0  0  0  0
 11 12  1  0  0  0  0
 11 13  1  0  0  0  0
 11 14  1  0  0  0  0
  9 10  1  0  0  0  0
  9 11  1  0  0  0  0
  9 21  1  0  0  0  0
  7  8  1  0  0  0  0
  7  9  1  0  0  0  0
 25 26  1  0  0  0  0
 25 27  1  0  0  0  0
 25 28  1  0  0  0  0
 23 24  1  0  0  0  0
 23 25  1  0  0  0  0
M  END
$$$$
default_name
  -OEChem-02102213163D

 28 27  0     1  0  0  0  0  0999 V2000
   -3.2133   -3.5565    1.2809 H   0  0  0  0  0  0  0  0  0  0  0  0
   -3.1873   -2.5755    0.8089 C   0  0  0  0  0  0  0  0  0  0  0  0
   -3.8793   -1.9065    1.3169 H   0  0  0  0  0  0  0  0  0  0  0  0
   -3.4623   -2.6685   -0.2401 H   0  0  0  0  0  0  0  0  0  0  0  0
   -1.7863   -2.0195    0.9119 C   0  0  0  0  0  0  0  0  0  0  0  0
   -0.9073   -2.6615    1.4699 O   0  0  0  0  0  0  0  0  0  0  0  0
   -1.5803   -0.8195    0.3749 N   0  0  0  0  0  0  0  0  0  0  0  0
   -2.3603   -0.3345   -0.0451 H   0  0  0  0  0  0  0  0  0  0  0  0
   -0.2933   -0.1205    0.3719 C   0  0  1  0  0  0  0  0  0  0  0  0
    0.3577   -0.5843    1.1143 H   0  0  0  0  0  0  0  0  0  0  0  0
    0.3613   -0.2794   -1.0156 C   0  0  0  0  0  0  0  0  0  0  0  0
   -0.1696   -1.0673   -1.5526 H   0  0  0  0  0  0  0  0  0  0  0  0
    0.2469    0.6496   -1.5760 H   0  0  0  0  0  0  0  0  0  0  0  0
    1.8567   -0.6370   -0.9621 C   0  0  0  0  0  0  0  0  0  0  0  0
    2.0296   -1.5871   -1.4678 H   0  0  0  0  0  0  0  0  0  0  0  0
    2.4292    0.1428   -1.4630 H   0  0  0  0  0  0  0  0  0  0  0  0
    2.3716   -0.7576    0.4686 C   0  0  0  0  0  0  0  0  0  0  0  0
    1.7313   -0.4775    1.4693 O   0  0  0  0  0  0  0  0  0  0  0  0
    3.6368   -1.1993    0.5941 O   0  0  0  0  0  0  0  0  0  0  0  0
    3.8083   -1.2055    1.5374 H   0  0  0  0  0  0  0  0  0  0  0  0
   -0.4860    1.3537    0.7622 C   0  0  0  0  0  0  0  0  0  0  0  0
   -1.3956    2.0096    0.2582 O   0  0  0  0  0  0  0  0  0  0  0  0
    0.3741    1.8728    1.6466 N   0  0  0  0  0  0  0  0  0  0  0  0
    1.0814    1.2667    2.0345 H   0  0  0  0  0  0  0  0  0  0  0  0
    0.3380    3.2610    2.1024 C   0  0  0  0  0  0  0  0  0  0  0  0
   -0.6389    3.4820    2.5363 H   0  0  0  0  0  0  0  0  0  0  0  0
    1.1108    3.4337    2.8528 H   0  0  0  0  0  0  0  0  0  0  0  0
    0.5009    3.9312    1.2562 H   0  0  0  0  0  0  0  0  0  0  0  0
  5  6  2  0  0  0  0
  5  7  1  0  0  0  0
  2  3  1  0  0  0  0
  2  4  1  0  0  0  0
  2  5  1  0  0  0  0
  1  2  1  0  0  0  0
 21 22  2  0  0  0  0
 21 23  1  0  0  0  0
 19 20  1  0  0  0  0
 17 18  2  0  0  0  0
 17 19  1  0  0  0  0
 14 15  1  0  0  0  0
 14 16  1  0  0  0  0
 14 17  1  0  0  0  0
 11 12  1  0  0  0  0
 11 13  1  0  0  0  0
 11 14  1  0  0  0  0
  9 10  1  0  0  0  0
  9 11  1  0  0  0  0
  9 21  1  0  0  0  0
  7  8  1  0  0  0  0
  7  9  1  0  0  0  0
 25 26  1  0  0  0  0
 25 27  1  0  0  0  0
 25 28  1  0  0  0  0
 23 24  1  0  0  0  0
 23 25  1  0  0  0  0
M  END
$$$$
default_name
  -OEChem-02102213163D

 28 27  0     1  0  0  0  0  0999 V2000
   -3.2133   -3.5565    1.2809 H   0  0  0  0  0  0  0  0  0  0  0  0
   -3.1873   -2.5755    0.8089 C   0  0  0  0  0  0  0  0  0  0  0  0
   -3.8793   -1.9065    1.3169 H   0  0  0  0  0  0  0  0  0  0  0  0
   -3.4623   -2.6685   -0.2401 H   0  0  0  0  0  0  0  0  0  0  0  0
   -1.7863   -2.0195    0.9119 C   0  0  0  0  0  0  0  0  0  0  0  0
   -0.9073   -2.6615    1.4699 O   0  0  0  0  0  0  0  0  0  0  0  0
   -1.5803   -0.8195    0.3749 N   0  0  0  0  0  0  0  0  0  0  0  0
   -2.3603   -0.3345   -0.0451 H   0  0  0  0  0  0  0  0  0  0  0  0
   -0.2933   -0.1205    0.3719 C   0  0  1  0  0  0  0  0  0  0  0  0
    0.3577   -0.5843    1.1143 H   0  0  0  0  0  0  0  0  0  0  0  0
    0.3613   -0.2794   -1.0156 C   0  0  0  0  0  0  0  0  0  0  0  0
   -0.1696   -1.0673   -1.5526 H   0  0  0  0  0  0  0  0  0  0  0  0
    0.2469    0.6496   -1.5760 H   0  0  0  0  0  0  0  0  0  0  0  0
    1.8567   -0.6370   -0.9621 C   0  0  0  0  0  0  0  0  0  0  0  0
    2.0750   -1.4289   -1.6787 H   0  0  0  0  0  0  0  0  0  0  0  0
    2.4447    0.2446   -1.2149 H   0  0  0  0  0  0  0  0  0  0  0  0
    2.2882   -1.1134    0.4211 C   0  0  0  0  0  0  0  0  0  0  0  0
    1.5855   -1.0951    1.4189 O   0  0  0  0  0  0  0  0  0  0  0  0
    3.5510   -1.5708    0.5090 O   0  0  0  0  0  0  0  0  0  0  0  0
    3.6666   -1.8142    1.4291 H   0  0  0  0  0  0  0  0  0  0  0  0
   -0.4860    1.3537    0.7622 C   0  0  0  0  0  0  0  0  0  0  0  0
   -1.3956    2.0096    0.2582 O   0  0  0  0  0  0  0  0  0  0  0  0
    0.3741    1.8728    1.6466 N   0  0  0  0  0  0  0  0  0  0  0  0
    1.0814    1.2667    2.0345 H   0  0  0  0  0  0  0  0  0  0  0  0
    0.3380    3.2610    2.1024 C   0  0  0  0  0  0  0  0  0  0  0  0
   -0.6389    3.4820    2.5363 H   0  0  0  0  0  0  0  0  0  0  0  0
    1.1108    3.4337    2.8528 H   0  0  0  0  0  0  0  0  0  0  0  0
    0.5009    3.9312    1.2562 H   0  0  0  0  0  0  0  0  0  0  0  0
  5  6  2  0  0  0  0
  5  7  1  0  0  0  0
  2  3  1  0  0  0  0
  2  4  1  0  0  0  0
  2  5  1  0  0  0  0
  1  2  1  0  0  0  0
 21 22  2  0  0  0  0
 21 23  1  0  0  0  0
 19 20  1  0  0  0  0
 17 18  2  0  0  0  0
 17 19  1  0  0  0  0
 14 15  1  0  0  0  0
 14 16  1  0  0  0  0
 14 17  1  0  0  0  0
 11 12  1  0  0  0  0
 11 13  1  0  0  0  0
 11 14  1  0  0  0  0
  9 10  1  0  0  0  0
  9 11  1  0  0  0  0
  9 21  1  0  0  0  0
  7  8  1  0  0  0  0
  7  9  1  0  0  0  0
 25 26  1  0  0  0  0
 25 27  1  0  0  0  0
 25 28  1  0  0  0  0
 23 24  1  0  0  0  0
 23 25  1  0  0  0  0
M  END
$$$$
default_name
  -OEChem-02102213163D

 28 27  0     1  0  0  0  0  0999 V2000
   -3.2133   -3.5565    1.2809 H   0  0  0  0  0  0  0  0  0  0  0  0
   -3.1873   -2.5755    0.8089 C   0  0  0  0  0  0  0  0  0  0  0  0
   -3.8793   -1.9065    1.3169 H   0  0  0  0  0  0  0  0  0  0  0  0
   -3.4623   -2.6685   -0.2401 H   0  0  0  0  0  0  0  0  0  0  0  0
   -1.7863   -2.0195    0.9119 C   0  0  0  0  0  0  0  0  0  0  0  0
   -0.9073   -2.6615    1.4699 O   0  0  0  0  0  0  0  0  0  0  0  0
   -1.5803   -0.8195    0.3749 N   0  0  0  0  0  0  0  0  0  0  0  0
   -2.3603   -0.3345   -0.0451 H   0  0  0  0  0  0  0  0  0  0  0  0
   -0.2933   -0.1205    0.3719 C   0  0  1  0  0  0  0  0  0  0  0  0
    0.3577   -0.5843    1.1143 H   0  0  0  0  0  0  0  0  0  0  0  0
    0.3613   -0.2794   -1.0156 C   0  0  0  0  0  0  0  0  0  0  0  0
   -0.1696   -1.0673   -1.5526 H   0  0  0  0  0  0  0  0  0  0  0  0
    0.2469    0.6496   -1.5760 H   0  0  0  0  0  0  0  0  0  0  0  0
    1.8567   -0.6370   -0.9621 C   0  0  0  0  0  0  0  0  0  0  0  0
    2.1300   -1.2226   -1.8400 H   0  0  0  0  0  0  0  0  0  0  0  0
    2.4438    0.2806   -0.9487 H   0  0  0  0  0  0  0  0  0  0  0  0
    2.2138   -1.4458    0.2808 C   0  0  0  0  0  0  0  0  0  0  0  0
    1.4531   -1.6804    1.2061 O   0  0  0  0  0  0  0  0  0  0  0  0
    3.4766   -1.9090    0.3281 O   0  0  0  0  0  0  0  0  0  0  0  0
    3.5418   -2.3761    1.1629 H   0  0  0  0  0  0  0  0  0  0  0  0
   -0.4860    1.3537    0.7622 C   0  0  0  0  0  0  0  0  0  0  0  0
   -1.3956    2.0096    0.2582 O   0  0  0  0  0  0  0  0  0  0  0  0
    0.3741    1.8728    1.6466 N   0  0  0  0  0  0  0  0  0  0  0  0
    1.0814    1.2667    2.0345 H   0  0  0  0  0  0  0  0  0  0  0  0
    0.3380    3.2610    2.1024 C   0  0  0  0  0  0  0  0  0  0  0  0
   -0.6389    3.4820    2.5363 H   0  0  0  0  0  0  0  0  0  0  0  0
    1.1108    3.4337    2.8528 H   0  0  0  0  0  0  0  0  0  0  0  0
    0.5009    3.9312    1.2562 H   0  0  0  0  0  0  0  0  0  0  0  0
  5  6  2  0  0  0  0
  5  7  1  0  0  0  0
  2  3  1  0  0  0  0
  2  4  1  0  0  0  0
  2  5  1  0  0  0  0
  1  2  1  0  0  0  0
 21 22  2  0  0  0  0
 21 23  1  0  0  0  0
 19 20  1  0  0  0  0
 17 18  2  0  0  0  0
 17 19  1  0  0  0  0
 14 15  1  0  0  0  0
 14 16  1  0  0  0  0
 14 17  1  0  0  0  0
 11 12  1  0  0  0  0
 11 13  1  0  0  0  0
 11 14  1  0  0  0  0
  9 10  1  0  0  0  0
  9 11  1  0  0  0  0
  9 21  1  0  0  0  0
  7  8  1  0  0  0  0
  7  9  1  0  0  0  0
 25 26  1  0  0  0  0
 25 27  1  0  0  0  0
 25 28  1  0  0  0  0
 23 24  1  0  0  0  0
 23 25  1  0  0  0  0
M  END
$$$$
default_name
  -OEChem-02102213163D

 28 27  0     1  0  0  0  0  0999 V2000
   -3.2133   -3.5565    1.2809 H   0  0  0  0  0  0  0  0  0  0  0  0
   -3.1873   -2.5755    0.8089 C   0  0  0  0  0  0  0  0  0  0  0  0
   -3.8793   -1.9065    1.3169 H   0  0  0  0  0  0  0  0  0  0  0  0
   -3.4623   -2.6685   -0.2401 H   0  0  0  0  0  0  0  0  0  0  0  0
   -1.7863   -2.0195    0.9119 C   0  0  0  0  0  0  0  0  0  0  0  0
   -0.9073   -2.6615    1.4699 O   0  0  0  0  0  0  0  0  0  0  0  0
   -1.5803   -0.8195    0.3749 N   0  0  0  0  0  0  0  0  0  0  0  0
   -2.3603   -0.3345   -0.0451 H   0  0  0  0  0  0  0  0  0  0  0  0
   -0.2933   -0.1205    0.3719 C   0  0  1  0  0  0  0  0  0  0  0  0
    0.3577   -0.5843    1.1143 H   0  0  0  0  0  0  0  0  0  0  0  0
    0.3613   -0.2794   -1.0156 C   0  0  0  0  0  0  0  0  0  0  0  0
   -0.1696   -1.0673   -1.5526 H   0  0  0  0  0  0  0  0  0  0  0  0
    0.2469    0.6496   -1.5760 H   0  0  0  0  0  0  0  0  0  0  0  0
    1.8567   -0.6370   -0.9621 C   0  0  0  0  0  0  0  0  0  0  0  0
    2.1911   -0.9823   -1.9405 H   0  0  0  0  0  0  0  0  0  0  0  0
    2.4266    0.2484   -0.6826 H   0  0  0  0  0  0  0  0  0  0  0  0
    2.1533   -1.7323    0.0571 C   0  0  0  0  0  0  0  0  0  0  0  0
    1.3434   -2.1933    0.8454 O   0  0  0  0  0  0  0  0  0  0  0  0
    3.4187   -2.1908    0.0638 O   0  0  0  0  0  0  0  0  0  0  0  0
    3.4423   -2.8531    0.7568 H   0  0  0  0  0  0  0  0  0  0  0  0
   -0.4860    1.3537    0.7622 C   0  0  0  0  0  0  0  0  0  0  0  0
   -1.3956    2.0096    0.2582 O   0  0  0  0  0  0  0  0  0  0  0  0
    0.3741    1.8728    1.6466 N   0  0  0  0  0  0  0  0  0  0  0  0
    1.0814    1.2667    2.0345 H   0  0  0  0  0  0  0  0  0  0  0  0
    0.3380    3.2610    2.1024 C   0  0  0  0  0  0  0  0  0  0  0  0
   -0.6389    3.4820    2.5363 H   0  0  0  0  0  0  0  0  0  0  0  0
    1.1108    3.4337    2.8528 H   0  0  0  0  0  0  0  0  0  0  0  0
    0.5009    3.9312    1.2562 H   0  0  0  0  0  0  0  0  0  0  0  0
  5  6  2  0  0  0  0
  5  7  1  0  0  0  0
  2  3  1  0  0  0  0
  2  4  1  0  0  0  0
  2  5  1  0  0  0  0
  1  2  1  0  0  0  0
 21 22  2  0  0  0  0
 21 23  1  0  0  0  0
 19 20  1  0  0  0  0
 17 18  2  0  0  0  0
 17 19  1  0  0  0  0
 14 15  1  0  0  0  0
 14 16  1  0  0  0  0
 14 17  1  0  0  0  0
 11 12  1  0  0  0  0
 11 13  1  0  0  0  0
 11 14  1  0  0  0  0
  9 10  1  0  0  0  0
  9 11  1  0  0  0  0
  9 21  1  0  0  0  0
  7  8  1  0  0  0  0
  7  9  1  0  0  0  0
 25 26  1  0  0  0  0
 25 27  1  0  0  0  0
 25 28  1  0  0  0  0
 23 24  1  0  0  0  0
 23 25  1  0  0  0  0
M  END
$$$$
default_name
  -OEChem-02102213163D

 28 27  0     1  0  0  0  0  0999 V2000
   -3.2133   -3.5565    1.2809 H   0  0  0  0  0  0  0  0  0  0  0  0
   -3.1873   -2.5755    0.8089 C   0  0  0  0  0  0  0  0  0  0  0  0
   -3.8793   -1.9065    1.3169 H   0  0  0  0  0  0  0  0  0  0  0  0
   -3.4623   -2.6685   -0.2401 H   0  0  0  0  0  0  0  0  0  0  0  0
   -1.7863   -2.0195    0.9119 C   0  0  0  0  0  0  0  0  0  0  0  0
   -0.9073   -2.6615    1.4699 O   0  0  0  0  0  0  0  0  0  0  0  0
   -1.5803   -0.8195    0.3749 N   0  0  0  0  0  0  0  0  0  0  0  0
   -2.3603   -0.3345   -0.0451 H   0  0  0  0  0  0  0  0  0  0  0  0
   -0.2933   -0.1205    0.3719 C   0  0  1  0  0  0  0  0  0  0  0  0
    0.3577   -0.5843    1.1143 H   0  0  0  0  0  0  0  0  0  0  0  0
    0.3613   -0.2794   -1.0156 C   0  0  0  0  0  0  0  0  0  0  0  0
   -0.1696   -1.0673   -1.5526 H   0  0  0  0  0  0  0  0  0  0  0  0
    0.2469    0.6496   -1.5760 H   0  0  0  0  0  0  0  0  0  0  0  0
    1.8567   -0.6370   -0.9621 C   0  0  0  0  0  0  0  0  0  0  0  0
    2.2539   -0.7243   -1.9735 H   0  0  0  0  0  0  0  0  0  0  0  0
    2.3942    0.1502   -0.4347 H   0  0  0  0  0  0  0  0  0  0  0  0
    2.1108   -1.9533   -0.2347 C   0  0  0  0  0  0  0  0  0  0  0  0
    1.2637   -2.5990    0.3613 O   0  0  0  0  0  0  0  0  0  0  0  0
    3.3812   -2.3971   -0.2658 O   0  0  0  0  0  0  0  0  0  0  0  0
    3.3748   -3.2125    0.2386 H   0  0  0  0  0  0  0  0  0  0  0  0
   -0.4860    1.3537    0.7622 C   0  0  0  0  0  0  0  0  0  0  0  0
   -1.3956    2.0096    0.2582 O   0  0  0  0  0  0  0  0  0  0  0  0
    0.3741    1.8728    1.6466 N   0  0  0  0  0  0  0  0  0  0  0  0
    1.0814    1.2667    2.0345 H   0  0  0  0  0  0  0  0  0  0  0  0
    0.3380    3.2610    2.1024 C   0  0  0  0  0  0  0  0  0  0  0  0
   -0.6389    3.4820    2.5363 H   0  0  0  0  0  0  0  0  0  0  0  0
    1.1108    3.4337    2.8528 H   0  0  0  0  0  0  0  0  0  0  0  0
    0.5009    3.9312    1.2562 H   0  0  0  0  0  0  0  0  0  0  0  0
  5  6  2  0  0  0  0
  5  7  1  0  0  0  0
  2  3  1  0  0  0  0
  2  4  1  0  0  0  0
  2  5  1  0  0  0  0
  1  2  1  0  0  0  0
 21 22  2  0  0  0  0
 21 23  1  0  0  0  0
 19 20  1  0  0  0  0
 17 18  2  0  0  0  0
 17 19  1  0  0  0  0
 14 15  1  0  0  0  0
 14 16  1  0  0  0  0
 14 17  1  0  0  0  0
 11 12  1  0  0  0  0
 11 13  1  0  0  0  0
 11 14  1  0  0  0  0
  9 10  1  0  0  0  0
  9 11  1  0  0  0  0
  9 21  1  0  0  0  0
  7  8  1  0  0  0  0
  7  9  1  0  0  0  0
 25 26  1  0  0  0  0
 25 27  1  0  0  0  0
 25 28  1  0  0  0  0
 23 24  1  0  0  0  0
 23 25  1  0  0  0  0
M  END
$$$$
default_name
  -OEChem-02102213163D

 28 27  0     1  0  0  0  0  0999 V2000
   -3.2133   -3.5565    1.2809 H   0  0  0  0  0  0  0  0  0  0  0  0
   -3.1873   -2.5755    0.8089 C   0  0  0  0  0  0  0  0  0  0  0  0
   -3.8793   -1.9065    1.3169 H   0  0  0  0  0  0  0  0  0  0  0  0
   -3.4623   -2.6685   -0.2401 H   0  0  0  0  0  0  0  0  0  0  0  0
   -1.7863   -2.0195    0.9119 C   0  0  0  0  0  0  0  0  0  0  0  0
   -0.9073   -2.6615    1.4699 O   0  0  0  0  0  0  0  0  0  0  0  0
   -1.5803   -0.8195    0.3749 N   0  0  0  0  0  0  0  0  0  0  0  0
   -2.3603   -0.3345   -0.0451 H   0  0  0  0  0  0  0  0  0  0  0  0
   -0.2933   -0.1205    0.3719 C   0  0  1  0  0  0  0  0  0  0  0  0
    0.3577   -0.5843    1.1143 H   0  0  0  0  0  0  0  0  0  0  0  0
    0.3613   -0.2794   -1.0156 C   0  0  0  0  0  0  0  0  0  0  0  0
   -0.1696   -1.0673   -1.5526 H   0  0  0  0  0  0  0  0  0  0  0  0
    0.2469    0.6496   -1.5760 H   0  0  0  0  0  0  0  0  0  0  0  0
    1.8567   -0.6370   -0.9621 C   0  0  0  0  0  0  0  0  0  0  0  0
    2.3143   -0.4663   -1.9366 H   0  0  0  0  0  0  0  0  0  0  0  0
    2.3490   -0.0073   -0.2219 H   0  0  0  0  0  0  0  0  0  0  0  0
    2.0894   -2.0937   -0.5746 C   0  0  0  0  0  0  0  0  0  0  0  0
    1.2195   -2.8699   -0.2131 O   0  0  0  0  0  0  0  0  0  0  0  0
    3.3666   -2.5138   -0.6384 O   0  0  0  0  0  0  0  0  0  0  0  0
    3.3441   -3.4299   -0.3564 H   0  0  0  0  0  0  0  0  0  0  0  0
   -0.4860    1.3537    0.7622 C   0  0  0  0  0  0  0  0  0  0  0  0
   -1.3956    2.0096    0.2582 O   0  0  0  0  0  0  0  0  0  0  0  0
    0.3741    1.8728    1.6466 N   0  0  0  0  0  0  0  0  0  0  0  0
    1.0814    1.2667    2.0345 H   0  0  0  0  0  0  0  0  0  0  0  0
    0.3380    3.2610    2.1024 C   0  0  0  0  0  0  0  0  0  0  0  0
   -0.6389    3.4820    2.5363 H   0  0  0  0  0  0  0  0  0  0  0  0
    1.1108    3.4337    2.8528 H   0  0  0  0  0  0  0  0  0  0  0  0
    0.5009    3.9312    1.2562 H   0  0  0  0  0  0  0  0  0  0  0  0
  5  6  2  0  0  0  0
  5  7  1  0  0  0  0
  2  3  1  0  0  0  0
  2  4  1  0  0  0  0
  2  5  1  0  0  0  0
  1  2  1  0  0  0  0
 21 22  2  0  0  0  0
 21 23  1  0  0  0  0
 19 20  1  0  0  0  0
 17 18  2  0  0  0  0
 17 19  1  0  0  0  0
 14 15  1  0  0  0  0
 14 16  1  0  0  0  0
 14 17  1  0  0  0  0
 11 12  1  0  0  0  0
 11 13  1  0  0  0  0
 11 14  1  0  0  0  0
  9 10  1  0  0  0  0
  9 11  1  0  0  0  0
  9 21  1  0  0  0  0
  7  8  1  0  0  0  0
  7  9  1  0  0  0  0
 25 26  1  0  0  0  0
 25 27  1  0  0  0  0
 25 28  1  0  0  0  0
 23 24  1  0  0  0  0
 23 25  1  0  0  0  0
M  END
$$$$
default_name
  -OEChem-02102213163D

 28 27  0     1  0  0  0  0  0999 V2000
   -3.2133   -3.5565    1.2809 H   0  0  0  0  0  0  0  0  0  0  0  0
   -3.1873   -2.5755    0.8089 C   0  0  0  0  0  0  0  0  0  0  0  0
   -3.8793   -1.9065    1.3169 H   0  0  0  0  0  0  0  0  0  0  0  0
   -3.4623   -2.6685   -0.2401 H   0  0  0  0  0  0  0  0  0  0  0  0
   -1.7863   -2.0195    0.9119 C   0  0  0  0  0  0  0  0  0  0  0  0
   -0.9073   -2.6615    1.4699 O   0  0  0  0  0  0  0  0  0  0  0  0
   -1.5803   -0.8195    0.3749 N   0  0  0  0  0  0  0  0  0  0  0  0
   -2.3603   -0.3345   -0.0451 H   0  0  0  0  0  0  0  0  0  0  0  0
   -0.2933   -0.1205    0.3719 C   0  0  1  0  0  0  0  0  0  0  0  0
    0.3577   -0.5843    1.1143 H   0  0  0  0  0  0  0  0  0  0  0  0
    0.3613   -0.2794   -1.0156 C   0  0  0  0  0  0  0  0  0  0  0  0
   -0.1696   -1.0673   -1.5526 H   0  0  0  0  0  0  0  0  0  0  0  0
    0.2469    0.6496   -1.5760 H   0  0  0  0  0  0  0  0  0  0  0  0
    1.8567   -0.6370   -0.9621 C   0  0  0  0  0  0  0  0  0  0  0  0
    2.3681   -0.2257   -1.8325 H   0  0  0  0  0  0  0  0  0  0  0  0
    2.2938   -0.2134   -0.0587 H   0  0  0  0  0  0  0  0  0  0  0  0
    2.0904   -2.1441   -0.9396 C   0  0  0  0  0  0  0  0  0  0  0  0
    1.2137   -2.9873   -0.8388 O   0  0  0  0  0  0  0  0  0  0  0  0
    3.3760   -2.5328   -1.0285 O   0  0  0  0  0  0  0  0  0  0  0  0
    3.3522   -3.4905   -0.9877 H   0  0  0  0  0  0  0  0  0  0  0  0
   -0.4860    1.3537    0.7622 C   0  0  0  0  0  0  0  0  0  0  0  0
   -1.3956    2.0096    0.2582 O   0  0  0  0  0  0  0  0  0  0  0  0
    0.3741    1.8728    1.6466 N   0  0  0  0  0  0  0  0  0  0  0  0
    1.0814    1.2667    2.0345 H   0  0  0  0  0  0  0  0  0  0  0  0
    0.3380    3.2610    2.1024 C   0  0  0  0  0  0  0  0  0  0  0  0
   -0.6389    3.4820    2.5363 H   0  0  0  0  0  0  0  0  0  0  0  0
    1.1108    3.4337    2.8528 H   0  0  0  0  0  0  0  0  0  0  0  0
    0.5009    3.9312    1.2562 H   0  0  0  0  0  0  0  0  0  0  0  0
  5  6  2  0  0  0  0
  5  7  1  0  0  0  0
  2  3  1  0  0  0  0
  2  4  1  0  0  0  0
  2  5  1  0  0  0  0
  1  2  1  0  0  0  0
 21 22  2  0  0  0  0
 21 23  1  0  0  0  0
 19 20  1  0  0  0  0
 17 18  2  0  0  0  0
 17 19  1  0  0  0  0
 14 15  1  0  0  0  0
 14 16  1  0  0  0  0
 14 17  1  0  0  0  0
 11 12  1  0  0  0  0
 11 13  1  0  0  0  0
 11 14  1  0  0  0  0
  9 10  1  0  0  0  0
  9 11  1  0  0  0  0
  9 21  1  0  0  0  0
  7  8  1  0  0  0  0
  7  9  1  0  0  0  0
 25 26  1  0  0  0  0
 25 27  1  0  0  0  0
 25 28  1  0  0  0  0
 23 24  1  0  0  0  0
 23 25  1  0  0  0  0
M  END
$$$$
default_name
  -OEChem-02102213163D

 28 27  0     1  0  0  0  0  0999 V2000
   -3.2133   -3.5565    1.2809 H   0  0  0  0  0  0  0  0  0  0  0  0
   -3.1873   -2.5755    0.8089 C   0  0  0  0  0  0  0  0  0  0  0  0
   -3.8793   -1.9065    1.3169 H   0  0  0  0  0  0  0  0  0  0  0  0
   -3.4623   -2.6685   -0.2401 H   0  0  0  0  0  0  0  0  0  0  0  0
   -1.7863   -2.0195    0.9119 C   0  0  0  0  0  0  0  0  0  0  0  0
   -0.9073   -2.6615    1.4699 O   0  0  0  0  0  0  0  0  0  0  0  0
   -1.5803   -0.8195    0.3749 N   0  0  0  0  0  0  0  0  0  0  0  0
   -2.3603   -0.3345   -0.0451 H   0  0  0  0  0  0  0  0  0  0  0  0
   -0.2933   -0.1205    0.3719 C   0  0  1  0  0  0  0  0  0  0  0  0
    0.3577   -0.5843    1.1143 H   0  0  0  0  0  0  0  0  0  0  0  0
    0.3613   -0.2794   -1.0156 C   0  0  0  0  0  0  0  0  0  0  0  0
   -0.1696   -1.0673   -1.5526 H   0  0  0  0  0  0  0  0  0  0  0  0
    0.2469    0.6496   -1.5760 H   0  0  0  0  0  0  0  0  0  0  0  0
    1.8567   -0.6370   -0.9621 C   0  0  0  0  0  0  0  0  0  0  0  0
    2.4116   -0.0191   -1.6682 H   0  0  0  0  0  0  0  0  0  0  0  0
    2.2327   -0.4540    0.0438 H   0  0  0  0  0  0  0  0  0  0  0  0
    2.1138   -2.1008   -1.3048 C   0  0  0  0  0  0  0  0  0  0  0  0
    1.2469   -2.9435   -1.4731 O   0  0  0  0  0  0  0  0  0  0  0  0
    3.4087   -2.4531   -1.4095 O   0  0  0  0  0  0  0  0  0  0  0  0
    3.3985   -3.3901   -1.6123 H   0  0  0  0  0  0  0  0  0  0  0  0
   -0.4860    1.3537    0.7622 C   0  0  0  0  0  0  0  0  0  0  0  0
   -1.3956    2.0096    0.2582 O   0  0  0  0  0  0  0  0  0  0  0  0
    0.3741    1.8728    1.6466 N   0  0  0  0  0  0  0  0  0  0  0  0
    1.0814    1.2667    2.0345 H   0  0  0  0  0  0  0  0  0  0  0  0
    0.3380    3.2610    2.1024 C   0  0  0  0  0  0  0  0  0  0  0  0
   -0.6389    3.4820    2.5363 H   0  0  0  0  0  0  0  0  0  0  0  0
    1.1108    3.4337    2.8528 H   0  0  0  0  0  0  0  0  0  0  0  0
    0.5009    3.9312    1.2562 H   0  0  0  0  0  0  0  0  0  0  0  0
  5  6  2  0  0  0  0
  5  7  1  0  0  0  0
  2  3  1  0  0  0  0
  2  4  1  0  0  0  0
  2  5  1  0  0  0  0
  1  2  1  0  0  0  0
 21 22  2  0  0  0  0
 21 23  1  0  0  0  0
 19 20  1  0  0  0  0
 17 18  2  0  0  0  0
 17 19  1  0  0  0  0
 14 15  1  0  0  0  0
 14 16  1  0  0  0  0
 14 17  1  0  0  0  0
 11 12  1  0  0  0  0
 11 13  1  0  0  0  0
 11 14  1  0  0  0  0
  9 10  1  0  0  0  0
  9 11  1  0  0  0  0
  9 21  1  0  0  0  0
  7  8  1  0  0  0  0
  7  9  1  0  0  0  0
 25 26  1  0  0  0  0
 25 27  1  0  0  0  0
 25 28  1  0  0  0  0
 23 24  1  0  0  0  0
 23 25  1  0  0  0  0
M  END
$$$$
default_name
  -OEChem-02102213163D

 28 27  0     1  0  0  0  0  0999 V2000
   -3.2133   -3.5565    1.2809 H   0  0  0  0  0  0  0  0  0  0  0  0
   -3.1873   -2.5755    0.8089 C   0  0  0  0  0  0  0  0  0  0  0  0
   -3.8793   -1.9065    1.3169 H   0  0  0  0  0  0  0  0  0  0  0  0
   -3.4623   -2.6685   -0.2401 H   0  0  0  0  0  0  0  0  0  0  0  0
   -1.7863   -2.0195    0.9119 C   0  0  0  0  0  0  0  0  0  0  0  0
   -0.9073   -2.6615    1.4699 O   0  0  0  0  0  0  0  0  0  0  0  0
   -1.5803   -0.8195    0.3749 N   0  0  0  0  0  0  0  0  0  0  0  0
   -2.3603   -0.3345   -0.0451 H   0  0  0  0  0  0  0  0  0  0  0  0
   -0.2933   -0.1205    0.3719 C   0  0  1  0  0  0  0  0  0  0  0  0
    0.3577   -0.5843    1.1143 H   0  0  0  0  0  0  0  0  0  0  0  0
    0.3613   -0.2794   -1.0156 C   0  0  0  0  0  0  0  0  0  0  0  0
   -0.1696   -1.0673   -1.5526 H   0  0  0  0  0  0  0  0  0  0  0  0
    0.2469    0.6496   -1.5760 H   0  0  0  0  0  0  0  0  0  0  0  0
    1.8567   -0.6370   -0.9621 C   0  0  0  0  0  0  0  0  0  0  0  0
    2.4419    0.1395   -1.4549 H   0  0  0  0  0  0  0  0  0  0  0  0
    2.1695   -0.7128    0.0786 H   0  0  0  0  0  0  0  0  0  0  0  0
    2.1580   -1.9670   -1.6453 C   0  0  0  0  0  0  0  0  0  0  0  0
    1.3167   -2.7412   -2.0727 O   0  0  0  0  0  0  0  0  0  0  0  0
    3.4624   -2.2798   -1.7555 O   0  0  0  0  0  0  0  0  0  0  0  0
    3.4799   -3.1356   -2.1875 H   0  0  0  0  0  0  0  0  0  0  0  0
   -0.4860    1.3537    0.7622 C   0  0  0  0  0  0  0  0  0  0  0  0
   -1.3956    2.0096    0.2582 O   0  0  0  0  0  0  0  0  0  0  0  0
    0.3741    1.8728    1.6466 N   0  0  0  0  0  0  0  0  0  0  0  0
    1.0814    1.2667    2.0345 H   0  0  0  0  0  0  0  0  0  0  0  0
    0.3380    3.2610    2.1024 C   0  0  0  0  0  0  0  0  0  0  0  0
   -0.6389    3.4820    2.5363 H   0  0  0  0  0  0  0  0  0  0  0  0
    1.1108    3.4337    2.8528 H   0  0  0  0  0  0  0  0  0  0  0  0
    0.5009    3.9312    1.2562 H   0  0  0  0  0  0  0  0  0  0  0  0
  5  6  2  0  0  0  0
  5  7  1  0  0  0  0
  2  3  1  0  0  0  0
  2  4  1  0  0  0  0
  2  5  1  0  0  0  0
  1  2  1  0  0  0  0
 21 22  2  0  0  0  0
 21 23  1  0  0  0  0
 19 20  1  0  0  0  0
 17 18  2  0  0  0  0
 17 19  1  0  0  0  0
 14 15  1  0  0  0  0
 14 16  1  0  0  0  0
 14 17  1  0  0  0  0
 11 12  1  0  0  0  0
 11 13  1  0  0  0  0
 11 14  1  0  0  0  0
  9 10  1  0  0  0  0
  9 11  1  0  0  0  0
  9 21  1  0  0  0  0
  7  8  1  0  0  0  0
  7  9  1  0  0  0  0
 25 26  1  0  0  0  0
 25 27  1  0  0  0  0
 25 28  1  0  0  0  0
 23 24  1  0  0  0  0
 23 25  1  0  0  0  0
M  END
$$$$
default_name
  -OEChem-02102213163D

 28 27  0     1  0  0  0  0  0999 V2000
   -3.2133   -3.5565    1.2809 H   0  0  0  0  0  0  0  0  0  0  0  0
   -3.1873   -2.5755    0.8089 C   0  0  0  0  0  0  0  0  0  0  0  0
   -3.8793   -1.9065    1.3169 H   0  0  0  0  0  0  0  0  0  0  0  0
   -3.4623   -2.6685   -0.2401 H   0  0  0  0  0  0  0  0  0  0  0  0
   -1.7863   -2.0195    0.9119 C   0  0  0  0  0  0  0  0  0  0  0  0
   -0.9073   -2.6615    1.4699 O   0  0  0  0  0  0  0  0  0  0  0  0
   -1.5803   -0.8195    0.3749 N   0  0  0  0  0  0  0  0  0  0  0  0
   -2.3603   -0.3345   -0.0451 H   0  0  0  0  0  0  0  0  0  0  0  0
   -0.2933   -0.1205    0.3719 C   0  0  1  0  0  0  0  0  0  0  0  0
    0.3577   -0.5843    1.1143 H   0  0  0  0  0  0  0  0  0  0  0  0
    0.3613   -0.2794   -1.0156 C   0  0  0  0  0  0  0  0  0  0  0  0
   -0.1696   -1.0673   -1.5526 H   0  0  0  0  0  0  0  0  0  0  0  0
    0.2469    0.6496   -1.5760 H   0  0  0  0  0  0  0  0  0  0  0  0
    1.8567   -0.6370   -0.9621 C   0  0  0  0  0  0  0  0  0  0  0  0
    2.4570    0.2393   -1.2071 H   0  0  0  0  0  0  0  0  0  0  0  0
    2.1088   -0.9720    0.0433 H   0  0  0  0  0  0  0  0  0  0  0  0
    2.2199   -1.7517   -1.9378 C   0  0  0  0  0  0  0  0  0  0  0  0
    1.4183   -2.3944   -2.5968 O   0  0  0  0  0  0  0  0  0  0  0  0
    3.5336   -2.0250   -2.0430 O   0  0  0  0  0  0  0  0  0  0  0  0
    3.5908   -2.7444   -2.6742 H   0  0  0  0  0  0  0  0  0  0  0  0
   -0.4860    1.3537    0.7622 C   0  0  0  0  0  0  0  0  0  0  0  0
   -1.3956    2.0096    0.2582 O   0  0  0  0  0  0  0  0  0  0  0  0
    0.3741    1.8728    1.6466 N   0  0  0  0  0  0  0  0  0  0  0  0
    1.0814    1.2667    2.0345 H   0  0  0  0  0  0  0  0  0  0  0  0
    0.3380    3.2610    2.1024 C   0  0  0  0  0  0  0  0  0  0  0  0
   -0.6389    3.4820    2.5363 H   0  0  0  0  0  0  0  0  0  0  0  0
    1.1108    3.4337    2.8528 H   0  0  0  0  0  0  0  0  0  0  0  0
    0.5009    3.9312    1.2562 H   0  0  0  0  0  0  0  0  0  0  0  0
  5  6  2  0  0  0  0
  5  7  1  0  0  0  0
  2  3  1  0  0  0  0
  2  4  1  0  0  0  0
  2  5  1  0  0  0  0
  1  2  1  0  0  0  0
 21 22  2  0  0  0  0
 21 23  1  0  0  0  0
 19 20  1  0  0  0  0
 17 18  2  0  0  0  0
 17 19  1  0  0  0  0
 14 15  1  0  0  0  0
 14 16  1  0  0  0  0
 14 17  1  0  0  0  0
 11 12  1  0  0  0  0
 11 13  1  0  0  0  0
 11 14  1  0  0  0  0
  9 10  1  0  0  0  0
  9 11  1  0  0  0  0
  9 21  1  0  0  0  0
  7  8  1  0  0  0  0
  7  9  1  0  0  0  0
 25 26  1  0  0  0  0
 25 27  1  0  0  0  0
 25 28  1  0  0  0  0
 23 24  1  0  0  0  0
 23 25  1  0  0  0  0
M  END
$$$$
default_name
  -OEChem-02102213163D

 28 27  0     1  0  0  0  0  0999 V2000
   -3.2133   -3.5565    1.2809 H   0  0  0  0  0  0  0  0  0  0  0  0
   -3.1873   -2.5755    0.8089 C   0  0  0  0  0  0  0  0  0  0  0  0
   -3.8793   -1.9065    1.3169 H   0  0  0  0  0  0  0  0  0  0  0  0
   -3.4623   -2.6685   -0.2401 H   0  0  0  0  0  0  0  0  0  0  0  0
   -1.7863   -2.0195    0.9119 C   0  0  0  0  0  0  0  0  0  0  0  0
   -0.9073   -2.6615    1.4699 O   0  0  0  0  0  0  0  0  0  0  0  0
   -1.5803   -0.8195    0.3749 N   0  0  0  0  0  0  0  0  0  0  0  0
   -2.3603   -0.3345   -0.0451 H   0  0  0  0  0  0  0  0  0  0  0  0
   -0.2933   -0.1205    0.3719 C   0  0  1  0  0  0  0  0  0  0  0  0
    0.3577   -0.5843    1.1143 H   0  0  0  0  0  0  0  0  0  0  0  0
    0.3613   -0.2794   -1.0156 C   0  0  0  0  0  0  0  0  0  0  0  0
   -0.1696   -1.0673   -1.5526 H   0  0  0  0  0  0  0  0  0  0  0  0
    0.2469    0.6496   -1.5760 H   0  0  0  0  0  0  0  0  0  0  0  0
    1.8567   -0.6370   -0.9621 C   0  0  0  0  0  0  0  0  0  0  0  0
    2.4557    0.2736   -0.9418 H   0  0  0  0  0  0  0  0  0  0  0  0
    2.0546   -1.2141   -0.0596 H   0  0  0  0  0  0  0  0  0  0  0  0
    2.2954   -1.4696   -2.1624 C   0  0  0  0  0  0  0  0  0  0  0  0
    1.5449   -1.9266   -3.0096 O   0  0  0  0  0  0  0  0  0  0  0  0
    3.6174   -1.7059   -2.2522 O   0  0  0  0  0  0  0  0  0  0  0  0
    3.7238   -2.2430   -3.0392 H   0  0  0  0  0  0  0  0  0  0  0  0
   -0.4860    1.3537    0.7622 C   0  0  0  0  0  0  0  0  0  0  0  0
   -1.3956    2.0096    0.2582 O   0  0  0  0  0  0  0  0  0  0  0  0
    0.3741    1.8728    1.6466 N   0  0  0  0  0  0  0  0  0  0  0  0
    1.0814    1.2667    2.0345 H   0  0  0  0  0  0  0  0  0  0  0  0
    0.3380    3.2610    2.1024 C   0  0  0  0  0  0  0  0  0  0  0  0
   -0.6389    3.4820    2.5363 H   0  0  0  0  0  0  0  0  0  0  0  0
    1.1108    3.4337    2.8528 H   0  0  0  0  0  0  0  0  0  0  0  0
    0.5009    3.9312    1.2562 H   0  0  0  0  0  0  0  0  0  0  0  0
  5  6  2  0  0  0  0
  5  7  1  0  0  0  0
  2  3  1  0  0  0  0
  2  4  1  0  0  0  0
  2  5  1  0  0  0  0
  1  2  1  0  0  0  0
 21 22  2  0  0  0  0
 21 23  1  0  0  0  0
 19 20  1  0  0  0  0
 17 18  2  0  0  0  0
 17 19  1  0  0  0  0
 14 15  1  0  0  0  0
 14 16  1  0  0  0  0
 14 17  1  0  0  0  0
 11 12  1  0  0  0  0
 11 13  1  0  0  0  0
 11 14  1  0  0  0  0
  9 10  1  0  0  0  0
  9 11  1  0  0  0  0
  9 21  1  0  0  0  0
  7  8  1  0  0  0  0
  7  9  1  0  0  0  0
 25 26  1  0  0  0  0
 25 27  1  0  0  0  0
 25 28  1  0  0  0  0
 23 24  1  0  0  0  0
 23 25  1  0  0  0  0
M  END
$$$$
default_name
  -OEChem-02102213163D

 28 27  0     1  0  0  0  0  0999 V2000
   -3.2133   -3.5565    1.2809 H   0  0  0  0  0  0  0  0  0  0  0  0
   -3.1873   -2.5755    0.8089 C   0  0  0  0  0  0  0  0  0  0  0  0
   -3.8793   -1.9065    1.3169 H   0  0  0  0  0  0  0  0  0  0  0  0
   -3.4623   -2.6685   -0.2401 H   0  0  0  0  0  0  0  0  0  0  0  0
   -1.7863   -2.0195    0.9119 C   0  0  0  0  0  0  0  0  0  0  0  0
   -0.9073   -2.6615    1.4699 O   0  0  0  0  0  0  0  0  0  0  0  0
   -1.5803   -0.8195    0.3749 N   0  0  0  0  0  0  0  0  0  0  0  0
   -2.3603   -0.3345   -0.0451 H   0  0  0  0  0  0  0  0  0  0  0  0
   -0.2933   -0.1205    0.3719 C   0  0  1  0  0  0  0  0  0  0  0  0
    0.3577   -0.5843    1.1143 H   0  0  0  0  0  0  0  0  0  0  0  0
    0.3613   -0.2794   -1.0156 C   0  0  0  0  0  0  0  0  0  0  0  0
   -0.1696   -1.0673   -1.5526 H   0  0  0  0  0  0  0  0  0  0  0  0
    0.2469    0.6496   -1.5760 H   0  0  0  0  0  0  0  0  0  0  0  0
    1.8567   -0.6370   -0.9621 C   0  0  0  0  0  0  0  0  0  0  0  0
    2.4381    0.2399   -0.6770 H   0  0  0  0  0  0  0  0  0  0  0  0
    2.0106   -1.4225   -0.2233 H   0  0  0  0  0  0  0  0  0  0  0  0
    2.3793   -1.1399   -2.3039 C   0  0  0  0  0  0  0  0  0  0  0  0
    1.6878   -1.3698   -3.2832 O   0  0  0  0  0  0  0  0  0  0  0  0
    3.7080   -1.3442   -2.3690 O   0  0  0  0  0  0  0  0  0  0  0  0
    3.8696   -1.6657   -3.2577 H   0  0  0  0  0  0  0  0  0  0  0  0
   -0.4860    1.3537    0.7622 C   0  0  0  0  0  0  0  0  0  0  0  0
   -1.3956    2.0096    0.2582 O   0  0  0  0  0  0  0  0  0  0  0  0
    0.3741    1.8728    1.6466 N   0  0  0  0  0  0  0  0  0  0  0  0
    1.0814    1.2667    2.0345 H   0  0  0  0  0  0  0  0  0  0  0  0
    0.3380    3.2610    2.1024 C   0  0  0  0  0  0  0  0  0  0  0  0
   -0.6389    3.4820    2.5363 H   0  0  0  0  0  0  0  0  0  0  0  0
    1.1108    3.4337    2.8528 H   0  0  0  0  0  0  0  0  0  0  0  0
    0.5009    3.9312    1.2562 H   0  0  0  0  0  0  0  0  0  0  0  0
  5  6  2  0  0  0  0
  5  7  1  0  0  0  0
  2  3  1  0  0  0  0
  2  4  1  0  0  0  0
  2  5  1  0  0  0  0
  1  2  1  0  0  0  0
 21 22  2  0  0  0  0
 21 23  1  0  0  0  0
 19 20  1  0  0  0  0
 17 18  2  0  0  0  0
 17 19  1  0  0  0  0
 14 15  1  0  0  0  0
 14 16  1  0  0  0  0
 14 17  1  0  0  0  0
 11 12  1  0  0  0  0
 11 13  1  0  0  0  0
 11 14  1  0  0  0  0
  9 10  1  0  0  0  0
  9 11  1  0  0  0  0
  9 21  1  0  0  0  0
  7  8  1  0  0  0  0
  7  9  1  0  0  0  0
 25 26  1  0  0  0  0
 25 27  1  0  0  0  0
 25 28  1  0  0  0  0
 23 24  1  0  0  0  0
 23 25  1  0  0  0  0
M  END
$$$$
default_name
  -OEChem-02102213163D

 28 27  0     1  0  0  0  0  0999 V2000
   -3.2133   -3.5565    1.2809 H   0  0  0  0  0  0  0  0  0  0  0  0
   -3.1873   -2.5755    0.8089 C   0  0  0  0  0  0  0  0  0  0  0  0
   -3.8793   -1.9065    1.3169 H   0  0  0  0  0  0  0  0  0  0  0  0
   -3.4623   -2.6685   -0.2401 H   0  0  0  0  0  0  0  0  0  0  0  0
   -1.7863   -2.0195    0.9119 C   0  0  0  0  0  0  0  0  0  0  0  0
   -0.9073   -2.6615    1.4699 O   0  0  0  0  0  0  0  0  0  0  0  0
   -1.5803   -0.8195    0.3749 N   0  0  0  0  0  0  0  0  0  0  0  0
   -2.3603   -0.3345   -0.0451 H   0  0  0  0  0  0  0  0  0  0  0  0
   -0.2933   -0.1205    0.3719 C   0  0  1  0  0  0  0  0  0  0  0  0
    0.3577   -0.5843    1.1143 H   0  0  0  0  0  0  0  0  0  0  0  0
    0.3613   -0.2794   -1.0156 C   0  0  0  0  0  0  0  0  0  0  0  0
   -0.3157   -0.8591   -1.6454 H   0  0  0  0  0  0  0  0  0  0  0  0
    0.4873    0.7048   -1.4689 H   0  0  0  0  0  0  0  0  0  0  0  0
    1.7301   -0.9810   -0.9824 C   0  0  0  0  0  0  0  0  0  0  0  0
    2.4224   -0.4150   -0.3591 H   0  0  0  0  0  0  0  0  0  0  0  0
    1.6101   -1.9802   -0.5653 H   0  0  0  0  0  0  0  0  0  0  0  0
    2.3431   -1.1185   -2.3723 C   0  0  0  0  0  0  0  0  0  0  0  0
    1.7790   -0.8372   -3.4175 O   0  0  0  0  0  0  0  0  0  0  0  0
    3.5991   -1.6011   -2.4069 O   0  0  0  0  0  0  0  0  0  0  0  0
    3.8288   -1.6375   -3.3371 H   0  0  0  0  0  0  0  0  0  0  0  0
   -0.4860    1.3537    0.7622 C   0  0  0  0  0  0  0  0  0  0  0  0
   -1.3956    2.0096    0.2582 O   0  0  0  0  0  0  0  0  0  0  0  0
    0.3741    1.8728    1.6466 N   0  0  0  0  0  0  0  0  0  0  0  0
    1.0814    1.2667    2.0345 H   0  0  0  0  0  0  0  0  0  0  0  0
    0.3380    3.2610    2.1024 C   0  0  0  0  0  0  0  0  0  0  0  0
   -0.6389    3.4820    2.5363 H   0  0  0  0  0  0  0  0  0  0  0  0
    1.1108    3.4337    2.8528 H   0  0  0  0  0  0  0  0  0  0  0  0
    0.5009    3.9312    1.2562 H   0  0  0  0  0  0  0  0  0  0  0  0
  5  6  2  0  0  0  0
  5  7  1  0  0  0  0
  2  3  1  0  0  0  0
  2  4  1  0  0  0  0
  2  5  1  0  0  0  0
  1  2  1  0  0  0  0
 21 22  2  0  0  0  0
 21 23  1  0  0  0  0
 19 20  1  0  0  0  0
 17 18  2  0  0  0  0
 17 19  1  0  0  0  0
 14 15  1  0  0  0  0
 14 16  1  0  0  0  0
 14 17  1  0  0  0  0
 11 12  1  0  0  0  0
 11 13  1  0  0  0  0
 11 14  1  0  0  0  0
  9 10  1  0  0  0  0
  9 11  1  0  0  0  0
  9 21  1  0  0  0  0
  7  8  1  0  0  0  0
  7  9  1  0  0  0  0
 25 26  1  0  0  0  0
 25 27  1  0  0  0  0
 25 28  1  0  0  0  0
 23 24  1  0  0  0  0
 23 25  1  0  0  0  0
M  END
$$$$
default_name
  -OEChem-02102213163D

 28 27  0     1  0  0  0  0  0999 V2000
   -3.2133   -3.5565    1.2809 H   0  0  0  0  0  0  0  0  0  0  0  0
   -3.1873   -2.5755    0.8089 C   0  0  0  0  0  0  0  0  0  0  0  0
   -3.8793   -1.9065    1.3169 H   0  0  0  0  0  0  0  0  0  0  0  0
   -3.4623   -2.6685   -0.2401 H   0  0  0  0  0  0  0  0  0  0  0  0
   -1.7863   -2.0195    0.9119 C   0  0  0  0  0  0  0  0  0  0  0  0
   -0.9073   -2.6615    1.4699 O   0  0  0  0  0  0  0  0  0  0  0  0
   -1.5803   -0.8195    0.3749 N   0  0  0  0  0  0  0  0  0  0  0  0
   -2.3603   -0.3345   -0.0451 H   0  0  0  0  0  0  0  0  0  0  0  0
   -0.2933   -0.1205    0.3719 C   0  0  1  0  0  0  0  0  0  0  0  0
    0.3577   -0.5843    1.1143 H   0  0  0  0  0  0  0  0  0  0  0  0
    0.3613   -0.2794   -1.0156 C   0  0  0  0  0  0  0  0  0  0  0  0
   -0.3157   -0.8591   -1.6454 H   0  0  0  0  0  0  0  0  0  0  0  0
    0.4873    0.7048   -1.4689 H   0  0  0  0  0  0  0  0  0  0  0  0
    1.7301   -0.9810   -0.9824 C   0  0  0  0  0  0  0  0  0  0  0  0
    2.3334   -0.5798   -0.1680 H   0  0  0  0  0  0  0  0  0  0  0  0
    1.5813   -2.0484   -0.8235 H   0  0  0  0  0  0  0  0  0  0  0  0
    2.5046   -0.7994   -2.2838 C   0  0  0  0  0  0  0  0  0  0  0  0
    2.0617   -0.2799   -3.2957 O   0  0  0  0  0  0  0  0  0  0  0  0
    3.7651   -1.2713   -2.2791 O   0  0  0  0  0  0  0  0  0  0  0  0
    4.1030   -1.0941   -3.1587 H   0  0  0  0  0  0  0  0  0  0  0  0
   -0.4860    1.3537    0.7622 C   0  0  0  0  0  0  0  0  0  0  0  0
   -1.3956    2.0096    0.2582 O   0  0  0  0  0  0  0  0  0  0  0  0
    0.3741    1.8728    1.6466 N   0  0  0  0  0  0  0  0  0  0  0  0
    1.0814    1.2667    2.0345 H   0  0  0  0  0  0  0  0  0  0  0  0
    0.3380    3.2610    2.1024 C   0  0  0  0  0  0  0  0  0  0  0  0
   -0.6389    3.4820    2.5363 H   0  0  0  0  0  0  0  0  0  0  0  0
    1.1108    3.4337    2.8528 H   0  0  0  0  0  0  0  0  0  0  0  0
    0.5009    3.9312    1.2562 H   0  0  0  0  0  0  0  0  0  0  0  0
  5  6  2  0  0  0  0
  5  7  1  0  0  0  0
  2  3  1  0  0  0  0
  2  4  1  0  0  0  0
  2  5  1  0  0  0  0
  1  2  1  0  0  0  0
 21 22  2  0  0  0  0
 21 23  1  0  0  0  0
 19 20  1  0  0  0  0
 17 18  2  0  0  0  0
 17 19  1  0  0  0  0
 14 15  1  0  0  0  0
 14 16  1  0  0  0  0
 14 17  1  0  0  0  0
 11 12  1  0  0  0  0
 11 13  1  0  0  0  0
 11 14  1  0  0  0  0
  9 10  1  0  0  0  0
  9 11  1  0  0  0  0
  9 21  1  0  0  0  0
  7  8  1  0  0  0  0
  7  9  1  0  0  0  0
 25 26  1  0  0  0  0
 25 27  1  0  0  0  0
 25 28  1  0  0  0  0
 23 24  1  0  0  0  0
 23 25  1  0  0  0  0
M  END
$$$$
default_name
  -OEChem-02102213163D

 28 27  0     1  0  0  0  0  0999 V2000
   -3.2133   -3.5565    1.2809 H   0  0  0  0  0  0  0  0  0  0  0  0
   -3.1873   -2.5755    0.8089 C   0  0  0  0  0  0  0  0  0  0  0  0
   -3.8793   -1.9065    1.3169 H   0  0  0  0  0  0  0  0  0  0  0  0
   -3.4623   -2.6685   -0.2401 H   0  0  0  0  0  0  0  0  0  0  0  0
   -1.7863   -2.0195    0.9119 C   0  0  0  0  0  0  0  0  0  0  0  0
   -0.9073   -2.6615    1.4699 O   0  0  0  0  0  0  0  0  0  0  0  0
   -1.5803   -0.8195    0.3749 N   0  0  0  0  0  0  0  0  0  0  0  0
   -2.3603   -0.3345   -0.0451 H   0  0  0  0  0  0  0  0  0  0  0  0
   -0.2933   -0.1205    0.3719 C   0  0  1  0  0  0  0  0  0  0  0  0
    0.3577   -0.5843    1.1143 H   0  0  0  0  0  0  0  0  0  0  0  0
    0.3613   -0.2794   -1.0156 C   0  0  0  0  0  0  0  0  0  0  0  0
   -0.3157   -0.8591   -1.6454 H   0  0  0  0  0  0  0  0  0  0  0  0
    0.4873    0.7048   -1.4689 H   0  0  0  0  0  0  0  0  0  0  0  0
    1.7301   -0.9810   -0.9824 C   0  0  0  0  0  0  0  0  0  0  0  0
    2.2257   -0.7834   -0.0319 H   0  0  0  0  0  0  0  0  0  0  0  0
    1.5845   -2.0550   -1.0920 H   0  0  0  0  0  0  0  0  0  0  0  0
    2.6483   -0.5105   -2.1058 C   0  0  0  0  0  0  0  0  0  0  0  0
    2.3173    0.2319   -3.0164 O   0  0  0  0  0  0  0  0  0  0  0  0
    3.9085   -0.9812   -2.0602 O   0  0  0  0  0  0  0  0  0  0  0  0
    4.3438   -0.6087   -2.8290 H   0  0  0  0  0  0  0  0  0  0  0  0
   -0.4860    1.3537    0.7622 C   0  0  0  0  0  0  0  0  0  0  0  0
   -1.3956    2.0096    0.2582 O   0  0  0  0  0  0  0  0  0  0  0  0
    0.3741    1.8728    1.6466 N   0  0  0  0  0  0  0  0  0  0  0  0
    1.0814    1.2667    2.0345 H   0  0  0  0  0  0  0  0  0  0  0  0
    0.3380    3.2610    2.1024 C   0  0  0  0  0  0  0  0  0  0  0  0
   -0.6389    3.4820    2.5363 H   0  0  0  0  0  0  0  0  0  0  0  0
    1.1108    3.4337    2.8528 H   0  0  0  0  0  0  0  0  0  0  0  0
    0.5009    3.9312    1.2562 H   0  0  0  0  0  0  0  0  0  0  0  0
  5  6  2  0  0  0  0
  5  7  1  0  0  0  0
  2  3  1  0  0  0  0
  2  4  1  0  0  0  0
  2  5  1  0  0  0  0
  1  2  1  0  0  0  0
 21 22  2  0  0  0  0
 21 23  1  0  0  0  0
 19 20  1  0  0  0  0
 17 18  2  0  0  0  0
 17 19  1  0  0  0  0
 14 15  1  0  0  0  0
 14 16  1  0  0  0  0
 14 17  1  0  0  0  0
 11 12  1  0  0  0  0
 11 13  1  0  0  0  0
 11 14  1  0  0  0  0
  9 10  1  0  0  0  0
  9 11  1  0  0  0  0
  9 21  1  0  0  0  0
  7  8  1  0  0  0  0
  7  9  1  0  0  0  0
 25 26  1  0  0  0  0
 25 27  1  0  0  0  0
 25 28  1  0  0  0  0
 23 24  1  0  0  0  0
 23 25  1  0  0  0  0
M  END
$$$$
default_name
  -OEChem-02102213163D

 28 27  0     1  0  0  0  0  0999 V2000
   -3.2133   -3.5565    1.2809 H   0  0  0  0  0  0  0  0  0  0  0  0
   -3.1873   -2.5755    0.8089 C   0  0  0  0  0  0  0  0  0  0  0  0
   -3.8793   -1.9065    1.3169 H   0  0  0  0  0  0  0  0  0  0  0  0
   -3.4623   -2.6685   -0.2401 H   0  0  0  0  0  0  0  0  0  0  0  0
   -1.7863   -2.0195    0.9119 C   0  0  0  0  0  0  0  0  0  0  0  0
   -0.9073   -2.6615    1.4699 O   0  0  0  0  0  0  0  0  0  0  0  0
   -1.5803   -0.8195    0.3749 N   0  0  0  0  0  0  0  0  0  0  0  0
   -2.3603   -0.3345   -0.0451 H   0  0  0  0  0  0  0  0  0  0  0  0
   -0.2933   -0.1205    0.3719 C   0  0  1  0  0  0  0  0  0  0  0  0
    0.3577   -0.5843    1.1143 H   0  0  0  0  0  0  0  0  0  0  0  0
    0.3613   -0.2794   -1.0156 C   0  0  0  0  0  0  0  0  0  0  0  0
   -0.3157   -0.8591   -1.6454 H   0  0  0  0  0  0  0  0  0  0  0  0
    0.4873    0.7048   -1.4689 H   0  0  0  0  0  0  0  0  0  0  0  0
    1.7301   -0.9810   -0.9824 C   0  0  0  0  0  0  0  0  0  0  0  0
    2.1068   -1.0120    0.0400 H   0  0  0  0  0  0  0  0  0  0  0  0
    1.6192   -1.9996   -1.3526 H   0  0  0  0  0  0  0  0  0  0  0  0
    2.7645   -0.2717   -1.8504 C   0  0  0  0  0  0  0  0  0  0  0  0
    2.5283    0.6633   -2.5985 O   0  0  0  0  0  0  0  0  0  0  0  0
    4.0195   -0.7507   -1.7650 O   0  0  0  0  0  0  0  0  0  0  0  0
    4.5347   -0.2145   -2.3703 H   0  0  0  0  0  0  0  0  0  0  0  0
   -0.4860    1.3537    0.7622 C   0  0  0  0  0  0  0  0  0  0  0  0
   -1.3956    2.0096    0.2582 O   0  0  0  0  0  0  0  0  0  0  0  0
    0.3741    1.8728    1.6466 N   0  0  0  0  0  0  0  0  0  0  0  0
    1.0814    1.2667    2.0345 H   0  0  0  0  0  0  0  0  0  0  0  0
    0.3380    3.2610    2.1024 C   0  0  0  0  0  0  0  0  0  0  0  0
   -0.6389    3.4820    2.5363 H   0  0  0  0  0  0  0  0  0  0  0  0
    1.1108    3.4337    2.8528 H   0  0  0  0  0  0  0  0  0  0  0  0
    0.5009    3.9312    1.2562 H   0  0  0  0  0  0  0  0  0  0  0  0
  5  6  2  0  0  0  0
  5  7  1  0  0  0  0
  2  3  1  0  0  0  0
  2  4  1  0  0  0  0
  2  5  1  0  0  0  0
  1  2  1  0  0  0  0
 21 22  2  0  0  0  0
 21 23  1  0  0  0  0
 19 20  1  0  0  0  0
 17 18  2  0  0  0  0
 17 19  1  0  0  0  0
 14 15  1  0  0  0  0
 14 16  1  0  0  0  0
 14 17  1  0  0  0  0
 11 12  1  0  0  0  0
 11 13  1  0  0  0  0
 11 14  1  0  0  0  0
  9 10  1  0  0  0  0
  9 11  1  0  0  0  0
  9 21  1  0  0  0  0
  7  8  1  0  0  0  0
  7  9  1  0  0  0  0
 25 26  1  0  0  0  0
 25 27  1  0  0  0  0
 25 28  1  0  0  0  0
 23 24  1  0  0  0  0
 23 25  1  0  0  0  0
M  END
$$$$
default_name
  -OEChem-02102213163D

 28 27  0     1  0  0  0  0  0999 V2000
   -3.2133   -3.5565    1.2809 H   0  0  0  0  0  0  0  0  0  0  0  0
   -3.1873   -2.5755    0.8089 C   0  0  0  0  0  0  0  0  0  0  0  0
   -3.8793   -1.9065    1.3169 H   0  0  0  0  0  0  0  0  0  0  0  0
   -3.4623   -2.6685   -0.2401 H   0  0  0  0  0  0  0  0  0  0  0  0
   -1.7863   -2.0195    0.9119 C   0  0  0  0  0  0  0  0  0  0  0  0
   -0.9073   -2.6615    1.4699 O   0  0  0  0  0  0  0  0  0  0  0  0
   -1.5803   -0.8195    0.3749 N   0  0  0  0  0  0  0  0  0  0  0  0
   -2.3603   -0.3345   -0.0451 H   0  0  0  0  0  0  0  0  0  0  0  0
   -0.2933   -0.1205    0.3719 C   0  0  1  0  0  0  0  0  0  0  0  0
    0.3577   -0.5843    1.1143 H   0  0  0  0  0  0  0  0  0  0  0  0
    0.3613   -0.2794   -1.0156 C   0  0  0  0  0  0  0  0  0  0  0  0
   -0.3157   -0.8591   -1.6454 H   0  0  0  0  0  0  0  0  0  0  0  0
    0.4873    0.7048   -1.4689 H   0  0  0  0  0  0  0  0  0  0  0  0
    1.7301   -0.9810   -0.9824 C   0  0  0  0  0  0  0  0  0  0  0  0
    1.9847   -1.2501    0.0428 H   0  0  0  0  0  0  0  0  0  0  0  0
    1.6832   -1.8858   -1.5873 H   0  0  0  0  0  0  0  0  0  0  0  0
    2.8453   -0.0993   -1.5350 C   0  0  0  0  0  0  0  0  0  0  0  0
    2.6805    0.9850   -2.0706 O   0  0  0  0  0  0  0  0  0  0  0  0
    4.0906   -0.5953   -1.4137 O   0  0  0  0  0  0  0  0  0  0  0  0
    4.6628    0.0617   -1.8139 H   0  0  0  0  0  0  0  0  0  0  0  0
   -0.4860    1.3537    0.7622 C   0  0  0  0  0  0  0  0  0  0  0  0
   -1.3956    2.0096    0.2582 O   0  0  0  0  0  0  0  0  0  0  0  0
    0.3741    1.8728    1.6466 N   0  0  0  0  0  0  0  0  0  0  0  0
    1.0814    1.2667    2.0345 H   0  0  0  0  0  0  0  0  0  0  0  0
    0.3380    3.2610    2.1024 C   0  0  0  0  0  0  0  0  0  0  0  0
   -0.6389    3.4820    2.5363 H   0  0  0  0  0  0  0  0  0  0  0  0
    1.1108    3.4337    2.8528 H   0  0  0  0  0  0  0  0  0  0  0  0
    0.5009    3.9312    1.2562 H   0  0  0  0  0  0  0  0  0  0  0  0
  5  6  2  0  0  0  0
  5  7  1  0  0  0  0
  2  3  1  0  0  0  0
  2  4  1  0  0  0  0
  2  5  1  0  0  0  0
  1  2  1  0  0  0  0
 21 22  2  0  0  0  0
 21 23  1  0  0  0  0
 19 20  1  0  0  0  0
 17 18  2  0  0  0  0
 17 19  1  0  0  0  0
 14 15  1  0  0  0  0
 14 16  1  0  0  0  0
 14 17  1  0  0  0  0
 11 12  1  0  0  0  0
 11 13  1  0  0  0  0
 11 14  1  0  0  0  0
  9 10  1  0  0  0  0
  9 11  1  0  0  0  0
  9 21  1  0  0  0  0
  7  8  1  0  0  0  0
  7  9  1  0  0  0  0
 25 26  1  0  0  0  0
 25 27  1  0  0  0  0
 25 28  1  0  0  0  0
 23 24  1  0  0  0  0
 23 25  1  0  0  0  0
M  END
$$$$
default_name
  -OEChem-02102213163D

 28 27  0     1  0  0  0  0  0999 V2000
   -3.2133   -3.5565    1.2809 H   0  0  0  0  0  0  0  0  0  0  0  0
   -3.1873   -2.5755    0.8089 C   0  0  0  0  0  0  0  0  0  0  0  0
   -3.8793   -1.9065    1.3169 H   0  0  0  0  0  0  0  0  0  0  0  0
   -3.4623   -2.6685   -0.2401 H   0  0  0  0  0  0  0  0  0  0  0  0
   -1.7863   -2.0195    0.9119 C   0  0  0  0  0  0  0  0  0  0  0  0
   -0.9073   -2.6615    1.4699 O   0  0  0  0  0  0  0  0  0  0  0  0
   -1.5803   -0.8195    0.3749 N   0  0  0  0  0  0  0  0  0  0  0  0
   -2.3603   -0.3345   -0.0451 H   0  0  0  0  0  0  0  0  0  0  0  0
   -0.2933   -0.1205    0.3719 C   0  0  1  0  0  0  0  0  0  0  0  0
    0.3577   -0.5843    1.1143 H   0  0  0  0  0  0  0  0  0  0  0  0
    0.3613   -0.2794   -1.0156 C   0  0  0  0  0  0  0  0  0  0  0  0
   -0.3157   -0.8591   -1.6454 H   0  0  0  0  0  0  0  0  0  0  0  0
    0.4873    0.7048   -1.4689 H   0  0  0  0  0  0  0  0  0  0  0  0
    1.7301   -0.9810   -0.9824 C   0  0  0  0  0  0  0  0  0  0  0  0
    1.8678   -1.4813   -0.0238 H   0  0  0  0  0  0  0  0  0  0  0  0
    1.7721   -1.7215   -1.7803 H   0  0  0  0  0  0  0  0  0  0  0  0
    2.8851   -0.0048   -1.1811 C   0  0  0  0  0  0  0  0  0  0  0  0
    2.7633    1.1751   -1.4687 O   0  0  0  0  0  0  0  0  0  0  0  0
    4.1170   -0.5258   -1.0301 O   0  0  0  0  0  0  0  0  0  0  0  0
    4.7194    0.2011   -1.1978 H   0  0  0  0  0  0  0  0  0  0  0  0
   -0.4860    1.3537    0.7622 C   0  0  0  0  0  0  0  0  0  0  0  0
   -1.3956    2.0096    0.2582 O   0  0  0  0  0  0  0  0  0  0  0  0
    0.3741    1.8728    1.6466 N   0  0  0  0  0  0  0  0  0  0  0  0
    1.0814    1.2667    2.0345 H   0  0  0  0  0  0  0  0  0  0  0  0
    0.3380    3.2610    2.1024 C   0  0  0  0  0  0  0  0  0  0  0  0
   -0.6389    3.4820    2.5363 H   0  0  0  0  0  0  0  0  0  0  0  0
    1.1108    3.4337    2.8528 H   0  0  0  0  0  0  0  0  0  0  0  0
    0.5009    3.9312    1.2562 H   0  0  0  0  0  0  0  0  0  0  0  0
  5  6  2  0  0  0  0
  5  7  1  0  0  0  0
  2  3  1  0  0  0  0
  2  4  1  0  0  0  0
  2  5  1  0  0  0  0
  1  2  1  0  0  0  0
 21 22  2  0  0  0  0
 21 23  1  0  0  0  0
 19 20  1  0  0  0  0
 17 18  2  0  0  0  0
 17 19  1  0  0  0  0
 14 15  1  0  0  0  0
 14 16  1  0  0  0  0
 14 17  1  0  0  0  0
 11 12  1  0  0  0  0
 11 13  1  0  0  0  0
 11 14  1  0  0  0  0
  9 10  1  0  0  0  0
  9 11  1  0  0  0  0
  9 21  1  0  0  0  0
  7  8  1  0  0  0  0
  7  9  1  0  0  0  0
 25 26  1  0  0  0  0
 25 27  1  0  0  0  0
 25 28  1  0  0  0  0
 23 24  1  0  0  0  0
 23 25  1  0  0  0  0
M  END
$$$$
default_name
  -OEChem-02102213163D

 28 27  0     1  0  0  0  0  0999 V2000
   -3.2133   -3.5565    1.2809 H   0  0  0  0  0  0  0  0  0  0  0  0
   -3.1873   -2.5755    0.8089 C   0  0  0  0  0  0  0  0  0  0  0  0
   -3.8793   -1.9065    1.3169 H   0  0  0  0  0  0  0  0  0  0  0  0
   -3.4623   -2.6685   -0.2401 H   0  0  0  0  0  0  0  0  0  0  0  0
   -1.7863   -2.0195    0.9119 C   0  0  0  0  0  0  0  0  0  0  0  0
   -0.9073   -2.6615    1.4699 O   0  0  0  0  0  0  0  0  0  0  0  0
   -1.5803   -0.8195    0.3749 N   0  0  0  0  0  0  0  0  0  0  0  0
   -2.3603   -0.3345   -0.0451 H   0  0  0  0  0  0  0  0  0  0  0  0
   -0.2933   -0.1205    0.3719 C   0  0  1  0  0  0  0  0  0  0  0  0
    0.3577   -0.5843    1.1143 H   0  0  0  0  0  0  0  0  0  0  0  0
    0.3613   -0.2794   -1.0156 C   0  0  0  0  0  0  0  0  0  0  0  0
   -0.3157   -0.8591   -1.6454 H   0  0  0  0  0  0  0  0  0  0  0  0
    0.4873    0.7048   -1.4689 H   0  0  0  0  0  0  0  0  0  0  0  0
    1.7301   -0.9810   -0.9824 C   0  0  0  0  0  0  0  0  0  0  0  0
    1.7640   -1.6900   -0.1551 H   0  0  0  0  0  0  0  0  0  0  0  0
    1.8798   -1.5179   -1.9184 H   0  0  0  0  0  0  0  0  0  0  0  0
    2.8813    0.0051   -0.8128 C   0  0  0  0  0  0  0  0  0  0  0  0
    2.7712    1.2205   -0.8338 O   0  0  0  0  0  0  0  0  0  0  0  0
    4.0968   -0.5467   -0.6406 O   0  0  0  0  0  0  0  0  0  0  0  0
    4.7005    0.1942   -0.5639 H   0  0  0  0  0  0  0  0  0  0  0  0
   -0.4860    1.3537    0.7622 C   0  0  0  0  0  0  0  0  0  0  0  0
   -1.3956    2.0096    0.2582 O   0  0  0  0  0  0  0  0  0  0  0  0
    0.3741    1.8728    1.6466 N   0  0  0  0  0  0  0  0  0  0  0  0
    1.0814    1.2667    2.0345 H   0  0  0  0  0  0  0  0  0  0  0  0
    0.3380    3.2610    2.1024 C   0  0  0  0  0  0  0  0  0  0  0  0
   -0.6389    3.4820    2.5363 H   0  0  0  0  0  0  0  0  0  0  0  0
    1.1108    3.4337    2.8528 H   0  0  0  0  0  0  0  0  0  0  0  0
    0.5009    3.9312    1.2562 H   0  0  0  0  0  0  0  0  0  0  0  0
  5  6  2  0  0  0  0
  5  7  1  0  0  0  0
  2  3  1  0  0  0  0
  2  4  1  0  0  0  0
  2  5  1  0  0  0  0
  1  2  1  0  0  0  0
 21 22  2  0  0  0  0
 21 23  1  0  0  0  0
 19 20  1  0  0  0  0
 17 18  2  0  0  0  0
 17 19  1  0  0  0  0
 14 15  1  0  0  0  0
 14 16  1  0  0  0  0
 14 17  1  0  0  0  0
 11 12  1  0  0  0  0
 11 13  1  0  0  0  0
 11 14  1  0  0  0  0
  9 10  1  0  0  0  0
  9 11  1  0  0  0  0
  9 21  1  0  0  0  0
  7  8  1  0  0  0  0
  7  9  1  0  0  0  0
 25 26  1  0  0  0  0
 25 27  1  0  0  0  0
 25 28  1  0  0  0  0
 23 24  1  0  0  0  0
 23 25  1  0  0  0  0
M  END
$$$$
default_name
  -OEChem-02102213163D

 28 27  0     1  0  0  0  0  0999 V2000
   -3.2133   -3.5565    1.2809 H   0  0  0  0  0  0  0  0  0  0  0  0
   -3.1873   -2.5755    0.8089 C   0  0  0  0  0  0  0  0  0  0  0  0
   -3.8793   -1.9065    1.3169 H   0  0  0  0  0  0  0  0  0  0  0  0
   -3.4623   -2.6685   -0.2401 H   0  0  0  0  0  0  0  0  0  0  0  0
   -1.7863   -2.0195    0.9119 C   0  0  0  0  0  0  0  0  0  0  0  0
   -0.9073   -2.6615    1.4699 O   0  0  0  0  0  0  0  0  0  0  0  0
   -1.5803   -0.8195    0.3749 N   0  0  0  0  0  0  0  0  0  0  0  0
   -2.3603   -0.3345   -0.0451 H   0  0  0  0  0  0  0  0  0  0  0  0
   -0.2933   -0.1205    0.3719 C   0  0  1  0  0  0  0  0  0  0  0  0
    0.3577   -0.5843    1.1143 H   0  0  0  0  0  0  0  0  0  0  0  0
    0.3613   -0.2794   -1.0156 C   0  0  0  0  0  0  0  0  0  0  0  0
   -0.3157   -0.8591   -1.6454 H   0  0  0  0  0  0  0  0  0  0  0  0
    0.4873    0.7048   -1.4689 H   0  0  0  0  0  0  0  0  0  0  0  0
    1.7301   -0.9810   -0.9824 C   0  0  0  0  0  0  0  0  0  0  0  0
    1.6804   -1.8620   -0.3423 H   0  0  0  0  0  0  0  0  0  0  0  0
    1.9990   -1.2888   -1.9922 H   0  0  0  0  0  0  0  0  0  0  0  0
    2.8341   -0.0702   -0.4552 C   0  0  0  0  0  0  0  0  0  0  0  0
    2.7037    1.1182   -0.2090 O   0  0  0  0  0  0  0  0  0  0  0  0
    4.0315   -0.6568   -0.2715 O   0  0  0  0  0  0  0  0  0  0  0  0
    4.6075    0.0414    0.0446 H   0  0  0  0  0  0  0  0  0  0  0  0
   -0.4860    1.3537    0.7622 C   0  0  0  0  0  0  0  0  0  0  0  0
   -1.3956    2.0096    0.2582 O   0  0  0  0  0  0  0  0  0  0  0  0
    0.3741    1.8728    1.6466 N   0  0  0  0  0  0  0  0  0  0  0  0
    1.0814    1.2667    2.0345 H   0  0  0  0  0  0  0  0  0  0  0  0
    0.3380    3.2610    2.1024 C   0  0  0  0  0  0  0  0  0  0  0  0
   -0.6389    3.4820    2.5363 H   0  0  0  0  0  0  0  0  0  0  0  0
    1.1108    3.4337    2.8528 H   0  0  0  0  0  0  0  0  0  0  0  0
    0.5009    3.9312    1.2562 H   0  0  0  0  0  0  0  0  0  0  0  0
  5  6  2  0  0  0  0
  5  7  1  0  0  0  0
  2  3  1  0  0  0  0
  2  4  1  0  0  0  0
  2  5  1  0  0  0  0
  1  2  1  0  0  0  0
 21 22  2  0  0  0  0
 21 23  1  0  0  0  0
 19 20  1  0  0  0  0
 17 18  2  0  0  0  0
 17 19  1  0  0  0  0
 14 15  1  0  0  0  0
 14 16  1  0  0  0  0
 14 17  1  0  0  0  0
 11 12  1  0  0  0  0
 11 13  1  0  0  0  0
 11 14  1  0  0  0  0
  9 10  1  0  0  0  0
  9 11  1  0  0  0  0
  9 21  1  0  0  0  0
  7  8  1  0  0  0  0
  7  9  1  0  0  0  0
 25 26  1  0  0  0  0
 25 27  1  0  0  0  0
 25 28  1  0  0  0  0
 23 24  1  0  0  0  0
 23 25  1  0  0  0  0
M  END
$$$$
default_name
  -OEChem-02102213163D

 28 27  0     1  0  0  0  0  0999 V2000
   -3.2133   -3.5565    1.2809 H   0  0  0  0  0  0  0  0  0  0  0  0
   -3.1873   -2.5755    0.8089 C   0  0  0  0  0  0  0  0  0  0  0  0
   -3.8793   -1.9065    1.3169 H   0  0  0  0  0  0  0  0  0  0  0  0
   -3.4623   -2.6685   -0.2401 H   0  0  0  0  0  0  0  0  0  0  0  0
   -1.7863   -2.0195    0.9119 C   0  0  0  0  0  0  0  0  0  0  0  0
   -0.9073   -2.6615    1.4699 O   0  0  0  0  0  0  0  0  0  0  0  0
   -1.5803   -0.8195    0.3749 N   0  0  0  0  0  0  0  0  0  0  0  0
   -2.3603   -0.3345   -0.0451 H   0  0  0  0  0  0  0  0  0  0  0  0
   -0.2933   -0.1205    0.3719 C   0  0  1  0  0  0  0  0  0  0  0  0
    0.3577   -0.5843    1.1143 H   0  0  0  0  0  0  0  0  0  0  0  0
    0.3613   -0.2794   -1.0156 C   0  0  0  0  0  0  0  0  0  0  0  0
   -0.3157   -0.8591   -1.6454 H   0  0  0  0  0  0  0  0  0  0  0  0
    0.4873    0.7048   -1.4689 H   0  0  0  0  0  0  0  0  0  0  0  0
    1.7301   -0.9810   -0.9824 C   0  0  0  0  0  0  0  0  0  0  0  0
    1.6227   -1.9854   -0.5726 H   0  0  0  0  0  0  0  0  0  0  0  0
    2.1216   -1.0498   -1.9967 H   0  0  0  0  0  0  0  0  0  0  0  0
    2.7467   -0.2254   -0.1327 C   0  0  0  0  0  0  0  0  0  0  0  0
    2.5653    0.8752    0.3629 O   0  0  0  0  0  0  0  0  0  0  0  0
    3.9254   -0.8485    0.0520 O   0  0  0  0  0  0  0  0  0  0  0  0
    4.4467   -0.2468    0.5863 H   0  0  0  0  0  0  0  0  0  0  0  0
   -0.4860    1.3537    0.7622 C   0  0  0  0  0  0  0  0  0  0  0  0
   -1.3956    2.0096    0.2582 O   0  0  0  0  0  0  0  0  0  0  0  0
    0.3741    1.8728    1.6466 N   0  0  0  0  0  0  0  0  0  0  0  0
    1.0814    1.2667    2.0345 H   0  0  0  0  0  0  0  0  0  0  0  0
    0.3380    3.2610    2.1024 C   0  0  0  0  0  0  0  0  0  0  0  0
   -0.6389    3.4820    2.5363 H   0  0  0  0  0  0  0  0  0  0  0  0
    1.1108    3.4337    2.8528 H   0  0  0  0  0  0  0  0  0  0  0  0
    0.5009    3.9312    1.2562 H   0  0  0  0  0  0  0  0  0  0  0  0
  5  6  2  0  0  0  0
  5  7  1  0  0  0  0
  2  3  1  0  0  0  0
  2  4  1  0  0  0  0
  2  5  1  0  0  0  0
  1  2  1  0  0  0  0
 21 22  2  0  0  0  0
 21 23  1  0  0  0  0
 19 20  1  0  0  0  0
 17 18  2  0  0  0  0
 17 19  1  0  0  0  0
 14 15  1  0  0  0  0
 14 16  1  0  0  0  0
 14 17  1  0  0  0  0
 11 12  1  0  0  0  0
 11 13  1  0  0  0  0
 11 14  1  0  0  0  0
  9 10  1  0  0  0  0
  9 11  1  0  0  0  0
  9 21  1  0  0  0  0
  7  8  1  0  0  0  0
  7  9  1  0  0  0  0
 25 26  1  0  0  0  0
 25 27  1  0  0  0  0
 25 28  1  0  0  0  0
 23 24  1  0  0  0  0
 23 25  1  0  0  0  0
M  END
$$$$
default_name
  -OEChem-02102213163D

 28 27  0     1  0  0  0  0  0999 V2000
   -3.2133   -3.5565    1.2809 H   0  0  0  0  0  0  0  0  0  0  0  0
   -3.1873   -2.5755    0.8089 C   0  0  0  0  0  0  0  0  0  0  0  0
   -3.8793   -1.9065    1.3169 H   0  0  0  0  0  0  0  0  0  0  0  0
   -3.4623   -2.6685   -0.2401 H   0  0  0  0  0  0  0  0  0  0  0  0
   -1.7863   -2.0195    0.9119 C   0  0  0  0  0  0  0  0  0  0  0  0
   -0.9073   -2.6615    1.4699 O   0  0  0  0  0  0  0  0  0  0  0  0
   -1.5803   -0.8195    0.3749 N   0  0  0  0  0  0  0  0  0  0  0  0
   -2.3603   -0.3345   -0.0451 H   0  0  0  0  0  0  0  0  0  0  0  0
   -0.2933   -0.1205    0.3719 C   0  0  1  0  0  0  0  0  0  0  0  0
    0.3577   -0.5843    1.1143 H   0  0  0  0  0  0  0  0  0  0  0  0
    0.3613   -0.2794   -1.0156 C   0  0  0  0  0  0  0  0  0  0  0  0
   -0.3157   -0.8591   -1.6454 H   0  0  0  0  0  0  0  0  0  0  0  0
    0.4873    0.7048   -1.4689 H   0  0  0  0  0  0  0  0  0  0  0  0
    1.7301   -0.9810   -0.9824 C   0  0  0  0  0  0  0  0  0  0  0  0
    1.5948   -2.0519   -0.8302 H   0  0  0  0  0  0  0  0  0  0  0  0
    2.2392   -0.8173   -1.9315 H   0  0  0  0  0  0  0  0  0  0  0  0
    2.6251   -0.4502    0.1328 C   0  0  0  0  0  0  0  0  0  0  0  0
    2.3654    0.5080    0.8430 O   0  0  0  0  0  0  0  0  0  0  0  0
    3.7858   -1.1088    0.3078 O   0  0  0  0  0  0  0  0  0  0  0  0
    4.2290   -0.6507    1.0241 H   0  0  0  0  0  0  0  0  0  0  0  0
   -0.4860    1.3537    0.7622 C   0  0  0  0  0  0  0  0  0  0  0  0
   -1.3956    2.0096    0.2582 O   0  0  0  0  0  0  0  0  0  0  0  0
    0.3741    1.8728    1.6466 N   0  0  0  0  0  0  0  0  0  0  0  0
    1.0814    1.2667    2.0345 H   0  0  0  0  0  0  0  0  0  0  0  0
    0.3380    3.2610    2.1024 C   0  0  0  0  0  0  0  0  0  0  0  0
   -0.6389    3.4820    2.5363 H   0  0  0  0  0  0  0  0  0  0  0  0
    1.1108    3.4337    2.8528 H   0  0  0  0  0  0  0  0  0  0  0  0
    0.5009    3.9312    1.2562 H   0  0  0  0  0  0  0  0  0  0  0  0
  5  6  2  0  0  0  0
  5  7  1  0  0  0  0
  2  3  1  0  0  0  0
  2  4  1  0  0  0  0
  2  5  1  0  0  0  0
  1  2  1  0  0  0  0
 21 22  2  0  0  0  0
 21 23  1  0  0  0  0
 19 20  1  0  0  0  0
 17 18  2  0  0  0  0
 17 19  1  0  0  0  0
 14 15  1  0  0  0  0
 14 16  1  0  0  0  0
 14 17  1  0  0  0  0
 11 12  1  0  0  0  0
 11 13  1  0  0  0  0
 11 14  1  0  0  0  0
  9 10  1  0  0  0  0
  9 11  1  0  0  0  0
  9 21  1  0  0  0  0
  7  8  1  0  0  0  0
  7  9  1  0  0  0  0
 25 26  1  0  0  0  0
 25 27  1  0  0  0  0
 25 28  1  0  0  0  0
 23 24  1  0  0  0  0
 23 25  1  0  0  0  0
M  END
$$$$
default_name
  -OEChem-02102213163D

 28 27  0     1  0  0  0  0  0999 V2000
   -3.2133   -3.5565    1.2809 H   0  0  0  0  0  0  0  0  0  0  0  0
   -3.1873   -2.5755    0.8089 C   0  0  0  0  0  0  0  0  0  0  0  0
   -3.8793   -1.9065    1.3169 H   0  0  0  0  0  0  0  0  0  0  0  0
   -3.4623   -2.6685   -0.2401 H   0  0  0  0  0  0  0  0  0  0  0  0
   -1.7863   -2.0195    0.9119 C   0  0  0  0  0  0  0  0  0  0  0  0
   -0.9073   -2.6615    1.4699 O   0  0  0  0  0  0  0  0  0  0  0  0
   -1.5803   -0.8195    0.3749 N   0  0  0  0  0  0  0  0  0  0  0  0
   -2.3603   -0.3345   -0.0451 H   0  0  0  0  0  0  0  0  0  0  0  0
   -0.2933   -0.1205    0.3719 C   0  0  1  0  0  0  0  0  0  0  0  0
    0.3577   -0.5843    1.1143 H   0  0  0  0  0  0  0  0  0  0  0  0
    0.3613   -0.2794   -1.0156 C   0  0  0  0  0  0  0  0  0  0  0  0
   -0.3157   -0.8591   -1.6454 H   0  0  0  0  0  0  0  0  0  0  0  0
    0.4873    0.7048   -1.4689 H   0  0  0  0  0  0  0  0  0  0  0  0
    1.7301   -0.9810   -0.9824 C   0  0  0  0  0  0  0  0  0  0  0  0
    1.5987   -2.0570   -1.0977 H   0  0  0  0  0  0  0  0  0  0  0  0
    2.3438   -0.6071   -1.8011 H   0  0  0  0  0  0  0  0  0  0  0  0
    2.4775   -0.7291    0.3231 C   0  0  0  0  0  0  0  0  0  0  0  0
    2.1178    0.0416    1.1986 O   0  0  0  0  0  0  0  0  0  0  0  0
    3.6222   -1.4198    0.4784 O   0  0  0  0  0  0  0  0  0  0  0  0
    3.9693   -1.1430    1.3283 H   0  0  0  0  0  0  0  0  0  0  0  0
   -0.4860    1.3537    0.7622 C   0  0  0  0  0  0  0  0  0  0  0  0
   -1.3956    2.0096    0.2582 O   0  0  0  0  0  0  0  0  0  0  0  0
    0.3741    1.8728    1.6466 N   0  0  0  0  0  0  0  0  0  0  0  0
    1.0814    1.2667    2.0345 H   0  0  0  0  0  0  0  0  0  0  0  0
    0.3380    3.2610    2.1024 C   0  0  0  0  0  0  0  0  0  0  0  0
   -0.6389    3.4820    2.5363 H   0  0  0  0  0  0  0  0  0  0  0  0
    1.1108    3.4337    2.8528 H   0  0  0  0  0  0  0  0  0  0  0  0
    0.5009    3.9312    1.2562 H   0  0  0  0  0  0  0  0  0  0  0  0
  5  6  2  0  0  0  0
  5  7  1  0  0  0  0
  2  3  1  0  0  0  0
  2  4  1  0  0  0  0
  2  5  1  0  0  0  0
  1  2  1  0  0  0  0
 21 22  2  0  0  0  0
 21 23  1  0  0  0  0
 19 20  1  0  0  0  0
 17 18  2  0  0  0  0
 17 19  1  0  0  0  0
 14 15  1  0  0  0  0
 14 16  1  0  0  0  0
 14 17  1  0  0  0  0
 11 12  1  0  0  0  0
 11 13  1  0  0  0  0
 11 14  1  0  0  0  0
  9 10  1  0  0  0  0
  9 11  1  0  0  0  0
  9 21  1  0  0  0  0
  7  8  1  0  0  0  0
  7  9  1  0  0  0  0
 25 26  1  0  0  0  0
 25 27  1  0  0  0  0
 25 28  1  0  0  0  0
 23 24  1  0  0  0  0
 23 25  1  0  0  0  0
M  END
$$$$
default_name
  -OEChem-02102213163D

 28 27  0     1  0  0  0  0  0999 V2000
   -3.2133   -3.5565    1.2809 H   0  0  0  0  0  0  0  0  0  0  0  0
   -3.1873   -2.5755    0.8089 C   0  0  0  0  0  0  0  0  0  0  0  0
   -3.8793   -1.9065    1.3169 H   0  0  0  0  0  0  0  0  0  0  0  0
   -3.4623   -2.6685   -0.2401 H   0  0  0  0  0  0  0  0  0  0  0  0
   -1.7863   -2.0195    0.9119 C   0  0  0  0  0  0  0  0  0  0  0  0
   -0.9073   -2.6615    1.4699 O   0  0  0  0  0  0  0  0  0  0  0  0
   -1.5803   -0.8195    0.3749 N   0  0  0  0  0  0  0  0  0  0  0  0
   -2.3603   -0.3345   -0.0451 H   0  0  0  0  0  0  0  0  0  0  0  0
   -0.2933   -0.1205    0.3719 C   0  0  1  0  0  0  0  0  0  0  0  0
    0.3577   -0.5843    1.1143 H   0  0  0  0  0  0  0  0  0  0  0  0
    0.3613   -0.2794   -1.0156 C   0  0  0  0  0  0  0  0  0  0  0  0
   -0.3157   -0.8591   -1.6454 H   0  0  0  0  0  0  0  0  0  0  0  0
    0.4873    0.7048   -1.4689 H   0  0  0  0  0  0  0  0  0  0  0  0
    1.7301   -0.9810   -0.9824 C   0  0  0  0  0  0  0  0  0  0  0  0
    1.6340   -2.0003   -1.3568 H   0  0  0  0  0  0  0  0  0  0  0  0
    2.4283   -0.4334   -1.6144 H   0  0  0  0  0  0  0  0  0  0  0  0
    2.3141   -1.0431    0.4253 C   0  0  0  0  0  0  0  0  0  0  0  0
    1.8392   -0.4922    1.4054 O   0  0  0  0  0  0  0  0  0  0  0  0
    3.4458   -1.7605    0.5524 O   0  0  0  0  0  0  0  0  0  0  0  0
    3.6853   -1.6900    1.4781 H   0  0  0  0  0  0  0  0  0  0  0  0
   -0.4860    1.3537    0.7622 C   0  0  0  0  0  0  0  0  0  0  0  0
   -1.3956    2.0096    0.2582 O   0  0  0  0  0  0  0  0  0  0  0  0
    0.3741    1.8728    1.6466 N   0  0  0  0  0  0  0  0  0  0  0  0
    1.0814    1.2667    2.0345 H   0  0  0  0  0  0  0  0  0  0  0  0
    0.3380    3.2610    2.1024 C   0  0  0  0  0  0  0  0  0  0  0  0
   -0.6389    3.4820    2.5363 H   0  0  0  0  0  0  0  0  0  0  0  0
    1.1108    3.4337    2.8528 H   0  0  0  0  0  0  0  0  0  0  0  0
    0.5009    3.9312    1.2562 H   0  0  0  0  0  0  0  0  0  0  0  0
  5  6  2  0  0  0  0
  5  7  1  0  0  0  0
  2  3  1  0  0  0  0
  2  4  1  0  0  0  0
  2  5  1  0  0  0  0
  1  2  1  0  0  0  0
 21 22  2  0  0  0  0
 21 23  1  0  0  0  0
 19 20  1  0  0  0  0
 17 18  2  0  0  0  0
 17 19  1  0  0  0  0
 14 15  1  0  0  0  0
 14 16  1  0  0  0  0
 14 17  1  0  0  0  0
 11 12  1  0  0  0  0
 11 13  1  0  0  0  0
 11 14  1  0  0  0  0
  9 10  1  0  0  0  0
  9 11  1  0  0  0  0
  9 21  1  0  0  0  0
  7  8  1  0  0  0  0
  7  9  1  0  0  0  0
 25 26  1  0  0  0  0
 25 27  1  0  0  0  0
 25 28  1  0  0  0  0
 23 24  1  0  0  0  0
 23 25  1  0  0  0  0
M  END
$$$$
default_name
  -OEChem-02102213163D

 28 27  0     1  0  0  0  0  0999 V2000
   -3.2133   -3.5565    1.2809 H   0  0  0  0  0  0  0  0  0  0  0  0
   -3.1873   -2.5755    0.8089 C   0  0  0  0  0  0  0  0  0  0  0  0
   -3.8793   -1.9065    1.3169 H   0  0  0  0  0  0  0  0  0  0  0  0
   -3.4623   -2.6685   -0.2401 H   0  0  0  0  0  0  0  0  0  0  0  0
   -1.7863   -2.0195    0.9119 C   0  0  0  0  0  0  0  0  0  0  0  0
   -0.9073   -2.6615    1.4699 O   0  0  0  0  0  0  0  0  0  0  0  0
   -1.5803   -0.8195    0.3749 N   0  0  0  0  0  0  0  0  0  0  0  0
   -2.3603   -0.3345   -0.0451 H   0  0  0  0  0  0  0  0  0  0  0  0
   -0.2933   -0.1205    0.3719 C   0  0  1  0  0  0  0  0  0  0  0  0
    0.3577   -0.5843    1.1143 H   0  0  0  0  0  0  0  0  0  0  0  0
    0.3613   -0.2794   -1.0156 C   0  0  0  0  0  0  0  0  0  0  0  0
   -0.3157   -0.8591   -1.6454 H   0  0  0  0  0  0  0  0  0  0  0  0
    0.4873    0.7048   -1.4689 H   0  0  0  0  0  0  0  0  0  0  0  0
    1.7301   -0.9810   -0.9824 C   0  0  0  0  0  0  0  0  0  0  0  0
    1.6984   -1.8857   -1.5898 H   0  0  0  0  0  0  0  0  0  0  0  0
    2.4869   -0.3082   -1.3841 H   0  0  0  0  0  0  0  0  0  0  0  0
    2.1459   -1.3709    0.4324 C   0  0  0  0  0  0  0  0  0  0  0  0
    1.5486   -1.0569    1.4495 O   0  0  0  0  0  0  0  0  0  0  0  0
    3.2686   -2.1075    0.5245 O   0  0  0  0  0  0  0  0  0  0  0  0
    3.3964   -2.2544    1.4633 H   0  0  0  0  0  0  0  0  0  0  0  0
   -0.4860    1.3537    0.7622 C   0  0  0  0  0  0  0  0  0  0  0  0
   -1.3956    2.0096    0.2582 O   0  0  0  0  0  0  0  0  0  0  0  0
    0.3741    1.8728    1.6466 N   0  0  0  0  0  0  0  0  0  0  0  0
    1.0814    1.2667    2.0345 H   0  0  0  0  0  0  0  0  0  0  0  0
    0.3380    3.2610    2.1024 C   0  0  0  0  0  0  0  0  0  0  0  0
   -0.6389    3.4820    2.5363 H   0  0  0  0  0  0  0  0  0  0  0  0
    1.1108    3.4337    2.8528 H   0  0  0  0  0  0  0  0  0  0  0  0
    0.5009    3.9312    1.2562 H   0  0  0  0  0  0  0  0  0  0  0  0
  5  6  2  0  0  0  0
  5  7  1  0  0  0  0
  2  3  1  0  0  0  0
  2  4  1  0  0  0  0
  2  5  1  0  0  0  0
  1  2  1  0  0  0  0
 21 22  2  0  0  0  0
 21 23  1  0  0  0  0
 19 20  1  0  0  0  0
 17 18  2  0  0  0  0
 17 19  1  0  0  0  0
 14 15  1  0  0  0  0
 14 16  1  0  0  0  0
 14 17  1  0  0  0  0
 11 12  1  0  0  0  0
 11 13  1  0  0  0  0
 11 14  1  0  0  0  0
  9 10  1  0  0  0  0
  9 11  1  0  0  0  0
  9 21  1  0  0  0  0
  7  8  1  0  0  0  0
  7  9  1  0  0  0  0
 25 26  1  0  0  0  0
 25 27  1  0  0  0  0
 25 28  1  0  0  0  0
 23 24  1  0  0  0  0
 23 25  1  0  0  0  0
M  END
$$$$
default_name
  -OEChem-02102213163D

 28 27  0     1  0  0  0  0  0999 V2000
   -3.2133   -3.5565    1.2809 H   0  0  0  0  0  0  0  0  0  0  0  0
   -3.1873   -2.5755    0.8089 C   0  0  0  0  0  0  0  0  0  0  0  0
   -3.8793   -1.9065    1.3169 H   0  0  0  0  0  0  0  0  0  0  0  0
   -3.4623   -2.6685   -0.2401 H   0  0  0  0  0  0  0  0  0  0  0  0
   -1.7863   -2.0195    0.9119 C   0  0  0  0  0  0  0  0  0  0  0  0
   -0.9073   -2.6615    1.4699 O   0  0  0  0  0  0  0  0  0  0  0  0
   -1.5803   -0.8195    0.3749 N   0  0  0  0  0  0  0  0  0  0  0  0
   -2.3603   -0.3345   -0.0451 H   0  0  0  0  0  0  0  0  0  0  0  0
   -0.2933   -0.1205    0.3719 C   0  0  1  0  0  0  0  0  0  0  0  0
    0.3577   -0.5843    1.1143 H   0  0  0  0  0  0  0  0  0  0  0  0
    0.3613   -0.2794   -1.0156 C   0  0  0  0  0  0  0  0  0  0  0  0
   -0.3157   -0.8591   -1.6454 H   0  0  0  0  0  0  0  0  0  0  0  0
    0.4873    0.7048   -1.4689 H   0  0  0  0  0  0  0  0  0  0  0  0
    1.7301   -0.9810   -0.9824 C   0  0  0  0  0  0  0  0  0  0  0  0
    1.7875   -1.7209   -1.7809 H   0  0  0  0  0  0  0  0  0  0  0  0
    2.5156   -0.2400   -1.1259 H   0  0  0  0  0  0  0  0  0  0  0  0
    1.9845   -1.6900    0.3439 C   0  0  0  0  0  0  0  0  0  0  0  0
    1.2659   -1.6142    1.3277 O   0  0  0  0  0  0  0  0  0  0  0  0
    3.1027   -2.4373    0.3967 O   0  0  0  0  0  0  0  0  0  0  0  0
    3.1222   -2.7978    1.2850 H   0  0  0  0  0  0  0  0  0  0  0  0
   -0.4860    1.3537    0.7622 C   0  0  0  0  0  0  0  0  0  0  0  0
   -1.3956    2.0096    0.2582 O   0  0  0  0  0  0  0  0  0  0  0  0
    0.3741    1.8728    1.6466 N   0  0  0  0  0  0  0  0  0  0  0  0
    1.0814    1.2667    2.0345 H   0  0  0  0  0  0  0  0  0  0  0  0
    0.3380    3.2610    2.1024 C   0  0  0  0  0  0  0  0  0  0  0  0
   -0.6389    3.4820    2.5363 H   0  0  0  0  0  0  0  0  0  0  0  0
    1.1108    3.4337    2.8528 H   0  0  0  0  0  0  0  0  0  0  0  0
    0.5009    3.9312    1.2562 H   0  0  0  0  0  0  0  0  0  0  0  0
  5  6  2  0  0  0  0
  5  7  1  0  0  0  0
  2  3  1  0  0  0  0
  2  4  1  0  0  0  0
  2  5  1  0  0  0  0
  1  2  1  0  0  0  0
 21 22  2  0  0  0  0
 21 23  1  0  0  0  0
 19 20  1  0  0  0  0
 17 18  2  0  0  0  0
 17 19  1  0  0  0  0
 14 15  1  0  0  0  0
 14 16  1  0  0  0  0
 14 17  1  0  0  0  0
 11 12  1  0  0  0  0
 11 13  1  0  0  0  0
 11 14  1  0  0  0  0
  9 10  1  0  0  0  0
  9 11  1  0  0  0  0
  9 21  1  0  0  0  0
  7  8  1  0  0  0  0
  7  9  1  0  0  0  0
 25 26  1  0  0  0  0
 25 27  1  0  0  0  0
 25 28  1  0  0  0  0
 23 24  1  0  0  0  0
 23 25  1  0  0  0  0
M  END
$$$$
default_name
  -OEChem-02102213163D

 28 27  0     1  0  0  0  0  0999 V2000
   -3.2133   -3.5565    1.2809 H   0  0  0  0  0  0  0  0  0  0  0  0
   -3.1873   -2.5755    0.8089 C   0  0  0  0  0  0  0  0  0  0  0  0
   -3.8793   -1.9065    1.3169 H   0  0  0  0  0  0  0  0  0  0  0  0
   -3.4623   -2.6685   -0.2401 H   0  0  0  0  0  0  0  0  0  0  0  0
   -1.7863   -2.0195    0.9119 C   0  0  0  0  0  0  0  0  0  0  0  0
   -0.9073   -2.6615    1.4699 O   0  0  0  0  0  0  0  0  0  0  0  0
   -1.5803   -0.8195    0.3749 N   0  0  0  0  0  0  0  0  0  0  0  0
   -2.3603   -0.3345   -0.0451 H   0  0  0  0  0  0  0  0  0  0  0  0
   -0.2933   -0.1205    0.3719 C   0  0  1  0  0  0  0  0  0  0  0  0
    0.3577   -0.5843    1.1143 H   0  0  0  0  0  0  0  0  0  0  0  0
    0.3613   -0.2794   -1.0156 C   0  0  0  0  0  0  0  0  0  0  0  0
   -0.3157   -0.8591   -1.6454 H   0  0  0  0  0  0  0  0  0  0  0  0
    0.4873    0.7048   -1.4689 H   0  0  0  0  0  0  0  0  0  0  0  0
    1.7301   -0.9810   -0.9824 C   0  0  0  0  0  0  0  0  0  0  0  0
    1.8951   -1.5173   -1.9170 H   0  0  0  0  0  0  0  0  0  0  0  0
    2.5125   -0.2334   -0.8574 H   0  0  0  0  0  0  0  0  0  0  0  0
    1.8407   -1.9789    0.1659 C   0  0  0  0  0  0  0  0  0  0  0  0
    1.0104   -2.1260    1.0483 O   0  0  0  0  0  0  0  0  0  0  0  0
    2.9593   -2.7274    0.1778 O   0  0  0  0  0  0  0  0  0  0  0  0
    2.8814   -3.2831    0.9552 H   0  0  0  0  0  0  0  0  0  0  0  0
   -0.4860    1.3537    0.7622 C   0  0  0  0  0  0  0  0  0  0  0  0
   -1.3956    2.0096    0.2582 O   0  0  0  0  0  0  0  0  0  0  0  0
    0.3741    1.8728    1.6466 N   0  0  0  0  0  0  0  0  0  0  0  0
    1.0814    1.2667    2.0345 H   0  0  0  0  0  0  0  0  0  0  0  0
    0.3380    3.2610    2.1024 C   0  0  0  0  0  0  0  0  0  0  0  0
   -0.6389    3.4820    2.5363 H   0  0  0  0  0  0  0  0  0  0  0  0
    1.1108    3.4337    2.8528 H   0  0  0  0  0  0  0  0  0  0  0  0
    0.5009    3.9312    1.2562 H   0  0  0  0  0  0  0  0  0  0  0  0
  5  6  2  0  0  0  0
  5  7  1  0  0  0  0
  2  3  1  0  0  0  0
  2  4  1  0  0  0  0
  2  5  1  0  0  0  0
  1  2  1  0  0  0  0
 21 22  2  0  0  0  0
 21 23  1  0  0  0  0
 19 20  1  0  0  0  0
 17 18  2  0  0  0  0
 17 19  1  0  0  0  0
 14 15  1  0  0  0  0
 14 16  1  0  0  0  0
 14 17  1  0  0  0  0
 11 12  1  0  0  0  0
 11 13  1  0  0  0  0
 11 14  1  0  0  0  0
  9 10  1  0  0  0  0
  9 11  1  0  0  0  0
  9 21  1  0  0  0  0
  7  8  1  0  0  0  0
  7  9  1  0  0  0  0
 25 26  1  0  0  0  0
 25 27  1  0  0  0  0
 25 28  1  0  0  0  0
 23 24  1  0  0  0  0
 23 25  1  0  0  0  0
M  END
$$$$
default_name
  -OEChem-02102213163D

 28 27  0     1  0  0  0  0  0999 V2000
   -3.2133   -3.5565    1.2809 H   0  0  0  0  0  0  0  0  0  0  0  0
   -3.1873   -2.5755    0.8089 C   0  0  0  0  0  0  0  0  0  0  0  0
   -3.8793   -1.9065    1.3169 H   0  0  0  0  0  0  0  0  0  0  0  0
   -3.4623   -2.6685   -0.2401 H   0  0  0  0  0  0  0  0  0  0  0  0
   -1.7863   -2.0195    0.9119 C   0  0  0  0  0  0  0  0  0  0  0  0
   -0.9073   -2.6615    1.4699 O   0  0  0  0  0  0  0  0  0  0  0  0
   -1.5803   -0.8195    0.3749 N   0  0  0  0  0  0  0  0  0  0  0  0
   -2.3603   -0.3345   -0.0451 H   0  0  0  0  0  0  0  0  0  0  0  0
   -0.2933   -0.1205    0.3719 C   0  0  1  0  0  0  0  0  0  0  0  0
    0.3577   -0.5843    1.1143 H   0  0  0  0  0  0  0  0  0  0  0  0
    0.3613   -0.2794   -1.0156 C   0  0  0  0  0  0  0  0  0  0  0  0
   -0.3157   -0.8591   -1.6454 H   0  0  0  0  0  0  0  0  0  0  0  0
    0.4873    0.7048   -1.4689 H   0  0  0  0  0  0  0  0  0  0  0  0
    1.7301   -0.9810   -0.9824 C   0  0  0  0  0  0  0  0  0  0  0  0
    2.0141   -1.2887   -1.9889 H   0  0  0  0  0  0  0  0  0  0  0  0
    2.4777   -0.2889   -0.5969 H   0  0  0  0  0  0  0  0  0  0  0  0
    1.7245   -2.2176   -0.0896 C   0  0  0  0  0  0  0  0  0  0  0  0
    0.7993   -2.5575    0.6305 O   0  0  0  0  0  0  0  0  0  0  0  0
    2.8483   -2.9580   -0.1174 O   0  0  0  0  0  0  0  0  0  0  0  0
    2.6905   -3.6773    0.4965 H   0  0  0  0  0  0  0  0  0  0  0  0
   -0.4860    1.3537    0.7622 C   0  0  0  0  0  0  0  0  0  0  0  0
   -1.3956    2.0096    0.2582 O   0  0  0  0  0  0  0  0  0  0  0  0
    0.3741    1.8728    1.6466 N   0  0  0  0  0  0  0  0  0  0  0  0
    1.0814    1.2667    2.0345 H   0  0  0  0  0  0  0  0  0  0  0  0
    0.3380    3.2610    2.1024 C   0  0  0  0  0  0  0  0  0  0  0  0
   -0.6389    3.4820    2.5363 H   0  0  0  0  0  0  0  0  0  0  0  0
    1.1108    3.4337    2.8528 H   0  0  0  0  0  0  0  0  0  0  0  0
    0.5009    3.9312    1.2562 H   0  0  0  0  0  0  0  0  0  0  0  0
  5  6  2  0  0  0  0
  5  7  1  0  0  0  0
  2  3  1  0  0  0  0
  2  4  1  0  0  0  0
  2  5  1  0  0  0  0
  1  2  1  0  0  0  0
 21 22  2  0  0  0  0
 21 23  1  0  0  0  0
 19 20  1  0  0  0  0
 17 18  2  0  0  0  0
 17 19  1  0  0  0  0
 14 15  1  0  0  0  0
 14 16  1  0  0  0  0
 14 17  1  0  0  0  0
 11 12  1  0  0  0  0
 11 13  1  0  0  0  0
 11 14  1  0  0  0  0
  9 10  1  0  0  0  0
  9 11  1  0  0  0  0
  9 21  1  0  0  0  0
  7  8  1  0  0  0  0
  7  9  1  0  0  0  0
 25 26  1  0  0  0  0
 25 27  1  0  0  0  0
 25 28  1  0  0  0  0
 23 24  1  0  0  0  0
 23 25  1  0  0  0  0
M  END
$$$$
default_name
  -OEChem-02102213163D

 28 27  0     1  0  0  0  0  0999 V2000
   -3.2133   -3.5565    1.2809 H   0  0  0  0  0  0  0  0  0  0  0  0
   -3.1873   -2.5755    0.8089 C   0  0  0  0  0  0  0  0  0  0  0  0
   -3.8793   -1.9065    1.3169 H   0  0  0  0  0  0  0  0  0  0  0  0
   -3.4623   -2.6685   -0.2401 H   0  0  0  0  0  0  0  0  0  0  0  0
   -1.7863   -2.0195    0.9119 C   0  0  0  0  0  0  0  0  0  0  0  0
   -0.9073   -2.6615    1.4699 O   0  0  0  0  0  0  0  0  0  0  0  0
   -1.5803   -0.8195    0.3749 N   0  0  0  0  0  0  0  0  0  0  0  0
   -2.3603   -0.3345   -0.0451 H   0  0  0  0  0  0  0  0  0  0  0  0
   -0.2933   -0.1205    0.3719 C   0  0  1  0  0  0  0  0  0  0  0  0
    0.3577   -0.5843    1.1143 H   0  0  0  0  0  0  0  0  0  0  0  0
    0.3613   -0.2794   -1.0156 C   0  0  0  0  0  0  0  0  0  0  0  0
   -0.3157   -0.8591   -1.6454 H   0  0  0  0  0  0  0  0  0  0  0  0
    0.4873    0.7048   -1.4689 H   0  0  0  0  0  0  0  0  0  0  0  0
    1.7301   -0.9810   -0.9824 C   0  0  0  0  0  0  0  0  0  0  0  0
    2.1362   -1.0506   -1.9916 H   0  0  0  0  0  0  0  0  0  0  0  0
    2.4138   -0.4026   -0.3621 H   0  0  0  0  0  0  0  0  0  0  0  0
    1.6437   -2.3901   -0.4050 C   0  0  0  0  0  0  0  0  0  0  0  0
    0.6472   -2.8792    0.1026 O   0  0  0  0  0  0  0  0  0  0  0  0
    2.7771   -3.1133   -0.4687 O   0  0  0  0  0  0  0  0  0  0  0  0
    2.5623   -3.9535   -0.0598 H   0  0  0  0  0  0  0  0  0  0  0  0
   -0.4860    1.3537    0.7622 C   0  0  0  0  0  0  0  0  0  0  0  0
   -1.3956    2.0096    0.2582 O   0  0  0  0  0  0  0  0  0  0  0  0
    0.3741    1.8728    1.6466 N   0  0  0  0  0  0  0  0  0  0  0  0
    1.0814    1.2667    2.0345 H   0  0  0  0  0  0  0  0  0  0  0  0
    0.3380    3.2610    2.1024 C   0  0  0  0  0  0  0  0  0  0  0  0
   -0.6389    3.4820    2.5363 H   0  0  0  0  0  0  0  0  0  0  0  0
    1.1108    3.4337    2.8528 H   0  0  0  0  0  0  0  0  0  0  0  0
    0.5009    3.9312    1.2562 H   0  0  0  0  0  0  0  0  0  0  0  0
  5  6  2  0  0  0  0
  5  7  1  0  0  0  0
  2  3  1  0  0  0  0
  2  4  1  0  0  0  0
  2  5  1  0  0  0  0
  1  2  1  0  0  0  0
 21 22  2  0  0  0  0
 21 23  1  0  0  0  0
 19 20  1  0  0  0  0
 17 18  2  0  0  0  0
 17 19  1  0  0  0  0
 14 15  1  0  0  0  0
 14 16  1  0  0  0  0
 14 17  1  0  0  0  0
 11 12  1  0  0  0  0
 11 13  1  0  0  0  0
 11 14  1  0  0  0  0
  9 10  1  0  0  0  0
  9 11  1  0  0  0  0
  9 21  1  0  0  0  0
  7  8  1  0  0  0  0
  7  9  1  0  0  0  0
 25 26  1  0  0  0  0
 25 27  1  0  0  0  0
 25 28  1  0  0  0  0
 23 24  1  0  0  0  0
 23 25  1  0  0  0  0
M  END
$$$$
default_name
  -OEChem-02102213163D

 28 27  0     1  0  0  0  0  0999 V2000
   -3.2133   -3.5565    1.2809 H   0  0  0  0  0  0  0  0  0  0  0  0
   -3.1873   -2.5755    0.8089 C   0  0  0  0  0  0  0  0  0  0  0  0
   -3.8793   -1.9065    1.3169 H   0  0  0  0  0  0  0  0  0  0  0  0
   -3.4623   -2.6685   -0.2401 H   0  0  0  0  0  0  0  0  0  0  0  0
   -1.7863   -2.0195    0.9119 C   0  0  0  0  0  0  0  0  0  0  0  0
   -0.9073   -2.6615    1.4699 O   0  0  0  0  0  0  0  0  0  0  0  0
   -1.5803   -0.8195    0.3749 N   0  0  0  0  0  0  0  0  0  0  0  0
   -2.3603   -0.3345   -0.0451 H   0  0  0  0  0  0  0  0  0  0  0  0
   -0.2933   -0.1205    0.3719 C   0  0  1  0  0  0  0  0  0  0  0  0
    0.3577   -0.5843    1.1143 H   0  0  0  0  0  0  0  0  0  0  0  0
    0.3613   -0.2794   -1.0156 C   0  0  0  0  0  0  0  0  0  0  0  0
   -0.3157   -0.8591   -1.6454 H   0  0  0  0  0  0  0  0  0  0  0  0
    0.4873    0.7048   -1.4689 H   0  0  0  0  0  0  0  0  0  0  0  0
    1.7301   -0.9810   -0.9824 C   0  0  0  0  0  0  0  0  0  0  0  0
    2.2531   -0.8193   -1.9251 H   0  0  0  0  0  0  0  0  0  0  0  0
    2.3249   -0.5669   -0.1691 H   0  0  0  0  0  0  0  0  0  0  0  0
    1.6039   -2.4846   -0.7589 C   0  0  0  0  0  0  0  0  0  0  0  0
    0.5644   -3.0692   -0.4993 O   0  0  0  0  0  0  0  0  0  0  0  0
    2.7508   -3.1829   -0.8522 O   0  0  0  0  0  0  0  0  0  0  0  0
    2.5058   -4.0929   -0.6760 H   0  0  0  0  0  0  0  0  0  0  0  0
   -0.4860    1.3537    0.7622 C   0  0  0  0  0  0  0  0  0  0  0  0
   -1.3956    2.0096    0.2582 O   0  0  0  0  0  0  0  0  0  0  0  0
    0.3741    1.8728    1.6466 N   0  0  0  0  0  0  0  0  0  0  0  0
    1.0814    1.2667    2.0345 H   0  0  0  0  0  0  0  0  0  0  0  0
    0.3380    3.2610    2.1024 C   0  0  0  0  0  0  0  0  0  0  0  0
   -0.6389    3.4820    2.5363 H   0  0  0  0  0  0  0  0  0  0  0  0
    1.1108    3.4337    2.8528 H   0  0  0  0  0  0  0  0  0  0  0  0
    0.5009    3.9312    1.2562 H   0  0  0  0  0  0  0  0  0  0  0  0
  5  6  2  0  0  0  0
  5  7  1  0  0  0  0
  2  3  1  0  0  0  0
  2  4  1  0  0  0  0
  2  5  1  0  0  0  0
  1  2  1  0  0  0  0
 21 22  2  0  0  0  0
 21 23  1  0  0  0  0
 19 20  1  0  0  0  0
 17 18  2  0  0  0  0
 17 19  1  0  0  0  0
 14 15  1  0  0  0  0
 14 16  1  0  0  0  0
 14 17  1  0  0  0  0
 11 12  1  0  0  0  0
 11 13  1  0  0  0  0
 11 14  1  0  0  0  0
  9 10  1  0  0  0  0
  9 11  1  0  0  0  0
  9 21  1  0  0  0  0
  7  8  1  0  0  0  0
  7  9  1  0  0  0  0
 25 26  1  0  0  0  0
 25 27  1  0  0  0  0
 25 28  1  0  0  0  0
 23 24  1  0  0  0  0
 23 25  1  0  0  0  0
M  END
$$$$
default_name
  -OEChem-02102213163D

 28 27  0     1  0  0  0  0  0999 V2000
   -3.2133   -3.5565    1.2809 H   0  0  0  0  0  0  0  0  0  0  0  0
   -3.1873   -2.5755    0.8089 C   0  0  0  0  0  0  0  0  0  0  0  0
   -3.8793   -1.9065    1.3169 H   0  0  0  0  0  0  0  0  0  0  0  0
   -3.4623   -2.6685   -0.2401 H   0  0  0  0  0  0  0  0  0  0  0  0
   -1.7863   -2.0195    0.9119 C   0  0  0  0  0  0  0  0  0  0  0  0
   -0.9073   -2.6615    1.4699 O   0  0  0  0  0  0  0  0  0  0  0  0
   -1.5803   -0.8195    0.3749 N   0  0  0  0  0  0  0  0  0  0  0  0
   -2.3603   -0.3345   -0.0451 H   0  0  0  0  0  0  0  0  0  0  0  0
   -0.2933   -0.1205    0.3719 C   0  0  1  0  0  0  0  0  0  0  0  0
    0.3577   -0.5843    1.1143 H   0  0  0  0  0  0  0  0  0  0  0  0
    0.3613   -0.2794   -1.0156 C   0  0  0  0  0  0  0  0  0  0  0  0
   -0.3157   -0.8591   -1.6454 H   0  0  0  0  0  0  0  0  0  0  0  0
    0.4873    0.7048   -1.4689 H   0  0  0  0  0  0  0  0  0  0  0  0
    1.7301   -0.9810   -0.9824 C   0  0  0  0  0  0  0  0  0  0  0  0
    2.3569   -0.6106   -1.7937 H   0  0  0  0  0  0  0  0  0  0  0  0
    2.2172   -0.7705   -0.0310 H   0  0  0  0  0  0  0  0  0  0  0  0
    1.6077   -2.4945   -1.1272 C   0  0  0  0  0  0  0  0  0  0  0  0
    0.5565   -3.1146   -1.1343 O   0  0  0  0  0  0  0  0  0  0  0  0
    2.7709   -3.1619   -1.2418 O   0  0  0  0  0  0  0  0  0  0  0  0
    2.5247   -4.0860   -1.3099 H   0  0  0  0  0  0  0  0  0  0  0  0
   -0.4860    1.3537    0.7622 C   0  0  0  0  0  0  0  0  0  0  0  0
   -1.3956    2.0096    0.2582 O   0  0  0  0  0  0  0  0  0  0  0  0
    0.3741    1.8728    1.6466 N   0  0  0  0  0  0  0  0  0  0  0  0
    1.0814    1.2667    2.0345 H   0  0  0  0  0  0  0  0  0  0  0  0
    0.3380    3.2610    2.1024 C   0  0  0  0  0  0  0  0  0  0  0  0
   -0.6389    3.4820    2.5363 H   0  0  0  0  0  0  0  0  0  0  0  0
    1.1108    3.4337    2.8528 H   0  0  0  0  0  0  0  0  0  0  0  0
    0.5009    3.9312    1.2562 H   0  0  0  0  0  0  0  0  0  0  0  0
  5  6  2  0  0  0  0
  5  7  1  0  0  0  0
  2  3  1  0  0  0  0
  2  4  1  0  0  0  0
  2  5  1  0  0  0  0
  1  2  1  0  0  0  0
 21 22  2  0  0  0  0
 21 23  1  0  0  0  0
 19 20  1  0  0  0  0
 17 18  2  0  0  0  0
 17 19  1  0  0  0  0
 14 15  1  0  0  0  0
 14 16  1  0  0  0  0
 14 17  1  0  0  0  0
 11 12  1  0  0  0  0
 11 13  1  0  0  0  0
 11 14  1  0  0  0  0
  9 10  1  0  0  0  0
  9 11  1  0  0  0  0
  9 21  1  0  0  0  0
  7  8  1  0  0  0  0
  7  9  1  0  0  0  0
 25 26  1  0  0  0  0
 25 27  1  0  0  0  0
 25 28  1  0  0  0  0
 23 24  1  0  0  0  0
 23 25  1  0  0  0  0
M  END
$$$$
default_name
  -OEChem-02102213163D

 28 27  0     1  0  0  0  0  0999 V2000
   -3.2133   -3.5565    1.2809 H   0  0  0  0  0  0  0  0  0  0  0  0
   -3.1873   -2.5755    0.8089 C   0  0  0  0  0  0  0  0  0  0  0  0
   -3.8793   -1.9065    1.3169 H   0  0  0  0  0  0  0  0  0  0  0  0
   -3.4623   -2.6685   -0.2401 H   0  0  0  0  0  0  0  0  0  0  0  0
   -1.7863   -2.0195    0.9119 C   0  0  0  0  0  0  0  0  0  0  0  0
   -0.9073   -2.6615    1.4699 O   0  0  0  0  0  0  0  0  0  0  0  0
   -1.5803   -0.8195    0.3749 N   0  0  0  0  0  0  0  0  0  0  0  0
   -2.3603   -0.3345   -0.0451 H   0  0  0  0  0  0  0  0  0  0  0  0
   -0.2933   -0.1205    0.3719 C   0  0  1  0  0  0  0  0  0  0  0  0
    0.3577   -0.5843    1.1143 H   0  0  0  0  0  0  0  0  0  0  0  0
    0.3613   -0.2794   -1.0156 C   0  0  0  0  0  0  0  0  0  0  0  0
   -0.3157   -0.8591   -1.6454 H   0  0  0  0  0  0  0  0  0  0  0  0
    0.4873    0.7048   -1.4689 H   0  0  0  0  0  0  0  0  0  0  0  0
    1.7301   -0.9810   -0.9824 C   0  0  0  0  0  0  0  0  0  0  0  0
    2.4405   -0.4387   -1.6065 H   0  0  0  0  0  0  0  0  0  0  0  0
    2.0979   -0.9997    0.0428 H   0  0  0  0  0  0  0  0  0  0  0  0
    1.6549   -2.4192   -1.4848 C   0  0  0  0  0  0  0  0  0  0  0  0
    0.6240   -3.0124   -1.7590 O   0  0  0  0  0  0  0  0  0  0  0  0
    2.8363   -3.0518   -1.6109 O   0  0  0  0  0  0  0  0  0  0  0  0
    2.6177   -3.9333   -1.9184 H   0  0  0  0  0  0  0  0  0  0  0  0
   -0.4860    1.3537    0.7622 C   0  0  0  0  0  0  0  0  0  0  0  0
   -1.3956    2.0096    0.2582 O   0  0  0  0  0  0  0  0  0  0  0  0
    0.3741    1.8728    1.6466 N   0  0  0  0  0  0  0  0  0  0  0  0
    1.0814    1.2667    2.0345 H   0  0  0  0  0  0  0  0  0  0  0  0
    0.3380    3.2610    2.1024 C   0  0  0  0  0  0  0  0  0  0  0  0
   -0.6389    3.4820    2.5363 H   0  0  0  0  0  0  0  0  0  0  0  0
    1.1108    3.4337    2.8528 H   0  0  0  0  0  0  0  0  0  0  0  0
    0.5009    3.9312    1.2562 H   0  0  0  0  0  0  0  0  0  0  0  0
  5  6  2  0  0  0  0
  5  7  1  0  0  0  0
  2  3  1  0  0  0  0
  2  4  1  0  0  0  0
  2  5  1  0  0  0  0
  1  2  1  0  0  0  0
 21 22  2  0  0  0  0
 21 23  1  0  0  0  0
 19 20  1  0  0  0  0
 17 18  2  0  0  0  0
 17 19  1  0  0  0  0
 14 15  1  0  0  0  0
 14 16  1  0  0  0  0
 14 17  1  0  0  0  0
 11 12  1  0  0  0  0
 11 13  1  0  0  0  0
 11 14  1  0  0  0  0
  9 10  1  0  0  0  0
  9 11  1  0  0  0  0
  9 21  1  0  0  0  0
  7  8  1  0  0  0  0
  7  9  1  0  0  0  0
 25 26  1  0  0  0  0
 25 27  1  0  0  0  0
 25 28  1  0  0  0  0
 23 24  1  0  0  0  0
 23 25  1  0  0  0  0
M  END
$$$$
default_name
  -OEChem-02102213163D

 28 27  0     1  0  0  0  0  0999 V2000
   -3.2133   -3.5565    1.2809 H   0  0  0  0  0  0  0  0  0  0  0  0
   -3.1873   -2.5755    0.8089 C   0  0  0  0  0  0  0  0  0  0  0  0
   -3.8793   -1.9065    1.3169 H   0  0  0  0  0  0  0  0  0  0  0  0
   -3.4623   -2.6685   -0.2401 H   0  0  0  0  0  0  0  0  0  0  0  0
   -1.7863   -2.0195    0.9119 C   0  0  0  0  0  0  0  0  0  0  0  0
   -0.9073   -2.6615    1.4699 O   0  0  0  0  0  0  0  0  0  0  0  0
   -1.5803   -0.8195    0.3749 N   0  0  0  0  0  0  0  0  0  0  0  0
   -2.3603   -0.3345   -0.0451 H   0  0  0  0  0  0  0  0  0  0  0  0
   -0.2933   -0.1205    0.3719 C   0  0  1  0  0  0  0  0  0  0  0  0
    0.3577   -0.5843    1.1143 H   0  0  0  0  0  0  0  0  0  0  0  0
    0.3613   -0.2794   -1.0156 C   0  0  0  0  0  0  0  0  0  0  0  0
   -0.3157   -0.8591   -1.6454 H   0  0  0  0  0  0  0  0  0  0  0  0
    0.4873    0.7048   -1.4689 H   0  0  0  0  0  0  0  0  0  0  0  0
    1.7301   -0.9810   -0.9824 C   0  0  0  0  0  0  0  0  0  0  0  0
    2.4982   -0.3153   -1.3763 H   0  0  0  0  0  0  0  0  0  0  0  0
    1.9754   -1.2386    0.0472 H   0  0  0  0  0  0  0  0  0  0  0  0
    1.7423   -2.2640   -1.8073 C   0  0  0  0  0  0  0  0  0  0  0  0
    0.7624   -2.7693   -2.3309 O   0  0  0  0  0  0  0  0  0  0  0  0
    2.9424   -2.8601   -1.9344 O   0  0  0  0  0  0  0  0  0  0  0  0
    2.7785   -3.6451   -2.4600 H   0  0  0  0  0  0  0  0  0  0  0  0
   -0.4860    1.3537    0.7622 C   0  0  0  0  0  0  0  0  0  0  0  0
   -1.3956    2.0096    0.2582 O   0  0  0  0  0  0  0  0  0  0  0  0
    0.3741    1.8728    1.6466 N   0  0  0  0  0  0  0  0  0  0  0  0
    1.0814    1.2667    2.0345 H   0  0  0  0  0  0  0  0  0  0  0  0
    0.3380    3.2610    2.1024 C   0  0  0  0  0  0  0  0  0  0  0  0
   -0.6389    3.4820    2.5363 H   0  0  0  0  0  0  0  0  0  0  0  0
    1.1108    3.4337    2.8528 H   0  0  0  0  0  0  0  0  0  0  0  0
    0.5009    3.9312    1.2562 H   0  0  0  0  0  0  0  0  0  0  0  0
  5  6  2  0  0  0  0
  5  7  1  0  0  0  0
  2  3  1  0  0  0  0
  2  4  1  0  0  0  0
  2  5  1  0  0  0  0
  1  2  1  0  0  0  0
 21 22  2  0  0  0  0
 21 23  1  0  0  0  0
 19 20  1  0  0  0  0
 17 18  2  0  0  0  0
 17 19  1  0  0  0  0
 14 15  1  0  0  0  0
 14 16  1  0  0  0  0
 14 17  1  0  0  0  0
 11 12  1  0  0  0  0
 11 13  1  0  0  0  0
 11 14  1  0  0  0  0
  9 10  1  0  0  0  0
  9 11  1  0  0  0  0
  9 21  1  0  0  0  0
  7  8  1  0  0  0  0
  7  9  1  0  0  0  0
 25 26  1  0  0  0  0
 25 27  1  0  0  0  0
 25 28  1  0  0  0  0
 23 24  1  0  0  0  0
 23 25  1  0  0  0  0
M  END
$$$$
default_name
  -OEChem-02102213163D

 28 27  0     1  0  0  0  0  0999 V2000
   -3.2133   -3.5565    1.2809 H   0  0  0  0  0  0  0  0  0  0  0  0
   -3.1873   -2.5755    0.8089 C   0  0  0  0  0  0  0  0  0  0  0  0
   -3.8793   -1.9065    1.3169 H   0  0  0  0  0  0  0  0  0  0  0  0
   -3.4623   -2.6685   -0.2401 H   0  0  0  0  0  0  0  0  0  0  0  0
   -1.7863   -2.0195    0.9119 C   0  0  0  0  0  0  0  0  0  0  0  0
   -0.9073   -2.6615    1.4699 O   0  0  0  0  0  0  0  0  0  0  0  0
   -1.5803   -0.8195    0.3749 N   0  0  0  0  0  0  0  0  0  0  0  0
   -2.3603   -0.3345   -0.0451 H   0  0  0  0  0  0  0  0  0  0  0  0
   -0.2933   -0.1205    0.3719 C   0  0  1  0  0  0  0  0  0  0  0  0
    0.3577   -0.5843    1.1143 H   0  0  0  0  0  0  0  0  0  0  0  0
    0.3613   -0.2794   -1.0156 C   0  0  0  0  0  0  0  0  0  0  0  0
   -0.3157   -0.8591   -1.6454 H   0  0  0  0  0  0  0  0  0  0  0  0
    0.4873    0.7048   -1.4689 H   0  0  0  0  0  0  0  0  0  0  0  0
    1.7301   -0.9810   -0.9824 C   0  0  0  0  0  0  0  0  0  0  0  0
    2.5260   -0.2488   -1.1186 H   0  0  0  0  0  0  0  0  0  0  0  0
    1.8578   -1.4711   -0.0179 H   0  0  0  0  0  0  0  0  0  0  0  0
    1.8640   -2.0392   -2.0728 C   0  0  0  0  0  0  0  0  0  0  0  0
    0.9623   -2.4021   -2.8110 O   0  0  0  0  0  0  0  0  0  0  0  0
    3.0820   -2.5999   -2.1902 O   0  0  0  0  0  0  0  0  0  0  0  0
    2.9962   -3.2411   -2.8978 H   0  0  0  0  0  0  0  0  0  0  0  0
   -0.4860    1.3537    0.7622 C   0  0  0  0  0  0  0  0  0  0  0  0
   -1.3956    2.0096    0.2582 O   0  0  0  0  0  0  0  0  0  0  0  0
    0.3741    1.8728    1.6466 N   0  0  0  0  0  0  0  0  0  0  0  0
    1.0814    1.2667    2.0345 H   0  0  0  0  0  0  0  0  0  0  0  0
    0.3380    3.2610    2.1024 C   0  0  0  0  0  0  0  0  0  0  0  0
   -0.6389    3.4820    2.5363 H   0  0  0  0  0  0  0  0  0  0  0  0
    1.1108    3.4337    2.8528 H   0  0  0  0  0  0  0  0  0  0  0  0
    0.5009    3.9312    1.2562 H   0  0  0  0  0  0  0  0  0  0  0  0
  5  6  2  0  0  0  0
  5  7  1  0  0  0  0
  2  3  1  0  0  0  0
  2  4  1  0  0  0  0
  2  5  1  0  0  0  0
  1  2  1  0  0  0  0
 21 22  2  0  0  0  0
 21 23  1  0  0  0  0
 19 20  1  0  0  0  0
 17 18  2  0  0  0  0
 17 19  1  0  0  0  0
 14 15  1  0  0  0  0
 14 16  1  0  0  0  0
 14 17  1  0  0  0  0
 11 12  1  0  0  0  0
 11 13  1  0  0  0  0
 11 14  1  0  0  0  0
  9 10  1  0  0  0  0
  9 11  1  0  0  0  0
  9 21  1  0  0  0  0
  7  8  1  0  0  0  0
  7  9  1  0  0  0  0
 25 26  1  0  0  0  0
 25 27  1  0  0  0  0
 25 28  1  0  0  0  0
 23 24  1  0  0  0  0
 23 25  1  0  0  0  0
M  END
$$$$
default_name
  -OEChem-02102213163D

 28 27  0     1  0  0  0  0  0999 V2000
   -3.2133   -3.5565    1.2809 H   0  0  0  0  0  0  0  0  0  0  0  0
   -3.1873   -2.5755    0.8089 C   0  0  0  0  0  0  0  0  0  0  0  0
   -3.8793   -1.9065    1.3169 H   0  0  0  0  0  0  0  0  0  0  0  0
   -3.4623   -2.6685   -0.2401 H   0  0  0  0  0  0  0  0  0  0  0  0
   -1.7863   -2.0195    0.9119 C   0  0  0  0  0  0  0  0  0  0  0  0
   -0.9073   -2.6615    1.4699 O   0  0  0  0  0  0  0  0  0  0  0  0
   -1.5803   -0.8195    0.3749 N   0  0  0  0  0  0  0  0  0  0  0  0
   -2.3603   -0.3345   -0.0451 H   0  0  0  0  0  0  0  0  0  0  0  0
   -0.2933   -0.1205    0.3719 C   0  0  1  0  0  0  0  0  0  0  0  0
    0.3577   -0.5843    1.1143 H   0  0  0  0  0  0  0  0  0  0  0  0
    0.3613   -0.2794   -1.0156 C   0  0  0  0  0  0  0  0  0  0  0  0
   -0.3157   -0.8591   -1.6454 H   0  0  0  0  0  0  0  0  0  0  0  0
    0.4873    0.7048   -1.4689 H   0  0  0  0  0  0  0  0  0  0  0  0
    1.7301   -0.9810   -0.9824 C   0  0  0  0  0  0  0  0  0  0  0  0
    2.5222   -0.2437   -0.8512 H   0  0  0  0  0  0  0  0  0  0  0  0
    1.7531   -1.6814   -0.1483 H   0  0  0  0  0  0  0  0  0  0  0  0
    2.0115   -1.7603   -2.2630 C   0  0  0  0  0  0  0  0  0  0  0  0
    1.2099   -1.9357   -3.1666 O   0  0  0  0  0  0  0  0  0  0  0  0
    3.2455   -2.2888   -2.3608 O   0  0  0  0  0  0  0  0  0  0  0  0
    3.2559   -2.7488   -3.2020 H   0  0  0  0  0  0  0  0  0  0  0  0
   -0.4860    1.3537    0.7622 C   0  0  0  0  0  0  0  0  0  0  0  0
   -1.3956    2.0096    0.2582 O   0  0  0  0  0  0  0  0  0  0  0  0
    0.3741    1.8728    1.6466 N   0  0  0  0  0  0  0  0  0  0  0  0
    1.0814    1.2667    2.0345 H   0  0  0  0  0  0  0  0  0  0  0  0
    0.3380    3.2610    2.1024 C   0  0  0  0  0  0  0  0  0  0  0  0
   -0.6389    3.4820    2.5363 H   0  0  0  0  0  0  0  0  0  0  0  0
    1.1108    3.4337    2.8528 H   0  0  0  0  0  0  0  0  0  0  0  0
    0.5009    3.9312    1.2562 H   0  0  0  0  0  0  0  0  0  0  0  0
  5  6  2  0  0  0  0
  5  7  1  0  0  0  0
  2  3  1  0  0  0  0
  2  4  1  0  0  0  0
  2  5  1  0  0  0  0
  1  2  1  0  0  0  0
 21 22  2  0  0  0  0
 21 23  1  0  0  0  0
 19 20  1  0  0  0  0
 17 18  2  0  0  0  0
 17 19  1  0  0  0  0
 14 15  1  0  0  0  0
 14 16  1  0  0  0  0
 14 17  1  0  0  0  0
 11 12  1  0  0  0  0
 11 13  1  0  0  0  0
 11 14  1  0  0  0  0
  9 10  1  0  0  0  0
  9 11  1  0  0  0  0
  9 21  1  0  0  0  0
  7  8  1  0  0  0  0
  7  9  1  0  0  0  0
 25 26  1  0  0  0  0
 25 27  1  0  0  0  0
 25 28  1  0  0  0  0
 23 24  1  0  0  0  0
 23 25  1  0  0  0  0
M  END
$$$$
default_name
  -OEChem-02102213163D

 28 27  0     1  0  0  0  0  0999 V2000
   -3.2133   -3.5565    1.2809 H   0  0  0  0  0  0  0  0  0  0  0  0
   -3.1873   -2.5755    0.8089 C   0  0  0  0  0  0  0  0  0  0  0  0
   -3.8793   -1.9065    1.3169 H   0  0  0  0  0  0  0  0  0  0  0  0
   -3.4623   -2.6685   -0.2401 H   0  0  0  0  0  0  0  0  0  0  0  0
   -1.7863   -2.0195    0.9119 C   0  0  0  0  0  0  0  0  0  0  0  0
   -0.9073   -2.6615    1.4699 O   0  0  0  0  0  0  0  0  0  0  0  0
   -1.5803   -0.8195    0.3749 N   0  0  0  0  0  0  0  0  0  0  0  0
   -2.3603   -0.3345   -0.0451 H   0  0  0  0  0  0  0  0  0  0  0  0
   -0.2933   -0.1205    0.3719 C   0  0  1  0  0  0  0  0  0  0  0  0
    0.3577   -0.5843    1.1143 H   0  0  0  0  0  0  0  0  0  0  0  0
    0.3613   -0.2794   -1.0156 C   0  0  0  0  0  0  0  0  0  0  0  0
   -0.3157   -0.8591   -1.6454 H   0  0  0  0  0  0  0  0  0  0  0  0
    0.4873    0.7048   -1.4689 H   0  0  0  0  0  0  0  0  0  0  0  0
    1.7301   -0.9810   -0.9824 C   0  0  0  0  0  0  0  0  0  0  0  0
    2.4868   -0.3004   -0.5921 H   0  0  0  0  0  0  0  0  0  0  0  0
    1.6687   -1.8550   -0.3350 H   0  0  0  0  0  0  0  0  0  0  0  0
    2.1750   -1.4463   -2.3652 C   0  0  0  0  0  0  0  0  0  0  0  0
    1.4885   -1.4020   -3.3735 O   0  0  0  0  0  0  0  0  0  0  0  0
    3.4219   -1.9482   -2.4347 O   0  0  0  0  0  0  0  0  0  0  0  0
    3.5398   -2.2019   -3.3518 H   0  0  0  0  0  0  0  0  0  0  0  0
   -0.4860    1.3537    0.7622 C   0  0  0  0  0  0  0  0  0  0  0  0
   -1.3956    2.0096    0.2582 O   0  0  0  0  0  0  0  0  0  0  0  0
    0.3741    1.8728    1.6466 N   0  0  0  0  0  0  0  0  0  0  0  0
    1.0814    1.2667    2.0345 H   0  0  0  0  0  0  0  0  0  0  0  0
    0.3380    3.2610    2.1024 C   0  0  0  0  0  0  0  0  0  0  0  0
   -0.6389    3.4820    2.5363 H   0  0  0  0  0  0  0  0  0  0  0  0
    1.1108    3.4337    2.8528 H   0  0  0  0  0  0  0  0  0  0  0  0
    0.5009    3.9312    1.2562 H   0  0  0  0  0  0  0  0  0  0  0  0
  5  6  2  0  0  0  0
  5  7  1  0  0  0  0
  2  3  1  0  0  0  0
  2  4  1  0  0  0  0
  2  5  1  0  0  0  0
  1  2  1  0  0  0  0
 21 22  2  0  0  0  0
 21 23  1  0  0  0  0
 19 20  1  0  0  0  0
 17 18  2  0  0  0  0
 17 19  1  0  0  0  0
 14 15  1  0  0  0  0
 14 16  1  0  0  0  0
 14 17  1  0  0  0  0
 11 12  1  0  0  0  0
 11 13  1  0  0  0  0
 11 14  1  0  0  0  0
  9 10  1  0  0  0  0
  9 11  1  0  0  0  0
  9 21  1  0  0  0  0
  7  8  1  0  0  0  0
  7  9  1  0  0  0  0
 25 26  1  0  0  0  0
 25 27  1  0  0  0  0
 25 28  1  0  0  0  0
 23 24  1  0  0  0  0
 23 25  1  0  0  0  0
M  END
$$$$
default_name
  -OEChem-02102213163D

 28 27  0     1  0  0  0  0  0999 V2000
   -3.2133   -3.5565    1.2809 H   0  0  0  0  0  0  0  0  0  0  0  0
   -3.1873   -2.5755    0.8089 C   0  0  0  0  0  0  0  0  0  0  0  0
   -3.8793   -1.9065    1.3169 H   0  0  0  0  0  0  0  0  0  0  0  0
   -3.4623   -2.6685   -0.2401 H   0  0  0  0  0  0  0  0  0  0  0  0
   -1.7863   -2.0195    0.9119 C   0  0  0  0  0  0  0  0  0  0  0  0
   -0.9073   -2.6615    1.4699 O   0  0  0  0  0  0  0  0  0  0  0  0
   -1.5803   -0.8195    0.3749 N   0  0  0  0  0  0  0  0  0  0  0  0
   -2.3603   -0.3345   -0.0451 H   0  0  0  0  0  0  0  0  0  0  0  0
   -0.2933   -0.1205    0.3719 C   0  0  1  0  0  0  0  0  0  0  0  0
    0.3577   -0.5843    1.1143 H   0  0  0  0  0  0  0  0  0  0  0  0
    0.3613   -0.2794   -1.0156 C   0  0  0  0  0  0  0  0  0  0  0  0
   -0.4059   -0.6137   -1.7161 H   0  0  0  0  0  0  0  0  0  0  0  0
    0.7294    0.6905   -1.3530 H   0  0  0  0  0  0  0  0  0  0  0  0
    1.5282   -1.2817   -1.0432 C   0  0  0  0  0  0  0  0  0  0  0  0
    2.3074   -0.9635   -0.3505 H   0  0  0  0  0  0  0  0  0  0  0  0
    1.1639   -2.2635   -0.7434 H   0  0  0  0  0  0  0  0  0  0  0  0
    2.1475   -1.4099   -2.4312 C   0  0  0  0  0  0  0  0  0  0  0  0
    1.7057   -0.8944   -3.4456 O   0  0  0  0  0  0  0  0  0  0  0  0
    3.2581   -2.1668   -2.5029 O   0  0  0  0  0  0  0  0  0  0  0  0
    3.5099   -2.1565   -3.4280 H   0  0  0  0  0  0  0  0  0  0  0  0
   -0.4860    1.3537    0.7622 C   0  0  0  0  0  0  0  0  0  0  0  0
   -1.3956    2.0096    0.2582 O   0  0  0  0  0  0  0  0  0  0  0  0
    0.3741    1.8728    1.6466 N   0  0  0  0  0  0  0  0  0  0  0  0
    1.0814    1.2667    2.0345 H   0  0  0  0  0  0  0  0  0  0  0  0
    0.3380    3.2610    2.1024 C   0  0  0  0  0  0  0  0  0  0  0  0
   -0.6389    3.4820    2.5363 H   0  0  0  0  0  0  0  0  0  0  0  0
    1.1108    3.4337    2.8528 H   0  0  0  0  0  0  0  0  0  0  0  0
    0.5009    3.9312    1.2562 H   0  0  0  0  0  0  0  0  0  0  0  0
  5  6  2  0  0  0  0
  5  7  1  0  0  0  0
  2  3  1  0  0  0  0
  2  4  1  0  0  0  0
  2  5  1  0  0  0  0
  1  2  1  0  0  0  0
 21 22  2  0  0  0  0
 21 23  1  0  0  0  0
 19 20  1  0  0  0  0
 17 18  2  0  0  0  0
 17 19  1  0  0  0  0
 14 15  1  0  0  0  0
 14 16  1  0  0  0  0
 14 17  1  0  0  0  0
 11 12  1  0  0  0  0
 11 13  1  0  0  0  0
 11 14  1  0  0  0  0
  9 10  1  0  0  0  0
  9 11  1  0  0  0  0
  9 21  1  0  0  0  0
  7  8  1  0  0  0  0
  7  9  1  0  0  0  0
 25 26  1  0  0  0  0
 25 27  1  0  0  0  0
 25 28  1  0  0  0  0
 23 24  1  0  0  0  0
 23 25  1  0  0  0  0
M  END
$$$$
default_name
  -OEChem-02102213163D

 28 27  0     1  0  0  0  0  0999 V2000
   -3.2133   -3.5565    1.2809 H   0  0  0  0  0  0  0  0  0  0  0  0
   -3.1873   -2.5755    0.8089 C   0  0  0  0  0  0  0  0  0  0  0  0
   -3.8793   -1.9065    1.3169 H   0  0  0  0  0  0  0  0  0  0  0  0
   -3.4623   -2.6685   -0.2401 H   0  0  0  0  0  0  0  0  0  0  0  0
   -1.7863   -2.0195    0.9119 C   0  0  0  0  0  0  0  0  0  0  0  0
   -0.9073   -2.6615    1.4699 O   0  0  0  0  0  0  0  0  0  0  0  0
   -1.5803   -0.8195    0.3749 N   0  0  0  0  0  0  0  0  0  0  0  0
   -2.3603   -0.3345   -0.0451 H   0  0  0  0  0  0  0  0  0  0  0  0
   -0.2933   -0.1205    0.3719 C   0  0  1  0  0  0  0  0  0  0  0  0
    0.3577   -0.5843    1.1143 H   0  0  0  0  0  0  0  0  0  0  0  0
    0.3613   -0.2794   -1.0156 C   0  0  0  0  0  0  0  0  0  0  0  0
   -0.4059   -0.6137   -1.7161 H   0  0  0  0  0  0  0  0  0  0  0  0
    0.7294    0.6905   -1.3530 H   0  0  0  0  0  0  0  0  0  0  0  0
    1.5282   -1.2817   -1.0432 C   0  0  0  0  0  0  0  0  0  0  0  0
    2.1752   -1.1222   -0.1805 H   0  0  0  0  0  0  0  0  0  0  0  0
    1.1304   -2.2952   -1.0080 H   0  0  0  0  0  0  0  0  0  0  0  0
    2.3747   -1.1487   -2.3051 C   0  0  0  0  0  0  0  0  0  0  0  0
    2.1046   -0.4351   -3.2577 O   0  0  0  0  0  0  0  0  0  0  0  0
    3.4907   -1.9007   -2.3365 O   0  0  0  0  0  0  0  0  0  0  0  0
    3.8950   -1.7147   -3.1857 H   0  0  0  0  0  0  0  0  0  0  0  0
   -0.4860    1.3537    0.7622 C   0  0  0  0  0  0  0  0  0  0  0  0
   -1.3956    2.0096    0.2582 O   0  0  0  0  0  0  0  0  0  0  0  0
    0.3741    1.8728    1.6466 N   0  0  0  0  0  0  0  0  0  0  0  0
    1.0814    1.2667    2.0345 H   0  0  0  0  0  0  0  0  0  0  0  0
    0.3380    3.2610    2.1024 C   0  0  0  0  0  0  0  0  0  0  0  0
   -0.6389    3.4820    2.5363 H   0  0  0  0  0  0  0  0  0  0  0  0
    1.1108    3.4337    2.8528 H   0  0  0  0  0  0  0  0  0  0  0  0
    0.5009    3.9312    1.2562 H   0  0  0  0  0  0  0  0  0  0  0  0
  5  6  2  0  0  0  0
  5  7  1  0  0  0  0
  2  3  1  0  0  0  0
  2  4  1  0  0  0  0
  2  5  1  0  0  0  0
  1  2  1  0  0  0  0
 21 22  2  0  0  0  0
 21 23  1  0  0  0  0
 19 20  1  0  0  0  0
 17 18  2  0  0  0  0
 17 19  1  0  0  0  0
 14 15  1  0  0  0  0
 14 16  1  0  0  0  0
 14 17  1  0  0  0  0
 11 12  1  0  0  0  0
 11 13  1  0  0  0  0
 11 14  1  0  0  0  0
  9 10  1  0  0  0  0
  9 11  1  0  0  0  0
  9 21  1  0  0  0  0
  7  8  1  0  0  0  0
  7  9  1  0  0  0  0
 25 26  1  0  0  0  0
 25 27  1  0  0  0  0
 25 28  1  0  0  0  0
 23 24  1  0  0  0  0
 23 25  1  0  0  0  0
M  END
$$$$
default_name
  -OEChem-02102213163D

 28 27  0     1  0  0  0  0  0999 V2000
   -3.2133   -3.5565    1.2809 H   0  0  0  0  0  0  0  0  0  0  0  0
   -3.1873   -2.5755    0.8089 C   0  0  0  0  0  0  0  0  0  0  0  0
   -3.8793   -1.9065    1.3169 H   0  0  0  0  0  0  0  0  0  0  0  0
   -3.4623   -2.6685   -0.2401 H   0  0  0  0  0  0  0  0  0  0  0  0
   -1.7863   -2.0195    0.9119 C   0  0  0  0  0  0  0  0  0  0  0  0
   -0.9073   -2.6615    1.4699 O   0  0  0  0  0  0  0  0  0  0  0  0
   -1.5803   -0.8195    0.3749 N   0  0  0  0  0  0  0  0  0  0  0  0
   -2.3603   -0.3345   -0.0451 H   0  0  0  0  0  0  0  0  0  0  0  0
   -0.2933   -0.1205    0.3719 C   0  0  1  0  0  0  0  0  0  0  0  0
    0.3577   -0.5843    1.1143 H   0  0  0  0  0  0  0  0  0  0  0  0
    0.3613   -0.2794   -1.0156 C   0  0  0  0  0  0  0  0  0  0  0  0
   -0.4059   -0.6137   -1.7161 H   0  0  0  0  0  0  0  0  0  0  0  0
    0.7294    0.6905   -1.3530 H   0  0  0  0  0  0  0  0  0  0  0  0
    1.5282   -1.2817   -1.0432 C   0  0  0  0  0  0  0  0  0  0  0  0
    2.0180   -1.3082   -0.0697 H   0  0  0  0  0  0  0  0  0  0  0  0
    1.1426   -2.2736   -1.2755 H   0  0  0  0  0  0  0  0  0  0  0  0
    2.5742   -0.9223   -2.0936 C   0  0  0  0  0  0  0  0  0  0  0  0
    2.4603   -0.0303   -2.9189 O   0  0  0  0  0  0  0  0  0  0  0  0
    3.6885   -1.6773   -2.0842 O   0  0  0  0  0  0  0  0  0  0  0  0
    4.2283   -1.3374   -2.8000 H   0  0  0  0  0  0  0  0  0  0  0  0
   -0.4860    1.3537    0.7622 C   0  0  0  0  0  0  0  0  0  0  0  0
   -1.3956    2.0096    0.2582 O   0  0  0  0  0  0  0  0  0  0  0  0
    0.3741    1.8728    1.6466 N   0  0  0  0  0  0  0  0  0  0  0  0
    1.0814    1.2667    2.0345 H   0  0  0  0  0  0  0  0  0  0  0  0
    0.3380    3.2610    2.1024 C   0  0  0  0  0  0  0  0  0  0  0  0
   -0.6389    3.4820    2.5363 H   0  0  0  0  0  0  0  0  0  0  0  0
    1.1108    3.4337    2.8528 H   0  0  0  0  0  0  0  0  0  0  0  0
    0.5009    3.9312    1.2562 H   0  0  0  0  0  0  0  0  0  0  0  0
  5  6  2  0  0  0  0
  5  7  1  0  0  0  0
  2  3  1  0  0  0  0
  2  4  1  0  0  0  0
  2  5  1  0  0  0  0
  1  2  1  0  0  0  0
 21 22  2  0  0  0  0
 21 23  1  0  0  0  0
 19 20  1  0  0  0  0
 17 18  2  0  0  0  0
 17 19  1  0  0  0  0
 14 15  1  0  0  0  0
 14 16  1  0  0  0  0
 14 17  1  0  0  0  0
 11 12  1  0  0  0  0
 11 13  1  0  0  0  0
 11 14  1  0  0  0  0
  9 10  1  0  0  0  0
  9 11  1  0  0  0  0
  9 21  1  0  0  0  0
  7  8  1  0  0  0  0
  7  9  1  0  0  0  0
 25 26  1  0  0  0  0
 25 27  1  0  0  0  0
 25 28  1  0  0  0  0
 23 24  1  0  0  0  0
 23 25  1  0  0  0  0
M  END
$$$$
default_name
  -OEChem-02102213163D

 28 27  0     1  0  0  0  0  0999 V2000
   -3.2133   -3.5565    1.2809 H   0  0  0  0  0  0  0  0  0  0  0  0
   -3.1873   -2.5755    0.8089 C   0  0  0  0  0  0  0  0  0  0  0  0
   -3.8793   -1.9065    1.3169 H   0  0  0  0  0  0  0  0  0  0  0  0
   -3.4623   -2.6685   -0.2401 H   0  0  0  0  0  0  0  0  0  0  0  0
   -1.7863   -2.0195    0.9119 C   0  0  0  0  0  0  0  0  0  0  0  0
   -0.9073   -2.6615    1.4699 O   0  0  0  0  0  0  0  0  0  0  0  0
   -1.5803   -0.8195    0.3749 N   0  0  0  0  0  0  0  0  0  0  0  0
   -2.3603   -0.3345   -0.0451 H   0  0  0  0  0  0  0  0  0  0  0  0
   -0.2933   -0.1205    0.3719 C   0  0  1  0  0  0  0  0  0  0  0  0
    0.3577   -0.5843    1.1143 H   0  0  0  0  0  0  0  0  0  0  0  0
    0.3613   -0.2794   -1.0156 C   0  0  0  0  0  0  0  0  0  0  0  0
   -0.4059   -0.6137   -1.7161 H   0  0  0  0  0  0  0  0  0  0  0  0
    0.7294    0.6905   -1.3530 H   0  0  0  0  0  0  0  0  0  0  0  0
    1.5282   -1.2817   -1.0432 C   0  0  0  0  0  0  0  0  0  0  0  0
    1.8466   -1.5089   -0.0258 H   0  0  0  0  0  0  0  0  0  0  0  0
    1.1995   -2.2004   -1.5276 H   0  0  0  0  0  0  0  0  0  0  0  0
    2.7323   -0.7461   -1.8113 C   0  0  0  0  0  0  0  0  0  0  0  0
    2.7487    0.2926   -2.4521 O   0  0  0  0  0  0  0  0  0  0  0  0
    3.8380   -1.5120   -1.7634 O   0  0  0  0  0  0  0  0  0  0  0  0
    4.4869   -1.0501   -2.2971 H   0  0  0  0  0  0  0  0  0  0  0  0
   -0.4860    1.3537    0.7622 C   0  0  0  0  0  0  0  0  0  0  0  0
   -1.3956    2.0096    0.2582 O   0  0  0  0  0  0  0  0  0  0  0  0
    0.3741    1.8728    1.6466 N   0  0  0  0  0  0  0  0  0  0  0  0
    1.0814    1.2667    2.0345 H   0  0  0  0  0  0  0  0  0  0  0  0
    0.3380    3.2610    2.1024 C   0  0  0  0  0  0  0  0  0  0  0  0
   -0.6389    3.4820    2.5363 H   0  0  0  0  0  0  0  0  0  0  0  0
    1.1108    3.4337    2.8528 H   0  0  0  0  0  0  0  0  0  0  0  0
    0.5009    3.9312    1.2562 H   0  0  0  0  0  0  0  0  0  0  0  0
  5  6  2  0  0  0  0
  5  7  1  0  0  0  0
  2  3  1  0  0  0  0
  2  4  1  0  0  0  0
  2  5  1  0  0  0  0
  1  2  1  0  0  0  0
 21 22  2  0  0  0  0
 21 23  1  0  0  0  0
 19 20  1  0  0  0  0
 17 18  2  0  0  0  0
 17 19  1  0  0  0  0
 14 15  1  0  0  0  0
 14 16  1  0  0  0  0
 14 17  1  0  0  0  0
 11 12  1  0  0  0  0
 11 13  1  0  0  0  0
 11 14  1  0  0  0  0
  9 10  1  0  0  0  0
  9 11  1  0  0  0  0
  9 21  1  0  0  0  0
  7  8  1  0  0  0  0
  7  9  1  0  0  0  0
 25 26  1  0  0  0  0
 25 27  1  0  0  0  0
 25 28  1  0  0  0  0
 23 24  1  0  0  0  0
 23 25  1  0  0  0  0
M  END
$$$$
default_name
  -OEChem-02102213163D

 28 27  0     1  0  0  0  0  0999 V2000
   -3.2133   -3.5565    1.2809 H   0  0  0  0  0  0  0  0  0  0  0  0
   -3.1873   -2.5755    0.8089 C   0  0  0  0  0  0  0  0  0  0  0  0
   -3.8793   -1.9065    1.3169 H   0  0  0  0  0  0  0  0  0  0  0  0
   -3.4623   -2.6685   -0.2401 H   0  0  0  0  0  0  0  0  0  0  0  0
   -1.7863   -2.0195    0.9119 C   0  0  0  0  0  0  0  0  0  0  0  0
   -0.9073   -2.6615    1.4699 O   0  0  0  0  0  0  0  0  0  0  0  0
   -1.5803   -0.8195    0.3749 N   0  0  0  0  0  0  0  0  0  0  0  0
   -2.3603   -0.3345   -0.0451 H   0  0  0  0  0  0  0  0  0  0  0  0
   -0.2933   -0.1205    0.3719 C   0  0  1  0  0  0  0  0  0  0  0  0
    0.3577   -0.5843    1.1143 H   0  0  0  0  0  0  0  0  0  0  0  0
    0.3613   -0.2794   -1.0156 C   0  0  0  0  0  0  0  0  0  0  0  0
   -0.4059   -0.6137   -1.7161 H   0  0  0  0  0  0  0  0  0  0  0  0
    0.7294    0.6905   -1.3530 H   0  0  0  0  0  0  0  0  0  0  0  0
    1.5282   -1.2817   -1.0432 C   0  0  0  0  0  0  0  0  0  0  0  0
    1.6728   -1.7107   -0.0516 H   0  0  0  0  0  0  0  0  0  0  0  0
    1.2973   -2.0804   -1.7471 H   0  0  0  0  0  0  0  0  0  0  0  0
    2.8382   -0.6320   -1.4773 C   0  0  0  0  0  0  0  0  0  0  0  0
    2.9501    0.5115   -1.8892 O   0  0  0  0  0  0  0  0  0  0  0  0
    3.9292   -1.4161   -1.3958 O   0  0  0  0  0  0  0  0  0  0  0  0
    4.6533   -0.8726   -1.7114 H   0  0  0  0  0  0  0  0  0  0  0  0
   -0.4860    1.3537    0.7622 C   0  0  0  0  0  0  0  0  0  0  0  0
   -1.3956    2.0096    0.2582 O   0  0  0  0  0  0  0  0  0  0  0  0
    0.3741    1.8728    1.6466 N   0  0  0  0  0  0  0  0  0  0  0  0
    1.0814    1.2667    2.0345 H   0  0  0  0  0  0  0  0  0  0  0  0
    0.3380    3.2610    2.1024 C   0  0  0  0  0  0  0  0  0  0  0  0
   -0.6389    3.4820    2.5363 H   0  0  0  0  0  0  0  0  0  0  0  0
    1.1108    3.4337    2.8528 H   0  0  0  0  0  0  0  0  0  0  0  0
    0.5009    3.9312    1.2562 H   0  0  0  0  0  0  0  0  0  0  0  0
  5  6  2  0  0  0  0
  5  7  1  0  0  0  0
  2  3  1  0  0  0  0
  2  4  1  0  0  0  0
  2  5  1  0  0  0  0
  1  2  1  0  0  0  0
 21 22  2  0  0  0  0
 21 23  1  0  0  0  0
 19 20  1  0  0  0  0
 17 18  2  0  0  0  0
 17 19  1  0  0  0  0
 14 15  1  0  0  0  0
 14 16  1  0  0  0  0
 14 17  1  0  0  0  0
 11 12  1  0  0  0  0
 11 13  1  0  0  0  0
 11 14  1  0  0  0  0
  9 10  1  0  0  0  0
  9 11  1  0  0  0  0
  9 21  1  0  0  0  0
  7  8  1  0  0  0  0
  7  9  1  0  0  0  0
 25 26  1  0  0  0  0
 25 27  1  0  0  0  0
 25 28  1  0  0  0  0
 23 24  1  0  0  0  0
 23 25  1  0  0  0  0
M  END
$$$$
default_name
  -OEChem-02102213163D

 28 27  0     1  0  0  0  0  0999 V2000
   -3.2133   -3.5565    1.2809 H   0  0  0  0  0  0  0  0  0  0  0  0
   -3.1873   -2.5755    0.8089 C   0  0  0  0  0  0  0  0  0  0  0  0
   -3.8793   -1.9065    1.3169 H   0  0  0  0  0  0  0  0  0  0  0  0
   -3.4623   -2.6685   -0.2401 H   0  0  0  0  0  0  0  0  0  0  0  0
   -1.7863   -2.0195    0.9119 C   0  0  0  0  0  0  0  0  0  0  0  0
   -0.9073   -2.6615    1.4699 O   0  0  0  0  0  0  0  0  0  0  0  0
   -1.5803   -0.8195    0.3749 N   0  0  0  0  0  0  0  0  0  0  0  0
   -2.3603   -0.3345   -0.0451 H   0  0  0  0  0  0  0  0  0  0  0  0
   -0.2933   -0.1205    0.3719 C   0  0  1  0  0  0  0  0  0  0  0  0
    0.3577   -0.5843    1.1143 H   0  0  0  0  0  0  0  0  0  0  0  0
    0.3613   -0.2794   -1.0156 C   0  0  0  0  0  0  0  0  0  0  0  0
   -0.4059   -0.6137   -1.7161 H   0  0  0  0  0  0  0  0  0  0  0  0
    0.7294    0.6905   -1.3530 H   0  0  0  0  0  0  0  0  0  0  0  0
    1.5282   -1.2817   -1.0432 C   0  0  0  0  0  0  0  0  0  0  0  0
    1.5083   -1.8996   -0.1455 H   0  0  0  0  0  0  0  0  0  0  0  0
    1.4294   -1.9219   -1.9190 H   0  0  0  0  0  0  0  0  0  0  0  0
    2.8847   -0.5878   -1.1145 C   0  0  0  0  0  0  0  0  0  0  0  0
    3.0507    0.6116   -1.2686 O   0  0  0  0  0  0  0  0  0  0  0  0
    3.9557   -1.3959   -1.0066 O   0  0  0  0  0  0  0  0  0  0  0  0
    4.7160   -0.8169   -1.0827 H   0  0  0  0  0  0  0  0  0  0  0  0
   -0.4860    1.3537    0.7622 C   0  0  0  0  0  0  0  0  0  0  0  0
   -1.3956    2.0096    0.2582 O   0  0  0  0  0  0  0  0  0  0  0  0
    0.3741    1.8728    1.6466 N   0  0  0  0  0  0  0  0  0  0  0  0
    1.0814    1.2667    2.0345 H   0  0  0  0  0  0  0  0  0  0  0  0
    0.3380    3.2610    2.1024 C   0  0  0  0  0  0  0  0  0  0  0  0
   -0.6389    3.4820    2.5363 H   0  0  0  0  0  0  0  0  0  0  0  0
    1.1108    3.4337    2.8528 H   0  0  0  0  0  0  0  0  0  0  0  0
    0.5009    3.9312    1.2562 H   0  0  0  0  0  0  0  0  0  0  0  0
  5  6  2  0  0  0  0
  5  7  1  0  0  0  0
  2  3  1  0  0  0  0
  2  4  1  0  0  0  0
  2  5  1  0  0  0  0
  1  2  1  0  0  0  0
 21 22  2  0  0  0  0
 21 23  1  0  0  0  0
 19 20  1  0  0  0  0
 17 18  2  0  0  0  0
 17 19  1  0  0  0  0
 14 15  1  0  0  0  0
 14 16  1  0  0  0  0
 14 17  1  0  0  0  0
 11 12  1  0  0  0  0
 11 13  1  0  0  0  0
 11 14  1  0  0  0  0
  9 10  1  0  0  0  0
  9 11  1  0  0  0  0
  9 21  1  0  0  0  0
  7  8  1  0  0  0  0
  7  9  1  0  0  0  0
 25 26  1  0  0  0  0
 25 27  1  0  0  0  0
 25 28  1  0  0  0  0
 23 24  1  0  0  0  0
 23 25  1  0  0  0  0
M  END
$$$$
default_name
  -OEChem-02102213163D

 28 27  0     1  0  0  0  0  0999 V2000
   -3.2133   -3.5565    1.2809 H   0  0  0  0  0  0  0  0  0  0  0  0
   -3.1873   -2.5755    0.8089 C   0  0  0  0  0  0  0  0  0  0  0  0
   -3.8793   -1.9065    1.3169 H   0  0  0  0  0  0  0  0  0  0  0  0
   -3.4623   -2.6685   -0.2401 H   0  0  0  0  0  0  0  0  0  0  0  0
   -1.7863   -2.0195    0.9119 C   0  0  0  0  0  0  0  0  0  0  0  0
   -0.9073   -2.6615    1.4699 O   0  0  0  0  0  0  0  0  0  0  0  0
   -1.5803   -0.8195    0.3749 N   0  0  0  0  0  0  0  0  0  0  0  0
   -2.3603   -0.3345   -0.0451 H   0  0  0  0  0  0  0  0  0  0  0  0
   -0.2933   -0.1205    0.3719 C   0  0  1  0  0  0  0  0  0  0  0  0
    0.3577   -0.5843    1.1143 H   0  0  0  0  0  0  0  0  0  0  0  0
    0.3613   -0.2794   -1.0156 C   0  0  0  0  0  0  0  0  0  0  0  0
   -0.4059   -0.6137   -1.7161 H   0  0  0  0  0  0  0  0  0  0  0  0
    0.7294    0.6905   -1.3530 H   0  0  0  0  0  0  0  0  0  0  0  0
    1.5282   -1.2817   -1.0432 C   0  0  0  0  0  0  0  0  0  0  0  0
    1.3643   -2.0629   -0.3010 H   0  0  0  0  0  0  0  0  0  0  0  0
    1.5867   -1.7356   -2.0318 H   0  0  0  0  0  0  0  0  0  0  0  0
    2.8687   -0.6166   -0.7475 C   0  0  0  0  0  0  0  0  0  0  0  0
    3.0437    0.5859   -0.6325 O   0  0  0  0  0  0  0  0  0  0  0  0
    3.9157   -1.4530   -0.6221 O   0  0  0  0  0  0  0  0  0  0  0  0
    4.6709   -0.8867   -0.4540 H   0  0  0  0  0  0  0  0  0  0  0  0
   -0.4860    1.3537    0.7622 C   0  0  0  0  0  0  0  0  0  0  0  0
   -1.3956    2.0096    0.2582 O   0  0  0  0  0  0  0  0  0  0  0  0
    0.3741    1.8728    1.6466 N   0  0  0  0  0  0  0  0  0  0  0  0
    1.0814    1.2667    2.0345 H   0  0  0  0  0  0  0  0  0  0  0  0
    0.3380    3.2610    2.1024 C   0  0  0  0  0  0  0  0  0  0  0  0
   -0.6389    3.4820    2.5363 H   0  0  0  0  0  0  0  0  0  0  0  0
    1.1108    3.4337    2.8528 H   0  0  0  0  0  0  0  0  0  0  0  0
    0.5009    3.9312    1.2562 H   0  0  0  0  0  0  0  0  0  0  0  0
  5  6  2  0  0  0  0
  5  7  1  0  0  0  0
  2  3  1  0  0  0  0
  2  4  1  0  0  0  0
  2  5  1  0  0  0  0
  1  2  1  0  0  0  0
 21 22  2  0  0  0  0
 21 23  1  0  0  0  0
 19 20  1  0  0  0  0
 17 18  2  0  0  0  0
 17 19  1  0  0  0  0
 14 15  1  0  0  0  0
 14 16  1  0  0  0  0
 14 17  1  0  0  0  0
 11 12  1  0  0  0  0
 11 13  1  0  0  0  0
 11 14  1  0  0  0  0
  9 10  1  0  0  0  0
  9 11  1  0  0  0  0
  9 21  1  0  0  0  0
  7  8  1  0  0  0  0
  7  9  1  0  0  0  0
 25 26  1  0  0  0  0
 25 27  1  0  0  0  0
 25 28  1  0  0  0  0
 23 24  1  0  0  0  0
 23 25  1  0  0  0  0
M  END
$$$$
default_name
  -OEChem-02102213163D

 28 27  0     1  0  0  0  0  0999 V2000
   -3.2133   -3.5565    1.2809 H   0  0  0  0  0  0  0  0  0  0  0  0
   -3.1873   -2.5755    0.8089 C   0  0  0  0  0  0  0  0  0  0  0  0
   -3.8793   -1.9065    1.3169 H   0  0  0  0  0  0  0  0  0  0  0  0
   -3.4623   -2.6685   -0.2401 H   0  0  0  0  0  0  0  0  0  0  0  0
   -1.7863   -2.0195    0.9119 C   0  0  0  0  0  0  0  0  0  0  0  0
   -0.9073   -2.6615    1.4699 O   0  0  0  0  0  0  0  0  0  0  0  0
   -1.5803   -0.8195    0.3749 N   0  0  0  0  0  0  0  0  0  0  0  0
   -2.3603   -0.3345   -0.0451 H   0  0  0  0  0  0  0  0  0  0  0  0
   -0.2933   -0.1205    0.3719 C   0  0  1  0  0  0  0  0  0  0  0  0
    0.3577   -0.5843    1.1143 H   0  0  0  0  0  0  0  0  0  0  0  0
    0.3613   -0.2794   -1.0156 C   0  0  0  0  0  0  0  0  0  0  0  0
   -0.4059   -0.6137   -1.7161 H   0  0  0  0  0  0  0  0  0  0  0  0
    0.7294    0.6905   -1.3530 H   0  0  0  0  0  0  0  0  0  0  0  0
    1.5282   -1.2817   -1.0432 C   0  0  0  0  0  0  0  0  0  0  0  0
    1.2507   -2.1895   -0.5075 H   0  0  0  0  0  0  0  0  0  0  0  0
    1.7585   -1.5343   -2.0776 H   0  0  0  0  0  0  0  0  0  0  0  0
    2.7912   -0.7164   -0.4014 C   0  0  0  0  0  0  0  0  0  0  0  0
    2.9296    0.4362   -0.0243 O   0  0  0  0  0  0  0  0  0  0  0  0
    3.8121   -1.5835   -0.2688 O   0  0  0  0  0  0  0  0  0  0  0  0
    4.5210   -1.0775    0.1320 H   0  0  0  0  0  0  0  0  0  0  0  0
   -0.4860    1.3537    0.7622 C   0  0  0  0  0  0  0  0  0  0  0  0
   -1.3956    2.0096    0.2582 O   0  0  0  0  0  0  0  0  0  0  0  0
    0.3741    1.8728    1.6466 N   0  0  0  0  0  0  0  0  0  0  0  0
    1.0814    1.2667    2.0345 H   0  0  0  0  0  0  0  0  0  0  0  0
    0.3380    3.2610    2.1024 C   0  0  0  0  0  0  0  0  0  0  0  0
   -0.6389    3.4820    2.5363 H   0  0  0  0  0  0  0  0  0  0  0  0
    1.1108    3.4337    2.8528 H   0  0  0  0  0  0  0  0  0  0  0  0
    0.5009    3.9312    1.2562 H   0  0  0  0  0  0  0  0  0  0  0  0
  5  6  2  0  0  0  0
  5  7  1  0  0  0  0
  2  3  1  0  0  0  0
  2  4  1  0  0  0  0
  2  5  1  0  0  0  0
  1  2  1  0  0  0  0
 21 22  2  0  0  0  0
 21 23  1  0  0  0  0
 19 20  1  0  0  0  0
 17 18  2  0  0  0  0
 17 19  1  0  0  0  0
 14 15  1  0  0  0  0
 14 16  1  0  0  0  0
 14 17  1  0  0  0  0
 11 12  1  0  0  0  0
 11 13  1  0  0  0  0
 11 14  1  0  0  0  0
  9 10  1  0  0  0  0
  9 11  1  0  0  0  0
  9 21  1  0  0  0  0
  7  8  1  0  0  0  0
  7  9  1  0  0  0  0
 25 26  1  0  0  0  0
 25 27  1  0  0  0  0
 25 28  1  0  0  0  0
 23 24  1  0  0  0  0
 23 25  1  0  0  0  0
M  END
$$$$
default_name
  -OEChem-02102213163D

 28 27  0     1  0  0  0  0  0999 V2000
   -3.2133   -3.5565    1.2809 H   0  0  0  0  0  0  0  0  0  0  0  0
   -3.1873   -2.5755    0.8089 C   0  0  0  0  0  0  0  0  0  0  0  0
   -3.8793   -1.9065    1.3169 H   0  0  0  0  0  0  0  0  0  0  0  0
   -3.4623   -2.6685   -0.2401 H   0  0  0  0  0  0  0  0  0  0  0  0
   -1.7863   -2.0195    0.9119 C   0  0  0  0  0  0  0  0  0  0  0  0
   -0.9073   -2.6615    1.4699 O   0  0  0  0  0  0  0  0  0  0  0  0
   -1.5803   -0.8195    0.3749 N   0  0  0  0  0  0  0  0  0  0  0  0
   -2.3603   -0.3345   -0.0451 H   0  0  0  0  0  0  0  0  0  0  0  0
   -0.2933   -0.1205    0.3719 C   0  0  1  0  0  0  0  0  0  0  0  0
    0.3577   -0.5843    1.1143 H   0  0  0  0  0  0  0  0  0  0  0  0
    0.3613   -0.2794   -1.0156 C   0  0  0  0  0  0  0  0  0  0  0  0
   -0.4059   -0.6137   -1.7161 H   0  0  0  0  0  0  0  0  0  0  0  0
    0.7294    0.6905   -1.3530 H   0  0  0  0  0  0  0  0  0  0  0  0
    1.5282   -1.2817   -1.0432 C   0  0  0  0  0  0  0  0  0  0  0  0
    1.1752   -2.2707   -0.7510 H   0  0  0  0  0  0  0  0  0  0  0  0
    1.9331   -1.3317   -2.0533 H   0  0  0  0  0  0  0  0  0  0  0  0
    2.6575   -0.8804   -0.0997 C   0  0  0  0  0  0  0  0  0  0  0  0
    2.7161    0.1728    0.5145 O   0  0  0  0  0  0  0  0  0  0  0  0
    3.6518   -1.7784    0.0295 O   0  0  0  0  0  0  0  0  0  0  0  0
    4.2765   -1.3760    0.6354 H   0  0  0  0  0  0  0  0  0  0  0  0
   -0.4860    1.3537    0.7622 C   0  0  0  0  0  0  0  0  0  0  0  0
   -1.3956    2.0096    0.2582 O   0  0  0  0  0  0  0  0  0  0  0  0
    0.3741    1.8728    1.6466 N   0  0  0  0  0  0  0  0  0  0  0  0
    1.0814    1.2667    2.0345 H   0  0  0  0  0  0  0  0  0  0  0  0
    0.3380    3.2610    2.1024 C   0  0  0  0  0  0  0  0  0  0  0  0
   -0.6389    3.4820    2.5363 H   0  0  0  0  0  0  0  0  0  0  0  0
    1.1108    3.4337    2.8528 H   0  0  0  0  0  0  0  0  0  0  0  0
    0.5009    3.9312    1.2562 H   0  0  0  0  0  0  0  0  0  0  0  0
  5  6  2  0  0  0  0
  5  7  1  0  0  0  0
  2  3  1  0  0  0  0
  2  4  1  0  0  0  0
  2  5  1  0  0  0  0
  1  2  1  0  0  0  0
 21 22  2  0  0  0  0
 21 23  1  0  0  0  0
 19 20  1  0  0  0  0
 17 18  2  0  0  0  0
 17 19  1  0  0  0  0
 14 15  1  0  0  0  0
 14 16  1  0  0  0  0
 14 17  1  0  0  0  0
 11 12  1  0  0  0  0
 11 13  1  0  0  0  0
 11 14  1  0  0  0  0
  9 10  1  0  0  0  0
  9 11  1  0  0  0  0
  9 21  1  0  0  0  0
  7  8  1  0  0  0  0
  7  9  1  0  0  0  0
 25 26  1  0  0  0  0
 25 27  1  0  0  0  0
 25 28  1  0  0  0  0
 23 24  1  0  0  0  0
 23 25  1  0  0  0  0
M  END
$$$$
default_name
  -OEChem-02102213163D

 28 27  0     1  0  0  0  0  0999 V2000
   -3.2133   -3.5565    1.2809 H   0  0  0  0  0  0  0  0  0  0  0  0
   -3.1873   -2.5755    0.8089 C   0  0  0  0  0  0  0  0  0  0  0  0
   -3.8793   -1.9065    1.3169 H   0  0  0  0  0  0  0  0  0  0  0  0
   -3.4623   -2.6685   -0.2401 H   0  0  0  0  0  0  0  0  0  0  0  0
   -1.7863   -2.0195    0.9119 C   0  0  0  0  0  0  0  0  0  0  0  0
   -0.9073   -2.6615    1.4699 O   0  0  0  0  0  0  0  0  0  0  0  0
   -1.5803   -0.8195    0.3749 N   0  0  0  0  0  0  0  0  0  0  0  0
   -2.3603   -0.3345   -0.0451 H   0  0  0  0  0  0  0  0  0  0  0  0
   -0.2933   -0.1205    0.3719 C   0  0  1  0  0  0  0  0  0  0  0  0
    0.3577   -0.5843    1.1143 H   0  0  0  0  0  0  0  0  0  0  0  0
    0.3613   -0.2794   -1.0156 C   0  0  0  0  0  0  0  0  0  0  0  0
   -0.4059   -0.6137   -1.7161 H   0  0  0  0  0  0  0  0  0  0  0  0
    0.7294    0.6905   -1.3530 H   0  0  0  0  0  0  0  0  0  0  0  0
    1.5282   -1.2817   -1.0432 C   0  0  0  0  0  0  0  0  0  0  0  0
    1.1430   -2.3010   -1.0149 H   0  0  0  0  0  0  0  0  0  0  0  0
    2.0986   -1.1415   -1.9607 H   0  0  0  0  0  0  0  0  0  0  0  0
    2.4767   -1.0974    0.1370 C   0  0  0  0  0  0  0  0  0  0  0  0
    2.4178   -0.1865    0.9473 O   0  0  0  0  0  0  0  0  0  0  0  0
    3.4458   -2.0244    0.2523 O   0  0  0  0  0  0  0  0  0  0  0  0
    3.9541   -1.7621    1.0217 H   0  0  0  0  0  0  0  0  0  0  0  0
   -0.4860    1.3537    0.7622 C   0  0  0  0  0  0  0  0  0  0  0  0
   -1.3956    2.0096    0.2582 O   0  0  0  0  0  0  0  0  0  0  0  0
    0.3741    1.8728    1.6466 N   0  0  0  0  0  0  0  0  0  0  0  0
    1.0814    1.2667    2.0345 H   0  0  0  0  0  0  0  0  0  0  0  0
    0.3380    3.2610    2.1024 C   0  0  0  0  0  0  0  0  0  0  0  0
   -0.6389    3.4820    2.5363 H   0  0  0  0  0  0  0  0  0  0  0  0
    1.1108    3.4337    2.8528 H   0  0  0  0  0  0  0  0  0  0  0  0
    0.5009    3.9312    1.2562 H   0  0  0  0  0  0  0  0  0  0  0  0
  5  6  2  0  0  0  0
  5  7  1  0  0  0  0
  2  3  1  0  0  0  0
  2  4  1  0  0  0  0
  2  5  1  0  0  0  0
  1  2  1  0  0  0  0
 21 22  2  0  0  0  0
 21 23  1  0  0  0  0
 19 20  1  0  0  0  0
 17 18  2  0  0  0  0
 17 19  1  0  0  0  0
 14 15  1  0  0  0  0
 14 16  1  0  0  0  0
 14 17  1  0  0  0  0
 11 12  1  0  0  0  0
 11 13  1  0  0  0  0
 11 14  1  0  0  0  0
  9 10  1  0  0  0  0
  9 11  1  0  0  0  0
  9 21  1  0  0  0  0
  7  8  1  0  0  0  0
  7  9  1  0  0  0  0
 25 26  1  0  0  0  0
 25 27  1  0  0  0  0
 25 28  1  0  0  0  0
 23 24  1  0  0  0  0
 23 25  1  0  0  0  0
M  END
$$$$
default_name
  -OEChem-02102213163D

 28 27  0     1  0  0  0  0  0999 V2000
   -3.2133   -3.5565    1.2809 H   0  0  0  0  0  0  0  0  0  0  0  0
   -3.1873   -2.5755    0.8089 C   0  0  0  0  0  0  0  0  0  0  0  0
   -3.8793   -1.9065    1.3169 H   0  0  0  0  0  0  0  0  0  0  0  0
   -3.4623   -2.6685   -0.2401 H   0  0  0  0  0  0  0  0  0  0  0  0
   -1.7863   -2.0195    0.9119 C   0  0  0  0  0  0  0  0  0  0  0  0
   -0.9073   -2.6615    1.4699 O   0  0  0  0  0  0  0  0  0  0  0  0
   -1.5803   -0.8195    0.3749 N   0  0  0  0  0  0  0  0  0  0  0  0
   -2.3603   -0.3345   -0.0451 H   0  0  0  0  0  0  0  0  0  0  0  0
   -0.2933   -0.1205    0.3719 C   0  0  1  0  0  0  0  0  0  0  0  0
    0.3577   -0.5843    1.1143 H   0  0  0  0  0  0  0  0  0  0  0  0
    0.3613   -0.2794   -1.0156 C   0  0  0  0  0  0  0  0  0  0  0  0
   -0.4059   -0.6137   -1.7161 H   0  0  0  0  0  0  0  0  0  0  0  0
    0.7294    0.6905   -1.3530 H   0  0  0  0  0  0  0  0  0  0  0  0
    1.5282   -1.2817   -1.0432 C   0  0  0  0  0  0  0  0  0  0  0  0
    1.1562   -2.2783   -1.2811 H   0  0  0  0  0  0  0  0  0  0  0  0
    2.2438   -0.9767   -1.8059 H   0  0  0  0  0  0  0  0  0  0  0  0
    2.2612   -1.3526    0.2925 C   0  0  0  0  0  0  0  0  0  0  0  0
    2.0551   -0.6170    1.2445 O   0  0  0  0  0  0  0  0  0  0  0  0
    3.2080   -2.3049    0.3844 O   0  0  0  0  0  0  0  0  0  0  0  0
    3.5757   -2.2094    1.2647 H   0  0  0  0  0  0  0  0  0  0  0  0
   -0.4860    1.3537    0.7622 C   0  0  0  0  0  0  0  0  0  0  0  0
   -1.3956    2.0096    0.2582 O   0  0  0  0  0  0  0  0  0  0  0  0
    0.3741    1.8728    1.6466 N   0  0  0  0  0  0  0  0  0  0  0  0
    1.0814    1.2667    2.0345 H   0  0  0  0  0  0  0  0  0  0  0  0
    0.3380    3.2610    2.1024 C   0  0  0  0  0  0  0  0  0  0  0  0
   -0.6389    3.4820    2.5363 H   0  0  0  0  0  0  0  0  0  0  0  0
    1.1108    3.4337    2.8528 H   0  0  0  0  0  0  0  0  0  0  0  0
    0.5009    3.9312    1.2562 H   0  0  0  0  0  0  0  0  0  0  0  0
  5  6  2  0  0  0  0
  5  7  1  0  0  0  0
  2  3  1  0  0  0  0
  2  4  1  0  0  0  0
  2  5  1  0  0  0  0
  1  2  1  0  0  0  0
 21 22  2  0  0  0  0
 21 23  1  0  0  0  0
 19 20  1  0  0  0  0
 17 18  2  0  0  0  0
 17 19  1  0  0  0  0
 14 15  1  0  0  0  0
 14 16  1  0  0  0  0
 14 17  1  0  0  0  0
 11 12  1  0  0  0  0
 11 13  1  0  0  0  0
 11 14  1  0  0  0  0
  9 10  1  0  0  0  0
  9 11  1  0  0  0  0
  9 21  1  0  0  0  0
  7  8  1  0  0  0  0
  7  9  1  0  0  0  0
 25 26  1  0  0  0  0
 25 27  1  0  0  0  0
 25 28  1  0  0  0  0
 23 24  1  0  0  0  0
 23 25  1  0  0  0  0
M  END
$$$$
default_name
  -OEChem-02102213163D

 28 27  0     1  0  0  0  0  0999 V2000
   -3.2133   -3.5565    1.2809 H   0  0  0  0  0  0  0  0  0  0  0  0
   -3.1873   -2.5755    0.8089 C   0  0  0  0  0  0  0  0  0  0  0  0
   -3.8793   -1.9065    1.3169 H   0  0  0  0  0  0  0  0  0  0  0  0
   -3.4623   -2.6685   -0.2401 H   0  0  0  0  0  0  0  0  0  0  0  0
   -1.7863   -2.0195    0.9119 C   0  0  0  0  0  0  0  0  0  0  0  0
   -0.9073   -2.6615    1.4699 O   0  0  0  0  0  0  0  0  0  0  0  0
   -1.5803   -0.8195    0.3749 N   0  0  0  0  0  0  0  0  0  0  0  0
   -2.3603   -0.3345   -0.0451 H   0  0  0  0  0  0  0  0  0  0  0  0
   -0.2933   -0.1205    0.3719 C   0  0  1  0  0  0  0  0  0  0  0  0
    0.3577   -0.5843    1.1143 H   0  0  0  0  0  0  0  0  0  0  0  0
    0.3613   -0.2794   -1.0156 C   0  0  0  0  0  0  0  0  0  0  0  0
   -0.4059   -0.6137   -1.7161 H   0  0  0  0  0  0  0  0  0  0  0  0
    0.7294    0.6905   -1.3530 H   0  0  0  0  0  0  0  0  0  0  0  0
    1.5282   -1.2817   -1.0432 C   0  0  0  0  0  0  0  0  0  0  0  0
    1.2139   -2.2041   -1.5316 H   0  0  0  0  0  0  0  0  0  0  0  0
    2.3587   -0.8487   -1.5997 H   0  0  0  0  0  0  0  0  0  0  0  0
    2.0257   -1.6287    0.3563 C   0  0  0  0  0  0  0  0  0  0  0  0
    1.6526   -1.0896    1.3859 O   0  0  0  0  0  0  0  0  0  0  0  0
    2.9548   -2.6006    0.4170 O   0  0  0  0  0  0  0  0  0  0  0  0
    3.1672   -2.6873    1.3479 H   0  0  0  0  0  0  0  0  0  0  0  0
   -0.4860    1.3537    0.7622 C   0  0  0  0  0  0  0  0  0  0  0  0
   -1.3956    2.0096    0.2582 O   0  0  0  0  0  0  0  0  0  0  0  0
    0.3741    1.8728    1.6466 N   0  0  0  0  0  0  0  0  0  0  0  0
    1.0814    1.2667    2.0345 H   0  0  0  0  0  0  0  0  0  0  0  0
    0.3380    3.2610    2.1024 C   0  0  0  0  0  0  0  0  0  0  0  0
   -0.6389    3.4820    2.5363 H   0  0  0  0  0  0  0  0  0  0  0  0
    1.1108    3.4337    2.8528 H   0  0  0  0  0  0  0  0  0  0  0  0
    0.5009    3.9312    1.2562 H   0  0  0  0  0  0  0  0  0  0  0  0
  5  6  2  0  0  0  0
  5  7  1  0  0  0  0
  2  3  1  0  0  0  0
  2  4  1  0  0  0  0
  2  5  1  0  0  0  0
  1  2  1  0  0  0  0
 21 22  2  0  0  0  0
 21 23  1  0  0  0  0
 19 20  1  0  0  0  0
 17 18  2  0  0  0  0
 17 19  1  0  0  0  0
 14 15  1  0  0  0  0
 14 16  1  0  0  0  0
 14 17  1  0  0  0  0
 11 12  1  0  0  0  0
 11 13  1  0  0  0  0
 11 14  1  0  0  0  0
  9 10  1  0  0  0  0
  9 11  1  0  0  0  0
  9 21  1  0  0  0  0
  7  8  1  0  0  0  0
  7  9  1  0  0  0  0
 25 26  1  0  0  0  0
 25 27  1  0  0  0  0
 25 28  1  0  0  0  0
 23 24  1  0  0  0  0
 23 25  1  0  0  0  0
M  END
$$$$
default_name
  -OEChem-02102213163D

 28 27  0     1  0  0  0  0  0999 V2000
   -3.2133   -3.5565    1.2809 H   0  0  0  0  0  0  0  0  0  0  0  0
   -3.1873   -2.5755    0.8089 C   0  0  0  0  0  0  0  0  0  0  0  0
   -3.8793   -1.9065    1.3169 H   0  0  0  0  0  0  0  0  0  0  0  0
   -3.4623   -2.6685   -0.2401 H   0  0  0  0  0  0  0  0  0  0  0  0
   -1.7863   -2.0195    0.9119 C   0  0  0  0  0  0  0  0  0  0  0  0
   -0.9073   -2.6615    1.4699 O   0  0  0  0  0  0  0  0  0  0  0  0
   -1.5803   -0.8195    0.3749 N   0  0  0  0  0  0  0  0  0  0  0  0
   -2.3603   -0.3345   -0.0451 H   0  0  0  0  0  0  0  0  0  0  0  0
   -0.2933   -0.1205    0.3719 C   0  0  1  0  0  0  0  0  0  0  0  0
    0.3577   -0.5843    1.1143 H   0  0  0  0  0  0  0  0  0  0  0  0
    0.3613   -0.2794   -1.0156 C   0  0  0  0  0  0  0  0  0  0  0  0
   -0.4059   -0.6137   -1.7161 H   0  0  0  0  0  0  0  0  0  0  0  0
    0.7294    0.6905   -1.3530 H   0  0  0  0  0  0  0  0  0  0  0  0
    1.5282   -1.2817   -1.0432 C   0  0  0  0  0  0  0  0  0  0  0  0
    1.3123   -2.0836   -1.7493 H   0  0  0  0  0  0  0  0  0  0  0  0
    2.4355   -0.7660   -1.3559 H   0  0  0  0  0  0  0  0  0  0  0  0
    1.7861   -1.9067    0.3240 C   0  0  0  0  0  0  0  0  0  0  0  0
    1.2378   -1.5719    1.3618 O   0  0  0  0  0  0  0  0  0  0  0  0
    2.7034   -2.8914    0.3476 O   0  0  0  0  0  0  0  0  0  0  0  0
    2.7564   -3.1634    1.2655 H   0  0  0  0  0  0  0  0  0  0  0  0
   -0.4860    1.3537    0.7622 C   0  0  0  0  0  0  0  0  0  0  0  0
   -1.3956    2.0096    0.2582 O   0  0  0  0  0  0  0  0  0  0  0  0
    0.3741    1.8728    1.6466 N   0  0  0  0  0  0  0  0  0  0  0  0
    1.0814    1.2667    2.0345 H   0  0  0  0  0  0  0  0  0  0  0  0
    0.3380    3.2610    2.1024 C   0  0  0  0  0  0  0  0  0  0  0  0
   -0.6389    3.4820    2.5363 H   0  0  0  0  0  0  0  0  0  0  0  0
    1.1108    3.4337    2.8528 H   0  0  0  0  0  0  0  0  0  0  0  0
    0.5009    3.9312    1.2562 H   0  0  0  0  0  0  0  0  0  0  0  0
  5  6  2  0  0  0  0
  5  7  1  0  0  0  0
  2  3  1  0  0  0  0
  2  4  1  0  0  0  0
  2  5  1  0  0  0  0
  1  2  1  0  0  0  0
 21 22  2  0  0  0  0
 21 23  1  0  0  0  0
 19 20  1  0  0  0  0
 17 18  2  0  0  0  0
 17 19  1  0  0  0  0
 14 15  1  0  0  0  0
 14 16  1  0  0  0  0
 14 17  1  0  0  0  0
 11 12  1  0  0  0  0
 11 13  1  0  0  0  0
 11 14  1  0  0  0  0
  9 10  1  0  0  0  0
  9 11  1  0  0  0  0
  9 21  1  0  0  0  0
  7  8  1  0  0  0  0
  7  9  1  0  0  0  0
 25 26  1  0  0  0  0
 25 27  1  0  0  0  0
 25 28  1  0  0  0  0
 23 24  1  0  0  0  0
 23 25  1  0  0  0  0
M  END
$$$$
default_name
  -OEChem-02102213163D

 28 27  0     1  0  0  0  0  0999 V2000
   -3.2133   -3.5565    1.2809 H   0  0  0  0  0  0  0  0  0  0  0  0
   -3.1873   -2.5755    0.8089 C   0  0  0  0  0  0  0  0  0  0  0  0
   -3.8793   -1.9065    1.3169 H   0  0  0  0  0  0  0  0  0  0  0  0
   -3.4623   -2.6685   -0.2401 H   0  0  0  0  0  0  0  0  0  0  0  0
   -1.7863   -2.0195    0.9119 C   0  0  0  0  0  0  0  0  0  0  0  0
   -0.9073   -2.6615    1.4699 O   0  0  0  0  0  0  0  0  0  0  0  0
   -1.5803   -0.8195    0.3749 N   0  0  0  0  0  0  0  0  0  0  0  0
   -2.3603   -0.3345   -0.0451 H   0  0  0  0  0  0  0  0  0  0  0  0
   -0.2933   -0.1205    0.3719 C   0  0  1  0  0  0  0  0  0  0  0  0
    0.3577   -0.5843    1.1143 H   0  0  0  0  0  0  0  0  0  0  0  0
    0.3613   -0.2794   -1.0156 C   0  0  0  0  0  0  0  0  0  0  0  0
   -0.4059   -0.6137   -1.7161 H   0  0  0  0  0  0  0  0  0  0  0  0
    0.7294    0.6905   -1.3530 H   0  0  0  0  0  0  0  0  0  0  0  0
    1.5282   -1.2817   -1.0432 C   0  0  0  0  0  0  0  0  0  0  0  0
    1.4445   -1.9249   -1.9193 H   0  0  0  0  0  0  0  0  0  0  0  0
    2.4689   -0.7344   -1.0913 H   0  0  0  0  0  0  0  0  0  0  0  0
    1.5588   -2.1679    0.1978 C   0  0  0  0  0  0  0  0  0  0  0  0
    0.8389   -2.0312    1.1740 O   0  0  0  0  0  0  0  0  0  0  0  0
    2.4708   -3.1576    0.1812 O   0  0  0  0  0  0  0  0  0  0  0  0
    2.3712   -3.6052    1.0232 H   0  0  0  0  0  0  0  0  0  0  0  0
   -0.4860    1.3537    0.7622 C   0  0  0  0  0  0  0  0  0  0  0  0
   -1.3956    2.0096    0.2582 O   0  0  0  0  0  0  0  0  0  0  0  0
    0.3741    1.8728    1.6466 N   0  0  0  0  0  0  0  0  0  0  0  0
    1.0814    1.2667    2.0345 H   0  0  0  0  0  0  0  0  0  0  0  0
    0.3380    3.2610    2.1024 C   0  0  0  0  0  0  0  0  0  0  0  0
   -0.6389    3.4820    2.5363 H   0  0  0  0  0  0  0  0  0  0  0  0
    1.1108    3.4337    2.8528 H   0  0  0  0  0  0  0  0  0  0  0  0
    0.5009    3.9312    1.2562 H   0  0  0  0  0  0  0  0  0  0  0  0
  5  6  2  0  0  0  0
  5  7  1  0  0  0  0
  2  3  1  0  0  0  0
  2  4  1  0  0  0  0
  2  5  1  0  0  0  0
  1  2  1  0  0  0  0
 21 22  2  0  0  0  0
 21 23  1  0  0  0  0
 19 20  1  0  0  0  0
 17 18  2  0  0  0  0
 17 19  1  0  0  0  0
 14 15  1  0  0  0  0
 14 16  1  0  0  0  0
 14 17  1  0  0  0  0
 11 12  1  0  0  0  0
 11 13  1  0  0  0  0
 11 14  1  0  0  0  0
  9 10  1  0  0  0  0
  9 11  1  0  0  0  0
  9 21  1  0  0  0  0
  7  8  1  0  0  0  0
  7  9  1  0  0  0  0
 25 26  1  0  0  0  0
 25 27  1  0  0  0  0
 25 28  1  0  0  0  0
 23 24  1  0  0  0  0
 23 25  1  0  0  0  0
M  END
$$$$
default_name
  -OEChem-02102213163D

 28 27  0     1  0  0  0  0  0999 V2000
   -3.2133   -3.5565    1.2809 H   0  0  0  0  0  0  0  0  0  0  0  0
   -3.1873   -2.5755    0.8089 C   0  0  0  0  0  0  0  0  0  0  0  0
   -3.8793   -1.9065    1.3169 H   0  0  0  0  0  0  0  0  0  0  0  0
   -3.4623   -2.6685   -0.2401 H   0  0  0  0  0  0  0  0  0  0  0  0
   -1.7863   -2.0195    0.9119 C   0  0  0  0  0  0  0  0  0  0  0  0
   -0.9073   -2.6615    1.4699 O   0  0  0  0  0  0  0  0  0  0  0  0
   -1.5803   -0.8195    0.3749 N   0  0  0  0  0  0  0  0  0  0  0  0
   -2.3603   -0.3345   -0.0451 H   0  0  0  0  0  0  0  0  0  0  0  0
   -0.2933   -0.1205    0.3719 C   0  0  1  0  0  0  0  0  0  0  0  0
    0.3577   -0.5843    1.1143 H   0  0  0  0  0  0  0  0  0  0  0  0
    0.3613   -0.2794   -1.0156 C   0  0  0  0  0  0  0  0  0  0  0  0
   -0.4059   -0.6137   -1.7161 H   0  0  0  0  0  0  0  0  0  0  0  0
    0.7294    0.6905   -1.3530 H   0  0  0  0  0  0  0  0  0  0  0  0
    1.5282   -1.2817   -1.0432 C   0  0  0  0  0  0  0  0  0  0  0  0
    1.6017   -1.7388   -2.0301 H   0  0  0  0  0  0  0  0  0  0  0  0
    2.4568   -0.7559   -0.8238 H   0  0  0  0  0  0  0  0  0  0  0  0
    1.3594   -2.3943   -0.0136 C   0  0  0  0  0  0  0  0  0  0  0  0
    0.4832   -2.4360    0.8351 O   0  0  0  0  0  0  0  0  0  0  0  0
    2.2730   -3.3809   -0.0711 O   0  0  0  0  0  0  0  0  0  0  0  0
    2.0379   -3.9826    0.6375 H   0  0  0  0  0  0  0  0  0  0  0  0
   -0.4860    1.3537    0.7622 C   0  0  0  0  0  0  0  0  0  0  0  0
   -1.3956    2.0096    0.2582 O   0  0  0  0  0  0  0  0  0  0  0  0
    0.3741    1.8728    1.6466 N   0  0  0  0  0  0  0  0  0  0  0  0
    1.0814    1.2667    2.0345 H   0  0  0  0  0  0  0  0  0  0  0  0
    0.3380    3.2610    2.1024 C   0  0  0  0  0  0  0  0  0  0  0  0
   -0.6389    3.4820    2.5363 H   0  0  0  0  0  0  0  0  0  0  0  0
    1.1108    3.4337    2.8528 H   0  0  0  0  0  0  0  0  0  0  0  0
    0.5009    3.9312    1.2562 H   0  0  0  0  0  0  0  0  0  0  0  0
  5  6  2  0  0  0  0
  5  7  1  0  0  0  0
  2  3  1  0  0  0  0
  2  4  1  0  0  0  0
  2  5  1  0  0  0  0
  1  2  1  0  0  0  0
 21 22  2  0  0  0  0
 21 23  1  0  0  0  0
 19 20  1  0  0  0  0
 17 18  2  0  0  0  0
 17 19  1  0  0  0  0
 14 15  1  0  0  0  0
 14 16  1  0  0  0  0
 14 17  1  0  0  0  0
 11 12  1  0  0  0  0
 11 13  1  0  0  0  0
 11 14  1  0  0  0  0
  9 10  1  0  0  0  0
  9 11  1  0  0  0  0
  9 21  1  0  0  0  0
  7  8  1  0  0  0  0
  7  9  1  0  0  0  0
 25 26  1  0  0  0  0
 25 27  1  0  0  0  0
 25 28  1  0  0  0  0
 23 24  1  0  0  0  0
 23 25  1  0  0  0  0
M  END
$$$$
default_name
  -OEChem-02102213163D

 28 27  0     1  0  0  0  0  0999 V2000
   -3.2133   -3.5565    1.2809 H   0  0  0  0  0  0  0  0  0  0  0  0
   -3.1873   -2.5755    0.8089 C   0  0  0  0  0  0  0  0  0  0  0  0
   -3.8793   -1.9065    1.3169 H   0  0  0  0  0  0  0  0  0  0  0  0
   -3.4623   -2.6685   -0.2401 H   0  0  0  0  0  0  0  0  0  0  0  0
   -1.7863   -2.0195    0.9119 C   0  0  0  0  0  0  0  0  0  0  0  0
   -0.9073   -2.6615    1.4699 O   0  0  0  0  0  0  0  0  0  0  0  0
   -1.5803   -0.8195    0.3749 N   0  0  0  0  0  0  0  0  0  0  0  0
   -2.3603   -0.3345   -0.0451 H   0  0  0  0  0  0  0  0  0  0  0  0
   -0.2933   -0.1205    0.3719 C   0  0  1  0  0  0  0  0  0  0  0  0
    0.3577   -0.5843    1.1143 H   0  0  0  0  0  0  0  0  0  0  0  0
    0.3613   -0.2794   -1.0156 C   0  0  0  0  0  0  0  0  0  0  0  0
   -0.4059   -0.6137   -1.7161 H   0  0  0  0  0  0  0  0  0  0  0  0
    0.7294    0.6905   -1.3530 H   0  0  0  0  0  0  0  0  0  0  0  0
    1.5282   -1.2817   -1.0432 C   0  0  0  0  0  0  0  0  0  0  0  0
    1.7730   -1.5381   -2.0740 H   0  0  0  0  0  0  0  0  0  0  0  0
    2.3998   -0.8291   -0.5718 H   0  0  0  0  0  0  0  0  0  0  0  0
    1.2013   -2.5705   -0.2960 C   0  0  0  0  0  0  0  0  0  0  0  0
    0.1948   -2.7589    0.3683 O   0  0  0  0  0  0  0  0  0  0  0  0
    2.1235   -3.5462   -0.3919 O   0  0  0  0  0  0  0  0  0  0  0  0
    1.7793   -4.2699    0.1346 H   0  0  0  0  0  0  0  0  0  0  0  0
   -0.4860    1.3537    0.7622 C   0  0  0  0  0  0  0  0  0  0  0  0
   -1.3956    2.0096    0.2582 O   0  0  0  0  0  0  0  0  0  0  0  0
    0.3741    1.8728    1.6466 N   0  0  0  0  0  0  0  0  0  0  0  0
    1.0814    1.2667    2.0345 H   0  0  0  0  0  0  0  0  0  0  0  0
    0.3380    3.2610    2.1024 C   0  0  0  0  0  0  0  0  0  0  0  0
   -0.6389    3.4820    2.5363 H   0  0  0  0  0  0  0  0  0  0  0  0
    1.1108    3.4337    2.8528 H   0  0  0  0  0  0  0  0  0  0  0  0
    0.5009    3.9312    1.2562 H   0  0  0  0  0  0  0  0  0  0  0  0
  5  6  2  0  0  0  0
  5  7  1  0  0  0  0
  2  3  1  0  0  0  0
  2  4  1  0  0  0  0
  2  5  1  0  0  0  0
  1  2  1  0  0  0  0
 21 22  2  0  0  0  0
 21 23  1  0  0  0  0
 19 20  1  0  0  0  0
 17 18  2  0  0  0  0
 17 19  1  0  0  0  0
 14 15  1  0  0  0  0
 14 16  1  0  0  0  0
 14 17  1  0  0  0  0
 11 12  1  0  0  0  0
 11 13  1  0  0  0  0
 11 14  1  0  0  0  0
  9 10  1  0  0  0  0
  9 11  1  0  0  0  0
  9 21  1  0  0  0  0
  7  8  1  0  0  0  0
  7  9  1  0  0  0  0
 25 26  1  0  0  0  0
 25 27  1  0  0  0  0
 25 28  1  0  0  0  0
 23 24  1  0  0  0  0
 23 25  1  0  0  0  0
M  END
$$$$
default_name
  -OEChem-02102213163D

 28 27  0     1  0  0  0  0  0999 V2000
   -3.2133   -3.5565    1.2809 H   0  0  0  0  0  0  0  0  0  0  0  0
   -3.1873   -2.5755    0.8089 C   0  0  0  0  0  0  0  0  0  0  0  0
   -3.8793   -1.9065    1.3169 H   0  0  0  0  0  0  0  0  0  0  0  0
   -3.4623   -2.6685   -0.2401 H   0  0  0  0  0  0  0  0  0  0  0  0
   -1.7863   -2.0195    0.9119 C   0  0  0  0  0  0  0  0  0  0  0  0
   -0.9073   -2.6615    1.4699 O   0  0  0  0  0  0  0  0  0  0  0  0
   -1.5803   -0.8195    0.3749 N   0  0  0  0  0  0  0  0  0  0  0  0
   -2.3603   -0.3345   -0.0451 H   0  0  0  0  0  0  0  0  0  0  0  0
   -0.2933   -0.1205    0.3719 C   0  0  1  0  0  0  0  0  0  0  0  0
    0.3577   -0.5843    1.1143 H   0  0  0  0  0  0  0  0  0  0  0  0
    0.3613   -0.2794   -1.0156 C   0  0  0  0  0  0  0  0  0  0  0  0
   -0.4059   -0.6137   -1.7161 H   0  0  0  0  0  0  0  0  0  0  0  0
    0.7294    0.6905   -1.3530 H   0  0  0  0  0  0  0  0  0  0  0  0
    1.5282   -1.2817   -1.0432 C   0  0  0  0  0  0  0  0  0  0  0  0
    1.9469   -1.3364   -2.0482 H   0  0  0  0  0  0  0  0  0  0  0  0
    2.3020   -0.9491   -0.3522 H   0  0  0  0  0  0  0  0  0  0  0  0
    1.0954   -2.6846   -0.6299 C   0  0  0  0  0  0  0  0  0  0  0  0
   -0.0066   -2.9778   -0.1946 O   0  0  0  0  0  0  0  0  0  0  0  0
    2.0323   -3.6422   -0.7595 O   0  0  0  0  0  0  0  0  0  0  0  0
    1.6130   -4.4474   -0.4511 H   0  0  0  0  0  0  0  0  0  0  0  0
   -0.4860    1.3537    0.7622 C   0  0  0  0  0  0  0  0  0  0  0  0
   -1.3956    2.0096    0.2582 O   0  0  0  0  0  0  0  0  0  0  0  0
    0.3741    1.8728    1.6466 N   0  0  0  0  0  0  0  0  0  0  0  0
    1.0814    1.2667    2.0345 H   0  0  0  0  0  0  0  0  0  0  0  0
    0.3380    3.2610    2.1024 C   0  0  0  0  0  0  0  0  0  0  0  0
   -0.6389    3.4820    2.5363 H   0  0  0  0  0  0  0  0  0  0  0  0
    1.1108    3.4337    2.8528 H   0  0  0  0  0  0  0  0  0  0  0  0
    0.5009    3.9312    1.2562 H   0  0  0  0  0  0  0  0  0  0  0  0
  5  6  2  0  0  0  0
  5  7  1  0  0  0  0
  2  3  1  0  0  0  0
  2  4  1  0  0  0  0
  2  5  1  0  0  0  0
  1  2  1  0  0  0  0
 21 22  2  0  0  0  0
 21 23  1  0  0  0  0
 19 20  1  0  0  0  0
 17 18  2  0  0  0  0
 17 19  1  0  0  0  0
 14 15  1  0  0  0  0
 14 16  1  0  0  0  0
 14 17  1  0  0  0  0
 11 12  1  0  0  0  0
 11 13  1  0  0  0  0
 11 14  1  0  0  0  0
  9 10  1  0  0  0  0
  9 11  1  0  0  0  0
  9 21  1  0  0  0  0
  7  8  1  0  0  0  0
  7  9  1  0  0  0  0
 25 26  1  0  0  0  0
 25 27  1  0  0  0  0
 25 28  1  0  0  0  0
 23 24  1  0  0  0  0
 23 25  1  0  0  0  0
M  END
$$$$
default_name
  -OEChem-02102213163D

 28 27  0     1  0  0  0  0  0999 V2000
   -3.2133   -3.5565    1.2809 H   0  0  0  0  0  0  0  0  0  0  0  0
   -3.1873   -2.5755    0.8089 C   0  0  0  0  0  0  0  0  0  0  0  0
   -3.8793   -1.9065    1.3169 H   0  0  0  0  0  0  0  0  0  0  0  0
   -3.4623   -2.6685   -0.2401 H   0  0  0  0  0  0  0  0  0  0  0  0
   -1.7863   -2.0195    0.9119 C   0  0  0  0  0  0  0  0  0  0  0  0
   -0.9073   -2.6615    1.4699 O   0  0  0  0  0  0  0  0  0  0  0  0
   -1.5803   -0.8195    0.3749 N   0  0  0  0  0  0  0  0  0  0  0  0
   -2.3603   -0.3345   -0.0451 H   0  0  0  0  0  0  0  0  0  0  0  0
   -0.2933   -0.1205    0.3719 C   0  0  1  0  0  0  0  0  0  0  0  0
    0.3577   -0.5843    1.1143 H   0  0  0  0  0  0  0  0  0  0  0  0
    0.3613   -0.2794   -1.0156 C   0  0  0  0  0  0  0  0  0  0  0  0
   -0.4059   -0.6137   -1.7161 H   0  0  0  0  0  0  0  0  0  0  0  0
    0.7294    0.6905   -1.3530 H   0  0  0  0  0  0  0  0  0  0  0  0
    1.5282   -1.2817   -1.0432 C   0  0  0  0  0  0  0  0  0  0  0  0
    2.1114   -1.1474   -1.9543 H   0  0  0  0  0  0  0  0  0  0  0  0
    2.1699   -1.1076   -0.1803 H   0  0  0  0  0  0  0  0  0  0  0  0
    1.0489   -2.7288   -0.9928 C   0  0  0  0  0  0  0  0  0  0  0  0
   -0.1072   -3.0778   -0.8152 O   0  0  0  0  0  0  0  0  0  0  0  0
    2.0058   -3.6623   -1.1487 O   0  0  0  0  0  0  0  0  0  0  0  0
    1.5502   -4.5031   -1.0798 H   0  0  0  0  0  0  0  0  0  0  0  0
   -0.4860    1.3537    0.7622 C   0  0  0  0  0  0  0  0  0  0  0  0
   -1.3956    2.0096    0.2582 O   0  0  0  0  0  0  0  0  0  0  0  0
    0.3741    1.8728    1.6466 N   0  0  0  0  0  0  0  0  0  0  0  0
    1.0814    1.2667    2.0345 H   0  0  0  0  0  0  0  0  0  0  0  0
    0.3380    3.2610    2.1024 C   0  0  0  0  0  0  0  0  0  0  0  0
   -0.6389    3.4820    2.5363 H   0  0  0  0  0  0  0  0  0  0  0  0
    1.1108    3.4337    2.8528 H   0  0  0  0  0  0  0  0  0  0  0  0
    0.5009    3.9312    1.2562 H   0  0  0  0  0  0  0  0  0  0  0  0
  5  6  2  0  0  0  0
  5  7  1  0  0  0  0
  2  3  1  0  0  0  0
  2  4  1  0  0  0  0
  2  5  1  0  0  0  0
  1  2  1  0  0  0  0
 21 22  2  0  0  0  0
 21 23  1  0  0  0  0
 19 20  1  0  0  0  0
 17 18  2  0  0  0  0
 17 19  1  0  0  0  0
 14 15  1  0  0  0  0
 14 16  1  0  0  0  0
 14 17  1  0  0  0  0
 11 12  1  0  0  0  0
 11 13  1  0  0  0  0
 11 14  1  0  0  0  0
  9 10  1  0  0  0  0
  9 11  1  0  0  0  0
  9 21  1  0  0  0  0
  7  8  1  0  0  0  0
  7  9  1  0  0  0  0
 25 26  1  0  0  0  0
 25 27  1  0  0  0  0
 25 28  1  0  0  0  0
 23 24  1  0  0  0  0
 23 25  1  0  0  0  0
M  END
$$$$
default_name
  -OEChem-02102213163D

 28 27  0     1  0  0  0  0  0999 V2000
   -3.2133   -3.5565    1.2809 H   0  0  0  0  0  0  0  0  0  0  0  0
   -3.1873   -2.5755    0.8089 C   0  0  0  0  0  0  0  0  0  0  0  0
   -3.8793   -1.9065    1.3169 H   0  0  0  0  0  0  0  0  0  0  0  0
   -3.4623   -2.6685   -0.2401 H   0  0  0  0  0  0  0  0  0  0  0  0
   -1.7863   -2.0195    0.9119 C   0  0  0  0  0  0  0  0  0  0  0  0
   -0.9073   -2.6615    1.4699 O   0  0  0  0  0  0  0  0  0  0  0  0
   -1.5803   -0.8195    0.3749 N   0  0  0  0  0  0  0  0  0  0  0  0
   -2.3603   -0.3345   -0.0451 H   0  0  0  0  0  0  0  0  0  0  0  0
   -0.2933   -0.1205    0.3719 C   0  0  1  0  0  0  0  0  0  0  0  0
    0.3577   -0.5843    1.1143 H   0  0  0  0  0  0  0  0  0  0  0  0
    0.3613   -0.2794   -1.0156 C   0  0  0  0  0  0  0  0  0  0  0  0
   -0.4059   -0.6137   -1.7161 H   0  0  0  0  0  0  0  0  0  0  0  0
    0.7294    0.6905   -1.3530 H   0  0  0  0  0  0  0  0  0  0  0  0
    1.5282   -1.2817   -1.0432 C   0  0  0  0  0  0  0  0  0  0  0  0
    2.2554   -0.9841   -1.7988 H   0  0  0  0  0  0  0  0  0  0  0  0
    2.0126   -1.2939   -0.0675 H   0  0  0  0  0  0  0  0  0  0  0  0
    1.0649   -2.7000   -1.3597 C   0  0  0  0  0  0  0  0  0  0  0  0
   -0.1002   -3.0521   -1.4513 O   0  0  0  0  0  0  0  0  0  0  0  0
    2.0458   -3.6052   -1.5332 O   0  0  0  0  0  0  0  0  0  0  0  0
    1.5953   -4.4332   -1.7086 H   0  0  0  0  0  0  0  0  0  0  0  0
   -0.4860    1.3537    0.7622 C   0  0  0  0  0  0  0  0  0  0  0  0
   -1.3956    2.0096    0.2582 O   0  0  0  0  0  0  0  0  0  0  0  0
    0.3741    1.8728    1.6466 N   0  0  0  0  0  0  0  0  0  0  0  0
    1.0814    1.2667    2.0345 H   0  0  0  0  0  0  0  0  0  0  0  0
    0.3380    3.2610    2.1024 C   0  0  0  0  0  0  0  0  0  0  0  0
   -0.6389    3.4820    2.5363 H   0  0  0  0  0  0  0  0  0  0  0  0
    1.1108    3.4337    2.8528 H   0  0  0  0  0  0  0  0  0  0  0  0
    0.5009    3.9312    1.2562 H   0  0  0  0  0  0  0  0  0  0  0  0
  5  6  2  0  0  0  0
  5  7  1  0  0  0  0
  2  3  1  0  0  0  0
  2  4  1  0  0  0  0
  2  5  1  0  0  0  0
  1  2  1  0  0  0  0
 21 22  2  0  0  0  0
 21 23  1  0  0  0  0
 19 20  1  0  0  0  0
 17 18  2  0  0  0  0
 17 19  1  0  0  0  0
 14 15  1  0  0  0  0
 14 16  1  0  0  0  0
 14 17  1  0  0  0  0
 11 12  1  0  0  0  0
 11 13  1  0  0  0  0
 11 14  1  0  0  0  0
  9 10  1  0  0  0  0
  9 11  1  0  0  0  0
  9 21  1  0  0  0  0
  7  8  1  0  0  0  0
  7  9  1  0  0  0  0
 25 26  1  0  0  0  0
 25 27  1  0  0  0  0
 25 28  1  0  0  0  0
 23 24  1  0  0  0  0
 23 25  1  0  0  0  0
M  END
$$$$
default_name
  -OEChem-02102213163D

 28 27  0     1  0  0  0  0  0999 V2000
   -3.2133   -3.5565    1.2809 H   0  0  0  0  0  0  0  0  0  0  0  0
   -3.1873   -2.5755    0.8089 C   0  0  0  0  0  0  0  0  0  0  0  0
   -3.8793   -1.9065    1.3169 H   0  0  0  0  0  0  0  0  0  0  0  0
   -3.4623   -2.6685   -0.2401 H   0  0  0  0  0  0  0  0  0  0  0  0
   -1.7863   -2.0195    0.9119 C   0  0  0  0  0  0  0  0  0  0  0  0
   -0.9073   -2.6615    1.4699 O   0  0  0  0  0  0  0  0  0  0  0  0
   -1.5803   -0.8195    0.3749 N   0  0  0  0  0  0  0  0  0  0  0  0
   -2.3603   -0.3345   -0.0451 H   0  0  0  0  0  0  0  0  0  0  0  0
   -0.2933   -0.1205    0.3719 C   0  0  1  0  0  0  0  0  0  0  0  0
    0.3577   -0.5843    1.1143 H   0  0  0  0  0  0  0  0  0  0  0  0
    0.3613   -0.2794   -1.0156 C   0  0  0  0  0  0  0  0  0  0  0  0
   -0.4059   -0.6137   -1.7161 H   0  0  0  0  0  0  0  0  0  0  0  0
    0.7294    0.6905   -1.3530 H   0  0  0  0  0  0  0  0  0  0  0  0
    1.5282   -1.2817   -1.0432 C   0  0  0  0  0  0  0  0  0  0  0  0
    2.3690   -0.8575   -1.5923 H   0  0  0  0  0  0  0  0  0  0  0  0
    1.8408   -1.4952   -0.0217 H   0  0  0  0  0  0  0  0  0  0  0  0
    1.1424   -2.6002   -1.7059 C   0  0  0  0  0  0  0  0  0  0  0  0
    0.0139   -2.9025   -2.0594 O   0  0  0  0  0  0  0  0  0  0  0  0
    2.1494   -3.4748   -1.8865 O   0  0  0  0  0  0  0  0  0  0  0  0
    1.7452   -4.2425   -2.2946 H   0  0  0  0  0  0  0  0  0  0  0  0
   -0.4860    1.3537    0.7622 C   0  0  0  0  0  0  0  0  0  0  0  0
   -1.3956    2.0096    0.2582 O   0  0  0  0  0  0  0  0  0  0  0  0
    0.3741    1.8728    1.6466 N   0  0  0  0  0  0  0  0  0  0  0  0
    1.0814    1.2667    2.0345 H   0  0  0  0  0  0  0  0  0  0  0  0
    0.3380    3.2610    2.1024 C   0  0  0  0  0  0  0  0  0  0  0  0
   -0.6389    3.4820    2.5363 H   0  0  0  0  0  0  0  0  0  0  0  0
    1.1108    3.4337    2.8528 H   0  0  0  0  0  0  0  0  0  0  0  0
    0.5009    3.9312    1.2562 H   0  0  0  0  0  0  0  0  0  0  0  0
  5  6  2  0  0  0  0
  5  7  1  0  0  0  0
  2  3  1  0  0  0  0
  2  4  1  0  0  0  0
  2  5  1  0  0  0  0
  1  2  1  0  0  0  0
 21 22  2  0  0  0  0
 21 23  1  0  0  0  0
 19 20  1  0  0  0  0
 17 18  2  0  0  0  0
 17 19  1  0  0  0  0
 14 15  1  0  0  0  0
 14 16  1  0  0  0  0
 14 17  1  0  0  0  0
 11 12  1  0  0  0  0
 11 13  1  0  0  0  0
 11 14  1  0  0  0  0
  9 10  1  0  0  0  0
  9 11  1  0  0  0  0
  9 21  1  0  0  0  0
  7  8  1  0  0  0  0
  7  9  1  0  0  0  0
 25 26  1  0  0  0  0
 25 27  1  0  0  0  0
 25 28  1  0  0  0  0
 23 24  1  0  0  0  0
 23 25  1  0  0  0  0
M  END
$$$$
default_name
  -OEChem-02102213163D

 28 27  0     1  0  0  0  0  0999 V2000
   -3.2133   -3.5565    1.2809 H   0  0  0  0  0  0  0  0  0  0  0  0
   -3.1873   -2.5755    0.8089 C   0  0  0  0  0  0  0  0  0  0  0  0
   -3.8793   -1.9065    1.3169 H   0  0  0  0  0  0  0  0  0  0  0  0
   -3.4623   -2.6685   -0.2401 H   0  0  0  0  0  0  0  0  0  0  0  0
   -1.7863   -2.0195    0.9119 C   0  0  0  0  0  0  0  0  0  0  0  0
   -0.9073   -2.6615    1.4699 O   0  0  0  0  0  0  0  0  0  0  0  0
   -1.5803   -0.8195    0.3749 N   0  0  0  0  0  0  0  0  0  0  0  0
   -2.3603   -0.3345   -0.0451 H   0  0  0  0  0  0  0  0  0  0  0  0
   -0.2933   -0.1205    0.3719 C   0  0  1  0  0  0  0  0  0  0  0  0
    0.3577   -0.5843    1.1143 H   0  0  0  0  0  0  0  0  0  0  0  0
    0.3613   -0.2794   -1.0156 C   0  0  0  0  0  0  0  0  0  0  0  0
   -0.4059   -0.6137   -1.7161 H   0  0  0  0  0  0  0  0  0  0  0  0
    0.7294    0.6905   -1.3530 H   0  0  0  0  0  0  0  0  0  0  0  0
    1.5282   -1.2817   -1.0432 C   0  0  0  0  0  0  0  0  0  0  0  0
    2.4445   -0.7763   -1.3488 H   0  0  0  0  0  0  0  0  0  0  0  0
    1.6662   -1.6979   -0.0460 H   0  0  0  0  0  0  0  0  0  0  0  0
    1.2761   -2.4362   -2.0075 C   0  0  0  0  0  0  0  0  0  0  0  0
    0.2274   -2.6390   -2.5983 O   0  0  0  0  0  0  0  0  0  0  0  0
    2.3097   -3.2799   -2.1848 O   0  0  0  0  0  0  0  0  0  0  0  0
    1.9897   -3.9439   -2.7979 H   0  0  0  0  0  0  0  0  0  0  0  0
   -0.4860    1.3537    0.7622 C   0  0  0  0  0  0  0  0  0  0  0  0
   -1.3956    2.0096    0.2582 O   0  0  0  0  0  0  0  0  0  0  0  0
    0.3741    1.8728    1.6466 N   0  0  0  0  0  0  0  0  0  0  0  0
    1.0814    1.2667    2.0345 H   0  0  0  0  0  0  0  0  0  0  0  0
    0.3380    3.2610    2.1024 C   0  0  0  0  0  0  0  0  0  0  0  0
   -0.6389    3.4820    2.5363 H   0  0  0  0  0  0  0  0  0  0  0  0
    1.1108    3.4337    2.8528 H   0  0  0  0  0  0  0  0  0  0  0  0
    0.5009    3.9312    1.2562 H   0  0  0  0  0  0  0  0  0  0  0  0
  5  6  2  0  0  0  0
  5  7  1  0  0  0  0
  2  3  1  0  0  0  0
  2  4  1  0  0  0  0
  2  5  1  0  0  0  0
  1  2  1  0  0  0  0
 21 22  2  0  0  0  0
 21 23  1  0  0  0  0
 19 20  1  0  0  0  0
 17 18  2  0  0  0  0
 17 19  1  0  0  0  0
 14 15  1  0  0  0  0
 14 16  1  0  0  0  0
 14 17  1  0  0  0  0
 11 12  1  0  0  0  0
 11 13  1  0  0  0  0
 11 14  1  0  0  0  0
  9 10  1  0  0  0  0
  9 11  1  0  0  0  0
  9 21  1  0  0  0  0
  7  8  1  0  0  0  0
  7  9  1  0  0  0  0
 25 26  1  0  0  0  0
 25 27  1  0  0  0  0
 25 28  1  0  0  0  0
 23 24  1  0  0  0  0
 23 25  1  0  0  0  0
M  END
$$$$
default_name
  -OEChem-02102213163D

 28 27  0     1  0  0  0  0  0999 V2000
   -3.2133   -3.5565    1.2809 H   0  0  0  0  0  0  0  0  0  0  0  0
   -3.1873   -2.5755    0.8089 C   0  0  0  0  0  0  0  0  0  0  0  0
   -3.8793   -1.9065    1.3169 H   0  0  0  0  0  0  0  0  0  0  0  0
   -3.4623   -2.6685   -0.2401 H   0  0  0  0  0  0  0  0  0  0  0  0
   -1.7863   -2.0195    0.9119 C   0  0  0  0  0  0  0  0  0  0  0  0
   -0.9073   -2.6615    1.4699 O   0  0  0  0  0  0  0  0  0  0  0  0
   -1.5803   -0.8195    0.3749 N   0  0  0  0  0  0  0  0  0  0  0  0
   -2.3603   -0.3345   -0.0451 H   0  0  0  0  0  0  0  0  0  0  0  0
   -0.2933   -0.1205    0.3719 C   0  0  1  0  0  0  0  0  0  0  0  0
    0.3577   -0.5843    1.1143 H   0  0  0  0  0  0  0  0  0  0  0  0
    0.3613   -0.2794   -1.0156 C   0  0  0  0  0  0  0  0  0  0  0  0
   -0.4059   -0.6137   -1.7161 H   0  0  0  0  0  0  0  0  0  0  0  0
    0.7294    0.6905   -1.3530 H   0  0  0  0  0  0  0  0  0  0  0  0
    1.5282   -1.2817   -1.0432 C   0  0  0  0  0  0  0  0  0  0  0  0
    2.4767   -0.7460   -1.0849 H   0  0  0  0  0  0  0  0  0  0  0  0
    1.5007   -1.8880   -0.1386 H   0  0  0  0  0  0  0  0  0  0  0  0
    1.4568   -2.2192   -2.2442 C   0  0  0  0  0  0  0  0  0  0  0  0
    0.5257   -2.2798   -3.0310 O   0  0  0  0  0  0  0  0  0  0  0  0
    2.5158   -3.0339   -2.4076 O   0  0  0  0  0  0  0  0  0  0  0  0
    2.3121   -3.5579   -3.1842 H   0  0  0  0  0  0  0  0  0  0  0  0
   -0.4860    1.3537    0.7622 C   0  0  0  0  0  0  0  0  0  0  0  0
   -1.3956    2.0096    0.2582 O   0  0  0  0  0  0  0  0  0  0  0  0
    0.3741    1.8728    1.6466 N   0  0  0  0  0  0  0  0  0  0  0  0
    1.0814    1.2667    2.0345 H   0  0  0  0  0  0  0  0  0  0  0  0
    0.3380    3.2610    2.1024 C   0  0  0  0  0  0  0  0  0  0  0  0
   -0.6389    3.4820    2.5363 H   0  0  0  0  0  0  0  0  0  0  0  0
    1.1108    3.4337    2.8528 H   0  0  0  0  0  0  0  0  0  0  0  0
    0.5009    3.9312    1.2562 H   0  0  0  0  0  0  0  0  0  0  0  0
  5  6  2  0  0  0  0
  5  7  1  0  0  0  0
  2  3  1  0  0  0  0
  2  4  1  0  0  0  0
  2  5  1  0  0  0  0
  1  2  1  0  0  0  0
 21 22  2  0  0  0  0
 21 23  1  0  0  0  0
 19 20  1  0  0  0  0
 17 18  2  0  0  0  0
 17 19  1  0  0  0  0
 14 15  1  0  0  0  0
 14 16  1  0  0  0  0
 14 17  1  0  0  0  0
 11 12  1  0  0  0  0
 11 13  1  0  0  0  0
 11 14  1  0  0  0  0
  9 10  1  0  0  0  0
  9 11  1  0  0  0  0
  9 21  1  0  0  0  0
  7  8  1  0  0  0  0
  7  9  1  0  0  0  0
 25 26  1  0  0  0  0
 25 27  1  0  0  0  0
 25 28  1  0  0  0  0
 23 24  1  0  0  0  0
 23 25  1  0  0  0  0
M  END
$$$$
default_name
  -OEChem-02102213163D

 28 27  0     1  0  0  0  0  0999 V2000
   -3.2133   -3.5565    1.2809 H   0  0  0  0  0  0  0  0  0  0  0  0
   -3.1873   -2.5755    0.8089 C   0  0  0  0  0  0  0  0  0  0  0  0
   -3.8793   -1.9065    1.3169 H   0  0  0  0  0  0  0  0  0  0  0  0
   -3.4623   -2.6685   -0.2401 H   0  0  0  0  0  0  0  0  0  0  0  0
   -1.7863   -2.0195    0.9119 C   0  0  0  0  0  0  0  0  0  0  0  0
   -0.9073   -2.6615    1.4699 O   0  0  0  0  0  0  0  0  0  0  0  0
   -1.5803   -0.8195    0.3749 N   0  0  0  0  0  0  0  0  0  0  0  0
   -2.3603   -0.3345   -0.0451 H   0  0  0  0  0  0  0  0  0  0  0  0
   -0.2933   -0.1205    0.3719 C   0  0  1  0  0  0  0  0  0  0  0  0
    0.3577   -0.5843    1.1143 H   0  0  0  0  0  0  0  0  0  0  0  0
    0.3613   -0.2794   -1.0156 C   0  0  0  0  0  0  0  0  0  0  0  0
   -0.4059   -0.6137   -1.7161 H   0  0  0  0  0  0  0  0  0  0  0  0
    0.7294    0.6905   -1.3530 H   0  0  0  0  0  0  0  0  0  0  0  0
    1.5282   -1.2817   -1.0432 C   0  0  0  0  0  0  0  0  0  0  0  0
    2.4635   -0.7688   -0.8187 H   0  0  0  0  0  0  0  0  0  0  0  0
    1.3555   -2.0528   -0.2934 H   0  0  0  0  0  0  0  0  0  0  0  0
    1.6723   -1.9640   -2.3997 C   0  0  0  0  0  0  0  0  0  0  0  0
    0.8884   -1.8492   -3.3282 O   0  0  0  0  0  0  0  0  0  0  0  0
    2.7535   -2.7534   -2.5397 O   0  0  0  0  0  0  0  0  0  0  0  0
    2.6905   -3.1106   -3.4273 H   0  0  0  0  0  0  0  0  0  0  0  0
   -0.4860    1.3537    0.7622 C   0  0  0  0  0  0  0  0  0  0  0  0
   -1.3956    2.0096    0.2582 O   0  0  0  0  0  0  0  0  0  0  0  0
    0.3741    1.8728    1.6466 N   0  0  0  0  0  0  0  0  0  0  0  0
    1.0814    1.2667    2.0345 H   0  0  0  0  0  0  0  0  0  0  0  0
    0.3380    3.2610    2.1024 C   0  0  0  0  0  0  0  0  0  0  0  0
   -0.6389    3.4820    2.5363 H   0  0  0  0  0  0  0  0  0  0  0  0
    1.1108    3.4337    2.8528 H   0  0  0  0  0  0  0  0  0  0  0  0
    0.5009    3.9312    1.2562 H   0  0  0  0  0  0  0  0  0  0  0  0
  5  6  2  0  0  0  0
  5  7  1  0  0  0  0
  2  3  1  0  0  0  0
  2  4  1  0  0  0  0
  2  5  1  0  0  0  0
  1  2  1  0  0  0  0
 21 22  2  0  0  0  0
 21 23  1  0  0  0  0
 19 20  1  0  0  0  0
 17 18  2  0  0  0  0
 17 19  1  0  0  0  0
 14 15  1  0  0  0  0
 14 16  1  0  0  0  0
 14 17  1  0  0  0  0
 11 12  1  0  0  0  0
 11 13  1  0  0  0  0
 11 14  1  0  0  0  0
  9 10  1  0  0  0  0
  9 11  1  0  0  0  0
  9 21  1  0  0  0  0
  7  8  1  0  0  0  0
  7  9  1  0  0  0  0
 25 26  1  0  0  0  0
 25 27  1  0  0  0  0
 25 28  1  0  0  0  0
 23 24  1  0  0  0  0
 23 25  1  0  0  0  0
M  END
$$$$
default_name
  -OEChem-02102213163D

 28 27  0     1  0  0  0  0  0999 V2000
   -3.2133   -3.5565    1.2809 H   0  0  0  0  0  0  0  0  0  0  0  0
   -3.1873   -2.5755    0.8089 C   0  0  0  0  0  0  0  0  0  0  0  0
   -3.8793   -1.9065    1.3169 H   0  0  0  0  0  0  0  0  0  0  0  0
   -3.4623   -2.6685   -0.2401 H   0  0  0  0  0  0  0  0  0  0  0  0
   -1.7863   -2.0195    0.9119 C   0  0  0  0  0  0  0  0  0  0  0  0
   -0.9073   -2.6615    1.4699 O   0  0  0  0  0  0  0  0  0  0  0  0
   -1.5803   -0.8195    0.3749 N   0  0  0  0  0  0  0  0  0  0  0  0
   -2.3603   -0.3345   -0.0451 H   0  0  0  0  0  0  0  0  0  0  0  0
   -0.2933   -0.1205    0.3719 C   0  0  1  0  0  0  0  0  0  0  0  0
    0.3577   -0.5843    1.1143 H   0  0  0  0  0  0  0  0  0  0  0  0
    0.3613   -0.2794   -1.0156 C   0  0  0  0  0  0  0  0  0  0  0  0
   -0.4059   -0.6137   -1.7161 H   0  0  0  0  0  0  0  0  0  0  0  0
    0.7294    0.6905   -1.3530 H   0  0  0  0  0  0  0  0  0  0  0  0
    1.5282   -1.2817   -1.0432 C   0  0  0  0  0  0  0  0  0  0  0  0
    2.4058   -0.8429   -0.5682 H   0  0  0  0  0  0  0  0  0  0  0  0
    1.2406   -2.1808   -0.4996 H   0  0  0  0  0  0  0  0  0  0  0  0
    1.9079   -1.6879   -2.4635 C   0  0  0  0  0  0  0  0  0  0  0  0
    1.2909   -1.3767   -3.4696 O   0  0  0  0  0  0  0  0  0  0  0  0
    3.0067   -2.4577   -2.5723 O   0  0  0  0  0  0  0  0  0  0  0  0
    3.0990   -2.6326   -3.5104 H   0  0  0  0  0  0  0  0  0  0  0  0
   -0.4860    1.3537    0.7622 C   0  0  0  0  0  0  0  0  0  0  0  0
   -1.3956    2.0096    0.2582 O   0  0  0  0  0  0  0  0  0  0  0  0
    0.3741    1.8728    1.6466 N   0  0  0  0  0  0  0  0  0  0  0  0
    1.0814    1.2667    2.0345 H   0  0  0  0  0  0  0  0  0  0  0  0
    0.3380    3.2610    2.1024 C   0  0  0  0  0  0  0  0  0  0  0  0
   -0.6389    3.4820    2.5363 H   0  0  0  0  0  0  0  0  0  0  0  0
    1.1108    3.4337    2.8528 H   0  0  0  0  0  0  0  0  0  0  0  0
    0.5009    3.9312    1.2562 H   0  0  0  0  0  0  0  0  0  0  0  0
  5  6  2  0  0  0  0
  5  7  1  0  0  0  0
  2  3  1  0  0  0  0
  2  4  1  0  0  0  0
  2  5  1  0  0  0  0
  1  2  1  0  0  0  0
 21 22  2  0  0  0  0
 21 23  1  0  0  0  0
 19 20  1  0  0  0  0
 17 18  2  0  0  0  0
 17 19  1  0  0  0  0
 14 15  1  0  0  0  0
 14 16  1  0  0  0  0
 14 17  1  0  0  0  0
 11 12  1  0  0  0  0
 11 13  1  0  0  0  0
 11 14  1  0  0  0  0
  9 10  1  0  0  0  0
  9 11  1  0  0  0  0
  9 21  1  0  0  0  0
  7  8  1  0  0  0  0
  7  9  1  0  0  0  0
 25 26  1  0  0  0  0
 25 27  1  0  0  0  0
 25 28  1  0  0  0  0
 23 24  1  0  0  0  0
 23 25  1  0  0  0  0
M  END
$$$$
default_name
  -OEChem-02102213163D

 28 27  0     1  0  0  0  0  0999 V2000
   -3.2133   -3.5565    1.2809 H   0  0  0  0  0  0  0  0  0  0  0  0
   -3.1873   -2.5755    0.8089 C   0  0  0  0  0  0  0  0  0  0  0  0
   -3.8793   -1.9065    1.3169 H   0  0  0  0  0  0  0  0  0  0  0  0
   -3.4623   -2.6685   -0.2401 H   0  0  0  0  0  0  0  0  0  0  0  0
   -1.7863   -2.0195    0.9119 C   0  0  0  0  0  0  0  0  0  0  0  0
   -0.9073   -2.6615    1.4699 O   0  0  0  0  0  0  0  0  0  0  0  0
   -1.5803   -0.8195    0.3749 N   0  0  0  0  0  0  0  0  0  0  0  0
   -2.3603   -0.3345   -0.0451 H   0  0  0  0  0  0  0  0  0  0  0  0
   -0.2933   -0.1205    0.3719 C   0  0  1  0  0  0  0  0  0  0  0  0
    0.3577   -0.5843    1.1143 H   0  0  0  0  0  0  0  0  0  0  0  0
    0.3613   -0.2794   -1.0156 C   0  0  0  0  0  0  0  0  0  0  0  0
   -0.4340   -0.3480   -1.7598 H   0  0  0  0  0  0  0  0  0  0  0  0
    0.9569    0.6075   -1.2362 H   0  0  0  0  0  0  0  0  0  0  0  0
    1.2649   -1.5184   -1.1403 C   0  0  0  0  0  0  0  0  0  0  0  0
    2.0684   -1.4674   -0.4055 H   0  0  0  0  0  0  0  0  0  0  0  0
    0.6716   -2.4137   -0.9584 H   0  0  0  0  0  0  0  0  0  0  0  0
    1.8922   -1.6393   -2.5254 C   0  0  0  0  0  0  0  0  0  0  0  0
    1.6223   -0.9294   -3.4809 O   0  0  0  0  0  0  0  0  0  0  0  0
    2.7996   -2.6233   -2.6670 O   0  0  0  0  0  0  0  0  0  0  0  0
    3.0834   -2.5737   -3.5814 H   0  0  0  0  0  0  0  0  0  0  0  0
   -0.4860    1.3537    0.7622 C   0  0  0  0  0  0  0  0  0  0  0  0
   -1.3956    2.0096    0.2582 O   0  0  0  0  0  0  0  0  0  0  0  0
    0.3741    1.8728    1.6466 N   0  0  0  0  0  0  0  0  0  0  0  0
    1.0814    1.2667    2.0345 H   0  0  0  0  0  0  0  0  0  0  0  0
    0.3380    3.2610    2.1024 C   0  0  0  0  0  0  0  0  0  0  0  0
   -0.6389    3.4820    2.5363 H   0  0  0  0  0  0  0  0  0  0  0  0
    1.1108    3.4337    2.8528 H   0  0  0  0  0  0  0  0  0  0  0  0
    0.5009    3.9312    1.2562 H   0  0  0  0  0  0  0  0  0  0  0  0
  5  6  2  0  0  0  0
  5  7  1  0  0  0  0
  2  3  1  0  0  0  0
  2  4  1  0  0  0  0
  2  5  1  0  0  0  0
  1  2  1  0  0  0  0
 21 22  2  0  0  0  0
 21 23  1  0  0  0  0
 19 20  1  0  0  0  0
 17 18  2  0  0  0  0
 17 19  1  0  0  0  0
 14 15  1  0  0  0  0
 14 16  1  0  0  0  0
 14 17  1  0  0  0  0
 11 12  1  0  0  0  0
 11 13  1  0  0  0  0
 11 14  1  0  0  0  0
  9 10  1  0  0  0  0
  9 11  1  0  0  0  0
  9 21  1  0  0  0  0
  7  8  1  0  0  0  0
  7  9  1  0  0  0  0
 25 26  1  0  0  0  0
 25 27  1  0  0  0  0
 25 28  1  0  0  0  0
 23 24  1  0  0  0  0
 23 25  1  0  0  0  0
M  END
$$$$
default_name
  -OEChem-02102213163D

 28 27  0     1  0  0  0  0  0999 V2000
   -3.2133   -3.5565    1.2809 H   0  0  0  0  0  0  0  0  0  0  0  0
   -3.1873   -2.5755    0.8089 C   0  0  0  0  0  0  0  0  0  0  0  0
   -3.8793   -1.9065    1.3169 H   0  0  0  0  0  0  0  0  0  0  0  0
   -3.4623   -2.6685   -0.2401 H   0  0  0  0  0  0  0  0  0  0  0  0
   -1.7863   -2.0195    0.9119 C   0  0  0  0  0  0  0  0  0  0  0  0
   -0.9073   -2.6615    1.4699 O   0  0  0  0  0  0  0  0  0  0  0  0
   -1.5803   -0.8195    0.3749 N   0  0  0  0  0  0  0  0  0  0  0  0
   -2.3603   -0.3345   -0.0451 H   0  0  0  0  0  0  0  0  0  0  0  0
   -0.2933   -0.1205    0.3719 C   0  0  1  0  0  0  0  0  0  0  0  0
    0.3577   -0.5843    1.1143 H   0  0  0  0  0  0  0  0  0  0  0  0
    0.3613   -0.2794   -1.0156 C   0  0  0  0  0  0  0  0  0  0  0  0
   -0.4340   -0.3480   -1.7598 H   0  0  0  0  0  0  0  0  0  0  0  0
    0.9569    0.6075   -1.2362 H   0  0  0  0  0  0  0  0  0  0  0  0
    1.2649   -1.5184   -1.1403 C   0  0  0  0  0  0  0  0  0  0  0  0
    1.8964   -1.6079   -0.2564 H   0  0  0  0  0  0  0  0  0  0  0  0
    0.6423   -2.4082   -1.2253 H   0  0  0  0  0  0  0  0  0  0  0  0
    2.1686   -1.4537   -2.3674 C   0  0  0  0  0  0  0  0  0  0  0  0
    2.1088   -0.5992   -3.2369 O   0  0  0  0  0  0  0  0  0  0  0  0
    3.0806   -2.4384   -2.4683 O   0  0  0  0  0  0  0  0  0  0  0  0
    3.5504   -2.2629   -3.2855 H   0  0  0  0  0  0  0  0  0  0  0  0
   -0.4860    1.3537    0.7622 C   0  0  0  0  0  0  0  0  0  0  0  0
   -1.3956    2.0096    0.2582 O   0  0  0  0  0  0  0  0  0  0  0  0
    0.3741    1.8728    1.6466 N   0  0  0  0  0  0  0  0  0  0  0  0
    1.0814    1.2667    2.0345 H   0  0  0  0  0  0  0  0  0  0  0  0
    0.3380    3.2610    2.1024 C   0  0  0  0  0  0  0  0  0  0  0  0
   -0.6389    3.4820    2.5363 H   0  0  0  0  0  0  0  0  0  0  0  0
    1.1108    3.4337    2.8528 H   0  0  0  0  0  0  0  0  0  0  0  0
    0.5009    3.9312    1.2562 H   0  0  0  0  0  0  0  0  0  0  0  0
  5  6  2  0  0  0  0
  5  7  1  0  0  0  0
  2  3  1  0  0  0  0
  2  4  1  0  0  0  0
  2  5  1  0  0  0  0
  1  2  1  0  0  0  0
 21 22  2  0  0  0  0
 21 23  1  0  0  0  0
 19 20  1  0  0  0  0
 17 18  2  0  0  0  0
 17 19  1  0  0  0  0
 14 15  1  0  0  0  0
 14 16  1  0  0  0  0
 14 17  1  0  0  0  0
 11 12  1  0  0  0  0
 11 13  1  0  0  0  0
 11 14  1  0  0  0  0
  9 10  1  0  0  0  0
  9 11  1  0  0  0  0
  9 21  1  0  0  0  0
  7  8  1  0  0  0  0
  7  9  1  0  0  0  0
 25 26  1  0  0  0  0
 25 27  1  0  0  0  0
 25 28  1  0  0  0  0
 23 24  1  0  0  0  0
 23 25  1  0  0  0  0
M  END
$$$$
default_name
  -OEChem-02102213163D

 28 27  0     1  0  0  0  0  0999 V2000
   -3.2133   -3.5565    1.2809 H   0  0  0  0  0  0  0  0  0  0  0  0
   -3.1873   -2.5755    0.8089 C   0  0  0  0  0  0  0  0  0  0  0  0
   -3.8793   -1.9065    1.3169 H   0  0  0  0  0  0  0  0  0  0  0  0
   -3.4623   -2.6685   -0.2401 H   0  0  0  0  0  0  0  0  0  0  0  0
   -1.7863   -2.0195    0.9119 C   0  0  0  0  0  0  0  0  0  0  0  0
   -0.9073   -2.6615    1.4699 O   0  0  0  0  0  0  0  0  0  0  0  0
   -1.5803   -0.8195    0.3749 N   0  0  0  0  0  0  0  0  0  0  0  0
   -2.3603   -0.3345   -0.0451 H   0  0  0  0  0  0  0  0  0  0  0  0
   -0.2933   -0.1205    0.3719 C   0  0  1  0  0  0  0  0  0  0  0  0
    0.3577   -0.5843    1.1143 H   0  0  0  0  0  0  0  0  0  0  0  0
    0.3613   -0.2794   -1.0156 C   0  0  0  0  0  0  0  0  0  0  0  0
   -0.4340   -0.3480   -1.7598 H   0  0  0  0  0  0  0  0  0  0  0  0
    0.9569    0.6075   -1.2362 H   0  0  0  0  0  0  0  0  0  0  0  0
    1.2649   -1.5184   -1.1403 C   0  0  0  0  0  0  0  0  0  0  0  0
    1.6962   -1.7626   -0.1695 H   0  0  0  0  0  0  0  0  0  0  0  0
    0.6697   -2.3617   -1.4885 H   0  0  0  0  0  0  0  0  0  0  0  0
    2.4064   -1.3042   -2.1290 C   0  0  0  0  0  0  0  0  0  0  0  0
    2.5349   -0.3275   -2.8496 O   0  0  0  0  0  0  0  0  0  0  0  0
    3.3145   -2.2958   -2.1898 O   0  0  0  0  0  0  0  0  0  0  0  0
    3.9463   -2.0175   -2.8551 H   0  0  0  0  0  0  0  0  0  0  0  0
   -0.4860    1.3537    0.7622 C   0  0  0  0  0  0  0  0  0  0  0  0
   -1.3956    2.0096    0.2582 O   0  0  0  0  0  0  0  0  0  0  0  0
    0.3741    1.8728    1.6466 N   0  0  0  0  0  0  0  0  0  0  0  0
    1.0814    1.2667    2.0345 H   0  0  0  0  0  0  0  0  0  0  0  0
    0.3380    3.2610    2.1024 C   0  0  0  0  0  0  0  0  0  0  0  0
   -0.6389    3.4820    2.5363 H   0  0  0  0  0  0  0  0  0  0  0  0
    1.1108    3.4337    2.8528 H   0  0  0  0  0  0  0  0  0  0  0  0
    0.5009    3.9312    1.2562 H   0  0  0  0  0  0  0  0  0  0  0  0
  5  6  2  0  0  0  0
  5  7  1  0  0  0  0
  2  3  1  0  0  0  0
  2  4  1  0  0  0  0
  2  5  1  0  0  0  0
  1  2  1  0  0  0  0
 21 22  2  0  0  0  0
 21 23  1  0  0  0  0
 19 20  1  0  0  0  0
 17 18  2  0  0  0  0
 17 19  1  0  0  0  0
 14 15  1  0  0  0  0
 14 16  1  0  0  0  0
 14 17  1  0  0  0  0
 11 12  1  0  0  0  0
 11 13  1  0  0  0  0
 11 14  1  0  0  0  0
  9 10  1  0  0  0  0
  9 11  1  0  0  0  0
  9 21  1  0  0  0  0
  7  8  1  0  0  0  0
  7  9  1  0  0  0  0
 25 26  1  0  0  0  0
 25 27  1  0  0  0  0
 25 28  1  0  0  0  0
 23 24  1  0  0  0  0
 23 25  1  0  0  0  0
M  END
$$$$
default_name
  -OEChem-02102213163D

 28 27  0     1  0  0  0  0  0999 V2000
   -3.2133   -3.5565    1.2809 H   0  0  0  0  0  0  0  0  0  0  0  0
   -3.1873   -2.5755    0.8089 C   0  0  0  0  0  0  0  0  0  0  0  0
   -3.8793   -1.9065    1.3169 H   0  0  0  0  0  0  0  0  0  0  0  0
   -3.4623   -2.6685   -0.2401 H   0  0  0  0  0  0  0  0  0  0  0  0
   -1.7863   -2.0195    0.9119 C   0  0  0  0  0  0  0  0  0  0  0  0
   -0.9073   -2.6615    1.4699 O   0  0  0  0  0  0  0  0  0  0  0  0
   -1.5803   -0.8195    0.3749 N   0  0  0  0  0  0  0  0  0  0  0  0
   -2.3603   -0.3345   -0.0451 H   0  0  0  0  0  0  0  0  0  0  0  0
   -0.2933   -0.1205    0.3719 C   0  0  1  0  0  0  0  0  0  0  0  0
    0.3577   -0.5843    1.1143 H   0  0  0  0  0  0  0  0  0  0  0  0
    0.3613   -0.2794   -1.0156 C   0  0  0  0  0  0  0  0  0  0  0  0
   -0.4340   -0.3480   -1.7598 H   0  0  0  0  0  0  0  0  0  0  0  0
    0.9569    0.6075   -1.2362 H   0  0  0  0  0  0  0  0  0  0  0  0
    1.2649   -1.5184   -1.1403 C   0  0  0  0  0  0  0  0  0  0  0  0
    1.4814   -1.9211   -0.1508 H   0  0  0  0  0  0  0  0  0  0  0  0
    0.7520   -2.2774   -1.7298 H   0  0  0  0  0  0  0  0  0  0  0  0
    2.5897   -1.2010   -1.8264 C   0  0  0  0  0  0  0  0  0  0  0  0
    2.8714   -0.1328   -2.3455 O   0  0  0  0  0  0  0  0  0  0  0  0
    3.4854   -2.2054   -1.8503 O   0  0  0  0  0  0  0  0  0  0  0  0
    4.2442   -1.8541   -2.3195 H   0  0  0  0  0  0  0  0  0  0  0  0
   -0.4860    1.3537    0.7622 C   0  0  0  0  0  0  0  0  0  0  0  0
   -1.3956    2.0096    0.2582 O   0  0  0  0  0  0  0  0  0  0  0  0
    0.3741    1.8728    1.6466 N   0  0  0  0  0  0  0  0  0  0  0  0
    1.0814    1.2667    2.0345 H   0  0  0  0  0  0  0  0  0  0  0  0
    0.3380    3.2610    2.1024 C   0  0  0  0  0  0  0  0  0  0  0  0
   -0.6389    3.4820    2.5363 H   0  0  0  0  0  0  0  0  0  0  0  0
    1.1108    3.4337    2.8528 H   0  0  0  0  0  0  0  0  0  0  0  0
    0.5009    3.9312    1.2562 H   0  0  0  0  0  0  0  0  0  0  0  0
  5  6  2  0  0  0  0
  5  7  1  0  0  0  0
  2  3  1  0  0  0  0
  2  4  1  0  0  0  0
  2  5  1  0  0  0  0
  1  2  1  0  0  0  0
 21 22  2  0  0  0  0
 21 23  1  0  0  0  0
 19 20  1  0  0  0  0
 17 18  2  0  0  0  0
 17 19  1  0  0  0  0
 14 15  1  0  0  0  0
 14 16  1  0  0  0  0
 14 17  1  0  0  0  0
 11 12  1  0  0  0  0
 11 13  1  0  0  0  0
 11 14  1  0  0  0  0
  9 10  1  0  0  0  0
  9 11  1  0  0  0  0
  9 21  1  0  0  0  0
  7  8  1  0  0  0  0
  7  9  1  0  0  0  0
 25 26  1  0  0  0  0
 25 27  1  0  0  0  0
 25 28  1  0  0  0  0
 23 24  1  0  0  0  0
 23 25  1  0  0  0  0
M  END
$$$$
default_name
  -OEChem-02102213163D

 28 27  0     1  0  0  0  0  0999 V2000
   -3.2133   -3.5565    1.2809 H   0  0  0  0  0  0  0  0  0  0  0  0
   -3.1873   -2.5755    0.8089 C   0  0  0  0  0  0  0  0  0  0  0  0
   -3.8793   -1.9065    1.3169 H   0  0  0  0  0  0  0  0  0  0  0  0
   -3.4623   -2.6685   -0.2401 H   0  0  0  0  0  0  0  0  0  0  0  0
   -1.7863   -2.0195    0.9119 C   0  0  0  0  0  0  0  0  0  0  0  0
   -0.9073   -2.6615    1.4699 O   0  0  0  0  0  0  0  0  0  0  0  0
   -1.5803   -0.8195    0.3749 N   0  0  0  0  0  0  0  0  0  0  0  0
   -2.3603   -0.3345   -0.0451 H   0  0  0  0  0  0  0  0  0  0  0  0
   -0.2933   -0.1205    0.3719 C   0  0  1  0  0  0  0  0  0  0  0  0
    0.3577   -0.5843    1.1143 H   0  0  0  0  0  0  0  0  0  0  0  0
    0.3613   -0.2794   -1.0156 C   0  0  0  0  0  0  0  0  0  0  0  0
   -0.4340   -0.3480   -1.7598 H   0  0  0  0  0  0  0  0  0  0  0  0
    0.9569    0.6075   -1.2362 H   0  0  0  0  0  0  0  0  0  0  0  0
    1.2649   -1.5184   -1.1403 C   0  0  0  0  0  0  0  0  0  0  0  0
    1.2668   -2.0726   -0.2017 H   0  0  0  0  0  0  0  0  0  0  0  0
    0.8836   -2.1610   -1.9330 H   0  0  0  0  0  0  0  0  0  0  0  0
    2.7058   -1.1512   -1.4803 C   0  0  0  0  0  0  0  0  0  0  0  0
    3.0954   -0.0285   -1.7588 O   0  0  0  0  0  0  0  0  0  0  0  0
    3.5816   -2.1732   -1.4730 O   0  0  0  0  0  0  0  0  0  0  0  0
    4.4238   -1.7841   -1.7152 H   0  0  0  0  0  0  0  0  0  0  0  0
   -0.4860    1.3537    0.7622 C   0  0  0  0  0  0  0  0  0  0  0  0
   -1.3956    2.0096    0.2582 O   0  0  0  0  0  0  0  0  0  0  0  0
    0.3741    1.8728    1.6466 N   0  0  0  0  0  0  0  0  0  0  0  0
    1.0814    1.2667    2.0345 H   0  0  0  0  0  0  0  0  0  0  0  0
    0.3380    3.2610    2.1024 C   0  0  0  0  0  0  0  0  0  0  0  0
   -0.6389    3.4820    2.5363 H   0  0  0  0  0  0  0  0  0  0  0  0
    1.1108    3.4337    2.8528 H   0  0  0  0  0  0  0  0  0  0  0  0
    0.5009    3.9312    1.2562 H   0  0  0  0  0  0  0  0  0  0  0  0
  5  6  2  0  0  0  0
  5  7  1  0  0  0  0
  2  3  1  0  0  0  0
  2  4  1  0  0  0  0
  2  5  1  0  0  0  0
  1  2  1  0  0  0  0
 21 22  2  0  0  0  0
 21 23  1  0  0  0  0
 19 20  1  0  0  0  0
 17 18  2  0  0  0  0
 17 19  1  0  0  0  0
 14 15  1  0  0  0  0
 14 16  1  0  0  0  0
 14 17  1  0  0  0  0
 11 12  1  0  0  0  0
 11 13  1  0  0  0  0
 11 14  1  0  0  0  0
  9 10  1  0  0  0  0
  9 11  1  0  0  0  0
  9 21  1  0  0  0  0
  7  8  1  0  0  0  0
  7  9  1  0  0  0  0
 25 26  1  0  0  0  0
 25 27  1  0  0  0  0
 25 28  1  0  0  0  0
 23 24  1  0  0  0  0
 23 25  1  0  0  0  0
M  END
$$$$
default_name
  -OEChem-02102213163D

 28 27  0     1  0  0  0  0  0999 V2000
   -3.2133   -3.5565    1.2809 H   0  0  0  0  0  0  0  0  0  0  0  0
   -3.1873   -2.5755    0.8089 C   0  0  0  0  0  0  0  0  0  0  0  0
   -3.8793   -1.9065    1.3169 H   0  0  0  0  0  0  0  0  0  0  0  0
   -3.4623   -2.6685   -0.2401 H   0  0  0  0  0  0  0  0  0  0  0  0
   -1.7863   -2.0195    0.9119 C   0  0  0  0  0  0  0  0  0  0  0  0
   -0.9073   -2.6615    1.4699 O   0  0  0  0  0  0  0  0  0  0  0  0
   -1.5803   -0.8195    0.3749 N   0  0  0  0  0  0  0  0  0  0  0  0
   -2.3603   -0.3345   -0.0451 H   0  0  0  0  0  0  0  0  0  0  0  0
   -0.2933   -0.1205    0.3719 C   0  0  1  0  0  0  0  0  0  0  0  0
    0.3577   -0.5843    1.1143 H   0  0  0  0  0  0  0  0  0  0  0  0
    0.3613   -0.2794   -1.0156 C   0  0  0  0  0  0  0  0  0  0  0  0
   -0.4340   -0.3480   -1.7598 H   0  0  0  0  0  0  0  0  0  0  0  0
    0.9569    0.6075   -1.2362 H   0  0  0  0  0  0  0  0  0  0  0  0
    1.2649   -1.5184   -1.1403 C   0  0  0  0  0  0  0  0  0  0  0  0
    1.0669   -2.2066   -0.3185 H   0  0  0  0  0  0  0  0  0  0  0  0
    1.0554   -2.0204   -2.0842 H   0  0  0  0  0  0  0  0  0  0  0  0
    2.7468   -1.1582   -1.1142 C   0  0  0  0  0  0  0  0  0  0  0  0
    3.1917   -0.0217   -1.1295 O   0  0  0  0  0  0  0  0  0  0  0  0
    3.5966   -2.2015   -1.0837 O   0  0  0  0  0  0  0  0  0  0  0  0
    4.4727   -1.8120   -1.0835 H   0  0  0  0  0  0  0  0  0  0  0  0
   -0.4860    1.3537    0.7622 C   0  0  0  0  0  0  0  0  0  0  0  0
   -1.3956    2.0096    0.2582 O   0  0  0  0  0  0  0  0  0  0  0  0
    0.3741    1.8728    1.6466 N   0  0  0  0  0  0  0  0  0  0  0  0
    1.0814    1.2667    2.0345 H   0  0  0  0  0  0  0  0  0  0  0  0
    0.3380    3.2610    2.1024 C   0  0  0  0  0  0  0  0  0  0  0  0
   -0.6389    3.4820    2.5363 H   0  0  0  0  0  0  0  0  0  0  0  0
    1.1108    3.4337    2.8528 H   0  0  0  0  0  0  0  0  0  0  0  0
    0.5009    3.9312    1.2562 H   0  0  0  0  0  0  0  0  0  0  0  0
  5  6  2  0  0  0  0
  5  7  1  0  0  0  0
  2  3  1  0  0  0  0
  2  4  1  0  0  0  0
  2  5  1  0  0  0  0
  1  2  1  0  0  0  0
 21 22  2  0  0  0  0
 21 23  1  0  0  0  0
 19 20  1  0  0  0  0
 17 18  2  0  0  0  0
 17 19  1  0  0  0  0
 14 15  1  0  0  0  0
 14 16  1  0  0  0  0
 14 17  1  0  0  0  0
 11 12  1  0  0  0  0
 11 13  1  0  0  0  0
 11 14  1  0  0  0  0
  9 10  1  0  0  0  0
  9 11  1  0  0  0  0
  9 21  1  0  0  0  0
  7  8  1  0  0  0  0
  7  9  1  0  0  0  0
 25 26  1  0  0  0  0
 25 27  1  0  0  0  0
 25 28  1  0  0  0  0
 23 24  1  0  0  0  0
 23 25  1  0  0  0  0
M  END
$$$$
default_name
  -OEChem-02102213163D

 28 27  0     1  0  0  0  0  0999 V2000
   -3.2133   -3.5565    1.2809 H   0  0  0  0  0  0  0  0  0  0  0  0
   -3.1873   -2.5755    0.8089 C   0  0  0  0  0  0  0  0  0  0  0  0
   -3.8793   -1.9065    1.3169 H   0  0  0  0  0  0  0  0  0  0  0  0
   -3.4623   -2.6685   -0.2401 H   0  0  0  0  0  0  0  0  0  0  0  0
   -1.7863   -2.0195    0.9119 C   0  0  0  0  0  0  0  0  0  0  0  0
   -0.9073   -2.6615    1.4699 O   0  0  0  0  0  0  0  0  0  0  0  0
   -1.5803   -0.8195    0.3749 N   0  0  0  0  0  0  0  0  0  0  0  0
   -2.3603   -0.3345   -0.0451 H   0  0  0  0  0  0  0  0  0  0  0  0
   -0.2933   -0.1205    0.3719 C   0  0  1  0  0  0  0  0  0  0  0  0
    0.3577   -0.5843    1.1143 H   0  0  0  0  0  0  0  0  0  0  0  0
    0.3613   -0.2794   -1.0156 C   0  0  0  0  0  0  0  0  0  0  0  0
   -0.4340   -0.3480   -1.7598 H   0  0  0  0  0  0  0  0  0  0  0  0
    0.9569    0.6075   -1.2362 H   0  0  0  0  0  0  0  0  0  0  0  0
    1.2649   -1.5184   -1.1403 C   0  0  0  0  0  0  0  0  0  0  0  0
    0.8953   -2.3141   -0.4934 H   0  0  0  0  0  0  0  0  0  0  0  0
    1.2559   -1.8653   -2.1730 H   0  0  0  0  0  0  0  0  0  0  0  0
    2.7100   -1.2214   -0.7531 C   0  0  0  0  0  0  0  0  0  0  0  0
    3.1537   -0.1127   -0.5006 O   0  0  0  0  0  0  0  0  0  0  0  0
    3.5293   -2.2883   -0.7088 O   0  0  0  0  0  0  0  0  0  0  0  0
    4.3877   -1.9360   -0.4673 H   0  0  0  0  0  0  0  0  0  0  0  0
   -0.4860    1.3537    0.7622 C   0  0  0  0  0  0  0  0  0  0  0  0
   -1.3956    2.0096    0.2582 O   0  0  0  0  0  0  0  0  0  0  0  0
    0.3741    1.8728    1.6466 N   0  0  0  0  0  0  0  0  0  0  0  0
    1.0814    1.2667    2.0345 H   0  0  0  0  0  0  0  0  0  0  0  0
    0.3380    3.2610    2.1024 C   0  0  0  0  0  0  0  0  0  0  0  0
   -0.6389    3.4820    2.5363 H   0  0  0  0  0  0  0  0  0  0  0  0
    1.1108    3.4337    2.8528 H   0  0  0  0  0  0  0  0  0  0  0  0
    0.5009    3.9312    1.2562 H   0  0  0  0  0  0  0  0  0  0  0  0
  5  6  2  0  0  0  0
  5  7  1  0  0  0  0
  2  3  1  0  0  0  0
  2  4  1  0  0  0  0
  2  5  1  0  0  0  0
  1  2  1  0  0  0  0
 21 22  2  0  0  0  0
 21 23  1  0  0  0  0
 19 20  1  0  0  0  0
 17 18  2  0  0  0  0
 17 19  1  0  0  0  0
 14 15  1  0  0  0  0
 14 16  1  0  0  0  0
 14 17  1  0  0  0  0
 11 12  1  0  0  0  0
 11 13  1  0  0  0  0
 11 14  1  0  0  0  0
  9 10  1  0  0  0  0
  9 11  1  0  0  0  0
  9 21  1  0  0  0  0
  7  8  1  0  0  0  0
  7  9  1  0  0  0  0
 25 26  1  0  0  0  0
 25 27  1  0  0  0  0
 25 28  1  0  0  0  0
 23 24  1  0  0  0  0
 23 25  1  0  0  0  0
M  END
$$$$
default_name
  -OEChem-02102213163D

 28 27  0     1  0  0  0  0  0999 V2000
   -3.2133   -3.5565    1.2809 H   0  0  0  0  0  0  0  0  0  0  0  0
   -3.1873   -2.5755    0.8089 C   0  0  0  0  0  0  0  0  0  0  0  0
   -3.8793   -1.9065    1.3169 H   0  0  0  0  0  0  0  0  0  0  0  0
   -3.4623   -2.6685   -0.2401 H   0  0  0  0  0  0  0  0  0  0  0  0
   -1.7863   -2.0195    0.9119 C   0  0  0  0  0  0  0  0  0  0  0  0
   -0.9073   -2.6615    1.4699 O   0  0  0  0  0  0  0  0  0  0  0  0
   -1.5803   -0.8195    0.3749 N   0  0  0  0  0  0  0  0  0  0  0  0
   -2.3603   -0.3345   -0.0451 H   0  0  0  0  0  0  0  0  0  0  0  0
   -0.2933   -0.1205    0.3719 C   0  0  1  0  0  0  0  0  0  0  0  0
    0.3577   -0.5843    1.1143 H   0  0  0  0  0  0  0  0  0  0  0  0
    0.3613   -0.2794   -1.0156 C   0  0  0  0  0  0  0  0  0  0  0  0
   -0.4340   -0.3480   -1.7598 H   0  0  0  0  0  0  0  0  0  0  0  0
    0.9569    0.6075   -1.2362 H   0  0  0  0  0  0  0  0  0  0  0  0
    1.2649   -1.5184   -1.1403 C   0  0  0  0  0  0  0  0  0  0  0  0
    0.7638   -2.3877   -0.7145 H   0  0  0  0  0  0  0  0  0  0  0  0
    1.4713   -1.7061   -2.1934 H   0  0  0  0  0  0  0  0  0  0  0  0
    2.5978   -1.3366   -0.4215 C   0  0  0  0  0  0  0  0  0  0  0  0
    2.9840   -0.2955    0.0852 O   0  0  0  0  0  0  0  0  0  0  0  0
    3.3844   -2.4278   -0.3738 O   0  0  0  0  0  0  0  0  0  0  0  0
    4.1746   -2.1477    0.0913 H   0  0  0  0  0  0  0  0  0  0  0  0
   -0.4860    1.3537    0.7622 C   0  0  0  0  0  0  0  0  0  0  0  0
   -1.3956    2.0096    0.2582 O   0  0  0  0  0  0  0  0  0  0  0  0
    0.3741    1.8728    1.6466 N   0  0  0  0  0  0  0  0  0  0  0  0
    1.0814    1.2667    2.0345 H   0  0  0  0  0  0  0  0  0  0  0  0
    0.3380    3.2610    2.1024 C   0  0  0  0  0  0  0  0  0  0  0  0
   -0.6389    3.4820    2.5363 H   0  0  0  0  0  0  0  0  0  0  0  0
    1.1108    3.4337    2.8528 H   0  0  0  0  0  0  0  0  0  0  0  0
    0.5009    3.9312    1.2562 H   0  0  0  0  0  0  0  0  0  0  0  0
  5  6  2  0  0  0  0
  5  7  1  0  0  0  0
  2  3  1  0  0  0  0
  2  4  1  0  0  0  0
  2  5  1  0  0  0  0
  1  2  1  0  0  0  0
 21 22  2  0  0  0  0
 21 23  1  0  0  0  0
 19 20  1  0  0  0  0
 17 18  2  0  0  0  0
 17 19  1  0  0  0  0
 14 15  1  0  0  0  0
 14 16  1  0  0  0  0
 14 17  1  0  0  0  0
 11 12  1  0  0  0  0
 11 13  1  0  0  0  0
 11 14  1  0  0  0  0
  9 10  1  0  0  0  0
  9 11  1  0  0  0  0
  9 21  1  0  0  0  0
  7  8  1  0  0  0  0
  7  9  1  0  0  0  0
 25 26  1  0  0  0  0
 25 27  1  0  0  0  0
 25 28  1  0  0  0  0
 23 24  1  0  0  0  0
 23 25  1  0  0  0  0
M  END
$$$$
default_name
  -OEChem-02102213163D

 28 27  0     1  0  0  0  0  0999 V2000
   -3.2133   -3.5565    1.2809 H   0  0  0  0  0  0  0  0  0  0  0  0
   -3.1873   -2.5755    0.8089 C   0  0  0  0  0  0  0  0  0  0  0  0
   -3.8793   -1.9065    1.3169 H   0  0  0  0  0  0  0  0  0  0  0  0
   -3.4623   -2.6685   -0.2401 H   0  0  0  0  0  0  0  0  0  0  0  0
   -1.7863   -2.0195    0.9119 C   0  0  0  0  0  0  0  0  0  0  0  0
   -0.9073   -2.6615    1.4699 O   0  0  0  0  0  0  0  0  0  0  0  0
   -1.5803   -0.8195    0.3749 N   0  0  0  0  0  0  0  0  0  0  0  0
   -2.3603   -0.3345   -0.0451 H   0  0  0  0  0  0  0  0  0  0  0  0
   -0.2933   -0.1205    0.3719 C   0  0  1  0  0  0  0  0  0  0  0  0
    0.3577   -0.5843    1.1143 H   0  0  0  0  0  0  0  0  0  0  0  0
    0.3613   -0.2794   -1.0156 C   0  0  0  0  0  0  0  0  0  0  0  0
   -0.4340   -0.3480   -1.7598 H   0  0  0  0  0  0  0  0  0  0  0  0
    0.9569    0.6075   -1.2362 H   0  0  0  0  0  0  0  0  0  0  0  0
    1.2649   -1.5184   -1.1403 C   0  0  0  0  0  0  0  0  0  0  0  0
    0.6813   -2.4225   -0.9666 H   0  0  0  0  0  0  0  0  0  0  0  0
    1.6870   -1.5538   -2.1440 H   0  0  0  0  0  0  0  0  0  0  0  0
    2.4180   -1.4959   -0.1422 C   0  0  0  0  0  0  0  0  0  0  0  0
    2.6942   -0.5575    0.5878 O   0  0  0  0  0  0  0  0  0  0  0  0
    3.1716   -2.6104   -0.1017 O   0  0  0  0  0  0  0  0  0  0  0  0
    3.8479   -2.4326    0.5542 H   0  0  0  0  0  0  0  0  0  0  0  0
   -0.4860    1.3537    0.7622 C   0  0  0  0  0  0  0  0  0  0  0  0
   -1.3956    2.0096    0.2582 O   0  0  0  0  0  0  0  0  0  0  0  0
    0.3741    1.8728    1.6466 N   0  0  0  0  0  0  0  0  0  0  0  0
    1.0814    1.2667    2.0345 H   0  0  0  0  0  0  0  0  0  0  0  0
    0.3380    3.2610    2.1024 C   0  0  0  0  0  0  0  0  0  0  0  0
   -0.6389    3.4820    2.5363 H   0  0  0  0  0  0  0  0  0  0  0  0
    1.1108    3.4337    2.8528 H   0  0  0  0  0  0  0  0  0  0  0  0
    0.5009    3.9312    1.2562 H   0  0  0  0  0  0  0  0  0  0  0  0
  5  6  2  0  0  0  0
  5  7  1  0  0  0  0
  2  3  1  0  0  0  0
  2  4  1  0  0  0  0
  2  5  1  0  0  0  0
  1  2  1  0  0  0  0
 21 22  2  0  0  0  0
 21 23  1  0  0  0  0
 19 20  1  0  0  0  0
 17 18  2  0  0  0  0
 17 19  1  0  0  0  0
 14 15  1  0  0  0  0
 14 16  1  0  0  0  0
 14 17  1  0  0  0  0
 11 12  1  0  0  0  0
 11 13  1  0  0  0  0
 11 14  1  0  0  0  0
  9 10  1  0  0  0  0
  9 11  1  0  0  0  0
  9 21  1  0  0  0  0
  7  8  1  0  0  0  0
  7  9  1  0  0  0  0
 25 26  1  0  0  0  0
 25 27  1  0  0  0  0
 25 28  1  0  0  0  0
 23 24  1  0  0  0  0
 23 25  1  0  0  0  0
M  END
$$$$
default_name
  -OEChem-02102213163D

 28 27  0     1  0  0  0  0  0999 V2000
   -3.2133   -3.5565    1.2809 H   0  0  0  0  0  0  0  0  0  0  0  0
   -3.1873   -2.5755    0.8089 C   0  0  0  0  0  0  0  0  0  0  0  0
   -3.8793   -1.9065    1.3169 H   0  0  0  0  0  0  0  0  0  0  0  0
   -3.4623   -2.6685   -0.2401 H   0  0  0  0  0  0  0  0  0  0  0  0
   -1.7863   -2.0195    0.9119 C   0  0  0  0  0  0  0  0  0  0  0  0
   -0.9073   -2.6615    1.4699 O   0  0  0  0  0  0  0  0  0  0  0  0
   -1.5803   -0.8195    0.3749 N   0  0  0  0  0  0  0  0  0  0  0  0
   -2.3603   -0.3345   -0.0451 H   0  0  0  0  0  0  0  0  0  0  0  0
   -0.2933   -0.1205    0.3719 C   0  0  1  0  0  0  0  0  0  0  0  0
    0.3577   -0.5843    1.1143 H   0  0  0  0  0  0  0  0  0  0  0  0
    0.3613   -0.2794   -1.0156 C   0  0  0  0  0  0  0  0  0  0  0  0
   -0.4340   -0.3480   -1.7598 H   0  0  0  0  0  0  0  0  0  0  0  0
    0.9569    0.6075   -1.2362 H   0  0  0  0  0  0  0  0  0  0  0  0
    1.2649   -1.5184   -1.1403 C   0  0  0  0  0  0  0  0  0  0  0  0
    0.6534   -2.4161   -1.2326 H   0  0  0  0  0  0  0  0  0  0  0  0
    1.8882   -1.4187   -2.0282 H   0  0  0  0  0  0  0  0  0  0  0  0
    2.1827   -1.6885    0.0660 C   0  0  0  0  0  0  0  0  0  0  0  0
    2.3040   -0.8809    0.9731 O   0  0  0  0  0  0  0  0  0  0  0  0
    2.9056   -2.8236    0.0890 O   0  0  0  0  0  0  0  0  0  0  0  0
    3.4299   -2.7713    0.8900 H   0  0  0  0  0  0  0  0  0  0  0  0
   -0.4860    1.3537    0.7622 C   0  0  0  0  0  0  0  0  0  0  0  0
   -1.3956    2.0096    0.2582 O   0  0  0  0  0  0  0  0  0  0  0  0
    0.3741    1.8728    1.6466 N   0  0  0  0  0  0  0  0  0  0  0  0
    1.0814    1.2667    2.0345 H   0  0  0  0  0  0  0  0  0  0  0  0
    0.3380    3.2610    2.1024 C   0  0  0  0  0  0  0  0  0  0  0  0
   -0.6389    3.4820    2.5363 H   0  0  0  0  0  0  0  0  0  0  0  0
    1.1108    3.4337    2.8528 H   0  0  0  0  0  0  0  0  0  0  0  0
    0.5009    3.9312    1.2562 H   0  0  0  0  0  0  0  0  0  0  0  0
  5  6  2  0  0  0  0
  5  7  1  0  0  0  0
  2  3  1  0  0  0  0
  2  4  1  0  0  0  0
  2  5  1  0  0  0  0
  1  2  1  0  0  0  0
 21 22  2  0  0  0  0
 21 23  1  0  0  0  0
 19 20  1  0  0  0  0
 17 18  2  0  0  0  0
 17 19  1  0  0  0  0
 14 15  1  0  0  0  0
 14 16  1  0  0  0  0
 14 17  1  0  0  0  0
 11 12  1  0  0  0  0
 11 13  1  0  0  0  0
 11 14  1  0  0  0  0
  9 10  1  0  0  0  0
  9 11  1  0  0  0  0
  9 21  1  0  0  0  0
  7  8  1  0  0  0  0
  7  9  1  0  0  0  0
 25 26  1  0  0  0  0
 25 27  1  0  0  0  0
 25 28  1  0  0  0  0
 23 24  1  0  0  0  0
 23 25  1  0  0  0  0
M  END
$$$$
default_name
  -OEChem-02102213163D

 28 27  0     1  0  0  0  0  0999 V2000
   -3.2133   -3.5565    1.2809 H   0  0  0  0  0  0  0  0  0  0  0  0
   -3.1873   -2.5755    0.8089 C   0  0  0  0  0  0  0  0  0  0  0  0
   -3.8793   -1.9065    1.3169 H   0  0  0  0  0  0  0  0  0  0  0  0
   -3.4623   -2.6685   -0.2401 H   0  0  0  0  0  0  0  0  0  0  0  0
   -1.7863   -2.0195    0.9119 C   0  0  0  0  0  0  0  0  0  0  0  0
   -0.9073   -2.6615    1.4699 O   0  0  0  0  0  0  0  0  0  0  0  0
   -1.5803   -0.8195    0.3749 N   0  0  0  0  0  0  0  0  0  0  0  0
   -2.3603   -0.3345   -0.0451 H   0  0  0  0  0  0  0  0  0  0  0  0
   -0.2933   -0.1205    0.3719 C   0  0  1  0  0  0  0  0  0  0  0  0
    0.3577   -0.5843    1.1143 H   0  0  0  0  0  0  0  0  0  0  0  0
    0.3613   -0.2794   -1.0156 C   0  0  0  0  0  0  0  0  0  0  0  0
   -0.4340   -0.3480   -1.7598 H   0  0  0  0  0  0  0  0  0  0  0  0
    0.9569    0.6075   -1.2362 H   0  0  0  0  0  0  0  0  0  0  0  0
    1.2649   -1.5184   -1.1403 C   0  0  0  0  0  0  0  0  0  0  0  0
    0.6821   -2.3688   -1.4944 H   0  0  0  0  0  0  0  0  0  0  0  0
    2.0612   -1.3100   -1.8539 H   0  0  0  0  0  0  0  0  0  0  0  0
    1.9080   -1.9012    0.1887 C   0  0  0  0  0  0  0  0  0  0  0  0
    1.8400   -1.2436    1.2148 O   0  0  0  0  0  0  0  0  0  0  0  0
    2.6044   -3.0530    0.1854 O   0  0  0  0  0  0  0  0  0  0  0  0
    2.9490   -3.1408    1.0758 H   0  0  0  0  0  0  0  0  0  0  0  0
   -0.4860    1.3537    0.7622 C   0  0  0  0  0  0  0  0  0  0  0  0
   -1.3956    2.0096    0.2582 O   0  0  0  0  0  0  0  0  0  0  0  0
    0.3741    1.8728    1.6466 N   0  0  0  0  0  0  0  0  0  0  0  0
    1.0814    1.2667    2.0345 H   0  0  0  0  0  0  0  0  0  0  0  0
    0.3380    3.2610    2.1024 C   0  0  0  0  0  0  0  0  0  0  0  0
   -0.6389    3.4820    2.5363 H   0  0  0  0  0  0  0  0  0  0  0  0
    1.1108    3.4337    2.8528 H   0  0  0  0  0  0  0  0  0  0  0  0
    0.5009    3.9312    1.2562 H   0  0  0  0  0  0  0  0  0  0  0  0
  5  6  2  0  0  0  0
  5  7  1  0  0  0  0
  2  3  1  0  0  0  0
  2  4  1  0  0  0  0
  2  5  1  0  0  0  0
  1  2  1  0  0  0  0
 21 22  2  0  0  0  0
 21 23  1  0  0  0  0
 19 20  1  0  0  0  0
 17 18  2  0  0  0  0
 17 19  1  0  0  0  0
 14 15  1  0  0  0  0
 14 16  1  0  0  0  0
 14 17  1  0  0  0  0
 11 12  1  0  0  0  0
 11 13  1  0  0  0  0
 11 14  1  0  0  0  0
  9 10  1  0  0  0  0
  9 11  1  0  0  0  0
  9 21  1  0  0  0  0
  7  8  1  0  0  0  0
  7  9  1  0  0  0  0
 25 26  1  0  0  0  0
 25 27  1  0  0  0  0
 25 28  1  0  0  0  0
 23 24  1  0  0  0  0
 23 25  1  0  0  0  0
M  END
$$$$
default_name
  -OEChem-02102213163D

 28 27  0     1  0  0  0  0  0999 V2000
   -3.2133   -3.5565    1.2809 H   0  0  0  0  0  0  0  0  0  0  0  0
   -3.1873   -2.5755    0.8089 C   0  0  0  0  0  0  0  0  0  0  0  0
   -3.8793   -1.9065    1.3169 H   0  0  0  0  0  0  0  0  0  0  0  0
   -3.4623   -2.6685   -0.2401 H   0  0  0  0  0  0  0  0  0  0  0  0
   -1.7863   -2.0195    0.9119 C   0  0  0  0  0  0  0  0  0  0  0  0
   -0.9073   -2.6615    1.4699 O   0  0  0  0  0  0  0  0  0  0  0  0
   -1.5803   -0.8195    0.3749 N   0  0  0  0  0  0  0  0  0  0  0  0
   -2.3603   -0.3345   -0.0451 H   0  0  0  0  0  0  0  0  0  0  0  0
   -0.2933   -0.1205    0.3719 C   0  0  1  0  0  0  0  0  0  0  0  0
    0.3577   -0.5843    1.1143 H   0  0  0  0  0  0  0  0  0  0  0  0
    0.3613   -0.2794   -1.0156 C   0  0  0  0  0  0  0  0  0  0  0  0
   -0.4340   -0.3480   -1.7598 H   0  0  0  0  0  0  0  0  0  0  0  0
    0.9569    0.6075   -1.2362 H   0  0  0  0  0  0  0  0  0  0  0  0
    1.2649   -1.5184   -1.1403 C   0  0  0  0  0  0  0  0  0  0  0  0
    0.7653   -2.2839   -1.7341 H   0  0  0  0  0  0  0  0  0  0  0  0
    2.1944   -1.2352   -1.6329 H   0  0  0  0  0  0  0  0  0  0  0  0
    1.6126   -2.1195    0.2177 C   0  0  0  0  0  0  0  0  0  0  0  0
    1.3338   -1.6210    1.2964 O   0  0  0  0  0  0  0  0  0  0  0  0
    2.2885   -3.2829    0.1808 O   0  0  0  0  0  0  0  0  0  0  0  0
    2.4380   -3.5158    1.0988 H   0  0  0  0  0  0  0  0  0  0  0  0
   -0.4860    1.3537    0.7622 C   0  0  0  0  0  0  0  0  0  0  0  0
   -1.3956    2.0096    0.2582 O   0  0  0  0  0  0  0  0  0  0  0  0
    0.3741    1.8728    1.6466 N   0  0  0  0  0  0  0  0  0  0  0  0
    1.0814    1.2667    2.0345 H   0  0  0  0  0  0  0  0  0  0  0  0
    0.3380    3.2610    2.1024 C   0  0  0  0  0  0  0  0  0  0  0  0
   -0.6389    3.4820    2.5363 H   0  0  0  0  0  0  0  0  0  0  0  0
    1.1108    3.4337    2.8528 H   0  0  0  0  0  0  0  0  0  0  0  0
    0.5009    3.9312    1.2562 H   0  0  0  0  0  0  0  0  0  0  0  0
  5  6  2  0  0  0  0
  5  7  1  0  0  0  0
  2  3  1  0  0  0  0
  2  4  1  0  0  0  0
  2  5  1  0  0  0  0
  1  2  1  0  0  0  0
 21 22  2  0  0  0  0
 21 23  1  0  0  0  0
 19 20  1  0  0  0  0
 17 18  2  0  0  0  0
 17 19  1  0  0  0  0
 14 15  1  0  0  0  0
 14 16  1  0  0  0  0
 14 17  1  0  0  0  0
 11 12  1  0  0  0  0
 11 13  1  0  0  0  0
 11 14  1  0  0  0  0
  9 10  1  0  0  0  0
  9 11  1  0  0  0  0
  9 21  1  0  0  0  0
  7  8  1  0  0  0  0
  7  9  1  0  0  0  0
 25 26  1  0  0  0  0
 25 27  1  0  0  0  0
 25 28  1  0  0  0  0
 23 24  1  0  0  0  0
 23 25  1  0  0  0  0
M  END
$$$$
default_name
  -OEChem-02102213163D

 28 27  0     1  0  0  0  0  0999 V2000
   -3.2133   -3.5565    1.2809 H   0  0  0  0  0  0  0  0  0  0  0  0
   -3.1873   -2.5755    0.8089 C   0  0  0  0  0  0  0  0  0  0  0  0
   -3.8793   -1.9065    1.3169 H   0  0  0  0  0  0  0  0  0  0  0  0
   -3.4623   -2.6685   -0.2401 H   0  0  0  0  0  0  0  0  0  0  0  0
   -1.7863   -2.0195    0.9119 C   0  0  0  0  0  0  0  0  0  0  0  0
   -0.9073   -2.6615    1.4699 O   0  0  0  0  0  0  0  0  0  0  0  0
   -1.5803   -0.8195    0.3749 N   0  0  0  0  0  0  0  0  0  0  0  0
   -2.3603   -0.3345   -0.0451 H   0  0  0  0  0  0  0  0  0  0  0  0
   -0.2933   -0.1205    0.3719 C   0  0  1  0  0  0  0  0  0  0  0  0
    0.3577   -0.5843    1.1143 H   0  0  0  0  0  0  0  0  0  0  0  0
    0.3613   -0.2794   -1.0156 C   0  0  0  0  0  0  0  0  0  0  0  0
   -0.4340   -0.3480   -1.7598 H   0  0  0  0  0  0  0  0  0  0  0  0
    0.9569    0.6075   -1.2362 H   0  0  0  0  0  0  0  0  0  0  0  0
    1.2649   -1.5184   -1.1403 C   0  0  0  0  0  0  0  0  0  0  0  0
    0.8974   -2.1673   -1.9354 H   0  0  0  0  0  0  0  0  0  0  0  0
    2.2785   -1.1993   -1.3803 H   0  0  0  0  0  0  0  0  0  0  0  0
    1.3167   -2.3286    0.1509 C   0  0  0  0  0  0  0  0  0  0  0  0
    0.8199   -1.9873    1.2123 O   0  0  0  0  0  0  0  0  0  0  0  0
    1.9796   -3.4976    0.0756 O   0  0  0  0  0  0  0  0  0  0  0  0
    1.9317   -3.8708    0.9575 H   0  0  0  0  0  0  0  0  0  0  0  0
   -0.4860    1.3537    0.7622 C   0  0  0  0  0  0  0  0  0  0  0  0
   -1.3956    2.0096    0.2582 O   0  0  0  0  0  0  0  0  0  0  0  0
    0.3741    1.8728    1.6466 N   0  0  0  0  0  0  0  0  0  0  0  0
    1.0814    1.2667    2.0345 H   0  0  0  0  0  0  0  0  0  0  0  0
    0.3380    3.2610    2.1024 C   0  0  0  0  0  0  0  0  0  0  0  0
   -0.6389    3.4820    2.5363 H   0  0  0  0  0  0  0  0  0  0  0  0
    1.1108    3.4337    2.8528 H   0  0  0  0  0  0  0  0  0  0  0  0
    0.5009    3.9312    1.2562 H   0  0  0  0  0  0  0  0  0  0  0  0
  5  6  2  0  0  0  0
  5  7  1  0  0  0  0
  2  3  1  0  0  0  0
  2  4  1  0  0  0  0
  2  5  1  0  0  0  0
  1  2  1  0  0  0  0
 21 22  2  0  0  0  0
 21 23  1  0  0  0  0
 19 20  1  0  0  0  0
 17 18  2  0  0  0  0
 17 19  1  0  0  0  0
 14 15  1  0  0  0  0
 14 16  1  0  0  0  0
 14 17  1  0  0  0  0
 11 12  1  0  0  0  0
 11 13  1  0  0  0  0
 11 14  1  0  0  0  0
  9 10  1  0  0  0  0
  9 11  1  0  0  0  0
  9 21  1  0  0  0  0
  7  8  1  0  0  0  0
  7  9  1  0  0  0  0
 25 26  1  0  0  0  0
 25 27  1  0  0  0  0
 25 28  1  0  0  0  0
 23 24  1  0  0  0  0
 23 25  1  0  0  0  0
M  END
$$$$
default_name
  -OEChem-02102213163D

 28 27  0     1  0  0  0  0  0999 V2000
   -3.2133   -3.5565    1.2809 H   0  0  0  0  0  0  0  0  0  0  0  0
   -3.1873   -2.5755    0.8089 C   0  0  0  0  0  0  0  0  0  0  0  0
   -3.8793   -1.9065    1.3169 H   0  0  0  0  0  0  0  0  0  0  0  0
   -3.4623   -2.6685   -0.2401 H   0  0  0  0  0  0  0  0  0  0  0  0
   -1.7863   -2.0195    0.9119 C   0  0  0  0  0  0  0  0  0  0  0  0
   -0.9073   -2.6615    1.4699 O   0  0  0  0  0  0  0  0  0  0  0  0
   -1.5803   -0.8195    0.3749 N   0  0  0  0  0  0  0  0  0  0  0  0
   -2.3603   -0.3345   -0.0451 H   0  0  0  0  0  0  0  0  0  0  0  0
   -0.2933   -0.1205    0.3719 C   0  0  1  0  0  0  0  0  0  0  0  0
    0.3577   -0.5843    1.1143 H   0  0  0  0  0  0  0  0  0  0  0  0
    0.3613   -0.2794   -1.0156 C   0  0  0  0  0  0  0  0  0  0  0  0
   -0.4340   -0.3480   -1.7598 H   0  0  0  0  0  0  0  0  0  0  0  0
    0.9569    0.6075   -1.2362 H   0  0  0  0  0  0  0  0  0  0  0  0
    1.2649   -1.5184   -1.1403 C   0  0  0  0  0  0  0  0  0  0  0  0
    1.0695   -2.0268   -2.0846 H   0  0  0  0  0  0  0  0  0  0  0  0
    2.3078   -1.2048   -1.1134 H   0  0  0  0  0  0  0  0  0  0  0  0
    1.0403   -2.5143   -0.0071 C   0  0  0  0  0  0  0  0  0  0  0  0
    0.3334   -2.3176    0.9683 O   0  0  0  0  0  0  0  0  0  0  0  0
    1.6986   -3.6826   -0.1230 O   0  0  0  0  0  0  0  0  0  0  0  0
    1.4647   -4.1816    0.6616 H   0  0  0  0  0  0  0  0  0  0  0  0
   -0.4860    1.3537    0.7622 C   0  0  0  0  0  0  0  0  0  0  0  0
   -1.3956    2.0096    0.2582 O   0  0  0  0  0  0  0  0  0  0  0  0
    0.3741    1.8728    1.6466 N   0  0  0  0  0  0  0  0  0  0  0  0
    1.0814    1.2667    2.0345 H   0  0  0  0  0  0  0  0  0  0  0  0
    0.3380    3.2610    2.1024 C   0  0  0  0  0  0  0  0  0  0  0  0
   -0.6389    3.4820    2.5363 H   0  0  0  0  0  0  0  0  0  0  0  0
    1.1108    3.4337    2.8528 H   0  0  0  0  0  0  0  0  0  0  0  0
    0.5009    3.9312    1.2562 H   0  0  0  0  0  0  0  0  0  0  0  0
  5  6  2  0  0  0  0
  5  7  1  0  0  0  0
  2  3  1  0  0  0  0
  2  4  1  0  0  0  0
  2  5  1  0  0  0  0
  1  2  1  0  0  0  0
 21 22  2  0  0  0  0
 21 23  1  0  0  0  0
 19 20  1  0  0  0  0
 17 18  2  0  0  0  0
 17 19  1  0  0  0  0
 14 15  1  0  0  0  0
 14 16  1  0  0  0  0
 14 17  1  0  0  0  0
 11 12  1  0  0  0  0
 11 13  1  0  0  0  0
 11 14  1  0  0  0  0
  9 10  1  0  0  0  0
  9 11  1  0  0  0  0
  9 21  1  0  0  0  0
  7  8  1  0  0  0  0
  7  9  1  0  0  0  0
 25 26  1  0  0  0  0
 25 27  1  0  0  0  0
 25 28  1  0  0  0  0
 23 24  1  0  0  0  0
 23 25  1  0  0  0  0
M  END
$$$$
default_name
  -OEChem-02102213163D

 28 27  0     1  0  0  0  0  0999 V2000
   -3.2133   -3.5565    1.2809 H   0  0  0  0  0  0  0  0  0  0  0  0
   -3.1873   -2.5755    0.8089 C   0  0  0  0  0  0  0  0  0  0  0  0
   -3.8793   -1.9065    1.3169 H   0  0  0  0  0  0  0  0  0  0  0  0
   -3.4623   -2.6685   -0.2401 H   0  0  0  0  0  0  0  0  0  0  0  0
   -1.7863   -2.0195    0.9119 C   0  0  0  0  0  0  0  0  0  0  0  0
   -0.9073   -2.6615    1.4699 O   0  0  0  0  0  0  0  0  0  0  0  0
   -1.5803   -0.8195    0.3749 N   0  0  0  0  0  0  0  0  0  0  0  0
   -2.3603   -0.3345   -0.0451 H   0  0  0  0  0  0  0  0  0  0  0  0
   -0.2933   -0.1205    0.3719 C   0  0  1  0  0  0  0  0  0  0  0  0
    0.3577   -0.5843    1.1143 H   0  0  0  0  0  0  0  0  0  0  0  0
    0.3613   -0.2794   -1.0156 C   0  0  0  0  0  0  0  0  0  0  0  0
   -0.4340   -0.3480   -1.7598 H   0  0  0  0  0  0  0  0  0  0  0  0
    0.9569    0.6075   -1.2362 H   0  0  0  0  0  0  0  0  0  0  0  0
    1.2649   -1.5184   -1.1403 C   0  0  0  0  0  0  0  0  0  0  0  0
    1.2697   -1.8720   -2.1714 H   0  0  0  0  0  0  0  0  0  0  0  0
    2.2804   -1.2513   -0.8503 H   0  0  0  0  0  0  0  0  0  0  0  0
    0.8025   -2.6637   -0.2455 C   0  0  0  0  0  0  0  0  0  0  0  0
   -0.0926   -2.5893    0.5810 O   0  0  0  0  0  0  0  0  0  0  0  0
    1.4646   -3.8251   -0.4016 O   0  0  0  0  0  0  0  0  0  0  0  0
    1.0688   -4.4270    0.2312 H   0  0  0  0  0  0  0  0  0  0  0  0
   -0.4860    1.3537    0.7622 C   0  0  0  0  0  0  0  0  0  0  0  0
   -1.3956    2.0096    0.2582 O   0  0  0  0  0  0  0  0  0  0  0  0
    0.3741    1.8728    1.6466 N   0  0  0  0  0  0  0  0  0  0  0  0
    1.0814    1.2667    2.0345 H   0  0  0  0  0  0  0  0  0  0  0  0
    0.3380    3.2610    2.1024 C   0  0  0  0  0  0  0  0  0  0  0  0
   -0.6389    3.4820    2.5363 H   0  0  0  0  0  0  0  0  0  0  0  0
    1.1108    3.4337    2.8528 H   0  0  0  0  0  0  0  0  0  0  0  0
    0.5009    3.9312    1.2562 H   0  0  0  0  0  0  0  0  0  0  0  0
  5  6  2  0  0  0  0
  5  7  1  0  0  0  0
  2  3  1  0  0  0  0
  2  4  1  0  0  0  0
  2  5  1  0  0  0  0
  1  2  1  0  0  0  0
 21 22  2  0  0  0  0
 21 23  1  0  0  0  0
 19 20  1  0  0  0  0
 17 18  2  0  0  0  0
 17 19  1  0  0  0  0
 14 15  1  0  0  0  0
 14 16  1  0  0  0  0
 14 17  1  0  0  0  0
 11 12  1  0  0  0  0
 11 13  1  0  0  0  0
 11 14  1  0  0  0  0
  9 10  1  0  0  0  0
  9 11  1  0  0  0  0
  9 21  1  0  0  0  0
  7  8  1  0  0  0  0
  7  9  1  0  0  0  0
 25 26  1  0  0  0  0
 25 27  1  0  0  0  0
 25 28  1  0  0  0  0
 23 24  1  0  0  0  0
 23 25  1  0  0  0  0
M  END
$$$$
default_name
  -OEChem-02102213163D

 28 27  0     1  0  0  0  0  0999 V2000
   -3.2133   -3.5565    1.2809 H   0  0  0  0  0  0  0  0  0  0  0  0
   -3.1873   -2.5755    0.8089 C   0  0  0  0  0  0  0  0  0  0  0  0
   -3.8793   -1.9065    1.3169 H   0  0  0  0  0  0  0  0  0  0  0  0
   -3.4623   -2.6685   -0.2401 H   0  0  0  0  0  0  0  0  0  0  0  0
   -1.7863   -2.0195    0.9119 C   0  0  0  0  0  0  0  0  0  0  0  0
   -0.9073   -2.6615    1.4699 O   0  0  0  0  0  0  0  0  0  0  0  0
   -1.5803   -0.8195    0.3749 N   0  0  0  0  0  0  0  0  0  0  0  0
   -2.3603   -0.3345   -0.0451 H   0  0  0  0  0  0  0  0  0  0  0  0
   -0.2933   -0.1205    0.3719 C   0  0  1  0  0  0  0  0  0  0  0  0
    0.3577   -0.5843    1.1143 H   0  0  0  0  0  0  0  0  0  0  0  0
    0.3613   -0.2794   -1.0156 C   0  0  0  0  0  0  0  0  0  0  0  0
   -0.4340   -0.3480   -1.7598 H   0  0  0  0  0  0  0  0  0  0  0  0
    0.9569    0.6075   -1.2362 H   0  0  0  0  0  0  0  0  0  0  0  0
    1.2649   -1.5184   -1.1403 C   0  0  0  0  0  0  0  0  0  0  0  0
    1.4844   -1.7135   -2.1901 H   0  0  0  0  0  0  0  0  0  0  0  0
    2.1981   -1.3356   -0.6089 H   0  0  0  0  0  0  0  0  0  0  0  0
    0.6192   -2.7669   -0.5481 C   0  0  0  0  0  0  0  0  0  0  0  0
   -0.4291   -2.7839    0.0769 O   0  0  0  0  0  0  0  0  0  0  0  0
    1.2938   -3.9156   -0.7410 O   0  0  0  0  0  0  0  0  0  0  0  0
    0.7709   -4.5903   -0.3044 H   0  0  0  0  0  0  0  0  0  0  0  0
   -0.4860    1.3537    0.7622 C   0  0  0  0  0  0  0  0  0  0  0  0
   -1.3956    2.0096    0.2582 O   0  0  0  0  0  0  0  0  0  0  0  0
    0.3741    1.8728    1.6466 N   0  0  0  0  0  0  0  0  0  0  0  0
    1.0814    1.2667    2.0345 H   0  0  0  0  0  0  0  0  0  0  0  0
    0.3380    3.2610    2.1024 C   0  0  0  0  0  0  0  0  0  0  0  0
   -0.6389    3.4820    2.5363 H   0  0  0  0  0  0  0  0  0  0  0  0
    1.1108    3.4337    2.8528 H   0  0  0  0  0  0  0  0  0  0  0  0
    0.5009    3.9312    1.2562 H   0  0  0  0  0  0  0  0  0  0  0  0
  5  6  2  0  0  0  0
  5  7  1  0  0  0  0
  2  3  1  0  0  0  0
  2  4  1  0  0  0  0
  2  5  1  0  0  0  0
  1  2  1  0  0  0  0
 21 22  2  0  0  0  0
 21 23  1  0  0  0  0
 19 20  1  0  0  0  0
 17 18  2  0  0  0  0
 17 19  1  0  0  0  0
 14 15  1  0  0  0  0
 14 16  1  0  0  0  0
 14 17  1  0  0  0  0
 11 12  1  0  0  0  0
 11 13  1  0  0  0  0
 11 14  1  0  0  0  0
  9 10  1  0  0  0  0
  9 11  1  0  0  0  0
  9 21  1  0  0  0  0
  7  8  1  0  0  0  0
  7  9  1  0  0  0  0
 25 26  1  0  0  0  0
 25 27  1  0  0  0  0
 25 28  1  0  0  0  0
 23 24  1  0  0  0  0
 23 25  1  0  0  0  0
M  END
$$$$
default_name
  -OEChem-02102213163D

 28 27  0     1  0  0  0  0  0999 V2000
   -3.2133   -3.5565    1.2809 H   0  0  0  0  0  0  0  0  0  0  0  0
   -3.1873   -2.5755    0.8089 C   0  0  0  0  0  0  0  0  0  0  0  0
   -3.8793   -1.9065    1.3169 H   0  0  0  0  0  0  0  0  0  0  0  0
   -3.4623   -2.6685   -0.2401 H   0  0  0  0  0  0  0  0  0  0  0  0
   -1.7863   -2.0195    0.9119 C   0  0  0  0  0  0  0  0  0  0  0  0
   -0.9073   -2.6615    1.4699 O   0  0  0  0  0  0  0  0  0  0  0  0
   -1.5803   -0.8195    0.3749 N   0  0  0  0  0  0  0  0  0  0  0  0
   -2.3603   -0.3345   -0.0451 H   0  0  0  0  0  0  0  0  0  0  0  0
   -0.2933   -0.1205    0.3719 C   0  0  1  0  0  0  0  0  0  0  0  0
    0.3577   -0.5843    1.1143 H   0  0  0  0  0  0  0  0  0  0  0  0
    0.3613   -0.2794   -1.0156 C   0  0  0  0  0  0  0  0  0  0  0  0
   -0.4340   -0.3480   -1.7598 H   0  0  0  0  0  0  0  0  0  0  0  0
    0.9569    0.6075   -1.2362 H   0  0  0  0  0  0  0  0  0  0  0  0
    1.2649   -1.5184   -1.1403 C   0  0  0  0  0  0  0  0  0  0  0  0
    1.6991   -1.5621   -2.1392 H   0  0  0  0  0  0  0  0  0  0  0  0
    2.0665   -1.4520   -0.4057 H   0  0  0  0  0  0  0  0  0  0  0  0
    0.5032   -2.8167   -0.8942 C   0  0  0  0  0  0  0  0  0  0  0  0
   -0.6531   -2.8882   -0.5098 O   0  0  0  0  0  0  0  0  0  0  0  0
    1.1975   -3.9477   -1.1183 O   0  0  0  0  0  0  0  0  0  0  0  0
    0.5914   -4.6604   -0.9087 H   0  0  0  0  0  0  0  0  0  0  0  0
   -0.4860    1.3537    0.7622 C   0  0  0  0  0  0  0  0  0  0  0  0
   -1.3956    2.0096    0.2582 O   0  0  0  0  0  0  0  0  0  0  0  0
    0.3741    1.8728    1.6466 N   0  0  0  0  0  0  0  0  0  0  0  0
    1.0814    1.2667    2.0345 H   0  0  0  0  0  0  0  0  0  0  0  0
    0.3380    3.2610    2.1024 C   0  0  0  0  0  0  0  0  0  0  0  0
   -0.6389    3.4820    2.5363 H   0  0  0  0  0  0  0  0  0  0  0  0
    1.1108    3.4337    2.8528 H   0  0  0  0  0  0  0  0  0  0  0  0
    0.5009    3.9312    1.2562 H   0  0  0  0  0  0  0  0  0  0  0  0
  5  6  2  0  0  0  0
  5  7  1  0  0  0  0
  2  3  1  0  0  0  0
  2  4  1  0  0  0  0
  2  5  1  0  0  0  0
  1  2  1  0  0  0  0
 21 22  2  0  0  0  0
 21 23  1  0  0  0  0
 19 20  1  0  0  0  0
 17 18  2  0  0  0  0
 17 19  1  0  0  0  0
 14 15  1  0  0  0  0
 14 16  1  0  0  0  0
 14 17  1  0  0  0  0
 11 12  1  0  0  0  0
 11 13  1  0  0  0  0
 11 14  1  0  0  0  0
  9 10  1  0  0  0  0
  9 11  1  0  0  0  0
  9 21  1  0  0  0  0
  7  8  1  0  0  0  0
  7  9  1  0  0  0  0
 25 26  1  0  0  0  0
 25 27  1  0  0  0  0
 25 28  1  0  0  0  0
 23 24  1  0  0  0  0
 23 25  1  0  0  0  0
M  END
$$$$
default_name
  -OEChem-02102213163D

 28 27  0     1  0  0  0  0  0999 V2000
   -3.2133   -3.5565    1.2809 H   0  0  0  0  0  0  0  0  0  0  0  0
   -3.1873   -2.5755    0.8089 C   0  0  0  0  0  0  0  0  0  0  0  0
   -3.8793   -1.9065    1.3169 H   0  0  0  0  0  0  0  0  0  0  0  0
   -3.4623   -2.6685   -0.2401 H   0  0  0  0  0  0  0  0  0  0  0  0
   -1.7863   -2.0195    0.9119 C   0  0  0  0  0  0  0  0  0  0  0  0
   -0.9073   -2.6615    1.4699 O   0  0  0  0  0  0  0  0  0  0  0  0
   -1.5803   -0.8195    0.3749 N   0  0  0  0  0  0  0  0  0  0  0  0
   -2.3603   -0.3345   -0.0451 H   0  0  0  0  0  0  0  0  0  0  0  0
   -0.2933   -0.1205    0.3719 C   0  0  1  0  0  0  0  0  0  0  0  0
    0.3577   -0.5843    1.1143 H   0  0  0  0  0  0  0  0  0  0  0  0
    0.3613   -0.2794   -1.0156 C   0  0  0  0  0  0  0  0  0  0  0  0
   -0.4340   -0.3480   -1.7598 H   0  0  0  0  0  0  0  0  0  0  0  0
    0.9569    0.6075   -1.2362 H   0  0  0  0  0  0  0  0  0  0  0  0
    1.2649   -1.5184   -1.1403 C   0  0  0  0  0  0  0  0  0  0  0  0
    1.8990   -1.4281   -2.0224 H   0  0  0  0  0  0  0  0  0  0  0  0
    1.8947   -1.5926   -0.2546 H   0  0  0  0  0  0  0  0  0  0  0  0
    0.4621   -2.8097   -1.2603 C   0  0  0  0  0  0  0  0  0  0  0  0
   -0.7494   -2.8951   -1.1391 O   0  0  0  0  0  0  0  0  0  0  0  0
    1.1826   -3.9194   -1.5077 O   0  0  0  0  0  0  0  0  0  0  0  0
    0.5424   -4.6325   -1.5404 H   0  0  0  0  0  0  0  0  0  0  0  0
   -0.4860    1.3537    0.7622 C   0  0  0  0  0  0  0  0  0  0  0  0
   -1.3956    2.0096    0.2582 O   0  0  0  0  0  0  0  0  0  0  0  0
    0.3741    1.8728    1.6466 N   0  0  0  0  0  0  0  0  0  0  0  0
    1.0814    1.2667    2.0345 H   0  0  0  0  0  0  0  0  0  0  0  0
    0.3380    3.2610    2.1024 C   0  0  0  0  0  0  0  0  0  0  0  0
   -0.6389    3.4820    2.5363 H   0  0  0  0  0  0  0  0  0  0  0  0
    1.1108    3.4337    2.8528 H   0  0  0  0  0  0  0  0  0  0  0  0
    0.5009    3.9312    1.2562 H   0  0  0  0  0  0  0  0  0  0  0  0
  5  6  2  0  0  0  0
  5  7  1  0  0  0  0
  2  3  1  0  0  0  0
  2  4  1  0  0  0  0
  2  5  1  0  0  0  0
  1  2  1  0  0  0  0
 21 22  2  0  0  0  0
 21 23  1  0  0  0  0
 19 20  1  0  0  0  0
 17 18  2  0  0  0  0
 17 19  1  0  0  0  0
 14 15  1  0  0  0  0
 14 16  1  0  0  0  0
 14 17  1  0  0  0  0
 11 12  1  0  0  0  0
 11 13  1  0  0  0  0
 11 14  1  0  0  0  0
  9 10  1  0  0  0  0
  9 11  1  0  0  0  0
  9 21  1  0  0  0  0
  7  8  1  0  0  0  0
  7  9  1  0  0  0  0
 25 26  1  0  0  0  0
 25 27  1  0  0  0  0
 25 28  1  0  0  0  0
 23 24  1  0  0  0  0
 23 25  1  0  0  0  0
M  END
$$$$
default_name
  -OEChem-02102213163D

 28 27  0     1  0  0  0  0  0999 V2000
   -3.2133   -3.5565    1.2809 H   0  0  0  0  0  0  0  0  0  0  0  0
   -3.1873   -2.5755    0.8089 C   0  0  0  0  0  0  0  0  0  0  0  0
   -3.8793   -1.9065    1.3169 H   0  0  0  0  0  0  0  0  0  0  0  0
   -3.4623   -2.6685   -0.2401 H   0  0  0  0  0  0  0  0  0  0  0  0
   -1.7863   -2.0195    0.9119 C   0  0  0  0  0  0  0  0  0  0  0  0
   -0.9073   -2.6615    1.4699 O   0  0  0  0  0  0  0  0  0  0  0  0
   -1.5803   -0.8195    0.3749 N   0  0  0  0  0  0  0  0  0  0  0  0
   -2.3603   -0.3345   -0.0451 H   0  0  0  0  0  0  0  0  0  0  0  0
   -0.2933   -0.1205    0.3719 C   0  0  1  0  0  0  0  0  0  0  0  0
    0.3577   -0.5843    1.1143 H   0  0  0  0  0  0  0  0  0  0  0  0
    0.3613   -0.2794   -1.0156 C   0  0  0  0  0  0  0  0  0  0  0  0
   -0.4340   -0.3480   -1.7598 H   0  0  0  0  0  0  0  0  0  0  0  0
    0.9569    0.6075   -1.2362 H   0  0  0  0  0  0  0  0  0  0  0  0
    1.2649   -1.5184   -1.1403 C   0  0  0  0  0  0  0  0  0  0  0  0
    2.0705   -1.3206   -1.8475 H   0  0  0  0  0  0  0  0  0  0  0  0
    1.6942   -1.7478   -0.1658 H   0  0  0  0  0  0  0  0  0  0  0  0
    0.4989   -2.7465   -1.6214 C   0  0  0  0  0  0  0  0  0  0  0  0
   -0.7114   -2.8040   -1.7680 O   0  0  0  0  0  0  0  0  0  0  0  0
    1.2499   -3.8326   -1.8826 O   0  0  0  0  0  0  0  0  0  0  0  0
    0.6274   -4.5084   -2.1566 H   0  0  0  0  0  0  0  0  0  0  0  0
   -0.4860    1.3537    0.7622 C   0  0  0  0  0  0  0  0  0  0  0  0
   -1.3956    2.0096    0.2582 O   0  0  0  0  0  0  0  0  0  0  0  0
    0.3741    1.8728    1.6466 N   0  0  0  0  0  0  0  0  0  0  0  0
    1.0814    1.2667    2.0345 H   0  0  0  0  0  0  0  0  0  0  0  0
    0.3380    3.2610    2.1024 C   0  0  0  0  0  0  0  0  0  0  0  0
   -0.6389    3.4820    2.5363 H   0  0  0  0  0  0  0  0  0  0  0  0
    1.1108    3.4337    2.8528 H   0  0  0  0  0  0  0  0  0  0  0  0
    0.5009    3.9312    1.2562 H   0  0  0  0  0  0  0  0  0  0  0  0
  5  6  2  0  0  0  0
  5  7  1  0  0  0  0
  2  3  1  0  0  0  0
  2  4  1  0  0  0  0
  2  5  1  0  0  0  0
  1  2  1  0  0  0  0
 21 22  2  0  0  0  0
 21 23  1  0  0  0  0
 19 20  1  0  0  0  0
 17 18  2  0  0  0  0
 17 19  1  0  0  0  0
 14 15  1  0  0  0  0
 14 16  1  0  0  0  0
 14 17  1  0  0  0  0
 11 12  1  0  0  0  0
 11 13  1  0  0  0  0
 11 14  1  0  0  0  0
  9 10  1  0  0  0  0
  9 11  1  0  0  0  0
  9 21  1  0  0  0  0
  7  8  1  0  0  0  0
  7  9  1  0  0  0  0
 25 26  1  0  0  0  0
 25 27  1  0  0  0  0
 25 28  1  0  0  0  0
 23 24  1  0  0  0  0
 23 25  1  0  0  0  0
M  END
$$$$
default_name
  -OEChem-02102213163D

 28 27  0     1  0  0  0  0  0999 V2000
   -3.2133   -3.5565    1.2809 H   0  0  0  0  0  0  0  0  0  0  0  0
   -3.1873   -2.5755    0.8089 C   0  0  0  0  0  0  0  0  0  0  0  0
   -3.8793   -1.9065    1.3169 H   0  0  0  0  0  0  0  0  0  0  0  0
   -3.4623   -2.6685   -0.2401 H   0  0  0  0  0  0  0  0  0  0  0  0
   -1.7863   -2.0195    0.9119 C   0  0  0  0  0  0  0  0  0  0  0  0
   -0.9073   -2.6615    1.4699 O   0  0  0  0  0  0  0  0  0  0  0  0
   -1.5803   -0.8195    0.3749 N   0  0  0  0  0  0  0  0  0  0  0  0
   -2.3603   -0.3345   -0.0451 H   0  0  0  0  0  0  0  0  0  0  0  0
   -0.2933   -0.1205    0.3719 C   0  0  1  0  0  0  0  0  0  0  0  0
    0.3577   -0.5843    1.1143 H   0  0  0  0  0  0  0  0  0  0  0  0
    0.3613   -0.2794   -1.0156 C   0  0  0  0  0  0  0  0  0  0  0  0
   -0.4340   -0.3480   -1.7598 H   0  0  0  0  0  0  0  0  0  0  0  0
    0.9569    0.6075   -1.2362 H   0  0  0  0  0  0  0  0  0  0  0  0
    1.2649   -1.5184   -1.1403 C   0  0  0  0  0  0  0  0  0  0  0  0
    2.2020   -1.2469   -1.6264 H   0  0  0  0  0  0  0  0  0  0  0  0
    1.4788   -1.9069   -0.1454 H   0  0  0  0  0  0  0  0  0  0  0  0
    0.6111   -2.6313   -1.9530 C   0  0  0  0  0  0  0  0  0  0  0  0
   -0.5418   -2.6213   -2.3538 O   0  0  0  0  0  0  0  0  0  0  0  0
    1.3948   -3.6931   -2.2175 O   0  0  0  0  0  0  0  0  0  0  0  0
    0.8405   -4.2967   -2.7152 H   0  0  0  0  0  0  0  0  0  0  0  0
   -0.4860    1.3537    0.7622 C   0  0  0  0  0  0  0  0  0  0  0  0
   -1.3956    2.0096    0.2582 O   0  0  0  0  0  0  0  0  0  0  0  0
    0.3741    1.8728    1.6466 N   0  0  0  0  0  0  0  0  0  0  0  0
    1.0814    1.2667    2.0345 H   0  0  0  0  0  0  0  0  0  0  0  0
    0.3380    3.2610    2.1024 C   0  0  0  0  0  0  0  0  0  0  0  0
   -0.6389    3.4820    2.5363 H   0  0  0  0  0  0  0  0  0  0  0  0
    1.1108    3.4337    2.8528 H   0  0  0  0  0  0  0  0  0  0  0  0
    0.5009    3.9312    1.2562 H   0  0  0  0  0  0  0  0  0  0  0  0
  5  6  2  0  0  0  0
  5  7  1  0  0  0  0
  2  3  1  0  0  0  0
  2  4  1  0  0  0  0
  2  5  1  0  0  0  0
  1  2  1  0  0  0  0
 21 22  2  0  0  0  0
 21 23  1  0  0  0  0
 19 20  1  0  0  0  0
 17 18  2  0  0  0  0
 17 19  1  0  0  0  0
 14 15  1  0  0  0  0
 14 16  1  0  0  0  0
 14 17  1  0  0  0  0
 11 12  1  0  0  0  0
 11 13  1  0  0  0  0
 11 14  1  0  0  0  0
  9 10  1  0  0  0  0
  9 11  1  0  0  0  0
  9 21  1  0  0  0  0
  7  8  1  0  0  0  0
  7  9  1  0  0  0  0
 25 26  1  0  0  0  0
 25 27  1  0  0  0  0
 25 28  1  0  0  0  0
 23 24  1  0  0  0  0
 23 25  1  0  0  0  0
M  END
$$$$
default_name
  -OEChem-02102213163D

 28 27  0     1  0  0  0  0  0999 V2000
   -3.2133   -3.5565    1.2809 H   0  0  0  0  0  0  0  0  0  0  0  0
   -3.1873   -2.5755    0.8089 C   0  0  0  0  0  0  0  0  0  0  0  0
   -3.8793   -1.9065    1.3169 H   0  0  0  0  0  0  0  0  0  0  0  0
   -3.4623   -2.6685   -0.2401 H   0  0  0  0  0  0  0  0  0  0  0  0
   -1.7863   -2.0195    0.9119 C   0  0  0  0  0  0  0  0  0  0  0  0
   -0.9073   -2.6615    1.4699 O   0  0  0  0  0  0  0  0  0  0  0  0
   -1.5803   -0.8195    0.3749 N   0  0  0  0  0  0  0  0  0  0  0  0
   -2.3603   -0.3345   -0.0451 H   0  0  0  0  0  0  0  0  0  0  0  0
   -0.2933   -0.1205    0.3719 C   0  0  1  0  0  0  0  0  0  0  0  0
    0.3577   -0.5843    1.1143 H   0  0  0  0  0  0  0  0  0  0  0  0
    0.3613   -0.2794   -1.0156 C   0  0  0  0  0  0  0  0  0  0  0  0
   -0.4340   -0.3480   -1.7598 H   0  0  0  0  0  0  0  0  0  0  0  0
    0.9569    0.6075   -1.2362 H   0  0  0  0  0  0  0  0  0  0  0  0
    1.2649   -1.5184   -1.1403 C   0  0  0  0  0  0  0  0  0  0  0  0
    2.2846   -1.2122   -1.3743 H   0  0  0  0  0  0  0  0  0  0  0  0
    1.2631   -2.0593   -0.1947 H   0  0  0  0  0  0  0  0  0  0  0  0
    0.7909   -2.4720   -2.2323 C   0  0  0  0  0  0  0  0  0  0  0  0
   -0.2519   -2.3593   -2.8564 O   0  0  0  0  0  0  0  0  0  0  0  0
    1.6076   -3.5106   -2.4896 O   0  0  0  0  0  0  0  0  0  0  0  0
    1.1672   -4.0118   -3.1782 H   0  0  0  0  0  0  0  0  0  0  0  0
   -0.4860    1.3537    0.7622 C   0  0  0  0  0  0  0  0  0  0  0  0
   -1.3956    2.0096    0.2582 O   0  0  0  0  0  0  0  0  0  0  0  0
    0.3741    1.8728    1.6466 N   0  0  0  0  0  0  0  0  0  0  0  0
    1.0814    1.2667    2.0345 H   0  0  0  0  0  0  0  0  0  0  0  0
    0.3380    3.2610    2.1024 C   0  0  0  0  0  0  0  0  0  0  0  0
   -0.6389    3.4820    2.5363 H   0  0  0  0  0  0  0  0  0  0  0  0
    1.1108    3.4337    2.8528 H   0  0  0  0  0  0  0  0  0  0  0  0
    0.5009    3.9312    1.2562 H   0  0  0  0  0  0  0  0  0  0  0  0
  5  6  2  0  0  0  0
  5  7  1  0  0  0  0
  2  3  1  0  0  0  0
  2  4  1  0  0  0  0
  2  5  1  0  0  0  0
  1  2  1  0  0  0  0
 21 22  2  0  0  0  0
 21 23  1  0  0  0  0
 19 20  1  0  0  0  0
 17 18  2  0  0  0  0
 17 19  1  0  0  0  0
 14 15  1  0  0  0  0
 14 16  1  0  0  0  0
 14 17  1  0  0  0  0
 11 12  1  0  0  0  0
 11 13  1  0  0  0  0
 11 14  1  0  0  0  0
  9 10  1  0  0  0  0
  9 11  1  0  0  0  0
  9 21  1  0  0  0  0
  7  8  1  0  0  0  0
  7  9  1  0  0  0  0
 25 26  1  0  0  0  0
 25 27  1  0  0  0  0
 25 28  1  0  0  0  0
 23 24  1  0  0  0  0
 23 25  1  0  0  0  0
M  END
$$$$
default_name
  -OEChem-02102213163D

 28 27  0     1  0  0  0  0  0999 V2000
   -3.2133   -3.5565    1.2809 H   0  0  0  0  0  0  0  0  0  0  0  0
   -3.1873   -2.5755    0.8089 C   0  0  0  0  0  0  0  0  0  0  0  0
   -3.8793   -1.9065    1.3169 H   0  0  0  0  0  0  0  0  0  0  0  0
   -3.4623   -2.6685   -0.2401 H   0  0  0  0  0  0  0  0  0  0  0  0
   -1.7863   -2.0195    0.9119 C   0  0  0  0  0  0  0  0  0  0  0  0
   -0.9073   -2.6615    1.4699 O   0  0  0  0  0  0  0  0  0  0  0  0
   -1.5803   -0.8195    0.3749 N   0  0  0  0  0  0  0  0  0  0  0  0
   -2.3603   -0.3345   -0.0451 H   0  0  0  0  0  0  0  0  0  0  0  0
   -0.2933   -0.1205    0.3719 C   0  0  1  0  0  0  0  0  0  0  0  0
    0.3577   -0.5843    1.1143 H   0  0  0  0  0  0  0  0  0  0  0  0
    0.3613   -0.2794   -1.0156 C   0  0  0  0  0  0  0  0  0  0  0  0
   -0.4340   -0.3480   -1.7598 H   0  0  0  0  0  0  0  0  0  0  0  0
    0.9569    0.6075   -1.2362 H   0  0  0  0  0  0  0  0  0  0  0  0
    1.2649   -1.5184   -1.1403 C   0  0  0  0  0  0  0  0  0  0  0  0
    2.3124   -1.2186   -1.1083 H   0  0  0  0  0  0  0  0  0  0  0  0
    1.0619   -2.1943   -0.3105 H   0  0  0  0  0  0  0  0  0  0  0  0
    1.0262   -2.2795   -2.4404 C   0  0  0  0  0  0  0  0  0  0  0  0
    0.1383   -2.0359   -3.2417 O   0  0  0  0  0  0  0  0  0  0  0  0
    1.8736   -3.2973   -2.6803 O   0  0  0  0  0  0  0  0  0  0  0  0
    1.5852   -3.6731   -3.5140 H   0  0  0  0  0  0  0  0  0  0  0  0
   -0.4860    1.3537    0.7622 C   0  0  0  0  0  0  0  0  0  0  0  0
   -1.3956    2.0096    0.2582 O   0  0  0  0  0  0  0  0  0  0  0  0
    0.3741    1.8728    1.6466 N   0  0  0  0  0  0  0  0  0  0  0  0
    1.0814    1.2667    2.0345 H   0  0  0  0  0  0  0  0  0  0  0  0
    0.3380    3.2610    2.1024 C   0  0  0  0  0  0  0  0  0  0  0  0
   -0.6389    3.4820    2.5363 H   0  0  0  0  0  0  0  0  0  0  0  0
    1.1108    3.4337    2.8528 H   0  0  0  0  0  0  0  0  0  0  0  0
    0.5009    3.9312    1.2562 H   0  0  0  0  0  0  0  0  0  0  0  0
  5  6  2  0  0  0  0
  5  7  1  0  0  0  0
  2  3  1  0  0  0  0
  2  4  1  0  0  0  0
  2  5  1  0  0  0  0
  1  2  1  0  0  0  0
 21 22  2  0  0  0  0
 21 23  1  0  0  0  0
 19 20  1  0  0  0  0
 17 18  2  0  0  0  0
 17 19  1  0  0  0  0
 14 15  1  0  0  0  0
 14 16  1  0  0  0  0
 14 17  1  0  0  0  0
 11 12  1  0  0  0  0
 11 13  1  0  0  0  0
 11 14  1  0  0  0  0
  9 10  1  0  0  0  0
  9 11  1  0  0  0  0
  9 21  1  0  0  0  0
  7  8  1  0  0  0  0
  7  9  1  0  0  0  0
 25 26  1  0  0  0  0
 25 27  1  0  0  0  0
 25 28  1  0  0  0  0
 23 24  1  0  0  0  0
 23 25  1  0  0  0  0
M  END
$$$$
default_name
  -OEChem-02102213163D

 28 27  0     1  0  0  0  0  0999 V2000
   -3.2133   -3.5565    1.2809 H   0  0  0  0  0  0  0  0  0  0  0  0
   -3.1873   -2.5755    0.8089 C   0  0  0  0  0  0  0  0  0  0  0  0
   -3.8793   -1.9065    1.3169 H   0  0  0  0  0  0  0  0  0  0  0  0
   -3.4623   -2.6685   -0.2401 H   0  0  0  0  0  0  0  0  0  0  0  0
   -1.7863   -2.0195    0.9119 C   0  0  0  0  0  0  0  0  0  0  0  0
   -0.9073   -2.6615    1.4699 O   0  0  0  0  0  0  0  0  0  0  0  0
   -1.5803   -0.8195    0.3749 N   0  0  0  0  0  0  0  0  0  0  0  0
   -2.3603   -0.3345   -0.0451 H   0  0  0  0  0  0  0  0  0  0  0  0
   -0.2933   -0.1205    0.3719 C   0  0  1  0  0  0  0  0  0  0  0  0
    0.3577   -0.5843    1.1143 H   0  0  0  0  0  0  0  0  0  0  0  0
    0.3613   -0.2794   -1.0156 C   0  0  0  0  0  0  0  0  0  0  0  0
   -0.4340   -0.3480   -1.7598 H   0  0  0  0  0  0  0  0  0  0  0  0
    0.9569    0.6075   -1.2362 H   0  0  0  0  0  0  0  0  0  0  0  0
    1.2649   -1.5184   -1.1403 C   0  0  0  0  0  0  0  0  0  0  0  0
    2.2838   -1.2659   -0.8465 H   0  0  0  0  0  0  0  0  0  0  0  0
    0.8888   -2.3030   -0.4849 H   0  0  0  0  0  0  0  0  0  0  0  0
    1.3009   -2.0667   -2.5632 C   0  0  0  0  0  0  0  0  0  0  0  0
    0.6023   -1.6731   -3.4834 O   0  0  0  0  0  0  0  0  0  0  0  0
    2.1748   -3.0679   -2.7767 O   0  0  0  0  0  0  0  0  0  0  0  0
    2.0662   -3.3037   -3.6997 H   0  0  0  0  0  0  0  0  0  0  0  0
   -0.4860    1.3537    0.7622 C   0  0  0  0  0  0  0  0  0  0  0  0
   -1.3956    2.0096    0.2582 O   0  0  0  0  0  0  0  0  0  0  0  0
    0.3741    1.8728    1.6466 N   0  0  0  0  0  0  0  0  0  0  0  0
    1.0814    1.2667    2.0345 H   0  0  0  0  0  0  0  0  0  0  0  0
    0.3380    3.2610    2.1024 C   0  0  0  0  0  0  0  0  0  0  0  0
   -0.6389    3.4820    2.5363 H   0  0  0  0  0  0  0  0  0  0  0  0
    1.1108    3.4337    2.8528 H   0  0  0  0  0  0  0  0  0  0  0  0
    0.5009    3.9312    1.2562 H   0  0  0  0  0  0  0  0  0  0  0  0
  5  6  2  0  0  0  0
  5  7  1  0  0  0  0
  2  3  1  0  0  0  0
  2  4  1  0  0  0  0
  2  5  1  0  0  0  0
  1  2  1  0  0  0  0
 21 22  2  0  0  0  0
 21 23  1  0  0  0  0
 19 20  1  0  0  0  0
 17 18  2  0  0  0  0
 17 19  1  0  0  0  0
 14 15  1  0  0  0  0
 14 16  1  0  0  0  0
 14 17  1  0  0  0  0
 11 12  1  0  0  0  0
 11 13  1  0  0  0  0
 11 14  1  0  0  0  0
  9 10  1  0  0  0  0
  9 11  1  0  0  0  0
  9 21  1  0  0  0  0
  7  8  1  0  0  0  0
  7  9  1  0  0  0  0
 25 26  1  0  0  0  0
 25 27  1  0  0  0  0
 25 28  1  0  0  0  0
 23 24  1  0  0  0  0
 23 25  1  0  0  0  0
M  END
$$$$
default_name
  -OEChem-02102213163D

 28 27  0     1  0  0  0  0  0999 V2000
   -3.2133   -3.5565    1.2809 H   0  0  0  0  0  0  0  0  0  0  0  0
   -3.1873   -2.5755    0.8089 C   0  0  0  0  0  0  0  0  0  0  0  0
   -3.8793   -1.9065    1.3169 H   0  0  0  0  0  0  0  0  0  0  0  0
   -3.4623   -2.6685   -0.2401 H   0  0  0  0  0  0  0  0  0  0  0  0
   -1.7863   -2.0195    0.9119 C   0  0  0  0  0  0  0  0  0  0  0  0
   -0.9073   -2.6615    1.4699 O   0  0  0  0  0  0  0  0  0  0  0  0
   -1.5803   -0.8195    0.3749 N   0  0  0  0  0  0  0  0  0  0  0  0
   -2.3603   -0.3345   -0.0451 H   0  0  0  0  0  0  0  0  0  0  0  0
   -0.2933   -0.1205    0.3719 C   0  0  1  0  0  0  0  0  0  0  0  0
    0.3577   -0.5843    1.1143 H   0  0  0  0  0  0  0  0  0  0  0  0
    0.3613   -0.2794   -1.0156 C   0  0  0  0  0  0  0  0  0  0  0  0
   -0.4340   -0.3480   -1.7598 H   0  0  0  0  0  0  0  0  0  0  0  0
    0.9569    0.6075   -1.2362 H   0  0  0  0  0  0  0  0  0  0  0  0
    1.2649   -1.5184   -1.1403 C   0  0  0  0  0  0  0  0  0  0  0  0
    2.2005   -1.3507   -0.6068 H   0  0  0  0  0  0  0  0  0  0  0  0
    0.7557   -2.3778   -0.7058 H   0  0  0  0  0  0  0  0  0  0  0  0
    1.5963   -1.8484   -2.5921 C   0  0  0  0  0  0  0  0  0  0  0  0
    1.1085   -1.2957   -3.5650 O   0  0  0  0  0  0  0  0  0  0  0  0
    2.4906   -2.8381   -2.7721 O   0  0  0  0  0  0  0  0  0  0  0  0
    2.5771   -2.9287   -3.7227 H   0  0  0  0  0  0  0  0  0  0  0  0
   -0.4860    1.3537    0.7622 C   0  0  0  0  0  0  0  0  0  0  0  0
   -1.3956    2.0096    0.2582 O   0  0  0  0  0  0  0  0  0  0  0  0
    0.3741    1.8728    1.6466 N   0  0  0  0  0  0  0  0  0  0  0  0
    1.0814    1.2667    2.0345 H   0  0  0  0  0  0  0  0  0  0  0  0
    0.3380    3.2610    2.1024 C   0  0  0  0  0  0  0  0  0  0  0  0
   -0.6389    3.4820    2.5363 H   0  0  0  0  0  0  0  0  0  0  0  0
    1.1108    3.4337    2.8528 H   0  0  0  0  0  0  0  0  0  0  0  0
    0.5009    3.9312    1.2562 H   0  0  0  0  0  0  0  0  0  0  0  0
  5  6  2  0  0  0  0
  5  7  1  0  0  0  0
  2  3  1  0  0  0  0
  2  4  1  0  0  0  0
  2  5  1  0  0  0  0
  1  2  1  0  0  0  0
 21 22  2  0  0  0  0
 21 23  1  0  0  0  0
 19 20  1  0  0  0  0
 17 18  2  0  0  0  0
 17 19  1  0  0  0  0
 14 15  1  0  0  0  0
 14 16  1  0  0  0  0
 14 17  1  0  0  0  0
 11 12  1  0  0  0  0
 11 13  1  0  0  0  0
 11 14  1  0  0  0  0
  9 10  1  0  0  0  0
  9 11  1  0  0  0  0
  9 21  1  0  0  0  0
  7  8  1  0  0  0  0
  7  9  1  0  0  0  0
 25 26  1  0  0  0  0
 25 27  1  0  0  0  0
 25 28  1  0  0  0  0
 23 24  1  0  0  0  0
 23 25  1  0  0  0  0
M  END
$$$$
default_name
  -OEChem-02102213163D

 28 27  0     1  0  0  0  0  0999 V2000
   -3.2133   -3.5565    1.2809 H   0  0  0  0  0  0  0  0  0  0  0  0
   -3.1873   -2.5755    0.8089 C   0  0  0  0  0  0  0  0  0  0  0  0
   -3.8793   -1.9065    1.3169 H   0  0  0  0  0  0  0  0  0  0  0  0
   -3.4623   -2.6685   -0.2401 H   0  0  0  0  0  0  0  0  0  0  0  0
   -1.7863   -2.0195    0.9119 C   0  0  0  0  0  0  0  0  0  0  0  0
   -0.9073   -2.6615    1.4699 O   0  0  0  0  0  0  0  0  0  0  0  0
   -1.5803   -0.8195    0.3749 N   0  0  0  0  0  0  0  0  0  0  0  0
   -2.3603   -0.3345   -0.0451 H   0  0  0  0  0  0  0  0  0  0  0  0
   -0.2933   -0.1205    0.3719 C   0  0  1  0  0  0  0  0  0  0  0  0
    0.3577   -0.5843    1.1143 H   0  0  0  0  0  0  0  0  0  0  0  0
    0.3613   -0.2794   -1.0156 C   0  0  0  0  0  0  0  0  0  0  0  0
   -0.3981   -0.0799   -1.7736 H   0  0  0  0  0  0  0  0  0  0  0  0
    1.1542    0.4616   -1.1264 H   0  0  0  0  0  0  0  0  0  0  0  0
    0.9580   -1.6750   -1.2672 C   0  0  0  0  0  0  0  0  0  0  0  0
    1.7217   -1.8924   -0.5204 H   0  0  0  0  0  0  0  0  0  0  0  0
    0.1669   -2.4206   -1.1957 H   0  0  0  0  0  0  0  0  0  0  0  0
    1.5948   -1.7911   -2.6483 C   0  0  0  0  0  0  0  0  0  0  0  0
    1.5346   -0.9400   -3.5211 O   0  0  0  0  0  0  0  0  0  0  0  0
    2.2548   -2.9395   -2.8878 O   0  0  0  0  0  0  0  0  0  0  0  0
    2.5784   -2.8604   -3.7868 H   0  0  0  0  0  0  0  0  0  0  0  0
   -0.4860    1.3537    0.7622 C   0  0  0  0  0  0  0  0  0  0  0  0
   -1.3956    2.0096    0.2582 O   0  0  0  0  0  0  0  0  0  0  0  0
    0.3741    1.8728    1.6466 N   0  0  0  0  0  0  0  0  0  0  0  0
    1.0814    1.2667    2.0345 H   0  0  0  0  0  0  0  0  0  0  0  0
    0.3380    3.2610    2.1024 C   0  0  0  0  0  0  0  0  0  0  0  0
   -0.6389    3.4820    2.5363 H   0  0  0  0  0  0  0  0  0  0  0  0
    1.1108    3.4337    2.8528 H   0  0  0  0  0  0  0  0  0  0  0  0
    0.5009    3.9312    1.2562 H   0  0  0  0  0  0  0  0  0  0  0  0
  5  6  2  0  0  0  0
  5  7  1  0  0  0  0
  2  3  1  0  0  0  0
  2  4  1  0  0  0  0
  2  5  1  0  0  0  0
  1  2  1  0  0  0  0
 21 22  2  0  0  0  0
 21 23  1  0  0  0  0
 19 20  1  0  0  0  0
 17 18  2  0  0  0  0
 17 19  1  0  0  0  0
 14 15  1  0  0  0  0
 14 16  1  0  0  0  0
 14 17  1  0  0  0  0
 11 12  1  0  0  0  0
 11 13  1  0  0  0  0
 11 14  1  0  0  0  0
  9 10  1  0  0  0  0
  9 11  1  0  0  0  0
  9 21  1  0  0  0  0
  7  8  1  0  0  0  0
  7  9  1  0  0  0  0
 25 26  1  0  0  0  0
 25 27  1  0  0  0  0
 25 28  1  0  0  0  0
 23 24  1  0  0  0  0
 23 25  1  0  0  0  0
M  END
$$$$
default_name
  -OEChem-02102213163D

 28 27  0     1  0  0  0  0  0999 V2000
   -3.2133   -3.5565    1.2809 H   0  0  0  0  0  0  0  0  0  0  0  0
   -3.1873   -2.5755    0.8089 C   0  0  0  0  0  0  0  0  0  0  0  0
   -3.8793   -1.9065    1.3169 H   0  0  0  0  0  0  0  0  0  0  0  0
   -3.4623   -2.6685   -0.2401 H   0  0  0  0  0  0  0  0  0  0  0  0
   -1.7863   -2.0195    0.9119 C   0  0  0  0  0  0  0  0  0  0  0  0
   -0.9073   -2.6615    1.4699 O   0  0  0  0  0  0  0  0  0  0  0  0
   -1.5803   -0.8195    0.3749 N   0  0  0  0  0  0  0  0  0  0  0  0
   -2.3603   -0.3345   -0.0451 H   0  0  0  0  0  0  0  0  0  0  0  0
   -0.2933   -0.1205    0.3719 C   0  0  1  0  0  0  0  0  0  0  0  0
    0.3577   -0.5843    1.1143 H   0  0  0  0  0  0  0  0  0  0  0  0
    0.3613   -0.2794   -1.0156 C   0  0  0  0  0  0  0  0  0  0  0  0
   -0.3981   -0.0799   -1.7736 H   0  0  0  0  0  0  0  0  0  0  0  0
    1.1542    0.4616   -1.1264 H   0  0  0  0  0  0  0  0  0  0  0  0
    0.9580   -1.6750   -1.2672 C   0  0  0  0  0  0  0  0  0  0  0  0
    1.5160   -2.0038   -0.3904 H   0  0  0  0  0  0  0  0  0  0  0  0
    0.1503   -2.3799   -1.4607 H   0  0  0  0  0  0  0  0  0  0  0  0
    1.9001   -1.6934   -2.4666 C   0  0  0  0  0  0  0  0  0  0  0  0
    2.0742   -0.7609   -3.2347 O   0  0  0  0  0  0  0  0  0  0  0  0
    2.5628   -2.8478   -2.6657 O   0  0  0  0  0  0  0  0  0  0  0  0
    3.0925   -2.7011   -3.4513 H   0  0  0  0  0  0  0  0  0  0  0  0
   -0.4860    1.3537    0.7622 C   0  0  0  0  0  0  0  0  0  0  0  0
   -1.3956    2.0096    0.2582 O   0  0  0  0  0  0  0  0  0  0  0  0
    0.3741    1.8728    1.6466 N   0  0  0  0  0  0  0  0  0  0  0  0
    1.0814    1.2667    2.0345 H   0  0  0  0  0  0  0  0  0  0  0  0
    0.3380    3.2610    2.1024 C   0  0  0  0  0  0  0  0  0  0  0  0
   -0.6389    3.4820    2.5363 H   0  0  0  0  0  0  0  0  0  0  0  0
    1.1108    3.4337    2.8528 H   0  0  0  0  0  0  0  0  0  0  0  0
    0.5009    3.9312    1.2562 H   0  0  0  0  0  0  0  0  0  0  0  0
  5  6  2  0  0  0  0
  5  7  1  0  0  0  0
  2  3  1  0  0  0  0
  2  4  1  0  0  0  0
  2  5  1  0  0  0  0
  1  2  1  0  0  0  0
 21 22  2  0  0  0  0
 21 23  1  0  0  0  0
 19 20  1  0  0  0  0
 17 18  2  0  0  0  0
 17 19  1  0  0  0  0
 14 15  1  0  0  0  0
 14 16  1  0  0  0  0
 14 17  1  0  0  0  0
 11 12  1  0  0  0  0
 11 13  1  0  0  0  0
 11 14  1  0  0  0  0
  9 10  1  0  0  0  0
  9 11  1  0  0  0  0
  9 21  1  0  0  0  0
  7  8  1  0  0  0  0
  7  9  1  0  0  0  0
 25 26  1  0  0  0  0
 25 27  1  0  0  0  0
 25 28  1  0  0  0  0
 23 24  1  0  0  0  0
 23 25  1  0  0  0  0
M  END
$$$$
default_name
  -OEChem-02102213163D

 28 27  0     1  0  0  0  0  0999 V2000
   -3.2133   -3.5565    1.2809 H   0  0  0  0  0  0  0  0  0  0  0  0
   -3.1873   -2.5755    0.8089 C   0  0  0  0  0  0  0  0  0  0  0  0
   -3.8793   -1.9065    1.3169 H   0  0  0  0  0  0  0  0  0  0  0  0
   -3.4623   -2.6685   -0.2401 H   0  0  0  0  0  0  0  0  0  0  0  0
   -1.7863   -2.0195    0.9119 C   0  0  0  0  0  0  0  0  0  0  0  0
   -0.9073   -2.6615    1.4699 O   0  0  0  0  0  0  0  0  0  0  0  0
   -1.5803   -0.8195    0.3749 N   0  0  0  0  0  0  0  0  0  0  0  0
   -2.3603   -0.3345   -0.0451 H   0  0  0  0  0  0  0  0  0  0  0  0
   -0.2933   -0.1205    0.3719 C   0  0  1  0  0  0  0  0  0  0  0  0
    0.3577   -0.5843    1.1143 H   0  0  0  0  0  0  0  0  0  0  0  0
    0.3613   -0.2794   -1.0156 C   0  0  0  0  0  0  0  0  0  0  0  0
   -0.3981   -0.0799   -1.7736 H   0  0  0  0  0  0  0  0  0  0  0  0
    1.1542    0.4616   -1.1264 H   0  0  0  0  0  0  0  0  0  0  0  0
    0.9580   -1.6750   -1.2672 C   0  0  0  0  0  0  0  0  0  0  0  0
    1.2822   -2.1157   -0.3243 H   0  0  0  0  0  0  0  0  0  0  0  0
    0.1981   -2.3134   -1.7165 H   0  0  0  0  0  0  0  0  0  0  0  0
    2.1564   -1.6301   -2.2096 C   0  0  0  0  0  0  0  0  0  0  0  0
    2.5358   -0.6395   -2.8134 O   0  0  0  0  0  0  0  0  0  0  0  0
    2.8121   -2.7946   -2.3696 O   0  0  0  0  0  0  0  0  0  0  0  0
    3.5171   -2.6027   -2.9905 H   0  0  0  0  0  0  0  0  0  0  0  0
   -0.4860    1.3537    0.7622 C   0  0  0  0  0  0  0  0  0  0  0  0
   -1.3956    2.0096    0.2582 O   0  0  0  0  0  0  0  0  0  0  0  0
    0.3741    1.8728    1.6466 N   0  0  0  0  0  0  0  0  0  0  0  0
    1.0814    1.2667    2.0345 H   0  0  0  0  0  0  0  0  0  0  0  0
    0.3380    3.2610    2.1024 C   0  0  0  0  0  0  0  0  0  0  0  0
   -0.6389    3.4820    2.5363 H   0  0  0  0  0  0  0  0  0  0  0  0
    1.1108    3.4337    2.8528 H   0  0  0  0  0  0  0  0  0  0  0  0
    0.5009    3.9312    1.2562 H   0  0  0  0  0  0  0  0  0  0  0  0
  5  6  2  0  0  0  0
  5  7  1  0  0  0  0
  2  3  1  0  0  0  0
  2  4  1  0  0  0  0
  2  5  1  0  0  0  0
  1  2  1  0  0  0  0
 21 22  2  0  0  0  0
 21 23  1  0  0  0  0
 19 20  1  0  0  0  0
 17 18  2  0  0  0  0
 17 19  1  0  0  0  0
 14 15  1  0  0  0  0
 14 16  1  0  0  0  0
 14 17  1  0  0  0  0
 11 12  1  0  0  0  0
 11 13  1  0  0  0  0
 11 14  1  0  0  0  0
  9 10  1  0  0  0  0
  9 11  1  0  0  0  0
  9 21  1  0  0  0  0
  7  8  1  0  0  0  0
  7  9  1  0  0  0  0
 25 26  1  0  0  0  0
 25 27  1  0  0  0  0
 25 28  1  0  0  0  0
 23 24  1  0  0  0  0
 23 25  1  0  0  0  0
M  END
$$$$
default_name
  -OEChem-02102213163D

 28 27  0     1  0  0  0  0  0999 V2000
   -3.2133   -3.5565    1.2809 H   0  0  0  0  0  0  0  0  0  0  0  0
   -3.1873   -2.5755    0.8089 C   0  0  0  0  0  0  0  0  0  0  0  0
   -3.8793   -1.9065    1.3169 H   0  0  0  0  0  0  0  0  0  0  0  0
   -3.4623   -2.6685   -0.2401 H   0  0  0  0  0  0  0  0  0  0  0  0
   -1.7863   -2.0195    0.9119 C   0  0  0  0  0  0  0  0  0  0  0  0
   -0.9073   -2.6615    1.4699 O   0  0  0  0  0  0  0  0  0  0  0  0
   -1.5803   -0.8195    0.3749 N   0  0  0  0  0  0  0  0  0  0  0  0
   -2.3603   -0.3345   -0.0451 H   0  0  0  0  0  0  0  0  0  0  0  0
   -0.2933   -0.1205    0.3719 C   0  0  1  0  0  0  0  0  0  0  0  0
    0.3577   -0.5843    1.1143 H   0  0  0  0  0  0  0  0  0  0  0  0
    0.3613   -0.2794   -1.0156 C   0  0  0  0  0  0  0  0  0  0  0  0
   -0.3981   -0.0799   -1.7736 H   0  0  0  0  0  0  0  0  0  0  0  0
    1.1542    0.4616   -1.1264 H   0  0  0  0  0  0  0  0  0  0  0  0
    0.9580   -1.6750   -1.2672 C   0  0  0  0  0  0  0  0  0  0  0  0
    1.0360   -2.2205   -0.3267 H   0  0  0  0  0  0  0  0  0  0  0  0
    0.3072   -2.2254   -1.9456 H   0  0  0  0  0  0  0  0  0  0  0  0
    2.3464   -1.6056   -1.8948 C   0  0  0  0  0  0  0  0  0  0  0  0
    2.8879   -0.5841   -2.2860 O   0  0  0  0  0  0  0  0  0  0  0  0
    2.9857   -2.7834   -2.0198 O   0  0  0  0  0  0  0  0  0  0  0  0
    3.8232   -2.5718   -2.4359 H   0  0  0  0  0  0  0  0  0  0  0  0
   -0.4860    1.3537    0.7622 C   0  0  0  0  0  0  0  0  0  0  0  0
   -1.3956    2.0096    0.2582 O   0  0  0  0  0  0  0  0  0  0  0  0
    0.3741    1.8728    1.6466 N   0  0  0  0  0  0  0  0  0  0  0  0
    1.0814    1.2667    2.0345 H   0  0  0  0  0  0  0  0  0  0  0  0
    0.3380    3.2610    2.1024 C   0  0  0  0  0  0  0  0  0  0  0  0
   -0.6389    3.4820    2.5363 H   0  0  0  0  0  0  0  0  0  0  0  0
    1.1108    3.4337    2.8528 H   0  0  0  0  0  0  0  0  0  0  0  0
    0.5009    3.9312    1.2562 H   0  0  0  0  0  0  0  0  0  0  0  0
  5  6  2  0  0  0  0
  5  7  1  0  0  0  0
  2  3  1  0  0  0  0
  2  4  1  0  0  0  0
  2  5  1  0  0  0  0
  1  2  1  0  0  0  0
 21 22  2  0  0  0  0
 21 23  1  0  0  0  0
 19 20  1  0  0  0  0
 17 18  2  0  0  0  0
 17 19  1  0  0  0  0
 14 15  1  0  0  0  0
 14 16  1  0  0  0  0
 14 17  1  0  0  0  0
 11 12  1  0  0  0  0
 11 13  1  0  0  0  0
 11 14  1  0  0  0  0
  9 10  1  0  0  0  0
  9 11  1  0  0  0  0
  9 21  1  0  0  0  0
  7  8  1  0  0  0  0
  7  9  1  0  0  0  0
 25 26  1  0  0  0  0
 25 27  1  0  0  0  0
 25 28  1  0  0  0  0
 23 24  1  0  0  0  0
 23 25  1  0  0  0  0
M  END
$$$$
default_name
  -OEChem-02102213163D

 28 27  0     1  0  0  0  0  0999 V2000
   -3.2133   -3.5565    1.2809 H   0  0  0  0  0  0  0  0  0  0  0  0
   -3.1873   -2.5755    0.8089 C   0  0  0  0  0  0  0  0  0  0  0  0
   -3.8793   -1.9065    1.3169 H   0  0  0  0  0  0  0  0  0  0  0  0
   -3.4623   -2.6685   -0.2401 H   0  0  0  0  0  0  0  0  0  0  0  0
   -1.7863   -2.0195    0.9119 C   0  0  0  0  0  0  0  0  0  0  0  0
   -0.9073   -2.6615    1.4699 O   0  0  0  0  0  0  0  0  0  0  0  0
   -1.5803   -0.8195    0.3749 N   0  0  0  0  0  0  0  0  0  0  0  0
   -2.3603   -0.3345   -0.0451 H   0  0  0  0  0  0  0  0  0  0  0  0
   -0.2933   -0.1205    0.3719 C   0  0  1  0  0  0  0  0  0  0  0  0
    0.3577   -0.5843    1.1143 H   0  0  0  0  0  0  0  0  0  0  0  0
    0.3613   -0.2794   -1.0156 C   0  0  0  0  0  0  0  0  0  0  0  0
   -0.3981   -0.0799   -1.7736 H   0  0  0  0  0  0  0  0  0  0  0  0
    1.1542    0.4616   -1.1264 H   0  0  0  0  0  0  0  0  0  0  0  0
    0.9580   -1.6750   -1.2672 C   0  0  0  0  0  0  0  0  0  0  0  0
    0.7944   -2.3111   -0.3972 H   0  0  0  0  0  0  0  0  0  0  0  0
    0.4701   -2.1221   -2.1325 H   0  0  0  0  0  0  0  0  0  0  0  0
    2.4570   -1.6216   -1.5437 C   0  0  0  0  0  0  0  0  0  0  0  0
    3.1065   -0.5984   -1.6882 O   0  0  0  0  0  0  0  0  0  0  0  0
    3.0717   -2.8152   -1.6400 O   0  0  0  0  0  0  0  0  0  0  0  0
    3.9899   -2.6106   -1.8252 H   0  0  0  0  0  0  0  0  0  0  0  0
   -0.4860    1.3537    0.7622 C   0  0  0  0  0  0  0  0  0  0  0  0
   -1.3956    2.0096    0.2582 O   0  0  0  0  0  0  0  0  0  0  0  0
    0.3741    1.8728    1.6466 N   0  0  0  0  0  0  0  0  0  0  0  0
    1.0814    1.2667    2.0345 H   0  0  0  0  0  0  0  0  0  0  0  0
    0.3380    3.2610    2.1024 C   0  0  0  0  0  0  0  0  0  0  0  0
   -0.6389    3.4820    2.5363 H   0  0  0  0  0  0  0  0  0  0  0  0
    1.1108    3.4337    2.8528 H   0  0  0  0  0  0  0  0  0  0  0  0
    0.5009    3.9312    1.2562 H   0  0  0  0  0  0  0  0  0  0  0  0
  5  6  2  0  0  0  0
  5  7  1  0  0  0  0
  2  3  1  0  0  0  0
  2  4  1  0  0  0  0
  2  5  1  0  0  0  0
  1  2  1  0  0  0  0
 21 22  2  0  0  0  0
 21 23  1  0  0  0  0
 19 20  1  0  0  0  0
 17 18  2  0  0  0  0
 17 19  1  0  0  0  0
 14 15  1  0  0  0  0
 14 16  1  0  0  0  0
 14 17  1  0  0  0  0
 11 12  1  0  0  0  0
 11 13  1  0  0  0  0
 11 14  1  0  0  0  0
  9 10  1  0  0  0  0
  9 11  1  0  0  0  0
  9 21  1  0  0  0  0
  7  8  1  0  0  0  0
  7  9  1  0  0  0  0
 25 26  1  0  0  0  0
 25 27  1  0  0  0  0
 25 28  1  0  0  0  0
 23 24  1  0  0  0  0
 23 25  1  0  0  0  0
M  END
$$$$
default_name
  -OEChem-02102213163D

 28 27  0     1  0  0  0  0  0999 V2000
   -3.2133   -3.5565    1.2809 H   0  0  0  0  0  0  0  0  0  0  0  0
   -3.1873   -2.5755    0.8089 C   0  0  0  0  0  0  0  0  0  0  0  0
   -3.8793   -1.9065    1.3169 H   0  0  0  0  0  0  0  0  0  0  0  0
   -3.4623   -2.6685   -0.2401 H   0  0  0  0  0  0  0  0  0  0  0  0
   -1.7863   -2.0195    0.9119 C   0  0  0  0  0  0  0  0  0  0  0  0
   -0.9073   -2.6615    1.4699 O   0  0  0  0  0  0  0  0  0  0  0  0
   -1.5803   -0.8195    0.3749 N   0  0  0  0  0  0  0  0  0  0  0  0
   -2.3603   -0.3345   -0.0451 H   0  0  0  0  0  0  0  0  0  0  0  0
   -0.2933   -0.1205    0.3719 C   0  0  1  0  0  0  0  0  0  0  0  0
    0.3577   -0.5843    1.1143 H   0  0  0  0  0  0  0  0  0  0  0  0
    0.3613   -0.2794   -1.0156 C   0  0  0  0  0  0  0  0  0  0  0  0
   -0.3981   -0.0799   -1.7736 H   0  0  0  0  0  0  0  0  0  0  0  0
    1.1542    0.4616   -1.1264 H   0  0  0  0  0  0  0  0  0  0  0  0
    0.9580   -1.6750   -1.2672 C   0  0  0  0  0  0  0  0  0  0  0  0
    0.5737   -2.3813   -0.5312 H   0  0  0  0  0  0  0  0  0  0  0  0
    0.6757   -2.0104   -2.2645 H   0  0  0  0  0  0  0  0  0  0  0  0
    2.4808   -1.6770   -1.1802 C   0  0  0  0  0  0  0  0  0  0  0  0
    3.1768   -0.6814   -1.0610 O   0  0  0  0  0  0  0  0  0  0  0  0
    3.0643   -2.8875   -1.2562 O   0  0  0  0  0  0  0  0  0  0  0  0
    4.0060   -2.7165   -1.2001 H   0  0  0  0  0  0  0  0  0  0  0  0
   -0.4860    1.3537    0.7622 C   0  0  0  0  0  0  0  0  0  0  0  0
   -1.3956    2.0096    0.2582 O   0  0  0  0  0  0  0  0  0  0  0  0
    0.3741    1.8728    1.6466 N   0  0  0  0  0  0  0  0  0  0  0  0
    1.0814    1.2667    2.0345 H   0  0  0  0  0  0  0  0  0  0  0  0
    0.3380    3.2610    2.1024 C   0  0  0  0  0  0  0  0  0  0  0  0
   -0.6389    3.4820    2.5363 H   0  0  0  0  0  0  0  0  0  0  0  0
    1.1108    3.4337    2.8528 H   0  0  0  0  0  0  0  0  0  0  0  0
    0.5009    3.9312    1.2562 H   0  0  0  0  0  0  0  0  0  0  0  0
  5  6  2  0  0  0  0
  5  7  1  0  0  0  0
  2  3  1  0  0  0  0
  2  4  1  0  0  0  0
  2  5  1  0  0  0  0
  1  2  1  0  0  0  0
 21 22  2  0  0  0  0
 21 23  1  0  0  0  0
 19 20  1  0  0  0  0
 17 18  2  0  0  0  0
 17 19  1  0  0  0  0
 14 15  1  0  0  0  0
 14 16  1  0  0  0  0
 14 17  1  0  0  0  0
 11 12  1  0  0  0  0
 11 13  1  0  0  0  0
 11 14  1  0  0  0  0
  9 10  1  0  0  0  0
  9 11  1  0  0  0  0
  9 21  1  0  0  0  0
  7  8  1  0  0  0  0
  7  9  1  0  0  0  0
 25 26  1  0  0  0  0
 25 27  1  0  0  0  0
 25 28  1  0  0  0  0
 23 24  1  0  0  0  0
 23 25  1  0  0  0  0
M  END
$$$$
default_name
  -OEChem-02102213163D

 28 27  0     1  0  0  0  0  0999 V2000
   -3.2133   -3.5565    1.2809 H   0  0  0  0  0  0  0  0  0  0  0  0
   -3.1873   -2.5755    0.8089 C   0  0  0  0  0  0  0  0  0  0  0  0
   -3.8793   -1.9065    1.3169 H   0  0  0  0  0  0  0  0  0  0  0  0
   -3.4623   -2.6685   -0.2401 H   0  0  0  0  0  0  0  0  0  0  0  0
   -1.7863   -2.0195    0.9119 C   0  0  0  0  0  0  0  0  0  0  0  0
   -0.9073   -2.6615    1.4699 O   0  0  0  0  0  0  0  0  0  0  0  0
   -1.5803   -0.8195    0.3749 N   0  0  0  0  0  0  0  0  0  0  0  0
   -2.3603   -0.3345   -0.0451 H   0  0  0  0  0  0  0  0  0  0  0  0
   -0.2933   -0.1205    0.3719 C   0  0  1  0  0  0  0  0  0  0  0  0
    0.3577   -0.5843    1.1143 H   0  0  0  0  0  0  0  0  0  0  0  0
    0.3613   -0.2794   -1.0156 C   0  0  0  0  0  0  0  0  0  0  0  0
   -0.3981   -0.0799   -1.7736 H   0  0  0  0  0  0  0  0  0  0  0  0
    1.1542    0.4616   -1.1264 H   0  0  0  0  0  0  0  0  0  0  0  0
    0.9580   -1.6750   -1.2672 C   0  0  0  0  0  0  0  0  0  0  0  0
    0.3890   -2.4263   -0.7194 H   0  0  0  0  0  0  0  0  0  0  0  0
    0.9100   -1.8980   -2.3324 H   0  0  0  0  0  0  0  0  0  0  0  0
    2.4160   -1.7680   -0.8291 C   0  0  0  0  0  0  0  0  0  0  0  0
    3.0938   -0.8276   -0.4469 O   0  0  0  0  0  0  0  0  0  0  0  0
    2.9639   -2.9957   -0.8945 O   0  0  0  0  0  0  0  0  0  0  0  0
    3.8703   -2.8821   -0.6031 H   0  0  0  0  0  0  0  0  0  0  0  0
   -0.4860    1.3537    0.7622 C   0  0  0  0  0  0  0  0  0  0  0  0
   -1.3956    2.0096    0.2582 O   0  0  0  0  0  0  0  0  0  0  0  0
    0.3741    1.8728    1.6466 N   0  0  0  0  0  0  0  0  0  0  0  0
    1.0814    1.2667    2.0345 H   0  0  0  0  0  0  0  0  0  0  0  0
    0.3380    3.2610    2.1024 C   0  0  0  0  0  0  0  0  0  0  0  0
   -0.6389    3.4820    2.5363 H   0  0  0  0  0  0  0  0  0  0  0  0
    1.1108    3.4337    2.8528 H   0  0  0  0  0  0  0  0  0  0  0  0
    0.5009    3.9312    1.2562 H   0  0  0  0  0  0  0  0  0  0  0  0
  5  6  2  0  0  0  0
  5  7  1  0  0  0  0
  2  3  1  0  0  0  0
  2  4  1  0  0  0  0
  2  5  1  0  0  0  0
  1  2  1  0  0  0  0
 21 22  2  0  0  0  0
 21 23  1  0  0  0  0
 19 20  1  0  0  0  0
 17 18  2  0  0  0  0
 17 19  1  0  0  0  0
 14 15  1  0  0  0  0
 14 16  1  0  0  0  0
 14 17  1  0  0  0  0
 11 12  1  0  0  0  0
 11 13  1  0  0  0  0
 11 14  1  0  0  0  0
  9 10  1  0  0  0  0
  9 11  1  0  0  0  0
  9 21  1  0  0  0  0
  7  8  1  0  0  0  0
  7  9  1  0  0  0  0
 25 26  1  0  0  0  0
 25 27  1  0  0  0  0
 25 28  1  0  0  0  0
 23 24  1  0  0  0  0
 23 25  1  0  0  0  0
M  END
$$$$
default_name
  -OEChem-02102213163D

 28 27  0     1  0  0  0  0  0999 V2000
   -3.2133   -3.5565    1.2809 H   0  0  0  0  0  0  0  0  0  0  0  0
   -3.1873   -2.5755    0.8089 C   0  0  0  0  0  0  0  0  0  0  0  0
   -3.8793   -1.9065    1.3169 H   0  0  0  0  0  0  0  0  0  0  0  0
   -3.4623   -2.6685   -0.2401 H   0  0  0  0  0  0  0  0  0  0  0  0
   -1.7863   -2.0195    0.9119 C   0  0  0  0  0  0  0  0  0  0  0  0
   -0.9073   -2.6615    1.4699 O   0  0  0  0  0  0  0  0  0  0  0  0
   -1.5803   -0.8195    0.3749 N   0  0  0  0  0  0  0  0  0  0  0  0
   -2.3603   -0.3345   -0.0451 H   0  0  0  0  0  0  0  0  0  0  0  0
   -0.2933   -0.1205    0.3719 C   0  0  1  0  0  0  0  0  0  0  0  0
    0.3577   -0.5843    1.1143 H   0  0  0  0  0  0  0  0  0  0  0  0
    0.3613   -0.2794   -1.0156 C   0  0  0  0  0  0  0  0  0  0  0  0
   -0.3981   -0.0799   -1.7736 H   0  0  0  0  0  0  0  0  0  0  0  0
    1.1542    0.4616   -1.1264 H   0  0  0  0  0  0  0  0  0  0  0  0
    0.9580   -1.6750   -1.2672 C   0  0  0  0  0  0  0  0  0  0  0  0
    0.2529   -2.4431   -0.9492 H   0  0  0  0  0  0  0  0  0  0  0  0
    1.1570   -1.7925   -2.3318 H   0  0  0  0  0  0  0  0  0  0  0  0
    2.2672   -1.8884   -0.5143 C   0  0  0  0  0  0  0  0  0  0  0  0
    2.8634   -1.0269    0.1121 O   0  0  0  0  0  0  0  0  0  0  0  0
    2.7774   -3.1322   -0.5795 O   0  0  0  0  0  0  0  0  0  0  0  0
    3.5920   -3.0964   -0.0749 H   0  0  0  0  0  0  0  0  0  0  0  0
   -0.4860    1.3537    0.7622 C   0  0  0  0  0  0  0  0  0  0  0  0
   -1.3956    2.0096    0.2582 O   0  0  0  0  0  0  0  0  0  0  0  0
    0.3741    1.8728    1.6466 N   0  0  0  0  0  0  0  0  0  0  0  0
    1.0814    1.2667    2.0345 H   0  0  0  0  0  0  0  0  0  0  0  0
    0.3380    3.2610    2.1024 C   0  0  0  0  0  0  0  0  0  0  0  0
   -0.6389    3.4820    2.5363 H   0  0  0  0  0  0  0  0  0  0  0  0
    1.1108    3.4337    2.8528 H   0  0  0  0  0  0  0  0  0  0  0  0
    0.5009    3.9312    1.2562 H   0  0  0  0  0  0  0  0  0  0  0  0
  5  6  2  0  0  0  0
  5  7  1  0  0  0  0
  2  3  1  0  0  0  0
  2  4  1  0  0  0  0
  2  5  1  0  0  0  0
  1  2  1  0  0  0  0
 21 22  2  0  0  0  0
 21 23  1  0  0  0  0
 19 20  1  0  0  0  0
 17 18  2  0  0  0  0
 17 19  1  0  0  0  0
 14 15  1  0  0  0  0
 14 16  1  0  0  0  0
 14 17  1  0  0  0  0
 11 12  1  0  0  0  0
 11 13  1  0  0  0  0
 11 14  1  0  0  0  0
  9 10  1  0  0  0  0
  9 11  1  0  0  0  0
  9 21  1  0  0  0  0
  7  8  1  0  0  0  0
  7  9  1  0  0  0  0
 25 26  1  0  0  0  0
 25 27  1  0  0  0  0
 25 28  1  0  0  0  0
 23 24  1  0  0  0  0
 23 25  1  0  0  0  0
M  END
$$$$
default_name
  -OEChem-02102213163D

 28 27  0     1  0  0  0  0  0999 V2000
   -3.2133   -3.5565    1.2809 H   0  0  0  0  0  0  0  0  0  0  0  0
   -3.1873   -2.5755    0.8089 C   0  0  0  0  0  0  0  0  0  0  0  0
   -3.8793   -1.9065    1.3169 H   0  0  0  0  0  0  0  0  0  0  0  0
   -3.4623   -2.6685   -0.2401 H   0  0  0  0  0  0  0  0  0  0  0  0
   -1.7863   -2.0195    0.9119 C   0  0  0  0  0  0  0  0  0  0  0  0
   -0.9073   -2.6615    1.4699 O   0  0  0  0  0  0  0  0  0  0  0  0
   -1.5803   -0.8195    0.3749 N   0  0  0  0  0  0  0  0  0  0  0  0
   -2.3603   -0.3345   -0.0451 H   0  0  0  0  0  0  0  0  0  0  0  0
   -0.2933   -0.1205    0.3719 C   0  0  1  0  0  0  0  0  0  0  0  0
    0.3577   -0.5843    1.1143 H   0  0  0  0  0  0  0  0  0  0  0  0
    0.3613   -0.2794   -1.0156 C   0  0  0  0  0  0  0  0  0  0  0  0
   -0.3981   -0.0799   -1.7736 H   0  0  0  0  0  0  0  0  0  0  0  0
    1.1542    0.4616   -1.1264 H   0  0  0  0  0  0  0  0  0  0  0  0
    0.9580   -1.6750   -1.2672 C   0  0  0  0  0  0  0  0  0  0  0  0
    0.1746   -2.4305   -1.2047 H   0  0  0  0  0  0  0  0  0  0  0  0
    1.3999   -1.7011   -2.2625 H   0  0  0  0  0  0  0  0  0  0  0  0
    2.0444   -2.0300   -0.2572 C   0  0  0  0  0  0  0  0  0  0  0  0
    2.5011   -1.2658    0.5779 O   0  0  0  0  0  0  0  0  0  0  0  0
    2.5176   -3.2878   -0.3327 O   0  0  0  0  0  0  0  0  0  0  0  0
    3.1901   -3.3445    0.3484 H   0  0  0  0  0  0  0  0  0  0  0  0
   -0.4860    1.3537    0.7622 C   0  0  0  0  0  0  0  0  0  0  0  0
   -1.3956    2.0096    0.2582 O   0  0  0  0  0  0  0  0  0  0  0  0
    0.3741    1.8728    1.6466 N   0  0  0  0  0  0  0  0  0  0  0  0
    1.0814    1.2667    2.0345 H   0  0  0  0  0  0  0  0  0  0  0  0
    0.3380    3.2610    2.1024 C   0  0  0  0  0  0  0  0  0  0  0  0
   -0.6389    3.4820    2.5363 H   0  0  0  0  0  0  0  0  0  0  0  0
    1.1108    3.4337    2.8528 H   0  0  0  0  0  0  0  0  0  0  0  0
    0.5009    3.9312    1.2562 H   0  0  0  0  0  0  0  0  0  0  0  0
  5  6  2  0  0  0  0
  5  7  1  0  0  0  0
  2  3  1  0  0  0  0
  2  4  1  0  0  0  0
  2  5  1  0  0  0  0
  1  2  1  0  0  0  0
 21 22  2  0  0  0  0
 21 23  1  0  0  0  0
 19 20  1  0  0  0  0
 17 18  2  0  0  0  0
 17 19  1  0  0  0  0
 14 15  1  0  0  0  0
 14 16  1  0  0  0  0
 14 17  1  0  0  0  0
 11 12  1  0  0  0  0
 11 13  1  0  0  0  0
 11 14  1  0  0  0  0
  9 10  1  0  0  0  0
  9 11  1  0  0  0  0
  9 21  1  0  0  0  0
  7  8  1  0  0  0  0
  7  9  1  0  0  0  0
 25 26  1  0  0  0  0
 25 27  1  0  0  0  0
 25 28  1  0  0  0  0
 23 24  1  0  0  0  0
 23 25  1  0  0  0  0
M  END
$$$$
default_name
  -OEChem-02102213163D

 28 27  0     1  0  0  0  0  0999 V2000
   -3.2133   -3.5565    1.2809 H   0  0  0  0  0  0  0  0  0  0  0  0
   -3.1873   -2.5755    0.8089 C   0  0  0  0  0  0  0  0  0  0  0  0
   -3.8793   -1.9065    1.3169 H   0  0  0  0  0  0  0  0  0  0  0  0
   -3.4623   -2.6685   -0.2401 H   0  0  0  0  0  0  0  0  0  0  0  0
   -1.7863   -2.0195    0.9119 C   0  0  0  0  0  0  0  0  0  0  0  0
   -0.9073   -2.6615    1.4699 O   0  0  0  0  0  0  0  0  0  0  0  0
   -1.5803   -0.8195    0.3749 N   0  0  0  0  0  0  0  0  0  0  0  0
   -2.3603   -0.3345   -0.0451 H   0  0  0  0  0  0  0  0  0  0  0  0
   -0.2933   -0.1205    0.3719 C   0  0  1  0  0  0  0  0  0  0  0  0
    0.3577   -0.5843    1.1143 H   0  0  0  0  0  0  0  0  0  0  0  0
    0.3613   -0.2794   -1.0156 C   0  0  0  0  0  0  0  0  0  0  0  0
   -0.3981   -0.0799   -1.7736 H   0  0  0  0  0  0  0  0  0  0  0  0
    1.1542    0.4616   -1.1264 H   0  0  0  0  0  0  0  0  0  0  0  0
    0.9580   -1.6750   -1.2672 C   0  0  0  0  0  0  0  0  0  0  0  0
    0.1596   -2.3893   -1.4687 H   0  0  0  0  0  0  0  0  0  0  0  0
    1.6222   -1.6300   -2.1295 H   0  0  0  0  0  0  0  0  0  0  0  0
    1.7629   -2.1831   -0.0754 C   0  0  0  0  0  0  0  0  0  0  0  0
    2.0316   -1.5280    0.9188 O   0  0  0  0  0  0  0  0  0  0  0  0
    2.2021   -3.4519   -0.1709 O   0  0  0  0  0  0  0  0  0  0  0  0
    2.6920   -3.6097    0.6380 H   0  0  0  0  0  0  0  0  0  0  0  0
   -0.4860    1.3537    0.7622 C   0  0  0  0  0  0  0  0  0  0  0  0
   -1.3956    2.0096    0.2582 O   0  0  0  0  0  0  0  0  0  0  0  0
    0.3741    1.8728    1.6466 N   0  0  0  0  0  0  0  0  0  0  0  0
    1.0814    1.2667    2.0345 H   0  0  0  0  0  0  0  0  0  0  0  0
    0.3380    3.2610    2.1024 C   0  0  0  0  0  0  0  0  0  0  0  0
   -0.6389    3.4820    2.5363 H   0  0  0  0  0  0  0  0  0  0  0  0
    1.1108    3.4337    2.8528 H   0  0  0  0  0  0  0  0  0  0  0  0
    0.5009    3.9312    1.2562 H   0  0  0  0  0  0  0  0  0  0  0  0
  5  6  2  0  0  0  0
  5  7  1  0  0  0  0
  2  3  1  0  0  0  0
  2  4  1  0  0  0  0
  2  5  1  0  0  0  0
  1  2  1  0  0  0  0
 21 22  2  0  0  0  0
 21 23  1  0  0  0  0
 19 20  1  0  0  0  0
 17 18  2  0  0  0  0
 17 19  1  0  0  0  0
 14 15  1  0  0  0  0
 14 16  1  0  0  0  0
 14 17  1  0  0  0  0
 11 12  1  0  0  0  0
 11 13  1  0  0  0  0
 11 14  1  0  0  0  0
  9 10  1  0  0  0  0
  9 11  1  0  0  0  0
  9 21  1  0  0  0  0
  7  8  1  0  0  0  0
  7  9  1  0  0  0  0
 25 26  1  0  0  0  0
 25 27  1  0  0  0  0
 25 28  1  0  0  0  0
 23 24  1  0  0  0  0
 23 25  1  0  0  0  0
M  END
$$$$
default_name
  -OEChem-02102213163D

 28 27  0     1  0  0  0  0  0999 V2000
   -3.2133   -3.5565    1.2809 H   0  0  0  0  0  0  0  0  0  0  0  0
   -3.1873   -2.5755    0.8089 C   0  0  0  0  0  0  0  0  0  0  0  0
   -3.8793   -1.9065    1.3169 H   0  0  0  0  0  0  0  0  0  0  0  0
   -3.4623   -2.6685   -0.2401 H   0  0  0  0  0  0  0  0  0  0  0  0
   -1.7863   -2.0195    0.9119 C   0  0  0  0  0  0  0  0  0  0  0  0
   -0.9073   -2.6615    1.4699 O   0  0  0  0  0  0  0  0  0  0  0  0
   -1.5803   -0.8195    0.3749 N   0  0  0  0  0  0  0  0  0  0  0  0
   -2.3603   -0.3345   -0.0451 H   0  0  0  0  0  0  0  0  0  0  0  0
   -0.2933   -0.1205    0.3719 C   0  0  1  0  0  0  0  0  0  0  0  0
    0.3577   -0.5843    1.1143 H   0  0  0  0  0  0  0  0  0  0  0  0
    0.3613   -0.2794   -1.0156 C   0  0  0  0  0  0  0  0  0  0  0  0
   -0.3981   -0.0799   -1.7736 H   0  0  0  0  0  0  0  0  0  0  0  0
    1.1542    0.4616   -1.1264 H   0  0  0  0  0  0  0  0  0  0  0  0
    0.9580   -1.6750   -1.2672 C   0  0  0  0  0  0  0  0  0  0  0  0
    0.2088   -2.3224   -1.7230 H   0  0  0  0  0  0  0  0  0  0  0  0
    1.8086   -1.5842   -1.9416 H   0  0  0  0  0  0  0  0  0  0  0  0
    1.4418   -2.3374    0.0187 C   0  0  0  0  0  0  0  0  0  0  0  0
    1.4871   -1.7956    1.1115 O   0  0  0  0  0  0  0  0  0  0  0  0
    1.8524   -3.6132   -0.1052 O   0  0  0  0  0  0  0  0  0  0  0  0
    2.1317   -3.8738    0.7742 H   0  0  0  0  0  0  0  0  0  0  0  0
   -0.4860    1.3537    0.7622 C   0  0  0  0  0  0  0  0  0  0  0  0
   -1.3956    2.0096    0.2582 O   0  0  0  0  0  0  0  0  0  0  0  0
    0.3741    1.8728    1.6466 N   0  0  0  0  0  0  0  0  0  0  0  0
    1.0814    1.2667    2.0345 H   0  0  0  0  0  0  0  0  0  0  0  0
    0.3380    3.2610    2.1024 C   0  0  0  0  0  0  0  0  0  0  0  0
   -0.6389    3.4820    2.5363 H   0  0  0  0  0  0  0  0  0  0  0  0
    1.1108    3.4337    2.8528 H   0  0  0  0  0  0  0  0  0  0  0  0
    0.5009    3.9312    1.2562 H   0  0  0  0  0  0  0  0  0  0  0  0
  5  6  2  0  0  0  0
  5  7  1  0  0  0  0
  2  3  1  0  0  0  0
  2  4  1  0  0  0  0
  2  5  1  0  0  0  0
  1  2  1  0  0  0  0
 21 22  2  0  0  0  0
 21 23  1  0  0  0  0
 19 20  1  0  0  0  0
 17 18  2  0  0  0  0
 17 19  1  0  0  0  0
 14 15  1  0  0  0  0
 14 16  1  0  0  0  0
 14 17  1  0  0  0  0
 11 12  1  0  0  0  0
 11 13  1  0  0  0  0
 11 14  1  0  0  0  0
  9 10  1  0  0  0  0
  9 11  1  0  0  0  0
  9 21  1  0  0  0  0
  7  8  1  0  0  0  0
  7  9  1  0  0  0  0
 25 26  1  0  0  0  0
 25 27  1  0  0  0  0
 25 28  1  0  0  0  0
 23 24  1  0  0  0  0
 23 25  1  0  0  0  0
M  END
$$$$
default_name
  -OEChem-02102213163D

 28 27  0     1  0  0  0  0  0999 V2000
   -3.2133   -3.5565    1.2809 H   0  0  0  0  0  0  0  0  0  0  0  0
   -3.1873   -2.5755    0.8089 C   0  0  0  0  0  0  0  0  0  0  0  0
   -3.8793   -1.9065    1.3169 H   0  0  0  0  0  0  0  0  0  0  0  0
   -3.4623   -2.6685   -0.2401 H   0  0  0  0  0  0  0  0  0  0  0  0
   -1.7863   -2.0195    0.9119 C   0  0  0  0  0  0  0  0  0  0  0  0
   -0.9073   -2.6615    1.4699 O   0  0  0  0  0  0  0  0  0  0  0  0
   -1.5803   -0.8195    0.3749 N   0  0  0  0  0  0  0  0  0  0  0  0
   -2.3603   -0.3345   -0.0451 H   0  0  0  0  0  0  0  0  0  0  0  0
   -0.2933   -0.1205    0.3719 C   0  0  1  0  0  0  0  0  0  0  0  0
    0.3577   -0.5843    1.1143 H   0  0  0  0  0  0  0  0  0  0  0  0
    0.3613   -0.2794   -1.0156 C   0  0  0  0  0  0  0  0  0  0  0  0
   -0.3981   -0.0799   -1.7736 H   0  0  0  0  0  0  0  0  0  0  0  0
    1.1542    0.4616   -1.1264 H   0  0  0  0  0  0  0  0  0  0  0  0
    0.9580   -1.6750   -1.2672 C   0  0  0  0  0  0  0  0  0  0  0  0
    0.3188   -2.2344   -1.9504 H   0  0  0  0  0  0  0  0  0  0  0  0
    1.9465   -1.5667   -1.7118 H   0  0  0  0  0  0  0  0  0  0  0  0
    1.1030   -2.4823    0.0188 C   0  0  0  0  0  0  0  0  0  0  0  0
    0.9045   -2.0503    1.1430 O   0  0  0  0  0  0  0  0  0  0  0  0
    1.4924   -3.7609   -0.1400 O   0  0  0  0  0  0  0  0  0  0  0  0
    1.5474   -4.1189    0.7477 H   0  0  0  0  0  0  0  0  0  0  0  0
   -0.4860    1.3537    0.7622 C   0  0  0  0  0  0  0  0  0  0  0  0
   -1.3956    2.0096    0.2582 O   0  0  0  0  0  0  0  0  0  0  0  0
    0.3741    1.8728    1.6466 N   0  0  0  0  0  0  0  0  0  0  0  0
    1.0814    1.2667    2.0345 H   0  0  0  0  0  0  0  0  0  0  0  0
    0.3380    3.2610    2.1024 C   0  0  0  0  0  0  0  0  0  0  0  0
   -0.6389    3.4820    2.5363 H   0  0  0  0  0  0  0  0  0  0  0  0
    1.1108    3.4337    2.8528 H   0  0  0  0  0  0  0  0  0  0  0  0
    0.5009    3.9312    1.2562 H   0  0  0  0  0  0  0  0  0  0  0  0
  5  6  2  0  0  0  0
  5  7  1  0  0  0  0
  2  3  1  0  0  0  0
  2  4  1  0  0  0  0
  2  5  1  0  0  0  0
  1  2  1  0  0  0  0
 21 22  2  0  0  0  0
 21 23  1  0  0  0  0
 19 20  1  0  0  0  0
 17 18  2  0  0  0  0
 17 19  1  0  0  0  0
 14 15  1  0  0  0  0
 14 16  1  0  0  0  0
 14 17  1  0  0  0  0
 11 12  1  0  0  0  0
 11 13  1  0  0  0  0
 11 14  1  0  0  0  0
  9 10  1  0  0  0  0
  9 11  1  0  0  0  0
  9 21  1  0  0  0  0
  7  8  1  0  0  0  0
  7  9  1  0  0  0  0
 25 26  1  0  0  0  0
 25 27  1  0  0  0  0
 25 28  1  0  0  0  0
 23 24  1  0  0  0  0
 23 25  1  0  0  0  0
M  END
$$$$
default_name
  -OEChem-02102213163D

 28 27  0     1  0  0  0  0  0999 V2000
   -3.2133   -3.5565    1.2809 H   0  0  0  0  0  0  0  0  0  0  0  0
   -3.1873   -2.5755    0.8089 C   0  0  0  0  0  0  0  0  0  0  0  0
   -3.8793   -1.9065    1.3169 H   0  0  0  0  0  0  0  0  0  0  0  0
   -3.4623   -2.6685   -0.2401 H   0  0  0  0  0  0  0  0  0  0  0  0
   -1.7863   -2.0195    0.9119 C   0  0  0  0  0  0  0  0  0  0  0  0
   -0.9073   -2.6615    1.4699 O   0  0  0  0  0  0  0  0  0  0  0  0
   -1.5803   -0.8195    0.3749 N   0  0  0  0  0  0  0  0  0  0  0  0
   -2.3603   -0.3345   -0.0451 H   0  0  0  0  0  0  0  0  0  0  0  0
   -0.2933   -0.1205    0.3719 C   0  0  1  0  0  0  0  0  0  0  0  0
    0.3577   -0.5843    1.1143 H   0  0  0  0  0  0  0  0  0  0  0  0
    0.3613   -0.2794   -1.0156 C   0  0  0  0  0  0  0  0  0  0  0  0
   -0.3981   -0.0799   -1.7736 H   0  0  0  0  0  0  0  0  0  0  0  0
    1.1542    0.4616   -1.1264 H   0  0  0  0  0  0  0  0  0  0  0  0
    0.9580   -1.6750   -1.2672 C   0  0  0  0  0  0  0  0  0  0  0  0
    0.4822   -2.1312   -2.1354 H   0  0  0  0  0  0  0  0  0  0  0  0
    2.0266   -1.5786   -1.4557 H   0  0  0  0  0  0  0  0  0  0  0  0
    0.7696   -2.6079   -0.0752 C   0  0  0  0  0  0  0  0  0  0  0  0
    0.3236   -2.2749    1.0111 O   0  0  0  0  0  0  0  0  0  0  0  0
    1.1466   -3.8847   -0.2730 O   0  0  0  0  0  0  0  0  0  0  0  0
    0.9787   -4.3282    0.5603 H   0  0  0  0  0  0  0  0  0  0  0  0
   -0.4860    1.3537    0.7622 C   0  0  0  0  0  0  0  0  0  0  0  0
   -1.3956    2.0096    0.2582 O   0  0  0  0  0  0  0  0  0  0  0  0
    0.3741    1.8728    1.6466 N   0  0  0  0  0  0  0  0  0  0  0  0
    1.0814    1.2667    2.0345 H   0  0  0  0  0  0  0  0  0  0  0  0
    0.3380    3.2610    2.1024 C   0  0  0  0  0  0  0  0  0  0  0  0
   -0.6389    3.4820    2.5363 H   0  0  0  0  0  0  0  0  0  0  0  0
    1.1108    3.4337    2.8528 H   0  0  0  0  0  0  0  0  0  0  0  0
    0.5009    3.9312    1.2562 H   0  0  0  0  0  0  0  0  0  0  0  0
  5  6  2  0  0  0  0
  5  7  1  0  0  0  0
  2  3  1  0  0  0  0
  2  4  1  0  0  0  0
  2  5  1  0  0  0  0
  1  2  1  0  0  0  0
 21 22  2  0  0  0  0
 21 23  1  0  0  0  0
 19 20  1  0  0  0  0
 17 18  2  0  0  0  0
 17 19  1  0  0  0  0
 14 15  1  0  0  0  0
 14 16  1  0  0  0  0
 14 17  1  0  0  0  0
 11 12  1  0  0  0  0
 11 13  1  0  0  0  0
 11 14  1  0  0  0  0
  9 10  1  0  0  0  0
  9 11  1  0  0  0  0
  9 21  1  0  0  0  0
  7  8  1  0  0  0  0
  7  9  1  0  0  0  0
 25 26  1  0  0  0  0
 25 27  1  0  0  0  0
 25 28  1  0  0  0  0
 23 24  1  0  0  0  0
 23 25  1  0  0  0  0
M  END
$$$$
default_name
  -OEChem-02102213163D

 28 27  0     1  0  0  0  0  0999 V2000
   -3.2133   -3.5565    1.2809 H   0  0  0  0  0  0  0  0  0  0  0  0
   -3.1873   -2.5755    0.8089 C   0  0  0  0  0  0  0  0  0  0  0  0
   -3.8793   -1.9065    1.3169 H   0  0  0  0  0  0  0  0  0  0  0  0
   -3.4623   -2.6685   -0.2401 H   0  0  0  0  0  0  0  0  0  0  0  0
   -1.7863   -2.0195    0.9119 C   0  0  0  0  0  0  0  0  0  0  0  0
   -0.9073   -2.6615    1.4699 O   0  0  0  0  0  0  0  0  0  0  0  0
   -1.5803   -0.8195    0.3749 N   0  0  0  0  0  0  0  0  0  0  0  0
   -2.3603   -0.3345   -0.0451 H   0  0  0  0  0  0  0  0  0  0  0  0
   -0.2933   -0.1205    0.3719 C   0  0  1  0  0  0  0  0  0  0  0  0
    0.3577   -0.5843    1.1143 H   0  0  0  0  0  0  0  0  0  0  0  0
    0.3613   -0.2794   -1.0156 C   0  0  0  0  0  0  0  0  0  0  0  0
   -0.3981   -0.0799   -1.7736 H   0  0  0  0  0  0  0  0  0  0  0  0
    1.1542    0.4616   -1.1264 H   0  0  0  0  0  0  0  0  0  0  0  0
    0.9580   -1.6750   -1.2672 C   0  0  0  0  0  0  0  0  0  0  0  0
    0.6879   -2.0198   -2.2654 H   0  0  0  0  0  0  0  0  0  0  0  0
    2.0432   -1.6193   -1.1907 H   0  0  0  0  0  0  0  0  0  0  0  0
    0.4643   -2.7056   -0.2569 C   0  0  0  0  0  0  0  0  0  0  0  0
   -0.2160   -2.4540    0.7247 O   0  0  0  0  0  0  0  0  0  0  0  0
    0.8385   -3.9764   -0.4951 O   0  0  0  0  0  0  0  0  0  0  0  0
    0.4646   -4.4875    0.2248 H   0  0  0  0  0  0  0  0  0  0  0  0
   -0.4860    1.3537    0.7622 C   0  0  0  0  0  0  0  0  0  0  0  0
   -1.3956    2.0096    0.2582 O   0  0  0  0  0  0  0  0  0  0  0  0
    0.3741    1.8728    1.6466 N   0  0  0  0  0  0  0  0  0  0  0  0
    1.0814    1.2667    2.0345 H   0  0  0  0  0  0  0  0  0  0  0  0
    0.3380    3.2610    2.1024 C   0  0  0  0  0  0  0  0  0  0  0  0
   -0.6389    3.4820    2.5363 H   0  0  0  0  0  0  0  0  0  0  0  0
    1.1108    3.4337    2.8528 H   0  0  0  0  0  0  0  0  0  0  0  0
    0.5009    3.9312    1.2562 H   0  0  0  0  0  0  0  0  0  0  0  0
  5  6  2  0  0  0  0
  5  7  1  0  0  0  0
  2  3  1  0  0  0  0
  2  4  1  0  0  0  0
  2  5  1  0  0  0  0
  1  2  1  0  0  0  0
 21 22  2  0  0  0  0
 21 23  1  0  0  0  0
 19 20  1  0  0  0  0
 17 18  2  0  0  0  0
 17 19  1  0  0  0  0
 14 15  1  0  0  0  0
 14 16  1  0  0  0  0
 14 17  1  0  0  0  0
 11 12  1  0  0  0  0
 11 13  1  0  0  0  0
 11 14  1  0  0  0  0
  9 10  1  0  0  0  0
  9 11  1  0  0  0  0
  9 21  1  0  0  0  0
  7  8  1  0  0  0  0
  7  9  1  0  0  0  0
 25 26  1  0  0  0  0
 25 27  1  0  0  0  0
 25 28  1  0  0  0  0
 23 24  1  0  0  0  0
 23 25  1  0  0  0  0
M  END
$$$$
default_name
  -OEChem-02102213163D

 28 27  0     1  0  0  0  0  0999 V2000
   -3.2133   -3.5565    1.2809 H   0  0  0  0  0  0  0  0  0  0  0  0
   -3.1873   -2.5755    0.8089 C   0  0  0  0  0  0  0  0  0  0  0  0
   -3.8793   -1.9065    1.3169 H   0  0  0  0  0  0  0  0  0  0  0  0
   -3.4623   -2.6685   -0.2401 H   0  0  0  0  0  0  0  0  0  0  0  0
   -1.7863   -2.0195    0.9119 C   0  0  0  0  0  0  0  0  0  0  0  0
   -0.9073   -2.6615    1.4699 O   0  0  0  0  0  0  0  0  0  0  0  0
   -1.5803   -0.8195    0.3749 N   0  0  0  0  0  0  0  0  0  0  0  0
   -2.3603   -0.3345   -0.0451 H   0  0  0  0  0  0  0  0  0  0  0  0
   -0.2933   -0.1205    0.3719 C   0  0  1  0  0  0  0  0  0  0  0  0
    0.3577   -0.5843    1.1143 H   0  0  0  0  0  0  0  0  0  0  0  0
    0.3613   -0.2794   -1.0156 C   0  0  0  0  0  0  0  0  0  0  0  0
   -0.3981   -0.0799   -1.7736 H   0  0  0  0  0  0  0  0  0  0  0  0
    1.1542    0.4616   -1.1264 H   0  0  0  0  0  0  0  0  0  0  0  0
    0.9580   -1.6750   -1.2672 C   0  0  0  0  0  0  0  0  0  0  0  0
    0.9217   -1.9079   -2.3315 H   0  0  0  0  0  0  0  0  0  0  0  0
    1.9954   -1.6859   -0.9349 H   0  0  0  0  0  0  0  0  0  0  0  0
    0.2080   -2.7689   -0.5139 C   0  0  0  0  0  0  0  0  0  0  0  0
   -0.6777   -2.5754    0.3034 O   0  0  0  0  0  0  0  0  0  0  0  0
    0.5892   -4.0296   -0.7911 O   0  0  0  0  0  0  0  0  0  0  0  0
    0.0401   -4.5860   -0.2360 H   0  0  0  0  0  0  0  0  0  0  0  0
   -0.4860    1.3537    0.7622 C   0  0  0  0  0  0  0  0  0  0  0  0
   -1.3956    2.0096    0.2582 O   0  0  0  0  0  0  0  0  0  0  0  0
    0.3741    1.8728    1.6466 N   0  0  0  0  0  0  0  0  0  0  0  0
    1.0814    1.2667    2.0345 H   0  0  0  0  0  0  0  0  0  0  0  0
    0.3380    3.2610    2.1024 C   0  0  0  0  0  0  0  0  0  0  0  0
   -0.6389    3.4820    2.5363 H   0  0  0  0  0  0  0  0  0  0  0  0
    1.1108    3.4337    2.8528 H   0  0  0  0  0  0  0  0  0  0  0  0
    0.5009    3.9312    1.2562 H   0  0  0  0  0  0  0  0  0  0  0  0
  5  6  2  0  0  0  0
  5  7  1  0  0  0  0
  2  3  1  0  0  0  0
  2  4  1  0  0  0  0
  2  5  1  0  0  0  0
  1  2  1  0  0  0  0
 21 22  2  0  0  0  0
 21 23  1  0  0  0  0
 19 20  1  0  0  0  0
 17 18  2  0  0  0  0
 17 19  1  0  0  0  0
 14 15  1  0  0  0  0
 14 16  1  0  0  0  0
 14 17  1  0  0  0  0
 11 12  1  0  0  0  0
 11 13  1  0  0  0  0
 11 14  1  0  0  0  0
  9 10  1  0  0  0  0
  9 11  1  0  0  0  0
  9 21  1  0  0  0  0
  7  8  1  0  0  0  0
  7  9  1  0  0  0  0
 25 26  1  0  0  0  0
 25 27  1  0  0  0  0
 25 28  1  0  0  0  0
 23 24  1  0  0  0  0
 23 25  1  0  0  0  0
M  END
$$$$
default_name
  -OEChem-02102213163D

 28 27  0     1  0  0  0  0  0999 V2000
   -3.2133   -3.5565    1.2809 H   0  0  0  0  0  0  0  0  0  0  0  0
   -3.1873   -2.5755    0.8089 C   0  0  0  0  0  0  0  0  0  0  0  0
   -3.8793   -1.9065    1.3169 H   0  0  0  0  0  0  0  0  0  0  0  0
   -3.4623   -2.6685   -0.2401 H   0  0  0  0  0  0  0  0  0  0  0  0
   -1.7863   -2.0195    0.9119 C   0  0  0  0  0  0  0  0  0  0  0  0
   -0.9073   -2.6615    1.4699 O   0  0  0  0  0  0  0  0  0  0  0  0
   -1.5803   -0.8195    0.3749 N   0  0  0  0  0  0  0  0  0  0  0  0
   -2.3603   -0.3345   -0.0451 H   0  0  0  0  0  0  0  0  0  0  0  0
   -0.2933   -0.1205    0.3719 C   0  0  1  0  0  0  0  0  0  0  0  0
    0.3577   -0.5843    1.1143 H   0  0  0  0  0  0  0  0  0  0  0  0
    0.3613   -0.2794   -1.0156 C   0  0  0  0  0  0  0  0  0  0  0  0
   -0.3981   -0.0799   -1.7736 H   0  0  0  0  0  0  0  0  0  0  0  0
    1.1542    0.4616   -1.1264 H   0  0  0  0  0  0  0  0  0  0  0  0
    0.9580   -1.6750   -1.2672 C   0  0  0  0  0  0  0  0  0  0  0  0
    1.1679   -1.8031   -2.3292 H   0  0  0  0  0  0  0  0  0  0  0  0
    1.8863   -1.7738   -0.7058 H   0  0  0  0  0  0  0  0  0  0  0  0
    0.0180   -2.7934   -0.8287 C   0  0  0  0  0  0  0  0  0  0  0  0
   -1.0298   -2.6308   -0.2240 O   0  0  0  0  0  0  0  0  0  0  0  0
    0.4156   -4.0408   -1.1410 O   0  0  0  0  0  0  0  0  0  0  0  0
   -0.2660   -4.6168   -0.7906 H   0  0  0  0  0  0  0  0  0  0  0  0
   -0.4860    1.3537    0.7622 C   0  0  0  0  0  0  0  0  0  0  0  0
   -1.3956    2.0096    0.2582 O   0  0  0  0  0  0  0  0  0  0  0  0
    0.3741    1.8728    1.6466 N   0  0  0  0  0  0  0  0  0  0  0  0
    1.0814    1.2667    2.0345 H   0  0  0  0  0  0  0  0  0  0  0  0
    0.3380    3.2610    2.1024 C   0  0  0  0  0  0  0  0  0  0  0  0
   -0.6389    3.4820    2.5363 H   0  0  0  0  0  0  0  0  0  0  0  0
    1.1108    3.4337    2.8528 H   0  0  0  0  0  0  0  0  0  0  0  0
    0.5009    3.9312    1.2562 H   0  0  0  0  0  0  0  0  0  0  0  0
  5  6  2  0  0  0  0
  5  7  1  0  0  0  0
  2  3  1  0  0  0  0
  2  4  1  0  0  0  0
  2  5  1  0  0  0  0
  1  2  1  0  0  0  0
 21 22  2  0  0  0  0
 21 23  1  0  0  0  0
 19 20  1  0  0  0  0
 17 18  2  0  0  0  0
 17 19  1  0  0  0  0
 14 15  1  0  0  0  0
 14 16  1  0  0  0  0
 14 17  1  0  0  0  0
 11 12  1  0  0  0  0
 11 13  1  0  0  0  0
 11 14  1  0  0  0  0
  9 10  1  0  0  0  0
  9 11  1  0  0  0  0
  9 21  1  0  0  0  0
  7  8  1  0  0  0  0
  7  9  1  0  0  0  0
 25 26  1  0  0  0  0
 25 27  1  0  0  0  0
 25 28  1  0  0  0  0
 23 24  1  0  0  0  0
 23 25  1  0  0  0  0
M  END
$$$$
default_name
  -OEChem-02102213163D

 28 27  0     1  0  0  0  0  0999 V2000
   -3.2133   -3.5565    1.2809 H   0  0  0  0  0  0  0  0  0  0  0  0
   -3.1873   -2.5755    0.8089 C   0  0  0  0  0  0  0  0  0  0  0  0
   -3.8793   -1.9065    1.3169 H   0  0  0  0  0  0  0  0  0  0  0  0
   -3.4623   -2.6685   -0.2401 H   0  0  0  0  0  0  0  0  0  0  0  0
   -1.7863   -2.0195    0.9119 C   0  0  0  0  0  0  0  0  0  0  0  0
   -0.9073   -2.6615    1.4699 O   0  0  0  0  0  0  0  0  0  0  0  0
   -1.5803   -0.8195    0.3749 N   0  0  0  0  0  0  0  0  0  0  0  0
   -2.3603   -0.3345   -0.0451 H   0  0  0  0  0  0  0  0  0  0  0  0
   -0.2933   -0.1205    0.3719 C   0  0  1  0  0  0  0  0  0  0  0  0
    0.3577   -0.5843    1.1143 H   0  0  0  0  0  0  0  0  0  0  0  0
    0.3613   -0.2794   -1.0156 C   0  0  0  0  0  0  0  0  0  0  0  0
   -0.3981   -0.0799   -1.7736 H   0  0  0  0  0  0  0  0  0  0  0  0
    1.1542    0.4616   -1.1264 H   0  0  0  0  0  0  0  0  0  0  0  0
    0.9580   -1.6750   -1.2672 C   0  0  0  0  0  0  0  0  0  0  0  0
    1.4095   -1.7125   -2.2586 H   0  0  0  0  0  0  0  0  0  0  0  0
    1.7234   -1.8772   -0.5189 H   0  0  0  0  0  0  0  0  0  0  0  0
   -0.0926   -2.7773   -1.1798 C   0  0  0  0  0  0  0  0  0  0  0  0
   -1.2484   -2.6165   -0.8218 O   0  0  0  0  0  0  0  0  0  0  0  0
    0.3296   -4.0091   -1.5207 O   0  0  0  0  0  0  0  0  0  0  0  0
   -0.4328   -4.5780   -1.4013 H   0  0  0  0  0  0  0  0  0  0  0  0
   -0.4860    1.3537    0.7622 C   0  0  0  0  0  0  0  0  0  0  0  0
   -1.3956    2.0096    0.2582 O   0  0  0  0  0  0  0  0  0  0  0  0
    0.3741    1.8728    1.6466 N   0  0  0  0  0  0  0  0  0  0  0  0
    1.0814    1.2667    2.0345 H   0  0  0  0  0  0  0  0  0  0  0  0
    0.3380    3.2610    2.1024 C   0  0  0  0  0  0  0  0  0  0  0  0
   -0.6389    3.4820    2.5363 H   0  0  0  0  0  0  0  0  0  0  0  0
    1.1108    3.4337    2.8528 H   0  0  0  0  0  0  0  0  0  0  0  0
    0.5009    3.9312    1.2562 H   0  0  0  0  0  0  0  0  0  0  0  0
  5  6  2  0  0  0  0
  5  7  1  0  0  0  0
  2  3  1  0  0  0  0
  2  4  1  0  0  0  0
  2  5  1  0  0  0  0
  1  2  1  0  0  0  0
 21 22  2  0  0  0  0
 21 23  1  0  0  0  0
 19 20  1  0  0  0  0
 17 18  2  0  0  0  0
 17 19  1  0  0  0  0
 14 15  1  0  0  0  0
 14 16  1  0  0  0  0
 14 17  1  0  0  0  0
 11 12  1  0  0  0  0
 11 13  1  0  0  0  0
 11 14  1  0  0  0  0
  9 10  1  0  0  0  0
  9 11  1  0  0  0  0
  9 21  1  0  0  0  0
  7  8  1  0  0  0  0
  7  9  1  0  0  0  0
 25 26  1  0  0  0  0
 25 27  1  0  0  0  0
 25 28  1  0  0  0  0
 23 24  1  0  0  0  0
 23 25  1  0  0  0  0
M  END
$$$$
default_name
  -OEChem-02102213163D

 28 27  0     1  0  0  0  0  0999 V2000
   -3.2133   -3.5565    1.2809 H   0  0  0  0  0  0  0  0  0  0  0  0
   -3.1873   -2.5755    0.8089 C   0  0  0  0  0  0  0  0  0  0  0  0
   -3.8793   -1.9065    1.3169 H   0  0  0  0  0  0  0  0  0  0  0  0
   -3.4623   -2.6685   -0.2401 H   0  0  0  0  0  0  0  0  0  0  0  0
   -1.7863   -2.0195    0.9119 C   0  0  0  0  0  0  0  0  0  0  0  0
   -0.9073   -2.6615    1.4699 O   0  0  0  0  0  0  0  0  0  0  0  0
   -1.5803   -0.8195    0.3749 N   0  0  0  0  0  0  0  0  0  0  0  0
   -2.3603   -0.3345   -0.0451 H   0  0  0  0  0  0  0  0  0  0  0  0
   -0.2933   -0.1205    0.3719 C   0  0  1  0  0  0  0  0  0  0  0  0
    0.3577   -0.5843    1.1143 H   0  0  0  0  0  0  0  0  0  0  0  0
    0.3613   -0.2794   -1.0156 C   0  0  0  0  0  0  0  0  0  0  0  0
   -0.3981   -0.0799   -1.7736 H   0  0  0  0  0  0  0  0  0  0  0  0
    1.1542    0.4616   -1.1264 H   0  0  0  0  0  0  0  0  0  0  0  0
    0.9580   -1.6750   -1.2672 C   0  0  0  0  0  0  0  0  0  0  0  0
    1.6302   -1.6423   -2.1246 H   0  0  0  0  0  0  0  0  0  0  0  0
    1.5178   -1.9888   -0.3870 H   0  0  0  0  0  0  0  0  0  0  0  0
   -0.1164   -2.7220   -1.5433 C   0  0  0  0  0  0  0  0  0  0  0  0
   -1.3186   -2.5335   -1.4491 O   0  0  0  0  0  0  0  0  0  0  0  0
    0.3371   -3.9367   -1.9046 O   0  0  0  0  0  0  0  0  0  0  0  0
   -0.4488   -4.4722   -2.0264 H   0  0  0  0  0  0  0  0  0  0  0  0
   -0.4860    1.3537    0.7622 C   0  0  0  0  0  0  0  0  0  0  0  0
   -1.3956    2.0096    0.2582 O   0  0  0  0  0  0  0  0  0  0  0  0
    0.3741    1.8728    1.6466 N   0  0  0  0  0  0  0  0  0  0  0  0
    1.0814    1.2667    2.0345 H   0  0  0  0  0  0  0  0  0  0  0  0
    0.3380    3.2610    2.1024 C   0  0  0  0  0  0  0  0  0  0  0  0
   -0.6389    3.4820    2.5363 H   0  0  0  0  0  0  0  0  0  0  0  0
    1.1108    3.4337    2.8528 H   0  0  0  0  0  0  0  0  0  0  0  0
    0.5009    3.9312    1.2562 H   0  0  0  0  0  0  0  0  0  0  0  0
  5  6  2  0  0  0  0
  5  7  1  0  0  0  0
  2  3  1  0  0  0  0
  2  4  1  0  0  0  0
  2  5  1  0  0  0  0
  1  2  1  0  0  0  0
 21 22  2  0  0  0  0
 21 23  1  0  0  0  0
 19 20  1  0  0  0  0
 17 18  2  0  0  0  0
 17 19  1  0  0  0  0
 14 15  1  0  0  0  0
 14 16  1  0  0  0  0
 14 17  1  0  0  0  0
 11 12  1  0  0  0  0
 11 13  1  0  0  0  0
 11 14  1  0  0  0  0
  9 10  1  0  0  0  0
  9 11  1  0  0  0  0
  9 21  1  0  0  0  0
  7  8  1  0  0  0  0
  7  9  1  0  0  0  0
 25 26  1  0  0  0  0
 25 27  1  0  0  0  0
 25 28  1  0  0  0  0
 23 24  1  0  0  0  0
 23 25  1  0  0  0  0
M  END
$$$$
default_name
  -OEChem-02102213163D

 28 27  0     1  0  0  0  0  0999 V2000
   -3.2133   -3.5565    1.2809 H   0  0  0  0  0  0  0  0  0  0  0  0
   -3.1873   -2.5755    0.8089 C   0  0  0  0  0  0  0  0  0  0  0  0
   -3.8793   -1.9065    1.3169 H   0  0  0  0  0  0  0  0  0  0  0  0
   -3.4623   -2.6685   -0.2401 H   0  0  0  0  0  0  0  0  0  0  0  0
   -1.7863   -2.0195    0.9119 C   0  0  0  0  0  0  0  0  0  0  0  0
   -0.9073   -2.6615    1.4699 O   0  0  0  0  0  0  0  0  0  0  0  0
   -1.5803   -0.8195    0.3749 N   0  0  0  0  0  0  0  0  0  0  0  0
   -2.3603   -0.3345   -0.0451 H   0  0  0  0  0  0  0  0  0  0  0  0
   -0.2933   -0.1205    0.3719 C   0  0  1  0  0  0  0  0  0  0  0  0
    0.3577   -0.5843    1.1143 H   0  0  0  0  0  0  0  0  0  0  0  0
    0.3613   -0.2794   -1.0156 C   0  0  0  0  0  0  0  0  0  0  0  0
   -0.3981   -0.0799   -1.7736 H   0  0  0  0  0  0  0  0  0  0  0  0
    1.1542    0.4616   -1.1264 H   0  0  0  0  0  0  0  0  0  0  0  0
    0.9580   -1.6750   -1.2672 C   0  0  0  0  0  0  0  0  0  0  0  0
    1.8149   -1.5972   -1.9364 H   0  0  0  0  0  0  0  0  0  0  0  0
    1.2835   -2.1013   -0.3190 H   0  0  0  0  0  0  0  0  0  0  0  0
   -0.0516   -2.6310   -1.8944 C   0  0  0  0  0  0  0  0  0  0  0  0
   -1.2357   -2.3873   -2.0631 O   0  0  0  0  0  0  0  0  0  0  0  0
    0.4374   -3.8285   -2.2663 O   0  0  0  0  0  0  0  0  0  0  0  0
   -0.3131   -4.3065   -2.6234 H   0  0  0  0  0  0  0  0  0  0  0  0
   -0.4860    1.3537    0.7622 C   0  0  0  0  0  0  0  0  0  0  0  0
   -1.3956    2.0096    0.2582 O   0  0  0  0  0  0  0  0  0  0  0  0
    0.3741    1.8728    1.6466 N   0  0  0  0  0  0  0  0  0  0  0  0
    1.0814    1.2667    2.0345 H   0  0  0  0  0  0  0  0  0  0  0  0
    0.3380    3.2610    2.1024 C   0  0  0  0  0  0  0  0  0  0  0  0
   -0.6389    3.4820    2.5363 H   0  0  0  0  0  0  0  0  0  0  0  0
    1.1108    3.4337    2.8528 H   0  0  0  0  0  0  0  0  0  0  0  0
    0.5009    3.9312    1.2562 H   0  0  0  0  0  0  0  0  0  0  0  0
  5  6  2  0  0  0  0
  5  7  1  0  0  0  0
  2  3  1  0  0  0  0
  2  4  1  0  0  0  0
  2  5  1  0  0  0  0
  1  2  1  0  0  0  0
 21 22  2  0  0  0  0
 21 23  1  0  0  0  0
 19 20  1  0  0  0  0
 17 18  2  0  0  0  0
 17 19  1  0  0  0  0
 14 15  1  0  0  0  0
 14 16  1  0  0  0  0
 14 17  1  0  0  0  0
 11 12  1  0  0  0  0
 11 13  1  0  0  0  0
 11 14  1  0  0  0  0
  9 10  1  0  0  0  0
  9 11  1  0  0  0  0
  9 21  1  0  0  0  0
  7  8  1  0  0  0  0
  7  9  1  0  0  0  0
 25 26  1  0  0  0  0
 25 27  1  0  0  0  0
 25 28  1  0  0  0  0
 23 24  1  0  0  0  0
 23 25  1  0  0  0  0
M  END
$$$$
default_name
  -OEChem-02102213163D

 28 27  0     1  0  0  0  0  0999 V2000
   -3.2133   -3.5565    1.2809 H   0  0  0  0  0  0  0  0  0  0  0  0
   -3.1873   -2.5755    0.8089 C   0  0  0  0  0  0  0  0  0  0  0  0
   -3.8793   -1.9065    1.3169 H   0  0  0  0  0  0  0  0  0  0  0  0
   -3.4623   -2.6685   -0.2401 H   0  0  0  0  0  0  0  0  0  0  0  0
   -1.7863   -2.0195    0.9119 C   0  0  0  0  0  0  0  0  0  0  0  0
   -0.9073   -2.6615    1.4699 O   0  0  0  0  0  0  0  0  0  0  0  0
   -1.5803   -0.8195    0.3749 N   0  0  0  0  0  0  0  0  0  0  0  0
   -2.3603   -0.3345   -0.0451 H   0  0  0  0  0  0  0  0  0  0  0  0
   -0.2933   -0.1205    0.3719 C   0  0  1  0  0  0  0  0  0  0  0  0
    0.3577   -0.5843    1.1143 H   0  0  0  0  0  0  0  0  0  0  0  0
    0.3613   -0.2794   -1.0156 C   0  0  0  0  0  0  0  0  0  0  0  0
   -0.3981   -0.0799   -1.7736 H   0  0  0  0  0  0  0  0  0  0  0  0
    1.1542    0.4616   -1.1264 H   0  0  0  0  0  0  0  0  0  0  0  0
    0.9580   -1.6750   -1.2672 C   0  0  0  0  0  0  0  0  0  0  0  0
    1.9510   -1.5805   -1.7066 H   0  0  0  0  0  0  0  0  0  0  0  0
    1.0365   -2.2068   -0.3197 H   0  0  0  0  0  0  0  0  0  0  0  0
    0.0972   -2.5106   -2.2092 C   0  0  0  0  0  0  0  0  0  0  0  0
   -1.0052   -2.1880   -2.6221 O   0  0  0  0  0  0  0  0  0  0  0  0
    0.6239   -3.6920   -2.5813 O   0  0  0  0  0  0  0  0  0  0  0  0
   -0.0348   -4.0923   -3.1515 H   0  0  0  0  0  0  0  0  0  0  0  0
   -0.4860    1.3537    0.7622 C   0  0  0  0  0  0  0  0  0  0  0  0
   -1.3956    2.0096    0.2582 O   0  0  0  0  0  0  0  0  0  0  0  0
    0.3741    1.8728    1.6466 N   0  0  0  0  0  0  0  0  0  0  0  0
    1.0814    1.2667    2.0345 H   0  0  0  0  0  0  0  0  0  0  0  0
    0.3380    3.2610    2.1024 C   0  0  0  0  0  0  0  0  0  0  0  0
   -0.6389    3.4820    2.5363 H   0  0  0  0  0  0  0  0  0  0  0  0
    1.1108    3.4337    2.8528 H   0  0  0  0  0  0  0  0  0  0  0  0
    0.5009    3.9312    1.2562 H   0  0  0  0  0  0  0  0  0  0  0  0
  5  6  2  0  0  0  0
  5  7  1  0  0  0  0
  2  3  1  0  0  0  0
  2  4  1  0  0  0  0
  2  5  1  0  0  0  0
  1  2  1  0  0  0  0
 21 22  2  0  0  0  0
 21 23  1  0  0  0  0
 19 20  1  0  0  0  0
 17 18  2  0  0  0  0
 17 19  1  0  0  0  0
 14 15  1  0  0  0  0
 14 16  1  0  0  0  0
 14 17  1  0  0  0  0
 11 12  1  0  0  0  0
 11 13  1  0  0  0  0
 11 14  1  0  0  0  0
  9 10  1  0  0  0  0
  9 11  1  0  0  0  0
  9 21  1  0  0  0  0
  7  8  1  0  0  0  0
  7  9  1  0  0  0  0
 25 26  1  0  0  0  0
 25 27  1  0  0  0  0
 25 28  1  0  0  0  0
 23 24  1  0  0  0  0
 23 25  1  0  0  0  0
M  END
$$$$
default_name
  -OEChem-02102213163D

 28 27  0     1  0  0  0  0  0999 V2000
   -3.2133   -3.5565    1.2809 H   0  0  0  0  0  0  0  0  0  0  0  0
   -3.1873   -2.5755    0.8089 C   0  0  0  0  0  0  0  0  0  0  0  0
   -3.8793   -1.9065    1.3169 H   0  0  0  0  0  0  0  0  0  0  0  0
   -3.4623   -2.6685   -0.2401 H   0  0  0  0  0  0  0  0  0  0  0  0
   -1.7863   -2.0195    0.9119 C   0  0  0  0  0  0  0  0  0  0  0  0
   -0.9073   -2.6615    1.4699 O   0  0  0  0  0  0  0  0  0  0  0  0
   -1.5803   -0.8195    0.3749 N   0  0  0  0  0  0  0  0  0  0  0  0
   -2.3603   -0.3345   -0.0451 H   0  0  0  0  0  0  0  0  0  0  0  0
   -0.2933   -0.1205    0.3719 C   0  0  1  0  0  0  0  0  0  0  0  0
    0.3577   -0.5843    1.1143 H   0  0  0  0  0  0  0  0  0  0  0  0
    0.3613   -0.2794   -1.0156 C   0  0  0  0  0  0  0  0  0  0  0  0
   -0.3981   -0.0799   -1.7736 H   0  0  0  0  0  0  0  0  0  0  0  0
    1.1542    0.4616   -1.1264 H   0  0  0  0  0  0  0  0  0  0  0  0
    0.9580   -1.6750   -1.2672 C   0  0  0  0  0  0  0  0  0  0  0  0
    2.0293   -1.5931   -1.4511 H   0  0  0  0  0  0  0  0  0  0  0  0
    0.7936   -2.2981   -0.3889 H   0  0  0  0  0  0  0  0  0  0  0  0
    0.3200   -2.3690   -2.4663 C   0  0  0  0  0  0  0  0  0  0  0  0
   -0.6429   -1.9491   -3.0879 O   0  0  0  0  0  0  0  0  0  0  0  0
    0.8837   -3.5364   -2.8281 O   0  0  0  0  0  0  0  0  0  0  0  0
    0.3670   -3.8441   -3.5749 H   0  0  0  0  0  0  0  0  0  0  0  0
   -0.4860    1.3537    0.7622 C   0  0  0  0  0  0  0  0  0  0  0  0
   -1.3956    2.0096    0.2582 O   0  0  0  0  0  0  0  0  0  0  0  0
    0.3741    1.8728    1.6466 N   0  0  0  0  0  0  0  0  0  0  0  0
    1.0814    1.2667    2.0345 H   0  0  0  0  0  0  0  0  0  0  0  0
    0.3380    3.2610    2.1024 C   0  0  0  0  0  0  0  0  0  0  0  0
   -0.6389    3.4820    2.5363 H   0  0  0  0  0  0  0  0  0  0  0  0
    1.1108    3.4337    2.8528 H   0  0  0  0  0  0  0  0  0  0  0  0
    0.5009    3.9312    1.2562 H   0  0  0  0  0  0  0  0  0  0  0  0
  5  6  2  0  0  0  0
  5  7  1  0  0  0  0
  2  3  1  0  0  0  0
  2  4  1  0  0  0  0
  2  5  1  0  0  0  0
  1  2  1  0  0  0  0
 21 22  2  0  0  0  0
 21 23  1  0  0  0  0
 19 20  1  0  0  0  0
 17 18  2  0  0  0  0
 17 19  1  0  0  0  0
 14 15  1  0  0  0  0
 14 16  1  0  0  0  0
 14 17  1  0  0  0  0
 11 12  1  0  0  0  0
 11 13  1  0  0  0  0
 11 14  1  0  0  0  0
  9 10  1  0  0  0  0
  9 11  1  0  0  0  0
  9 21  1  0  0  0  0
  7  8  1  0  0  0  0
  7  9  1  0  0  0  0
 25 26  1  0  0  0  0
 25 27  1  0  0  0  0
 25 28  1  0  0  0  0
 23 24  1  0  0  0  0
 23 25  1  0  0  0  0
M  END
$$$$
default_name
  -OEChem-02102213163D

 28 27  0     1  0  0  0  0  0999 V2000
   -3.2133   -3.5565    1.2809 H   0  0  0  0  0  0  0  0  0  0  0  0
   -3.1873   -2.5755    0.8089 C   0  0  0  0  0  0  0  0  0  0  0  0
   -3.8793   -1.9065    1.3169 H   0  0  0  0  0  0  0  0  0  0  0  0
   -3.4623   -2.6685   -0.2401 H   0  0  0  0  0  0  0  0  0  0  0  0
   -1.7863   -2.0195    0.9119 C   0  0  0  0  0  0  0  0  0  0  0  0
   -0.9073   -2.6615    1.4699 O   0  0  0  0  0  0  0  0  0  0  0  0
   -1.5803   -0.8195    0.3749 N   0  0  0  0  0  0  0  0  0  0  0  0
   -2.3603   -0.3345   -0.0451 H   0  0  0  0  0  0  0  0  0  0  0  0
   -0.2933   -0.1205    0.3719 C   0  0  1  0  0  0  0  0  0  0  0  0
    0.3577   -0.5843    1.1143 H   0  0  0  0  0  0  0  0  0  0  0  0
    0.3613   -0.2794   -1.0156 C   0  0  0  0  0  0  0  0  0  0  0  0
   -0.3981   -0.0799   -1.7736 H   0  0  0  0  0  0  0  0  0  0  0  0
    1.1542    0.4616   -1.1264 H   0  0  0  0  0  0  0  0  0  0  0  0
    0.9580   -1.6750   -1.2672 C   0  0  0  0  0  0  0  0  0  0  0  0
    2.0443   -1.6343   -1.1872 H   0  0  0  0  0  0  0  0  0  0  0  0
    0.5713   -2.3692   -0.5219 H   0  0  0  0  0  0  0  0  0  0  0  0
    0.6015   -2.2158   -2.6481 C   0  0  0  0  0  0  0  0  0  0  0  0
   -0.1735   -1.6869   -3.4288 O   0  0  0  0  0  0  0  0  0  0  0  0
    1.1992   -3.3724   -2.9899 O   0  0  0  0  0  0  0  0  0  0  0  0
    0.8651   -3.5790   -3.8645 H   0  0  0  0  0  0  0  0  0  0  0  0
   -0.4860    1.3537    0.7622 C   0  0  0  0  0  0  0  0  0  0  0  0
   -1.3956    2.0096    0.2582 O   0  0  0  0  0  0  0  0  0  0  0  0
    0.3741    1.8728    1.6466 N   0  0  0  0  0  0  0  0  0  0  0  0
    1.0814    1.2667    2.0345 H   0  0  0  0  0  0  0  0  0  0  0  0
    0.3380    3.2610    2.1024 C   0  0  0  0  0  0  0  0  0  0  0  0
   -0.6389    3.4820    2.5363 H   0  0  0  0  0  0  0  0  0  0  0  0
    1.1108    3.4337    2.8528 H   0  0  0  0  0  0  0  0  0  0  0  0
    0.5009    3.9312    1.2562 H   0  0  0  0  0  0  0  0  0  0  0  0
  5  6  2  0  0  0  0
  5  7  1  0  0  0  0
  2  3  1  0  0  0  0
  2  4  1  0  0  0  0
  2  5  1  0  0  0  0
  1  2  1  0  0  0  0
 21 22  2  0  0  0  0
 21 23  1  0  0  0  0
 19 20  1  0  0  0  0
 17 18  2  0  0  0  0
 17 19  1  0  0  0  0
 14 15  1  0  0  0  0
 14 16  1  0  0  0  0
 14 17  1  0  0  0  0
 11 12  1  0  0  0  0
 11 13  1  0  0  0  0
 11 14  1  0  0  0  0
  9 10  1  0  0  0  0
  9 11  1  0  0  0  0
  9 21  1  0  0  0  0
  7  8  1  0  0  0  0
  7  9  1  0  0  0  0
 25 26  1  0  0  0  0
 25 27  1  0  0  0  0
 25 28  1  0  0  0  0
 23 24  1  0  0  0  0
 23 25  1  0  0  0  0
M  END
$$$$
default_name
  -OEChem-02102213163D

 28 27  0     1  0  0  0  0  0999 V2000
   -3.2133   -3.5565    1.2809 H   0  0  0  0  0  0  0  0  0  0  0  0
   -3.1873   -2.5755    0.8089 C   0  0  0  0  0  0  0  0  0  0  0  0
   -3.8793   -1.9065    1.3169 H   0  0  0  0  0  0  0  0  0  0  0  0
   -3.4623   -2.6685   -0.2401 H   0  0  0  0  0  0  0  0  0  0  0  0
   -1.7863   -2.0195    0.9119 C   0  0  0  0  0  0  0  0  0  0  0  0
   -0.9073   -2.6615    1.4699 O   0  0  0  0  0  0  0  0  0  0  0  0
   -1.5803   -0.8195    0.3749 N   0  0  0  0  0  0  0  0  0  0  0  0
   -2.3603   -0.3345   -0.0451 H   0  0  0  0  0  0  0  0  0  0  0  0
   -0.2933   -0.1205    0.3719 C   0  0  1  0  0  0  0  0  0  0  0  0
    0.3577   -0.5843    1.1143 H   0  0  0  0  0  0  0  0  0  0  0  0
    0.3613   -0.2794   -1.0156 C   0  0  0  0  0  0  0  0  0  0  0  0
   -0.3981   -0.0799   -1.7736 H   0  0  0  0  0  0  0  0  0  0  0  0
    1.1542    0.4616   -1.1264 H   0  0  0  0  0  0  0  0  0  0  0  0
    0.9580   -1.6750   -1.2672 C   0  0  0  0  0  0  0  0  0  0  0  0
    1.9952   -1.7011   -0.9328 H   0  0  0  0  0  0  0  0  0  0  0  0
    0.3849   -2.4150   -0.7098 H   0  0  0  0  0  0  0  0  0  0  0  0
    0.9226   -2.0616   -2.7422 C   0  0  0  0  0  0  0  0  0  0  0  0
    0.3711   -1.4193   -3.6215 O   0  0  0  0  0  0  0  0  0  0  0  0
    1.5489   -3.2110   -3.0556 O   0  0  0  0  0  0  0  0  0  0  0  0
    1.4254   -3.3148   -4.0007 H   0  0  0  0  0  0  0  0  0  0  0  0
   -0.4860    1.3537    0.7622 C   0  0  0  0  0  0  0  0  0  0  0  0
   -1.3956    2.0096    0.2582 O   0  0  0  0  0  0  0  0  0  0  0  0
    0.3741    1.8728    1.6466 N   0  0  0  0  0  0  0  0  0  0  0  0
    1.0814    1.2667    2.0345 H   0  0  0  0  0  0  0  0  0  0  0  0
    0.3380    3.2610    2.1024 C   0  0  0  0  0  0  0  0  0  0  0  0
   -0.6389    3.4820    2.5363 H   0  0  0  0  0  0  0  0  0  0  0  0
    1.1108    3.4337    2.8528 H   0  0  0  0  0  0  0  0  0  0  0  0
    0.5009    3.9312    1.2562 H   0  0  0  0  0  0  0  0  0  0  0  0
  5  6  2  0  0  0  0
  5  7  1  0  0  0  0
  2  3  1  0  0  0  0
  2  4  1  0  0  0  0
  2  5  1  0  0  0  0
  1  2  1  0  0  0  0
 21 22  2  0  0  0  0
 21 23  1  0  0  0  0
 19 20  1  0  0  0  0
 17 18  2  0  0  0  0
 17 19  1  0  0  0  0
 14 15  1  0  0  0  0
 14 16  1  0  0  0  0
 14 17  1  0  0  0  0
 11 12  1  0  0  0  0
 11 13  1  0  0  0  0
 11 14  1  0  0  0  0
  9 10  1  0  0  0  0
  9 11  1  0  0  0  0
  9 21  1  0  0  0  0
  7  8  1  0  0  0  0
  7  9  1  0  0  0  0
 25 26  1  0  0  0  0
 25 27  1  0  0  0  0
 25 28  1  0  0  0  0
 23 24  1  0  0  0  0
 23 25  1  0  0  0  0
M  END
$$$$
default_name
  -OEChem-02102213163D

 28 27  0     1  0  0  0  0  0999 V2000
   -3.2133   -3.5565    1.2809 H   0  0  0  0  0  0  0  0  0  0  0  0
   -3.1873   -2.5755    0.8089 C   0  0  0  0  0  0  0  0  0  0  0  0
   -3.8793   -1.9065    1.3169 H   0  0  0  0  0  0  0  0  0  0  0  0
   -3.4623   -2.6685   -0.2401 H   0  0  0  0  0  0  0  0  0  0  0  0
   -1.7863   -2.0195    0.9119 C   0  0  0  0  0  0  0  0  0  0  0  0
   -0.9073   -2.6615    1.4699 O   0  0  0  0  0  0  0  0  0  0  0  0
   -1.5803   -0.8195    0.3749 N   0  0  0  0  0  0  0  0  0  0  0  0
   -2.3603   -0.3345   -0.0451 H   0  0  0  0  0  0  0  0  0  0  0  0
   -0.2933   -0.1205    0.3719 C   0  0  1  0  0  0  0  0  0  0  0  0
    0.3577   -0.5843    1.1143 H   0  0  0  0  0  0  0  0  0  0  0  0
    0.3613   -0.2794   -1.0156 C   0  0  0  0  0  0  0  0  0  0  0  0
   -0.3981   -0.0799   -1.7736 H   0  0  0  0  0  0  0  0  0  0  0  0
    1.1542    0.4616   -1.1264 H   0  0  0  0  0  0  0  0  0  0  0  0
    0.9580   -1.6750   -1.2672 C   0  0  0  0  0  0  0  0  0  0  0  0
    1.8851   -1.7892   -0.7054 H   0  0  0  0  0  0  0  0  0  0  0  0
    0.2470   -2.4326   -0.9396 H   0  0  0  0  0  0  0  0  0  0  0  0
    1.2614   -1.9167   -2.7423 C   0  0  0  0  0  0  0  0  0  0  0  0
    0.9537   -1.1646   -3.6530 O   0  0  0  0  0  0  0  0  0  0  0  0
    1.9089   -3.0634   -3.0208 O   0  0  0  0  0  0  0  0  0  0  0  0
    2.0098   -3.0698   -3.9742 H   0  0  0  0  0  0  0  0  0  0  0  0
   -0.4860    1.3537    0.7622 C   0  0  0  0  0  0  0  0  0  0  0  0
   -1.3956    2.0096    0.2582 O   0  0  0  0  0  0  0  0  0  0  0  0
    0.3741    1.8728    1.6466 N   0  0  0  0  0  0  0  0  0  0  0  0
    1.0814    1.2667    2.0345 H   0  0  0  0  0  0  0  0  0  0  0  0
    0.3380    3.2610    2.1024 C   0  0  0  0  0  0  0  0  0  0  0  0
   -0.6389    3.4820    2.5363 H   0  0  0  0  0  0  0  0  0  0  0  0
    1.1108    3.4337    2.8528 H   0  0  0  0  0  0  0  0  0  0  0  0
    0.5009    3.9312    1.2562 H   0  0  0  0  0  0  0  0  0  0  0  0
  5  6  2  0  0  0  0
  5  7  1  0  0  0  0
  2  3  1  0  0  0  0
  2  4  1  0  0  0  0
  2  5  1  0  0  0  0
  1  2  1  0  0  0  0
 21 22  2  0  0  0  0
 21 23  1  0  0  0  0
 19 20  1  0  0  0  0
 17 18  2  0  0  0  0
 17 19  1  0  0  0  0
 14 15  1  0  0  0  0
 14 16  1  0  0  0  0
 14 17  1  0  0  0  0
 11 12  1  0  0  0  0
 11 13  1  0  0  0  0
 11 14  1  0  0  0  0
  9 10  1  0  0  0  0
  9 11  1  0  0  0  0
  9 21  1  0  0  0  0
  7  8  1  0  0  0  0
  7  9  1  0  0  0  0
 25 26  1  0  0  0  0
 25 27  1  0  0  0  0
 25 28  1  0  0  0  0
 23 24  1  0  0  0  0
 23 25  1  0  0  0  0
M  END
$$$$
default_name
  -OEChem-02102213163D

 28 27  0     1  0  0  0  0  0999 V2000
   -3.2133   -3.5565    1.2809 H   0  0  0  0  0  0  0  0  0  0  0  0
   -3.1873   -2.5755    0.8089 C   0  0  0  0  0  0  0  0  0  0  0  0
   -3.8793   -1.9065    1.3169 H   0  0  0  0  0  0  0  0  0  0  0  0
   -3.4623   -2.6685   -0.2401 H   0  0  0  0  0  0  0  0  0  0  0  0
   -1.7863   -2.0195    0.9119 C   0  0  0  0  0  0  0  0  0  0  0  0
   -0.9073   -2.6615    1.4699 O   0  0  0  0  0  0  0  0  0  0  0  0
   -1.5803   -0.8195    0.3749 N   0  0  0  0  0  0  0  0  0  0  0  0
   -2.3603   -0.3345   -0.0451 H   0  0  0  0  0  0  0  0  0  0  0  0
   -0.2933   -0.1205    0.3719 C   0  0  1  0  0  0  0  0  0  0  0  0
    0.3577   -0.5843    1.1143 H   0  0  0  0  0  0  0  0  0  0  0  0
    0.3613   -0.2794   -1.0156 C   0  0  0  0  0  0  0  0  0  0  0  0
   -0.3006    0.1722   -1.7565 H   0  0  0  0  0  0  0  0  0  0  0  0
    1.3079    0.2626   -1.0311 H   0  0  0  0  0  0  0  0  0  0  0  0
    0.6284   -1.7409   -1.4151 C   0  0  0  0  0  0  0  0  0  0  0  0
    1.2909   -2.2096   -0.6873 H   0  0  0  0  0  0  0  0  0  0  0  0
   -0.3158   -2.2837   -1.4391 H   0  0  0  0  0  0  0  0  0  0  0  0
    1.2754   -1.8550   -2.7916 C   0  0  0  0  0  0  0  0  0  0  0  0
    1.4484   -0.9253   -3.5634 O   0  0  0  0  0  0  0  0  0  0  0  0
    1.6608   -3.0938   -3.1503 O   0  0  0  0  0  0  0  0  0  0  0  0
    2.0294   -2.9973   -4.0302 H   0  0  0  0  0  0  0  0  0  0  0  0
   -0.4860    1.3537    0.7622 C   0  0  0  0  0  0  0  0  0  0  0  0
   -1.3956    2.0096    0.2582 O   0  0  0  0  0  0  0  0  0  0  0  0
    0.3741    1.8728    1.6466 N   0  0  0  0  0  0  0  0  0  0  0  0
    1.0814    1.2667    2.0345 H   0  0  0  0  0  0  0  0  0  0  0  0
    0.3380    3.2610    2.1024 C   0  0  0  0  0  0  0  0  0  0  0  0
   -0.6389    3.4820    2.5363 H   0  0  0  0  0  0  0  0  0  0  0  0
    1.1108    3.4337    2.8528 H   0  0  0  0  0  0  0  0  0  0  0  0
    0.5009    3.9312    1.2562 H   0  0  0  0  0  0  0  0  0  0  0  0
  5  6  2  0  0  0  0
  5  7  1  0  0  0  0
  2  3  1  0  0  0  0
  2  4  1  0  0  0  0
  2  5  1  0  0  0  0
  1  2  1  0  0  0  0
 21 22  2  0  0  0  0
 21 23  1  0  0  0  0
 19 20  1  0  0  0  0
 17 18  2  0  0  0  0
 17 19  1  0  0  0  0
 14 15  1  0  0  0  0
 14 16  1  0  0  0  0
 14 17  1  0  0  0  0
 11 12  1  0  0  0  0
 11 13  1  0  0  0  0
 11 14  1  0  0  0  0
  9 10  1  0  0  0  0
  9 11  1  0  0  0  0
  9 21  1  0  0  0  0
  7  8  1  0  0  0  0
  7  9  1  0  0  0  0
 25 26  1  0  0  0  0
 25 27  1  0  0  0  0
 25 28  1  0  0  0  0
 23 24  1  0  0  0  0
 23 25  1  0  0  0  0
M  END
$$$$
default_name
  -OEChem-02102213163D

 28 27  0     1  0  0  0  0  0999 V2000
   -3.2133   -3.5565    1.2809 H   0  0  0  0  0  0  0  0  0  0  0  0
   -3.1873   -2.5755    0.8089 C   0  0  0  0  0  0  0  0  0  0  0  0
   -3.8793   -1.9065    1.3169 H   0  0  0  0  0  0  0  0  0  0  0  0
   -3.4623   -2.6685   -0.2401 H   0  0  0  0  0  0  0  0  0  0  0  0
   -1.7863   -2.0195    0.9119 C   0  0  0  0  0  0  0  0  0  0  0  0
   -0.9073   -2.6615    1.4699 O   0  0  0  0  0  0  0  0  0  0  0  0
   -1.5803   -0.8195    0.3749 N   0  0  0  0  0  0  0  0  0  0  0  0
   -2.3603   -0.3345   -0.0451 H   0  0  0  0  0  0  0  0  0  0  0  0
   -0.2933   -0.1205    0.3719 C   0  0  1  0  0  0  0  0  0  0  0  0
    0.3577   -0.5843    1.1143 H   0  0  0  0  0  0  0  0  0  0  0  0
    0.3613   -0.2794   -1.0156 C   0  0  0  0  0  0  0  0  0  0  0  0
   -0.3006    0.1722   -1.7565 H   0  0  0  0  0  0  0  0  0  0  0  0
    1.3079    0.2626   -1.0311 H   0  0  0  0  0  0  0  0  0  0  0  0
    0.6284   -1.7409   -1.4151 C   0  0  0  0  0  0  0  0  0  0  0  0
    1.0601   -2.2829   -0.5736 H   0  0  0  0  0  0  0  0  0  0  0  0
   -0.3121   -2.2122   -1.6980 H   0  0  0  0  0  0  0  0  0  0  0  0
    1.5876   -1.8515   -2.5959 C   0  0  0  0  0  0  0  0  0  0  0  0
    2.0030   -0.9093   -3.2513 O   0  0  0  0  0  0  0  0  0  0  0  0
    1.9726   -3.1010   -2.9151 O   0  0  0  0  0  0  0  0  0  0  0  0
    2.5526   -2.9996   -3.6718 H   0  0  0  0  0  0  0  0  0  0  0  0
   -0.4860    1.3537    0.7622 C   0  0  0  0  0  0  0  0  0  0  0  0
   -1.3956    2.0096    0.2582 O   0  0  0  0  0  0  0  0  0  0  0  0
    0.3741    1.8728    1.6466 N   0  0  0  0  0  0  0  0  0  0  0  0
    1.0814    1.2667    2.0345 H   0  0  0  0  0  0  0  0  0  0  0  0
    0.3380    3.2610    2.1024 C   0  0  0  0  0  0  0  0  0  0  0  0
   -0.6389    3.4820    2.5363 H   0  0  0  0  0  0  0  0  0  0  0  0
    1.1108    3.4337    2.8528 H   0  0  0  0  0  0  0  0  0  0  0  0
    0.5009    3.9312    1.2562 H   0  0  0  0  0  0  0  0  0  0  0  0
  5  6  2  0  0  0  0
  5  7  1  0  0  0  0
  2  3  1  0  0  0  0
  2  4  1  0  0  0  0
  2  5  1  0  0  0  0
  1  2  1  0  0  0  0
 21 22  2  0  0  0  0
 21 23  1  0  0  0  0
 19 20  1  0  0  0  0
 17 18  2  0  0  0  0
 17 19  1  0  0  0  0
 14 15  1  0  0  0  0
 14 16  1  0  0  0  0
 14 17  1  0  0  0  0
 11 12  1  0  0  0  0
 11 13  1  0  0  0  0
 11 14  1  0  0  0  0
  9 10  1  0  0  0  0
  9 11  1  0  0  0  0
  9 21  1  0  0  0  0
  7  8  1  0  0  0  0
  7  9  1  0  0  0  0
 25 26  1  0  0  0  0
 25 27  1  0  0  0  0
 25 28  1  0  0  0  0
 23 24  1  0  0  0  0
 23 25  1  0  0  0  0
M  END
$$$$
default_name
  -OEChem-02102213163D

 28 27  0     1  0  0  0  0  0999 V2000
   -3.2133   -3.5565    1.2809 H   0  0  0  0  0  0  0  0  0  0  0  0
   -3.1873   -2.5755    0.8089 C   0  0  0  0  0  0  0  0  0  0  0  0
   -3.8793   -1.9065    1.3169 H   0  0  0  0  0  0  0  0  0  0  0  0
   -3.4623   -2.6685   -0.2401 H   0  0  0  0  0  0  0  0  0  0  0  0
   -1.7863   -2.0195    0.9119 C   0  0  0  0  0  0  0  0  0  0  0  0
   -0.9073   -2.6615    1.4699 O   0  0  0  0  0  0  0  0  0  0  0  0
   -1.5803   -0.8195    0.3749 N   0  0  0  0  0  0  0  0  0  0  0  0
   -2.3603   -0.3345   -0.0451 H   0  0  0  0  0  0  0  0  0  0  0  0
   -0.2933   -0.1205    0.3719 C   0  0  1  0  0  0  0  0  0  0  0  0
    0.3577   -0.5843    1.1143 H   0  0  0  0  0  0  0  0  0  0  0  0
    0.3613   -0.2794   -1.0156 C   0  0  0  0  0  0  0  0  0  0  0  0
   -0.3006    0.1722   -1.7565 H   0  0  0  0  0  0  0  0  0  0  0  0
    1.3079    0.2626   -1.0311 H   0  0  0  0  0  0  0  0  0  0  0  0
    0.6284   -1.7409   -1.4151 C   0  0  0  0  0  0  0  0  0  0  0  0
    0.8042   -2.3433   -0.5238 H   0  0  0  0  0  0  0  0  0  0  0  0
   -0.2400   -2.1318   -1.9440 H   0  0  0  0  0  0  0  0  0  0  0  0
    1.8412   -1.8778   -2.3299 C   0  0  0  0  0  0  0  0  0  0  0  0
    2.4631   -0.9451   -2.8127 O   0  0  0  0  0  0  0  0  0  0  0  0
    2.2156   -3.1396   -2.6116 O   0  0  0  0  0  0  0  0  0  0  0  0
    2.9698   -3.0531   -3.1971 H   0  0  0  0  0  0  0  0  0  0  0  0
   -0.4860    1.3537    0.7622 C   0  0  0  0  0  0  0  0  0  0  0  0
   -1.3956    2.0096    0.2582 O   0  0  0  0  0  0  0  0  0  0  0  0
    0.3741    1.8728    1.6466 N   0  0  0  0  0  0  0  0  0  0  0  0
    1.0814    1.2667    2.0345 H   0  0  0  0  0  0  0  0  0  0  0  0
    0.3380    3.2610    2.1024 C   0  0  0  0  0  0  0  0  0  0  0  0
   -0.6389    3.4820    2.5363 H   0  0  0  0  0  0  0  0  0  0  0  0
    1.1108    3.4337    2.8528 H   0  0  0  0  0  0  0  0  0  0  0  0
    0.5009    3.9312    1.2562 H   0  0  0  0  0  0  0  0  0  0  0  0
  5  6  2  0  0  0  0
  5  7  1  0  0  0  0
  2  3  1  0  0  0  0
  2  4  1  0  0  0  0
  2  5  1  0  0  0  0
  1  2  1  0  0  0  0
 21 22  2  0  0  0  0
 21 23  1  0  0  0  0
 19 20  1  0  0  0  0
 17 18  2  0  0  0  0
 17 19  1  0  0  0  0
 14 15  1  0  0  0  0
 14 16  1  0  0  0  0
 14 17  1  0  0  0  0
 11 12  1  0  0  0  0
 11 13  1  0  0  0  0
 11 14  1  0  0  0  0
  9 10  1  0  0  0  0
  9 11  1  0  0  0  0
  9 21  1  0  0  0  0
  7  8  1  0  0  0  0
  7  9  1  0  0  0  0
 25 26  1  0  0  0  0
 25 27  1  0  0  0  0
 25 28  1  0  0  0  0
 23 24  1  0  0  0  0
 23 25  1  0  0  0  0
M  END
$$$$
default_name
  -OEChem-02102213163D

 28 27  0     1  0  0  0  0  0999 V2000
   -3.2133   -3.5565    1.2809 H   0  0  0  0  0  0  0  0  0  0  0  0
   -3.1873   -2.5755    0.8089 C   0  0  0  0  0  0  0  0  0  0  0  0
   -3.8793   -1.9065    1.3169 H   0  0  0  0  0  0  0  0  0  0  0  0
   -3.4623   -2.6685   -0.2401 H   0  0  0  0  0  0  0  0  0  0  0  0
   -1.7863   -2.0195    0.9119 C   0  0  0  0  0  0  0  0  0  0  0  0
   -0.9073   -2.6615    1.4699 O   0  0  0  0  0  0  0  0  0  0  0  0
   -1.5803   -0.8195    0.3749 N   0  0  0  0  0  0  0  0  0  0  0  0
   -2.3603   -0.3345   -0.0451 H   0  0  0  0  0  0  0  0  0  0  0  0
   -0.2933   -0.1205    0.3719 C   0  0  1  0  0  0  0  0  0  0  0  0
    0.3577   -0.5843    1.1143 H   0  0  0  0  0  0  0  0  0  0  0  0
    0.3613   -0.2794   -1.0156 C   0  0  0  0  0  0  0  0  0  0  0  0
   -0.3006    0.1722   -1.7565 H   0  0  0  0  0  0  0  0  0  0  0  0
    1.3079    0.2626   -1.0311 H   0  0  0  0  0  0  0  0  0  0  0  0
    0.6284   -1.7409   -1.4151 C   0  0  0  0  0  0  0  0  0  0  0  0
    0.5408   -2.3867   -0.5413 H   0  0  0  0  0  0  0  0  0  0  0  0
   -0.1046   -2.0479   -2.1602 H   0  0  0  0  0  0  0  0  0  0  0  0
    2.0190   -1.9323   -2.0119 C   0  0  0  0  0  0  0  0  0  0  0  0
    2.7973   -1.0303   -2.2776 O   0  0  0  0  0  0  0  0  0  0  0  0
    2.3730   -3.2069   -2.2604 O   0  0  0  0  0  0  0  0  0  0  0  0
    3.2525   -3.1542   -2.6384 H   0  0  0  0  0  0  0  0  0  0  0  0
   -0.4860    1.3537    0.7622 C   0  0  0  0  0  0  0  0  0  0  0  0
   -1.3956    2.0096    0.2582 O   0  0  0  0  0  0  0  0  0  0  0  0
    0.3741    1.8728    1.6466 N   0  0  0  0  0  0  0  0  0  0  0  0
    1.0814    1.2667    2.0345 H   0  0  0  0  0  0  0  0  0  0  0  0
    0.3380    3.2610    2.1024 C   0  0  0  0  0  0  0  0  0  0  0  0
   -0.6389    3.4820    2.5363 H   0  0  0  0  0  0  0  0  0  0  0  0
    1.1108    3.4337    2.8528 H   0  0  0  0  0  0  0  0  0  0  0  0
    0.5009    3.9312    1.2562 H   0  0  0  0  0  0  0  0  0  0  0  0
  5  6  2  0  0  0  0
  5  7  1  0  0  0  0
  2  3  1  0  0  0  0
  2  4  1  0  0  0  0
  2  5  1  0  0  0  0
  1  2  1  0  0  0  0
 21 22  2  0  0  0  0
 21 23  1  0  0  0  0
 19 20  1  0  0  0  0
 17 18  2  0  0  0  0
 17 19  1  0  0  0  0
 14 15  1  0  0  0  0
 14 16  1  0  0  0  0
 14 17  1  0  0  0  0
 11 12  1  0  0  0  0
 11 13  1  0  0  0  0
 11 14  1  0  0  0  0
  9 10  1  0  0  0  0
  9 11  1  0  0  0  0
  9 21  1  0  0  0  0
  7  8  1  0  0  0  0
  7  9  1  0  0  0  0
 25 26  1  0  0  0  0
 25 27  1  0  0  0  0
 25 28  1  0  0  0  0
 23 24  1  0  0  0  0
 23 25  1  0  0  0  0
M  END
$$$$
default_name
  -OEChem-02102213163D

 28 27  0     1  0  0  0  0  0999 V2000
   -3.2133   -3.5565    1.2809 H   0  0  0  0  0  0  0  0  0  0  0  0
   -3.1873   -2.5755    0.8089 C   0  0  0  0  0  0  0  0  0  0  0  0
   -3.8793   -1.9065    1.3169 H   0  0  0  0  0  0  0  0  0  0  0  0
   -3.4623   -2.6685   -0.2401 H   0  0  0  0  0  0  0  0  0  0  0  0
   -1.7863   -2.0195    0.9119 C   0  0  0  0  0  0  0  0  0  0  0  0
   -0.9073   -2.6615    1.4699 O   0  0  0  0  0  0  0  0  0  0  0  0
   -1.5803   -0.8195    0.3749 N   0  0  0  0  0  0  0  0  0  0  0  0
   -2.3603   -0.3345   -0.0451 H   0  0  0  0  0  0  0  0  0  0  0  0
   -0.2933   -0.1205    0.3719 C   0  0  1  0  0  0  0  0  0  0  0  0
    0.3577   -0.5843    1.1143 H   0  0  0  0  0  0  0  0  0  0  0  0
    0.3613   -0.2794   -1.0156 C   0  0  0  0  0  0  0  0  0  0  0  0
   -0.3006    0.1722   -1.7565 H   0  0  0  0  0  0  0  0  0  0  0  0
    1.3079    0.2626   -1.0311 H   0  0  0  0  0  0  0  0  0  0  0  0
    0.6284   -1.7409   -1.4151 C   0  0  0  0  0  0  0  0  0  0  0  0
    0.2877   -2.4101   -0.6249 H   0  0  0  0  0  0  0  0  0  0  0  0
    0.0851   -1.9663   -2.3320 H   0  0  0  0  0  0  0  0  0  0  0  0
    2.1089   -2.0111   -1.6633 C   0  0  0  0  0  0  0  0  0  0  0  0
    2.9828   -1.1591   -1.6824 O   0  0  0  0  0  0  0  0  0  0  0  0
    2.4341   -3.2982   -1.8855 O   0  0  0  0  0  0  0  0  0  0  0  0
    3.3814   -3.2959   -2.0338 H   0  0  0  0  0  0  0  0  0  0  0  0
   -0.4860    1.3537    0.7622 C   0  0  0  0  0  0  0  0  0  0  0  0
   -1.3956    2.0096    0.2582 O   0  0  0  0  0  0  0  0  0  0  0  0
    0.3741    1.8728    1.6466 N   0  0  0  0  0  0  0  0  0  0  0  0
    1.0814    1.2667    2.0345 H   0  0  0  0  0  0  0  0  0  0  0  0
    0.3380    3.2610    2.1024 C   0  0  0  0  0  0  0  0  0  0  0  0
   -0.6389    3.4820    2.5363 H   0  0  0  0  0  0  0  0  0  0  0  0
    1.1108    3.4337    2.8528 H   0  0  0  0  0  0  0  0  0  0  0  0
    0.5009    3.9312    1.2562 H   0  0  0  0  0  0  0  0  0  0  0  0
  5  6  2  0  0  0  0
  5  7  1  0  0  0  0
  2  3  1  0  0  0  0
  2  4  1  0  0  0  0
  2  5  1  0  0  0  0
  1  2  1  0  0  0  0
 21 22  2  0  0  0  0
 21 23  1  0  0  0  0
 19 20  1  0  0  0  0
 17 18  2  0  0  0  0
 17 19  1  0  0  0  0
 14 15  1  0  0  0  0
 14 16  1  0  0  0  0
 14 17  1  0  0  0  0
 11 12  1  0  0  0  0
 11 13  1  0  0  0  0
 11 14  1  0  0  0  0
  9 10  1  0  0  0  0
  9 11  1  0  0  0  0
  9 21  1  0  0  0  0
  7  8  1  0  0  0  0
  7  9  1  0  0  0  0
 25 26  1  0  0  0  0
 25 27  1  0  0  0  0
 25 28  1  0  0  0  0
 23 24  1  0  0  0  0
 23 25  1  0  0  0  0
M  END
$$$$
default_name
  -OEChem-02102213163D

 28 27  0     1  0  0  0  0  0999 V2000
   -3.2133   -3.5565    1.2809 H   0  0  0  0  0  0  0  0  0  0  0  0
   -3.1873   -2.5755    0.8089 C   0  0  0  0  0  0  0  0  0  0  0  0
   -3.8793   -1.9065    1.3169 H   0  0  0  0  0  0  0  0  0  0  0  0
   -3.4623   -2.6685   -0.2401 H   0  0  0  0  0  0  0  0  0  0  0  0
   -1.7863   -2.0195    0.9119 C   0  0  0  0  0  0  0  0  0  0  0  0
   -0.9073   -2.6615    1.4699 O   0  0  0  0  0  0  0  0  0  0  0  0
   -1.5803   -0.8195    0.3749 N   0  0  0  0  0  0  0  0  0  0  0  0
   -2.3603   -0.3345   -0.0451 H   0  0  0  0  0  0  0  0  0  0  0  0
   -0.2933   -0.1205    0.3719 C   0  0  1  0  0  0  0  0  0  0  0  0
    0.3577   -0.5843    1.1143 H   0  0  0  0  0  0  0  0  0  0  0  0
    0.3613   -0.2794   -1.0156 C   0  0  0  0  0  0  0  0  0  0  0  0
   -0.3006    0.1722   -1.7565 H   0  0  0  0  0  0  0  0  0  0  0  0
    1.3079    0.2626   -1.0311 H   0  0  0  0  0  0  0  0  0  0  0  0
    0.6284   -1.7409   -1.4151 C   0  0  0  0  0  0  0  0  0  0  0  0
    0.0623   -2.4119   -0.7689 H   0  0  0  0  0  0  0  0  0  0  0  0
    0.3160   -1.8925   -2.4477 H   0  0  0  0  0  0  0  0  0  0  0  0
    2.1048   -2.1090   -1.3081 C   0  0  0  0  0  0  0  0  0  0  0  0
    3.0069   -1.3228   -1.0676 O   0  0  0  0  0  0  0  0  0  0  0  0
    2.3949   -3.4073   -1.5124 O   0  0  0  0  0  0  0  0  0  0  0  0
    3.3477   -3.4687   -1.4244 H   0  0  0  0  0  0  0  0  0  0  0  0
   -0.4860    1.3537    0.7622 C   0  0  0  0  0  0  0  0  0  0  0  0
   -1.3956    2.0096    0.2582 O   0  0  0  0  0  0  0  0  0  0  0  0
    0.3741    1.8728    1.6466 N   0  0  0  0  0  0  0  0  0  0  0  0
    1.0814    1.2667    2.0345 H   0  0  0  0  0  0  0  0  0  0  0  0
    0.3380    3.2610    2.1024 C   0  0  0  0  0  0  0  0  0  0  0  0
   -0.6389    3.4820    2.5363 H   0  0  0  0  0  0  0  0  0  0  0  0
    1.1108    3.4337    2.8528 H   0  0  0  0  0  0  0  0  0  0  0  0
    0.5009    3.9312    1.2562 H   0  0  0  0  0  0  0  0  0  0  0  0
  5  6  2  0  0  0  0
  5  7  1  0  0  0  0
  2  3  1  0  0  0  0
  2  4  1  0  0  0  0
  2  5  1  0  0  0  0
  1  2  1  0  0  0  0
 21 22  2  0  0  0  0
 21 23  1  0  0  0  0
 19 20  1  0  0  0  0
 17 18  2  0  0  0  0
 17 19  1  0  0  0  0
 14 15  1  0  0  0  0
 14 16  1  0  0  0  0
 14 17  1  0  0  0  0
 11 12  1  0  0  0  0
 11 13  1  0  0  0  0
 11 14  1  0  0  0  0
  9 10  1  0  0  0  0
  9 11  1  0  0  0  0
  9 21  1  0  0  0  0
  7  8  1  0  0  0  0
  7  9  1  0  0  0  0
 25 26  1  0  0  0  0
 25 27  1  0  0  0  0
 25 28  1  0  0  0  0
 23 24  1  0  0  0  0
 23 25  1  0  0  0  0
M  END
$$$$
default_name
  -OEChem-02102213163D

 28 27  0     1  0  0  0  0  0999 V2000
   -3.2133   -3.5565    1.2809 H   0  0  0  0  0  0  0  0  0  0  0  0
   -3.1873   -2.5755    0.8089 C   0  0  0  0  0  0  0  0  0  0  0  0
   -3.8793   -1.9065    1.3169 H   0  0  0  0  0  0  0  0  0  0  0  0
   -3.4623   -2.6685   -0.2401 H   0  0  0  0  0  0  0  0  0  0  0  0
   -1.7863   -2.0195    0.9119 C   0  0  0  0  0  0  0  0  0  0  0  0
   -0.9073   -2.6615    1.4699 O   0  0  0  0  0  0  0  0  0  0  0  0
   -1.5803   -0.8195    0.3749 N   0  0  0  0  0  0  0  0  0  0  0  0
   -2.3603   -0.3345   -0.0451 H   0  0  0  0  0  0  0  0  0  0  0  0
   -0.2933   -0.1205    0.3719 C   0  0  1  0  0  0  0  0  0  0  0  0
    0.3577   -0.5843    1.1143 H   0  0  0  0  0  0  0  0  0  0  0  0
    0.3613   -0.2794   -1.0156 C   0  0  0  0  0  0  0  0  0  0  0  0
   -0.3006    0.1722   -1.7565 H   0  0  0  0  0  0  0  0  0  0  0  0
    1.3079    0.2626   -1.0311 H   0  0  0  0  0  0  0  0  0  0  0  0
    0.6284   -1.7409   -1.4151 C   0  0  0  0  0  0  0  0  0  0  0  0
   -0.1202   -2.3920   -0.9636 H   0  0  0  0  0  0  0  0  0  0  0  0
    0.5725   -1.8315   -2.4993 H   0  0  0  0  0  0  0  0  0  0  0  0
    2.0069   -2.2192   -0.9705 C   0  0  0  0  0  0  0  0  0  0  0  0
    2.8681   -1.5101   -0.4752 O   0  0  0  0  0  0  0  0  0  0  0  0
    2.2580   -3.5269   -1.1666 O   0  0  0  0  0  0  0  0  0  0  0  0
    3.1537   -3.6606   -0.8519 H   0  0  0  0  0  0  0  0  0  0  0  0
   -0.4860    1.3537    0.7622 C   0  0  0  0  0  0  0  0  0  0  0  0
   -1.3956    2.0096    0.2582 O   0  0  0  0  0  0  0  0  0  0  0  0
    0.3741    1.8728    1.6466 N   0  0  0  0  0  0  0  0  0  0  0  0
    1.0814    1.2667    2.0345 H   0  0  0  0  0  0  0  0  0  0  0  0
    0.3380    3.2610    2.1024 C   0  0  0  0  0  0  0  0  0  0  0  0
   -0.6389    3.4820    2.5363 H   0  0  0  0  0  0  0  0  0  0  0  0
    1.1108    3.4337    2.8528 H   0  0  0  0  0  0  0  0  0  0  0  0
    0.5009    3.9312    1.2562 H   0  0  0  0  0  0  0  0  0  0  0  0
  5  6  2  0  0  0  0
  5  7  1  0  0  0  0
  2  3  1  0  0  0  0
  2  4  1  0  0  0  0
  2  5  1  0  0  0  0
  1  2  1  0  0  0  0
 21 22  2  0  0  0  0
 21 23  1  0  0  0  0
 19 20  1  0  0  0  0
 17 18  2  0  0  0  0
 17 19  1  0  0  0  0
 14 15  1  0  0  0  0
 14 16  1  0  0  0  0
 14 17  1  0  0  0  0
 11 12  1  0  0  0  0
 11 13  1  0  0  0  0
 11 14  1  0  0  0  0
  9 10  1  0  0  0  0
  9 11  1  0  0  0  0
  9 21  1  0  0  0  0
  7  8  1  0  0  0  0
  7  9  1  0  0  0  0
 25 26  1  0  0  0  0
 25 27  1  0  0  0  0
 25 28  1  0  0  0  0
 23 24  1  0  0  0  0
 23 25  1  0  0  0  0
M  END
$$$$
default_name
  -OEChem-02102213163D

 28 27  0     1  0  0  0  0  0999 V2000
   -3.2133   -3.5565    1.2809 H   0  0  0  0  0  0  0  0  0  0  0  0
   -3.1873   -2.5755    0.8089 C   0  0  0  0  0  0  0  0  0  0  0  0
   -3.8793   -1.9065    1.3169 H   0  0  0  0  0  0  0  0  0  0  0  0
   -3.4623   -2.6685   -0.2401 H   0  0  0  0  0  0  0  0  0  0  0  0
   -1.7863   -2.0195    0.9119 C   0  0  0  0  0  0  0  0  0  0  0  0
   -0.9073   -2.6615    1.4699 O   0  0  0  0  0  0  0  0  0  0  0  0
   -1.5803   -0.8195    0.3749 N   0  0  0  0  0  0  0  0  0  0  0  0
   -2.3603   -0.3345   -0.0451 H   0  0  0  0  0  0  0  0  0  0  0  0
   -0.2933   -0.1205    0.3719 C   0  0  1  0  0  0  0  0  0  0  0  0
    0.3577   -0.5843    1.1143 H   0  0  0  0  0  0  0  0  0  0  0  0
    0.3613   -0.2794   -1.0156 C   0  0  0  0  0  0  0  0  0  0  0  0
   -0.3006    0.1722   -1.7565 H   0  0  0  0  0  0  0  0  0  0  0  0
    1.3079    0.2626   -1.0311 H   0  0  0  0  0  0  0  0  0  0  0  0
    0.6284   -1.7409   -1.4151 C   0  0  0  0  0  0  0  0  0  0  0  0
   -0.2473   -2.3518   -1.1956 H   0  0  0  0  0  0  0  0  0  0  0  0
    0.8370   -1.7875   -2.4833 H   0  0  0  0  0  0  0  0  0  0  0  0
    1.8218   -2.3342   -0.6733 C   0  0  0  0  0  0  0  0  0  0  0  0
    2.5758   -1.7083    0.0545 O   0  0  0  0  0  0  0  0  0  0  0  0
    2.0327   -3.6487   -0.8716 O   0  0  0  0  0  0  0  0  0  0  0  0
    2.8127   -3.8588   -0.3552 H   0  0  0  0  0  0  0  0  0  0  0  0
   -0.4860    1.3537    0.7622 C   0  0  0  0  0  0  0  0  0  0  0  0
   -1.3956    2.0096    0.2582 O   0  0  0  0  0  0  0  0  0  0  0  0
    0.3741    1.8728    1.6466 N   0  0  0  0  0  0  0  0  0  0  0  0
    1.0814    1.2667    2.0345 H   0  0  0  0  0  0  0  0  0  0  0  0
    0.3380    3.2610    2.1024 C   0  0  0  0  0  0  0  0  0  0  0  0
   -0.6389    3.4820    2.5363 H   0  0  0  0  0  0  0  0  0  0  0  0
    1.1108    3.4337    2.8528 H   0  0  0  0  0  0  0  0  0  0  0  0
    0.5009    3.9312    1.2562 H   0  0  0  0  0  0  0  0  0  0  0  0
  5  6  2  0  0  0  0
  5  7  1  0  0  0  0
  2  3  1  0  0  0  0
  2  4  1  0  0  0  0
  2  5  1  0  0  0  0
  1  2  1  0  0  0  0
 21 22  2  0  0  0  0
 21 23  1  0  0  0  0
 19 20  1  0  0  0  0
 17 18  2  0  0  0  0
 17 19  1  0  0  0  0
 14 15  1  0  0  0  0
 14 16  1  0  0  0  0
 14 17  1  0  0  0  0
 11 12  1  0  0  0  0
 11 13  1  0  0  0  0
 11 14  1  0  0  0  0
  9 10  1  0  0  0  0
  9 11  1  0  0  0  0
  9 21  1  0  0  0  0
  7  8  1  0  0  0  0
  7  9  1  0  0  0  0
 25 26  1  0  0  0  0
 25 27  1  0  0  0  0
 25 28  1  0  0  0  0
 23 24  1  0  0  0  0
 23 25  1  0  0  0  0
M  END
$$$$
default_name
  -OEChem-02102213163D

 28 27  0     1  0  0  0  0  0999 V2000
   -3.2133   -3.5565    1.2809 H   0  0  0  0  0  0  0  0  0  0  0  0
   -3.1873   -2.5755    0.8089 C   0  0  0  0  0  0  0  0  0  0  0  0
   -3.8793   -1.9065    1.3169 H   0  0  0  0  0  0  0  0  0  0  0  0
   -3.4623   -2.6685   -0.2401 H   0  0  0  0  0  0  0  0  0  0  0  0
   -1.7863   -2.0195    0.9119 C   0  0  0  0  0  0  0  0  0  0  0  0
   -0.9073   -2.6615    1.4699 O   0  0  0  0  0  0  0  0  0  0  0  0
   -1.5803   -0.8195    0.3749 N   0  0  0  0  0  0  0  0  0  0  0  0
   -2.3603   -0.3345   -0.0451 H   0  0  0  0  0  0  0  0  0  0  0  0
   -0.2933   -0.1205    0.3719 C   0  0  1  0  0  0  0  0  0  0  0  0
    0.3577   -0.5843    1.1143 H   0  0  0  0  0  0  0  0  0  0  0  0
    0.3613   -0.2794   -1.0156 C   0  0  0  0  0  0  0  0  0  0  0  0
   -0.3006    0.1722   -1.7565 H   0  0  0  0  0  0  0  0  0  0  0  0
    1.3079    0.2626   -1.0311 H   0  0  0  0  0  0  0  0  0  0  0  0
    0.6284   -1.7409   -1.4151 C   0  0  0  0  0  0  0  0  0  0  0  0
   -0.3103   -2.2940   -1.4491 H   0  0  0  0  0  0  0  0  0  0  0  0
    1.0915   -1.7635   -2.4009 H   0  0  0  0  0  0  0  0  0  0  0  0
    1.5623   -2.4463   -0.4369 C   0  0  0  0  0  0  0  0  0  0  0  0
    2.1499   -1.9040    0.4853 O   0  0  0  0  0  0  0  0  0  0  0  0
    1.7343   -3.7645   -0.6476 O   0  0  0  0  0  0  0  0  0  0  0  0
    2.3479   -4.0495    0.0318 H   0  0  0  0  0  0  0  0  0  0  0  0
   -0.4860    1.3537    0.7622 C   0  0  0  0  0  0  0  0  0  0  0  0
   -1.3956    2.0096    0.2582 O   0  0  0  0  0  0  0  0  0  0  0  0
    0.3741    1.8728    1.6466 N   0  0  0  0  0  0  0  0  0  0  0  0
    1.0814    1.2667    2.0345 H   0  0  0  0  0  0  0  0  0  0  0  0
    0.3380    3.2610    2.1024 C   0  0  0  0  0  0  0  0  0  0  0  0
   -0.6389    3.4820    2.5363 H   0  0  0  0  0  0  0  0  0  0  0  0
    1.1108    3.4337    2.8528 H   0  0  0  0  0  0  0  0  0  0  0  0
    0.5009    3.9312    1.2562 H   0  0  0  0  0  0  0  0  0  0  0  0
  5  6  2  0  0  0  0
  5  7  1  0  0  0  0
  2  3  1  0  0  0  0
  2  4  1  0  0  0  0
  2  5  1  0  0  0  0
  1  2  1  0  0  0  0
 21 22  2  0  0  0  0
 21 23  1  0  0  0  0
 19 20  1  0  0  0  0
 17 18  2  0  0  0  0
 17 19  1  0  0  0  0
 14 15  1  0  0  0  0
 14 16  1  0  0  0  0
 14 17  1  0  0  0  0
 11 12  1  0  0  0  0
 11 13  1  0  0  0  0
 11 14  1  0  0  0  0
  9 10  1  0  0  0  0
  9 11  1  0  0  0  0
  9 21  1  0  0  0  0
  7  8  1  0  0  0  0
  7  9  1  0  0  0  0
 25 26  1  0  0  0  0
 25 27  1  0  0  0  0
 25 28  1  0  0  0  0
 23 24  1  0  0  0  0
 23 25  1  0  0  0  0
M  END
$$$$
default_name
  -OEChem-02102213163D

 28 27  0     1  0  0  0  0  0999 V2000
   -3.2133   -3.5565    1.2809 H   0  0  0  0  0  0  0  0  0  0  0  0
   -3.1873   -2.5755    0.8089 C   0  0  0  0  0  0  0  0  0  0  0  0
   -3.8793   -1.9065    1.3169 H   0  0  0  0  0  0  0  0  0  0  0  0
   -3.4623   -2.6685   -0.2401 H   0  0  0  0  0  0  0  0  0  0  0  0
   -1.7863   -2.0195    0.9119 C   0  0  0  0  0  0  0  0  0  0  0  0
   -0.9073   -2.6615    1.4699 O   0  0  0  0  0  0  0  0  0  0  0  0
   -1.5803   -0.8195    0.3749 N   0  0  0  0  0  0  0  0  0  0  0  0
   -2.3603   -0.3345   -0.0451 H   0  0  0  0  0  0  0  0  0  0  0  0
   -0.2933   -0.1205    0.3719 C   0  0  1  0  0  0  0  0  0  0  0  0
    0.3577   -0.5843    1.1143 H   0  0  0  0  0  0  0  0  0  0  0  0
    0.3613   -0.2794   -1.0156 C   0  0  0  0  0  0  0  0  0  0  0  0
   -0.3006    0.1722   -1.7565 H   0  0  0  0  0  0  0  0  0  0  0  0
    1.3079    0.2626   -1.0311 H   0  0  0  0  0  0  0  0  0  0  0  0
    0.6284   -1.7409   -1.4151 C   0  0  0  0  0  0  0  0  0  0  0  0
   -0.3049   -2.2226   -1.7069 H   0  0  0  0  0  0  0  0  0  0  0  0
    1.3187   -1.7611   -2.2576 H   0  0  0  0  0  0  0  0  0  0  0  0
    1.2460   -2.5477   -0.2775 C   0  0  0  0  0  0  0  0  0  0  0  0
    1.6194   -2.0837    0.7879 O   0  0  0  0  0  0  0  0  0  0  0  0
    1.3832   -3.8664   -0.5097 O   0  0  0  0  0  0  0  0  0  0  0  0
    1.7909   -4.2200    0.2828 H   0  0  0  0  0  0  0  0  0  0  0  0
   -0.4860    1.3537    0.7622 C   0  0  0  0  0  0  0  0  0  0  0  0
   -1.3956    2.0096    0.2582 O   0  0  0  0  0  0  0  0  0  0  0  0
    0.3741    1.8728    1.6466 N   0  0  0  0  0  0  0  0  0  0  0  0
    1.0814    1.2667    2.0345 H   0  0  0  0  0  0  0  0  0  0  0  0
    0.3380    3.2610    2.1024 C   0  0  0  0  0  0  0  0  0  0  0  0
   -0.6389    3.4820    2.5363 H   0  0  0  0  0  0  0  0  0  0  0  0
    1.1108    3.4337    2.8528 H   0  0  0  0  0  0  0  0  0  0  0  0
    0.5009    3.9312    1.2562 H   0  0  0  0  0  0  0  0  0  0  0  0
  5  6  2  0  0  0  0
  5  7  1  0  0  0  0
  2  3  1  0  0  0  0
  2  4  1  0  0  0  0
  2  5  1  0  0  0  0
  1  2  1  0  0  0  0
 21 22  2  0  0  0  0
 21 23  1  0  0  0  0
 19 20  1  0  0  0  0
 17 18  2  0  0  0  0
 17 19  1  0  0  0  0
 14 15  1  0  0  0  0
 14 16  1  0  0  0  0
 14 17  1  0  0  0  0
 11 12  1  0  0  0  0
 11 13  1  0  0  0  0
 11 14  1  0  0  0  0
  9 10  1  0  0  0  0
  9 11  1  0  0  0  0
  9 21  1  0  0  0  0
  7  8  1  0  0  0  0
  7  9  1  0  0  0  0
 25 26  1  0  0  0  0
 25 27  1  0  0  0  0
 25 28  1  0  0  0  0
 23 24  1  0  0  0  0
 23 25  1  0  0  0  0
M  END
$$$$
default_name
  -OEChem-02102213163D

 28 27  0     1  0  0  0  0  0999 V2000
   -3.2133   -3.5565    1.2809 H   0  0  0  0  0  0  0  0  0  0  0  0
   -3.1873   -2.5755    0.8089 C   0  0  0  0  0  0  0  0  0  0  0  0
   -3.8793   -1.9065    1.3169 H   0  0  0  0  0  0  0  0  0  0  0  0
   -3.4623   -2.6685   -0.2401 H   0  0  0  0  0  0  0  0  0  0  0  0
   -1.7863   -2.0195    0.9119 C   0  0  0  0  0  0  0  0  0  0  0  0
   -0.9073   -2.6615    1.4699 O   0  0  0  0  0  0  0  0  0  0  0  0
   -1.5803   -0.8195    0.3749 N   0  0  0  0  0  0  0  0  0  0  0  0
   -2.3603   -0.3345   -0.0451 H   0  0  0  0  0  0  0  0  0  0  0  0
   -0.2933   -0.1205    0.3719 C   0  0  1  0  0  0  0  0  0  0  0  0
    0.3577   -0.5843    1.1143 H   0  0  0  0  0  0  0  0  0  0  0  0
    0.3613   -0.2794   -1.0156 C   0  0  0  0  0  0  0  0  0  0  0  0
   -0.3006    0.1722   -1.7565 H   0  0  0  0  0  0  0  0  0  0  0  0
    1.3079    0.2626   -1.0311 H   0  0  0  0  0  0  0  0  0  0  0  0
    0.6284   -1.7409   -1.4151 C   0  0  0  0  0  0  0  0  0  0  0  0
   -0.2315   -2.1424   -1.9514 H   0  0  0  0  0  0  0  0  0  0  0  0
    1.5031   -1.7806   -2.0633 H   0  0  0  0  0  0  0  0  0  0  0  0
    0.8945   -2.6316   -0.2058 C   0  0  0  0  0  0  0  0  0  0  0  0
    1.0205   -2.2352    0.9418 O   0  0  0  0  0  0  0  0  0  0  0  0
    1.0034   -3.9473   -0.4675 O   0  0  0  0  0  0  0  0  0  0  0  0
    1.1797   -4.3584    0.3806 H   0  0  0  0  0  0  0  0  0  0  0  0
   -0.4860    1.3537    0.7622 C   0  0  0  0  0  0  0  0  0  0  0  0
   -1.3956    2.0096    0.2582 O   0  0  0  0  0  0  0  0  0  0  0  0
    0.3741    1.8728    1.6466 N   0  0  0  0  0  0  0  0  0  0  0  0
    1.0814    1.2667    2.0345 H   0  0  0  0  0  0  0  0  0  0  0  0
    0.3380    3.2610    2.1024 C   0  0  0  0  0  0  0  0  0  0  0  0
   -0.6389    3.4820    2.5363 H   0  0  0  0  0  0  0  0  0  0  0  0
    1.1108    3.4337    2.8528 H   0  0  0  0  0  0  0  0  0  0  0  0
    0.5009    3.9312    1.2562 H   0  0  0  0  0  0  0  0  0  0  0  0
  5  6  2  0  0  0  0
  5  7  1  0  0  0  0
  2  3  1  0  0  0  0
  2  4  1  0  0  0  0
  2  5  1  0  0  0  0
  1  2  1  0  0  0  0
 21 22  2  0  0  0  0
 21 23  1  0  0  0  0
 19 20  1  0  0  0  0
 17 18  2  0  0  0  0
 17 19  1  0  0  0  0
 14 15  1  0  0  0  0
 14 16  1  0  0  0  0
 14 17  1  0  0  0  0
 11 12  1  0  0  0  0
 11 13  1  0  0  0  0
 11 14  1  0  0  0  0
  9 10  1  0  0  0  0
  9 11  1  0  0  0  0
  9 21  1  0  0  0  0
  7  8  1  0  0  0  0
  7  9  1  0  0  0  0
 25 26  1  0  0  0  0
 25 27  1  0  0  0  0
 25 28  1  0  0  0  0
 23 24  1  0  0  0  0
 23 25  1  0  0  0  0
M  END
$$$$
default_name
  -OEChem-02102213163D

 28 27  0     1  0  0  0  0  0999 V2000
   -3.2133   -3.5565    1.2809 H   0  0  0  0  0  0  0  0  0  0  0  0
   -3.1873   -2.5755    0.8089 C   0  0  0  0  0  0  0  0  0  0  0  0
   -3.8793   -1.9065    1.3169 H   0  0  0  0  0  0  0  0  0  0  0  0
   -3.4623   -2.6685   -0.2401 H   0  0  0  0  0  0  0  0  0  0  0  0
   -1.7863   -2.0195    0.9119 C   0  0  0  0  0  0  0  0  0  0  0  0
   -0.9073   -2.6615    1.4699 O   0  0  0  0  0  0  0  0  0  0  0  0
   -1.5803   -0.8195    0.3749 N   0  0  0  0  0  0  0  0  0  0  0  0
   -2.3603   -0.3345   -0.0451 H   0  0  0  0  0  0  0  0  0  0  0  0
   -0.2933   -0.1205    0.3719 C   0  0  1  0  0  0  0  0  0  0  0  0
    0.3577   -0.5843    1.1143 H   0  0  0  0  0  0  0  0  0  0  0  0
    0.3613   -0.2794   -1.0156 C   0  0  0  0  0  0  0  0  0  0  0  0
   -0.3006    0.1722   -1.7565 H   0  0  0  0  0  0  0  0  0  0  0  0
    1.3079    0.2626   -1.0311 H   0  0  0  0  0  0  0  0  0  0  0  0
    0.6284   -1.7409   -1.4151 C   0  0  0  0  0  0  0  0  0  0  0  0
   -0.0952   -2.0588   -2.1658 H   0  0  0  0  0  0  0  0  0  0  0  0
    1.6321   -1.8204   -1.8311 H   0  0  0  0  0  0  0  0  0  0  0  0
    0.5316   -2.6922   -0.2267 C   0  0  0  0  0  0  0  0  0  0  0  0
    0.3940   -2.3482    0.9363 O   0  0  0  0  0  0  0  0  0  0  0  0
    0.6207   -4.0019   -0.5237 O   0  0  0  0  0  0  0  0  0  0  0  0
    0.5560   -4.4555    0.3186 H   0  0  0  0  0  0  0  0  0  0  0  0
   -0.4860    1.3537    0.7622 C   0  0  0  0  0  0  0  0  0  0  0  0
   -1.3956    2.0096    0.2582 O   0  0  0  0  0  0  0  0  0  0  0  0
    0.3741    1.8728    1.6466 N   0  0  0  0  0  0  0  0  0  0  0  0
    1.0814    1.2667    2.0345 H   0  0  0  0  0  0  0  0  0  0  0  0
    0.3380    3.2610    2.1024 C   0  0  0  0  0  0  0  0  0  0  0  0
   -0.6389    3.4820    2.5363 H   0  0  0  0  0  0  0  0  0  0  0  0
    1.1108    3.4337    2.8528 H   0  0  0  0  0  0  0  0  0  0  0  0
    0.5009    3.9312    1.2562 H   0  0  0  0  0  0  0  0  0  0  0  0
  5  6  2  0  0  0  0
  5  7  1  0  0  0  0
  2  3  1  0  0  0  0
  2  4  1  0  0  0  0
  2  5  1  0  0  0  0
  1  2  1  0  0  0  0
 21 22  2  0  0  0  0
 21 23  1  0  0  0  0
 19 20  1  0  0  0  0
 17 18  2  0  0  0  0
 17 19  1  0  0  0  0
 14 15  1  0  0  0  0
 14 16  1  0  0  0  0
 14 17  1  0  0  0  0
 11 12  1  0  0  0  0
 11 13  1  0  0  0  0
 11 14  1  0  0  0  0
  9 10  1  0  0  0  0
  9 11  1  0  0  0  0
  9 21  1  0  0  0  0
  7  8  1  0  0  0  0
  7  9  1  0  0  0  0
 25 26  1  0  0  0  0
 25 27  1  0  0  0  0
 25 28  1  0  0  0  0
 23 24  1  0  0  0  0
 23 25  1  0  0  0  0
M  END
$$$$
default_name
  -OEChem-02102213163D

 28 27  0     1  0  0  0  0  0999 V2000
   -3.2133   -3.5565    1.2809 H   0  0  0  0  0  0  0  0  0  0  0  0
   -3.1873   -2.5755    0.8089 C   0  0  0  0  0  0  0  0  0  0  0  0
   -3.8793   -1.9065    1.3169 H   0  0  0  0  0  0  0  0  0  0  0  0
   -3.4623   -2.6685   -0.2401 H   0  0  0  0  0  0  0  0  0  0  0  0
   -1.7863   -2.0195    0.9119 C   0  0  0  0  0  0  0  0  0  0  0  0
   -0.9073   -2.6615    1.4699 O   0  0  0  0  0  0  0  0  0  0  0  0
   -1.5803   -0.8195    0.3749 N   0  0  0  0  0  0  0  0  0  0  0  0
   -2.3603   -0.3345   -0.0451 H   0  0  0  0  0  0  0  0  0  0  0  0
   -0.2933   -0.1205    0.3719 C   0  0  1  0  0  0  0  0  0  0  0  0
    0.3577   -0.5843    1.1143 H   0  0  0  0  0  0  0  0  0  0  0  0
    0.3613   -0.2794   -1.0156 C   0  0  0  0  0  0  0  0  0  0  0  0
   -0.3006    0.1722   -1.7565 H   0  0  0  0  0  0  0  0  0  0  0  0
    1.3079    0.2626   -1.0311 H   0  0  0  0  0  0  0  0  0  0  0  0
    0.6284   -1.7409   -1.4151 C   0  0  0  0  0  0  0  0  0  0  0  0
    0.0949   -1.9776   -2.3357 H   0  0  0  0  0  0  0  0  0  0  0  0
    1.6969   -1.8781   -1.5769 H   0  0  0  0  0  0  0  0  0  0  0  0
    0.1822   -2.7254   -0.3389 C   0  0  0  0  0  0  0  0  0  0  0  0
   -0.2174   -2.4150    0.7719 O   0  0  0  0  0  0  0  0  0  0  0  0
    0.2611   -4.0264   -0.6745 O   0  0  0  0  0  0  0  0  0  0  0  0
   -0.0377   -4.5045    0.1010 H   0  0  0  0  0  0  0  0  0  0  0  0
   -0.4860    1.3537    0.7622 C   0  0  0  0  0  0  0  0  0  0  0  0
   -1.3956    2.0096    0.2582 O   0  0  0  0  0  0  0  0  0  0  0  0
    0.3741    1.8728    1.6466 N   0  0  0  0  0  0  0  0  0  0  0  0
    1.0814    1.2667    2.0345 H   0  0  0  0  0  0  0  0  0  0  0  0
    0.3380    3.2610    2.1024 C   0  0  0  0  0  0  0  0  0  0  0  0
   -0.6389    3.4820    2.5363 H   0  0  0  0  0  0  0  0  0  0  0  0
    1.1108    3.4337    2.8528 H   0  0  0  0  0  0  0  0  0  0  0  0
    0.5009    3.9312    1.2562 H   0  0  0  0  0  0  0  0  0  0  0  0
  5  6  2  0  0  0  0
  5  7  1  0  0  0  0
  2  3  1  0  0  0  0
  2  4  1  0  0  0  0
  2  5  1  0  0  0  0
  1  2  1  0  0  0  0
 21 22  2  0  0  0  0
 21 23  1  0  0  0  0
 19 20  1  0  0  0  0
 17 18  2  0  0  0  0
 17 19  1  0  0  0  0
 14 15  1  0  0  0  0
 14 16  1  0  0  0  0
 14 17  1  0  0  0  0
 11 12  1  0  0  0  0
 11 13  1  0  0  0  0
 11 14  1  0  0  0  0
  9 10  1  0  0  0  0
  9 11  1  0  0  0  0
  9 21  1  0  0  0  0
  7  8  1  0  0  0  0
  7  9  1  0  0  0  0
 25 26  1  0  0  0  0
 25 27  1  0  0  0  0
 25 28  1  0  0  0  0
 23 24  1  0  0  0  0
 23 25  1  0  0  0  0
M  END
$$$$
default_name
  -OEChem-02102213163D

 28 27  0     1  0  0  0  0  0999 V2000
   -3.2133   -3.5565    1.2809 H   0  0  0  0  0  0  0  0  0  0  0  0
   -3.1873   -2.5755    0.8089 C   0  0  0  0  0  0  0  0  0  0  0  0
   -3.8793   -1.9065    1.3169 H   0  0  0  0  0  0  0  0  0  0  0  0
   -3.4623   -2.6685   -0.2401 H   0  0  0  0  0  0  0  0  0  0  0  0
   -1.7863   -2.0195    0.9119 C   0  0  0  0  0  0  0  0  0  0  0  0
   -0.9073   -2.6615    1.4699 O   0  0  0  0  0  0  0  0  0  0  0  0
   -1.5803   -0.8195    0.3749 N   0  0  0  0  0  0  0  0  0  0  0  0
   -2.3603   -0.3345   -0.0451 H   0  0  0  0  0  0  0  0  0  0  0  0
   -0.2933   -0.1205    0.3719 C   0  0  1  0  0  0  0  0  0  0  0  0
    0.3577   -0.5843    1.1143 H   0  0  0  0  0  0  0  0  0  0  0  0
    0.3613   -0.2794   -1.0156 C   0  0  0  0  0  0  0  0  0  0  0  0
   -0.3006    0.1722   -1.7565 H   0  0  0  0  0  0  0  0  0  0  0  0
    1.3079    0.2626   -1.0311 H   0  0  0  0  0  0  0  0  0  0  0  0
    0.6284   -1.7409   -1.4151 C   0  0  0  0  0  0  0  0  0  0  0  0
    0.3257   -1.9043   -2.4495 H   0  0  0  0  0  0  0  0  0  0  0  0
    1.6932   -1.9495   -1.3180 H   0  0  0  0  0  0  0  0  0  0  0  0
   -0.1299   -2.7289   -0.5346 C   0  0  0  0  0  0  0  0  0  0  0  0
   -0.7720   -2.4311    0.4598 O   0  0  0  0  0  0  0  0  0  0  0  0
   -0.0508   -4.0191   -0.9097 O   0  0  0  0  0  0  0  0  0  0  0  0
   -0.5610   -4.5022   -0.2573 H   0  0  0  0  0  0  0  0  0  0  0  0
   -0.4860    1.3537    0.7622 C   0  0  0  0  0  0  0  0  0  0  0  0
   -1.3956    2.0096    0.2582 O   0  0  0  0  0  0  0  0  0  0  0  0
    0.3741    1.8728    1.6466 N   0  0  0  0  0  0  0  0  0  0  0  0
    1.0814    1.2667    2.0345 H   0  0  0  0  0  0  0  0  0  0  0  0
    0.3380    3.2610    2.1024 C   0  0  0  0  0  0  0  0  0  0  0  0
   -0.6389    3.4820    2.5363 H   0  0  0  0  0  0  0  0  0  0  0  0
    1.1108    3.4337    2.8528 H   0  0  0  0  0  0  0  0  0  0  0  0
    0.5009    3.9312    1.2562 H   0  0  0  0  0  0  0  0  0  0  0  0
  5  6  2  0  0  0  0
  5  7  1  0  0  0  0
  2  3  1  0  0  0  0
  2  4  1  0  0  0  0
  2  5  1  0  0  0  0
  1  2  1  0  0  0  0
 21 22  2  0  0  0  0
 21 23  1  0  0  0  0
 19 20  1  0  0  0  0
 17 18  2  0  0  0  0
 17 19  1  0  0  0  0
 14 15  1  0  0  0  0
 14 16  1  0  0  0  0
 14 17  1  0  0  0  0
 11 12  1  0  0  0  0
 11 13  1  0  0  0  0
 11 14  1  0  0  0  0
  9 10  1  0  0  0  0
  9 11  1  0  0  0  0
  9 21  1  0  0  0  0
  7  8  1  0  0  0  0
  7  9  1  0  0  0  0
 25 26  1  0  0  0  0
 25 27  1  0  0  0  0
 25 28  1  0  0  0  0
 23 24  1  0  0  0  0
 23 25  1  0  0  0  0
M  END
$$$$
default_name
  -OEChem-02102213163D

 28 27  0     1  0  0  0  0  0999 V2000
   -3.2133   -3.5565    1.2809 H   0  0  0  0  0  0  0  0  0  0  0  0
   -3.1873   -2.5755    0.8089 C   0  0  0  0  0  0  0  0  0  0  0  0
   -3.8793   -1.9065    1.3169 H   0  0  0  0  0  0  0  0  0  0  0  0
   -3.4623   -2.6685   -0.2401 H   0  0  0  0  0  0  0  0  0  0  0  0
   -1.7863   -2.0195    0.9119 C   0  0  0  0  0  0  0  0  0  0  0  0
   -0.9073   -2.6615    1.4699 O   0  0  0  0  0  0  0  0  0  0  0  0
   -1.5803   -0.8195    0.3749 N   0  0  0  0  0  0  0  0  0  0  0  0
   -2.3603   -0.3345   -0.0451 H   0  0  0  0  0  0  0  0  0  0  0  0
   -0.2933   -0.1205    0.3719 C   0  0  1  0  0  0  0  0  0  0  0  0
    0.3577   -0.5843    1.1143 H   0  0  0  0  0  0  0  0  0  0  0  0
    0.3613   -0.2794   -1.0156 C   0  0  0  0  0  0  0  0  0  0  0  0
   -0.3006    0.1722   -1.7565 H   0  0  0  0  0  0  0  0  0  0  0  0
    1.3079    0.2626   -1.0311 H   0  0  0  0  0  0  0  0  0  0  0  0
    0.6284   -1.7409   -1.4151 C   0  0  0  0  0  0  0  0  0  0  0  0
    0.5816   -1.8439   -2.4993 H   0  0  0  0  0  0  0  0  0  0  0  0
    1.6212   -2.0299   -1.0721 H   0  0  0  0  0  0  0  0  0  0  0  0
   -0.3835   -2.7026   -0.8006 C   0  0  0  0  0  0  0  0  0  0  0  0
   -1.2321   -2.3953    0.0212 O   0  0  0  0  0  0  0  0  0  0  0  0
   -0.2937   -3.9805   -1.2133 O   0  0  0  0  0  0  0  0  0  0  0  0
   -0.9782   -4.4487   -0.7321 H   0  0  0  0  0  0  0  0  0  0  0  0
   -0.4860    1.3537    0.7622 C   0  0  0  0  0  0  0  0  0  0  0  0
   -1.3956    2.0096    0.2582 O   0  0  0  0  0  0  0  0  0  0  0  0
    0.3741    1.8728    1.6466 N   0  0  0  0  0  0  0  0  0  0  0  0
    1.0814    1.2667    2.0345 H   0  0  0  0  0  0  0  0  0  0  0  0
    0.3380    3.2610    2.1024 C   0  0  0  0  0  0  0  0  0  0  0  0
   -0.6389    3.4820    2.5363 H   0  0  0  0  0  0  0  0  0  0  0  0
    1.1108    3.4337    2.8528 H   0  0  0  0  0  0  0  0  0  0  0  0
    0.5009    3.9312    1.2562 H   0  0  0  0  0  0  0  0  0  0  0  0
  5  6  2  0  0  0  0
  5  7  1  0  0  0  0
  2  3  1  0  0  0  0
  2  4  1  0  0  0  0
  2  5  1  0  0  0  0
  1  2  1  0  0  0  0
 21 22  2  0  0  0  0
 21 23  1  0  0  0  0
 19 20  1  0  0  0  0
 17 18  2  0  0  0  0
 17 19  1  0  0  0  0
 14 15  1  0  0  0  0
 14 16  1  0  0  0  0
 14 17  1  0  0  0  0
 11 12  1  0  0  0  0
 11 13  1  0  0  0  0
 11 14  1  0  0  0  0
  9 10  1  0  0  0  0
  9 11  1  0  0  0  0
  9 21  1  0  0  0  0
  7  8  1  0  0  0  0
  7  9  1  0  0  0  0
 25 26  1  0  0  0  0
 25 27  1  0  0  0  0
 25 28  1  0  0  0  0
 23 24  1  0  0  0  0
 23 25  1  0  0  0  0
M  END
$$$$
default_name
  -OEChem-02102213163D

 28 27  0     1  0  0  0  0  0999 V2000
   -3.2133   -3.5565    1.2809 H   0  0  0  0  0  0  0  0  0  0  0  0
   -3.1873   -2.5755    0.8089 C   0  0  0  0  0  0  0  0  0  0  0  0
   -3.8793   -1.9065    1.3169 H   0  0  0  0  0  0  0  0  0  0  0  0
   -3.4623   -2.6685   -0.2401 H   0  0  0  0  0  0  0  0  0  0  0  0
   -1.7863   -2.0195    0.9119 C   0  0  0  0  0  0  0  0  0  0  0  0
   -0.9073   -2.6615    1.4699 O   0  0  0  0  0  0  0  0  0  0  0  0
   -1.5803   -0.8195    0.3749 N   0  0  0  0  0  0  0  0  0  0  0  0
   -2.3603   -0.3345   -0.0451 H   0  0  0  0  0  0  0  0  0  0  0  0
   -0.2933   -0.1205    0.3719 C   0  0  1  0  0  0  0  0  0  0  0  0
    0.3577   -0.5843    1.1143 H   0  0  0  0  0  0  0  0  0  0  0  0
    0.3613   -0.2794   -1.0156 C   0  0  0  0  0  0  0  0  0  0  0  0
   -0.3006    0.1722   -1.7565 H   0  0  0  0  0  0  0  0  0  0  0  0
    1.3079    0.2626   -1.0311 H   0  0  0  0  0  0  0  0  0  0  0  0
    0.6284   -1.7409   -1.4151 C   0  0  0  0  0  0  0  0  0  0  0  0
    0.8450   -1.8006   -2.4818 H   0  0  0  0  0  0  0  0  0  0  0  0
    1.4857   -2.1138   -0.8558 H   0  0  0  0  0  0  0  0  0  0  0  0
   -0.5614   -2.6481   -1.1186 C   0  0  0  0  0  0  0  0  0  0  0  0
   -1.5663   -2.3101   -0.5139 O   0  0  0  0  0  0  0  0  0  0  0  0
   -0.4511   -3.9133   -1.5644 O   0  0  0  0  0  0  0  0  0  0  0  0
   -1.2609   -4.3476   -1.2908 H   0  0  0  0  0  0  0  0  0  0  0  0
   -0.4860    1.3537    0.7622 C   0  0  0  0  0  0  0  0  0  0  0  0
   -1.3956    2.0096    0.2582 O   0  0  0  0  0  0  0  0  0  0  0  0
    0.3741    1.8728    1.6466 N   0  0  0  0  0  0  0  0  0  0  0  0
    1.0814    1.2667    2.0345 H   0  0  0  0  0  0  0  0  0  0  0  0
    0.3380    3.2610    2.1024 C   0  0  0  0  0  0  0  0  0  0  0  0
   -0.6389    3.4820    2.5363 H   0  0  0  0  0  0  0  0  0  0  0  0
    1.1108    3.4337    2.8528 H   0  0  0  0  0  0  0  0  0  0  0  0
    0.5009    3.9312    1.2562 H   0  0  0  0  0  0  0  0  0  0  0  0
  5  6  2  0  0  0  0
  5  7  1  0  0  0  0
  2  3  1  0  0  0  0
  2  4  1  0  0  0  0
  2  5  1  0  0  0  0
  1  2  1  0  0  0  0
 21 22  2  0  0  0  0
 21 23  1  0  0  0  0
 19 20  1  0  0  0  0
 17 18  2  0  0  0  0
 17 19  1  0  0  0  0
 14 15  1  0  0  0  0
 14 16  1  0  0  0  0
 14 17  1  0  0  0  0
 11 12  1  0  0  0  0
 11 13  1  0  0  0  0
 11 14  1  0  0  0  0
  9 10  1  0  0  0  0
  9 11  1  0  0  0  0
  9 21  1  0  0  0  0
  7  8  1  0  0  0  0
  7  9  1  0  0  0  0
 25 26  1  0  0  0  0
 25 27  1  0  0  0  0
 25 28  1  0  0  0  0
 23 24  1  0  0  0  0
 23 25  1  0  0  0  0
M  END
$$$$
default_name
  -OEChem-02102213163D

 28 27  0     1  0  0  0  0  0999 V2000
   -3.2133   -3.5565    1.2809 H   0  0  0  0  0  0  0  0  0  0  0  0
   -3.1873   -2.5755    0.8089 C   0  0  0  0  0  0  0  0  0  0  0  0
   -3.8793   -1.9065    1.3169 H   0  0  0  0  0  0  0  0  0  0  0  0
   -3.4623   -2.6685   -0.2401 H   0  0  0  0  0  0  0  0  0  0  0  0
   -1.7863   -2.0195    0.9119 C   0  0  0  0  0  0  0  0  0  0  0  0
   -0.9073   -2.6615    1.4699 O   0  0  0  0  0  0  0  0  0  0  0  0
   -1.5803   -0.8195    0.3749 N   0  0  0  0  0  0  0  0  0  0  0  0
   -2.3603   -0.3345   -0.0451 H   0  0  0  0  0  0  0  0  0  0  0  0
   -0.2933   -0.1205    0.3719 C   0  0  1  0  0  0  0  0  0  0  0  0
    0.3577   -0.5843    1.1143 H   0  0  0  0  0  0  0  0  0  0  0  0
    0.3613   -0.2794   -1.0156 C   0  0  0  0  0  0  0  0  0  0  0  0
   -0.3006    0.1722   -1.7565 H   0  0  0  0  0  0  0  0  0  0  0  0
    1.3079    0.2626   -1.0311 H   0  0  0  0  0  0  0  0  0  0  0  0
    0.6284   -1.7409   -1.4151 C   0  0  0  0  0  0  0  0  0  0  0  0
    1.0981   -1.7772   -2.3981 H   0  0  0  0  0  0  0  0  0  0  0  0
    1.2960   -2.1955   -0.6840 H   0  0  0  0  0  0  0  0  0  0  0  0
   -0.6513   -2.5693   -1.4672 C   0  0  0  0  0  0  0  0  0  0  0  0
   -1.7518   -2.1812   -1.1091 O   0  0  0  0  0  0  0  0  0  0  0  0
   -0.5123   -3.8220   -1.9393 O   0  0  0  0  0  0  0  0  0  0  0  0
   -1.3897   -4.2059   -1.8954 H   0  0  0  0  0  0  0  0  0  0  0  0
   -0.4860    1.3537    0.7622 C   0  0  0  0  0  0  0  0  0  0  0  0
   -1.3956    2.0096    0.2582 O   0  0  0  0  0  0  0  0  0  0  0  0
    0.3741    1.8728    1.6466 N   0  0  0  0  0  0  0  0  0  0  0  0
    1.0814    1.2667    2.0345 H   0  0  0  0  0  0  0  0  0  0  0  0
    0.3380    3.2610    2.1024 C   0  0  0  0  0  0  0  0  0  0  0  0
   -0.6389    3.4820    2.5363 H   0  0  0  0  0  0  0  0  0  0  0  0
    1.1108    3.4337    2.8528 H   0  0  0  0  0  0  0  0  0  0  0  0
    0.5009    3.9312    1.2562 H   0  0  0  0  0  0  0  0  0  0  0  0
  5  6  2  0  0  0  0
  5  7  1  0  0  0  0
  2  3  1  0  0  0  0
  2  4  1  0  0  0  0
  2  5  1  0  0  0  0
  1  2  1  0  0  0  0
 21 22  2  0  0  0  0
 21 23  1  0  0  0  0
 19 20  1  0  0  0  0
 17 18  2  0  0  0  0
 17 19  1  0  0  0  0
 14 15  1  0  0  0  0
 14 16  1  0  0  0  0
 14 17  1  0  0  0  0
 11 12  1  0  0  0  0
 11 13  1  0  0  0  0
 11 14  1  0  0  0  0
  9 10  1  0  0  0  0
  9 11  1  0  0  0  0
  9 21  1  0  0  0  0
  7  8  1  0  0  0  0
  7  9  1  0  0  0  0
 25 26  1  0  0  0  0
 25 27  1  0  0  0  0
 25 28  1  0  0  0  0
 23 24  1  0  0  0  0
 23 25  1  0  0  0  0
M  END
$$$$
default_name
  -OEChem-02102213163D

 28 27  0     1  0  0  0  0  0999 V2000
   -3.2133   -3.5565    1.2809 H   0  0  0  0  0  0  0  0  0  0  0  0
   -3.1873   -2.5755    0.8089 C   0  0  0  0  0  0  0  0  0  0  0  0
   -3.8793   -1.9065    1.3169 H   0  0  0  0  0  0  0  0  0  0  0  0
   -3.4623   -2.6685   -0.2401 H   0  0  0  0  0  0  0  0  0  0  0  0
   -1.7863   -2.0195    0.9119 C   0  0  0  0  0  0  0  0  0  0  0  0
   -0.9073   -2.6615    1.4699 O   0  0  0  0  0  0  0  0  0  0  0  0
   -1.5803   -0.8195    0.3749 N   0  0  0  0  0  0  0  0  0  0  0  0
   -2.3603   -0.3345   -0.0451 H   0  0  0  0  0  0  0  0  0  0  0  0
   -0.2933   -0.1205    0.3719 C   0  0  1  0  0  0  0  0  0  0  0  0
    0.3577   -0.5843    1.1143 H   0  0  0  0  0  0  0  0  0  0  0  0
    0.3613   -0.2794   -1.0156 C   0  0  0  0  0  0  0  0  0  0  0  0
   -0.3006    0.1722   -1.7565 H   0  0  0  0  0  0  0  0  0  0  0  0
    1.3079    0.2626   -1.0311 H   0  0  0  0  0  0  0  0  0  0  0  0
    0.6284   -1.7409   -1.4151 C   0  0  0  0  0  0  0  0  0  0  0  0
    1.3235   -1.7754   -2.2541 H   0  0  0  0  0  0  0  0  0  0  0  0
    1.0651   -2.2693   -0.5684 H   0  0  0  0  0  0  0  0  0  0  0  0
   -0.6471   -2.4714   -1.8224 C   0  0  0  0  0  0  0  0  0  0  0  0
   -1.7759   -2.0176   -1.7239 O   0  0  0  0  0  0  0  0  0  0  0  0
   -0.4730   -3.7129   -2.3124 O   0  0  0  0  0  0  0  0  0  0  0  0
   -1.3561   -4.0331   -2.5047 H   0  0  0  0  0  0  0  0  0  0  0  0
   -0.4860    1.3537    0.7622 C   0  0  0  0  0  0  0  0  0  0  0  0
   -1.3956    2.0096    0.2582 O   0  0  0  0  0  0  0  0  0  0  0  0
    0.3741    1.8728    1.6466 N   0  0  0  0  0  0  0  0  0  0  0  0
    1.0814    1.2667    2.0345 H   0  0  0  0  0  0  0  0  0  0  0  0
    0.3380    3.2610    2.1024 C   0  0  0  0  0  0  0  0  0  0  0  0
   -0.6389    3.4820    2.5363 H   0  0  0  0  0  0  0  0  0  0  0  0
    1.1108    3.4337    2.8528 H   0  0  0  0  0  0  0  0  0  0  0  0
    0.5009    3.9312    1.2562 H   0  0  0  0  0  0  0  0  0  0  0  0
  5  6  2  0  0  0  0
  5  7  1  0  0  0  0
  2  3  1  0  0  0  0
  2  4  1  0  0  0  0
  2  5  1  0  0  0  0
  1  2  1  0  0  0  0
 21 22  2  0  0  0  0
 21 23  1  0  0  0  0
 19 20  1  0  0  0  0
 17 18  2  0  0  0  0
 17 19  1  0  0  0  0
 14 15  1  0  0  0  0
 14 16  1  0  0  0  0
 14 17  1  0  0  0  0
 11 12  1  0  0  0  0
 11 13  1  0  0  0  0
 11 14  1  0  0  0  0
  9 10  1  0  0  0  0
  9 11  1  0  0  0  0
  9 21  1  0  0  0  0
  7  8  1  0  0  0  0
  7  9  1  0  0  0  0
 25 26  1  0  0  0  0
 25 27  1  0  0  0  0
 25 28  1  0  0  0  0
 23 24  1  0  0  0  0
 23 25  1  0  0  0  0
M  END
$$$$
default_name
  -OEChem-02102213163D

 28 27  0     1  0  0  0  0  0999 V2000
   -3.2133   -3.5565    1.2809 H   0  0  0  0  0  0  0  0  0  0  0  0
   -3.1873   -2.5755    0.8089 C   0  0  0  0  0  0  0  0  0  0  0  0
   -3.8793   -1.9065    1.3169 H   0  0  0  0  0  0  0  0  0  0  0  0
   -3.4623   -2.6685   -0.2401 H   0  0  0  0  0  0  0  0  0  0  0  0
   -1.7863   -2.0195    0.9119 C   0  0  0  0  0  0  0  0  0  0  0  0
   -0.9073   -2.6615    1.4699 O   0  0  0  0  0  0  0  0  0  0  0  0
   -1.5803   -0.8195    0.3749 N   0  0  0  0  0  0  0  0  0  0  0  0
   -2.3603   -0.3345   -0.0451 H   0  0  0  0  0  0  0  0  0  0  0  0
   -0.2933   -0.1205    0.3719 C   0  0  1  0  0  0  0  0  0  0  0  0
    0.3577   -0.5843    1.1143 H   0  0  0  0  0  0  0  0  0  0  0  0
    0.3613   -0.2794   -1.0156 C   0  0  0  0  0  0  0  0  0  0  0  0
   -0.3006    0.1722   -1.7565 H   0  0  0  0  0  0  0  0  0  0  0  0
    1.3079    0.2626   -1.0311 H   0  0  0  0  0  0  0  0  0  0  0  0
    0.6284   -1.7409   -1.4151 C   0  0  0  0  0  0  0  0  0  0  0  0
    1.5060   -1.7952   -2.0594 H   0  0  0  0  0  0  0  0  0  0  0  0
    0.8087   -2.3303   -0.5168 H   0  0  0  0  0  0  0  0  0  0  0  0
   -0.5492   -2.3612   -2.1600 C   0  0  0  0  0  0  0  0  0  0  0  0
   -1.6371   -1.8303   -2.3163 O   0  0  0  0  0  0  0  0  0  0  0  0
   -0.3361   -3.5933   -2.6582 O   0  0  0  0  0  0  0  0  0  0  0  0
   -1.1621   -3.8412   -3.0772 H   0  0  0  0  0  0  0  0  0  0  0  0
   -0.4860    1.3537    0.7622 C   0  0  0  0  0  0  0  0  0  0  0  0
   -1.3956    2.0096    0.2582 O   0  0  0  0  0  0  0  0  0  0  0  0
    0.3741    1.8728    1.6466 N   0  0  0  0  0  0  0  0  0  0  0  0
    1.0814    1.2667    2.0345 H   0  0  0  0  0  0  0  0  0  0  0  0
    0.3380    3.2610    2.1024 C   0  0  0  0  0  0  0  0  0  0  0  0
   -0.6389    3.4820    2.5363 H   0  0  0  0  0  0  0  0  0  0  0  0
    1.1108    3.4337    2.8528 H   0  0  0  0  0  0  0  0  0  0  0  0
    0.5009    3.9312    1.2562 H   0  0  0  0  0  0  0  0  0  0  0  0
  5  6  2  0  0  0  0
  5  7  1  0  0  0  0
  2  3  1  0  0  0  0
  2  4  1  0  0  0  0
  2  5  1  0  0  0  0
  1  2  1  0  0  0  0
 21 22  2  0  0  0  0
 21 23  1  0  0  0  0
 19 20  1  0  0  0  0
 17 18  2  0  0  0  0
 17 19  1  0  0  0  0
 14 15  1  0  0  0  0
 14 16  1  0  0  0  0
 14 17  1  0  0  0  0
 11 12  1  0  0  0  0
 11 13  1  0  0  0  0
 11 14  1  0  0  0  0
  9 10  1  0  0  0  0
  9 11  1  0  0  0  0
  9 21  1  0  0  0  0
  7  8  1  0  0  0  0
  7  9  1  0  0  0  0
 25 26  1  0  0  0  0
 25 27  1  0  0  0  0
 25 28  1  0  0  0  0
 23 24  1  0  0  0  0
 23 25  1  0  0  0  0
M  END
$$$$
default_name
  -OEChem-02102213163D

 28 27  0     1  0  0  0  0  0999 V2000
   -3.2133   -3.5565    1.2809 H   0  0  0  0  0  0  0  0  0  0  0  0
   -3.1873   -2.5755    0.8089 C   0  0  0  0  0  0  0  0  0  0  0  0
   -3.8793   -1.9065    1.3169 H   0  0  0  0  0  0  0  0  0  0  0  0
   -3.4623   -2.6685   -0.2401 H   0  0  0  0  0  0  0  0  0  0  0  0
   -1.7863   -2.0195    0.9119 C   0  0  0  0  0  0  0  0  0  0  0  0
   -0.9073   -2.6615    1.4699 O   0  0  0  0  0  0  0  0  0  0  0  0
   -1.5803   -0.8195    0.3749 N   0  0  0  0  0  0  0  0  0  0  0  0
   -2.3603   -0.3345   -0.0451 H   0  0  0  0  0  0  0  0  0  0  0  0
   -0.2933   -0.1205    0.3719 C   0  0  1  0  0  0  0  0  0  0  0  0
    0.3577   -0.5843    1.1143 H   0  0  0  0  0  0  0  0  0  0  0  0
    0.3613   -0.2794   -1.0156 C   0  0  0  0  0  0  0  0  0  0  0  0
   -0.3006    0.1722   -1.7565 H   0  0  0  0  0  0  0  0  0  0  0  0
    1.3079    0.2626   -1.0311 H   0  0  0  0  0  0  0  0  0  0  0  0
    0.6284   -1.7409   -1.4151 C   0  0  0  0  0  0  0  0  0  0  0  0
    1.6331   -1.8354   -1.8274 H   0  0  0  0  0  0  0  0  0  0  0  0
    0.5442   -2.3742   -0.5327 H   0  0  0  0  0  0  0  0  0  0  0  0
   -0.3642   -2.2461   -2.4572 C   0  0  0  0  0  0  0  0  0  0  0  0
   -1.3448   -1.6320   -2.8460 O   0  0  0  0  0  0  0  0  0  0  0  0
   -0.1108   -3.4715   -2.9532 O   0  0  0  0  0  0  0  0  0  0  0  0
   -0.8211   -3.6430   -3.5739 H   0  0  0  0  0  0  0  0  0  0  0  0
   -0.4860    1.3537    0.7622 C   0  0  0  0  0  0  0  0  0  0  0  0
   -1.3956    2.0096    0.2582 O   0  0  0  0  0  0  0  0  0  0  0  0
    0.3741    1.8728    1.6466 N   0  0  0  0  0  0  0  0  0  0  0  0
    1.0814    1.2667    2.0345 H   0  0  0  0  0  0  0  0  0  0  0  0
    0.3380    3.2610    2.1024 C   0  0  0  0  0  0  0  0  0  0  0  0
   -0.6389    3.4820    2.5363 H   0  0  0  0  0  0  0  0  0  0  0  0
    1.1108    3.4337    2.8528 H   0  0  0  0  0  0  0  0  0  0  0  0
    0.5009    3.9312    1.2562 H   0  0  0  0  0  0  0  0  0  0  0  0
  5  6  2  0  0  0  0
  5  7  1  0  0  0  0
  2  3  1  0  0  0  0
  2  4  1  0  0  0  0
  2  5  1  0  0  0  0
  1  2  1  0  0  0  0
 21 22  2  0  0  0  0
 21 23  1  0  0  0  0
 19 20  1  0  0  0  0
 17 18  2  0  0  0  0
 17 19  1  0  0  0  0
 14 15  1  0  0  0  0
 14 16  1  0  0  0  0
 14 17  1  0  0  0  0
 11 12  1  0  0  0  0
 11 13  1  0  0  0  0
 11 14  1  0  0  0  0
  9 10  1  0  0  0  0
  9 11  1  0  0  0  0
  9 21  1  0  0  0  0
  7  8  1  0  0  0  0
  7  9  1  0  0  0  0
 25 26  1  0  0  0  0
 25 27  1  0  0  0  0
 25 28  1  0  0  0  0
 23 24  1  0  0  0  0
 23 25  1  0  0  0  0
M  END
$$$$
default_name
  -OEChem-02102213163D

 28 27  0     1  0  0  0  0  0999 V2000
   -3.2133   -3.5565    1.2809 H   0  0  0  0  0  0  0  0  0  0  0  0
   -3.1873   -2.5755    0.8089 C   0  0  0  0  0  0  0  0  0  0  0  0
   -3.8793   -1.9065    1.3169 H   0  0  0  0  0  0  0  0  0  0  0  0
   -3.4623   -2.6685   -0.2401 H   0  0  0  0  0  0  0  0  0  0  0  0
   -1.7863   -2.0195    0.9119 C   0  0  0  0  0  0  0  0  0  0  0  0
   -0.9073   -2.6615    1.4699 O   0  0  0  0  0  0  0  0  0  0  0  0
   -1.5803   -0.8195    0.3749 N   0  0  0  0  0  0  0  0  0  0  0  0
   -2.3603   -0.3345   -0.0451 H   0  0  0  0  0  0  0  0  0  0  0  0
   -0.2933   -0.1205    0.3719 C   0  0  1  0  0  0  0  0  0  0  0  0
    0.3577   -0.5843    1.1143 H   0  0  0  0  0  0  0  0  0  0  0  0
    0.3613   -0.2794   -1.0156 C   0  0  0  0  0  0  0  0  0  0  0  0
   -0.3006    0.1722   -1.7565 H   0  0  0  0  0  0  0  0  0  0  0  0
    1.3079    0.2626   -1.0311 H   0  0  0  0  0  0  0  0  0  0  0  0
    0.6284   -1.7409   -1.4151 C   0  0  0  0  0  0  0  0  0  0  0  0
    1.6961   -1.8932   -1.5739 H   0  0  0  0  0  0  0  0  0  0  0  0
    0.2896   -2.3982   -0.6152 H   0  0  0  0  0  0  0  0  0  0  0  0
   -0.1047   -2.1341   -2.6936 C   0  0  0  0  0  0  0  0  0  0  0  0
   -0.9189   -1.4364   -3.2768 O   0  0  0  0  0  0  0  0  0  0  0  0
    0.1876   -3.3557   -3.1772 O   0  0  0  0  0  0  0  0  0  0  0  0
   -0.3562   -3.4523   -3.9610 H   0  0  0  0  0  0  0  0  0  0  0  0
   -0.4860    1.3537    0.7622 C   0  0  0  0  0  0  0  0  0  0  0  0
   -1.3956    2.0096    0.2582 O   0  0  0  0  0  0  0  0  0  0  0  0
    0.3741    1.8728    1.6466 N   0  0  0  0  0  0  0  0  0  0  0  0
    1.0814    1.2667    2.0345 H   0  0  0  0  0  0  0  0  0  0  0  0
    0.3380    3.2610    2.1024 C   0  0  0  0  0  0  0  0  0  0  0  0
   -0.6389    3.4820    2.5363 H   0  0  0  0  0  0  0  0  0  0  0  0
    1.1108    3.4337    2.8528 H   0  0  0  0  0  0  0  0  0  0  0  0
    0.5009    3.9312    1.2562 H   0  0  0  0  0  0  0  0  0  0  0  0
  5  6  2  0  0  0  0
  5  7  1  0  0  0  0
  2  3  1  0  0  0  0
  2  4  1  0  0  0  0
  2  5  1  0  0  0  0
  1  2  1  0  0  0  0
 21 22  2  0  0  0  0
 21 23  1  0  0  0  0
 19 20  1  0  0  0  0
 17 18  2  0  0  0  0
 17 19  1  0  0  0  0
 14 15  1  0  0  0  0
 14 16  1  0  0  0  0
 14 17  1  0  0  0  0
 11 12  1  0  0  0  0
 11 13  1  0  0  0  0
 11 14  1  0  0  0  0
  9 10  1  0  0  0  0
  9 11  1  0  0  0  0
  9 21  1  0  0  0  0
  7  8  1  0  0  0  0
  7  9  1  0  0  0  0
 25 26  1  0  0  0  0
 25 27  1  0  0  0  0
 25 28  1  0  0  0  0
 23 24  1  0  0  0  0
 23 25  1  0  0  0  0
M  END
$$$$
default_name
  -OEChem-02102213163D

 28 27  0     1  0  0  0  0  0999 V2000
   -3.2133   -3.5565    1.2809 H   0  0  0  0  0  0  0  0  0  0  0  0
   -3.1873   -2.5755    0.8089 C   0  0  0  0  0  0  0  0  0  0  0  0
   -3.8793   -1.9065    1.3169 H   0  0  0  0  0  0  0  0  0  0  0  0
   -3.4623   -2.6685   -0.2401 H   0  0  0  0  0  0  0  0  0  0  0  0
   -1.7863   -2.0195    0.9119 C   0  0  0  0  0  0  0  0  0  0  0  0
   -0.9073   -2.6615    1.4699 O   0  0  0  0  0  0  0  0  0  0  0  0
   -1.5803   -0.8195    0.3749 N   0  0  0  0  0  0  0  0  0  0  0  0
   -2.3603   -0.3345   -0.0451 H   0  0  0  0  0  0  0  0  0  0  0  0
   -0.2933   -0.1205    0.3719 C   0  0  1  0  0  0  0  0  0  0  0  0
    0.3577   -0.5843    1.1143 H   0  0  0  0  0  0  0  0  0  0  0  0
    0.3613   -0.2794   -1.0156 C   0  0  0  0  0  0  0  0  0  0  0  0
   -0.3006    0.1722   -1.7565 H   0  0  0  0  0  0  0  0  0  0  0  0
    1.3079    0.2626   -1.0311 H   0  0  0  0  0  0  0  0  0  0  0  0
    0.6284   -1.7409   -1.4151 C   0  0  0  0  0  0  0  0  0  0  0  0
    1.6907   -1.9647   -1.3161 H   0  0  0  0  0  0  0  0  0  0  0  0
    0.0624   -2.4006   -0.7584 H   0  0  0  0  0  0  0  0  0  0  0  0
    0.2116   -2.0327   -2.8530 C   0  0  0  0  0  0  0  0  0  0  0  0
   -0.3884   -1.2567   -3.5795 O   0  0  0  0  0  0  0  0  0  0  0  0
    0.5387   -3.2538   -3.3151 O   0  0  0  0  0  0  0  0  0  0  0  0
    0.2008   -3.2819   -4.2119 H   0  0  0  0  0  0  0  0  0  0  0  0
   -0.4860    1.3537    0.7622 C   0  0  0  0  0  0  0  0  0  0  0  0
   -1.3956    2.0096    0.2582 O   0  0  0  0  0  0  0  0  0  0  0  0
    0.3741    1.8728    1.6466 N   0  0  0  0  0  0  0  0  0  0  0  0
    1.0814    1.2667    2.0345 H   0  0  0  0  0  0  0  0  0  0  0  0
    0.3380    3.2610    2.1024 C   0  0  0  0  0  0  0  0  0  0  0  0
   -0.6389    3.4820    2.5363 H   0  0  0  0  0  0  0  0  0  0  0  0
    1.1108    3.4337    2.8528 H   0  0  0  0  0  0  0  0  0  0  0  0
    0.5009    3.9312    1.2562 H   0  0  0  0  0  0  0  0  0  0  0  0
  5  6  2  0  0  0  0
  5  7  1  0  0  0  0
  2  3  1  0  0  0  0
  2  4  1  0  0  0  0
  2  5  1  0  0  0  0
  1  2  1  0  0  0  0
 21 22  2  0  0  0  0
 21 23  1  0  0  0  0
 19 20  1  0  0  0  0
 17 18  2  0  0  0  0
 17 19  1  0  0  0  0
 14 15  1  0  0  0  0
 14 16  1  0  0  0  0
 14 17  1  0  0  0  0
 11 12  1  0  0  0  0
 11 13  1  0  0  0  0
 11 14  1  0  0  0  0
  9 10  1  0  0  0  0
  9 11  1  0  0  0  0
  9 21  1  0  0  0  0
  7  8  1  0  0  0  0
  7  9  1  0  0  0  0
 25 26  1  0  0  0  0
 25 27  1  0  0  0  0
 25 28  1  0  0  0  0
 23 24  1  0  0  0  0
 23 25  1  0  0  0  0
M  END
$$$$
default_name
  -OEChem-02102213163D

 28 27  0     1  0  0  0  0  0999 V2000
   -3.2133   -3.5565    1.2809 H   0  0  0  0  0  0  0  0  0  0  0  0
   -3.1873   -2.5755    0.8089 C   0  0  0  0  0  0  0  0  0  0  0  0
   -3.8793   -1.9065    1.3169 H   0  0  0  0  0  0  0  0  0  0  0  0
   -3.4623   -2.6685   -0.2401 H   0  0  0  0  0  0  0  0  0  0  0  0
   -1.7863   -2.0195    0.9119 C   0  0  0  0  0  0  0  0  0  0  0  0
   -0.9073   -2.6615    1.4699 O   0  0  0  0  0  0  0  0  0  0  0  0
   -1.5803   -0.8195    0.3749 N   0  0  0  0  0  0  0  0  0  0  0  0
   -2.3603   -0.3345   -0.0451 H   0  0  0  0  0  0  0  0  0  0  0  0
   -0.2933   -0.1205    0.3719 C   0  0  1  0  0  0  0  0  0  0  0  0
    0.3577   -0.5843    1.1143 H   0  0  0  0  0  0  0  0  0  0  0  0
    0.3613   -0.2794   -1.0156 C   0  0  0  0  0  0  0  0  0  0  0  0
   -0.3006    0.1722   -1.7565 H   0  0  0  0  0  0  0  0  0  0  0  0
    1.3079    0.2626   -1.0311 H   0  0  0  0  0  0  0  0  0  0  0  0
    0.6284   -1.7409   -1.4151 C   0  0  0  0  0  0  0  0  0  0  0  0
    1.6173   -2.0449   -1.0717 H   0  0  0  0  0  0  0  0  0  0  0  0
   -0.1219   -2.3812   -0.9528 H   0  0  0  0  0  0  0  0  0  0  0  0
    0.5632   -1.9488   -2.9247 C   0  0  0  0  0  0  0  0  0  0  0  0
    0.2105   -1.1052   -3.7333 O   0  0  0  0  0  0  0  0  0  0  0  0
    0.9185   -3.1728   -3.3574 O   0  0  0  0  0  0  0  0  0  0  0  0
    0.8119   -3.1434   -4.3098 H   0  0  0  0  0  0  0  0  0  0  0  0
   -0.4860    1.3537    0.7622 C   0  0  0  0  0  0  0  0  0  0  0  0
   -1.3956    2.0096    0.2582 O   0  0  0  0  0  0  0  0  0  0  0  0
    0.3741    1.8728    1.6466 N   0  0  0  0  0  0  0  0  0  0  0  0
    1.0814    1.2667    2.0345 H   0  0  0  0  0  0  0  0  0  0  0  0
    0.3380    3.2610    2.1024 C   0  0  0  0  0  0  0  0  0  0  0  0
   -0.6389    3.4820    2.5363 H   0  0  0  0  0  0  0  0  0  0  0  0
    1.1108    3.4337    2.8528 H   0  0  0  0  0  0  0  0  0  0  0  0
    0.5009    3.9312    1.2562 H   0  0  0  0  0  0  0  0  0  0  0  0
  5  6  2  0  0  0  0
  5  7  1  0  0  0  0
  2  3  1  0  0  0  0
  2  4  1  0  0  0  0
  2  5  1  0  0  0  0
  1  2  1  0  0  0  0
 21 22  2  0  0  0  0
 21 23  1  0  0  0  0
 19 20  1  0  0  0  0
 17 18  2  0  0  0  0
 17 19  1  0  0  0  0
 14 15  1  0  0  0  0
 14 16  1  0  0  0  0
 14 17  1  0  0  0  0
 11 12  1  0  0  0  0
 11 13  1  0  0  0  0
 11 14  1  0  0  0  0
  9 10  1  0  0  0  0
  9 11  1  0  0  0  0
  9 21  1  0  0  0  0
  7  8  1  0  0  0  0
  7  9  1  0  0  0  0
 25 26  1  0  0  0  0
 25 27  1  0  0  0  0
 25 28  1  0  0  0  0
 23 24  1  0  0  0  0
 23 25  1  0  0  0  0
M  END
$$$$
default_name
  -OEChem-02102213163D

 28 27  0     1  0  0  0  0  0999 V2000
   -3.2133   -3.5565    1.2809 H   0  0  0  0  0  0  0  0  0  0  0  0
   -3.1873   -2.5755    0.8089 C   0  0  0  0  0  0  0  0  0  0  0  0
   -3.8793   -1.9065    1.3169 H   0  0  0  0  0  0  0  0  0  0  0  0
   -3.4623   -2.6685   -0.2401 H   0  0  0  0  0  0  0  0  0  0  0  0
   -1.7863   -2.0195    0.9119 C   0  0  0  0  0  0  0  0  0  0  0  0
   -0.9073   -2.6615    1.4699 O   0  0  0  0  0  0  0  0  0  0  0  0
   -1.5803   -0.8195    0.3749 N   0  0  0  0  0  0  0  0  0  0  0  0
   -2.3603   -0.3345   -0.0451 H   0  0  0  0  0  0  0  0  0  0  0  0
   -0.2933   -0.1205    0.3719 C   0  0  1  0  0  0  0  0  0  0  0  0
    0.3577   -0.5843    1.1143 H   0  0  0  0  0  0  0  0  0  0  0  0
    0.3613   -0.2794   -1.0156 C   0  0  0  0  0  0  0  0  0  0  0  0
   -0.3006    0.1722   -1.7565 H   0  0  0  0  0  0  0  0  0  0  0  0
    1.3079    0.2626   -1.0311 H   0  0  0  0  0  0  0  0  0  0  0  0
    0.6284   -1.7409   -1.4151 C   0  0  0  0  0  0  0  0  0  0  0  0
    1.4810   -2.1285   -0.8572 H   0  0  0  0  0  0  0  0  0  0  0  0
   -0.2510   -2.3413   -1.1849 H   0  0  0  0  0  0  0  0  0  0  0  0
    0.9260   -1.8882   -2.9038 C   0  0  0  0  0  0  0  0  0  0  0  0
    0.8370   -0.9922   -3.7278 O   0  0  0  0  0  0  0  0  0  0  0  0
    1.3012   -3.1182   -3.3012 O   0  0  0  0  0  0  0  0  0  0  0  0
    1.4356   -3.0463   -4.2478 H   0  0  0  0  0  0  0  0  0  0  0  0
   -0.4860    1.3537    0.7622 C   0  0  0  0  0  0  0  0  0  0  0  0
   -1.3956    2.0096    0.2582 O   0  0  0  0  0  0  0  0  0  0  0  0
    0.3741    1.8728    1.6466 N   0  0  0  0  0  0  0  0  0  0  0  0
    1.0814    1.2667    2.0345 H   0  0  0  0  0  0  0  0  0  0  0  0
    0.3380    3.2610    2.1024 C   0  0  0  0  0  0  0  0  0  0  0  0
   -0.6389    3.4820    2.5363 H   0  0  0  0  0  0  0  0  0  0  0  0
    1.1108    3.4337    2.8528 H   0  0  0  0  0  0  0  0  0  0  0  0
    0.5009    3.9312    1.2562 H   0  0  0  0  0  0  0  0  0  0  0  0
  5  6  2  0  0  0  0
  5  7  1  0  0  0  0
  2  3  1  0  0  0  0
  2  4  1  0  0  0  0
  2  5  1  0  0  0  0
  1  2  1  0  0  0  0
 21 22  2  0  0  0  0
 21 23  1  0  0  0  0
 19 20  1  0  0  0  0
 17 18  2  0  0  0  0
 17 19  1  0  0  0  0
 14 15  1  0  0  0  0
 14 16  1  0  0  0  0
 14 17  1  0  0  0  0
 11 12  1  0  0  0  0
 11 13  1  0  0  0  0
 11 14  1  0  0  0  0
  9 10  1  0  0  0  0
  9 11  1  0  0  0  0
  9 21  1  0  0  0  0
  7  8  1  0  0  0  0
  7  9  1  0  0  0  0
 25 26  1  0  0  0  0
 25 27  1  0  0  0  0
 25 28  1  0  0  0  0
 23 24  1  0  0  0  0
 23 25  1  0  0  0  0
M  END
$$$$
default_name
  -OEChem-02102213163D

 28 27  0     1  0  0  0  0  0999 V2000
   -3.2133   -3.5565    1.2809 H   0  0  0  0  0  0  0  0  0  0  0  0
   -3.1873   -2.5755    0.8089 C   0  0  0  0  0  0  0  0  0  0  0  0
   -3.8793   -1.9065    1.3169 H   0  0  0  0  0  0  0  0  0  0  0  0
   -3.4623   -2.6685   -0.2401 H   0  0  0  0  0  0  0  0  0  0  0  0
   -1.7863   -2.0195    0.9119 C   0  0  0  0  0  0  0  0  0  0  0  0
   -0.9073   -2.6615    1.4699 O   0  0  0  0  0  0  0  0  0  0  0  0
   -1.5803   -0.8195    0.3749 N   0  0  0  0  0  0  0  0  0  0  0  0
   -2.3603   -0.3345   -0.0451 H   0  0  0  0  0  0  0  0  0  0  0  0
   -0.2933   -0.1205    0.3719 C   0  0  1  0  0  0  0  0  0  0  0  0
    0.3577   -0.5843    1.1143 H   0  0  0  0  0  0  0  0  0  0  0  0
    0.3613   -0.2794   -1.0156 C   0  0  0  0  0  0  0  0  0  0  0  0
   -0.1483    0.3911   -1.7097 H   0  0  0  0  0  0  0  0  0  0  0  0
    1.4075    0.0242   -0.9568 H   0  0  0  0  0  0  0  0  0  0  0  0
    0.2987   -1.7116   -1.5740 C   0  0  0  0  0  0  0  0  0  0  0  0
    0.8053   -2.3974   -0.8948 H   0  0  0  0  0  0  0  0  0  0  0  0
   -0.7438   -2.0122   -1.6721 H   0  0  0  0  0  0  0  0  0  0  0  0
    0.9559   -1.8266   -2.9456 C   0  0  0  0  0  0  0  0  0  0  0  0
    1.3697   -0.8865   -3.6050 O   0  0  0  0  0  0  0  0  0  0  0  0
    1.0581   -3.0756   -3.4367 O   0  0  0  0  0  0  0  0  0  0  0  0
    1.4736   -2.9749   -4.2949 H   0  0  0  0  0  0  0  0  0  0  0  0
   -0.4860    1.3537    0.7622 C   0  0  0  0  0  0  0  0  0  0  0  0
   -1.3956    2.0096    0.2582 O   0  0  0  0  0  0  0  0  0  0  0  0
    0.3741    1.8728    1.6466 N   0  0  0  0  0  0  0  0  0  0  0  0
    1.0814    1.2667    2.0345 H   0  0  0  0  0  0  0  0  0  0  0  0
    0.3380    3.2610    2.1024 C   0  0  0  0  0  0  0  0  0  0  0  0
   -0.6389    3.4820    2.5363 H   0  0  0  0  0  0  0  0  0  0  0  0
    1.1108    3.4337    2.8528 H   0  0  0  0  0  0  0  0  0  0  0  0
    0.5009    3.9312    1.2562 H   0  0  0  0  0  0  0  0  0  0  0  0
  5  6  2  0  0  0  0
  5  7  1  0  0  0  0
  2  3  1  0  0  0  0
  2  4  1  0  0  0  0
  2  5  1  0  0  0  0
  1  2  1  0  0  0  0
 21 22  2  0  0  0  0
 21 23  1  0  0  0  0
 19 20  1  0  0  0  0
 17 18  2  0  0  0  0
 17 19  1  0  0  0  0
 14 15  1  0  0  0  0
 14 16  1  0  0  0  0
 14 17  1  0  0  0  0
 11 12  1  0  0  0  0
 11 13  1  0  0  0  0
 11 14  1  0  0  0  0
  9 10  1  0  0  0  0
  9 11  1  0  0  0  0
  9 21  1  0  0  0  0
  7  8  1  0  0  0  0
  7  9  1  0  0  0  0
 25 26  1  0  0  0  0
 25 27  1  0  0  0  0
 25 28  1  0  0  0  0
 23 24  1  0  0  0  0
 23 25  1  0  0  0  0
M  END
$$$$
default_name
  -OEChem-02102213163D

 28 27  0     1  0  0  0  0  0999 V2000
   -3.2133   -3.5565    1.2809 H   0  0  0  0  0  0  0  0  0  0  0  0
   -3.1873   -2.5755    0.8089 C   0  0  0  0  0  0  0  0  0  0  0  0
   -3.8793   -1.9065    1.3169 H   0  0  0  0  0  0  0  0  0  0  0  0
   -3.4623   -2.6685   -0.2401 H   0  0  0  0  0  0  0  0  0  0  0  0
   -1.7863   -2.0195    0.9119 C   0  0  0  0  0  0  0  0  0  0  0  0
   -0.9073   -2.6615    1.4699 O   0  0  0  0  0  0  0  0  0  0  0  0
   -1.5803   -0.8195    0.3749 N   0  0  0  0  0  0  0  0  0  0  0  0
   -2.3603   -0.3345   -0.0451 H   0  0  0  0  0  0  0  0  0  0  0  0
   -0.2933   -0.1205    0.3719 C   0  0  1  0  0  0  0  0  0  0  0  0
    0.3577   -0.5843    1.1143 H   0  0  0  0  0  0  0  0  0  0  0  0
    0.3613   -0.2794   -1.0156 C   0  0  0  0  0  0  0  0  0  0  0  0
   -0.1483    0.3911   -1.7097 H   0  0  0  0  0  0  0  0  0  0  0  0
    1.4075    0.0242   -0.9568 H   0  0  0  0  0  0  0  0  0  0  0  0
    0.2987   -1.7116   -1.5740 C   0  0  0  0  0  0  0  0  0  0  0  0
    0.5595   -2.4263   -0.7933 H   0  0  0  0  0  0  0  0  0  0  0  0
   -0.7133   -1.9164   -1.9212 H   0  0  0  0  0  0  0  0  0  0  0  0
    1.2523   -1.9172   -2.7465 C   0  0  0  0  0  0  0  0  0  0  0  0
    1.9002   -1.0342   -3.2855 O   0  0  0  0  0  0  0  0  0  0  0  0
    1.3503   -3.1809   -3.1996 O   0  0  0  0  0  0  0  0  0  0  0  0
    1.9675   -3.1380   -3.9320 H   0  0  0  0  0  0  0  0  0  0  0  0
   -0.4860    1.3537    0.7622 C   0  0  0  0  0  0  0  0  0  0  0  0
   -1.3956    2.0096    0.2582 O   0  0  0  0  0  0  0  0  0  0  0  0
    0.3741    1.8728    1.6466 N   0  0  0  0  0  0  0  0  0  0  0  0
    1.0814    1.2667    2.0345 H   0  0  0  0  0  0  0  0  0  0  0  0
    0.3380    3.2610    2.1024 C   0  0  0  0  0  0  0  0  0  0  0  0
   -0.6389    3.4820    2.5363 H   0  0  0  0  0  0  0  0  0  0  0  0
    1.1108    3.4337    2.8528 H   0  0  0  0  0  0  0  0  0  0  0  0
    0.5009    3.9312    1.2562 H   0  0  0  0  0  0  0  0  0  0  0  0
  5  6  2  0  0  0  0
  5  7  1  0  0  0  0
  2  3  1  0  0  0  0
  2  4  1  0  0  0  0
  2  5  1  0  0  0  0
  1  2  1  0  0  0  0
 21 22  2  0  0  0  0
 21 23  1  0  0  0  0
 19 20  1  0  0  0  0
 17 18  2  0  0  0  0
 17 19  1  0  0  0  0
 14 15  1  0  0  0  0
 14 16  1  0  0  0  0
 14 17  1  0  0  0  0
 11 12  1  0  0  0  0
 11 13  1  0  0  0  0
 11 14  1  0  0  0  0
  9 10  1  0  0  0  0
  9 11  1  0  0  0  0
  9 21  1  0  0  0  0
  7  8  1  0  0  0  0
  7  9  1  0  0  0  0
 25 26  1  0  0  0  0
 25 27  1  0  0  0  0
 25 28  1  0  0  0  0
 23 24  1  0  0  0  0
 23 25  1  0  0  0  0
M  END
$$$$
default_name
  -OEChem-02102213163D

 28 27  0     1  0  0  0  0  0999 V2000
   -3.2133   -3.5565    1.2809 H   0  0  0  0  0  0  0  0  0  0  0  0
   -3.1873   -2.5755    0.8089 C   0  0  0  0  0  0  0  0  0  0  0  0
   -3.8793   -1.9065    1.3169 H   0  0  0  0  0  0  0  0  0  0  0  0
   -3.4623   -2.6685   -0.2401 H   0  0  0  0  0  0  0  0  0  0  0  0
   -1.7863   -2.0195    0.9119 C   0  0  0  0  0  0  0  0  0  0  0  0
   -0.9073   -2.6615    1.4699 O   0  0  0  0  0  0  0  0  0  0  0  0
   -1.5803   -0.8195    0.3749 N   0  0  0  0  0  0  0  0  0  0  0  0
   -2.3603   -0.3345   -0.0451 H   0  0  0  0  0  0  0  0  0  0  0  0
   -0.2933   -0.1205    0.3719 C   0  0  1  0  0  0  0  0  0  0  0  0
    0.3577   -0.5843    1.1143 H   0  0  0  0  0  0  0  0  0  0  0  0
    0.3613   -0.2794   -1.0156 C   0  0  0  0  0  0  0  0  0  0  0  0
   -0.1483    0.3911   -1.7097 H   0  0  0  0  0  0  0  0  0  0  0  0
    1.4075    0.0242   -0.9568 H   0  0  0  0  0  0  0  0  0  0  0  0
    0.2987   -1.7116   -1.5740 C   0  0  0  0  0  0  0  0  0  0  0  0
    0.2949   -2.4300   -0.7541 H   0  0  0  0  0  0  0  0  0  0  0  0
   -0.6149   -1.8294   -2.1555 H   0  0  0  0  0  0  0  0  0  0  0  0
    1.4822   -2.0305   -2.4818 C   0  0  0  0  0  0  0  0  0  0  0  0
    2.3217   -1.2234   -2.8476 O   0  0  0  0  0  0  0  0  0  0  0  0
    1.5654   -3.3074   -2.8991 O   0  0  0  0  0  0  0  0  0  0  0  0
    2.3419   -3.3381   -3.4607 H   0  0  0  0  0  0  0  0  0  0  0  0
   -0.4860    1.3537    0.7622 C   0  0  0  0  0  0  0  0  0  0  0  0
   -1.3956    2.0096    0.2582 O   0  0  0  0  0  0  0  0  0  0  0  0
    0.3741    1.8728    1.6466 N   0  0  0  0  0  0  0  0  0  0  0  0
    1.0814    1.2667    2.0345 H   0  0  0  0  0  0  0  0  0  0  0  0
    0.3380    3.2610    2.1024 C   0  0  0  0  0  0  0  0  0  0  0  0
   -0.6389    3.4820    2.5363 H   0  0  0  0  0  0  0  0  0  0  0  0
    1.1108    3.4337    2.8528 H   0  0  0  0  0  0  0  0  0  0  0  0
    0.5009    3.9312    1.2562 H   0  0  0  0  0  0  0  0  0  0  0  0
  5  6  2  0  0  0  0
  5  7  1  0  0  0  0
  2  3  1  0  0  0  0
  2  4  1  0  0  0  0
  2  5  1  0  0  0  0
  1  2  1  0  0  0  0
 21 22  2  0  0  0  0
 21 23  1  0  0  0  0
 19 20  1  0  0  0  0
 17 18  2  0  0  0  0
 17 19  1  0  0  0  0
 14 15  1  0  0  0  0
 14 16  1  0  0  0  0
 14 17  1  0  0  0  0
 11 12  1  0  0  0  0
 11 13  1  0  0  0  0
 11 14  1  0  0  0  0
  9 10  1  0  0  0  0
  9 11  1  0  0  0  0
  9 21  1  0  0  0  0
  7  8  1  0  0  0  0
  7  9  1  0  0  0  0
 25 26  1  0  0  0  0
 25 27  1  0  0  0  0
 25 28  1  0  0  0  0
 23 24  1  0  0  0  0
 23 25  1  0  0  0  0
M  END
$$$$
default_name
  -OEChem-02102213163D

 28 27  0     1  0  0  0  0  0999 V2000
   -3.2133   -3.5565    1.2809 H   0  0  0  0  0  0  0  0  0  0  0  0
   -3.1873   -2.5755    0.8089 C   0  0  0  0  0  0  0  0  0  0  0  0
   -3.8793   -1.9065    1.3169 H   0  0  0  0  0  0  0  0  0  0  0  0
   -3.4623   -2.6685   -0.2401 H   0  0  0  0  0  0  0  0  0  0  0  0
   -1.7863   -2.0195    0.9119 C   0  0  0  0  0  0  0  0  0  0  0  0
   -0.9073   -2.6615    1.4699 O   0  0  0  0  0  0  0  0  0  0  0  0
   -1.5803   -0.8195    0.3749 N   0  0  0  0  0  0  0  0  0  0  0  0
   -2.3603   -0.3345   -0.0451 H   0  0  0  0  0  0  0  0  0  0  0  0
   -0.2933   -0.1205    0.3719 C   0  0  1  0  0  0  0  0  0  0  0  0
    0.3577   -0.5843    1.1143 H   0  0  0  0  0  0  0  0  0  0  0  0
    0.3613   -0.2794   -1.0156 C   0  0  0  0  0  0  0  0  0  0  0  0
   -0.1483    0.3911   -1.7097 H   0  0  0  0  0  0  0  0  0  0  0  0
    1.4075    0.0242   -0.9568 H   0  0  0  0  0  0  0  0  0  0  0  0
    0.2987   -1.7116   -1.5740 C   0  0  0  0  0  0  0  0  0  0  0  0
    0.0295   -2.4083   -0.7800 H   0  0  0  0  0  0  0  0  0  0  0  0
   -0.4552   -1.7570   -2.3590 H   0  0  0  0  0  0  0  0  0  0  0  0
    1.6299   -2.1587   -2.1695 C   0  0  0  0  0  0  0  0  0  0  0  0
    2.6056   -1.4412   -2.3210 O   0  0  0  0  0  0  0  0  0  0  0  0
    1.6889   -3.4467   -2.5556 O   0  0  0  0  0  0  0  0  0  0  0  0
    2.5711   -3.5616   -2.9132 H   0  0  0  0  0  0  0  0  0  0  0  0
   -0.4860    1.3537    0.7622 C   0  0  0  0  0  0  0  0  0  0  0  0
   -1.3956    2.0096    0.2582 O   0  0  0  0  0  0  0  0  0  0  0  0
    0.3741    1.8728    1.6466 N   0  0  0  0  0  0  0  0  0  0  0  0
    1.0814    1.2667    2.0345 H   0  0  0  0  0  0  0  0  0  0  0  0
    0.3380    3.2610    2.1024 C   0  0  0  0  0  0  0  0  0  0  0  0
   -0.6389    3.4820    2.5363 H   0  0  0  0  0  0  0  0  0  0  0  0
    1.1108    3.4337    2.8528 H   0  0  0  0  0  0  0  0  0  0  0  0
    0.5009    3.9312    1.2562 H   0  0  0  0  0  0  0  0  0  0  0  0
  5  6  2  0  0  0  0
  5  7  1  0  0  0  0
  2  3  1  0  0  0  0
  2  4  1  0  0  0  0
  2  5  1  0  0  0  0
  1  2  1  0  0  0  0
 21 22  2  0  0  0  0
 21 23  1  0  0  0  0
 19 20  1  0  0  0  0
 17 18  2  0  0  0  0
 17 19  1  0  0  0  0
 14 15  1  0  0  0  0
 14 16  1  0  0  0  0
 14 17  1  0  0  0  0
 11 12  1  0  0  0  0
 11 13  1  0  0  0  0
 11 14  1  0  0  0  0
  9 10  1  0  0  0  0
  9 11  1  0  0  0  0
  9 21  1  0  0  0  0
  7  8  1  0  0  0  0
  7  9  1  0  0  0  0
 25 26  1  0  0  0  0
 25 27  1  0  0  0  0
 25 28  1  0  0  0  0
 23 24  1  0  0  0  0
 23 25  1  0  0  0  0
M  END
$$$$
default_name
  -OEChem-02102213163D

 28 27  0     1  0  0  0  0  0999 V2000
   -3.2133   -3.5565    1.2809 H   0  0  0  0  0  0  0  0  0  0  0  0
   -3.1873   -2.5755    0.8089 C   0  0  0  0  0  0  0  0  0  0  0  0
   -3.8793   -1.9065    1.3169 H   0  0  0  0  0  0  0  0  0  0  0  0
   -3.4623   -2.6685   -0.2401 H   0  0  0  0  0  0  0  0  0  0  0  0
   -1.7863   -2.0195    0.9119 C   0  0  0  0  0  0  0  0  0  0  0  0
   -0.9073   -2.6615    1.4699 O   0  0  0  0  0  0  0  0  0  0  0  0
   -1.5803   -0.8195    0.3749 N   0  0  0  0  0  0  0  0  0  0  0  0
   -2.3603   -0.3345   -0.0451 H   0  0  0  0  0  0  0  0  0  0  0  0
   -0.2933   -0.1205    0.3719 C   0  0  1  0  0  0  0  0  0  0  0  0
    0.3577   -0.5843    1.1143 H   0  0  0  0  0  0  0  0  0  0  0  0
    0.3613   -0.2794   -1.0156 C   0  0  0  0  0  0  0  0  0  0  0  0
   -0.1483    0.3911   -1.7097 H   0  0  0  0  0  0  0  0  0  0  0  0
    1.4075    0.0242   -0.9568 H   0  0  0  0  0  0  0  0  0  0  0  0
    0.2987   -1.7116   -1.5740 C   0  0  0  0  0  0  0  0  0  0  0  0
   -0.2186   -2.3627   -0.8692 H   0  0  0  0  0  0  0  0  0  0  0  0
   -0.2452   -1.7043   -2.5178 H   0  0  0  0  0  0  0  0  0  0  0  0
    1.6852   -2.2931   -1.8309 C   0  0  0  0  0  0  0  0  0  0  0  0
    2.7325   -1.6726   -1.7416 O   0  0  0  0  0  0  0  0  0  0  0  0
    1.7124   -3.5893   -2.1926 O   0  0  0  0  0  0  0  0  0  0  0  0
    2.6396   -3.7933   -2.3268 H   0  0  0  0  0  0  0  0  0  0  0  0
   -0.4860    1.3537    0.7622 C   0  0  0  0  0  0  0  0  0  0  0  0
   -1.3956    2.0096    0.2582 O   0  0  0  0  0  0  0  0  0  0  0  0
    0.3741    1.8728    1.6466 N   0  0  0  0  0  0  0  0  0  0  0  0
    1.0814    1.2667    2.0345 H   0  0  0  0  0  0  0  0  0  0  0  0
    0.3380    3.2610    2.1024 C   0  0  0  0  0  0  0  0  0  0  0  0
   -0.6389    3.4820    2.5363 H   0  0  0  0  0  0  0  0  0  0  0  0
    1.1108    3.4337    2.8528 H   0  0  0  0  0  0  0  0  0  0  0  0
    0.5009    3.9312    1.2562 H   0  0  0  0  0  0  0  0  0  0  0  0
  5  6  2  0  0  0  0
  5  7  1  0  0  0  0
  2  3  1  0  0  0  0
  2  4  1  0  0  0  0
  2  5  1  0  0  0  0
  1  2  1  0  0  0  0
 21 22  2  0  0  0  0
 21 23  1  0  0  0  0
 19 20  1  0  0  0  0
 17 18  2  0  0  0  0
 17 19  1  0  0  0  0
 14 15  1  0  0  0  0
 14 16  1  0  0  0  0
 14 17  1  0  0  0  0
 11 12  1  0  0  0  0
 11 13  1  0  0  0  0
 11 14  1  0  0  0  0
  9 10  1  0  0  0  0
  9 11  1  0  0  0  0
  9 21  1  0  0  0  0
  7  8  1  0  0  0  0
  7  9  1  0  0  0  0
 25 26  1  0  0  0  0
 25 27  1  0  0  0  0
 25 28  1  0  0  0  0
 23 24  1  0  0  0  0
 23 25  1  0  0  0  0
M  END
$$$$
default_name
  -OEChem-02102213163D

 28 27  0     1  0  0  0  0  0999 V2000
   -3.2133   -3.5565    1.2809 H   0  0  0  0  0  0  0  0  0  0  0  0
   -3.1873   -2.5755    0.8089 C   0  0  0  0  0  0  0  0  0  0  0  0
   -3.8793   -1.9065    1.3169 H   0  0  0  0  0  0  0  0  0  0  0  0
   -3.4623   -2.6685   -0.2401 H   0  0  0  0  0  0  0  0  0  0  0  0
   -1.7863   -2.0195    0.9119 C   0  0  0  0  0  0  0  0  0  0  0  0
   -0.9073   -2.6615    1.4699 O   0  0  0  0  0  0  0  0  0  0  0  0
   -1.5803   -0.8195    0.3749 N   0  0  0  0  0  0  0  0  0  0  0  0
   -2.3603   -0.3345   -0.0451 H   0  0  0  0  0  0  0  0  0  0  0  0
   -0.2933   -0.1205    0.3719 C   0  0  1  0  0  0  0  0  0  0  0  0
    0.3577   -0.5843    1.1143 H   0  0  0  0  0  0  0  0  0  0  0  0
    0.3613   -0.2794   -1.0156 C   0  0  0  0  0  0  0  0  0  0  0  0
   -0.1483    0.3911   -1.7097 H   0  0  0  0  0  0  0  0  0  0  0  0
    1.4075    0.0242   -0.9568 H   0  0  0  0  0  0  0  0  0  0  0  0
    0.2987   -1.7116   -1.5740 C   0  0  0  0  0  0  0  0  0  0  0  0
   -0.4325   -2.2963   -1.0156 H   0  0  0  0  0  0  0  0  0  0  0  0
    0.0010   -1.6747   -2.6212 H   0  0  0  0  0  0  0  0  0  0  0  0
    1.6444   -2.4246   -1.4891 C   0  0  0  0  0  0  0  0  0  0  0  0
    2.6937   -1.9020   -1.1490 O   0  0  0  0  0  0  0  0  0  0  0  0
    1.6342   -3.7254   -1.8349 O   0  0  0  0  0  0  0  0  0  0  0  0
    2.5427   -4.0173   -1.7414 H   0  0  0  0  0  0  0  0  0  0  0  0
   -0.4860    1.3537    0.7622 C   0  0  0  0  0  0  0  0  0  0  0  0
   -1.3956    2.0096    0.2582 O   0  0  0  0  0  0  0  0  0  0  0  0
    0.3741    1.8728    1.6466 N   0  0  0  0  0  0  0  0  0  0  0  0
    1.0814    1.2667    2.0345 H   0  0  0  0  0  0  0  0  0  0  0  0
    0.3380    3.2610    2.1024 C   0  0  0  0  0  0  0  0  0  0  0  0
   -0.6389    3.4820    2.5363 H   0  0  0  0  0  0  0  0  0  0  0  0
    1.1108    3.4337    2.8528 H   0  0  0  0  0  0  0  0  0  0  0  0
    0.5009    3.9312    1.2562 H   0  0  0  0  0  0  0  0  0  0  0  0
  5  6  2  0  0  0  0
  5  7  1  0  0  0  0
  2  3  1  0  0  0  0
  2  4  1  0  0  0  0
  2  5  1  0  0  0  0
  1  2  1  0  0  0  0
 21 22  2  0  0  0  0
 21 23  1  0  0  0  0
 19 20  1  0  0  0  0
 17 18  2  0  0  0  0
 17 19  1  0  0  0  0
 14 15  1  0  0  0  0
 14 16  1  0  0  0  0
 14 17  1  0  0  0  0
 11 12  1  0  0  0  0
 11 13  1  0  0  0  0
 11 14  1  0  0  0  0
  9 10  1  0  0  0  0
  9 11  1  0  0  0  0
  9 21  1  0  0  0  0
  7  8  1  0  0  0  0
  7  9  1  0  0  0  0
 25 26  1  0  0  0  0
 25 27  1  0  0  0  0
 25 28  1  0  0  0  0
 23 24  1  0  0  0  0
 23 25  1  0  0  0  0
M  END
$$$$
default_name
  -OEChem-02102213163D

 28 27  0     1  0  0  0  0  0999 V2000
   -3.2133   -3.5565    1.2809 H   0  0  0  0  0  0  0  0  0  0  0  0
   -3.1873   -2.5755    0.8089 C   0  0  0  0  0  0  0  0  0  0  0  0
   -3.8793   -1.9065    1.3169 H   0  0  0  0  0  0  0  0  0  0  0  0
   -3.4623   -2.6685   -0.2401 H   0  0  0  0  0  0  0  0  0  0  0  0
   -1.7863   -2.0195    0.9119 C   0  0  0  0  0  0  0  0  0  0  0  0
   -0.9073   -2.6615    1.4699 O   0  0  0  0  0  0  0  0  0  0  0  0
   -1.5803   -0.8195    0.3749 N   0  0  0  0  0  0  0  0  0  0  0  0
   -2.3603   -0.3345   -0.0451 H   0  0  0  0  0  0  0  0  0  0  0  0
   -0.2933   -0.1205    0.3719 C   0  0  1  0  0  0  0  0  0  0  0  0
    0.3577   -0.5843    1.1143 H   0  0  0  0  0  0  0  0  0  0  0  0
    0.3613   -0.2794   -1.0156 C   0  0  0  0  0  0  0  0  0  0  0  0
   -0.1483    0.3911   -1.7097 H   0  0  0  0  0  0  0  0  0  0  0  0
    1.4075    0.0242   -0.9568 H   0  0  0  0  0  0  0  0  0  0  0  0
    0.2987   -1.7116   -1.5740 C   0  0  0  0  0  0  0  0  0  0  0  0
   -0.5976   -2.2135   -1.2092 H   0  0  0  0  0  0  0  0  0  0  0  0
    0.2664   -1.6704   -2.6621 H   0  0  0  0  0  0  0  0  0  0  0  0
    1.5103   -2.5442   -1.1675 C   0  0  0  0  0  0  0  0  0  0  0  0
    2.4919   -2.1137   -0.5835 O   0  0  0  0  0  0  0  0  0  0  0  0
    1.4597   -3.8457   -1.5067 O   0  0  0  0  0  0  0  0  0  0  0  0
    2.2870   -4.2184   -1.1969 H   0  0  0  0  0  0  0  0  0  0  0  0
   -0.4860    1.3537    0.7622 C   0  0  0  0  0  0  0  0  0  0  0  0
   -1.3956    2.0096    0.2582 O   0  0  0  0  0  0  0  0  0  0  0  0
    0.3741    1.8728    1.6466 N   0  0  0  0  0  0  0  0  0  0  0  0
    1.0814    1.2667    2.0345 H   0  0  0  0  0  0  0  0  0  0  0  0
    0.3380    3.2610    2.1024 C   0  0  0  0  0  0  0  0  0  0  0  0
   -0.6389    3.4820    2.5363 H   0  0  0  0  0  0  0  0  0  0  0  0
    1.1108    3.4337    2.8528 H   0  0  0  0  0  0  0  0  0  0  0  0
    0.5009    3.9312    1.2562 H   0  0  0  0  0  0  0  0  0  0  0  0
  5  6  2  0  0  0  0
  5  7  1  0  0  0  0
  2  3  1  0  0  0  0
  2  4  1  0  0  0  0
  2  5  1  0  0  0  0
  1  2  1  0  0  0  0
 21 22  2  0  0  0  0
 21 23  1  0  0  0  0
 19 20  1  0  0  0  0
 17 18  2  0  0  0  0
 17 19  1  0  0  0  0
 14 15  1  0  0  0  0
 14 16  1  0  0  0  0
 14 17  1  0  0  0  0
 11 12  1  0  0  0  0
 11 13  1  0  0  0  0
 11 14  1  0  0  0  0
  9 10  1  0  0  0  0
  9 11  1  0  0  0  0
  9 21  1  0  0  0  0
  7  8  1  0  0  0  0
  7  9  1  0  0  0  0
 25 26  1  0  0  0  0
 25 27  1  0  0  0  0
 25 28  1  0  0  0  0
 23 24  1  0  0  0  0
 23 25  1  0  0  0  0
M  END
$$$$
default_name
  -OEChem-02102213163D

 28 27  0     1  0  0  0  0  0999 V2000
   -3.2133   -3.5565    1.2809 H   0  0  0  0  0  0  0  0  0  0  0  0
   -3.1873   -2.5755    0.8089 C   0  0  0  0  0  0  0  0  0  0  0  0
   -3.8793   -1.9065    1.3169 H   0  0  0  0  0  0  0  0  0  0  0  0
   -3.4623   -2.6685   -0.2401 H   0  0  0  0  0  0  0  0  0  0  0  0
   -1.7863   -2.0195    0.9119 C   0  0  0  0  0  0  0  0  0  0  0  0
   -0.9073   -2.6615    1.4699 O   0  0  0  0  0  0  0  0  0  0  0  0
   -1.5803   -0.8195    0.3749 N   0  0  0  0  0  0  0  0  0  0  0  0
   -2.3603   -0.3345   -0.0451 H   0  0  0  0  0  0  0  0  0  0  0  0
   -0.2933   -0.1205    0.3719 C   0  0  1  0  0  0  0  0  0  0  0  0
    0.3577   -0.5843    1.1143 H   0  0  0  0  0  0  0  0  0  0  0  0
    0.3613   -0.2794   -1.0156 C   0  0  0  0  0  0  0  0  0  0  0  0
   -0.1483    0.3911   -1.7097 H   0  0  0  0  0  0  0  0  0  0  0  0
    1.4075    0.0242   -0.9568 H   0  0  0  0  0  0  0  0  0  0  0  0
    0.2987   -1.7116   -1.5740 C   0  0  0  0  0  0  0  0  0  0  0  0
   -0.7026   -2.1202   -1.4369 H   0  0  0  0  0  0  0  0  0  0  0  0
    0.5330   -1.6915   -2.6377 H   0  0  0  0  0  0  0  0  0  0  0  0
    1.2921   -2.6437   -0.8878 C   0  0  0  0  0  0  0  0  0  0  0  0
    2.1409   -2.2932   -0.0837 O   0  0  0  0  0  0  0  0  0  0  0  0
    1.2008   -3.9421   -1.2305 O   0  0  0  0  0  0  0  0  0  0  0  0
    1.8900   -4.3830   -0.7305 H   0  0  0  0  0  0  0  0  0  0  0  0
   -0.4860    1.3537    0.7622 C   0  0  0  0  0  0  0  0  0  0  0  0
   -1.3956    2.0096    0.2582 O   0  0  0  0  0  0  0  0  0  0  0  0
    0.3741    1.8728    1.6466 N   0  0  0  0  0  0  0  0  0  0  0  0
    1.0814    1.2667    2.0345 H   0  0  0  0  0  0  0  0  0  0  0  0
    0.3380    3.2610    2.1024 C   0  0  0  0  0  0  0  0  0  0  0  0
   -0.6389    3.4820    2.5363 H   0  0  0  0  0  0  0  0  0  0  0  0
    1.1108    3.4337    2.8528 H   0  0  0  0  0  0  0  0  0  0  0  0
    0.5009    3.9312    1.2562 H   0  0  0  0  0  0  0  0  0  0  0  0
  5  6  2  0  0  0  0
  5  7  1  0  0  0  0
  2  3  1  0  0  0  0
  2  4  1  0  0  0  0
  2  5  1  0  0  0  0
  1  2  1  0  0  0  0
 21 22  2  0  0  0  0
 21 23  1  0  0  0  0
 19 20  1  0  0  0  0
 17 18  2  0  0  0  0
 17 19  1  0  0  0  0
 14 15  1  0  0  0  0
 14 16  1  0  0  0  0
 14 17  1  0  0  0  0
 11 12  1  0  0  0  0
 11 13  1  0  0  0  0
 11 14  1  0  0  0  0
  9 10  1  0  0  0  0
  9 11  1  0  0  0  0
  9 21  1  0  0  0  0
  7  8  1  0  0  0  0
  7  9  1  0  0  0  0
 25 26  1  0  0  0  0
 25 27  1  0  0  0  0
 25 28  1  0  0  0  0
 23 24  1  0  0  0  0
 23 25  1  0  0  0  0
M  END
$$$$
default_name
  -OEChem-02102213163D

 28 27  0     1  0  0  0  0  0999 V2000
   -3.2133   -3.5565    1.2809 H   0  0  0  0  0  0  0  0  0  0  0  0
   -3.1873   -2.5755    0.8089 C   0  0  0  0  0  0  0  0  0  0  0  0
   -3.8793   -1.9065    1.3169 H   0  0  0  0  0  0  0  0  0  0  0  0
   -3.4623   -2.6685   -0.2401 H   0  0  0  0  0  0  0  0  0  0  0  0
   -1.7863   -2.0195    0.9119 C   0  0  0  0  0  0  0  0  0  0  0  0
   -0.9073   -2.6615    1.4699 O   0  0  0  0  0  0  0  0  0  0  0  0
   -1.5803   -0.8195    0.3749 N   0  0  0  0  0  0  0  0  0  0  0  0
   -2.3603   -0.3345   -0.0451 H   0  0  0  0  0  0  0  0  0  0  0  0
   -0.2933   -0.1205    0.3719 C   0  0  1  0  0  0  0  0  0  0  0  0
    0.3577   -0.5843    1.1143 H   0  0  0  0  0  0  0  0  0  0  0  0
    0.3613   -0.2794   -1.0156 C   0  0  0  0  0  0  0  0  0  0  0  0
   -0.1483    0.3911   -1.7097 H   0  0  0  0  0  0  0  0  0  0  0  0
    1.4075    0.0242   -0.9568 H   0  0  0  0  0  0  0  0  0  0  0  0
    0.2987   -1.7116   -1.5740 C   0  0  0  0  0  0  0  0  0  0  0  0
   -0.7404   -2.0225   -1.6831 H   0  0  0  0  0  0  0  0  0  0  0  0
    0.7827   -1.7368   -2.5496 H   0  0  0  0  0  0  0  0  0  0  0  0
    1.0045   -2.7164   -0.6691 C   0  0  0  0  0  0  0  0  0  0  0  0
    1.6645   -2.4284    0.3164 O   0  0  0  0  0  0  0  0  0  0  0  0
    0.8751   -4.0080   -1.0250 O   0  0  0  0  0  0  0  0  0  0  0  0
    1.3786   -4.4997   -0.3739 H   0  0  0  0  0  0  0  0  0  0  0  0
   -0.4860    1.3537    0.7622 C   0  0  0  0  0  0  0  0  0  0  0  0
   -1.3956    2.0096    0.2582 O   0  0  0  0  0  0  0  0  0  0  0  0
    0.3741    1.8728    1.6466 N   0  0  0  0  0  0  0  0  0  0  0  0
    1.0814    1.2667    2.0345 H   0  0  0  0  0  0  0  0  0  0  0  0
    0.3380    3.2610    2.1024 C   0  0  0  0  0  0  0  0  0  0  0  0
   -0.6389    3.4820    2.5363 H   0  0  0  0  0  0  0  0  0  0  0  0
    1.1108    3.4337    2.8528 H   0  0  0  0  0  0  0  0  0  0  0  0
    0.5009    3.9312    1.2562 H   0  0  0  0  0  0  0  0  0  0  0  0
  5  6  2  0  0  0  0
  5  7  1  0  0  0  0
  2  3  1  0  0  0  0
  2  4  1  0  0  0  0
  2  5  1  0  0  0  0
  1  2  1  0  0  0  0
 21 22  2  0  0  0  0
 21 23  1  0  0  0  0
 19 20  1  0  0  0  0
 17 18  2  0  0  0  0
 17 19  1  0  0  0  0
 14 15  1  0  0  0  0
 14 16  1  0  0  0  0
 14 17  1  0  0  0  0
 11 12  1  0  0  0  0
 11 13  1  0  0  0  0
 11 14  1  0  0  0  0
  9 10  1  0  0  0  0
  9 11  1  0  0  0  0
  9 21  1  0  0  0  0
  7  8  1  0  0  0  0
  7  9  1  0  0  0  0
 25 26  1  0  0  0  0
 25 27  1  0  0  0  0
 25 28  1  0  0  0  0
 23 24  1  0  0  0  0
 23 25  1  0  0  0  0
M  END
$$$$
default_name
  -OEChem-02102213163D

 28 27  0     1  0  0  0  0  0999 V2000
   -3.2133   -3.5565    1.2809 H   0  0  0  0  0  0  0  0  0  0  0  0
   -3.1873   -2.5755    0.8089 C   0  0  0  0  0  0  0  0  0  0  0  0
   -3.8793   -1.9065    1.3169 H   0  0  0  0  0  0  0  0  0  0  0  0
   -3.4623   -2.6685   -0.2401 H   0  0  0  0  0  0  0  0  0  0  0  0
   -1.7863   -2.0195    0.9119 C   0  0  0  0  0  0  0  0  0  0  0  0
   -0.9073   -2.6615    1.4699 O   0  0  0  0  0  0  0  0  0  0  0  0
   -1.5803   -0.8195    0.3749 N   0  0  0  0  0  0  0  0  0  0  0  0
   -2.3603   -0.3345   -0.0451 H   0  0  0  0  0  0  0  0  0  0  0  0
   -0.2933   -0.1205    0.3719 C   0  0  1  0  0  0  0  0  0  0  0  0
    0.3577   -0.5843    1.1143 H   0  0  0  0  0  0  0  0  0  0  0  0
    0.3613   -0.2794   -1.0156 C   0  0  0  0  0  0  0  0  0  0  0  0
   -0.1483    0.3911   -1.7097 H   0  0  0  0  0  0  0  0  0  0  0  0
    1.4075    0.0242   -0.9568 H   0  0  0  0  0  0  0  0  0  0  0  0
    0.2987   -1.7116   -1.5740 C   0  0  0  0  0  0  0  0  0  0  0  0
   -0.7084   -1.9272   -1.9311 H   0  0  0  0  0  0  0  0  0  0  0  0
    0.9984   -1.8030   -2.4039 H   0  0  0  0  0  0  0  0  0  0  0  0
    0.6673   -2.7573   -0.5265 C   0  0  0  0  0  0  0  0  0  0  0  0
    1.0953   -2.5100    0.5895 O   0  0  0  0  0  0  0  0  0  0  0  0
    0.5048   -4.0389   -0.9044 O   0  0  0  0  0  0  0  0  0  0  0  0
    0.7878   -4.5606   -0.1514 H   0  0  0  0  0  0  0  0  0  0  0  0
   -0.4860    1.3537    0.7622 C   0  0  0  0  0  0  0  0  0  0  0  0
   -1.3956    2.0096    0.2582 O   0  0  0  0  0  0  0  0  0  0  0  0
    0.3741    1.8728    1.6466 N   0  0  0  0  0  0  0  0  0  0  0  0
    1.0814    1.2667    2.0345 H   0  0  0  0  0  0  0  0  0  0  0  0
    0.3380    3.2610    2.1024 C   0  0  0  0  0  0  0  0  0  0  0  0
   -0.6389    3.4820    2.5363 H   0  0  0  0  0  0  0  0  0  0  0  0
    1.1108    3.4337    2.8528 H   0  0  0  0  0  0  0  0  0  0  0  0
    0.5009    3.9312    1.2562 H   0  0  0  0  0  0  0  0  0  0  0  0
  5  6  2  0  0  0  0
  5  7  1  0  0  0  0
  2  3  1  0  0  0  0
  2  4  1  0  0  0  0
  2  5  1  0  0  0  0
  1  2  1  0  0  0  0
 21 22  2  0  0  0  0
 21 23  1  0  0  0  0
 19 20  1  0  0  0  0
 17 18  2  0  0  0  0
 17 19  1  0  0  0  0
 14 15  1  0  0  0  0
 14 16  1  0  0  0  0
 14 17  1  0  0  0  0
 11 12  1  0  0  0  0
 11 13  1  0  0  0  0
 11 14  1  0  0  0  0
  9 10  1  0  0  0  0
  9 11  1  0  0  0  0
  9 21  1  0  0  0  0
  7  8  1  0  0  0  0
  7  9  1  0  0  0  0
 25 26  1  0  0  0  0
 25 27  1  0  0  0  0
 25 28  1  0  0  0  0
 23 24  1  0  0  0  0
 23 25  1  0  0  0  0
M  END
$$$$
default_name
  -OEChem-02102213163D

 28 27  0     1  0  0  0  0  0999 V2000
   -3.2133   -3.5565    1.2809 H   0  0  0  0  0  0  0  0  0  0  0  0
   -3.1873   -2.5755    0.8089 C   0  0  0  0  0  0  0  0  0  0  0  0
   -3.8793   -1.9065    1.3169 H   0  0  0  0  0  0  0  0  0  0  0  0
   -3.4623   -2.6685   -0.2401 H   0  0  0  0  0  0  0  0  0  0  0  0
   -1.7863   -2.0195    0.9119 C   0  0  0  0  0  0  0  0  0  0  0  0
   -0.9073   -2.6615    1.4699 O   0  0  0  0  0  0  0  0  0  0  0  0
   -1.5803   -0.8195    0.3749 N   0  0  0  0  0  0  0  0  0  0  0  0
   -2.3603   -0.3345   -0.0451 H   0  0  0  0  0  0  0  0  0  0  0  0
   -0.2933   -0.1205    0.3719 C   0  0  1  0  0  0  0  0  0  0  0  0
    0.3577   -0.5843    1.1143 H   0  0  0  0  0  0  0  0  0  0  0  0
    0.3613   -0.2794   -1.0156 C   0  0  0  0  0  0  0  0  0  0  0  0
   -0.1483    0.3911   -1.7097 H   0  0  0  0  0  0  0  0  0  0  0  0
    1.4075    0.0242   -0.9568 H   0  0  0  0  0  0  0  0  0  0  0  0
    0.2987   -1.7116   -1.5740 C   0  0  0  0  0  0  0  0  0  0  0  0
   -0.6088   -1.8408   -2.1639 H   0  0  0  0  0  0  0  0  0  0  0  0
    1.1655   -1.8857   -2.2105 H   0  0  0  0  0  0  0  0  0  0  0  0
    0.3033   -2.7636   -0.4695 C   0  0  0  0  0  0  0  0  0  0  0  0
    0.4719   -2.5325    0.7171 O   0  0  0  0  0  0  0  0  0  0  0  0
    0.1152   -4.0326   -0.8767 O   0  0  0  0  0  0  0  0  0  0  0  0
    0.1578   -4.5616   -0.0782 H   0  0  0  0  0  0  0  0  0  0  0  0
   -0.4860    1.3537    0.7622 C   0  0  0  0  0  0  0  0  0  0  0  0
   -1.3956    2.0096    0.2582 O   0  0  0  0  0  0  0  0  0  0  0  0
    0.3741    1.8728    1.6466 N   0  0  0  0  0  0  0  0  0  0  0  0
    1.0814    1.2667    2.0345 H   0  0  0  0  0  0  0  0  0  0  0  0
    0.3380    3.2610    2.1024 C   0  0  0  0  0  0  0  0  0  0  0  0
   -0.6389    3.4820    2.5363 H   0  0  0  0  0  0  0  0  0  0  0  0
    1.1108    3.4337    2.8528 H   0  0  0  0  0  0  0  0  0  0  0  0
    0.5009    3.9312    1.2562 H   0  0  0  0  0  0  0  0  0  0  0  0
  5  6  2  0  0  0  0
  5  7  1  0  0  0  0
  2  3  1  0  0  0  0
  2  4  1  0  0  0  0
  2  5  1  0  0  0  0
  1  2  1  0  0  0  0
 21 22  2  0  0  0  0
 21 23  1  0  0  0  0
 19 20  1  0  0  0  0
 17 18  2  0  0  0  0
 17 19  1  0  0  0  0
 14 15  1  0  0  0  0
 14 16  1  0  0  0  0
 14 17  1  0  0  0  0
 11 12  1  0  0  0  0
 11 13  1  0  0  0  0
 11 14  1  0  0  0  0
  9 10  1  0  0  0  0
  9 11  1  0  0  0  0
  9 21  1  0  0  0  0
  7  8  1  0  0  0  0
  7  9  1  0  0  0  0
 25 26  1  0  0  0  0
 25 27  1  0  0  0  0
 25 28  1  0  0  0  0
 23 24  1  0  0  0  0
 23 25  1  0  0  0  0
M  END
$$$$
default_name
  -OEChem-02102213163D

 28 27  0     1  0  0  0  0  0999 V2000
   -3.2133   -3.5565    1.2809 H   0  0  0  0  0  0  0  0  0  0  0  0
   -3.1873   -2.5755    0.8089 C   0  0  0  0  0  0  0  0  0  0  0  0
   -3.8793   -1.9065    1.3169 H   0  0  0  0  0  0  0  0  0  0  0  0
   -3.4623   -2.6685   -0.2401 H   0  0  0  0  0  0  0  0  0  0  0  0
   -1.7863   -2.0195    0.9119 C   0  0  0  0  0  0  0  0  0  0  0  0
   -0.9073   -2.6615    1.4699 O   0  0  0  0  0  0  0  0  0  0  0  0
   -1.5803   -0.8195    0.3749 N   0  0  0  0  0  0  0  0  0  0  0  0
   -2.3603   -0.3345   -0.0451 H   0  0  0  0  0  0  0  0  0  0  0  0
   -0.2933   -0.1205    0.3719 C   0  0  1  0  0  0  0  0  0  0  0  0
    0.3577   -0.5843    1.1143 H   0  0  0  0  0  0  0  0  0  0  0  0
    0.3613   -0.2794   -1.0156 C   0  0  0  0  0  0  0  0  0  0  0  0
   -0.1483    0.3911   -1.7097 H   0  0  0  0  0  0  0  0  0  0  0  0
    1.4075    0.0242   -0.9568 H   0  0  0  0  0  0  0  0  0  0  0  0
    0.2987   -1.7116   -1.5740 C   0  0  0  0  0  0  0  0  0  0  0  0
   -0.4484   -1.7691   -2.3657 H   0  0  0  0  0  0  0  0  0  0  0  0
    1.2724   -1.9793   -1.9826 H   0  0  0  0  0  0  0  0  0  0  0  0
   -0.0626   -2.7349   -0.5021 C   0  0  0  0  0  0  0  0  0  0  0  0
   -0.1630   -2.4944    0.6903 O   0  0  0  0  0  0  0  0  0  0  0  0
   -0.2673   -3.9897   -0.9440 O   0  0  0  0  0  0  0  0  0  0  0  0
   -0.4685   -4.5026   -0.1593 H   0  0  0  0  0  0  0  0  0  0  0  0
   -0.4860    1.3537    0.7622 C   0  0  0  0  0  0  0  0  0  0  0  0
   -1.3956    2.0096    0.2582 O   0  0  0  0  0  0  0  0  0  0  0  0
    0.3741    1.8728    1.6466 N   0  0  0  0  0  0  0  0  0  0  0  0
    1.0814    1.2667    2.0345 H   0  0  0  0  0  0  0  0  0  0  0  0
    0.3380    3.2610    2.1024 C   0  0  0  0  0  0  0  0  0  0  0  0
   -0.6389    3.4820    2.5363 H   0  0  0  0  0  0  0  0  0  0  0  0
    1.1108    3.4337    2.8528 H   0  0  0  0  0  0  0  0  0  0  0  0
    0.5009    3.9312    1.2562 H   0  0  0  0  0  0  0  0  0  0  0  0
  5  6  2  0  0  0  0
  5  7  1  0  0  0  0
  2  3  1  0  0  0  0
  2  4  1  0  0  0  0
  2  5  1  0  0  0  0
  1  2  1  0  0  0  0
 21 22  2  0  0  0  0
 21 23  1  0  0  0  0
 19 20  1  0  0  0  0
 17 18  2  0  0  0  0
 17 19  1  0  0  0  0
 14 15  1  0  0  0  0
 14 16  1  0  0  0  0
 14 17  1  0  0  0  0
 11 12  1  0  0  0  0
 11 13  1  0  0  0  0
 11 14  1  0  0  0  0
  9 10  1  0  0  0  0
  9 11  1  0  0  0  0
  9 21  1  0  0  0  0
  7  8  1  0  0  0  0
  7  9  1  0  0  0  0
 25 26  1  0  0  0  0
 25 27  1  0  0  0  0
 25 28  1  0  0  0  0
 23 24  1  0  0  0  0
 23 25  1  0  0  0  0
M  END
$$$$
default_name
  -OEChem-02102213163D

 28 27  0     1  0  0  0  0  0999 V2000
   -3.2133   -3.5565    1.2809 H   0  0  0  0  0  0  0  0  0  0  0  0
   -3.1873   -2.5755    0.8089 C   0  0  0  0  0  0  0  0  0  0  0  0
   -3.8793   -1.9065    1.3169 H   0  0  0  0  0  0  0  0  0  0  0  0
   -3.4623   -2.6685   -0.2401 H   0  0  0  0  0  0  0  0  0  0  0  0
   -1.7863   -2.0195    0.9119 C   0  0  0  0  0  0  0  0  0  0  0  0
   -0.9073   -2.6615    1.4699 O   0  0  0  0  0  0  0  0  0  0  0  0
   -1.5803   -0.8195    0.3749 N   0  0  0  0  0  0  0  0  0  0  0  0
   -2.3603   -0.3345   -0.0451 H   0  0  0  0  0  0  0  0  0  0  0  0
   -0.2933   -0.1205    0.3719 C   0  0  1  0  0  0  0  0  0  0  0  0
    0.3577   -0.5843    1.1143 H   0  0  0  0  0  0  0  0  0  0  0  0
    0.3613   -0.2794   -1.0156 C   0  0  0  0  0  0  0  0  0  0  0  0
   -0.1483    0.3911   -1.7097 H   0  0  0  0  0  0  0  0  0  0  0  0
    1.4075    0.0242   -0.9568 H   0  0  0  0  0  0  0  0  0  0  0  0
    0.2987   -1.7116   -1.5740 C   0  0  0  0  0  0  0  0  0  0  0  0
   -0.2381   -1.7171   -2.5227 H   0  0  0  0  0  0  0  0  0  0  0  0
    1.3121   -2.0773   -1.7357 H   0  0  0  0  0  0  0  0  0  0  0  0
   -0.4055   -2.6731   -0.6221 C   0  0  0  0  0  0  0  0  0  0  0  0
   -0.7662   -2.3981    0.5111 O   0  0  0  0  0  0  0  0  0  0  0  0
   -0.6165   -3.9130   -1.1015 O   0  0  0  0  0  0  0  0  0  0  0  0
   -1.0483   -4.3877   -0.3891 H   0  0  0  0  0  0  0  0  0  0  0  0
   -0.4860    1.3537    0.7622 C   0  0  0  0  0  0  0  0  0  0  0  0
   -1.3956    2.0096    0.2582 O   0  0  0  0  0  0  0  0  0  0  0  0
    0.3741    1.8728    1.6466 N   0  0  0  0  0  0  0  0  0  0  0  0
    1.0814    1.2667    2.0345 H   0  0  0  0  0  0  0  0  0  0  0  0
    0.3380    3.2610    2.1024 C   0  0  0  0  0  0  0  0  0  0  0  0
   -0.6389    3.4820    2.5363 H   0  0  0  0  0  0  0  0  0  0  0  0
    1.1108    3.4337    2.8528 H   0  0  0  0  0  0  0  0  0  0  0  0
    0.5009    3.9312    1.2562 H   0  0  0  0  0  0  0  0  0  0  0  0
  5  6  2  0  0  0  0
  5  7  1  0  0  0  0
  2  3  1  0  0  0  0
  2  4  1  0  0  0  0
  2  5  1  0  0  0  0
  1  2  1  0  0  0  0
 21 22  2  0  0  0  0
 21 23  1  0  0  0  0
 19 20  1  0  0  0  0
 17 18  2  0  0  0  0
 17 19  1  0  0  0  0
 14 15  1  0  0  0  0
 14 16  1  0  0  0  0
 14 17  1  0  0  0  0
 11 12  1  0  0  0  0
 11 13  1  0  0  0  0
 11 14  1  0  0  0  0
  9 10  1  0  0  0  0
  9 11  1  0  0  0  0
  9 21  1  0  0  0  0
  7  8  1  0  0  0  0
  7  9  1  0  0  0  0
 25 26  1  0  0  0  0
 25 27  1  0  0  0  0
 25 28  1  0  0  0  0
 23 24  1  0  0  0  0
 23 25  1  0  0  0  0
M  END
$$$$
default_name
  -OEChem-02102213163D

 28 27  0     1  0  0  0  0  0999 V2000
   -3.2133   -3.5565    1.2809 H   0  0  0  0  0  0  0  0  0  0  0  0
   -3.1873   -2.5755    0.8089 C   0  0  0  0  0  0  0  0  0  0  0  0
   -3.8793   -1.9065    1.3169 H   0  0  0  0  0  0  0  0  0  0  0  0
   -3.4623   -2.6685   -0.2401 H   0  0  0  0  0  0  0  0  0  0  0  0
   -1.7863   -2.0195    0.9119 C   0  0  0  0  0  0  0  0  0  0  0  0
   -0.9073   -2.6615    1.4699 O   0  0  0  0  0  0  0  0  0  0  0  0
   -1.5803   -0.8195    0.3749 N   0  0  0  0  0  0  0  0  0  0  0  0
   -2.3603   -0.3345   -0.0451 H   0  0  0  0  0  0  0  0  0  0  0  0
   -0.2933   -0.1205    0.3719 C   0  0  1  0  0  0  0  0  0  0  0  0
    0.3577   -0.5843    1.1143 H   0  0  0  0  0  0  0  0  0  0  0  0
    0.3613   -0.2794   -1.0156 C   0  0  0  0  0  0  0  0  0  0  0  0
   -0.1483    0.3911   -1.7097 H   0  0  0  0  0  0  0  0  0  0  0  0
    1.4075    0.0242   -0.9568 H   0  0  0  0  0  0  0  0  0  0  0  0
    0.2987   -1.7116   -1.5740 C   0  0  0  0  0  0  0  0  0  0  0  0
    0.0077   -1.6882   -2.6242 H   0  0  0  0  0  0  0  0  0  0  0  0
    1.2816   -2.1731   -1.4866 H   0  0  0  0  0  0  0  0  0  0  0  0
   -0.7019   -2.5825   -0.8212 C   0  0  0  0  0  0  0  0  0  0  0  0
   -1.2967   -2.2504    0.1916 O   0  0  0  0  0  0  0  0  0  0  0  0
   -0.9086   -3.8078   -1.3386 O   0  0  0  0  0  0  0  0  0  0  0  0
   -1.5422   -4.2246   -0.7521 H   0  0  0  0  0  0  0  0  0  0  0  0
   -0.4860    1.3537    0.7622 C   0  0  0  0  0  0  0  0  0  0  0  0
   -1.3956    2.0096    0.2582 O   0  0  0  0  0  0  0  0  0  0  0  0
    0.3741    1.8728    1.6466 N   0  0  0  0  0  0  0  0  0  0  0  0
    1.0814    1.2667    2.0345 H   0  0  0  0  0  0  0  0  0  0  0  0
    0.3380    3.2610    2.1024 C   0  0  0  0  0  0  0  0  0  0  0  0
   -0.6389    3.4820    2.5363 H   0  0  0  0  0  0  0  0  0  0  0  0
    1.1108    3.4337    2.8528 H   0  0  0  0  0  0  0  0  0  0  0  0
    0.5009    3.9312    1.2562 H   0  0  0  0  0  0  0  0  0  0  0  0
  5  6  2  0  0  0  0
  5  7  1  0  0  0  0
  2  3  1  0  0  0  0
  2  4  1  0  0  0  0
  2  5  1  0  0  0  0
  1  2  1  0  0  0  0
 21 22  2  0  0  0  0
 21 23  1  0  0  0  0
 19 20  1  0  0  0  0
 17 18  2  0  0  0  0
 17 19  1  0  0  0  0
 14 15  1  0  0  0  0
 14 16  1  0  0  0  0
 14 17  1  0  0  0  0
 11 12  1  0  0  0  0
 11 13  1  0  0  0  0
 11 14  1  0  0  0  0
  9 10  1  0  0  0  0
  9 11  1  0  0  0  0
  9 21  1  0  0  0  0
  7  8  1  0  0  0  0
  7  9  1  0  0  0  0
 25 26  1  0  0  0  0
 25 27  1  0  0  0  0
 25 28  1  0  0  0  0
 23 24  1  0  0  0  0
 23 25  1  0  0  0  0
M  END
$$$$
default_name
  -OEChem-02102213163D

 28 27  0     1  0  0  0  0  0999 V2000
   -3.2133   -3.5565    1.2809 H   0  0  0  0  0  0  0  0  0  0  0  0
   -3.1873   -2.5755    0.8089 C   0  0  0  0  0  0  0  0  0  0  0  0
   -3.8793   -1.9065    1.3169 H   0  0  0  0  0  0  0  0  0  0  0  0
   -3.4623   -2.6685   -0.2401 H   0  0  0  0  0  0  0  0  0  0  0  0
   -1.7863   -2.0195    0.9119 C   0  0  0  0  0  0  0  0  0  0  0  0
   -0.9073   -2.6615    1.4699 O   0  0  0  0  0  0  0  0  0  0  0  0
   -1.5803   -0.8195    0.3749 N   0  0  0  0  0  0  0  0  0  0  0  0
   -2.3603   -0.3345   -0.0451 H   0  0  0  0  0  0  0  0  0  0  0  0
   -0.2933   -0.1205    0.3719 C   0  0  1  0  0  0  0  0  0  0  0  0
    0.3577   -0.5843    1.1143 H   0  0  0  0  0  0  0  0  0  0  0  0
    0.3613   -0.2794   -1.0156 C   0  0  0  0  0  0  0  0  0  0  0  0
   -0.1483    0.3911   -1.7097 H   0  0  0  0  0  0  0  0  0  0  0  0
    1.4075    0.0242   -0.9568 H   0  0  0  0  0  0  0  0  0  0  0  0
    0.2987   -1.7116   -1.5740 C   0  0  0  0  0  0  0  0  0  0  0  0
    0.2724   -1.6845   -2.6634 H   0  0  0  0  0  0  0  0  0  0  0  0
    1.1832   -2.2601   -1.2523 H   0  0  0  0  0  0  0  0  0  0  0  0
   -0.9318   -2.4693   -1.0859 C   0  0  0  0  0  0  0  0  0  0  0  0
   -1.7182   -2.0612   -0.2464 O   0  0  0  0  0  0  0  0  0  0  0  0
   -1.1237   -3.6812   -1.6391 O   0  0  0  0  0  0  0  0  0  0  0  0
   -1.9165   -4.0245   -1.2233 H   0  0  0  0  0  0  0  0  0  0  0  0
   -0.4860    1.3537    0.7622 C   0  0  0  0  0  0  0  0  0  0  0  0
   -1.3956    2.0096    0.2582 O   0  0  0  0  0  0  0  0  0  0  0  0
    0.3741    1.8728    1.6466 N   0  0  0  0  0  0  0  0  0  0  0  0
    1.0814    1.2667    2.0345 H   0  0  0  0  0  0  0  0  0  0  0  0
    0.3380    3.2610    2.1024 C   0  0  0  0  0  0  0  0  0  0  0  0
   -0.6389    3.4820    2.5363 H   0  0  0  0  0  0  0  0  0  0  0  0
    1.1108    3.4337    2.8528 H   0  0  0  0  0  0  0  0  0  0  0  0
    0.5009    3.9312    1.2562 H   0  0  0  0  0  0  0  0  0  0  0  0
  5  6  2  0  0  0  0
  5  7  1  0  0  0  0
  2  3  1  0  0  0  0
  2  4  1  0  0  0  0
  2  5  1  0  0  0  0
  1  2  1  0  0  0  0
 21 22  2  0  0  0  0
 21 23  1  0  0  0  0
 19 20  1  0  0  0  0
 17 18  2  0  0  0  0
 17 19  1  0  0  0  0
 14 15  1  0  0  0  0
 14 16  1  0  0  0  0
 14 17  1  0  0  0  0
 11 12  1  0  0  0  0
 11 13  1  0  0  0  0
 11 14  1  0  0  0  0
  9 10  1  0  0  0  0
  9 11  1  0  0  0  0
  9 21  1  0  0  0  0
  7  8  1  0  0  0  0
  7  9  1  0  0  0  0
 25 26  1  0  0  0  0
 25 27  1  0  0  0  0
 25 28  1  0  0  0  0
 23 24  1  0  0  0  0
 23 25  1  0  0  0  0
M  END
$$$$
default_name
  -OEChem-02102213163D

 28 27  0     1  0  0  0  0  0999 V2000
   -3.2133   -3.5565    1.2809 H   0  0  0  0  0  0  0  0  0  0  0  0
   -3.1873   -2.5755    0.8089 C   0  0  0  0  0  0  0  0  0  0  0  0
   -3.8793   -1.9065    1.3169 H   0  0  0  0  0  0  0  0  0  0  0  0
   -3.4623   -2.6685   -0.2401 H   0  0  0  0  0  0  0  0  0  0  0  0
   -1.7863   -2.0195    0.9119 C   0  0  0  0  0  0  0  0  0  0  0  0
   -0.9073   -2.6615    1.4699 O   0  0  0  0  0  0  0  0  0  0  0  0
   -1.5803   -0.8195    0.3749 N   0  0  0  0  0  0  0  0  0  0  0  0
   -2.3603   -0.3345   -0.0451 H   0  0  0  0  0  0  0  0  0  0  0  0
   -0.2933   -0.1205    0.3719 C   0  0  1  0  0  0  0  0  0  0  0  0
    0.3577   -0.5843    1.1143 H   0  0  0  0  0  0  0  0  0  0  0  0
    0.3613   -0.2794   -1.0156 C   0  0  0  0  0  0  0  0  0  0  0  0
   -0.1483    0.3911   -1.7097 H   0  0  0  0  0  0  0  0  0  0  0  0
    1.4075    0.0242   -0.9568 H   0  0  0  0  0  0  0  0  0  0  0  0
    0.2987   -1.7116   -1.5740 C   0  0  0  0  0  0  0  0  0  0  0  0
    0.5378   -1.7062   -2.6375 H   0  0  0  0  0  0  0  0  0  0  0  0
    1.0236   -2.3325   -1.0488 H   0  0  0  0  0  0  0  0  0  0  0  0
   -1.0795   -2.3411   -1.3982 C   0  0  0  0  0  0  0  0  0  0  0  0
   -2.0021   -1.8435   -0.7730 O   0  0  0  0  0  0  0  0  0  0  0  0
   -1.2473   -3.5419   -1.9826 O   0  0  0  0  0  0  0  0  0  0  0  0
   -2.1458   -3.8010   -1.7708 H   0  0  0  0  0  0  0  0  0  0  0  0
   -0.4860    1.3537    0.7622 C   0  0  0  0  0  0  0  0  0  0  0  0
   -1.3956    2.0096    0.2582 O   0  0  0  0  0  0  0  0  0  0  0  0
    0.3741    1.8728    1.6466 N   0  0  0  0  0  0  0  0  0  0  0  0
    1.0814    1.2667    2.0345 H   0  0  0  0  0  0  0  0  0  0  0  0
    0.3380    3.2610    2.1024 C   0  0  0  0  0  0  0  0  0  0  0  0
   -0.6389    3.4820    2.5363 H   0  0  0  0  0  0  0  0  0  0  0  0
    1.1108    3.4337    2.8528 H   0  0  0  0  0  0  0  0  0  0  0  0
    0.5009    3.9312    1.2562 H   0  0  0  0  0  0  0  0  0  0  0  0
  5  6  2  0  0  0  0
  5  7  1  0  0  0  0
  2  3  1  0  0  0  0
  2  4  1  0  0  0  0
  2  5  1  0  0  0  0
  1  2  1  0  0  0  0
 21 22  2  0  0  0  0
 21 23  1  0  0  0  0
 19 20  1  0  0  0  0
 17 18  2  0  0  0  0
 17 19  1  0  0  0  0
 14 15  1  0  0  0  0
 14 16  1  0  0  0  0
 14 17  1  0  0  0  0
 11 12  1  0  0  0  0
 11 13  1  0  0  0  0
 11 14  1  0  0  0  0
  9 10  1  0  0  0  0
  9 11  1  0  0  0  0
  9 21  1  0  0  0  0
  7  8  1  0  0  0  0
  7  9  1  0  0  0  0
 25 26  1  0  0  0  0
 25 27  1  0  0  0  0
 25 28  1  0  0  0  0
 23 24  1  0  0  0  0
 23 25  1  0  0  0  0
M  END
$$$$
default_name
  -OEChem-02102213163D

 28 27  0     1  0  0  0  0  0999 V2000
   -3.2133   -3.5565    1.2809 H   0  0  0  0  0  0  0  0  0  0  0  0
   -3.1873   -2.5755    0.8089 C   0  0  0  0  0  0  0  0  0  0  0  0
   -3.8793   -1.9065    1.3169 H   0  0  0  0  0  0  0  0  0  0  0  0
   -3.4623   -2.6685   -0.2401 H   0  0  0  0  0  0  0  0  0  0  0  0
   -1.7863   -2.0195    0.9119 C   0  0  0  0  0  0  0  0  0  0  0  0
   -0.9073   -2.6615    1.4699 O   0  0  0  0  0  0  0  0  0  0  0  0
   -1.5803   -0.8195    0.3749 N   0  0  0  0  0  0  0  0  0  0  0  0
   -2.3603   -0.3345   -0.0451 H   0  0  0  0  0  0  0  0  0  0  0  0
   -0.2933   -0.1205    0.3719 C   0  0  1  0  0  0  0  0  0  0  0  0
    0.3577   -0.5843    1.1143 H   0  0  0  0  0  0  0  0  0  0  0  0
    0.3613   -0.2794   -1.0156 C   0  0  0  0  0  0  0  0  0  0  0  0
   -0.1483    0.3911   -1.7097 H   0  0  0  0  0  0  0  0  0  0  0  0
    1.4075    0.0242   -0.9568 H   0  0  0  0  0  0  0  0  0  0  0  0
    0.2987   -1.7116   -1.5740 C   0  0  0  0  0  0  0  0  0  0  0  0
    0.7859   -1.7518   -2.5483 H   0  0  0  0  0  0  0  0  0  0  0  0
    0.8135   -2.3853   -0.8899 H   0  0  0  0  0  0  0  0  0  0  0  0
   -1.1348   -2.2066   -1.7368 C   0  0  0  0  0  0  0  0  0  0  0  0
   -2.1290   -1.6120   -1.3523 O   0  0  0  0  0  0  0  0  0  0  0  0
   -1.2707   -3.3993   -2.3456 O   0  0  0  0  0  0  0  0  0  0  0  0
   -2.2143   -3.5693   -2.3573 H   0  0  0  0  0  0  0  0  0  0  0  0
   -0.4860    1.3537    0.7622 C   0  0  0  0  0  0  0  0  0  0  0  0
   -1.3956    2.0096    0.2582 O   0  0  0  0  0  0  0  0  0  0  0  0
    0.3741    1.8728    1.6466 N   0  0  0  0  0  0  0  0  0  0  0  0
    1.0814    1.2667    2.0345 H   0  0  0  0  0  0  0  0  0  0  0  0
    0.3380    3.2610    2.1024 C   0  0  0  0  0  0  0  0  0  0  0  0
   -0.6389    3.4820    2.5363 H   0  0  0  0  0  0  0  0  0  0  0  0
    1.1108    3.4337    2.8528 H   0  0  0  0  0  0  0  0  0  0  0  0
    0.5009    3.9312    1.2562 H   0  0  0  0  0  0  0  0  0  0  0  0
  5  6  2  0  0  0  0
  5  7  1  0  0  0  0
  2  3  1  0  0  0  0
  2  4  1  0  0  0  0
  2  5  1  0  0  0  0
  1  2  1  0  0  0  0
 21 22  2  0  0  0  0
 21 23  1  0  0  0  0
 19 20  1  0  0  0  0
 17 18  2  0  0  0  0
 17 19  1  0  0  0  0
 14 15  1  0  0  0  0
 14 16  1  0  0  0  0
 14 17  1  0  0  0  0
 11 12  1  0  0  0  0
 11 13  1  0  0  0  0
 11 14  1  0  0  0  0
  9 10  1  0  0  0  0
  9 11  1  0  0  0  0
  9 21  1  0  0  0  0
  7  8  1  0  0  0  0
  7  9  1  0  0  0  0
 25 26  1  0  0  0  0
 25 27  1  0  0  0  0
 25 28  1  0  0  0  0
 23 24  1  0  0  0  0
 23 25  1  0  0  0  0
M  END
$$$$
default_name
  -OEChem-02102213163D

 28 27  0     1  0  0  0  0  0999 V2000
   -3.2133   -3.5565    1.2809 H   0  0  0  0  0  0  0  0  0  0  0  0
   -3.1873   -2.5755    0.8089 C   0  0  0  0  0  0  0  0  0  0  0  0
   -3.8793   -1.9065    1.3169 H   0  0  0  0  0  0  0  0  0  0  0  0
   -3.4623   -2.6685   -0.2401 H   0  0  0  0  0  0  0  0  0  0  0  0
   -1.7863   -2.0195    0.9119 C   0  0  0  0  0  0  0  0  0  0  0  0
   -0.9073   -2.6615    1.4699 O   0  0  0  0  0  0  0  0  0  0  0  0
   -1.5803   -0.8195    0.3749 N   0  0  0  0  0  0  0  0  0  0  0  0
   -2.3603   -0.3345   -0.0451 H   0  0  0  0  0  0  0  0  0  0  0  0
   -0.2933   -0.1205    0.3719 C   0  0  1  0  0  0  0  0  0  0  0  0
    0.3577   -0.5843    1.1143 H   0  0  0  0  0  0  0  0  0  0  0  0
    0.3613   -0.2794   -1.0156 C   0  0  0  0  0  0  0  0  0  0  0  0
   -0.1483    0.3911   -1.7097 H   0  0  0  0  0  0  0  0  0  0  0  0
    1.4075    0.0242   -0.9568 H   0  0  0  0  0  0  0  0  0  0  0  0
    0.2987   -1.7116   -1.5740 C   0  0  0  0  0  0  0  0  0  0  0  0
    0.9997   -1.8183   -2.4019 H   0  0  0  0  0  0  0  0  0  0  0  0
    0.5674   -2.4148   -0.7865 H   0  0  0  0  0  0  0  0  0  0  0  0
   -1.0940   -2.0751   -2.0786 C   0  0  0  0  0  0  0  0  0  0  0  0
   -2.0902   -1.3826   -1.9449 O   0  0  0  0  0  0  0  0  0  0  0  0
   -1.1926   -3.2633   -2.7034 O   0  0  0  0  0  0  0  0  0  0  0  0
   -2.1174   -3.3453   -2.9427 H   0  0  0  0  0  0  0  0  0  0  0  0
   -0.4860    1.3537    0.7622 C   0  0  0  0  0  0  0  0  0  0  0  0
   -1.3956    2.0096    0.2582 O   0  0  0  0  0  0  0  0  0  0  0  0
    0.3741    1.8728    1.6466 N   0  0  0  0  0  0  0  0  0  0  0  0
    1.0814    1.2667    2.0345 H   0  0  0  0  0  0  0  0  0  0  0  0
    0.3380    3.2610    2.1024 C   0  0  0  0  0  0  0  0  0  0  0  0
   -0.6389    3.4820    2.5363 H   0  0  0  0  0  0  0  0  0  0  0  0
    1.1108    3.4337    2.8528 H   0  0  0  0  0  0  0  0  0  0  0  0
    0.5009    3.9312    1.2562 H   0  0  0  0  0  0  0  0  0  0  0  0
  5  6  2  0  0  0  0
  5  7  1  0  0  0  0
  2  3  1  0  0  0  0
  2  4  1  0  0  0  0
  2  5  1  0  0  0  0
  1  2  1  0  0  0  0
 21 22  2  0  0  0  0
 21 23  1  0  0  0  0
 19 20  1  0  0  0  0
 17 18  2  0  0  0  0
 17 19  1  0  0  0  0
 14 15  1  0  0  0  0
 14 16  1  0  0  0  0
 14 17  1  0  0  0  0
 11 12  1  0  0  0  0
 11 13  1  0  0  0  0
 11 14  1  0  0  0  0
  9 10  1  0  0  0  0
  9 11  1  0  0  0  0
  9 21  1  0  0  0  0
  7  8  1  0  0  0  0
  7  9  1  0  0  0  0
 25 26  1  0  0  0  0
 25 27  1  0  0  0  0
 25 28  1  0  0  0  0
 23 24  1  0  0  0  0
 23 25  1  0  0  0  0
M  END
$$$$
default_name
  -OEChem-02102213163D

 28 27  0     1  0  0  0  0  0999 V2000
   -3.2133   -3.5565    1.2809 H   0  0  0  0  0  0  0  0  0  0  0  0
   -3.1873   -2.5755    0.8089 C   0  0  0  0  0  0  0  0  0  0  0  0
   -3.8793   -1.9065    1.3169 H   0  0  0  0  0  0  0  0  0  0  0  0
   -3.4623   -2.6685   -0.2401 H   0  0  0  0  0  0  0  0  0  0  0  0
   -1.7863   -2.0195    0.9119 C   0  0  0  0  0  0  0  0  0  0  0  0
   -0.9073   -2.6615    1.4699 O   0  0  0  0  0  0  0  0  0  0  0  0
   -1.5803   -0.8195    0.3749 N   0  0  0  0  0  0  0  0  0  0  0  0
   -2.3603   -0.3345   -0.0451 H   0  0  0  0  0  0  0  0  0  0  0  0
   -0.2933   -0.1205    0.3719 C   0  0  1  0  0  0  0  0  0  0  0  0
    0.3577   -0.5843    1.1143 H   0  0  0  0  0  0  0  0  0  0  0  0
    0.3613   -0.2794   -1.0156 C   0  0  0  0  0  0  0  0  0  0  0  0
   -0.1483    0.3911   -1.7097 H   0  0  0  0  0  0  0  0  0  0  0  0
    1.4075    0.0242   -0.9568 H   0  0  0  0  0  0  0  0  0  0  0  0
    0.2987   -1.7116   -1.5740 C   0  0  0  0  0  0  0  0  0  0  0  0
    1.1648   -1.9010   -2.2083 H   0  0  0  0  0  0  0  0  0  0  0  0
    0.3019   -2.4192   -0.7457 H   0  0  0  0  0  0  0  0  0  0  0  0
   -0.9600   -1.9556   -2.4003 C   0  0  0  0  0  0  0  0  0  0  0  0
   -1.8884   -1.1710   -2.5104 O   0  0  0  0  0  0  0  0  0  0  0  0
   -1.0181   -3.1429   -3.0315 O   0  0  0  0  0  0  0  0  0  0  0  0
   -1.8617   -3.1442   -3.4871 H   0  0  0  0  0  0  0  0  0  0  0  0
   -0.4860    1.3537    0.7622 C   0  0  0  0  0  0  0  0  0  0  0  0
   -1.3956    2.0096    0.2582 O   0  0  0  0  0  0  0  0  0  0  0  0
    0.3741    1.8728    1.6466 N   0  0  0  0  0  0  0  0  0  0  0  0
    1.0814    1.2667    2.0345 H   0  0  0  0  0  0  0  0  0  0  0  0
    0.3380    3.2610    2.1024 C   0  0  0  0  0  0  0  0  0  0  0  0
   -0.6389    3.4820    2.5363 H   0  0  0  0  0  0  0  0  0  0  0  0
    1.1108    3.4337    2.8528 H   0  0  0  0  0  0  0  0  0  0  0  0
    0.5009    3.9312    1.2562 H   0  0  0  0  0  0  0  0  0  0  0  0
  5  6  2  0  0  0  0
  5  7  1  0  0  0  0
  2  3  1  0  0  0  0
  2  4  1  0  0  0  0
  2  5  1  0  0  0  0
  1  2  1  0  0  0  0
 21 22  2  0  0  0  0
 21 23  1  0  0  0  0
 19 20  1  0  0  0  0
 17 18  2  0  0  0  0
 17 19  1  0  0  0  0
 14 15  1  0  0  0  0
 14 16  1  0  0  0  0
 14 17  1  0  0  0  0
 11 12  1  0  0  0  0
 11 13  1  0  0  0  0
 11 14  1  0  0  0  0
  9 10  1  0  0  0  0
  9 11  1  0  0  0  0
  9 21  1  0  0  0  0
  7  8  1  0  0  0  0
  7  9  1  0  0  0  0
 25 26  1  0  0  0  0
 25 27  1  0  0  0  0
 25 28  1  0  0  0  0
 23 24  1  0  0  0  0
 23 25  1  0  0  0  0
M  END
$$$$
default_name
  -OEChem-02102213163D

 28 27  0     1  0  0  0  0  0999 V2000
   -3.2133   -3.5565    1.2809 H   0  0  0  0  0  0  0  0  0  0  0  0
   -3.1873   -2.5755    0.8089 C   0  0  0  0  0  0  0  0  0  0  0  0
   -3.8793   -1.9065    1.3169 H   0  0  0  0  0  0  0  0  0  0  0  0
   -3.4623   -2.6685   -0.2401 H   0  0  0  0  0  0  0  0  0  0  0  0
   -1.7863   -2.0195    0.9119 C   0  0  0  0  0  0  0  0  0  0  0  0
   -0.9073   -2.6615    1.4699 O   0  0  0  0  0  0  0  0  0  0  0  0
   -1.5803   -0.8195    0.3749 N   0  0  0  0  0  0  0  0  0  0  0  0
   -2.3603   -0.3345   -0.0451 H   0  0  0  0  0  0  0  0  0  0  0  0
   -0.2933   -0.1205    0.3719 C   0  0  1  0  0  0  0  0  0  0  0  0
    0.3577   -0.5843    1.1143 H   0  0  0  0  0  0  0  0  0  0  0  0
    0.3613   -0.2794   -1.0156 C   0  0  0  0  0  0  0  0  0  0  0  0
   -0.1483    0.3911   -1.7097 H   0  0  0  0  0  0  0  0  0  0  0  0
    1.4075    0.0242   -0.9568 H   0  0  0  0  0  0  0  0  0  0  0  0
    0.2987   -1.7116   -1.5740 C   0  0  0  0  0  0  0  0  0  0  0  0
    1.2698   -1.9943   -1.9806 H   0  0  0  0  0  0  0  0  0  0  0  0
    0.0353   -2.3980   -0.7701 H   0  0  0  0  0  0  0  0  0  0  0  0
   -0.7417   -1.8560   -2.6800 C   0  0  0  0  0  0  0  0  0  0  0  0
   -1.5374   -0.9914   -3.0102 O   0  0  0  0  0  0  0  0  0  0  0  0
   -0.7591   -3.0465   -3.3077 O   0  0  0  0  0  0  0  0  0  0  0  0
   -1.4646   -2.9797   -3.9536 H   0  0  0  0  0  0  0  0  0  0  0  0
   -0.4860    1.3537    0.7622 C   0  0  0  0  0  0  0  0  0  0  0  0
   -1.3956    2.0096    0.2582 O   0  0  0  0  0  0  0  0  0  0  0  0
    0.3741    1.8728    1.6466 N   0  0  0  0  0  0  0  0  0  0  0  0
    1.0814    1.2667    2.0345 H   0  0  0  0  0  0  0  0  0  0  0  0
    0.3380    3.2610    2.1024 C   0  0  0  0  0  0  0  0  0  0  0  0
   -0.6389    3.4820    2.5363 H   0  0  0  0  0  0  0  0  0  0  0  0
    1.1108    3.4337    2.8528 H   0  0  0  0  0  0  0  0  0  0  0  0
    0.5009    3.9312    1.2562 H   0  0  0  0  0  0  0  0  0  0  0  0
  5  6  2  0  0  0  0
  5  7  1  0  0  0  0
  2  3  1  0  0  0  0
  2  4  1  0  0  0  0
  2  5  1  0  0  0  0
  1  2  1  0  0  0  0
 21 22  2  0  0  0  0
 21 23  1  0  0  0  0
 19 20  1  0  0  0  0
 17 18  2  0  0  0  0
 17 19  1  0  0  0  0
 14 15  1  0  0  0  0
 14 16  1  0  0  0  0
 14 17  1  0  0  0  0
 11 12  1  0  0  0  0
 11 13  1  0  0  0  0
 11 14  1  0  0  0  0
  9 10  1  0  0  0  0
  9 11  1  0  0  0  0
  9 21  1  0  0  0  0
  7  8  1  0  0  0  0
  7  9  1  0  0  0  0
 25 26  1  0  0  0  0
 25 27  1  0  0  0  0
 25 28  1  0  0  0  0
 23 24  1  0  0  0  0
 23 25  1  0  0  0  0
M  END
$$$$
default_name
  -OEChem-02102213163D

 28 27  0     1  0  0  0  0  0999 V2000
   -3.2133   -3.5565    1.2809 H   0  0  0  0  0  0  0  0  0  0  0  0
   -3.1873   -2.5755    0.8089 C   0  0  0  0  0  0  0  0  0  0  0  0
   -3.8793   -1.9065    1.3169 H   0  0  0  0  0  0  0  0  0  0  0  0
   -3.4623   -2.6685   -0.2401 H   0  0  0  0  0  0  0  0  0  0  0  0
   -1.7863   -2.0195    0.9119 C   0  0  0  0  0  0  0  0  0  0  0  0
   -0.9073   -2.6615    1.4699 O   0  0  0  0  0  0  0  0  0  0  0  0
   -1.5803   -0.8195    0.3749 N   0  0  0  0  0  0  0  0  0  0  0  0
   -2.3603   -0.3345   -0.0451 H   0  0  0  0  0  0  0  0  0  0  0  0
   -0.2933   -0.1205    0.3719 C   0  0  1  0  0  0  0  0  0  0  0  0
    0.3577   -0.5843    1.1143 H   0  0  0  0  0  0  0  0  0  0  0  0
    0.3613   -0.2794   -1.0156 C   0  0  0  0  0  0  0  0  0  0  0  0
   -0.1483    0.3911   -1.7097 H   0  0  0  0  0  0  0  0  0  0  0  0
    1.4075    0.0242   -0.9568 H   0  0  0  0  0  0  0  0  0  0  0  0
    0.2987   -1.7116   -1.5740 C   0  0  0  0  0  0  0  0  0  0  0  0
    1.3076   -2.0920   -1.7344 H   0  0  0  0  0  0  0  0  0  0  0  0
   -0.2144   -2.3527   -0.8582 H   0  0  0  0  0  0  0  0  0  0  0  0
   -0.4541   -1.7834   -2.8986 C   0  0  0  0  0  0  0  0  0  0  0  0
   -1.0610   -0.8562   -3.4103 O   0  0  0  0  0  0  0  0  0  0  0  0
   -0.4334   -2.9807   -3.5132 O   0  0  0  0  0  0  0  0  0  0  0  0
   -0.9533   -2.8630   -4.3102 H   0  0  0  0  0  0  0  0  0  0  0  0
   -0.4860    1.3537    0.7622 C   0  0  0  0  0  0  0  0  0  0  0  0
   -1.3956    2.0096    0.2582 O   0  0  0  0  0  0  0  0  0  0  0  0
    0.3741    1.8728    1.6466 N   0  0  0  0  0  0  0  0  0  0  0  0
    1.0814    1.2667    2.0345 H   0  0  0  0  0  0  0  0  0  0  0  0
    0.3380    3.2610    2.1024 C   0  0  0  0  0  0  0  0  0  0  0  0
   -0.6389    3.4820    2.5363 H   0  0  0  0  0  0  0  0  0  0  0  0
    1.1108    3.4337    2.8528 H   0  0  0  0  0  0  0  0  0  0  0  0
    0.5009    3.9312    1.2562 H   0  0  0  0  0  0  0  0  0  0  0  0
  5  6  2  0  0  0  0
  5  7  1  0  0  0  0
  2  3  1  0  0  0  0
  2  4  1  0  0  0  0
  2  5  1  0  0  0  0
  1  2  1  0  0  0  0
 21 22  2  0  0  0  0
 21 23  1  0  0  0  0
 19 20  1  0  0  0  0
 17 18  2  0  0  0  0
 17 19  1  0  0  0  0
 14 15  1  0  0  0  0
 14 16  1  0  0  0  0
 14 17  1  0  0  0  0
 11 12  1  0  0  0  0
 11 13  1  0  0  0  0
 11 14  1  0  0  0  0
  9 10  1  0  0  0  0
  9 11  1  0  0  0  0
  9 21  1  0  0  0  0
  7  8  1  0  0  0  0
  7  9  1  0  0  0  0
 25 26  1  0  0  0  0
 25 27  1  0  0  0  0
 25 28  1  0  0  0  0
 23 24  1  0  0  0  0
 23 25  1  0  0  0  0
M  END
$$$$
default_name
  -OEChem-02102213163D

 28 27  0     1  0  0  0  0  0999 V2000
   -3.2133   -3.5565    1.2809 H   0  0  0  0  0  0  0  0  0  0  0  0
   -3.1873   -2.5755    0.8089 C   0  0  0  0  0  0  0  0  0  0  0  0
   -3.8793   -1.9065    1.3169 H   0  0  0  0  0  0  0  0  0  0  0  0
   -3.4623   -2.6685   -0.2401 H   0  0  0  0  0  0  0  0  0  0  0  0
   -1.7863   -2.0195    0.9119 C   0  0  0  0  0  0  0  0  0  0  0  0
   -0.9073   -2.6615    1.4699 O   0  0  0  0  0  0  0  0  0  0  0  0
   -1.5803   -0.8195    0.3749 N   0  0  0  0  0  0  0  0  0  0  0  0
   -2.3603   -0.3345   -0.0451 H   0  0  0  0  0  0  0  0  0  0  0  0
   -0.2933   -0.1205    0.3719 C   0  0  1  0  0  0  0  0  0  0  0  0
    0.3577   -0.5843    1.1143 H   0  0  0  0  0  0  0  0  0  0  0  0
    0.3613   -0.2794   -1.0156 C   0  0  0  0  0  0  0  0  0  0  0  0
   -0.1483    0.3911   -1.7097 H   0  0  0  0  0  0  0  0  0  0  0  0
    1.4075    0.0242   -0.9568 H   0  0  0  0  0  0  0  0  0  0  0  0
    0.2987   -1.7116   -1.5740 C   0  0  0  0  0  0  0  0  0  0  0  0
    1.2756   -2.1873   -1.4864 H   0  0  0  0  0  0  0  0  0  0  0  0
   -0.4301   -2.2865   -1.0039 H   0  0  0  0  0  0  0  0  0  0  0  0
   -0.1169   -1.7425   -3.0412 C   0  0  0  0  0  0  0  0  0  0  0  0
   -0.4918   -0.7746   -3.6835 O   0  0  0  0  0  0  0  0  0  0  0  0
   -0.0631   -2.9498   -3.6338 O   0  0  0  0  0  0  0  0  0  0  0  0
   -0.3625   -2.8020   -4.5326 H   0  0  0  0  0  0  0  0  0  0  0  0
   -0.4860    1.3537    0.7622 C   0  0  0  0  0  0  0  0  0  0  0  0
   -1.3956    2.0096    0.2582 O   0  0  0  0  0  0  0  0  0  0  0  0
    0.3741    1.8728    1.6466 N   0  0  0  0  0  0  0  0  0  0  0  0
    1.0814    1.2667    2.0345 H   0  0  0  0  0  0  0  0  0  0  0  0
    0.3380    3.2610    2.1024 C   0  0  0  0  0  0  0  0  0  0  0  0
   -0.6389    3.4820    2.5363 H   0  0  0  0  0  0  0  0  0  0  0  0
    1.1108    3.4337    2.8528 H   0  0  0  0  0  0  0  0  0  0  0  0
    0.5009    3.9312    1.2562 H   0  0  0  0  0  0  0  0  0  0  0  0
  5  6  2  0  0  0  0
  5  7  1  0  0  0  0
  2  3  1  0  0  0  0
  2  4  1  0  0  0  0
  2  5  1  0  0  0  0
  1  2  1  0  0  0  0
 21 22  2  0  0  0  0
 21 23  1  0  0  0  0
 19 20  1  0  0  0  0
 17 18  2  0  0  0  0
 17 19  1  0  0  0  0
 14 15  1  0  0  0  0
 14 16  1  0  0  0  0
 14 17  1  0  0  0  0
 11 12  1  0  0  0  0
 11 13  1  0  0  0  0
 11 14  1  0  0  0  0
  9 10  1  0  0  0  0
  9 11  1  0  0  0  0
  9 21  1  0  0  0  0
  7  8  1  0  0  0  0
  7  9  1  0  0  0  0
 25 26  1  0  0  0  0
 25 27  1  0  0  0  0
 25 28  1  0  0  0  0
 23 24  1  0  0  0  0
 23 25  1  0  0  0  0
M  END
$$$$
default_name
  -OEChem-02102213163D

 28 27  0     1  0  0  0  0  0999 V2000
   -3.2133   -3.5565    1.2809 H   0  0  0  0  0  0  0  0  0  0  0  0
   -3.1873   -2.5755    0.8089 C   0  0  0  0  0  0  0  0  0  0  0  0
   -3.8793   -1.9065    1.3169 H   0  0  0  0  0  0  0  0  0  0  0  0
   -3.4623   -2.6685   -0.2401 H   0  0  0  0  0  0  0  0  0  0  0  0
   -1.7863   -2.0195    0.9119 C   0  0  0  0  0  0  0  0  0  0  0  0
   -0.9073   -2.6615    1.4699 O   0  0  0  0  0  0  0  0  0  0  0  0
   -1.5803   -0.8195    0.3749 N   0  0  0  0  0  0  0  0  0  0  0  0
   -2.3603   -0.3345   -0.0451 H   0  0  0  0  0  0  0  0  0  0  0  0
   -0.2933   -0.1205    0.3719 C   0  0  1  0  0  0  0  0  0  0  0  0
    0.3577   -0.5843    1.1143 H   0  0  0  0  0  0  0  0  0  0  0  0
    0.3613   -0.2794   -1.0156 C   0  0  0  0  0  0  0  0  0  0  0  0
   -0.1483    0.3911   -1.7097 H   0  0  0  0  0  0  0  0  0  0  0  0
    1.4075    0.0242   -0.9568 H   0  0  0  0  0  0  0  0  0  0  0  0
    0.2987   -1.7116   -1.5740 C   0  0  0  0  0  0  0  0  0  0  0  0
    1.1760   -2.2737   -1.2536 H   0  0  0  0  0  0  0  0  0  0  0  0
   -0.5972   -2.2038   -1.1973 H   0  0  0  0  0  0  0  0  0  0  0  0
    0.2471   -1.7362   -3.0982 C   0  0  0  0  0  0  0  0  0  0  0  0
    0.1315   -0.7521   -3.8110 O   0  0  0  0  0  0  0  0  0  0  0  0
    0.3265   -2.9560   -3.6615 O   0  0  0  0  0  0  0  0  0  0  0  0
    0.2675   -2.8010   -4.6058 H   0  0  0  0  0  0  0  0  0  0  0  0
   -0.4860    1.3537    0.7622 C   0  0  0  0  0  0  0  0  0  0  0  0
   -1.3956    2.0096    0.2582 O   0  0  0  0  0  0  0  0  0  0  0  0
    0.3741    1.8728    1.6466 N   0  0  0  0  0  0  0  0  0  0  0  0
    1.0814    1.2667    2.0345 H   0  0  0  0  0  0  0  0  0  0  0  0
    0.3380    3.2610    2.1024 C   0  0  0  0  0  0  0  0  0  0  0  0
   -0.6389    3.4820    2.5363 H   0  0  0  0  0  0  0  0  0  0  0  0
    1.1108    3.4337    2.8528 H   0  0  0  0  0  0  0  0  0  0  0  0
    0.5009    3.9312    1.2562 H   0  0  0  0  0  0  0  0  0  0  0  0
  5  6  2  0  0  0  0
  5  7  1  0  0  0  0
  2  3  1  0  0  0  0
  2  4  1  0  0  0  0
  2  5  1  0  0  0  0
  1  2  1  0  0  0  0
 21 22  2  0  0  0  0
 21 23  1  0  0  0  0
 19 20  1  0  0  0  0
 17 18  2  0  0  0  0
 17 19  1  0  0  0  0
 14 15  1  0  0  0  0
 14 16  1  0  0  0  0
 14 17  1  0  0  0  0
 11 12  1  0  0  0  0
 11 13  1  0  0  0  0
 11 14  1  0  0  0  0
  9 10  1  0  0  0  0
  9 11  1  0  0  0  0
  9 21  1  0  0  0  0
  7  8  1  0  0  0  0
  7  9  1  0  0  0  0
 25 26  1  0  0  0  0
 25 27  1  0  0  0  0
 25 28  1  0  0  0  0
 23 24  1  0  0  0  0
 23 25  1  0  0  0  0
M  END
$$$$
default_name
  -OEChem-02102213163D

 28 27  0     1  0  0  0  0  0999 V2000
   -3.2133   -3.5565    1.2809 H   0  0  0  0  0  0  0  0  0  0  0  0
   -3.1873   -2.5755    0.8089 C   0  0  0  0  0  0  0  0  0  0  0  0
   -3.8793   -1.9065    1.3169 H   0  0  0  0  0  0  0  0  0  0  0  0
   -3.4623   -2.6685   -0.2401 H   0  0  0  0  0  0  0  0  0  0  0  0
   -1.7863   -2.0195    0.9119 C   0  0  0  0  0  0  0  0  0  0  0  0
   -0.9073   -2.6615    1.4699 O   0  0  0  0  0  0  0  0  0  0  0  0
   -1.5803   -0.8195    0.3749 N   0  0  0  0  0  0  0  0  0  0  0  0
   -2.3603   -0.3345   -0.0451 H   0  0  0  0  0  0  0  0  0  0  0  0
   -0.2933   -0.1205    0.3719 C   0  0  1  0  0  0  0  0  0  0  0  0
    0.3577   -0.5843    1.1143 H   0  0  0  0  0  0  0  0  0  0  0  0
    0.3613   -0.2794   -1.0156 C   0  0  0  0  0  0  0  0  0  0  0  0
   -0.1483    0.3911   -1.7097 H   0  0  0  0  0  0  0  0  0  0  0  0
    1.4075    0.0242   -0.9568 H   0  0  0  0  0  0  0  0  0  0  0  0
    0.2987   -1.7116   -1.5740 C   0  0  0  0  0  0  0  0  0  0  0  0
    1.0156   -2.3454   -1.0519 H   0  0  0  0  0  0  0  0  0  0  0  0
   -0.7041   -2.1102   -1.4252 H   0  0  0  0  0  0  0  0  0  0  0  0
    0.6130   -1.7649   -3.0656 C   0  0  0  0  0  0  0  0  0  0  0  0
    0.7665   -0.7903   -3.7842 O   0  0  0  0  0  0  0  0  0  0  0  0
    0.7090   -2.9990   -3.5942 O   0  0  0  0  0  0  0  0  0  0  0  0
    0.8938   -2.8600   -4.5247 H   0  0  0  0  0  0  0  0  0  0  0  0
   -0.4860    1.3537    0.7622 C   0  0  0  0  0  0  0  0  0  0  0  0
   -1.3956    2.0096    0.2582 O   0  0  0  0  0  0  0  0  0  0  0  0
    0.3741    1.8728    1.6466 N   0  0  0  0  0  0  0  0  0  0  0  0
    1.0814    1.2667    2.0345 H   0  0  0  0  0  0  0  0  0  0  0  0
    0.3380    3.2610    2.1024 C   0  0  0  0  0  0  0  0  0  0  0  0
   -0.6389    3.4820    2.5363 H   0  0  0  0  0  0  0  0  0  0  0  0
    1.1108    3.4337    2.8528 H   0  0  0  0  0  0  0  0  0  0  0  0
    0.5009    3.9312    1.2562 H   0  0  0  0  0  0  0  0  0  0  0  0
  5  6  2  0  0  0  0
  5  7  1  0  0  0  0
  2  3  1  0  0  0  0
  2  4  1  0  0  0  0
  2  5  1  0  0  0  0
  1  2  1  0  0  0  0
 21 22  2  0  0  0  0
 21 23  1  0  0  0  0
 19 20  1  0  0  0  0
 17 18  2  0  0  0  0
 17 19  1  0  0  0  0
 14 15  1  0  0  0  0
 14 16  1  0  0  0  0
 14 17  1  0  0  0  0
 11 12  1  0  0  0  0
 11 13  1  0  0  0  0
 11 14  1  0  0  0  0
  9 10  1  0  0  0  0
  9 11  1  0  0  0  0
  9 21  1  0  0  0  0
  7  8  1  0  0  0  0
  7  9  1  0  0  0  0
 25 26  1  0  0  0  0
 25 27  1  0  0  0  0
 25 28  1  0  0  0  0
 23 24  1  0  0  0  0
 23 25  1  0  0  0  0
M  END
$$$$
default_name
  -OEChem-02102213163D

 28 27  0     1  0  0  0  0  0999 V2000
   -3.2133   -3.5565    1.2809 H   0  0  0  0  0  0  0  0  0  0  0  0
   -3.1873   -2.5755    0.8089 C   0  0  0  0  0  0  0  0  0  0  0  0
   -3.8793   -1.9065    1.3169 H   0  0  0  0  0  0  0  0  0  0  0  0
   -3.4623   -2.6685   -0.2401 H   0  0  0  0  0  0  0  0  0  0  0  0
   -1.7863   -2.0195    0.9119 C   0  0  0  0  0  0  0  0  0  0  0  0
   -0.9073   -2.6615    1.4699 O   0  0  0  0  0  0  0  0  0  0  0  0
   -1.5803   -0.8195    0.3749 N   0  0  0  0  0  0  0  0  0  0  0  0
   -2.3603   -0.3345   -0.0451 H   0  0  0  0  0  0  0  0  0  0  0  0
   -0.2933   -0.1205    0.3719 C   0  0  1  0  0  0  0  0  0  0  0  0
    0.3577   -0.5843    1.1143 H   0  0  0  0  0  0  0  0  0  0  0  0
    0.3613   -0.2794   -1.0156 C   0  0  0  0  0  0  0  0  0  0  0  0
    0.0486    0.5619   -1.6364 H   0  0  0  0  0  0  0  0  0  0  0  0
    1.4462   -0.2374   -0.9086 H   0  0  0  0  0  0  0  0  0  0  0  0
   -0.0087   -1.5891   -1.7331 C   0  0  0  0  0  0  0  0  0  0  0  0
    0.2982   -2.4430   -1.1289 H   0  0  0  0  0  0  0  0  0  0  0  0
   -1.0877   -1.6248   -1.8788 H   0  0  0  0  0  0  0  0  0  0  0  0
    0.6579   -1.7079   -3.0998 C   0  0  0  0  0  0  0  0  0  0  0  0
    1.3039   -0.8261   -3.6430 O   0  0  0  0  0  0  0  0  0  0  0  0
    0.4879   -2.8864   -3.7274 O   0  0  0  0  0  0  0  0  0  0  0  0
    0.9491   -2.7949   -4.5630 H   0  0  0  0  0  0  0  0  0  0  0  0
   -0.4860    1.3537    0.7622 C   0  0  0  0  0  0  0  0  0  0  0  0
   -1.3956    2.0096    0.2582 O   0  0  0  0  0  0  0  0  0  0  0  0
    0.3741    1.8728    1.6466 N   0  0  0  0  0  0  0  0  0  0  0  0
    1.0814    1.2667    2.0345 H   0  0  0  0  0  0  0  0  0  0  0  0
    0.3380    3.2610    2.1024 C   0  0  0  0  0  0  0  0  0  0  0  0
   -0.6389    3.4820    2.5363 H   0  0  0  0  0  0  0  0  0  0  0  0
    1.1108    3.4337    2.8528 H   0  0  0  0  0  0  0  0  0  0  0  0
    0.5009    3.9312    1.2562 H   0  0  0  0  0  0  0  0  0  0  0  0
  5  6  2  0  0  0  0
  5  7  1  0  0  0  0
  2  3  1  0  0  0  0
  2  4  1  0  0  0  0
  2  5  1  0  0  0  0
  1  2  1  0  0  0  0
 21 22  2  0  0  0  0
 21 23  1  0  0  0  0
 19 20  1  0  0  0  0
 17 18  2  0  0  0  0
 17 19  1  0  0  0  0
 14 15  1  0  0  0  0
 14 16  1  0  0  0  0
 14 17  1  0  0  0  0
 11 12  1  0  0  0  0
 11 13  1  0  0  0  0
 11 14  1  0  0  0  0
  9 10  1  0  0  0  0
  9 11  1  0  0  0  0
  9 21  1  0  0  0  0
  7  8  1  0  0  0  0
  7  9  1  0  0  0  0
 25 26  1  0  0  0  0
 25 27  1  0  0  0  0
 25 28  1  0  0  0  0
 23 24  1  0  0  0  0
 23 25  1  0  0  0  0
M  END
$$$$
default_name
  -OEChem-02102213163D

 28 27  0     1  0  0  0  0  0999 V2000
   -3.2133   -3.5565    1.2809 H   0  0  0  0  0  0  0  0  0  0  0  0
   -3.1873   -2.5755    0.8089 C   0  0  0  0  0  0  0  0  0  0  0  0
   -3.8793   -1.9065    1.3169 H   0  0  0  0  0  0  0  0  0  0  0  0
   -3.4623   -2.6685   -0.2401 H   0  0  0  0  0  0  0  0  0  0  0  0
   -1.7863   -2.0195    0.9119 C   0  0  0  0  0  0  0  0  0  0  0  0
   -0.9073   -2.6615    1.4699 O   0  0  0  0  0  0  0  0  0  0  0  0
   -1.5803   -0.8195    0.3749 N   0  0  0  0  0  0  0  0  0  0  0  0
   -2.3603   -0.3345   -0.0451 H   0  0  0  0  0  0  0  0  0  0  0  0
   -0.2933   -0.1205    0.3719 C   0  0  1  0  0  0  0  0  0  0  0  0
    0.3577   -0.5843    1.1143 H   0  0  0  0  0  0  0  0  0  0  0  0
    0.3613   -0.2794   -1.0156 C   0  0  0  0  0  0  0  0  0  0  0  0
    0.0486    0.5619   -1.6364 H   0  0  0  0  0  0  0  0  0  0  0  0
    1.4462   -0.2374   -0.9086 H   0  0  0  0  0  0  0  0  0  0  0  0
   -0.0087   -1.5891   -1.7331 C   0  0  0  0  0  0  0  0  0  0  0  0
    0.0485   -2.4241   -1.0346 H   0  0  0  0  0  0  0  0  0  0  0  0
   -1.0261   -1.5128   -2.1150 H   0  0  0  0  0  0  0  0  0  0  0  0
    0.9173   -1.8861   -2.9082 C   0  0  0  0  0  0  0  0  0  0  0  0
    1.7726   -1.1272   -3.3350 O   0  0  0  0  0  0  0  0  0  0  0  0
    0.7381   -3.0818   -3.4997 O   0  0  0  0  0  0  0  0  0  0  0  0
    1.3771   -3.1069   -4.2141 H   0  0  0  0  0  0  0  0  0  0  0  0
   -0.4860    1.3537    0.7622 C   0  0  0  0  0  0  0  0  0  0  0  0
   -1.3956    2.0096    0.2582 O   0  0  0  0  0  0  0  0  0  0  0  0
    0.3741    1.8728    1.6466 N   0  0  0  0  0  0  0  0  0  0  0  0
    1.0814    1.2667    2.0345 H   0  0  0  0  0  0  0  0  0  0  0  0
    0.3380    3.2610    2.1024 C   0  0  0  0  0  0  0  0  0  0  0  0
   -0.6389    3.4820    2.5363 H   0  0  0  0  0  0  0  0  0  0  0  0
    1.1108    3.4337    2.8528 H   0  0  0  0  0  0  0  0  0  0  0  0
    0.5009    3.9312    1.2562 H   0  0  0  0  0  0  0  0  0  0  0  0
  5  6  2  0  0  0  0
  5  7  1  0  0  0  0
  2  3  1  0  0  0  0
  2  4  1  0  0  0  0
  2  5  1  0  0  0  0
  1  2  1  0  0  0  0
 21 22  2  0  0  0  0
 21 23  1  0  0  0  0
 19 20  1  0  0  0  0
 17 18  2  0  0  0  0
 17 19  1  0  0  0  0
 14 15  1  0  0  0  0
 14 16  1  0  0  0  0
 14 17  1  0  0  0  0
 11 12  1  0  0  0  0
 11 13  1  0  0  0  0
 11 14  1  0  0  0  0
  9 10  1  0  0  0  0
  9 11  1  0  0  0  0
  9 21  1  0  0  0  0
  7  8  1  0  0  0  0
  7  9  1  0  0  0  0
 25 26  1  0  0  0  0
 25 27  1  0  0  0  0
 25 28  1  0  0  0  0
 23 24  1  0  0  0  0
 23 25  1  0  0  0  0
M  END
$$$$
default_name
  -OEChem-02102213163D

 28 27  0     1  0  0  0  0  0999 V2000
   -3.2133   -3.5565    1.2809 H   0  0  0  0  0  0  0  0  0  0  0  0
   -3.1873   -2.5755    0.8089 C   0  0  0  0  0  0  0  0  0  0  0  0
   -3.8793   -1.9065    1.3169 H   0  0  0  0  0  0  0  0  0  0  0  0
   -3.4623   -2.6685   -0.2401 H   0  0  0  0  0  0  0  0  0  0  0  0
   -1.7863   -2.0195    0.9119 C   0  0  0  0  0  0  0  0  0  0  0  0
   -0.9073   -2.6615    1.4699 O   0  0  0  0  0  0  0  0  0  0  0  0
   -1.5803   -0.8195    0.3749 N   0  0  0  0  0  0  0  0  0  0  0  0
   -2.3603   -0.3345   -0.0451 H   0  0  0  0  0  0  0  0  0  0  0  0
   -0.2933   -0.1205    0.3719 C   0  0  1  0  0  0  0  0  0  0  0  0
    0.3577   -0.5843    1.1143 H   0  0  0  0  0  0  0  0  0  0  0  0
    0.3613   -0.2794   -1.0156 C   0  0  0  0  0  0  0  0  0  0  0  0
    0.0486    0.5619   -1.6364 H   0  0  0  0  0  0  0  0  0  0  0  0
    1.4462   -0.2374   -0.9086 H   0  0  0  0  0  0  0  0  0  0  0  0
   -0.0087   -1.5891   -1.7331 C   0  0  0  0  0  0  0  0  0  0  0  0
   -0.2112   -2.3698   -0.9997 H   0  0  0  0  0  0  0  0  0  0  0  0
   -0.9010   -1.4268   -2.3366 H   0  0  0  0  0  0  0  0  0  0  0  0
    1.1040   -2.0777   -2.6548 C   0  0  0  0  0  0  0  0  0  0  0  0
    2.1213   -1.4555   -2.9155 O   0  0  0  0  0  0  0  0  0  0  0  0
    0.9060   -3.2866   -3.2125 O   0  0  0  0  0  0  0  0  0  0  0  0
    1.6760   -3.4383   -3.7634 H   0  0  0  0  0  0  0  0  0  0  0  0
   -0.4860    1.3537    0.7622 C   0  0  0  0  0  0  0  0  0  0  0  0
   -1.3956    2.0096    0.2582 O   0  0  0  0  0  0  0  0  0  0  0  0
    0.3741    1.8728    1.6466 N   0  0  0  0  0  0  0  0  0  0  0  0
    1.0814    1.2667    2.0345 H   0  0  0  0  0  0  0  0  0  0  0  0
    0.3380    3.2610    2.1024 C   0  0  0  0  0  0  0  0  0  0  0  0
   -0.6389    3.4820    2.5363 H   0  0  0  0  0  0  0  0  0  0  0  0
    1.1108    3.4337    2.8528 H   0  0  0  0  0  0  0  0  0  0  0  0
    0.5009    3.9312    1.2562 H   0  0  0  0  0  0  0  0  0  0  0  0
  5  6  2  0  0  0  0
  5  7  1  0  0  0  0
  2  3  1  0  0  0  0
  2  4  1  0  0  0  0
  2  5  1  0  0  0  0
  1  2  1  0  0  0  0
 21 22  2  0  0  0  0
 21 23  1  0  0  0  0
 19 20  1  0  0  0  0
 17 18  2  0  0  0  0
 17 19  1  0  0  0  0
 14 15  1  0  0  0  0
 14 16  1  0  0  0  0
 14 17  1  0  0  0  0
 11 12  1  0  0  0  0
 11 13  1  0  0  0  0
 11 14  1  0  0  0  0
  9 10  1  0  0  0  0
  9 11  1  0  0  0  0
  9 21  1  0  0  0  0
  7  8  1  0  0  0  0
  7  9  1  0  0  0  0
 25 26  1  0  0  0  0
 25 27  1  0  0  0  0
 25 28  1  0  0  0  0
 23 24  1  0  0  0  0
 23 25  1  0  0  0  0
M  END
$$$$
default_name
  -OEChem-02102213163D

 28 27  0     1  0  0  0  0  0999 V2000
   -3.2133   -3.5565    1.2809 H   0  0  0  0  0  0  0  0  0  0  0  0
   -3.1873   -2.5755    0.8089 C   0  0  0  0  0  0  0  0  0  0  0  0
   -3.8793   -1.9065    1.3169 H   0  0  0  0  0  0  0  0  0  0  0  0
   -3.4623   -2.6685   -0.2401 H   0  0  0  0  0  0  0  0  0  0  0  0
   -1.7863   -2.0195    0.9119 C   0  0  0  0  0  0  0  0  0  0  0  0
   -0.9073   -2.6615    1.4699 O   0  0  0  0  0  0  0  0  0  0  0  0
   -1.5803   -0.8195    0.3749 N   0  0  0  0  0  0  0  0  0  0  0  0
   -2.3603   -0.3345   -0.0451 H   0  0  0  0  0  0  0  0  0  0  0  0
   -0.2933   -0.1205    0.3719 C   0  0  1  0  0  0  0  0  0  0  0  0
    0.3577   -0.5843    1.1143 H   0  0  0  0  0  0  0  0  0  0  0  0
    0.3613   -0.2794   -1.0156 C   0  0  0  0  0  0  0  0  0  0  0  0
    0.0486    0.5619   -1.6364 H   0  0  0  0  0  0  0  0  0  0  0  0
    1.4462   -0.2374   -0.9086 H   0  0  0  0  0  0  0  0  0  0  0  0
   -0.0087   -1.5891   -1.7331 C   0  0  0  0  0  0  0  0  0  0  0  0
   -0.4631   -2.2839   -1.0266 H   0  0  0  0  0  0  0  0  0  0  0  0
   -0.7210   -1.3726   -2.5284 H   0  0  0  0  0  0  0  0  0  0  0  0
    1.2055   -2.2695   -2.3570 C   0  0  0  0  0  0  0  0  0  0  0  0
    2.3259   -1.7886   -2.4131 O   0  0  0  0  0  0  0  0  0  0  0  0
    0.9802   -3.4868   -2.8854 O   0  0  0  0  0  0  0  0  0  0  0  0
    1.8254   -3.7663   -3.2415 H   0  0  0  0  0  0  0  0  0  0  0  0
   -0.4860    1.3537    0.7622 C   0  0  0  0  0  0  0  0  0  0  0  0
   -1.3956    2.0096    0.2582 O   0  0  0  0  0  0  0  0  0  0  0  0
    0.3741    1.8728    1.6466 N   0  0  0  0  0  0  0  0  0  0  0  0
    1.0814    1.2667    2.0345 H   0  0  0  0  0  0  0  0  0  0  0  0
    0.3380    3.2610    2.1024 C   0  0  0  0  0  0  0  0  0  0  0  0
   -0.6389    3.4820    2.5363 H   0  0  0  0  0  0  0  0  0  0  0  0
    1.1108    3.4337    2.8528 H   0  0  0  0  0  0  0  0  0  0  0  0
    0.5009    3.9312    1.2562 H   0  0  0  0  0  0  0  0  0  0  0  0
  5  6  2  0  0  0  0
  5  7  1  0  0  0  0
  2  3  1  0  0  0  0
  2  4  1  0  0  0  0
  2  5  1  0  0  0  0
  1  2  1  0  0  0  0
 21 22  2  0  0  0  0
 21 23  1  0  0  0  0
 19 20  1  0  0  0  0
 17 18  2  0  0  0  0
 17 19  1  0  0  0  0
 14 15  1  0  0  0  0
 14 16  1  0  0  0  0
 14 17  1  0  0  0  0
 11 12  1  0  0  0  0
 11 13  1  0  0  0  0
 11 14  1  0  0  0  0
  9 10  1  0  0  0  0
  9 11  1  0  0  0  0
  9 21  1  0  0  0  0
  7  8  1  0  0  0  0
  7  9  1  0  0  0  0
 25 26  1  0  0  0  0
 25 27  1  0  0  0  0
 25 28  1  0  0  0  0
 23 24  1  0  0  0  0
 23 25  1  0  0  0  0
M  END
$$$$
default_name
  -OEChem-02102213163D

 28 27  0     1  0  0  0  0  0999 V2000
   -3.2133   -3.5565    1.2809 H   0  0  0  0  0  0  0  0  0  0  0  0
   -3.1873   -2.5755    0.8089 C   0  0  0  0  0  0  0  0  0  0  0  0
   -3.8793   -1.9065    1.3169 H   0  0  0  0  0  0  0  0  0  0  0  0
   -3.4623   -2.6685   -0.2401 H   0  0  0  0  0  0  0  0  0  0  0  0
   -1.7863   -2.0195    0.9119 C   0  0  0  0  0  0  0  0  0  0  0  0
   -0.9073   -2.6615    1.4699 O   0  0  0  0  0  0  0  0  0  0  0  0
   -1.5803   -0.8195    0.3749 N   0  0  0  0  0  0  0  0  0  0  0  0
   -2.3603   -0.3345   -0.0451 H   0  0  0  0  0  0  0  0  0  0  0  0
   -0.2933   -0.1205    0.3719 C   0  0  1  0  0  0  0  0  0  0  0  0
    0.3577   -0.5843    1.1143 H   0  0  0  0  0  0  0  0  0  0  0  0
    0.3613   -0.2794   -1.0156 C   0  0  0  0  0  0  0  0  0  0  0  0
    0.0486    0.5619   -1.6364 H   0  0  0  0  0  0  0  0  0  0  0  0
    1.4462   -0.2374   -0.9086 H   0  0  0  0  0  0  0  0  0  0  0  0
   -0.0087   -1.5891   -1.7331 C   0  0  0  0  0  0  0  0  0  0  0  0
   -0.6902   -2.1722   -1.1135 H   0  0  0  0  0  0  0  0  0  0  0  0
   -0.4982   -1.3538   -2.6774 H   0  0  0  0  0  0  0  0  0  0  0  0
    1.2147   -2.4485   -2.0351 C   0  0  0  0  0  0  0  0  0  0  0  0
    2.3727   -2.1038   -1.8619 O   0  0  0  0  0  0  0  0  0  0  0  0
    0.9557   -3.6687   -2.5405 O   0  0  0  0  0  0  0  0  0  0  0  0
    1.8151   -4.0688   -2.6842 H   0  0  0  0  0  0  0  0  0  0  0  0
   -0.4860    1.3537    0.7622 C   0  0  0  0  0  0  0  0  0  0  0  0
   -1.3956    2.0096    0.2582 O   0  0  0  0  0  0  0  0  0  0  0  0
    0.3741    1.8728    1.6466 N   0  0  0  0  0  0  0  0  0  0  0  0
    1.0814    1.2667    2.0345 H   0  0  0  0  0  0  0  0  0  0  0  0
    0.3380    3.2610    2.1024 C   0  0  0  0  0  0  0  0  0  0  0  0
   -0.6389    3.4820    2.5363 H   0  0  0  0  0  0  0  0  0  0  0  0
    1.1108    3.4337    2.8528 H   0  0  0  0  0  0  0  0  0  0  0  0
    0.5009    3.9312    1.2562 H   0  0  0  0  0  0  0  0  0  0  0  0
  5  6  2  0  0  0  0
  5  7  1  0  0  0  0
  2  3  1  0  0  0  0
  2  4  1  0  0  0  0
  2  5  1  0  0  0  0
  1  2  1  0  0  0  0
 21 22  2  0  0  0  0
 21 23  1  0  0  0  0
 19 20  1  0  0  0  0
 17 18  2  0  0  0  0
 17 19  1  0  0  0  0
 14 15  1  0  0  0  0
 14 16  1  0  0  0  0
 14 17  1  0  0  0  0
 11 12  1  0  0  0  0
 11 13  1  0  0  0  0
 11 14  1  0  0  0  0
  9 10  1  0  0  0  0
  9 11  1  0  0  0  0
  9 21  1  0  0  0  0
  7  8  1  0  0  0  0
  7  9  1  0  0  0  0
 25 26  1  0  0  0  0
 25 27  1  0  0  0  0
 25 28  1  0  0  0  0
 23 24  1  0  0  0  0
 23 25  1  0  0  0  0
M  END
$$$$
default_name
  -OEChem-02102213163D

 28 27  0     1  0  0  0  0  0999 V2000
   -3.2133   -3.5565    1.2809 H   0  0  0  0  0  0  0  0  0  0  0  0
   -3.1873   -2.5755    0.8089 C   0  0  0  0  0  0  0  0  0  0  0  0
   -3.8793   -1.9065    1.3169 H   0  0  0  0  0  0  0  0  0  0  0  0
   -3.4623   -2.6685   -0.2401 H   0  0  0  0  0  0  0  0  0  0  0  0
   -1.7863   -2.0195    0.9119 C   0  0  0  0  0  0  0  0  0  0  0  0
   -0.9073   -2.6615    1.4699 O   0  0  0  0  0  0  0  0  0  0  0  0
   -1.5803   -0.8195    0.3749 N   0  0  0  0  0  0  0  0  0  0  0  0
   -2.3603   -0.3345   -0.0451 H   0  0  0  0  0  0  0  0  0  0  0  0
   -0.2933   -0.1205    0.3719 C   0  0  1  0  0  0  0  0  0  0  0  0
    0.3577   -0.5843    1.1143 H   0  0  0  0  0  0  0  0  0  0  0  0
    0.3613   -0.2794   -1.0156 C   0  0  0  0  0  0  0  0  0  0  0  0
    0.0486    0.5619   -1.6364 H   0  0  0  0  0  0  0  0  0  0  0  0
    1.4462   -0.2374   -0.9086 H   0  0  0  0  0  0  0  0  0  0  0  0
   -0.0087   -1.5891   -1.7331 C   0  0  0  0  0  0  0  0  0  0  0  0
   -0.8769   -2.0423   -1.2544 H   0  0  0  0  0  0  0  0  0  0  0  0
   -0.2480   -1.3719   -2.7734 H   0  0  0  0  0  0  0  0  0  0  0  0
    1.1311   -2.6024   -1.7109 C   0  0  0  0  0  0  0  0  0  0  0  0
    2.2585   -2.3796   -1.2996 O   0  0  0  0  0  0  0  0  0  0  0  0
    0.8340   -3.8201   -2.2015 O   0  0  0  0  0  0  0  0  0  0  0  0
    1.6458   -4.3250   -2.1292 H   0  0  0  0  0  0  0  0  0  0  0  0
   -0.4860    1.3537    0.7622 C   0  0  0  0  0  0  0  0  0  0  0  0
   -1.3956    2.0096    0.2582 O   0  0  0  0  0  0  0  0  0  0  0  0
    0.3741    1.8728    1.6466 N   0  0  0  0  0  0  0  0  0  0  0  0
    1.0814    1.2667    2.0345 H   0  0  0  0  0  0  0  0  0  0  0  0
    0.3380    3.2610    2.1024 C   0  0  0  0  0  0  0  0  0  0  0  0
   -0.6389    3.4820    2.5363 H   0  0  0  0  0  0  0  0  0  0  0  0
    1.1108    3.4337    2.8528 H   0  0  0  0  0  0  0  0  0  0  0  0
    0.5009    3.9312    1.2562 H   0  0  0  0  0  0  0  0  0  0  0  0
  5  6  2  0  0  0  0
  5  7  1  0  0  0  0
  2  3  1  0  0  0  0
  2  4  1  0  0  0  0
  2  5  1  0  0  0  0
  1  2  1  0  0  0  0
 21 22  2  0  0  0  0
 21 23  1  0  0  0  0
 19 20  1  0  0  0  0
 17 18  2  0  0  0  0
 17 19  1  0  0  0  0
 14 15  1  0  0  0  0
 14 16  1  0  0  0  0
 14 17  1  0  0  0  0
 11 12  1  0  0  0  0
 11 13  1  0  0  0  0
 11 14  1  0  0  0  0
  9 10  1  0  0  0  0
  9 11  1  0  0  0  0
  9 21  1  0  0  0  0
  7  8  1  0  0  0  0
  7  9  1  0  0  0  0
 25 26  1  0  0  0  0
 25 27  1  0  0  0  0
 25 28  1  0  0  0  0
 23 24  1  0  0  0  0
 23 25  1  0  0  0  0
M  END
$$$$
default_name
  -OEChem-02102213163D

 28 27  0     1  0  0  0  0  0999 V2000
   -3.2133   -3.5565    1.2809 H   0  0  0  0  0  0  0  0  0  0  0  0
   -3.1873   -2.5755    0.8089 C   0  0  0  0  0  0  0  0  0  0  0  0
   -3.8793   -1.9065    1.3169 H   0  0  0  0  0  0  0  0  0  0  0  0
   -3.4623   -2.6685   -0.2401 H   0  0  0  0  0  0  0  0  0  0  0  0
   -1.7863   -2.0195    0.9119 C   0  0  0  0  0  0  0  0  0  0  0  0
   -0.9073   -2.6615    1.4699 O   0  0  0  0  0  0  0  0  0  0  0  0
   -1.5803   -0.8195    0.3749 N   0  0  0  0  0  0  0  0  0  0  0  0
   -2.3603   -0.3345   -0.0451 H   0  0  0  0  0  0  0  0  0  0  0  0
   -0.2933   -0.1205    0.3719 C   0  0  1  0  0  0  0  0  0  0  0  0
    0.3577   -0.5843    1.1143 H   0  0  0  0  0  0  0  0  0  0  0  0
    0.3613   -0.2794   -1.0156 C   0  0  0  0  0  0  0  0  0  0  0  0
    0.0486    0.5619   -1.6364 H   0  0  0  0  0  0  0  0  0  0  0  0
    1.4462   -0.2374   -0.9086 H   0  0  0  0  0  0  0  0  0  0  0  0
   -0.0087   -1.5891   -1.7331 C   0  0  0  0  0  0  0  0  0  0  0  0
   -1.0105   -1.9030   -1.4396 H   0  0  0  0  0  0  0  0  0  0  0  0
    0.0126   -1.4256   -2.8099 H   0  0  0  0  0  0  0  0  0  0  0  0
    0.9603   -2.7209   -1.4067 C   0  0  0  0  0  0  0  0  0  0  0  0
    1.9909   -2.5972   -0.7645 O   0  0  0  0  0  0  0  0  0  0  0  0
    0.6235   -3.9305   -1.8915 O   0  0  0  0  0  0  0  0  0  0  0  0
    1.3292   -4.5175   -1.6145 H   0  0  0  0  0  0  0  0  0  0  0  0
   -0.4860    1.3537    0.7622 C   0  0  0  0  0  0  0  0  0  0  0  0
   -1.3956    2.0096    0.2582 O   0  0  0  0  0  0  0  0  0  0  0  0
    0.3741    1.8728    1.6466 N   0  0  0  0  0  0  0  0  0  0  0  0
    1.0814    1.2667    2.0345 H   0  0  0  0  0  0  0  0  0  0  0  0
    0.3380    3.2610    2.1024 C   0  0  0  0  0  0  0  0  0  0  0  0
   -0.6389    3.4820    2.5363 H   0  0  0  0  0  0  0  0  0  0  0  0
    1.1108    3.4337    2.8528 H   0  0  0  0  0  0  0  0  0  0  0  0
    0.5009    3.9312    1.2562 H   0  0  0  0  0  0  0  0  0  0  0  0
  5  6  2  0  0  0  0
  5  7  1  0  0  0  0
  2  3  1  0  0  0  0
  2  4  1  0  0  0  0
  2  5  1  0  0  0  0
  1  2  1  0  0  0  0
 21 22  2  0  0  0  0
 21 23  1  0  0  0  0
 19 20  1  0  0  0  0
 17 18  2  0  0  0  0
 17 19  1  0  0  0  0
 14 15  1  0  0  0  0
 14 16  1  0  0  0  0
 14 17  1  0  0  0  0
 11 12  1  0  0  0  0
 11 13  1  0  0  0  0
 11 14  1  0  0  0  0
  9 10  1  0  0  0  0
  9 11  1  0  0  0  0
  9 21  1  0  0  0  0
  7  8  1  0  0  0  0
  7  9  1  0  0  0  0
 25 26  1  0  0  0  0
 25 27  1  0  0  0  0
 25 28  1  0  0  0  0
 23 24  1  0  0  0  0
 23 25  1  0  0  0  0
M  END
$$$$
default_name
  -OEChem-02102213163D

 28 27  0     1  0  0  0  0  0999 V2000
   -3.2133   -3.5565    1.2809 H   0  0  0  0  0  0  0  0  0  0  0  0
   -3.1873   -2.5755    0.8089 C   0  0  0  0  0  0  0  0  0  0  0  0
   -3.8793   -1.9065    1.3169 H   0  0  0  0  0  0  0  0  0  0  0  0
   -3.4623   -2.6685   -0.2401 H   0  0  0  0  0  0  0  0  0  0  0  0
   -1.7863   -2.0195    0.9119 C   0  0  0  0  0  0  0  0  0  0  0  0
   -0.9073   -2.6615    1.4699 O   0  0  0  0  0  0  0  0  0  0  0  0
   -1.5803   -0.8195    0.3749 N   0  0  0  0  0  0  0  0  0  0  0  0
   -2.3603   -0.3345   -0.0451 H   0  0  0  0  0  0  0  0  0  0  0  0
   -0.2933   -0.1205    0.3719 C   0  0  1  0  0  0  0  0  0  0  0  0
    0.3577   -0.5843    1.1143 H   0  0  0  0  0  0  0  0  0  0  0  0
    0.3613   -0.2794   -1.0156 C   0  0  0  0  0  0  0  0  0  0  0  0
    0.0486    0.5619   -1.6364 H   0  0  0  0  0  0  0  0  0  0  0  0
    1.4462   -0.2374   -0.9086 H   0  0  0  0  0  0  0  0  0  0  0  0
   -0.0087   -1.5891   -1.7331 C   0  0  0  0  0  0  0  0  0  0  0  0
   -1.0820   -1.7639   -1.6567 H   0  0  0  0  0  0  0  0  0  0  0  0
    0.2659   -1.5111   -2.7844 H   0  0  0  0  0  0  0  0  0  0  0  0
    0.7141   -2.7957   -1.1430 C   0  0  0  0  0  0  0  0  0  0  0  0
    1.5883   -2.7417   -0.2930 O   0  0  0  0  0  0  0  0  0  0  0  0
    0.3386   -3.9924   -1.6315 O   0  0  0  0  0  0  0  0  0  0  0  0
    0.8866   -4.6332   -1.1751 H   0  0  0  0  0  0  0  0  0  0  0  0
   -0.4860    1.3537    0.7622 C   0  0  0  0  0  0  0  0  0  0  0  0
   -1.3956    2.0096    0.2582 O   0  0  0  0  0  0  0  0  0  0  0  0
    0.3741    1.8728    1.6466 N   0  0  0  0  0  0  0  0  0  0  0  0
    1.0814    1.2667    2.0345 H   0  0  0  0  0  0  0  0  0  0  0  0
    0.3380    3.2610    2.1024 C   0  0  0  0  0  0  0  0  0  0  0  0
   -0.6389    3.4820    2.5363 H   0  0  0  0  0  0  0  0  0  0  0  0
    1.1108    3.4337    2.8528 H   0  0  0  0  0  0  0  0  0  0  0  0
    0.5009    3.9312    1.2562 H   0  0  0  0  0  0  0  0  0  0  0  0
  5  6  2  0  0  0  0
  5  7  1  0  0  0  0
  2  3  1  0  0  0  0
  2  4  1  0  0  0  0
  2  5  1  0  0  0  0
  1  2  1  0  0  0  0
 21 22  2  0  0  0  0
 21 23  1  0  0  0  0
 19 20  1  0  0  0  0
 17 18  2  0  0  0  0
 17 19  1  0  0  0  0
 14 15  1  0  0  0  0
 14 16  1  0  0  0  0
 14 17  1  0  0  0  0
 11 12  1  0  0  0  0
 11 13  1  0  0  0  0
 11 14  1  0  0  0  0
  9 10  1  0  0  0  0
  9 11  1  0  0  0  0
  9 21  1  0  0  0  0
  7  8  1  0  0  0  0
  7  9  1  0  0  0  0
 25 26  1  0  0  0  0
 25 27  1  0  0  0  0
 25 28  1  0  0  0  0
 23 24  1  0  0  0  0
 23 25  1  0  0  0  0
M  END
$$$$
default_name
  -OEChem-02102213163D

 28 27  0     1  0  0  0  0  0999 V2000
   -3.2133   -3.5565    1.2809 H   0  0  0  0  0  0  0  0  0  0  0  0
   -3.1873   -2.5755    0.8089 C   0  0  0  0  0  0  0  0  0  0  0  0
   -3.8793   -1.9065    1.3169 H   0  0  0  0  0  0  0  0  0  0  0  0
   -3.4623   -2.6685   -0.2401 H   0  0  0  0  0  0  0  0  0  0  0  0
   -1.7863   -2.0195    0.9119 C   0  0  0  0  0  0  0  0  0  0  0  0
   -0.9073   -2.6615    1.4699 O   0  0  0  0  0  0  0  0  0  0  0  0
   -1.5803   -0.8195    0.3749 N   0  0  0  0  0  0  0  0  0  0  0  0
   -2.3603   -0.3345   -0.0451 H   0  0  0  0  0  0  0  0  0  0  0  0
   -0.2933   -0.1205    0.3719 C   0  0  1  0  0  0  0  0  0  0  0  0
    0.3577   -0.5843    1.1143 H   0  0  0  0  0  0  0  0  0  0  0  0
    0.3613   -0.2794   -1.0156 C   0  0  0  0  0  0  0  0  0  0  0  0
    0.0486    0.5619   -1.6364 H   0  0  0  0  0  0  0  0  0  0  0  0
    1.4462   -0.2374   -0.9086 H   0  0  0  0  0  0  0  0  0  0  0  0
   -0.0087   -1.5891   -1.7331 C   0  0  0  0  0  0  0  0  0  0  0  0
   -1.0864   -1.6344   -1.8908 H   0  0  0  0  0  0  0  0  0  0  0  0
    0.4947   -1.6227   -2.6986 H   0  0  0  0  0  0  0  0  0  0  0  0
    0.4090   -2.8219   -0.9380 C   0  0  0  0  0  0  0  0  0  0  0  0
    1.0781   -2.8034    0.0827 O   0  0  0  0  0  0  0  0  0  0  0  0
   -0.0014   -4.0017   -1.4393 O   0  0  0  0  0  0  0  0  0  0  0  0
    0.3484   -4.6642   -0.8410 H   0  0  0  0  0  0  0  0  0  0  0  0
   -0.4860    1.3537    0.7622 C   0  0  0  0  0  0  0  0  0  0  0  0
   -1.3956    2.0096    0.2582 O   0  0  0  0  0  0  0  0  0  0  0  0
    0.3741    1.8728    1.6466 N   0  0  0  0  0  0  0  0  0  0  0  0
    1.0814    1.2667    2.0345 H   0  0  0  0  0  0  0  0  0  0  0  0
    0.3380    3.2610    2.1024 C   0  0  0  0  0  0  0  0  0  0  0  0
   -0.6389    3.4820    2.5363 H   0  0  0  0  0  0  0  0  0  0  0  0
    1.1108    3.4337    2.8528 H   0  0  0  0  0  0  0  0  0  0  0  0
    0.5009    3.9312    1.2562 H   0  0  0  0  0  0  0  0  0  0  0  0
  5  6  2  0  0  0  0
  5  7  1  0  0  0  0
  2  3  1  0  0  0  0
  2  4  1  0  0  0  0
  2  5  1  0  0  0  0
  1  2  1  0  0  0  0
 21 22  2  0  0  0  0
 21 23  1  0  0  0  0
 19 20  1  0  0  0  0
 17 18  2  0  0  0  0
 17 19  1  0  0  0  0
 14 15  1  0  0  0  0
 14 16  1  0  0  0  0
 14 17  1  0  0  0  0
 11 12  1  0  0  0  0
 11 13  1  0  0  0  0
 11 14  1  0  0  0  0
  9 10  1  0  0  0  0
  9 11  1  0  0  0  0
  9 21  1  0  0  0  0
  7  8  1  0  0  0  0
  7  9  1  0  0  0  0
 25 26  1  0  0  0  0
 25 27  1  0  0  0  0
 25 28  1  0  0  0  0
 23 24  1  0  0  0  0
 23 25  1  0  0  0  0
M  END
$$$$
default_name
  -OEChem-02102213163D

 28 27  0     1  0  0  0  0  0999 V2000
   -3.2133   -3.5565    1.2809 H   0  0  0  0  0  0  0  0  0  0  0  0
   -3.1873   -2.5755    0.8089 C   0  0  0  0  0  0  0  0  0  0  0  0
   -3.8793   -1.9065    1.3169 H   0  0  0  0  0  0  0  0  0  0  0  0
   -3.4623   -2.6685   -0.2401 H   0  0  0  0  0  0  0  0  0  0  0  0
   -1.7863   -2.0195    0.9119 C   0  0  0  0  0  0  0  0  0  0  0  0
   -0.9073   -2.6615    1.4699 O   0  0  0  0  0  0  0  0  0  0  0  0
   -1.5803   -0.8195    0.3749 N   0  0  0  0  0  0  0  0  0  0  0  0
   -2.3603   -0.3345   -0.0451 H   0  0  0  0  0  0  0  0  0  0  0  0
   -0.2933   -0.1205    0.3719 C   0  0  1  0  0  0  0  0  0  0  0  0
    0.3577   -0.5843    1.1143 H   0  0  0  0  0  0  0  0  0  0  0  0
    0.3613   -0.2794   -1.0156 C   0  0  0  0  0  0  0  0  0  0  0  0
    0.0486    0.5619   -1.6364 H   0  0  0  0  0  0  0  0  0  0  0  0
    1.4462   -0.2374   -0.9086 H   0  0  0  0  0  0  0  0  0  0  0  0
   -0.0087   -1.5891   -1.7331 C   0  0  0  0  0  0  0  0  0  0  0  0
   -1.0234   -1.5234   -2.1260 H   0  0  0  0  0  0  0  0  0  0  0  0
    0.6833   -1.7528   -2.5583 H   0  0  0  0  0  0  0  0  0  0  0  0
    0.0661   -2.7976   -0.8055 C   0  0  0  0  0  0  0  0  0  0  0  0
    0.4950   -2.7781    0.3371 O   0  0  0  0  0  0  0  0  0  0  0  0
   -0.3733   -3.9576   -1.3280 O   0  0  0  0  0  0  0  0  0  0  0  0
   -0.2488   -4.6084   -0.6350 H   0  0  0  0  0  0  0  0  0  0  0  0
   -0.4860    1.3537    0.7622 C   0  0  0  0  0  0  0  0  0  0  0  0
   -1.3956    2.0096    0.2582 O   0  0  0  0  0  0  0  0  0  0  0  0
    0.3741    1.8728    1.6466 N   0  0  0  0  0  0  0  0  0  0  0  0
    1.0814    1.2667    2.0345 H   0  0  0  0  0  0  0  0  0  0  0  0
    0.3380    3.2610    2.1024 C   0  0  0  0  0  0  0  0  0  0  0  0
   -0.6389    3.4820    2.5363 H   0  0  0  0  0  0  0  0  0  0  0  0
    1.1108    3.4337    2.8528 H   0  0  0  0  0  0  0  0  0  0  0  0
    0.5009    3.9312    1.2562 H   0  0  0  0  0  0  0  0  0  0  0  0
  5  6  2  0  0  0  0
  5  7  1  0  0  0  0
  2  3  1  0  0  0  0
  2  4  1  0  0  0  0
  2  5  1  0  0  0  0
  1  2  1  0  0  0  0
 21 22  2  0  0  0  0
 21 23  1  0  0  0  0
 19 20  1  0  0  0  0
 17 18  2  0  0  0  0
 17 19  1  0  0  0  0
 14 15  1  0  0  0  0
 14 16  1  0  0  0  0
 14 17  1  0  0  0  0
 11 12  1  0  0  0  0
 11 13  1  0  0  0  0
 11 14  1  0  0  0  0
  9 10  1  0  0  0  0
  9 11  1  0  0  0  0
  9 21  1  0  0  0  0
  7  8  1  0  0  0  0
  7  9  1  0  0  0  0
 25 26  1  0  0  0  0
 25 27  1  0  0  0  0
 25 28  1  0  0  0  0
 23 24  1  0  0  0  0
 23 25  1  0  0  0  0
M  END
$$$$
default_name
  -OEChem-02102213163D

 28 27  0     1  0  0  0  0  0999 V2000
   -3.2133   -3.5565    1.2809 H   0  0  0  0  0  0  0  0  0  0  0  0
   -3.1873   -2.5755    0.8089 C   0  0  0  0  0  0  0  0  0  0  0  0
   -3.8793   -1.9065    1.3169 H   0  0  0  0  0  0  0  0  0  0  0  0
   -3.4623   -2.6685   -0.2401 H   0  0  0  0  0  0  0  0  0  0  0  0
   -1.7863   -2.0195    0.9119 C   0  0  0  0  0  0  0  0  0  0  0  0
   -0.9073   -2.6615    1.4699 O   0  0  0  0  0  0  0  0  0  0  0  0
   -1.5803   -0.8195    0.3749 N   0  0  0  0  0  0  0  0  0  0  0  0
   -2.3603   -0.3345   -0.0451 H   0  0  0  0  0  0  0  0  0  0  0  0
   -0.2933   -0.1205    0.3719 C   0  0  1  0  0  0  0  0  0  0  0  0
    0.3577   -0.5843    1.1143 H   0  0  0  0  0  0  0  0  0  0  0  0
    0.3613   -0.2794   -1.0156 C   0  0  0  0  0  0  0  0  0  0  0  0
    0.0486    0.5619   -1.6364 H   0  0  0  0  0  0  0  0  0  0  0  0
    1.4462   -0.2374   -0.9086 H   0  0  0  0  0  0  0  0  0  0  0  0
   -0.0087   -1.5891   -1.7331 C   0  0  0  0  0  0  0  0  0  0  0  0
   -0.8974   -1.4384   -2.3461 H   0  0  0  0  0  0  0  0  0  0  0  0
    0.8188   -1.8925   -2.3733 H   0  0  0  0  0  0  0  0  0  0  0  0
   -0.2914   -2.7245   -0.7546 C   0  0  0  0  0  0  0  0  0  0  0  0
   -0.1211   -2.6673    0.4527 O   0  0  0  0  0  0  0  0  0  0  0  0
   -0.7517   -3.8632   -1.3051 O   0  0  0  0  0  0  0  0  0  0  0  0
   -0.8643   -4.4696   -0.5710 H   0  0  0  0  0  0  0  0  0  0  0  0
   -0.4860    1.3537    0.7622 C   0  0  0  0  0  0  0  0  0  0  0  0
   -1.3956    2.0096    0.2582 O   0  0  0  0  0  0  0  0  0  0  0  0
    0.3741    1.8728    1.6466 N   0  0  0  0  0  0  0  0  0  0  0  0
    1.0814    1.2667    2.0345 H   0  0  0  0  0  0  0  0  0  0  0  0
    0.3380    3.2610    2.1024 C   0  0  0  0  0  0  0  0  0  0  0  0
   -0.6389    3.4820    2.5363 H   0  0  0  0  0  0  0  0  0  0  0  0
    1.1108    3.4337    2.8528 H   0  0  0  0  0  0  0  0  0  0  0  0
    0.5009    3.9312    1.2562 H   0  0  0  0  0  0  0  0  0  0  0  0
  5  6  2  0  0  0  0
  5  7  1  0  0  0  0
  2  3  1  0  0  0  0
  2  4  1  0  0  0  0
  2  5  1  0  0  0  0
  1  2  1  0  0  0  0
 21 22  2  0  0  0  0
 21 23  1  0  0  0  0
 19 20  1  0  0  0  0
 17 18  2  0  0  0  0
 17 19  1  0  0  0  0
 14 15  1  0  0  0  0
 14 16  1  0  0  0  0
 14 17  1  0  0  0  0
 11 12  1  0  0  0  0
 11 13  1  0  0  0  0
 11 14  1  0  0  0  0
  9 10  1  0  0  0  0
  9 11  1  0  0  0  0
  9 21  1  0  0  0  0
  7  8  1  0  0  0  0
  7  9  1  0  0  0  0
 25 26  1  0  0  0  0
 25 27  1  0  0  0  0
 25 28  1  0  0  0  0
 23 24  1  0  0  0  0
 23 25  1  0  0  0  0
M  END
$$$$
default_name
  -OEChem-02102213163D

 28 27  0     1  0  0  0  0  0999 V2000
   -3.2133   -3.5565    1.2809 H   0  0  0  0  0  0  0  0  0  0  0  0
   -3.1873   -2.5755    0.8089 C   0  0  0  0  0  0  0  0  0  0  0  0
   -3.8793   -1.9065    1.3169 H   0  0  0  0  0  0  0  0  0  0  0  0
   -3.4623   -2.6685   -0.2401 H   0  0  0  0  0  0  0  0  0  0  0  0
   -1.7863   -2.0195    0.9119 C   0  0  0  0  0  0  0  0  0  0  0  0
   -0.9073   -2.6615    1.4699 O   0  0  0  0  0  0  0  0  0  0  0  0
   -1.5803   -0.8195    0.3749 N   0  0  0  0  0  0  0  0  0  0  0  0
   -2.3603   -0.3345   -0.0451 H   0  0  0  0  0  0  0  0  0  0  0  0
   -0.2933   -0.1205    0.3719 C   0  0  1  0  0  0  0  0  0  0  0  0
    0.3577   -0.5843    1.1143 H   0  0  0  0  0  0  0  0  0  0  0  0
    0.3613   -0.2794   -1.0156 C   0  0  0  0  0  0  0  0  0  0  0  0
    0.0486    0.5619   -1.6364 H   0  0  0  0  0  0  0  0  0  0  0  0
    1.4462   -0.2374   -0.9086 H   0  0  0  0  0  0  0  0  0  0  0  0
   -0.0087   -1.5891   -1.7331 C   0  0  0  0  0  0  0  0  0  0  0  0
   -0.7168   -1.3852   -2.5363 H   0  0  0  0  0  0  0  0  0  0  0  0
    0.8921   -2.0323   -2.1559 H   0  0  0  0  0  0  0  0  0  0  0  0
   -0.6392   -2.6076   -0.7887 C   0  0  0  0  0  0  0  0  0  0  0  0
   -0.7284   -2.4788    0.4218 O   0  0  0  0  0  0  0  0  0  0  0  0
   -1.1109   -3.7250   -1.3723 O   0  0  0  0  0  0  0  0  0  0  0  0
   -1.4563   -4.2572   -0.6534 H   0  0  0  0  0  0  0  0  0  0  0  0
   -0.4860    1.3537    0.7622 C   0  0  0  0  0  0  0  0  0  0  0  0
   -1.3956    2.0096    0.2582 O   0  0  0  0  0  0  0  0  0  0  0  0
    0.3741    1.8728    1.6466 N   0  0  0  0  0  0  0  0  0  0  0  0
    1.0814    1.2667    2.0345 H   0  0  0  0  0  0  0  0  0  0  0  0
    0.3380    3.2610    2.1024 C   0  0  0  0  0  0  0  0  0  0  0  0
   -0.6389    3.4820    2.5363 H   0  0  0  0  0  0  0  0  0  0  0  0
    1.1108    3.4337    2.8528 H   0  0  0  0  0  0  0  0  0  0  0  0
    0.5009    3.9312    1.2562 H   0  0  0  0  0  0  0  0  0  0  0  0
  5  6  2  0  0  0  0
  5  7  1  0  0  0  0
  2  3  1  0  0  0  0
  2  4  1  0  0  0  0
  2  5  1  0  0  0  0
  1  2  1  0  0  0  0
 21 22  2  0  0  0  0
 21 23  1  0  0  0  0
 19 20  1  0  0  0  0
 17 18  2  0  0  0  0
 17 19  1  0  0  0  0
 14 15  1  0  0  0  0
 14 16  1  0  0  0  0
 14 17  1  0  0  0  0
 11 12  1  0  0  0  0
 11 13  1  0  0  0  0
 11 14  1  0  0  0  0
  9 10  1  0  0  0  0
  9 11  1  0  0  0  0
  9 21  1  0  0  0  0
  7  8  1  0  0  0  0
  7  9  1  0  0  0  0
 25 26  1  0  0  0  0
 25 27  1  0  0  0  0
 25 28  1  0  0  0  0
 23 24  1  0  0  0  0
 23 25  1  0  0  0  0
M  END
$$$$
default_name
  -OEChem-02102213163D

 28 27  0     1  0  0  0  0  0999 V2000
   -3.2133   -3.5565    1.2809 H   0  0  0  0  0  0  0  0  0  0  0  0
   -3.1873   -2.5755    0.8089 C   0  0  0  0  0  0  0  0  0  0  0  0
   -3.8793   -1.9065    1.3169 H   0  0  0  0  0  0  0  0  0  0  0  0
   -3.4623   -2.6685   -0.2401 H   0  0  0  0  0  0  0  0  0  0  0  0
   -1.7863   -2.0195    0.9119 C   0  0  0  0  0  0  0  0  0  0  0  0
   -0.9073   -2.6615    1.4699 O   0  0  0  0  0  0  0  0  0  0  0  0
   -1.5803   -0.8195    0.3749 N   0  0  0  0  0  0  0  0  0  0  0  0
   -2.3603   -0.3345   -0.0451 H   0  0  0  0  0  0  0  0  0  0  0  0
   -0.2933   -0.1205    0.3719 C   0  0  1  0  0  0  0  0  0  0  0  0
    0.3577   -0.5843    1.1143 H   0  0  0  0  0  0  0  0  0  0  0  0
    0.3613   -0.2794   -1.0156 C   0  0  0  0  0  0  0  0  0  0  0  0
    0.0486    0.5619   -1.6364 H   0  0  0  0  0  0  0  0  0  0  0  0
    1.4462   -0.2374   -0.9086 H   0  0  0  0  0  0  0  0  0  0  0  0
   -0.0087   -1.5891   -1.7331 C   0  0  0  0  0  0  0  0  0  0  0  0
   -0.4942   -1.3674   -2.6836 H   0  0  0  0  0  0  0  0  0  0  0  0
    0.8982   -2.1626   -1.9211 H   0  0  0  0  0  0  0  0  0  0  0  0
   -0.9534   -2.4548   -0.9056 C   0  0  0  0  0  0  0  0  0  0  0  0
   -1.2854   -2.2254    0.2463 O   0  0  0  0  0  0  0  0  0  0  0  0
   -1.4263   -3.5522   -1.5249 O   0  0  0  0  0  0  0  0  0  0  0  0
   -1.9842   -3.9857   -0.8767 H   0  0  0  0  0  0  0  0  0  0  0  0
   -0.4860    1.3537    0.7622 C   0  0  0  0  0  0  0  0  0  0  0  0
   -1.3956    2.0096    0.2582 O   0  0  0  0  0  0  0  0  0  0  0  0
    0.3741    1.8728    1.6466 N   0  0  0  0  0  0  0  0  0  0  0  0
    1.0814    1.2667    2.0345 H   0  0  0  0  0  0  0  0  0  0  0  0
    0.3380    3.2610    2.1024 C   0  0  0  0  0  0  0  0  0  0  0  0
   -0.6389    3.4820    2.5363 H   0  0  0  0  0  0  0  0  0  0  0  0
    1.1108    3.4337    2.8528 H   0  0  0  0  0  0  0  0  0  0  0  0
    0.5009    3.9312    1.2562 H   0  0  0  0  0  0  0  0  0  0  0  0
  5  6  2  0  0  0  0
  5  7  1  0  0  0  0
  2  3  1  0  0  0  0
  2  4  1  0  0  0  0
  2  5  1  0  0  0  0
  1  2  1  0  0  0  0
 21 22  2  0  0  0  0
 21 23  1  0  0  0  0
 19 20  1  0  0  0  0
 17 18  2  0  0  0  0
 17 19  1  0  0  0  0
 14 15  1  0  0  0  0
 14 16  1  0  0  0  0
 14 17  1  0  0  0  0
 11 12  1  0  0  0  0
 11 13  1  0  0  0  0
 11 14  1  0  0  0  0
  9 10  1  0  0  0  0
  9 11  1  0  0  0  0
  9 21  1  0  0  0  0
  7  8  1  0  0  0  0
  7  9  1  0  0  0  0
 25 26  1  0  0  0  0
 25 27  1  0  0  0  0
 25 28  1  0  0  0  0
 23 24  1  0  0  0  0
 23 25  1  0  0  0  0
M  END
$$$$
default_name
  -OEChem-02102213163D

 28 27  0     1  0  0  0  0  0999 V2000
   -3.2133   -3.5565    1.2809 H   0  0  0  0  0  0  0  0  0  0  0  0
   -3.1873   -2.5755    0.8089 C   0  0  0  0  0  0  0  0  0  0  0  0
   -3.8793   -1.9065    1.3169 H   0  0  0  0  0  0  0  0  0  0  0  0
   -3.4623   -2.6685   -0.2401 H   0  0  0  0  0  0  0  0  0  0  0  0
   -1.7863   -2.0195    0.9119 C   0  0  0  0  0  0  0  0  0  0  0  0
   -0.9073   -2.6615    1.4699 O   0  0  0  0  0  0  0  0  0  0  0  0
   -1.5803   -0.8195    0.3749 N   0  0  0  0  0  0  0  0  0  0  0  0
   -2.3603   -0.3345   -0.0451 H   0  0  0  0  0  0  0  0  0  0  0  0
   -0.2933   -0.1205    0.3719 C   0  0  1  0  0  0  0  0  0  0  0  0
    0.3577   -0.5843    1.1143 H   0  0  0  0  0  0  0  0  0  0  0  0
    0.3613   -0.2794   -1.0156 C   0  0  0  0  0  0  0  0  0  0  0  0
    0.0486    0.5619   -1.6364 H   0  0  0  0  0  0  0  0  0  0  0  0
    1.4462   -0.2374   -0.9086 H   0  0  0  0  0  0  0  0  0  0  0  0
   -0.0087   -1.5891   -1.7331 C   0  0  0  0  0  0  0  0  0  0  0  0
   -0.2445   -1.3863   -2.7778 H   0  0  0  0  0  0  0  0  0  0  0  0
    0.8365   -2.2746   -1.6849 H   0  0  0  0  0  0  0  0  0  0  0  0
   -1.2128   -2.2765   -1.0973 C   0  0  0  0  0  0  0  0  0  0  0  0
   -1.7542   -1.9242   -0.0616 O   0  0  0  0  0  0  0  0  0  0  0  0
   -1.6765   -3.3568   -1.7526 O   0  0  0  0  0  0  0  0  0  0  0  0
   -2.4122   -3.6737   -1.2256 H   0  0  0  0  0  0  0  0  0  0  0  0
   -0.4860    1.3537    0.7622 C   0  0  0  0  0  0  0  0  0  0  0  0
   -1.3956    2.0096    0.2582 O   0  0  0  0  0  0  0  0  0  0  0  0
    0.3741    1.8728    1.6466 N   0  0  0  0  0  0  0  0  0  0  0  0
    1.0814    1.2667    2.0345 H   0  0  0  0  0  0  0  0  0  0  0  0
    0.3380    3.2610    2.1024 C   0  0  0  0  0  0  0  0  0  0  0  0
   -0.6389    3.4820    2.5363 H   0  0  0  0  0  0  0  0  0  0  0  0
    1.1108    3.4337    2.8528 H   0  0  0  0  0  0  0  0  0  0  0  0
    0.5009    3.9312    1.2562 H   0  0  0  0  0  0  0  0  0  0  0  0
  5  6  2  0  0  0  0
  5  7  1  0  0  0  0
  2  3  1  0  0  0  0
  2  4  1  0  0  0  0
  2  5  1  0  0  0  0
  1  2  1  0  0  0  0
 21 22  2  0  0  0  0
 21 23  1  0  0  0  0
 19 20  1  0  0  0  0
 17 18  2  0  0  0  0
 17 19  1  0  0  0  0
 14 15  1  0  0  0  0
 14 16  1  0  0  0  0
 14 17  1  0  0  0  0
 11 12  1  0  0  0  0
 11 13  1  0  0  0  0
 11 14  1  0  0  0  0
  9 10  1  0  0  0  0
  9 11  1  0  0  0  0
  9 21  1  0  0  0  0
  7  8  1  0  0  0  0
  7  9  1  0  0  0  0
 25 26  1  0  0  0  0
 25 27  1  0  0  0  0
 25 28  1  0  0  0  0
 23 24  1  0  0  0  0
 23 25  1  0  0  0  0
M  END
$$$$
default_name
  -OEChem-02102213163D

 28 27  0     1  0  0  0  0  0999 V2000
   -3.2133   -3.5565    1.2809 H   0  0  0  0  0  0  0  0  0  0  0  0
   -3.1873   -2.5755    0.8089 C   0  0  0  0  0  0  0  0  0  0  0  0
   -3.8793   -1.9065    1.3169 H   0  0  0  0  0  0  0  0  0  0  0  0
   -3.4623   -2.6685   -0.2401 H   0  0  0  0  0  0  0  0  0  0  0  0
   -1.7863   -2.0195    0.9119 C   0  0  0  0  0  0  0  0  0  0  0  0
   -0.9073   -2.6615    1.4699 O   0  0  0  0  0  0  0  0  0  0  0  0
   -1.5803   -0.8195    0.3749 N   0  0  0  0  0  0  0  0  0  0  0  0
   -2.3603   -0.3345   -0.0451 H   0  0  0  0  0  0  0  0  0  0  0  0
   -0.2933   -0.1205    0.3719 C   0  0  1  0  0  0  0  0  0  0  0  0
    0.3577   -0.5843    1.1143 H   0  0  0  0  0  0  0  0  0  0  0  0
    0.3613   -0.2794   -1.0156 C   0  0  0  0  0  0  0  0  0  0  0  0
    0.0486    0.5619   -1.6364 H   0  0  0  0  0  0  0  0  0  0  0  0
    1.4462   -0.2374   -0.9086 H   0  0  0  0  0  0  0  0  0  0  0  0
   -0.0087   -1.5891   -1.7331 C   0  0  0  0  0  0  0  0  0  0  0  0
    0.0152   -1.4405   -2.8127 H   0  0  0  0  0  0  0  0  0  0  0  0
    0.7115   -2.3607   -1.4633 H   0  0  0  0  0  0  0  0  0  0  0  0
   -1.3995   -2.0849   -1.3506 C   0  0  0  0  0  0  0  0  0  0  0  0
   -2.1029   -1.5959   -0.4811 O   0  0  0  0  0  0  0  0  0  0  0  0
   -1.8445   -3.1520   -2.0398 O   0  0  0  0  0  0  0  0  0  0  0  0
   -2.7110   -3.3423   -1.6763 H   0  0  0  0  0  0  0  0  0  0  0  0
   -0.4860    1.3537    0.7622 C   0  0  0  0  0  0  0  0  0  0  0  0
   -1.3956    2.0096    0.2582 O   0  0  0  0  0  0  0  0  0  0  0  0
    0.3741    1.8728    1.6466 N   0  0  0  0  0  0  0  0  0  0  0  0
    1.0814    1.2667    2.0345 H   0  0  0  0  0  0  0  0  0  0  0  0
    0.3380    3.2610    2.1024 C   0  0  0  0  0  0  0  0  0  0  0  0
   -0.6389    3.4820    2.5363 H   0  0  0  0  0  0  0  0  0  0  0  0
    1.1108    3.4337    2.8528 H   0  0  0  0  0  0  0  0  0  0  0  0
    0.5009    3.9312    1.2562 H   0  0  0  0  0  0  0  0  0  0  0  0
  5  6  2  0  0  0  0
  5  7  1  0  0  0  0
  2  3  1  0  0  0  0
  2  4  1  0  0  0  0
  2  5  1  0  0  0  0
  1  2  1  0  0  0  0
 21 22  2  0  0  0  0
 21 23  1  0  0  0  0
 19 20  1  0  0  0  0
 17 18  2  0  0  0  0
 17 19  1  0  0  0  0
 14 15  1  0  0  0  0
 14 16  1  0  0  0  0
 14 17  1  0  0  0  0
 11 12  1  0  0  0  0
 11 13  1  0  0  0  0
 11 14  1  0  0  0  0
  9 10  1  0  0  0  0
  9 11  1  0  0  0  0
  9 21  1  0  0  0  0
  7  8  1  0  0  0  0
  7  9  1  0  0  0  0
 25 26  1  0  0  0  0
 25 27  1  0  0  0  0
 25 28  1  0  0  0  0
 23 24  1  0  0  0  0
 23 25  1  0  0  0  0
M  END
$$$$
default_name
  -OEChem-02102213163D

 28 27  0     1  0  0  0  0  0999 V2000
   -3.2133   -3.5565    1.2809 H   0  0  0  0  0  0  0  0  0  0  0  0
   -3.1873   -2.5755    0.8089 C   0  0  0  0  0  0  0  0  0  0  0  0
   -3.8793   -1.9065    1.3169 H   0  0  0  0  0  0  0  0  0  0  0  0
   -3.4623   -2.6685   -0.2401 H   0  0  0  0  0  0  0  0  0  0  0  0
   -1.7863   -2.0195    0.9119 C   0  0  0  0  0  0  0  0  0  0  0  0
   -0.9073   -2.6615    1.4699 O   0  0  0  0  0  0  0  0  0  0  0  0
   -1.5803   -0.8195    0.3749 N   0  0  0  0  0  0  0  0  0  0  0  0
   -2.3603   -0.3345   -0.0451 H   0  0  0  0  0  0  0  0  0  0  0  0
   -0.2933   -0.1205    0.3719 C   0  0  1  0  0  0  0  0  0  0  0  0
    0.3577   -0.5843    1.1143 H   0  0  0  0  0  0  0  0  0  0  0  0
    0.3613   -0.2794   -1.0156 C   0  0  0  0  0  0  0  0  0  0  0  0
    0.0486    0.5619   -1.6364 H   0  0  0  0  0  0  0  0  0  0  0  0
    1.4462   -0.2374   -0.9086 H   0  0  0  0  0  0  0  0  0  0  0  0
   -0.0087   -1.5891   -1.7331 C   0  0  0  0  0  0  0  0  0  0  0  0
    0.2671   -1.5264   -2.7858 H   0  0  0  0  0  0  0  0  0  0  0  0
    0.5314   -2.4149   -1.2715 H   0  0  0  0  0  0  0  0  0  0  0  0
   -1.5010   -1.8931   -1.6484 C   0  0  0  0  0  0  0  0  0  0  0  0
   -2.3075   -1.2628   -0.9836 O   0  0  0  0  0  0  0  0  0  0  0  0
   -1.9187   -2.9518   -2.3670 O   0  0  0  0  0  0  0  0  0  0  0  0
   -2.8604   -3.0142   -2.1981 H   0  0  0  0  0  0  0  0  0  0  0  0
   -0.4860    1.3537    0.7622 C   0  0  0  0  0  0  0  0  0  0  0  0
   -1.3956    2.0096    0.2582 O   0  0  0  0  0  0  0  0  0  0  0  0
    0.3741    1.8728    1.6466 N   0  0  0  0  0  0  0  0  0  0  0  0
    1.0814    1.2667    2.0345 H   0  0  0  0  0  0  0  0  0  0  0  0
    0.3380    3.2610    2.1024 C   0  0  0  0  0  0  0  0  0  0  0  0
   -0.6389    3.4820    2.5363 H   0  0  0  0  0  0  0  0  0  0  0  0
    1.1108    3.4337    2.8528 H   0  0  0  0  0  0  0  0  0  0  0  0
    0.5009    3.9312    1.2562 H   0  0  0  0  0  0  0  0  0  0  0  0
  5  6  2  0  0  0  0
  5  7  1  0  0  0  0
  2  3  1  0  0  0  0
  2  4  1  0  0  0  0
  2  5  1  0  0  0  0
  1  2  1  0  0  0  0
 21 22  2  0  0  0  0
 21 23  1  0  0  0  0
 19 20  1  0  0  0  0
 17 18  2  0  0  0  0
 17 19  1  0  0  0  0
 14 15  1  0  0  0  0
 14 16  1  0  0  0  0
 14 17  1  0  0  0  0
 11 12  1  0  0  0  0
 11 13  1  0  0  0  0
 11 14  1  0  0  0  0
  9 10  1  0  0  0  0
  9 11  1  0  0  0  0
  9 21  1  0  0  0  0
  7  8  1  0  0  0  0
  7  9  1  0  0  0  0
 25 26  1  0  0  0  0
 25 27  1  0  0  0  0
 25 28  1  0  0  0  0
 23 24  1  0  0  0  0
 23 25  1  0  0  0  0
M  END
$$$$
default_name
  -OEChem-02102213163D

 28 27  0     1  0  0  0  0  0999 V2000
   -3.2133   -3.5565    1.2809 H   0  0  0  0  0  0  0  0  0  0  0  0
   -3.1873   -2.5755    0.8089 C   0  0  0  0  0  0  0  0  0  0  0  0
   -3.8793   -1.9065    1.3169 H   0  0  0  0  0  0  0  0  0  0  0  0
   -3.4623   -2.6685   -0.2401 H   0  0  0  0  0  0  0  0  0  0  0  0
   -1.7863   -2.0195    0.9119 C   0  0  0  0  0  0  0  0  0  0  0  0
   -0.9073   -2.6615    1.4699 O   0  0  0  0  0  0  0  0  0  0  0  0
   -1.5803   -0.8195    0.3749 N   0  0  0  0  0  0  0  0  0  0  0  0
   -2.3603   -0.3345   -0.0451 H   0  0  0  0  0  0  0  0  0  0  0  0
   -0.2933   -0.1205    0.3719 C   0  0  1  0  0  0  0  0  0  0  0  0
    0.3577   -0.5843    1.1143 H   0  0  0  0  0  0  0  0  0  0  0  0
    0.3613   -0.2794   -1.0156 C   0  0  0  0  0  0  0  0  0  0  0  0
    0.0486    0.5619   -1.6364 H   0  0  0  0  0  0  0  0  0  0  0  0
    1.4462   -0.2374   -0.9086 H   0  0  0  0  0  0  0  0  0  0  0  0
   -0.0087   -1.5891   -1.7331 C   0  0  0  0  0  0  0  0  0  0  0  0
    0.4942   -1.6382   -2.6989 H   0  0  0  0  0  0  0  0  0  0  0  0
    0.3087   -2.4336   -1.1225 H   0  0  0  0  0  0  0  0  0  0  0  0
   -1.5102   -1.7141   -1.9703 C   0  0  0  0  0  0  0  0  0  0  0  0
   -2.3543   -0.9476   -1.5347 O   0  0  0  0  0  0  0  0  0  0  0  0
   -1.8941   -2.7699   -2.7118 O   0  0  0  0  0  0  0  0  0  0  0  0
   -2.8502   -2.7118   -2.7555 H   0  0  0  0  0  0  0  0  0  0  0  0
   -0.4860    1.3537    0.7622 C   0  0  0  0  0  0  0  0  0  0  0  0
   -1.3956    2.0096    0.2582 O   0  0  0  0  0  0  0  0  0  0  0  0
    0.3741    1.8728    1.6466 N   0  0  0  0  0  0  0  0  0  0  0  0
    1.0814    1.2667    2.0345 H   0  0  0  0  0  0  0  0  0  0  0  0
    0.3380    3.2610    2.1024 C   0  0  0  0  0  0  0  0  0  0  0  0
   -0.6389    3.4820    2.5363 H   0  0  0  0  0  0  0  0  0  0  0  0
    1.1108    3.4337    2.8528 H   0  0  0  0  0  0  0  0  0  0  0  0
    0.5009    3.9312    1.2562 H   0  0  0  0  0  0  0  0  0  0  0  0
  5  6  2  0  0  0  0
  5  7  1  0  0  0  0
  2  3  1  0  0  0  0
  2  4  1  0  0  0  0
  2  5  1  0  0  0  0
  1  2  1  0  0  0  0
 21 22  2  0  0  0  0
 21 23  1  0  0  0  0
 19 20  1  0  0  0  0
 17 18  2  0  0  0  0
 17 19  1  0  0  0  0
 14 15  1  0  0  0  0
 14 16  1  0  0  0  0
 14 17  1  0  0  0  0
 11 12  1  0  0  0  0
 11 13  1  0  0  0  0
 11 14  1  0  0  0  0
  9 10  1  0  0  0  0
  9 11  1  0  0  0  0
  9 21  1  0  0  0  0
  7  8  1  0  0  0  0
  7  9  1  0  0  0  0
 25 26  1  0  0  0  0
 25 27  1  0  0  0  0
 25 28  1  0  0  0  0
 23 24  1  0  0  0  0
 23 25  1  0  0  0  0
M  END
$$$$
default_name
  -OEChem-02102213163D

 28 27  0     1  0  0  0  0  0999 V2000
   -3.2133   -3.5565    1.2809 H   0  0  0  0  0  0  0  0  0  0  0  0
   -3.1873   -2.5755    0.8089 C   0  0  0  0  0  0  0  0  0  0  0  0
   -3.8793   -1.9065    1.3169 H   0  0  0  0  0  0  0  0  0  0  0  0
   -3.4623   -2.6685   -0.2401 H   0  0  0  0  0  0  0  0  0  0  0  0
   -1.7863   -2.0195    0.9119 C   0  0  0  0  0  0  0  0  0  0  0  0
   -0.9073   -2.6615    1.4699 O   0  0  0  0  0  0  0  0  0  0  0  0
   -1.5803   -0.8195    0.3749 N   0  0  0  0  0  0  0  0  0  0  0  0
   -2.3603   -0.3345   -0.0451 H   0  0  0  0  0  0  0  0  0  0  0  0
   -0.2933   -0.1205    0.3719 C   0  0  1  0  0  0  0  0  0  0  0  0
    0.3577   -0.5843    1.1143 H   0  0  0  0  0  0  0  0  0  0  0  0
    0.3613   -0.2794   -1.0156 C   0  0  0  0  0  0  0  0  0  0  0  0
    0.0486    0.5619   -1.6364 H   0  0  0  0  0  0  0  0  0  0  0  0
    1.4462   -0.2374   -0.9086 H   0  0  0  0  0  0  0  0  0  0  0  0
   -0.0087   -1.5891   -1.7331 C   0  0  0  0  0  0  0  0  0  0  0  0
    0.6809   -1.7681   -2.5581 H   0  0  0  0  0  0  0  0  0  0  0  0
    0.0585   -2.4155   -1.0265 H   0  0  0  0  0  0  0  0  0  0  0  0
   -1.4266   -1.5602   -2.2945 C   0  0  0  0  0  0  0  0  0  0  0  0
   -2.2401   -0.6719   -2.0970 O   0  0  0  0  0  0  0  0  0  0  0  0
   -1.7725   -2.6185   -3.0508 O   0  0  0  0  0  0  0  0  0  0  0  0
   -2.6809   -2.4556   -3.3105 H   0  0  0  0  0  0  0  0  0  0  0  0
   -0.4860    1.3537    0.7622 C   0  0  0  0  0  0  0  0  0  0  0  0
   -1.3956    2.0096    0.2582 O   0  0  0  0  0  0  0  0  0  0  0  0
    0.3741    1.8728    1.6466 N   0  0  0  0  0  0  0  0  0  0  0  0
    1.0814    1.2667    2.0345 H   0  0  0  0  0  0  0  0  0  0  0  0
    0.3380    3.2610    2.1024 C   0  0  0  0  0  0  0  0  0  0  0  0
   -0.6389    3.4820    2.5363 H   0  0  0  0  0  0  0  0  0  0  0  0
    1.1108    3.4337    2.8528 H   0  0  0  0  0  0  0  0  0  0  0  0
    0.5009    3.9312    1.2562 H   0  0  0  0  0  0  0  0  0  0  0  0
  5  6  2  0  0  0  0
  5  7  1  0  0  0  0
  2  3  1  0  0  0  0
  2  4  1  0  0  0  0
  2  5  1  0  0  0  0
  1  2  1  0  0  0  0
 21 22  2  0  0  0  0
 21 23  1  0  0  0  0
 19 20  1  0  0  0  0
 17 18  2  0  0  0  0
 17 19  1  0  0  0  0
 14 15  1  0  0  0  0
 14 16  1  0  0  0  0
 14 17  1  0  0  0  0
 11 12  1  0  0  0  0
 11 13  1  0  0  0  0
 11 14  1  0  0  0  0
  9 10  1  0  0  0  0
  9 11  1  0  0  0  0
  9 21  1  0  0  0  0
  7  8  1  0  0  0  0
  7  9  1  0  0  0  0
 25 26  1  0  0  0  0
 25 27  1  0  0  0  0
 25 28  1  0  0  0  0
 23 24  1  0  0  0  0
 23 25  1  0  0  0  0
M  END
$$$$
default_name
  -OEChem-02102213163D

 28 27  0     1  0  0  0  0  0999 V2000
   -3.2133   -3.5565    1.2809 H   0  0  0  0  0  0  0  0  0  0  0  0
   -3.1873   -2.5755    0.8089 C   0  0  0  0  0  0  0  0  0  0  0  0
   -3.8793   -1.9065    1.3169 H   0  0  0  0  0  0  0  0  0  0  0  0
   -3.4623   -2.6685   -0.2401 H   0  0  0  0  0  0  0  0  0  0  0  0
   -1.7863   -2.0195    0.9119 C   0  0  0  0  0  0  0  0  0  0  0  0
   -0.9073   -2.6615    1.4699 O   0  0  0  0  0  0  0  0  0  0  0  0
   -1.5803   -0.8195    0.3749 N   0  0  0  0  0  0  0  0  0  0  0  0
   -2.3603   -0.3345   -0.0451 H   0  0  0  0  0  0  0  0  0  0  0  0
   -0.2933   -0.1205    0.3719 C   0  0  1  0  0  0  0  0  0  0  0  0
    0.3577   -0.5843    1.1143 H   0  0  0  0  0  0  0  0  0  0  0  0
    0.3613   -0.2794   -1.0156 C   0  0  0  0  0  0  0  0  0  0  0  0
    0.0486    0.5619   -1.6364 H   0  0  0  0  0  0  0  0  0  0  0  0
    1.4462   -0.2374   -0.9086 H   0  0  0  0  0  0  0  0  0  0  0  0
   -0.0087   -1.5891   -1.7331 C   0  0  0  0  0  0  0  0  0  0  0  0
    0.8145   -1.9073   -2.3728 H   0  0  0  0  0  0  0  0  0  0  0  0
   -0.2021   -2.3619   -0.9900 H   0  0  0  0  0  0  0  0  0  0  0  0
   -1.2558   -1.4417   -2.5987 C   0  0  0  0  0  0  0  0  0  0  0  0
   -1.9725   -0.4543   -2.6322 O   0  0  0  0  0  0  0  0  0  0  0  0
   -1.5620   -2.5081   -3.3609 O   0  0  0  0  0  0  0  0  0  0  0  0
   -2.3642   -2.2631   -3.8252 H   0  0  0  0  0  0  0  0  0  0  0  0
   -0.4860    1.3537    0.7622 C   0  0  0  0  0  0  0  0  0  0  0  0
   -1.3956    2.0096    0.2582 O   0  0  0  0  0  0  0  0  0  0  0  0
    0.3741    1.8728    1.6466 N   0  0  0  0  0  0  0  0  0  0  0  0
    1.0814    1.2667    2.0345 H   0  0  0  0  0  0  0  0  0  0  0  0
    0.3380    3.2610    2.1024 C   0  0  0  0  0  0  0  0  0  0  0  0
   -0.6389    3.4820    2.5363 H   0  0  0  0  0  0  0  0  0  0  0  0
    1.1108    3.4337    2.8528 H   0  0  0  0  0  0  0  0  0  0  0  0
    0.5009    3.9312    1.2562 H   0  0  0  0  0  0  0  0  0  0  0  0
  5  6  2  0  0  0  0
  5  7  1  0  0  0  0
  2  3  1  0  0  0  0
  2  4  1  0  0  0  0
  2  5  1  0  0  0  0
  1  2  1  0  0  0  0
 21 22  2  0  0  0  0
 21 23  1  0  0  0  0
 19 20  1  0  0  0  0
 17 18  2  0  0  0  0
 17 19  1  0  0  0  0
 14 15  1  0  0  0  0
 14 16  1  0  0  0  0
 14 17  1  0  0  0  0
 11 12  1  0  0  0  0
 11 13  1  0  0  0  0
 11 14  1  0  0  0  0
  9 10  1  0  0  0  0
  9 11  1  0  0  0  0
  9 21  1  0  0  0  0
  7  8  1  0  0  0  0
  7  9  1  0  0  0  0
 25 26  1  0  0  0  0
 25 27  1  0  0  0  0
 25 28  1  0  0  0  0
 23 24  1  0  0  0  0
 23 25  1  0  0  0  0
M  END
$$$$
default_name
  -OEChem-02102213163D

 28 27  0     1  0  0  0  0  0999 V2000
   -3.2133   -3.5565    1.2809 H   0  0  0  0  0  0  0  0  0  0  0  0
   -3.1873   -2.5755    0.8089 C   0  0  0  0  0  0  0  0  0  0  0  0
   -3.8793   -1.9065    1.3169 H   0  0  0  0  0  0  0  0  0  0  0  0
   -3.4623   -2.6685   -0.2401 H   0  0  0  0  0  0  0  0  0  0  0  0
   -1.7863   -2.0195    0.9119 C   0  0  0  0  0  0  0  0  0  0  0  0
   -0.9073   -2.6615    1.4699 O   0  0  0  0  0  0  0  0  0  0  0  0
   -1.5803   -0.8195    0.3749 N   0  0  0  0  0  0  0  0  0  0  0  0
   -2.3603   -0.3345   -0.0451 H   0  0  0  0  0  0  0  0  0  0  0  0
   -0.2933   -0.1205    0.3719 C   0  0  1  0  0  0  0  0  0  0  0  0
    0.3577   -0.5843    1.1143 H   0  0  0  0  0  0  0  0  0  0  0  0
    0.3613   -0.2794   -1.0156 C   0  0  0  0  0  0  0  0  0  0  0  0
    0.0486    0.5619   -1.6364 H   0  0  0  0  0  0  0  0  0  0  0  0
    1.4462   -0.2374   -0.9086 H   0  0  0  0  0  0  0  0  0  0  0  0
   -0.0087   -1.5891   -1.7331 C   0  0  0  0  0  0  0  0  0  0  0  0
    0.8860   -2.0465   -2.1557 H   0  0  0  0  0  0  0  0  0  0  0  0
   -0.4555   -2.2764   -1.0156 H   0  0  0  0  0  0  0  0  0  0  0  0
   -1.0096   -1.3669   -2.8624 C   0  0  0  0  0  0  0  0  0  0  0  0
   -1.5699   -0.3097   -3.1037 O   0  0  0  0  0  0  0  0  0  0  0  0
   -1.2770   -2.4462   -3.6208 O   0  0  0  0  0  0  0  0  0  0  0  0
   -1.9217   -2.1474   -4.2645 H   0  0  0  0  0  0  0  0  0  0  0  0
   -0.4860    1.3537    0.7622 C   0  0  0  0  0  0  0  0  0  0  0  0
   -1.3956    2.0096    0.2582 O   0  0  0  0  0  0  0  0  0  0  0  0
    0.3741    1.8728    1.6466 N   0  0  0  0  0  0  0  0  0  0  0  0
    1.0814    1.2667    2.0345 H   0  0  0  0  0  0  0  0  0  0  0  0
    0.3380    3.2610    2.1024 C   0  0  0  0  0  0  0  0  0  0  0  0
   -0.6389    3.4820    2.5363 H   0  0  0  0  0  0  0  0  0  0  0  0
    1.1108    3.4337    2.8528 H   0  0  0  0  0  0  0  0  0  0  0  0
    0.5009    3.9312    1.2562 H   0  0  0  0  0  0  0  0  0  0  0  0
  5  6  2  0  0  0  0
  5  7  1  0  0  0  0
  2  3  1  0  0  0  0
  2  4  1  0  0  0  0
  2  5  1  0  0  0  0
  1  2  1  0  0  0  0
 21 22  2  0  0  0  0
 21 23  1  0  0  0  0
 19 20  1  0  0  0  0
 17 18  2  0  0  0  0
 17 19  1  0  0  0  0
 14 15  1  0  0  0  0
 14 16  1  0  0  0  0
 14 17  1  0  0  0  0
 11 12  1  0  0  0  0
 11 13  1  0  0  0  0
 11 14  1  0  0  0  0
  9 10  1  0  0  0  0
  9 11  1  0  0  0  0
  9 21  1  0  0  0  0
  7  8  1  0  0  0  0
  7  9  1  0  0  0  0
 25 26  1  0  0  0  0
 25 27  1  0  0  0  0
 25 28  1  0  0  0  0
 23 24  1  0  0  0  0
 23 25  1  0  0  0  0
M  END
$$$$
default_name
  -OEChem-02102213163D

 28 27  0     1  0  0  0  0  0999 V2000
   -3.2133   -3.5565    1.2809 H   0  0  0  0  0  0  0  0  0  0  0  0
   -3.1873   -2.5755    0.8089 C   0  0  0  0  0  0  0  0  0  0  0  0
   -3.8793   -1.9065    1.3169 H   0  0  0  0  0  0  0  0  0  0  0  0
   -3.4623   -2.6685   -0.2401 H   0  0  0  0  0  0  0  0  0  0  0  0
   -1.7863   -2.0195    0.9119 C   0  0  0  0  0  0  0  0  0  0  0  0
   -0.9073   -2.6615    1.4699 O   0  0  0  0  0  0  0  0  0  0  0  0
   -1.5803   -0.8195    0.3749 N   0  0  0  0  0  0  0  0  0  0  0  0
   -2.3603   -0.3345   -0.0451 H   0  0  0  0  0  0  0  0  0  0  0  0
   -0.2933   -0.1205    0.3719 C   0  0  1  0  0  0  0  0  0  0  0  0
    0.3577   -0.5843    1.1143 H   0  0  0  0  0  0  0  0  0  0  0  0
    0.3613   -0.2794   -1.0156 C   0  0  0  0  0  0  0  0  0  0  0  0
    0.0486    0.5619   -1.6364 H   0  0  0  0  0  0  0  0  0  0  0  0
    1.4462   -0.2374   -0.9086 H   0  0  0  0  0  0  0  0  0  0  0  0
   -0.0087   -1.5891   -1.7331 C   0  0  0  0  0  0  0  0  0  0  0  0
    0.8904   -2.1759   -1.9216 H   0  0  0  0  0  0  0  0  0  0  0  0
   -0.6842   -2.1647   -1.1013 H   0  0  0  0  0  0  0  0  0  0  0  0
   -0.7046   -1.3407   -3.0674 C   0  0  0  0  0  0  0  0  0  0  0  0
   -1.0597   -0.2480   -3.4794 O   0  0  0  0  0  0  0  0  0  0  0  0
   -0.9370   -2.4369   -3.8131 O   0  0  0  0  0  0  0  0  0  0  0  0
   -1.3835   -2.1164   -4.5986 H   0  0  0  0  0  0  0  0  0  0  0  0
   -0.4860    1.3537    0.7622 C   0  0  0  0  0  0  0  0  0  0  0  0
   -1.3956    2.0096    0.2582 O   0  0  0  0  0  0  0  0  0  0  0  0
    0.3741    1.8728    1.6466 N   0  0  0  0  0  0  0  0  0  0  0  0
    1.0814    1.2667    2.0345 H   0  0  0  0  0  0  0  0  0  0  0  0
    0.3380    3.2610    2.1024 C   0  0  0  0  0  0  0  0  0  0  0  0
   -0.6389    3.4820    2.5363 H   0  0  0  0  0  0  0  0  0  0  0  0
    1.1108    3.4337    2.8528 H   0  0  0  0  0  0  0  0  0  0  0  0
    0.5009    3.9312    1.2562 H   0  0  0  0  0  0  0  0  0  0  0  0
  5  6  2  0  0  0  0
  5  7  1  0  0  0  0
  2  3  1  0  0  0  0
  2  4  1  0  0  0  0
  2  5  1  0  0  0  0
  1  2  1  0  0  0  0
 21 22  2  0  0  0  0
 21 23  1  0  0  0  0
 19 20  1  0  0  0  0
 17 18  2  0  0  0  0
 17 19  1  0  0  0  0
 14 15  1  0  0  0  0
 14 16  1  0  0  0  0
 14 17  1  0  0  0  0
 11 12  1  0  0  0  0
 11 13  1  0  0  0  0
 11 14  1  0  0  0  0
  9 10  1  0  0  0  0
  9 11  1  0  0  0  0
  9 21  1  0  0  0  0
  7  8  1  0  0  0  0
  7  9  1  0  0  0  0
 25 26  1  0  0  0  0
 25 27  1  0  0  0  0
 25 28  1  0  0  0  0
 23 24  1  0  0  0  0
 23 25  1  0  0  0  0
M  END
$$$$
default_name
  -OEChem-02102213163D

 28 27  0     1  0  0  0  0  0999 V2000
   -3.2133   -3.5565    1.2809 H   0  0  0  0  0  0  0  0  0  0  0  0
   -3.1873   -2.5755    0.8089 C   0  0  0  0  0  0  0  0  0  0  0  0
   -3.8793   -1.9065    1.3169 H   0  0  0  0  0  0  0  0  0  0  0  0
   -3.4623   -2.6685   -0.2401 H   0  0  0  0  0  0  0  0  0  0  0  0
   -1.7863   -2.0195    0.9119 C   0  0  0  0  0  0  0  0  0  0  0  0
   -0.9073   -2.6615    1.4699 O   0  0  0  0  0  0  0  0  0  0  0  0
   -1.5803   -0.8195    0.3749 N   0  0  0  0  0  0  0  0  0  0  0  0
   -2.3603   -0.3345   -0.0451 H   0  0  0  0  0  0  0  0  0  0  0  0
   -0.2933   -0.1205    0.3719 C   0  0  1  0  0  0  0  0  0  0  0  0
    0.3577   -0.5843    1.1143 H   0  0  0  0  0  0  0  0  0  0  0  0
    0.3613   -0.2794   -1.0156 C   0  0  0  0  0  0  0  0  0  0  0  0
    0.0486    0.5619   -1.6364 H   0  0  0  0  0  0  0  0  0  0  0  0
    1.4462   -0.2374   -0.9086 H   0  0  0  0  0  0  0  0  0  0  0  0
   -0.0087   -1.5891   -1.7331 C   0  0  0  0  0  0  0  0  0  0  0  0
    0.8274   -2.2870   -1.6865 H   0  0  0  0  0  0  0  0  0  0  0  0
   -0.8728   -2.0346   -1.2416 H   0  0  0  0  0  0  0  0  0  0  0  0
   -0.3616   -1.3650   -3.1999 C   0  0  0  0  0  0  0  0  0  0  0  0
   -0.4766   -0.2734   -3.7337 O   0  0  0  0  0  0  0  0  0  0  0  0
   -0.5651   -2.4810   -3.9244 O   0  0  0  0  0  0  0  0  0  0  0  0
   -0.7863   -2.1722   -4.8047 H   0  0  0  0  0  0  0  0  0  0  0  0
   -0.4860    1.3537    0.7622 C   0  0  0  0  0  0  0  0  0  0  0  0
   -1.3956    2.0096    0.2582 O   0  0  0  0  0  0  0  0  0  0  0  0
    0.3741    1.8728    1.6466 N   0  0  0  0  0  0  0  0  0  0  0  0
    1.0814    1.2667    2.0345 H   0  0  0  0  0  0  0  0  0  0  0  0
    0.3380    3.2610    2.1024 C   0  0  0  0  0  0  0  0  0  0  0  0
   -0.6389    3.4820    2.5363 H   0  0  0  0  0  0  0  0  0  0  0  0
    1.1108    3.4337    2.8528 H   0  0  0  0  0  0  0  0  0  0  0  0
    0.5009    3.9312    1.2562 H   0  0  0  0  0  0  0  0  0  0  0  0
  5  6  2  0  0  0  0
  5  7  1  0  0  0  0
  2  3  1  0  0  0  0
  2  4  1  0  0  0  0
  2  5  1  0  0  0  0
  1  2  1  0  0  0  0
 21 22  2  0  0  0  0
 21 23  1  0  0  0  0
 19 20  1  0  0  0  0
 17 18  2  0  0  0  0
 17 19  1  0  0  0  0
 14 15  1  0  0  0  0
 14 16  1  0  0  0  0
 14 17  1  0  0  0  0
 11 12  1  0  0  0  0
 11 13  1  0  0  0  0
 11 14  1  0  0  0  0
  9 10  1  0  0  0  0
  9 11  1  0  0  0  0
  9 21  1  0  0  0  0
  7  8  1  0  0  0  0
  7  9  1  0  0  0  0
 25 26  1  0  0  0  0
 25 27  1  0  0  0  0
 25 28  1  0  0  0  0
 23 24  1  0  0  0  0
 23 25  1  0  0  0  0
M  END
$$$$
default_name
  -OEChem-02102213163D

 28 27  0     1  0  0  0  0  0999 V2000
   -3.2133   -3.5565    1.2809 H   0  0  0  0  0  0  0  0  0  0  0  0
   -3.1873   -2.5755    0.8089 C   0  0  0  0  0  0  0  0  0  0  0  0
   -3.8793   -1.9065    1.3169 H   0  0  0  0  0  0  0  0  0  0  0  0
   -3.4623   -2.6685   -0.2401 H   0  0  0  0  0  0  0  0  0  0  0  0
   -1.7863   -2.0195    0.9119 C   0  0  0  0  0  0  0  0  0  0  0  0
   -0.9073   -2.6615    1.4699 O   0  0  0  0  0  0  0  0  0  0  0  0
   -1.5803   -0.8195    0.3749 N   0  0  0  0  0  0  0  0  0  0  0  0
   -2.3603   -0.3345   -0.0451 H   0  0  0  0  0  0  0  0  0  0  0  0
   -0.2933   -0.1205    0.3719 C   0  0  1  0  0  0  0  0  0  0  0  0
    0.3577   -0.5843    1.1143 H   0  0  0  0  0  0  0  0  0  0  0  0
    0.3613   -0.2794   -1.0156 C   0  0  0  0  0  0  0  0  0  0  0  0
    0.0486    0.5619   -1.6364 H   0  0  0  0  0  0  0  0  0  0  0  0
    1.4462   -0.2374   -0.9086 H   0  0  0  0  0  0  0  0  0  0  0  0
   -0.0087   -1.5891   -1.7331 C   0  0  0  0  0  0  0  0  0  0  0  0
    0.7014   -2.3720   -1.4663 H   0  0  0  0  0  0  0  0  0  0  0  0
   -1.0084   -1.8949   -1.4266 H   0  0  0  0  0  0  0  0  0  0  0  0
   -0.0041   -1.4381   -3.2508 C   0  0  0  0  0  0  0  0  0  0  0  0
    0.1395   -0.3841   -3.8494 O   0  0  0  0  0  0  0  0  0  0  0  0
   -0.1867   -2.5754   -3.9472 O   0  0  0  0  0  0  0  0  0  0  0  0
   -0.1707   -2.3110   -4.8687 H   0  0  0  0  0  0  0  0  0  0  0  0
   -0.4860    1.3537    0.7622 C   0  0  0  0  0  0  0  0  0  0  0  0
   -1.3956    2.0096    0.2582 O   0  0  0  0  0  0  0  0  0  0  0  0
    0.3741    1.8728    1.6466 N   0  0  0  0  0  0  0  0  0  0  0  0
    1.0814    1.2667    2.0345 H   0  0  0  0  0  0  0  0  0  0  0  0
    0.3380    3.2610    2.1024 C   0  0  0  0  0  0  0  0  0  0  0  0
   -0.6389    3.4820    2.5363 H   0  0  0  0  0  0  0  0  0  0  0  0
    1.1108    3.4337    2.8528 H   0  0  0  0  0  0  0  0  0  0  0  0
    0.5009    3.9312    1.2562 H   0  0  0  0  0  0  0  0  0  0  0  0
  5  6  2  0  0  0  0
  5  7  1  0  0  0  0
  2  3  1  0  0  0  0
  2  4  1  0  0  0  0
  2  5  1  0  0  0  0
  1  2  1  0  0  0  0
 21 22  2  0  0  0  0
 21 23  1  0  0  0  0
 19 20  1  0  0  0  0
 17 18  2  0  0  0  0
 17 19  1  0  0  0  0
 14 15  1  0  0  0  0
 14 16  1  0  0  0  0
 14 17  1  0  0  0  0
 11 12  1  0  0  0  0
 11 13  1  0  0  0  0
 11 14  1  0  0  0  0
  9 10  1  0  0  0  0
  9 11  1  0  0  0  0
  9 21  1  0  0  0  0
  7  8  1  0  0  0  0
  7  9  1  0  0  0  0
 25 26  1  0  0  0  0
 25 27  1  0  0  0  0
 25 28  1  0  0  0  0
 23 24  1  0  0  0  0
 23 25  1  0  0  0  0
M  END
$$$$
default_name
  -OEChem-02102213163D

 28 27  0     1  0  0  0  0  0999 V2000
   -3.2133   -3.5565    1.2809 H   0  0  0  0  0  0  0  0  0  0  0  0
   -3.1873   -2.5755    0.8089 C   0  0  0  0  0  0  0  0  0  0  0  0
   -3.8793   -1.9065    1.3169 H   0  0  0  0  0  0  0  0  0  0  0  0
   -3.4623   -2.6685   -0.2401 H   0  0  0  0  0  0  0  0  0  0  0  0
   -1.7863   -2.0195    0.9119 C   0  0  0  0  0  0  0  0  0  0  0  0
   -0.9073   -2.6615    1.4699 O   0  0  0  0  0  0  0  0  0  0  0  0
   -1.5803   -0.8195    0.3749 N   0  0  0  0  0  0  0  0  0  0  0  0
   -2.3603   -0.3345   -0.0451 H   0  0  0  0  0  0  0  0  0  0  0  0
   -0.2933   -0.1205    0.3719 C   0  0  1  0  0  0  0  0  0  0  0  0
    0.3577   -0.5843    1.1143 H   0  0  0  0  0  0  0  0  0  0  0  0
    0.3613   -0.2794   -1.0156 C   0  0  0  0  0  0  0  0  0  0  0  0
    0.0486    0.5619   -1.6364 H   0  0  0  0  0  0  0  0  0  0  0  0
    1.4462   -0.2374   -0.9086 H   0  0  0  0  0  0  0  0  0  0  0  0
   -0.0087   -1.5891   -1.7331 C   0  0  0  0  0  0  0  0  0  0  0  0
    0.5209   -2.4252   -1.2761 H   0  0  0  0  0  0  0  0  0  0  0  0
   -1.0817   -1.7552   -1.6440 H   0  0  0  0  0  0  0  0  0  0  0  0
    0.3437   -1.5551   -3.2167 C   0  0  0  0  0  0  0  0  0  0  0  0
    0.7468   -0.5726   -3.8184 O   0  0  0  0  0  0  0  0  0  0  0  0
    0.1724   -2.7136   -3.8800 O   0  0  0  0  0  0  0  0  0  0  0  0
    0.4212   -2.5234   -4.7863 H   0  0  0  0  0  0  0  0  0  0  0  0
   -0.4860    1.3537    0.7622 C   0  0  0  0  0  0  0  0  0  0  0  0
   -1.3956    2.0096    0.2582 O   0  0  0  0  0  0  0  0  0  0  0  0
    0.3741    1.8728    1.6466 N   0  0  0  0  0  0  0  0  0  0  0  0
    1.0814    1.2667    2.0345 H   0  0  0  0  0  0  0  0  0  0  0  0
    0.3380    3.2610    2.1024 C   0  0  0  0  0  0  0  0  0  0  0  0
   -0.6389    3.4820    2.5363 H   0  0  0  0  0  0  0  0  0  0  0  0
    1.1108    3.4337    2.8528 H   0  0  0  0  0  0  0  0  0  0  0  0
    0.5009    3.9312    1.2562 H   0  0  0  0  0  0  0  0  0  0  0  0
  5  6  2  0  0  0  0
  5  7  1  0  0  0  0
  2  3  1  0  0  0  0
  2  4  1  0  0  0  0
  2  5  1  0  0  0  0
  1  2  1  0  0  0  0
 21 22  2  0  0  0  0
 21 23  1  0  0  0  0
 19 20  1  0  0  0  0
 17 18  2  0  0  0  0
 17 19  1  0  0  0  0
 14 15  1  0  0  0  0
 14 16  1  0  0  0  0
 14 17  1  0  0  0  0
 11 12  1  0  0  0  0
 11 13  1  0  0  0  0
 11 14  1  0  0  0  0
  9 10  1  0  0  0  0
  9 11  1  0  0  0  0
  9 21  1  0  0  0  0
  7  8  1  0  0  0  0
  7  9  1  0  0  0  0
 25 26  1  0  0  0  0
 25 27  1  0  0  0  0
 25 28  1  0  0  0  0
 23 24  1  0  0  0  0
 23 25  1  0  0  0  0
M  END
$$$$
default_name
  -OEChem-02102213163D

 28 27  0     1  0  0  0  0  0999 V2000
   -3.2133   -3.5565    1.2809 H   0  0  0  0  0  0  0  0  0  0  0  0
   -3.1873   -2.5755    0.8089 C   0  0  0  0  0  0  0  0  0  0  0  0
   -3.8793   -1.9065    1.3169 H   0  0  0  0  0  0  0  0  0  0  0  0
   -3.4623   -2.6685   -0.2401 H   0  0  0  0  0  0  0  0  0  0  0  0
   -1.7863   -2.0195    0.9119 C   0  0  0  0  0  0  0  0  0  0  0  0
   -0.9073   -2.6615    1.4699 O   0  0  0  0  0  0  0  0  0  0  0  0
   -1.5803   -0.8195    0.3749 N   0  0  0  0  0  0  0  0  0  0  0  0
   -2.3603   -0.3345   -0.0451 H   0  0  0  0  0  0  0  0  0  0  0  0
   -0.2933   -0.1205    0.3719 C   0  0  1  0  0  0  0  0  0  0  0  0
    0.3577   -0.5843    1.1143 H   0  0  0  0  0  0  0  0  0  0  0  0
    0.3613   -0.2794   -1.0156 C   0  0  0  0  0  0  0  0  0  0  0  0
    0.2766    0.6731   -1.5415 H   0  0  0  0  0  0  0  0  0  0  0  0
    1.4213   -0.5045   -0.8897 H   0  0  0  0  0  0  0  0  0  0  0  0
   -0.2729   -1.3817   -1.8815 C   0  0  0  0  0  0  0  0  0  0  0  0
   -0.1961   -2.3431   -1.3735 H   0  0  0  0  0  0  0  0  0  0  0  0
   -1.3242   -1.1479   -2.0450 H   0  0  0  0  0  0  0  0  0  0  0  0
    0.4019   -1.5069   -3.2436 C   0  0  0  0  0  0  0  0  0  0  0  0
    1.2553   -0.7482   -3.6748 O   0  0  0  0  0  0  0  0  0  0  0  0
   -0.0111   -2.5388   -4.0026 O   0  0  0  0  0  0  0  0  0  0  0  0
    0.4915   -2.4694   -4.8161 H   0  0  0  0  0  0  0  0  0  0  0  0
   -0.4860    1.3537    0.7622 C   0  0  0  0  0  0  0  0  0  0  0  0
   -1.3956    2.0096    0.2582 O   0  0  0  0  0  0  0  0  0  0  0  0
    0.3741    1.8728    1.6466 N   0  0  0  0  0  0  0  0  0  0  0  0
    1.0814    1.2667    2.0345 H   0  0  0  0  0  0  0  0  0  0  0  0
    0.3380    3.2610    2.1024 C   0  0  0  0  0  0  0  0  0  0  0  0
   -0.6389    3.4820    2.5363 H   0  0  0  0  0  0  0  0  0  0  0  0
    1.1108    3.4337    2.8528 H   0  0  0  0  0  0  0  0  0  0  0  0
    0.5009    3.9312    1.2562 H   0  0  0  0  0  0  0  0  0  0  0  0
  5  6  2  0  0  0  0
  5  7  1  0  0  0  0
  2  3  1  0  0  0  0
  2  4  1  0  0  0  0
  2  5  1  0  0  0  0
  1  2  1  0  0  0  0
 21 22  2  0  0  0  0
 21 23  1  0  0  0  0
 19 20  1  0  0  0  0
 17 18  2  0  0  0  0
 17 19  1  0  0  0  0
 14 15  1  0  0  0  0
 14 16  1  0  0  0  0
 14 17  1  0  0  0  0
 11 12  1  0  0  0  0
 11 13  1  0  0  0  0
 11 14  1  0  0  0  0
  9 10  1  0  0  0  0
  9 11  1  0  0  0  0
  9 21  1  0  0  0  0
  7  8  1  0  0  0  0
  7  9  1  0  0  0  0
 25 26  1  0  0  0  0
 25 27  1  0  0  0  0
 25 28  1  0  0  0  0
 23 24  1  0  0  0  0
 23 25  1  0  0  0  0
M  END
$$$$
default_name
  -OEChem-02102213163D

 28 27  0     1  0  0  0  0  0999 V2000
   -3.2133   -3.5565    1.2809 H   0  0  0  0  0  0  0  0  0  0  0  0
   -3.1873   -2.5755    0.8089 C   0  0  0  0  0  0  0  0  0  0  0  0
   -3.8793   -1.9065    1.3169 H   0  0  0  0  0  0  0  0  0  0  0  0
   -3.4623   -2.6685   -0.2401 H   0  0  0  0  0  0  0  0  0  0  0  0
   -1.7863   -2.0195    0.9119 C   0  0  0  0  0  0  0  0  0  0  0  0
   -0.9073   -2.6615    1.4699 O   0  0  0  0  0  0  0  0  0  0  0  0
   -1.5803   -0.8195    0.3749 N   0  0  0  0  0  0  0  0  0  0  0  0
   -2.3603   -0.3345   -0.0451 H   0  0  0  0  0  0  0  0  0  0  0  0
   -0.2933   -0.1205    0.3719 C   0  0  1  0  0  0  0  0  0  0  0  0
    0.3577   -0.5843    1.1143 H   0  0  0  0  0  0  0  0  0  0  0  0
    0.3613   -0.2794   -1.0156 C   0  0  0  0  0  0  0  0  0  0  0  0
    0.2766    0.6731   -1.5415 H   0  0  0  0  0  0  0  0  0  0  0  0
    1.4213   -0.5045   -0.8897 H   0  0  0  0  0  0  0  0  0  0  0  0
   -0.2729   -1.3817   -1.8815 C   0  0  0  0  0  0  0  0  0  0  0  0
   -0.4382   -2.2764   -1.2811 H   0  0  0  0  0  0  0  0  0  0  0  0
   -1.2290   -1.0289   -2.2662 H   0  0  0  0  0  0  0  0  0  0  0  0
    0.6051   -1.7603   -3.0698 C   0  0  0  0  0  0  0  0  0  0  0  0
    1.6291   -1.1819   -3.3965 O   0  0  0  0  0  0  0  0  0  0  0  0
    0.1778   -2.8106   -3.7951 O   0  0  0  0  0  0  0  0  0  0  0  0
    0.8215   -2.9084   -4.4989 H   0  0  0  0  0  0  0  0  0  0  0  0
   -0.4860    1.3537    0.7622 C   0  0  0  0  0  0  0  0  0  0  0  0
   -1.3956    2.0096    0.2582 O   0  0  0  0  0  0  0  0  0  0  0  0
    0.3741    1.8728    1.6466 N   0  0  0  0  0  0  0  0  0  0  0  0
    1.0814    1.2667    2.0345 H   0  0  0  0  0  0  0  0  0  0  0  0
    0.3380    3.2610    2.1024 C   0  0  0  0  0  0  0  0  0  0  0  0
   -0.6389    3.4820    2.5363 H   0  0  0  0  0  0  0  0  0  0  0  0
    1.1108    3.4337    2.8528 H   0  0  0  0  0  0  0  0  0  0  0  0
    0.5009    3.9312    1.2562 H   0  0  0  0  0  0  0  0  0  0  0  0
  5  6  2  0  0  0  0
  5  7  1  0  0  0  0
  2  3  1  0  0  0  0
  2  4  1  0  0  0  0
  2  5  1  0  0  0  0
  1  2  1  0  0  0  0
 21 22  2  0  0  0  0
 21 23  1  0  0  0  0
 19 20  1  0  0  0  0
 17 18  2  0  0  0  0
 17 19  1  0  0  0  0
 14 15  1  0  0  0  0
 14 16  1  0  0  0  0
 14 17  1  0  0  0  0
 11 12  1  0  0  0  0
 11 13  1  0  0  0  0
 11 14  1  0  0  0  0
  9 10  1  0  0  0  0
  9 11  1  0  0  0  0
  9 21  1  0  0  0  0
  7  8  1  0  0  0  0
  7  9  1  0  0  0  0
 25 26  1  0  0  0  0
 25 27  1  0  0  0  0
 25 28  1  0  0  0  0
 23 24  1  0  0  0  0
 23 25  1  0  0  0  0
M  END
$$$$
default_name
  -OEChem-02102213163D

 28 27  0     1  0  0  0  0  0999 V2000
   -3.2133   -3.5565    1.2809 H   0  0  0  0  0  0  0  0  0  0  0  0
   -3.1873   -2.5755    0.8089 C   0  0  0  0  0  0  0  0  0  0  0  0
   -3.8793   -1.9065    1.3169 H   0  0  0  0  0  0  0  0  0  0  0  0
   -3.4623   -2.6685   -0.2401 H   0  0  0  0  0  0  0  0  0  0  0  0
   -1.7863   -2.0195    0.9119 C   0  0  0  0  0  0  0  0  0  0  0  0
   -0.9073   -2.6615    1.4699 O   0  0  0  0  0  0  0  0  0  0  0  0
   -1.5803   -0.8195    0.3749 N   0  0  0  0  0  0  0  0  0  0  0  0
   -2.3603   -0.3345   -0.0451 H   0  0  0  0  0  0  0  0  0  0  0  0
   -0.2933   -0.1205    0.3719 C   0  0  1  0  0  0  0  0  0  0  0  0
    0.3577   -0.5843    1.1143 H   0  0  0  0  0  0  0  0  0  0  0  0
    0.3613   -0.2794   -1.0156 C   0  0  0  0  0  0  0  0  0  0  0  0
    0.2766    0.6731   -1.5415 H   0  0  0  0  0  0  0  0  0  0  0  0
    1.4213   -0.5045   -0.8897 H   0  0  0  0  0  0  0  0  0  0  0  0
   -0.2729   -1.3817   -1.8815 C   0  0  0  0  0  0  0  0  0  0  0  0
   -0.6794   -2.1669   -1.2439 H   0  0  0  0  0  0  0  0  0  0  0  0
   -1.0787   -0.9514   -2.4749 H   0  0  0  0  0  0  0  0  0  0  0  0
    0.7323   -2.0162   -2.8372 C   0  0  0  0  0  0  0  0  0  0  0  0
    1.8754   -1.6256   -3.0120 O   0  0  0  0  0  0  0  0  0  0  0  0
    0.2823   -3.0785   -3.5306 O   0  0  0  0  0  0  0  0  0  0  0  0
    1.0175   -3.3467   -4.0845 H   0  0  0  0  0  0  0  0  0  0  0  0
   -0.4860    1.3537    0.7622 C   0  0  0  0  0  0  0  0  0  0  0  0
   -1.3956    2.0096    0.2582 O   0  0  0  0  0  0  0  0  0  0  0  0
    0.3741    1.8728    1.6466 N   0  0  0  0  0  0  0  0  0  0  0  0
    1.0814    1.2667    2.0345 H   0  0  0  0  0  0  0  0  0  0  0  0
    0.3380    3.2610    2.1024 C   0  0  0  0  0  0  0  0  0  0  0  0
   -0.6389    3.4820    2.5363 H   0  0  0  0  0  0  0  0  0  0  0  0
    1.1108    3.4337    2.8528 H   0  0  0  0  0  0  0  0  0  0  0  0
    0.5009    3.9312    1.2562 H   0  0  0  0  0  0  0  0  0  0  0  0
  5  6  2  0  0  0  0
  5  7  1  0  0  0  0
  2  3  1  0  0  0  0
  2  4  1  0  0  0  0
  2  5  1  0  0  0  0
  1  2  1  0  0  0  0
 21 22  2  0  0  0  0
 21 23  1  0  0  0  0
 19 20  1  0  0  0  0
 17 18  2  0  0  0  0
 17 19  1  0  0  0  0
 14 15  1  0  0  0  0
 14 16  1  0  0  0  0
 14 17  1  0  0  0  0
 11 12  1  0  0  0  0
 11 13  1  0  0  0  0
 11 14  1  0  0  0  0
  9 10  1  0  0  0  0
  9 11  1  0  0  0  0
  9 21  1  0  0  0  0
  7  8  1  0  0  0  0
  7  9  1  0  0  0  0
 25 26  1  0  0  0  0
 25 27  1  0  0  0  0
 25 28  1  0  0  0  0
 23 24  1  0  0  0  0
 23 25  1  0  0  0  0
M  END
$$$$
default_name
  -OEChem-02102213163D

 28 27  0     1  0  0  0  0  0999 V2000
   -3.2133   -3.5565    1.2809 H   0  0  0  0  0  0  0  0  0  0  0  0
   -3.1873   -2.5755    0.8089 C   0  0  0  0  0  0  0  0  0  0  0  0
   -3.8793   -1.9065    1.3169 H   0  0  0  0  0  0  0  0  0  0  0  0
   -3.4623   -2.6685   -0.2401 H   0  0  0  0  0  0  0  0  0  0  0  0
   -1.7863   -2.0195    0.9119 C   0  0  0  0  0  0  0  0  0  0  0  0
   -0.9073   -2.6615    1.4699 O   0  0  0  0  0  0  0  0  0  0  0  0
   -1.5803   -0.8195    0.3749 N   0  0  0  0  0  0  0  0  0  0  0  0
   -2.3603   -0.3345   -0.0451 H   0  0  0  0  0  0  0  0  0  0  0  0
   -0.2933   -0.1205    0.3719 C   0  0  1  0  0  0  0  0  0  0  0  0
    0.3577   -0.5843    1.1143 H   0  0  0  0  0  0  0  0  0  0  0  0
    0.3613   -0.2794   -1.0156 C   0  0  0  0  0  0  0  0  0  0  0  0
    0.2766    0.6731   -1.5415 H   0  0  0  0  0  0  0  0  0  0  0  0
    1.4213   -0.5045   -0.8897 H   0  0  0  0  0  0  0  0  0  0  0  0
   -0.2729   -1.3817   -1.8815 C   0  0  0  0  0  0  0  0  0  0  0  0
   -0.9034   -2.0220   -1.2643 H   0  0  0  0  0  0  0  0  0  0  0  0
   -0.8836   -0.9207   -2.6569 H   0  0  0  0  0  0  0  0  0  0  0  0
    0.7747   -2.2571   -2.5616 C   0  0  0  0  0  0  0  0  0  0  0  0
    1.9774   -2.0490   -2.5477 O   0  0  0  0  0  0  0  0  0  0  0  0
    0.2951   -3.3242   -3.2272 O   0  0  0  0  0  0  0  0  0  0  0  0
    1.0661   -3.7544   -3.6011 H   0  0  0  0  0  0  0  0  0  0  0  0
   -0.4860    1.3537    0.7622 C   0  0  0  0  0  0  0  0  0  0  0  0
   -1.3956    2.0096    0.2582 O   0  0  0  0  0  0  0  0  0  0  0  0
    0.3741    1.8728    1.6466 N   0  0  0  0  0  0  0  0  0  0  0  0
    1.0814    1.2667    2.0345 H   0  0  0  0  0  0  0  0  0  0  0  0
    0.3380    3.2610    2.1024 C   0  0  0  0  0  0  0  0  0  0  0  0
   -0.6389    3.4820    2.5363 H   0  0  0  0  0  0  0  0  0  0  0  0
    1.1108    3.4337    2.8528 H   0  0  0  0  0  0  0  0  0  0  0  0
    0.5009    3.9312    1.2562 H   0  0  0  0  0  0  0  0  0  0  0  0
  5  6  2  0  0  0  0
  5  7  1  0  0  0  0
  2  3  1  0  0  0  0
  2  4  1  0  0  0  0
  2  5  1  0  0  0  0
  1  2  1  0  0  0  0
 21 22  2  0  0  0  0
 21 23  1  0  0  0  0
 19 20  1  0  0  0  0
 17 18  2  0  0  0  0
 17 19  1  0  0  0  0
 14 15  1  0  0  0  0
 14 16  1  0  0  0  0
 14 17  1  0  0  0  0
 11 12  1  0  0  0  0
 11 13  1  0  0  0  0
 11 14  1  0  0  0  0
  9 10  1  0  0  0  0
  9 11  1  0  0  0  0
  9 21  1  0  0  0  0
  7  8  1  0  0  0  0
  7  9  1  0  0  0  0
 25 26  1  0  0  0  0
 25 27  1  0  0  0  0
 25 28  1  0  0  0  0
 23 24  1  0  0  0  0
 23 25  1  0  0  0  0
M  END
$$$$
default_name
  -OEChem-02102213163D

 28 27  0     1  0  0  0  0  0999 V2000
   -3.2133   -3.5565    1.2809 H   0  0  0  0  0  0  0  0  0  0  0  0
   -3.1873   -2.5755    0.8089 C   0  0  0  0  0  0  0  0  0  0  0  0
   -3.8793   -1.9065    1.3169 H   0  0  0  0  0  0  0  0  0  0  0  0
   -3.4623   -2.6685   -0.2401 H   0  0  0  0  0  0  0  0  0  0  0  0
   -1.7863   -2.0195    0.9119 C   0  0  0  0  0  0  0  0  0  0  0  0
   -0.9073   -2.6615    1.4699 O   0  0  0  0  0  0  0  0  0  0  0  0
   -1.5803   -0.8195    0.3749 N   0  0  0  0  0  0  0  0  0  0  0  0
   -2.3603   -0.3345   -0.0451 H   0  0  0  0  0  0  0  0  0  0  0  0
   -0.2933   -0.1205    0.3719 C   0  0  1  0  0  0  0  0  0  0  0  0
    0.3577   -0.5843    1.1143 H   0  0  0  0  0  0  0  0  0  0  0  0
    0.3613   -0.2794   -1.0156 C   0  0  0  0  0  0  0  0  0  0  0  0
    0.2766    0.6731   -1.5415 H   0  0  0  0  0  0  0  0  0  0  0  0
    1.4213   -0.5045   -0.8897 H   0  0  0  0  0  0  0  0  0  0  0  0
   -0.2729   -1.3817   -1.8815 C   0  0  0  0  0  0  0  0  0  0  0  0
   -1.0948   -1.8515   -1.3411 H   0  0  0  0  0  0  0  0  0  0  0  0
   -0.6568   -0.9389   -2.7997 H   0  0  0  0  0  0  0  0  0  0  0  0
    0.7295   -2.4666   -2.2619 C   0  0  0  0  0  0  0  0  0  0  0  0
    1.9281   -2.4233   -2.0351 O   0  0  0  0  0  0  0  0  0  0  0  0
    0.2155   -3.5311   -2.9055 O   0  0  0  0  0  0  0  0  0  0  0  0
    0.9640   -4.1037   -3.0817 H   0  0  0  0  0  0  0  0  0  0  0  0
   -0.4860    1.3537    0.7622 C   0  0  0  0  0  0  0  0  0  0  0  0
   -1.3956    2.0096    0.2582 O   0  0  0  0  0  0  0  0  0  0  0  0
    0.3741    1.8728    1.6466 N   0  0  0  0  0  0  0  0  0  0  0  0
    1.0814    1.2667    2.0345 H   0  0  0  0  0  0  0  0  0  0  0  0
    0.3380    3.2610    2.1024 C   0  0  0  0  0  0  0  0  0  0  0  0
   -0.6389    3.4820    2.5363 H   0  0  0  0  0  0  0  0  0  0  0  0
    1.1108    3.4337    2.8528 H   0  0  0  0  0  0  0  0  0  0  0  0
    0.5009    3.9312    1.2562 H   0  0  0  0  0  0  0  0  0  0  0  0
  5  6  2  0  0  0  0
  5  7  1  0  0  0  0
  2  3  1  0  0  0  0
  2  4  1  0  0  0  0
  2  5  1  0  0  0  0
  1  2  1  0  0  0  0
 21 22  2  0  0  0  0
 21 23  1  0  0  0  0
 19 20  1  0  0  0  0
 17 18  2  0  0  0  0
 17 19  1  0  0  0  0
 14 15  1  0  0  0  0
 14 16  1  0  0  0  0
 14 17  1  0  0  0  0
 11 12  1  0  0  0  0
 11 13  1  0  0  0  0
 11 14  1  0  0  0  0
  9 10  1  0  0  0  0
  9 11  1  0  0  0  0
  9 21  1  0  0  0  0
  7  8  1  0  0  0  0
  7  9  1  0  0  0  0
 25 26  1  0  0  0  0
 25 27  1  0  0  0  0
 25 28  1  0  0  0  0
 23 24  1  0  0  0  0
 23 25  1  0  0  0  0
M  END
$$$$
default_name
  -OEChem-02102213163D

 28 27  0     1  0  0  0  0  0999 V2000
   -3.2133   -3.5565    1.2809 H   0  0  0  0  0  0  0  0  0  0  0  0
   -3.1873   -2.5755    0.8089 C   0  0  0  0  0  0  0  0  0  0  0  0
   -3.8793   -1.9065    1.3169 H   0  0  0  0  0  0  0  0  0  0  0  0
   -3.4623   -2.6685   -0.2401 H   0  0  0  0  0  0  0  0  0  0  0  0
   -1.7863   -2.0195    0.9119 C   0  0  0  0  0  0  0  0  0  0  0  0
   -0.9073   -2.6615    1.4699 O   0  0  0  0  0  0  0  0  0  0  0  0
   -1.5803   -0.8195    0.3749 N   0  0  0  0  0  0  0  0  0  0  0  0
   -2.3603   -0.3345   -0.0451 H   0  0  0  0  0  0  0  0  0  0  0  0
   -0.2933   -0.1205    0.3719 C   0  0  1  0  0  0  0  0  0  0  0  0
    0.3577   -0.5843    1.1143 H   0  0  0  0  0  0  0  0  0  0  0  0
    0.3613   -0.2794   -1.0156 C   0  0  0  0  0  0  0  0  0  0  0  0
    0.2766    0.6731   -1.5415 H   0  0  0  0  0  0  0  0  0  0  0  0
    1.4213   -0.5045   -0.8897 H   0  0  0  0  0  0  0  0  0  0  0  0
   -0.2729   -1.3817   -1.8815 C   0  0  0  0  0  0  0  0  0  0  0  0
   -1.2406   -1.6672   -1.4689 H   0  0  0  0  0  0  0  0  0  0  0  0
   -0.4140   -1.0048   -2.8937 H   0  0  0  0  0  0  0  0  0  0  0  0
    0.5998   -2.6303   -1.9584 C   0  0  0  0  0  0  0  0  0  0  0  0
    1.7309   -2.7230   -1.5092 O   0  0  0  0  0  0  0  0  0  0  0  0
    0.0487   -3.6850   -2.5875 O   0  0  0  0  0  0  0  0  0  0  0  0
    0.7182   -4.3708   -2.5616 H   0  0  0  0  0  0  0  0  0  0  0  0
   -0.4860    1.3537    0.7622 C   0  0  0  0  0  0  0  0  0  0  0  0
   -1.3956    2.0096    0.2582 O   0  0  0  0  0  0  0  0  0  0  0  0
    0.3741    1.8728    1.6466 N   0  0  0  0  0  0  0  0  0  0  0  0
    1.0814    1.2667    2.0345 H   0  0  0  0  0  0  0  0  0  0  0  0
    0.3380    3.2610    2.1024 C   0  0  0  0  0  0  0  0  0  0  0  0
   -0.6389    3.4820    2.5363 H   0  0  0  0  0  0  0  0  0  0  0  0
    1.1108    3.4337    2.8528 H   0  0  0  0  0  0  0  0  0  0  0  0
    0.5009    3.9312    1.2562 H   0  0  0  0  0  0  0  0  0  0  0  0
  5  6  2  0  0  0  0
  5  7  1  0  0  0  0
  2  3  1  0  0  0  0
  2  4  1  0  0  0  0
  2  5  1  0  0  0  0
  1  2  1  0  0  0  0
 21 22  2  0  0  0  0
 21 23  1  0  0  0  0
 19 20  1  0  0  0  0
 17 18  2  0  0  0  0
 17 19  1  0  0  0  0
 14 15  1  0  0  0  0
 14 16  1  0  0  0  0
 14 17  1  0  0  0  0
 11 12  1  0  0  0  0
 11 13  1  0  0  0  0
 11 14  1  0  0  0  0
  9 10  1  0  0  0  0
  9 11  1  0  0  0  0
  9 21  1  0  0  0  0
  7  8  1  0  0  0  0
  7  9  1  0  0  0  0
 25 26  1  0  0  0  0
 25 27  1  0  0  0  0
 25 28  1  0  0  0  0
 23 24  1  0  0  0  0
 23 25  1  0  0  0  0
M  END
$$$$
default_name
  -OEChem-02102213163D

 28 27  0     1  0  0  0  0  0999 V2000
   -3.2133   -3.5565    1.2809 H   0  0  0  0  0  0  0  0  0  0  0  0
   -3.1873   -2.5755    0.8089 C   0  0  0  0  0  0  0  0  0  0  0  0
   -3.8793   -1.9065    1.3169 H   0  0  0  0  0  0  0  0  0  0  0  0
   -3.4623   -2.6685   -0.2401 H   0  0  0  0  0  0  0  0  0  0  0  0
   -1.7863   -2.0195    0.9119 C   0  0  0  0  0  0  0  0  0  0  0  0
   -0.9073   -2.6615    1.4699 O   0  0  0  0  0  0  0  0  0  0  0  0
   -1.5803   -0.8195    0.3749 N   0  0  0  0  0  0  0  0  0  0  0  0
   -2.3603   -0.3345   -0.0451 H   0  0  0  0  0  0  0  0  0  0  0  0
   -0.2933   -0.1205    0.3719 C   0  0  1  0  0  0  0  0  0  0  0  0
    0.3577   -0.5843    1.1143 H   0  0  0  0  0  0  0  0  0  0  0  0
    0.3613   -0.2794   -1.0156 C   0  0  0  0  0  0  0  0  0  0  0  0
    0.2766    0.6731   -1.5415 H   0  0  0  0  0  0  0  0  0  0  0  0
    1.4213   -0.5045   -0.8897 H   0  0  0  0  0  0  0  0  0  0  0  0
   -0.2729   -1.3817   -1.8815 C   0  0  0  0  0  0  0  0  0  0  0  0
   -1.3310   -1.4816   -1.6391 H   0  0  0  0  0  0  0  0  0  0  0  0
   -0.1716   -1.1138   -2.9325 H   0  0  0  0  0  0  0  0  0  0  0  0
    0.3943   -2.7372   -1.6718 C   0  0  0  0  0  0  0  0  0  0  0  0
    1.3992   -2.9277   -1.0057 O   0  0  0  0  0  0  0  0  0  0  0  0
   -0.1937   -3.7754   -2.2948 O   0  0  0  0  0  0  0  0  0  0  0  0
    0.3454   -4.5376   -2.0763 H   0  0  0  0  0  0  0  0  0  0  0  0
   -0.4860    1.3537    0.7622 C   0  0  0  0  0  0  0  0  0  0  0  0
   -1.3956    2.0096    0.2582 O   0  0  0  0  0  0  0  0  0  0  0  0
    0.3741    1.8728    1.6466 N   0  0  0  0  0  0  0  0  0  0  0  0
    1.0814    1.2667    2.0345 H   0  0  0  0  0  0  0  0  0  0  0  0
    0.3380    3.2610    2.1024 C   0  0  0  0  0  0  0  0  0  0  0  0
   -0.6389    3.4820    2.5363 H   0  0  0  0  0  0  0  0  0  0  0  0
    1.1108    3.4337    2.8528 H   0  0  0  0  0  0  0  0  0  0  0  0
    0.5009    3.9312    1.2562 H   0  0  0  0  0  0  0  0  0  0  0  0
  5  6  2  0  0  0  0
  5  7  1  0  0  0  0
  2  3  1  0  0  0  0
  2  4  1  0  0  0  0
  2  5  1  0  0  0  0
  1  2  1  0  0  0  0
 21 22  2  0  0  0  0
 21 23  1  0  0  0  0
 19 20  1  0  0  0  0
 17 18  2  0  0  0  0
 17 19  1  0  0  0  0
 14 15  1  0  0  0  0
 14 16  1  0  0  0  0
 14 17  1  0  0  0  0
 11 12  1  0  0  0  0
 11 13  1  0  0  0  0
 11 14  1  0  0  0  0
  9 10  1  0  0  0  0
  9 11  1  0  0  0  0
  9 21  1  0  0  0  0
  7  8  1  0  0  0  0
  7  9  1  0  0  0  0
 25 26  1  0  0  0  0
 25 27  1  0  0  0  0
 25 28  1  0  0  0  0
 23 24  1  0  0  0  0
 23 25  1  0  0  0  0
M  END
$$$$
default_name
  -OEChem-02102213163D

 28 27  0     1  0  0  0  0  0999 V2000
   -3.2133   -3.5565    1.2809 H   0  0  0  0  0  0  0  0  0  0  0  0
   -3.1873   -2.5755    0.8089 C   0  0  0  0  0  0  0  0  0  0  0  0
   -3.8793   -1.9065    1.3169 H   0  0  0  0  0  0  0  0  0  0  0  0
   -3.4623   -2.6685   -0.2401 H   0  0  0  0  0  0  0  0  0  0  0  0
   -1.7863   -2.0195    0.9119 C   0  0  0  0  0  0  0  0  0  0  0  0
   -0.9073   -2.6615    1.4699 O   0  0  0  0  0  0  0  0  0  0  0  0
   -1.5803   -0.8195    0.3749 N   0  0  0  0  0  0  0  0  0  0  0  0
   -2.3603   -0.3345   -0.0451 H   0  0  0  0  0  0  0  0  0  0  0  0
   -0.2933   -0.1205    0.3719 C   0  0  1  0  0  0  0  0  0  0  0  0
    0.3577   -0.5843    1.1143 H   0  0  0  0  0  0  0  0  0  0  0  0
    0.3613   -0.2794   -1.0156 C   0  0  0  0  0  0  0  0  0  0  0  0
    0.2766    0.6731   -1.5415 H   0  0  0  0  0  0  0  0  0  0  0  0
    1.4213   -0.5045   -0.8897 H   0  0  0  0  0  0  0  0  0  0  0  0
   -0.2729   -1.3817   -1.8815 C   0  0  0  0  0  0  0  0  0  0  0  0
   -1.3596   -1.3073   -1.8400 H   0  0  0  0  0  0  0  0  0  0  0  0
    0.0539   -1.2586   -2.9133 H   0  0  0  0  0  0  0  0  0  0  0  0
    0.1271   -2.7800   -1.4217 C   0  0  0  0  0  0  0  0  0  0  0  0
    0.9557   -3.0233   -0.5592 O   0  0  0  0  0  0  0  0  0  0  0  0
   -0.4953   -3.7962   -2.0474 O   0  0  0  0  0  0  0  0  0  0  0  0
   -0.1289   -4.5925   -1.6589 H   0  0  0  0  0  0  0  0  0  0  0  0
   -0.4860    1.3537    0.7622 C   0  0  0  0  0  0  0  0  0  0  0  0
   -1.3956    2.0096    0.2582 O   0  0  0  0  0  0  0  0  0  0  0  0
    0.3741    1.8728    1.6466 N   0  0  0  0  0  0  0  0  0  0  0  0
    1.0814    1.2667    2.0345 H   0  0  0  0  0  0  0  0  0  0  0  0
    0.3380    3.2610    2.1024 C   0  0  0  0  0  0  0  0  0  0  0  0
   -0.6389    3.4820    2.5363 H   0  0  0  0  0  0  0  0  0  0  0  0
    1.1108    3.4337    2.8528 H   0  0  0  0  0  0  0  0  0  0  0  0
    0.5009    3.9312    1.2562 H   0  0  0  0  0  0  0  0  0  0  0  0
  5  6  2  0  0  0  0
  5  7  1  0  0  0  0
  2  3  1  0  0  0  0
  2  4  1  0  0  0  0
  2  5  1  0  0  0  0
  1  2  1  0  0  0  0
 21 22  2  0  0  0  0
 21 23  1  0  0  0  0
 19 20  1  0  0  0  0
 17 18  2  0  0  0  0
 17 19  1  0  0  0  0
 14 15  1  0  0  0  0
 14 16  1  0  0  0  0
 14 17  1  0  0  0  0
 11 12  1  0  0  0  0
 11 13  1  0  0  0  0
 11 14  1  0  0  0  0
  9 10  1  0  0  0  0
  9 11  1  0  0  0  0
  9 21  1  0  0  0  0
  7  8  1  0  0  0  0
  7  9  1  0  0  0  0
 25 26  1  0  0  0  0
 25 27  1  0  0  0  0
 25 28  1  0  0  0  0
 23 24  1  0  0  0  0
 23 25  1  0  0  0  0
M  END
$$$$
default_name
  -OEChem-02102213163D

 28 27  0     1  0  0  0  0  0999 V2000
   -3.2133   -3.5565    1.2809 H   0  0  0  0  0  0  0  0  0  0  0  0
   -3.1873   -2.5755    0.8089 C   0  0  0  0  0  0  0  0  0  0  0  0
   -3.8793   -1.9065    1.3169 H   0  0  0  0  0  0  0  0  0  0  0  0
   -3.4623   -2.6685   -0.2401 H   0  0  0  0  0  0  0  0  0  0  0  0
   -1.7863   -2.0195    0.9119 C   0  0  0  0  0  0  0  0  0  0  0  0
   -0.9073   -2.6615    1.4699 O   0  0  0  0  0  0  0  0  0  0  0  0
   -1.5803   -0.8195    0.3749 N   0  0  0  0  0  0  0  0  0  0  0  0
   -2.3603   -0.3345   -0.0451 H   0  0  0  0  0  0  0  0  0  0  0  0
   -0.2933   -0.1205    0.3719 C   0  0  1  0  0  0  0  0  0  0  0  0
    0.3577   -0.5843    1.1143 H   0  0  0  0  0  0  0  0  0  0  0  0
    0.3613   -0.2794   -1.0156 C   0  0  0  0  0  0  0  0  0  0  0  0
    0.2766    0.6731   -1.5415 H   0  0  0  0  0  0  0  0  0  0  0  0
    1.4213   -0.5045   -0.8897 H   0  0  0  0  0  0  0  0  0  0  0  0
   -0.2729   -1.3817   -1.8815 C   0  0  0  0  0  0  0  0  0  0  0  0
   -1.3246   -1.1561   -2.0580 H   0  0  0  0  0  0  0  0  0  0  0  0
    0.2470   -1.4292   -2.8376 H   0  0  0  0  0  0  0  0  0  0  0  0
   -0.1835   -2.7557   -1.2251 C   0  0  0  0  0  0  0  0  0  0  0  0
    0.4306   -3.0035   -0.1998 O   0  0  0  0  0  0  0  0  0  0  0  0
   -0.8356   -3.7460   -1.8621 O   0  0  0  0  0  0  0  0  0  0  0  0
   -0.6725   -4.5320   -1.3378 H   0  0  0  0  0  0  0  0  0  0  0  0
   -0.4860    1.3537    0.7622 C   0  0  0  0  0  0  0  0  0  0  0  0
   -1.3956    2.0096    0.2582 O   0  0  0  0  0  0  0  0  0  0  0  0
    0.3741    1.8728    1.6466 N   0  0  0  0  0  0  0  0  0  0  0  0
    1.0814    1.2667    2.0345 H   0  0  0  0  0  0  0  0  0  0  0  0
    0.3380    3.2610    2.1024 C   0  0  0  0  0  0  0  0  0  0  0  0
   -0.6389    3.4820    2.5363 H   0  0  0  0  0  0  0  0  0  0  0  0
    1.1108    3.4337    2.8528 H   0  0  0  0  0  0  0  0  0  0  0  0
    0.5009    3.9312    1.2562 H   0  0  0  0  0  0  0  0  0  0  0  0
  5  6  2  0  0  0  0
  5  7  1  0  0  0  0
  2  3  1  0  0  0  0
  2  4  1  0  0  0  0
  2  5  1  0  0  0  0
  1  2  1  0  0  0  0
 21 22  2  0  0  0  0
 21 23  1  0  0  0  0
 19 20  1  0  0  0  0
 17 18  2  0  0  0  0
 17 19  1  0  0  0  0
 14 15  1  0  0  0  0
 14 16  1  0  0  0  0
 14 17  1  0  0  0  0
 11 12  1  0  0  0  0
 11 13  1  0  0  0  0
 11 14  1  0  0  0  0
  9 10  1  0  0  0  0
  9 11  1  0  0  0  0
  9 21  1  0  0  0  0
  7  8  1  0  0  0  0
  7  9  1  0  0  0  0
 25 26  1  0  0  0  0
 25 27  1  0  0  0  0
 25 28  1  0  0  0  0
 23 24  1  0  0  0  0
 23 25  1  0  0  0  0
M  END
$$$$
default_name
  -OEChem-02102213163D

 28 27  0     1  0  0  0  0  0999 V2000
   -3.2133   -3.5565    1.2809 H   0  0  0  0  0  0  0  0  0  0  0  0
   -3.1873   -2.5755    0.8089 C   0  0  0  0  0  0  0  0  0  0  0  0
   -3.8793   -1.9065    1.3169 H   0  0  0  0  0  0  0  0  0  0  0  0
   -3.4623   -2.6685   -0.2401 H   0  0  0  0  0  0  0  0  0  0  0  0
   -1.7863   -2.0195    0.9119 C   0  0  0  0  0  0  0  0  0  0  0  0
   -0.9073   -2.6615    1.4699 O   0  0  0  0  0  0  0  0  0  0  0  0
   -1.5803   -0.8195    0.3749 N   0  0  0  0  0  0  0  0  0  0  0  0
   -2.3603   -0.3345   -0.0451 H   0  0  0  0  0  0  0  0  0  0  0  0
   -0.2933   -0.1205    0.3719 C   0  0  1  0  0  0  0  0  0  0  0  0
    0.3577   -0.5843    1.1143 H   0  0  0  0  0  0  0  0  0  0  0  0
    0.3613   -0.2794   -1.0156 C   0  0  0  0  0  0  0  0  0  0  0  0
    0.2766    0.6731   -1.5415 H   0  0  0  0  0  0  0  0  0  0  0  0
    1.4213   -0.5045   -0.8897 H   0  0  0  0  0  0  0  0  0  0  0  0
   -0.2729   -1.3817   -1.8815 C   0  0  0  0  0  0  0  0  0  0  0  0
   -1.2284   -1.0385   -2.2782 H   0  0  0  0  0  0  0  0  0  0  0  0
    0.3946   -1.6140   -2.7104 H   0  0  0  0  0  0  0  0  0  0  0  0
   -0.5166   -2.6660   -1.0954 C   0  0  0  0  0  0  0  0  0  0  0  0
   -0.1404   -2.8695    0.0478 O   0  0  0  0  0  0  0  0  0  0  0  0
   -1.1913   -3.6282   -1.7516 O   0  0  0  0  0  0  0  0  0  0  0  0
   -1.2483   -4.3601   -1.1350 H   0  0  0  0  0  0  0  0  0  0  0  0
   -0.4860    1.3537    0.7622 C   0  0  0  0  0  0  0  0  0  0  0  0
   -1.3956    2.0096    0.2582 O   0  0  0  0  0  0  0  0  0  0  0  0
    0.3741    1.8728    1.6466 N   0  0  0  0  0  0  0  0  0  0  0  0
    1.0814    1.2667    2.0345 H   0  0  0  0  0  0  0  0  0  0  0  0
    0.3380    3.2610    2.1024 C   0  0  0  0  0  0  0  0  0  0  0  0
   -0.6389    3.4820    2.5363 H   0  0  0  0  0  0  0  0  0  0  0  0
    1.1108    3.4337    2.8528 H   0  0  0  0  0  0  0  0  0  0  0  0
    0.5009    3.9312    1.2562 H   0  0  0  0  0  0  0  0  0  0  0  0
  5  6  2  0  0  0  0
  5  7  1  0  0  0  0
  2  3  1  0  0  0  0
  2  4  1  0  0  0  0
  2  5  1  0  0  0  0
  1  2  1  0  0  0  0
 21 22  2  0  0  0  0
 21 23  1  0  0  0  0
 19 20  1  0  0  0  0
 17 18  2  0  0  0  0
 17 19  1  0  0  0  0
 14 15  1  0  0  0  0
 14 16  1  0  0  0  0
 14 17  1  0  0  0  0
 11 12  1  0  0  0  0
 11 13  1  0  0  0  0
 11 14  1  0  0  0  0
  9 10  1  0  0  0  0
  9 11  1  0  0  0  0
  9 21  1  0  0  0  0
  7  8  1  0  0  0  0
  7  9  1  0  0  0  0
 25 26  1  0  0  0  0
 25 27  1  0  0  0  0
 25 28  1  0  0  0  0
 23 24  1  0  0  0  0
 23 25  1  0  0  0  0
M  END
$$$$
default_name
  -OEChem-02102213163D

 28 27  0     1  0  0  0  0  0999 V2000
   -3.2133   -3.5565    1.2809 H   0  0  0  0  0  0  0  0  0  0  0  0
   -3.1873   -2.5755    0.8089 C   0  0  0  0  0  0  0  0  0  0  0  0
   -3.8793   -1.9065    1.3169 H   0  0  0  0  0  0  0  0  0  0  0  0
   -3.4623   -2.6685   -0.2401 H   0  0  0  0  0  0  0  0  0  0  0  0
   -1.7863   -2.0195    0.9119 C   0  0  0  0  0  0  0  0  0  0  0  0
   -0.9073   -2.6615    1.4699 O   0  0  0  0  0  0  0  0  0  0  0  0
   -1.5803   -0.8195    0.3749 N   0  0  0  0  0  0  0  0  0  0  0  0
   -2.3603   -0.3345   -0.0451 H   0  0  0  0  0  0  0  0  0  0  0  0
   -0.2933   -0.1205    0.3719 C   0  0  1  0  0  0  0  0  0  0  0  0
    0.3577   -0.5843    1.1143 H   0  0  0  0  0  0  0  0  0  0  0  0
    0.3613   -0.2794   -1.0156 C   0  0  0  0  0  0  0  0  0  0  0  0
    0.2766    0.6731   -1.5415 H   0  0  0  0  0  0  0  0  0  0  0  0
    1.4213   -0.5045   -0.8897 H   0  0  0  0  0  0  0  0  0  0  0  0
   -0.2729   -1.3817   -1.8815 C   0  0  0  0  0  0  0  0  0  0  0  0
   -1.0775   -0.9624   -2.4856 H   0  0  0  0  0  0  0  0  0  0  0  0
    0.4867   -1.8005   -2.5405 H   0  0  0  0  0  0  0  0  0  0  0  0
   -0.8492   -2.5170   -1.0415 C   0  0  0  0  0  0  0  0  0  0  0  0
   -0.7184   -2.6304    0.1667 O   0  0  0  0  0  0  0  0  0  0  0  0
   -1.5382   -3.4507   -1.7234 O   0  0  0  0  0  0  0  0  0  0  0  0
   -1.8171   -4.0886   -1.0641 H   0  0  0  0  0  0  0  0  0  0  0  0
   -0.4860    1.3537    0.7622 C   0  0  0  0  0  0  0  0  0  0  0  0
   -1.3956    2.0096    0.2582 O   0  0  0  0  0  0  0  0  0  0  0  0
    0.3741    1.8728    1.6466 N   0  0  0  0  0  0  0  0  0  0  0  0
    1.0814    1.2667    2.0345 H   0  0  0  0  0  0  0  0  0  0  0  0
    0.3380    3.2610    2.1024 C   0  0  0  0  0  0  0  0  0  0  0  0
   -0.6389    3.4820    2.5363 H   0  0  0  0  0  0  0  0  0  0  0  0
    1.1108    3.4337    2.8528 H   0  0  0  0  0  0  0  0  0  0  0  0
    0.5009    3.9312    1.2562 H   0  0  0  0  0  0  0  0  0  0  0  0
  5  6  2  0  0  0  0
  5  7  1  0  0  0  0
  2  3  1  0  0  0  0
  2  4  1  0  0  0  0
  2  5  1  0  0  0  0
  1  2  1  0  0  0  0
 21 22  2  0  0  0  0
 21 23  1  0  0  0  0
 19 20  1  0  0  0  0
 17 18  2  0  0  0  0
 17 19  1  0  0  0  0
 14 15  1  0  0  0  0
 14 16  1  0  0  0  0
 14 17  1  0  0  0  0
 11 12  1  0  0  0  0
 11 13  1  0  0  0  0
 11 14  1  0  0  0  0
  9 10  1  0  0  0  0
  9 11  1  0  0  0  0
  9 21  1  0  0  0  0
  7  8  1  0  0  0  0
  7  9  1  0  0  0  0
 25 26  1  0  0  0  0
 25 27  1  0  0  0  0
 25 28  1  0  0  0  0
 23 24  1  0  0  0  0
 23 25  1  0  0  0  0
M  END
$$$$
default_name
  -OEChem-02102213163D

 28 27  0     1  0  0  0  0  0999 V2000
   -3.2133   -3.5565    1.2809 H   0  0  0  0  0  0  0  0  0  0  0  0
   -3.1873   -2.5755    0.8089 C   0  0  0  0  0  0  0  0  0  0  0  0
   -3.8793   -1.9065    1.3169 H   0  0  0  0  0  0  0  0  0  0  0  0
   -3.4623   -2.6685   -0.2401 H   0  0  0  0  0  0  0  0  0  0  0  0
   -1.7863   -2.0195    0.9119 C   0  0  0  0  0  0  0  0  0  0  0  0
   -0.9073   -2.6615    1.4699 O   0  0  0  0  0  0  0  0  0  0  0  0
   -1.5803   -0.8195    0.3749 N   0  0  0  0  0  0  0  0  0  0  0  0
   -2.3603   -0.3345   -0.0451 H   0  0  0  0  0  0  0  0  0  0  0  0
   -0.2933   -0.1205    0.3719 C   0  0  1  0  0  0  0  0  0  0  0  0
    0.3577   -0.5843    1.1143 H   0  0  0  0  0  0  0  0  0  0  0  0
    0.3613   -0.2794   -1.0156 C   0  0  0  0  0  0  0  0  0  0  0  0
    0.2766    0.6731   -1.5415 H   0  0  0  0  0  0  0  0  0  0  0  0
    1.4213   -0.5045   -0.8897 H   0  0  0  0  0  0  0  0  0  0  0  0
   -0.2729   -1.3817   -1.8815 C   0  0  0  0  0  0  0  0  0  0  0  0
   -0.8822   -0.9330   -2.6661 H   0  0  0  0  0  0  0  0  0  0  0  0
    0.5170   -1.9759   -2.3393 H   0  0  0  0  0  0  0  0  0  0  0  0
   -1.1588   -2.3188   -1.0670 C   0  0  0  0  0  0  0  0  0  0  0  0
   -1.2638   -2.3027    0.1490 O   0  0  0  0  0  0  0  0  0  0  0  0
   -1.8527   -3.2258   -1.7794 O   0  0  0  0  0  0  0  0  0  0  0  0
   -2.3401   -3.7358   -1.1301 H   0  0  0  0  0  0  0  0  0  0  0  0
   -0.4860    1.3537    0.7622 C   0  0  0  0  0  0  0  0  0  0  0  0
   -1.3956    2.0096    0.2582 O   0  0  0  0  0  0  0  0  0  0  0  0
    0.3741    1.8728    1.6466 N   0  0  0  0  0  0  0  0  0  0  0  0
    1.0814    1.2667    2.0345 H   0  0  0  0  0  0  0  0  0  0  0  0
    0.3380    3.2610    2.1024 C   0  0  0  0  0  0  0  0  0  0  0  0
   -0.6389    3.4820    2.5363 H   0  0  0  0  0  0  0  0  0  0  0  0
    1.1108    3.4337    2.8528 H   0  0  0  0  0  0  0  0  0  0  0  0
    0.5009    3.9312    1.2562 H   0  0  0  0  0  0  0  0  0  0  0  0
  5  6  2  0  0  0  0
  5  7  1  0  0  0  0
  2  3  1  0  0  0  0
  2  4  1  0  0  0  0
  2  5  1  0  0  0  0
  1  2  1  0  0  0  0
 21 22  2  0  0  0  0
 21 23  1  0  0  0  0
 19 20  1  0  0  0  0
 17 18  2  0  0  0  0
 17 19  1  0  0  0  0
 14 15  1  0  0  0  0
 14 16  1  0  0  0  0
 14 17  1  0  0  0  0
 11 12  1  0  0  0  0
 11 13  1  0  0  0  0
 11 14  1  0  0  0  0
  9 10  1  0  0  0  0
  9 11  1  0  0  0  0
  9 21  1  0  0  0  0
  7  8  1  0  0  0  0
  7  9  1  0  0  0  0
 25 26  1  0  0  0  0
 25 27  1  0  0  0  0
 25 28  1  0  0  0  0
 23 24  1  0  0  0  0
 23 25  1  0  0  0  0
M  END
$$$$
default_name
  -OEChem-02102213163D

 28 27  0     1  0  0  0  0  0999 V2000
   -3.2133   -3.5565    1.2809 H   0  0  0  0  0  0  0  0  0  0  0  0
   -3.1873   -2.5755    0.8089 C   0  0  0  0  0  0  0  0  0  0  0  0
   -3.8793   -1.9065    1.3169 H   0  0  0  0  0  0  0  0  0  0  0  0
   -3.4623   -2.6685   -0.2401 H   0  0  0  0  0  0  0  0  0  0  0  0
   -1.7863   -2.0195    0.9119 C   0  0  0  0  0  0  0  0  0  0  0  0
   -0.9073   -2.6615    1.4699 O   0  0  0  0  0  0  0  0  0  0  0  0
   -1.5803   -0.8195    0.3749 N   0  0  0  0  0  0  0  0  0  0  0  0
   -2.3603   -0.3345   -0.0451 H   0  0  0  0  0  0  0  0  0  0  0  0
   -0.2933   -0.1205    0.3719 C   0  0  1  0  0  0  0  0  0  0  0  0
    0.3577   -0.5843    1.1143 H   0  0  0  0  0  0  0  0  0  0  0  0
    0.3613   -0.2794   -1.0156 C   0  0  0  0  0  0  0  0  0  0  0  0
    0.2766    0.6731   -1.5415 H   0  0  0  0  0  0  0  0  0  0  0  0
    1.4213   -0.5045   -0.8897 H   0  0  0  0  0  0  0  0  0  0  0  0
   -0.2729   -1.3817   -1.8815 C   0  0  0  0  0  0  0  0  0  0  0  0
   -0.6558   -0.9523   -2.8073 H   0  0  0  0  0  0  0  0  0  0  0  0
    0.4834   -2.1283   -2.1207 H   0  0  0  0  0  0  0  0  0  0  0  0
   -1.4243   -2.0851   -1.1701 C   0  0  0  0  0  0  0  0  0  0  0  0
   -1.7397   -1.9085   -0.0043 O   0  0  0  0  0  0  0  0  0  0  0  0
   -2.1133   -2.9687   -1.9159 O   0  0  0  0  0  0  0  0  0  0  0  0
   -2.7816   -3.3260   -1.3285 H   0  0  0  0  0  0  0  0  0  0  0  0
   -0.4860    1.3537    0.7622 C   0  0  0  0  0  0  0  0  0  0  0  0
   -1.3956    2.0096    0.2582 O   0  0  0  0  0  0  0  0  0  0  0  0
    0.3741    1.8728    1.6466 N   0  0  0  0  0  0  0  0  0  0  0  0
    1.0814    1.2667    2.0345 H   0  0  0  0  0  0  0  0  0  0  0  0
    0.3380    3.2610    2.1024 C   0  0  0  0  0  0  0  0  0  0  0  0
   -0.6389    3.4820    2.5363 H   0  0  0  0  0  0  0  0  0  0  0  0
    1.1108    3.4337    2.8528 H   0  0  0  0  0  0  0  0  0  0  0  0
    0.5009    3.9312    1.2562 H   0  0  0  0  0  0  0  0  0  0  0  0
  5  6  2  0  0  0  0
  5  7  1  0  0  0  0
  2  3  1  0  0  0  0
  2  4  1  0  0  0  0
  2  5  1  0  0  0  0
  1  2  1  0  0  0  0
 21 22  2  0  0  0  0
 21 23  1  0  0  0  0
 19 20  1  0  0  0  0
 17 18  2  0  0  0  0
 17 19  1  0  0  0  0
 14 15  1  0  0  0  0
 14 16  1  0  0  0  0
 14 17  1  0  0  0  0
 11 12  1  0  0  0  0
 11 13  1  0  0  0  0
 11 14  1  0  0  0  0
  9 10  1  0  0  0  0
  9 11  1  0  0  0  0
  9 21  1  0  0  0  0
  7  8  1  0  0  0  0
  7  9  1  0  0  0  0
 25 26  1  0  0  0  0
 25 27  1  0  0  0  0
 25 28  1  0  0  0  0
 23 24  1  0  0  0  0
 23 25  1  0  0  0  0
M  END
$$$$
default_name
  -OEChem-02102213163D

 28 27  0     1  0  0  0  0  0999 V2000
   -3.2133   -3.5565    1.2809 H   0  0  0  0  0  0  0  0  0  0  0  0
   -3.1873   -2.5755    0.8089 C   0  0  0  0  0  0  0  0  0  0  0  0
   -3.8793   -1.9065    1.3169 H   0  0  0  0  0  0  0  0  0  0  0  0
   -3.4623   -2.6685   -0.2401 H   0  0  0  0  0  0  0  0  0  0  0  0
   -1.7863   -2.0195    0.9119 C   0  0  0  0  0  0  0  0  0  0  0  0
   -0.9073   -2.6615    1.4699 O   0  0  0  0  0  0  0  0  0  0  0  0
   -1.5803   -0.8195    0.3749 N   0  0  0  0  0  0  0  0  0  0  0  0
   -2.3603   -0.3345   -0.0451 H   0  0  0  0  0  0  0  0  0  0  0  0
   -0.2933   -0.1205    0.3719 C   0  0  1  0  0  0  0  0  0  0  0  0
    0.3577   -0.5843    1.1143 H   0  0  0  0  0  0  0  0  0  0  0  0
    0.3613   -0.2794   -1.0156 C   0  0  0  0  0  0  0  0  0  0  0  0
    0.2766    0.6731   -1.5415 H   0  0  0  0  0  0  0  0  0  0  0  0
    1.4213   -0.5045   -0.8897 H   0  0  0  0  0  0  0  0  0  0  0  0
   -0.2729   -1.3817   -1.8815 C   0  0  0  0  0  0  0  0  0  0  0  0
   -0.4137   -1.0190   -2.8997 H   0  0  0  0  0  0  0  0  0  0  0  0
    0.3883   -2.2473   -1.8995 H   0  0  0  0  0  0  0  0  0  0  0  0
   -1.6276   -1.8316   -1.3439 C   0  0  0  0  0  0  0  0  0  0  0  0
   -2.1135   -1.4748   -0.2826 O   0  0  0  0  0  0  0  0  0  0  0  0
   -2.3023   -2.6969   -2.1234 O   0  0  0  0  0  0  0  0  0  0  0  0
   -3.1116   -2.8870   -1.6457 H   0  0  0  0  0  0  0  0  0  0  0  0
   -0.4860    1.3537    0.7622 C   0  0  0  0  0  0  0  0  0  0  0  0
   -1.3956    2.0096    0.2582 O   0  0  0  0  0  0  0  0  0  0  0  0
    0.3741    1.8728    1.6466 N   0  0  0  0  0  0  0  0  0  0  0  0
    1.0814    1.2667    2.0345 H   0  0  0  0  0  0  0  0  0  0  0  0
    0.3380    3.2610    2.1024 C   0  0  0  0  0  0  0  0  0  0  0  0
   -0.6389    3.4820    2.5363 H   0  0  0  0  0  0  0  0  0  0  0  0
    1.1108    3.4337    2.8528 H   0  0  0  0  0  0  0  0  0  0  0  0
    0.5009    3.9312    1.2562 H   0  0  0  0  0  0  0  0  0  0  0  0
  5  6  2  0  0  0  0
  5  7  1  0  0  0  0
  2  3  1  0  0  0  0
  2  4  1  0  0  0  0
  2  5  1  0  0  0  0
  1  2  1  0  0  0  0
 21 22  2  0  0  0  0
 21 23  1  0  0  0  0
 19 20  1  0  0  0  0
 17 18  2  0  0  0  0
 17 19  1  0  0  0  0
 14 15  1  0  0  0  0
 14 16  1  0  0  0  0
 14 17  1  0  0  0  0
 11 12  1  0  0  0  0
 11 13  1  0  0  0  0
 11 14  1  0  0  0  0
  9 10  1  0  0  0  0
  9 11  1  0  0  0  0
  9 21  1  0  0  0  0
  7  8  1  0  0  0  0
  7  9  1  0  0  0  0
 25 26  1  0  0  0  0
 25 27  1  0  0  0  0
 25 28  1  0  0  0  0
 23 24  1  0  0  0  0
 23 25  1  0  0  0  0
M  END
$$$$
default_name
  -OEChem-02102213163D

 28 27  0     1  0  0  0  0  0999 V2000
   -3.2133   -3.5565    1.2809 H   0  0  0  0  0  0  0  0  0  0  0  0
   -3.1873   -2.5755    0.8089 C   0  0  0  0  0  0  0  0  0  0  0  0
   -3.8793   -1.9065    1.3169 H   0  0  0  0  0  0  0  0  0  0  0  0
   -3.4623   -2.6685   -0.2401 H   0  0  0  0  0  0  0  0  0  0  0  0
   -1.7863   -2.0195    0.9119 C   0  0  0  0  0  0  0  0  0  0  0  0
   -0.9073   -2.6615    1.4699 O   0  0  0  0  0  0  0  0  0  0  0  0
   -1.5803   -0.8195    0.3749 N   0  0  0  0  0  0  0  0  0  0  0  0
   -2.3603   -0.3345   -0.0451 H   0  0  0  0  0  0  0  0  0  0  0  0
   -0.2933   -0.1205    0.3719 C   0  0  1  0  0  0  0  0  0  0  0  0
    0.3577   -0.5843    1.1143 H   0  0  0  0  0  0  0  0  0  0  0  0
    0.3613   -0.2794   -1.0156 C   0  0  0  0  0  0  0  0  0  0  0  0
    0.2766    0.6731   -1.5415 H   0  0  0  0  0  0  0  0  0  0  0  0
    1.4213   -0.5045   -0.8897 H   0  0  0  0  0  0  0  0  0  0  0  0
   -0.2729   -1.3817   -1.8815 C   0  0  0  0  0  0  0  0  0  0  0  0
   -0.1724   -1.1286   -2.9370 H   0  0  0  0  0  0  0  0  0  0  0  0
    0.2380   -2.3248   -1.6908 H   0  0  0  0  0  0  0  0  0  0  0  0
   -1.7547   -1.5757   -1.5765 C   0  0  0  0  0  0  0  0  0  0  0  0
   -2.3598   -1.0311   -0.6671 O   0  0  0  0  0  0  0  0  0  0  0  0
   -2.4068   -2.4291   -2.3879 O   0  0  0  0  0  0  0  0  0  0  0  0
   -3.3076   -2.4487   -2.0601 H   0  0  0  0  0  0  0  0  0  0  0  0
   -0.4860    1.3537    0.7622 C   0  0  0  0  0  0  0  0  0  0  0  0
   -1.3956    2.0096    0.2582 O   0  0  0  0  0  0  0  0  0  0  0  0
    0.3741    1.8728    1.6466 N   0  0  0  0  0  0  0  0  0  0  0  0
    1.0814    1.2667    2.0345 H   0  0  0  0  0  0  0  0  0  0  0  0
    0.3380    3.2610    2.1024 C   0  0  0  0  0  0  0  0  0  0  0  0
   -0.6389    3.4820    2.5363 H   0  0  0  0  0  0  0  0  0  0  0  0
    1.1108    3.4337    2.8528 H   0  0  0  0  0  0  0  0  0  0  0  0
    0.5009    3.9312    1.2562 H   0  0  0  0  0  0  0  0  0  0  0  0
  5  6  2  0  0  0  0
  5  7  1  0  0  0  0
  2  3  1  0  0  0  0
  2  4  1  0  0  0  0
  2  5  1  0  0  0  0
  1  2  1  0  0  0  0
 21 22  2  0  0  0  0
 21 23  1  0  0  0  0
 19 20  1  0  0  0  0
 17 18  2  0  0  0  0
 17 19  1  0  0  0  0
 14 15  1  0  0  0  0
 14 16  1  0  0  0  0
 14 17  1  0  0  0  0
 11 12  1  0  0  0  0
 11 13  1  0  0  0  0
 11 14  1  0  0  0  0
  9 10  1  0  0  0  0
  9 11  1  0  0  0  0
  9 21  1  0  0  0  0
  7  8  1  0  0  0  0
  7  9  1  0  0  0  0
 25 26  1  0  0  0  0
 25 27  1  0  0  0  0
 25 28  1  0  0  0  0
 23 24  1  0  0  0  0
 23 25  1  0  0  0  0
M  END
$$$$
default_name
  -OEChem-02102213163D

 28 27  0     1  0  0  0  0  0999 V2000
   -3.2133   -3.5565    1.2809 H   0  0  0  0  0  0  0  0  0  0  0  0
   -3.1873   -2.5755    0.8089 C   0  0  0  0  0  0  0  0  0  0  0  0
   -3.8793   -1.9065    1.3169 H   0  0  0  0  0  0  0  0  0  0  0  0
   -3.4623   -2.6685   -0.2401 H   0  0  0  0  0  0  0  0  0  0  0  0
   -1.7863   -2.0195    0.9119 C   0  0  0  0  0  0  0  0  0  0  0  0
   -0.9073   -2.6615    1.4699 O   0  0  0  0  0  0  0  0  0  0  0  0
   -1.5803   -0.8195    0.3749 N   0  0  0  0  0  0  0  0  0  0  0  0
   -2.3603   -0.3345   -0.0451 H   0  0  0  0  0  0  0  0  0  0  0  0
   -0.2933   -0.1205    0.3719 C   0  0  1  0  0  0  0  0  0  0  0  0
    0.3577   -0.5843    1.1143 H   0  0  0  0  0  0  0  0  0  0  0  0
    0.3613   -0.2794   -1.0156 C   0  0  0  0  0  0  0  0  0  0  0  0
    0.2766    0.6731   -1.5415 H   0  0  0  0  0  0  0  0  0  0  0  0
    1.4213   -0.5045   -0.8897 H   0  0  0  0  0  0  0  0  0  0  0  0
   -0.2729   -1.3817   -1.8815 C   0  0  0  0  0  0  0  0  0  0  0  0
    0.0515   -1.2735   -2.9165 H   0  0  0  0  0  0  0  0  0  0  0  0
    0.0428   -2.3555   -1.5088 H   0  0  0  0  0  0  0  0  0  0  0  0
   -1.7972   -1.3348   -1.8521 C   0  0  0  0  0  0  0  0  0  0  0  0
   -2.4618   -0.6077   -1.1314 O   0  0  0  0  0  0  0  0  0  0  0  0
   -2.4196   -2.1833   -2.6913 O   0  0  0  0  0  0  0  0  0  0  0  0
   -3.3562   -2.0410   -2.5435 H   0  0  0  0  0  0  0  0  0  0  0  0
   -0.4860    1.3537    0.7622 C   0  0  0  0  0  0  0  0  0  0  0  0
   -1.3956    2.0096    0.2582 O   0  0  0  0  0  0  0  0  0  0  0  0
    0.3741    1.8728    1.6466 N   0  0  0  0  0  0  0  0  0  0  0  0
    1.0814    1.2667    2.0345 H   0  0  0  0  0  0  0  0  0  0  0  0
    0.3380    3.2610    2.1024 C   0  0  0  0  0  0  0  0  0  0  0  0
   -0.6389    3.4820    2.5363 H   0  0  0  0  0  0  0  0  0  0  0  0
    1.1108    3.4337    2.8528 H   0  0  0  0  0  0  0  0  0  0  0  0
    0.5009    3.9312    1.2562 H   0  0  0  0  0  0  0  0  0  0  0  0
  5  6  2  0  0  0  0
  5  7  1  0  0  0  0
  2  3  1  0  0  0  0
  2  4  1  0  0  0  0
  2  5  1  0  0  0  0
  1  2  1  0  0  0  0
 21 22  2  0  0  0  0
 21 23  1  0  0  0  0
 19 20  1  0  0  0  0
 17 18  2  0  0  0  0
 17 19  1  0  0  0  0
 14 15  1  0  0  0  0
 14 16  1  0  0  0  0
 14 17  1  0  0  0  0
 11 12  1  0  0  0  0
 11 13  1  0  0  0  0
 11 14  1  0  0  0  0
  9 10  1  0  0  0  0
  9 11  1  0  0  0  0
  9 21  1  0  0  0  0
  7  8  1  0  0  0  0
  7  9  1  0  0  0  0
 25 26  1  0  0  0  0
 25 27  1  0  0  0  0
 25 28  1  0  0  0  0
 23 24  1  0  0  0  0
 23 25  1  0  0  0  0
M  END
$$$$
default_name
  -OEChem-02102213163D

 28 27  0     1  0  0  0  0  0999 V2000
   -3.2133   -3.5565    1.2809 H   0  0  0  0  0  0  0  0  0  0  0  0
   -3.1873   -2.5755    0.8089 C   0  0  0  0  0  0  0  0  0  0  0  0
   -3.8793   -1.9065    1.3169 H   0  0  0  0  0  0  0  0  0  0  0  0
   -3.4623   -2.6685   -0.2401 H   0  0  0  0  0  0  0  0  0  0  0  0
   -1.7863   -2.0195    0.9119 C   0  0  0  0  0  0  0  0  0  0  0  0
   -0.9073   -2.6615    1.4699 O   0  0  0  0  0  0  0  0  0  0  0  0
   -1.5803   -0.8195    0.3749 N   0  0  0  0  0  0  0  0  0  0  0  0
   -2.3603   -0.3345   -0.0451 H   0  0  0  0  0  0  0  0  0  0  0  0
   -0.2933   -0.1205    0.3719 C   0  0  1  0  0  0  0  0  0  0  0  0
    0.3577   -0.5843    1.1143 H   0  0  0  0  0  0  0  0  0  0  0  0
    0.3613   -0.2794   -1.0156 C   0  0  0  0  0  0  0  0  0  0  0  0
    0.2766    0.6731   -1.5415 H   0  0  0  0  0  0  0  0  0  0  0  0
    1.4213   -0.5045   -0.8897 H   0  0  0  0  0  0  0  0  0  0  0  0
   -0.2729   -1.3817   -1.8815 C   0  0  0  0  0  0  0  0  0  0  0  0
    0.2430   -1.4439   -2.8397 H   0  0  0  0  0  0  0  0  0  0  0  0
   -0.1839   -2.3373   -1.3660 H   0  0  0  0  0  0  0  0  0  0  0  0
   -1.7520   -1.1254   -2.1518 C   0  0  0  0  0  0  0  0  0  0  0  0
   -2.4125   -0.2334   -1.6440 O   0  0  0  0  0  0  0  0  0  0  0  0
   -2.3399   -1.9764   -3.0130 O   0  0  0  0  0  0  0  0  0  0  0  0
   -3.2541   -1.6917   -3.0630 H   0  0  0  0  0  0  0  0  0  0  0  0
   -0.4860    1.3537    0.7622 C   0  0  0  0  0  0  0  0  0  0  0  0
   -1.3956    2.0096    0.2582 O   0  0  0  0  0  0  0  0  0  0  0  0
    0.3741    1.8728    1.6466 N   0  0  0  0  0  0  0  0  0  0  0  0
    1.0814    1.2667    2.0345 H   0  0  0  0  0  0  0  0  0  0  0  0
    0.3380    3.2610    2.1024 C   0  0  0  0  0  0  0  0  0  0  0  0
   -0.6389    3.4820    2.5363 H   0  0  0  0  0  0  0  0  0  0  0  0
    1.1108    3.4337    2.8528 H   0  0  0  0  0  0  0  0  0  0  0  0
    0.5009    3.9312    1.2562 H   0  0  0  0  0  0  0  0  0  0  0  0
  5  6  2  0  0  0  0
  5  7  1  0  0  0  0
  2  3  1  0  0  0  0
  2  4  1  0  0  0  0
  2  5  1  0  0  0  0
  1  2  1  0  0  0  0
 21 22  2  0  0  0  0
 21 23  1  0  0  0  0
 19 20  1  0  0  0  0
 17 18  2  0  0  0  0
 17 19  1  0  0  0  0
 14 15  1  0  0  0  0
 14 16  1  0  0  0  0
 14 17  1  0  0  0  0
 11 12  1  0  0  0  0
 11 13  1  0  0  0  0
 11 14  1  0  0  0  0
  9 10  1  0  0  0  0
  9 11  1  0  0  0  0
  9 21  1  0  0  0  0
  7  8  1  0  0  0  0
  7  9  1  0  0  0  0
 25 26  1  0  0  0  0
 25 27  1  0  0  0  0
 25 28  1  0  0  0  0
 23 24  1  0  0  0  0
 23 25  1  0  0  0  0
M  END
$$$$
default_name
  -OEChem-02102213163D

 28 27  0     1  0  0  0  0  0999 V2000
   -3.2133   -3.5565    1.2809 H   0  0  0  0  0  0  0  0  0  0  0  0
   -3.1873   -2.5755    0.8089 C   0  0  0  0  0  0  0  0  0  0  0  0
   -3.8793   -1.9065    1.3169 H   0  0  0  0  0  0  0  0  0  0  0  0
   -3.4623   -2.6685   -0.2401 H   0  0  0  0  0  0  0  0  0  0  0  0
   -1.7863   -2.0195    0.9119 C   0  0  0  0  0  0  0  0  0  0  0  0
   -0.9073   -2.6615    1.4699 O   0  0  0  0  0  0  0  0  0  0  0  0
   -1.5803   -0.8195    0.3749 N   0  0  0  0  0  0  0  0  0  0  0  0
   -2.3603   -0.3345   -0.0451 H   0  0  0  0  0  0  0  0  0  0  0  0
   -0.2933   -0.1205    0.3719 C   0  0  1  0  0  0  0  0  0  0  0  0
    0.3577   -0.5843    1.1143 H   0  0  0  0  0  0  0  0  0  0  0  0
    0.3613   -0.2794   -1.0156 C   0  0  0  0  0  0  0  0  0  0  0  0
    0.2766    0.6731   -1.5415 H   0  0  0  0  0  0  0  0  0  0  0  0
    1.4213   -0.5045   -0.8897 H   0  0  0  0  0  0  0  0  0  0  0  0
   -0.2729   -1.3817   -1.8815 C   0  0  0  0  0  0  0  0  0  0  0  0
    0.3888   -1.6282   -2.7119 H   0  0  0  0  0  0  0  0  0  0  0  0
   -0.4268   -2.2714   -1.2720 H   0  0  0  0  0  0  0  0  0  0  0  0
   -1.6222   -0.9616   -2.4553 C   0  0  0  0  0  0  0  0  0  0  0  0
   -2.2153    0.0663   -2.1699 O   0  0  0  0  0  0  0  0  0  0  0  0
   -2.1732   -1.8225   -3.3310 O   0  0  0  0  0  0  0  0  0  0  0  0
   -3.0083   -1.4245   -3.5830 H   0  0  0  0  0  0  0  0  0  0  0  0
   -0.4860    1.3537    0.7622 C   0  0  0  0  0  0  0  0  0  0  0  0
   -1.3956    2.0096    0.2582 O   0  0  0  0  0  0  0  0  0  0  0  0
    0.3741    1.8728    1.6466 N   0  0  0  0  0  0  0  0  0  0  0  0
    1.0814    1.2667    2.0345 H   0  0  0  0  0  0  0  0  0  0  0  0
    0.3380    3.2610    2.1024 C   0  0  0  0  0  0  0  0  0  0  0  0
   -0.6389    3.4820    2.5363 H   0  0  0  0  0  0  0  0  0  0  0  0
    1.1108    3.4337    2.8528 H   0  0  0  0  0  0  0  0  0  0  0  0
    0.5009    3.9312    1.2562 H   0  0  0  0  0  0  0  0  0  0  0  0
  5  6  2  0  0  0  0
  5  7  1  0  0  0  0
  2  3  1  0  0  0  0
  2  4  1  0  0  0  0
  2  5  1  0  0  0  0
  1  2  1  0  0  0  0
 21 22  2  0  0  0  0
 21 23  1  0  0  0  0
 19 20  1  0  0  0  0
 17 18  2  0  0  0  0
 17 19  1  0  0  0  0
 14 15  1  0  0  0  0
 14 16  1  0  0  0  0
 14 17  1  0  0  0  0
 11 12  1  0  0  0  0
 11 13  1  0  0  0  0
 11 14  1  0  0  0  0
  9 10  1  0  0  0  0
  9 11  1  0  0  0  0
  9 21  1  0  0  0  0
  7  8  1  0  0  0  0
  7  9  1  0  0  0  0
 25 26  1  0  0  0  0
 25 27  1  0  0  0  0
 25 28  1  0  0  0  0
 23 24  1  0  0  0  0
 23 25  1  0  0  0  0
M  END
$$$$
default_name
  -OEChem-02102213163D

 28 27  0     1  0  0  0  0  0999 V2000
   -3.2133   -3.5565    1.2809 H   0  0  0  0  0  0  0  0  0  0  0  0
   -3.1873   -2.5755    0.8089 C   0  0  0  0  0  0  0  0  0  0  0  0
   -3.8793   -1.9065    1.3169 H   0  0  0  0  0  0  0  0  0  0  0  0
   -3.4623   -2.6685   -0.2401 H   0  0  0  0  0  0  0  0  0  0  0  0
   -1.7863   -2.0195    0.9119 C   0  0  0  0  0  0  0  0  0  0  0  0
   -0.9073   -2.6615    1.4699 O   0  0  0  0  0  0  0  0  0  0  0  0
   -1.5803   -0.8195    0.3749 N   0  0  0  0  0  0  0  0  0  0  0  0
   -2.3603   -0.3345   -0.0451 H   0  0  0  0  0  0  0  0  0  0  0  0
   -0.2933   -0.1205    0.3719 C   0  0  1  0  0  0  0  0  0  0  0  0
    0.3577   -0.5843    1.1143 H   0  0  0  0  0  0  0  0  0  0  0  0
    0.3613   -0.2794   -1.0156 C   0  0  0  0  0  0  0  0  0  0  0  0
    0.2766    0.6731   -1.5415 H   0  0  0  0  0  0  0  0  0  0  0  0
    1.4213   -0.5045   -0.8897 H   0  0  0  0  0  0  0  0  0  0  0  0
   -0.2729   -1.3817   -1.8815 C   0  0  0  0  0  0  0  0  0  0  0  0
    0.4791   -1.8139   -2.5417 H   0  0  0  0  0  0  0  0  0  0  0  0
   -0.6692   -2.1624   -1.2332 H   0  0  0  0  0  0  0  0  0  0  0  0
   -1.4167   -0.8547   -2.7419 C   0  0  0  0  0  0  0  0  0  0  0  0
   -1.8836    0.2709   -2.6733 O   0  0  0  0  0  0  0  0  0  0  0  0
   -1.9308   -1.7321   -3.6237 O   0  0  0  0  0  0  0  0  0  0  0  0
   -2.6355   -1.2578   -4.0683 H   0  0  0  0  0  0  0  0  0  0  0  0
   -0.4860    1.3537    0.7622 C   0  0  0  0  0  0  0  0  0  0  0  0
   -1.3956    2.0096    0.2582 O   0  0  0  0  0  0  0  0  0  0  0  0
    0.3741    1.8728    1.6466 N   0  0  0  0  0  0  0  0  0  0  0  0
    1.0814    1.2667    2.0345 H   0  0  0  0  0  0  0  0  0  0  0  0
    0.3380    3.2610    2.1024 C   0  0  0  0  0  0  0  0  0  0  0  0
   -0.6389    3.4820    2.5363 H   0  0  0  0  0  0  0  0  0  0  0  0
    1.1108    3.4337    2.8528 H   0  0  0  0  0  0  0  0  0  0  0  0
    0.5009    3.9312    1.2562 H   0  0  0  0  0  0  0  0  0  0  0  0
  5  6  2  0  0  0  0
  5  7  1  0  0  0  0
  2  3  1  0  0  0  0
  2  4  1  0  0  0  0
  2  5  1  0  0  0  0
  1  2  1  0  0  0  0
 21 22  2  0  0  0  0
 21 23  1  0  0  0  0
 19 20  1  0  0  0  0
 17 18  2  0  0  0  0
 17 19  1  0  0  0  0
 14 15  1  0  0  0  0
 14 16  1  0  0  0  0
 14 17  1  0  0  0  0
 11 12  1  0  0  0  0
 11 13  1  0  0  0  0
 11 14  1  0  0  0  0
  9 10  1  0  0  0  0
  9 11  1  0  0  0  0
  9 21  1  0  0  0  0
  7  8  1  0  0  0  0
  7  9  1  0  0  0  0
 25 26  1  0  0  0  0
 25 27  1  0  0  0  0
 25 28  1  0  0  0  0
 23 24  1  0  0  0  0
 23 25  1  0  0  0  0
M  END
$$$$
default_name
  -OEChem-02102213163D

 28 27  0     1  0  0  0  0  0999 V2000
   -3.2133   -3.5565    1.2809 H   0  0  0  0  0  0  0  0  0  0  0  0
   -3.1873   -2.5755    0.8089 C   0  0  0  0  0  0  0  0  0  0  0  0
   -3.8793   -1.9065    1.3169 H   0  0  0  0  0  0  0  0  0  0  0  0
   -3.4623   -2.6685   -0.2401 H   0  0  0  0  0  0  0  0  0  0  0  0
   -1.7863   -2.0195    0.9119 C   0  0  0  0  0  0  0  0  0  0  0  0
   -0.9073   -2.6615    1.4699 O   0  0  0  0  0  0  0  0  0  0  0  0
   -1.5803   -0.8195    0.3749 N   0  0  0  0  0  0  0  0  0  0  0  0
   -2.3603   -0.3345   -0.0451 H   0  0  0  0  0  0  0  0  0  0  0  0
   -0.2933   -0.1205    0.3719 C   0  0  1  0  0  0  0  0  0  0  0  0
    0.3577   -0.5843    1.1143 H   0  0  0  0  0  0  0  0  0  0  0  0
    0.3613   -0.2794   -1.0156 C   0  0  0  0  0  0  0  0  0  0  0  0
    0.2766    0.6731   -1.5415 H   0  0  0  0  0  0  0  0  0  0  0  0
    1.4213   -0.5045   -0.8897 H   0  0  0  0  0  0  0  0  0  0  0  0
   -0.2729   -1.3817   -1.8815 C   0  0  0  0  0  0  0  0  0  0  0  0
    0.5078   -1.9882   -2.3408 H   0  0  0  0  0  0  0  0  0  0  0  0
   -0.8946   -2.0177   -1.2524 H   0  0  0  0  0  0  0  0  0  0  0  0
   -1.1496   -0.8120   -2.9920 C   0  0  0  0  0  0  0  0  0  0  0  0
   -1.4401    0.3666   -3.1199 O   0  0  0  0  0  0  0  0  0  0  0  0
   -1.6291   -1.7113   -3.8711 O   0  0  0  0  0  0  0  0  0  0  0  0
   -2.1611   -1.2028   -4.4857 H   0  0  0  0  0  0  0  0  0  0  0  0
   -0.4860    1.3537    0.7622 C   0  0  0  0  0  0  0  0  0  0  0  0
   -1.3956    2.0096    0.2582 O   0  0  0  0  0  0  0  0  0  0  0  0
    0.3741    1.8728    1.6466 N   0  0  0  0  0  0  0  0  0  0  0  0
    1.0814    1.2667    2.0345 H   0  0  0  0  0  0  0  0  0  0  0  0
    0.3380    3.2610    2.1024 C   0  0  0  0  0  0  0  0  0  0  0  0
   -0.6389    3.4820    2.5363 H   0  0  0  0  0  0  0  0  0  0  0  0
    1.1108    3.4337    2.8528 H   0  0  0  0  0  0  0  0  0  0  0  0
    0.5009    3.9312    1.2562 H   0  0  0  0  0  0  0  0  0  0  0  0
  5  6  2  0  0  0  0
  5  7  1  0  0  0  0
  2  3  1  0  0  0  0
  2  4  1  0  0  0  0
  2  5  1  0  0  0  0
  1  2  1  0  0  0  0
 21 22  2  0  0  0  0
 21 23  1  0  0  0  0
 19 20  1  0  0  0  0
 17 18  2  0  0  0  0
 17 19  1  0  0  0  0
 14 15  1  0  0  0  0
 14 16  1  0  0  0  0
 14 17  1  0  0  0  0
 11 12  1  0  0  0  0
 11 13  1  0  0  0  0
 11 14  1  0  0  0  0
  9 10  1  0  0  0  0
  9 11  1  0  0  0  0
  9 21  1  0  0  0  0
  7  8  1  0  0  0  0
  7  9  1  0  0  0  0
 25 26  1  0  0  0  0
 25 27  1  0  0  0  0
 25 28  1  0  0  0  0
 23 24  1  0  0  0  0
 23 25  1  0  0  0  0
M  END
$$$$
default_name
  -OEChem-02102213163D

 28 27  0     1  0  0  0  0  0999 V2000
   -3.2133   -3.5565    1.2809 H   0  0  0  0  0  0  0  0  0  0  0  0
   -3.1873   -2.5755    0.8089 C   0  0  0  0  0  0  0  0  0  0  0  0
   -3.8793   -1.9065    1.3169 H   0  0  0  0  0  0  0  0  0  0  0  0
   -3.4623   -2.6685   -0.2401 H   0  0  0  0  0  0  0  0  0  0  0  0
   -1.7863   -2.0195    0.9119 C   0  0  0  0  0  0  0  0  0  0  0  0
   -0.9073   -2.6615    1.4699 O   0  0  0  0  0  0  0  0  0  0  0  0
   -1.5803   -0.8195    0.3749 N   0  0  0  0  0  0  0  0  0  0  0  0
   -2.3603   -0.3345   -0.0451 H   0  0  0  0  0  0  0  0  0  0  0  0
   -0.2933   -0.1205    0.3719 C   0  0  1  0  0  0  0  0  0  0  0  0
    0.3577   -0.5843    1.1143 H   0  0  0  0  0  0  0  0  0  0  0  0
    0.3613   -0.2794   -1.0156 C   0  0  0  0  0  0  0  0  0  0  0  0
    0.2766    0.6731   -1.5415 H   0  0  0  0  0  0  0  0  0  0  0  0
    1.4213   -0.5045   -0.8897 H   0  0  0  0  0  0  0  0  0  0  0  0
   -0.2729   -1.3817   -1.8815 C   0  0  0  0  0  0  0  0  0  0  0  0
    0.4728   -2.1393   -2.1228 H   0  0  0  0  0  0  0  0  0  0  0  0
   -1.0878   -1.8470   -1.3281 H   0  0  0  0  0  0  0  0  0  0  0  0
   -0.8389   -0.8363   -3.1886 C   0  0  0  0  0  0  0  0  0  0  0  0
   -0.9150    0.3468   -3.4793 O   0  0  0  0  0  0  0  0  0  0  0  0
   -1.2889   -1.7615   -4.0564 O   0  0  0  0  0  0  0  0  0  0  0  0
   -1.6175   -1.2633   -4.8068 H   0  0  0  0  0  0  0  0  0  0  0  0
   -0.4860    1.3537    0.7622 C   0  0  0  0  0  0  0  0  0  0  0  0
   -1.3956    2.0096    0.2582 O   0  0  0  0  0  0  0  0  0  0  0  0
    0.3741    1.8728    1.6466 N   0  0  0  0  0  0  0  0  0  0  0  0
    1.0814    1.2667    2.0345 H   0  0  0  0  0  0  0  0  0  0  0  0
    0.3380    3.2610    2.1024 C   0  0  0  0  0  0  0  0  0  0  0  0
   -0.6389    3.4820    2.5363 H   0  0  0  0  0  0  0  0  0  0  0  0
    1.1108    3.4337    2.8528 H   0  0  0  0  0  0  0  0  0  0  0  0
    0.5009    3.9312    1.2562 H   0  0  0  0  0  0  0  0  0  0  0  0
  5  6  2  0  0  0  0
  5  7  1  0  0  0  0
  2  3  1  0  0  0  0
  2  4  1  0  0  0  0
  2  5  1  0  0  0  0
  1  2  1  0  0  0  0
 21 22  2  0  0  0  0
 21 23  1  0  0  0  0
 19 20  1  0  0  0  0
 17 18  2  0  0  0  0
 17 19  1  0  0  0  0
 14 15  1  0  0  0  0
 14 16  1  0  0  0  0
 14 17  1  0  0  0  0
 11 12  1  0  0  0  0
 11 13  1  0  0  0  0
 11 14  1  0  0  0  0
  9 10  1  0  0  0  0
  9 11  1  0  0  0  0
  9 21  1  0  0  0  0
  7  8  1  0  0  0  0
  7  9  1  0  0  0  0
 25 26  1  0  0  0  0
 25 27  1  0  0  0  0
 25 28  1  0  0  0  0
 23 24  1  0  0  0  0
 23 25  1  0  0  0  0
M  END
$$$$
default_name
  -OEChem-02102213163D

 28 27  0     1  0  0  0  0  0999 V2000
   -3.2133   -3.5565    1.2809 H   0  0  0  0  0  0  0  0  0  0  0  0
   -3.1873   -2.5755    0.8089 C   0  0  0  0  0  0  0  0  0  0  0  0
   -3.8793   -1.9065    1.3169 H   0  0  0  0  0  0  0  0  0  0  0  0
   -3.4623   -2.6685   -0.2401 H   0  0  0  0  0  0  0  0  0  0  0  0
   -1.7863   -2.0195    0.9119 C   0  0  0  0  0  0  0  0  0  0  0  0
   -0.9073   -2.6615    1.4699 O   0  0  0  0  0  0  0  0  0  0  0  0
   -1.5803   -0.8195    0.3749 N   0  0  0  0  0  0  0  0  0  0  0  0
   -2.3603   -0.3345   -0.0451 H   0  0  0  0  0  0  0  0  0  0  0  0
   -0.2933   -0.1205    0.3719 C   0  0  1  0  0  0  0  0  0  0  0  0
    0.3577   -0.5843    1.1143 H   0  0  0  0  0  0  0  0  0  0  0  0
    0.3613   -0.2794   -1.0156 C   0  0  0  0  0  0  0  0  0  0  0  0
    0.2766    0.6731   -1.5415 H   0  0  0  0  0  0  0  0  0  0  0  0
    1.4213   -0.5045   -0.8897 H   0  0  0  0  0  0  0  0  0  0  0  0
   -0.2729   -1.3817   -1.8815 C   0  0  0  0  0  0  0  0  0  0  0  0
    0.3766   -2.2569   -1.9026 H   0  0  0  0  0  0  0  0  0  0  0  0
   -1.2354   -1.6622   -1.4553 H   0  0  0  0  0  0  0  0  0  0  0  0
   -0.5059   -0.9260   -3.3183 C   0  0  0  0  0  0  0  0  0  0  0  0
   -0.3440    0.2127   -3.7268 O   0  0  0  0  0  0  0  0  0  0  0  0
   -0.9331   -1.8794   -4.1669 O   0  0  0  0  0  0  0  0  0  0  0  0
   -1.0417   -1.4352   -5.0097 H   0  0  0  0  0  0  0  0  0  0  0  0
   -0.4860    1.3537    0.7622 C   0  0  0  0  0  0  0  0  0  0  0  0
   -1.3956    2.0096    0.2582 O   0  0  0  0  0  0  0  0  0  0  0  0
    0.3741    1.8728    1.6466 N   0  0  0  0  0  0  0  0  0  0  0  0
    1.0814    1.2667    2.0345 H   0  0  0  0  0  0  0  0  0  0  0  0
    0.3380    3.2610    2.1024 C   0  0  0  0  0  0  0  0  0  0  0  0
   -0.6389    3.4820    2.5363 H   0  0  0  0  0  0  0  0  0  0  0  0
    1.1108    3.4337    2.8528 H   0  0  0  0  0  0  0  0  0  0  0  0
    0.5009    3.9312    1.2562 H   0  0  0  0  0  0  0  0  0  0  0  0
  5  6  2  0  0  0  0
  5  7  1  0  0  0  0
  2  3  1  0  0  0  0
  2  4  1  0  0  0  0
  2  5  1  0  0  0  0
  1  2  1  0  0  0  0
 21 22  2  0  0  0  0
 21 23  1  0  0  0  0
 19 20  1  0  0  0  0
 17 18  2  0  0  0  0
 17 19  1  0  0  0  0
 14 15  1  0  0  0  0
 14 16  1  0  0  0  0
 14 17  1  0  0  0  0
 11 12  1  0  0  0  0
 11 13  1  0  0  0  0
 11 14  1  0  0  0  0
  9 10  1  0  0  0  0
  9 11  1  0  0  0  0
  9 21  1  0  0  0  0
  7  8  1  0  0  0  0
  7  9  1  0  0  0  0
 25 26  1  0  0  0  0
 25 27  1  0  0  0  0
 25 28  1  0  0  0  0
 23 24  1  0  0  0  0
 23 25  1  0  0  0  0
M  END
$$$$
default_name
  -OEChem-02102213163D

 28 27  0     1  0  0  0  0  0999 V2000
   -3.2133   -3.5565    1.2809 H   0  0  0  0  0  0  0  0  0  0  0  0
   -3.1873   -2.5755    0.8089 C   0  0  0  0  0  0  0  0  0  0  0  0
   -3.8793   -1.9065    1.3169 H   0  0  0  0  0  0  0  0  0  0  0  0
   -3.4623   -2.6685   -0.2401 H   0  0  0  0  0  0  0  0  0  0  0  0
   -1.7863   -2.0195    0.9119 C   0  0  0  0  0  0  0  0  0  0  0  0
   -0.9073   -2.6615    1.4699 O   0  0  0  0  0  0  0  0  0  0  0  0
   -1.5803   -0.8195    0.3749 N   0  0  0  0  0  0  0  0  0  0  0  0
   -2.3603   -0.3345   -0.0451 H   0  0  0  0  0  0  0  0  0  0  0  0
   -0.2933   -0.1205    0.3719 C   0  0  1  0  0  0  0  0  0  0  0  0
    0.3577   -0.5843    1.1143 H   0  0  0  0  0  0  0  0  0  0  0  0
    0.3613   -0.2794   -1.0156 C   0  0  0  0  0  0  0  0  0  0  0  0
    0.2766    0.6731   -1.5415 H   0  0  0  0  0  0  0  0  0  0  0  0
    1.4213   -0.5045   -0.8897 H   0  0  0  0  0  0  0  0  0  0  0  0
   -0.2729   -1.3817   -1.8815 C   0  0  0  0  0  0  0  0  0  0  0  0
    0.2257   -2.3330   -1.6952 H   0  0  0  0  0  0  0  0  0  0  0  0
   -1.3275   -1.4757   -1.6252 H   0  0  0  0  0  0  0  0  0  0  0  0
   -0.1732   -1.0750   -3.3722 C   0  0  0  0  0  0  0  0  0  0  0  0
    0.2340   -0.0263   -3.8458 O   0  0  0  0  0  0  0  0  0  0  0  0
   -0.5862   -2.0568   -4.1951 O   0  0  0  0  0  0  0  0  0  0  0  0
   -0.4730   -1.7068   -5.0805 H   0  0  0  0  0  0  0  0  0  0  0  0
   -0.4860    1.3537    0.7622 C   0  0  0  0  0  0  0  0  0  0  0  0
   -1.3956    2.0096    0.2582 O   0  0  0  0  0  0  0  0  0  0  0  0
    0.3741    1.8728    1.6466 N   0  0  0  0  0  0  0  0  0  0  0  0
    1.0814    1.2667    2.0345 H   0  0  0  0  0  0  0  0  0  0  0  0
    0.3380    3.2610    2.1024 C   0  0  0  0  0  0  0  0  0  0  0  0
   -0.6389    3.4820    2.5363 H   0  0  0  0  0  0  0  0  0  0  0  0
    1.1108    3.4337    2.8528 H   0  0  0  0  0  0  0  0  0  0  0  0
    0.5009    3.9312    1.2562 H   0  0  0  0  0  0  0  0  0  0  0  0
  5  6  2  0  0  0  0
  5  7  1  0  0  0  0
  2  3  1  0  0  0  0
  2  4  1  0  0  0  0
  2  5  1  0  0  0  0
  1  2  1  0  0  0  0
 21 22  2  0  0  0  0
 21 23  1  0  0  0  0
 19 20  1  0  0  0  0
 17 18  2  0  0  0  0
 17 19  1  0  0  0  0
 14 15  1  0  0  0  0
 14 16  1  0  0  0  0
 14 17  1  0  0  0  0
 11 12  1  0  0  0  0
 11 13  1  0  0  0  0
 11 14  1  0  0  0  0
  9 10  1  0  0  0  0
  9 11  1  0  0  0  0
  9 21  1  0  0  0  0
  7  8  1  0  0  0  0
  7  9  1  0  0  0  0
 25 26  1  0  0  0  0
 25 27  1  0  0  0  0
 25 28  1  0  0  0  0
 23 24  1  0  0  0  0
 23 25  1  0  0  0  0
M  END
$$$$
default_name
  -OEChem-02102213163D

 28 27  0     1  0  0  0  0  0999 V2000
   -3.2133   -3.5565    1.2809 H   0  0  0  0  0  0  0  0  0  0  0  0
   -3.1873   -2.5755    0.8089 C   0  0  0  0  0  0  0  0  0  0  0  0
   -3.8793   -1.9065    1.3169 H   0  0  0  0  0  0  0  0  0  0  0  0
   -3.4623   -2.6685   -0.2401 H   0  0  0  0  0  0  0  0  0  0  0  0
   -1.7863   -2.0195    0.9119 C   0  0  0  0  0  0  0  0  0  0  0  0
   -0.9073   -2.6615    1.4699 O   0  0  0  0  0  0  0  0  0  0  0  0
   -1.5803   -0.8195    0.3749 N   0  0  0  0  0  0  0  0  0  0  0  0
   -2.3603   -0.3345   -0.0451 H   0  0  0  0  0  0  0  0  0  0  0  0
   -0.2933   -0.1205    0.3719 C   0  0  1  0  0  0  0  0  0  0  0  0
    0.3577   -0.5843    1.1143 H   0  0  0  0  0  0  0  0  0  0  0  0
    0.3613   -0.2794   -1.0156 C   0  0  0  0  0  0  0  0  0  0  0  0
    0.2766    0.6731   -1.5415 H   0  0  0  0  0  0  0  0  0  0  0  0
    1.4213   -0.5045   -0.8897 H   0  0  0  0  0  0  0  0  0  0  0  0
   -0.2729   -1.3817   -1.8815 C   0  0  0  0  0  0  0  0  0  0  0  0
    0.0303   -2.3624   -1.5147 H   0  0  0  0  0  0  0  0  0  0  0  0
   -1.3578   -1.3003   -1.8264 H   0  0  0  0  0  0  0  0  0  0  0  0
    0.1364   -1.2731   -3.3468 C   0  0  0  0  0  0  0  0  0  0  0  0
    0.7795   -0.3541   -3.8281 O   0  0  0  0  0  0  0  0  0  0  0  0
   -0.2718   -2.2817   -4.1391 O   0  0  0  0  0  0  0  0  0  0  0  0
    0.0500   -2.0595   -5.0145 H   0  0  0  0  0  0  0  0  0  0  0  0
   -0.4860    1.3537    0.7622 C   0  0  0  0  0  0  0  0  0  0  0  0
   -1.3956    2.0096    0.2582 O   0  0  0  0  0  0  0  0  0  0  0  0
    0.3741    1.8728    1.6466 N   0  0  0  0  0  0  0  0  0  0  0  0
    1.0814    1.2667    2.0345 H   0  0  0  0  0  0  0  0  0  0  0  0
    0.3380    3.2610    2.1024 C   0  0  0  0  0  0  0  0  0  0  0  0
   -0.6389    3.4820    2.5363 H   0  0  0  0  0  0  0  0  0  0  0  0
    1.1108    3.4337    2.8528 H   0  0  0  0  0  0  0  0  0  0  0  0
    0.5009    3.9312    1.2562 H   0  0  0  0  0  0  0  0  0  0  0  0
  5  6  2  0  0  0  0
  5  7  1  0  0  0  0
  2  3  1  0  0  0  0
  2  4  1  0  0  0  0
  2  5  1  0  0  0  0
  1  2  1  0  0  0  0
 21 22  2  0  0  0  0
 21 23  1  0  0  0  0
 19 20  1  0  0  0  0
 17 18  2  0  0  0  0
 17 19  1  0  0  0  0
 14 15  1  0  0  0  0
 14 16  1  0  0  0  0
 14 17  1  0  0  0  0
 11 12  1  0  0  0  0
 11 13  1  0  0  0  0
 11 14  1  0  0  0  0
  9 10  1  0  0  0  0
  9 11  1  0  0  0  0
  9 21  1  0  0  0  0
  7  8  1  0  0  0  0
  7  9  1  0  0  0  0
 25 26  1  0  0  0  0
 25 27  1  0  0  0  0
 25 28  1  0  0  0  0
 23 24  1  0  0  0  0
 23 25  1  0  0  0  0
M  END
$$$$
default_name
  -OEChem-02102213163D

 28 27  0     1  0  0  0  0  0999 V2000
   -3.2133   -3.5565    1.2809 H   0  0  0  0  0  0  0  0  0  0  0  0
   -3.1873   -2.5755    0.8089 C   0  0  0  0  0  0  0  0  0  0  0  0
   -3.8793   -1.9065    1.3169 H   0  0  0  0  0  0  0  0  0  0  0  0
   -3.4623   -2.6685   -0.2401 H   0  0  0  0  0  0  0  0  0  0  0  0
   -1.7863   -2.0195    0.9119 C   0  0  0  0  0  0  0  0  0  0  0  0
   -0.9073   -2.6615    1.4699 O   0  0  0  0  0  0  0  0  0  0  0  0
   -1.5803   -0.8195    0.3749 N   0  0  0  0  0  0  0  0  0  0  0  0
   -2.3603   -0.3345   -0.0451 H   0  0  0  0  0  0  0  0  0  0  0  0
   -0.2933   -0.1205    0.3719 C   0  0  1  0  0  0  0  0  0  0  0  0
    0.3577   -0.5843    1.1143 H   0  0  0  0  0  0  0  0  0  0  0  0
    0.3613   -0.2794   -1.0156 C   0  0  0  0  0  0  0  0  0  0  0  0
    0.5202    0.7169   -1.4316 H   0  0  0  0  0  0  0  0  0  0  0  0
    1.3347   -0.7587   -0.9015 H   0  0  0  0  0  0  0  0  0  0  0  0
   -0.4758   -1.1036   -2.0091 C   0  0  0  0  0  0  0  0  0  0  0  0
   -0.6437   -2.1048   -1.6120 H   0  0  0  0  0  0  0  0  0  0  0  0
   -1.4372   -0.6138   -2.1595 H   0  0  0  0  0  0  0  0  0  0  0  0
    0.2052   -1.2373   -3.3673 C   0  0  0  0  0  0  0  0  0  0  0  0
    1.2274   -0.6582   -3.6983 O   0  0  0  0  0  0  0  0  0  0  0  0
   -0.4049   -2.0567   -4.2436 O   0  0  0  0  0  0  0  0  0  0  0  0
    0.1321   -2.0206   -5.0371 H   0  0  0  0  0  0  0  0  0  0  0  0
   -0.4860    1.3537    0.7622 C   0  0  0  0  0  0  0  0  0  0  0  0
   -1.3956    2.0096    0.2582 O   0  0  0  0  0  0  0  0  0  0  0  0
    0.3741    1.8728    1.6466 N   0  0  0  0  0  0  0  0  0  0  0  0
    1.0814    1.2667    2.0345 H   0  0  0  0  0  0  0  0  0  0  0  0
    0.3380    3.2610    2.1024 C   0  0  0  0  0  0  0  0  0  0  0  0
   -0.6389    3.4820    2.5363 H   0  0  0  0  0  0  0  0  0  0  0  0
    1.1108    3.4337    2.8528 H   0  0  0  0  0  0  0  0  0  0  0  0
    0.5009    3.9312    1.2562 H   0  0  0  0  0  0  0  0  0  0  0  0
  5  6  2  0  0  0  0
  5  7  1  0  0  0  0
  2  3  1  0  0  0  0
  2  4  1  0  0  0  0
  2  5  1  0  0  0  0
  1  2  1  0  0  0  0
 21 22  2  0  0  0  0
 21 23  1  0  0  0  0
 19 20  1  0  0  0  0
 17 18  2  0  0  0  0
 17 19  1  0  0  0  0
 14 15  1  0  0  0  0
 14 16  1  0  0  0  0
 14 17  1  0  0  0  0
 11 12  1  0  0  0  0
 11 13  1  0  0  0  0
 11 14  1  0  0  0  0
  9 10  1  0  0  0  0
  9 11  1  0  0  0  0
  9 21  1  0  0  0  0
  7  8  1  0  0  0  0
  7  9  1  0  0  0  0
 25 26  1  0  0  0  0
 25 27  1  0  0  0  0
 25 28  1  0  0  0  0
 23 24  1  0  0  0  0
 23 25  1  0  0  0  0
M  END
$$$$
default_name
  -OEChem-02102213163D

 28 27  0     1  0  0  0  0  0999 V2000
   -3.2133   -3.5565    1.2809 H   0  0  0  0  0  0  0  0  0  0  0  0
   -3.1873   -2.5755    0.8089 C   0  0  0  0  0  0  0  0  0  0  0  0
   -3.8793   -1.9065    1.3169 H   0  0  0  0  0  0  0  0  0  0  0  0
   -3.4623   -2.6685   -0.2401 H   0  0  0  0  0  0  0  0  0  0  0  0
   -1.7863   -2.0195    0.9119 C   0  0  0  0  0  0  0  0  0  0  0  0
   -0.9073   -2.6615    1.4699 O   0  0  0  0  0  0  0  0  0  0  0  0
   -1.5803   -0.8195    0.3749 N   0  0  0  0  0  0  0  0  0  0  0  0
   -2.3603   -0.3345   -0.0451 H   0  0  0  0  0  0  0  0  0  0  0  0
   -0.2933   -0.1205    0.3719 C   0  0  1  0  0  0  0  0  0  0  0  0
    0.3577   -0.5843    1.1143 H   0  0  0  0  0  0  0  0  0  0  0  0
    0.3613   -0.2794   -1.0156 C   0  0  0  0  0  0  0  0  0  0  0  0
    0.5202    0.7169   -1.4316 H   0  0  0  0  0  0  0  0  0  0  0  0
    1.3347   -0.7587   -0.9015 H   0  0  0  0  0  0  0  0  0  0  0  0
   -0.4758   -1.1036   -2.0091 C   0  0  0  0  0  0  0  0  0  0  0  0
   -0.8673   -1.9935   -1.5160 H   0  0  0  0  0  0  0  0  0  0  0  0
   -1.3083   -0.4975   -2.3645 H   0  0  0  0  0  0  0  0  0  0  0  0
    0.3372   -1.5484   -3.2205 C   0  0  0  0  0  0  0  0  0  0  0  0
    1.4794   -1.1946   -3.4656 O   0  0  0  0  0  0  0  0  0  0  0  0
   -0.2923   -2.3857   -4.0656 O   0  0  0  0  0  0  0  0  0  0  0  0
    0.3387   -2.5560   -4.7671 H   0  0  0  0  0  0  0  0  0  0  0  0
   -0.4860    1.3537    0.7622 C   0  0  0  0  0  0  0  0  0  0  0  0
   -1.3956    2.0096    0.2582 O   0  0  0  0  0  0  0  0  0  0  0  0
    0.3741    1.8728    1.6466 N   0  0  0  0  0  0  0  0  0  0  0  0
    1.0814    1.2667    2.0345 H   0  0  0  0  0  0  0  0  0  0  0  0
    0.3380    3.2610    2.1024 C   0  0  0  0  0  0  0  0  0  0  0  0
   -0.6389    3.4820    2.5363 H   0  0  0  0  0  0  0  0  0  0  0  0
    1.1108    3.4337    2.8528 H   0  0  0  0  0  0  0  0  0  0  0  0
    0.5009    3.9312    1.2562 H   0  0  0  0  0  0  0  0  0  0  0  0
  5  6  2  0  0  0  0
  5  7  1  0  0  0  0
  2  3  1  0  0  0  0
  2  4  1  0  0  0  0
  2  5  1  0  0  0  0
  1  2  1  0  0  0  0
 21 22  2  0  0  0  0
 21 23  1  0  0  0  0
 19 20  1  0  0  0  0
 17 18  2  0  0  0  0
 17 19  1  0  0  0  0
 14 15  1  0  0  0  0
 14 16  1  0  0  0  0
 14 17  1  0  0  0  0
 11 12  1  0  0  0  0
 11 13  1  0  0  0  0
 11 14  1  0  0  0  0
  9 10  1  0  0  0  0
  9 11  1  0  0  0  0
  9 21  1  0  0  0  0
  7  8  1  0  0  0  0
  7  9  1  0  0  0  0
 25 26  1  0  0  0  0
 25 27  1  0  0  0  0
 25 28  1  0  0  0  0
 23 24  1  0  0  0  0
 23 25  1  0  0  0  0
M  END
$$$$
default_name
  -OEChem-02102213163D

 28 27  0     1  0  0  0  0  0999 V2000
   -3.2133   -3.5565    1.2809 H   0  0  0  0  0  0  0  0  0  0  0  0
   -3.1873   -2.5755    0.8089 C   0  0  0  0  0  0  0  0  0  0  0  0
   -3.8793   -1.9065    1.3169 H   0  0  0  0  0  0  0  0  0  0  0  0
   -3.4623   -2.6685   -0.2401 H   0  0  0  0  0  0  0  0  0  0  0  0
   -1.7863   -2.0195    0.9119 C   0  0  0  0  0  0  0  0  0  0  0  0
   -0.9073   -2.6615    1.4699 O   0  0  0  0  0  0  0  0  0  0  0  0
   -1.5803   -0.8195    0.3749 N   0  0  0  0  0  0  0  0  0  0  0  0
   -2.3603   -0.3345   -0.0451 H   0  0  0  0  0  0  0  0  0  0  0  0
   -0.2933   -0.1205    0.3719 C   0  0  1  0  0  0  0  0  0  0  0  0
    0.3577   -0.5843    1.1143 H   0  0  0  0  0  0  0  0  0  0  0  0
    0.3613   -0.2794   -1.0156 C   0  0  0  0  0  0  0  0  0  0  0  0
    0.5202    0.7169   -1.4316 H   0  0  0  0  0  0  0  0  0  0  0  0
    1.3347   -0.7587   -0.9015 H   0  0  0  0  0  0  0  0  0  0  0  0
   -0.4758   -1.1036   -2.0091 C   0  0  0  0  0  0  0  0  0  0  0  0
   -1.0779   -1.8351   -1.4699 H   0  0  0  0  0  0  0  0  0  0  0  0
   -1.1360   -0.4356   -2.5610 H   0  0  0  0  0  0  0  0  0  0  0  0
    0.3924   -1.8503   -3.0166 C   0  0  0  0  0  0  0  0  0  0  0  0
    1.6009   -1.7220   -3.1305 O   0  0  0  0  0  0  0  0  0  0  0  0
   -0.2632   -2.6973   -3.8316 O   0  0  0  0  0  0  0  0  0  0  0  0
    0.4114   -3.0696   -4.4022 H   0  0  0  0  0  0  0  0  0  0  0  0
   -0.4860    1.3537    0.7622 C   0  0  0  0  0  0  0  0  0  0  0  0
   -1.3956    2.0096    0.2582 O   0  0  0  0  0  0  0  0  0  0  0  0
    0.3741    1.8728    1.6466 N   0  0  0  0  0  0  0  0  0  0  0  0
    1.0814    1.2667    2.0345 H   0  0  0  0  0  0  0  0  0  0  0  0
    0.3380    3.2610    2.1024 C   0  0  0  0  0  0  0  0  0  0  0  0
   -0.6389    3.4820    2.5363 H   0  0  0  0  0  0  0  0  0  0  0  0
    1.1108    3.4337    2.8528 H   0  0  0  0  0  0  0  0  0  0  0  0
    0.5009    3.9312    1.2562 H   0  0  0  0  0  0  0  0  0  0  0  0
  5  6  2  0  0  0  0
  5  7  1  0  0  0  0
  2  3  1  0  0  0  0
  2  4  1  0  0  0  0
  2  5  1  0  0  0  0
  1  2  1  0  0  0  0
 21 22  2  0  0  0  0
 21 23  1  0  0  0  0
 19 20  1  0  0  0  0
 17 18  2  0  0  0  0
 17 19  1  0  0  0  0
 14 15  1  0  0  0  0
 14 16  1  0  0  0  0
 14 17  1  0  0  0  0
 11 12  1  0  0  0  0
 11 13  1  0  0  0  0
 11 14  1  0  0  0  0
  9 10  1  0  0  0  0
  9 11  1  0  0  0  0
  9 21  1  0  0  0  0
  7  8  1  0  0  0  0
  7  9  1  0  0  0  0
 25 26  1  0  0  0  0
 25 27  1  0  0  0  0
 25 28  1  0  0  0  0
 23 24  1  0  0  0  0
 23 25  1  0  0  0  0
M  END
$$$$
default_name
  -OEChem-02102213163D

 28 27  0     1  0  0  0  0  0999 V2000
   -3.2133   -3.5565    1.2809 H   0  0  0  0  0  0  0  0  0  0  0  0
   -3.1873   -2.5755    0.8089 C   0  0  0  0  0  0  0  0  0  0  0  0
   -3.8793   -1.9065    1.3169 H   0  0  0  0  0  0  0  0  0  0  0  0
   -3.4623   -2.6685   -0.2401 H   0  0  0  0  0  0  0  0  0  0  0  0
   -1.7863   -2.0195    0.9119 C   0  0  0  0  0  0  0  0  0  0  0  0
   -0.9073   -2.6615    1.4699 O   0  0  0  0  0  0  0  0  0  0  0  0
   -1.5803   -0.8195    0.3749 N   0  0  0  0  0  0  0  0  0  0  0  0
   -2.3603   -0.3345   -0.0451 H   0  0  0  0  0  0  0  0  0  0  0  0
   -0.2933   -0.1205    0.3719 C   0  0  1  0  0  0  0  0  0  0  0  0
    0.3577   -0.5843    1.1143 H   0  0  0  0  0  0  0  0  0  0  0  0
    0.3613   -0.2794   -1.0156 C   0  0  0  0  0  0  0  0  0  0  0  0
    0.5202    0.7169   -1.4316 H   0  0  0  0  0  0  0  0  0  0  0  0
    1.3347   -0.7587   -0.9015 H   0  0  0  0  0  0  0  0  0  0  0  0
   -0.4758   -1.1036   -2.0091 C   0  0  0  0  0  0  0  0  0  0  0  0
   -1.2613   -1.6403   -1.4769 H   0  0  0  0  0  0  0  0  0  0  0  0
   -0.9320   -0.4323   -2.7357 H   0  0  0  0  0  0  0  0  0  0  0  0
    0.3670   -2.1224   -2.7694 C   0  0  0  0  0  0  0  0  0  0  0  0
    1.5837   -2.2046   -2.7156 O   0  0  0  0  0  0  0  0  0  0  0  0
   -0.3196   -2.9701   -3.5578 O   0  0  0  0  0  0  0  0  0  0  0  0
    0.3451   -3.5266   -3.9673 H   0  0  0  0  0  0  0  0  0  0  0  0
   -0.4860    1.3537    0.7622 C   0  0  0  0  0  0  0  0  0  0  0  0
   -1.3956    2.0096    0.2582 O   0  0  0  0  0  0  0  0  0  0  0  0
    0.3741    1.8728    1.6466 N   0  0  0  0  0  0  0  0  0  0  0  0
    1.0814    1.2667    2.0345 H   0  0  0  0  0  0  0  0  0  0  0  0
    0.3380    3.2610    2.1024 C   0  0  0  0  0  0  0  0  0  0  0  0
   -0.6389    3.4820    2.5363 H   0  0  0  0  0  0  0  0  0  0  0  0
    1.1108    3.4337    2.8528 H   0  0  0  0  0  0  0  0  0  0  0  0
    0.5009    3.9312    1.2562 H   0  0  0  0  0  0  0  0  0  0  0  0
  5  6  2  0  0  0  0
  5  7  1  0  0  0  0
  2  3  1  0  0  0  0
  2  4  1  0  0  0  0
  2  5  1  0  0  0  0
  1  2  1  0  0  0  0
 21 22  2  0  0  0  0
 21 23  1  0  0  0  0
 19 20  1  0  0  0  0
 17 18  2  0  0  0  0
 17 19  1  0  0  0  0
 14 15  1  0  0  0  0
 14 16  1  0  0  0  0
 14 17  1  0  0  0  0
 11 12  1  0  0  0  0
 11 13  1  0  0  0  0
 11 14  1  0  0  0  0
  9 10  1  0  0  0  0
  9 11  1  0  0  0  0
  9 21  1  0  0  0  0
  7  8  1  0  0  0  0
  7  9  1  0  0  0  0
 25 26  1  0  0  0  0
 25 27  1  0  0  0  0
 25 28  1  0  0  0  0
 23 24  1  0  0  0  0
 23 25  1  0  0  0  0
M  END
$$$$
default_name
  -OEChem-02102213163D

 28 27  0     1  0  0  0  0  0999 V2000
   -3.2133   -3.5565    1.2809 H   0  0  0  0  0  0  0  0  0  0  0  0
   -3.1873   -2.5755    0.8089 C   0  0  0  0  0  0  0  0  0  0  0  0
   -3.8793   -1.9065    1.3169 H   0  0  0  0  0  0  0  0  0  0  0  0
   -3.4623   -2.6685   -0.2401 H   0  0  0  0  0  0  0  0  0  0  0  0
   -1.7863   -2.0195    0.9119 C   0  0  0  0  0  0  0  0  0  0  0  0
   -0.9073   -2.6615    1.4699 O   0  0  0  0  0  0  0  0  0  0  0  0
   -1.5803   -0.8195    0.3749 N   0  0  0  0  0  0  0  0  0  0  0  0
   -2.3603   -0.3345   -0.0451 H   0  0  0  0  0  0  0  0  0  0  0  0
   -0.2933   -0.1205    0.3719 C   0  0  1  0  0  0  0  0  0  0  0  0
    0.3577   -0.5843    1.1143 H   0  0  0  0  0  0  0  0  0  0  0  0
    0.3613   -0.2794   -1.0156 C   0  0  0  0  0  0  0  0  0  0  0  0
    0.5202    0.7169   -1.4316 H   0  0  0  0  0  0  0  0  0  0  0  0
    1.3347   -0.7587   -0.9015 H   0  0  0  0  0  0  0  0  0  0  0  0
   -0.4758   -1.1036   -2.0091 C   0  0  0  0  0  0  0  0  0  0  0  0
   -1.4049   -1.4226   -1.5365 H   0  0  0  0  0  0  0  0  0  0  0  0
   -0.7102   -0.4878   -2.8766 H   0  0  0  0  0  0  0  0  0  0  0  0
    0.2627   -2.3462   -2.4959 C   0  0  0  0  0  0  0  0  0  0  0  0
    1.4288   -2.6094   -2.2493 O   0  0  0  0  0  0  0  0  0  0  0  0
   -0.4577   -3.1857   -3.2626 O   0  0  0  0  0  0  0  0  0  0  0  0
    0.1445   -3.8956   -3.4921 H   0  0  0  0  0  0  0  0  0  0  0  0
   -0.4860    1.3537    0.7622 C   0  0  0  0  0  0  0  0  0  0  0  0
   -1.3956    2.0096    0.2582 O   0  0  0  0  0  0  0  0  0  0  0  0
    0.3741    1.8728    1.6466 N   0  0  0  0  0  0  0  0  0  0  0  0
    1.0814    1.2667    2.0345 H   0  0  0  0  0  0  0  0  0  0  0  0
    0.3380    3.2610    2.1024 C   0  0  0  0  0  0  0  0  0  0  0  0
   -0.6389    3.4820    2.5363 H   0  0  0  0  0  0  0  0  0  0  0  0
    1.1108    3.4337    2.8528 H   0  0  0  0  0  0  0  0  0  0  0  0
    0.5009    3.9312    1.2562 H   0  0  0  0  0  0  0  0  0  0  0  0
  5  6  2  0  0  0  0
  5  7  1  0  0  0  0
  2  3  1  0  0  0  0
  2  4  1  0  0  0  0
  2  5  1  0  0  0  0
  1  2  1  0  0  0  0
 21 22  2  0  0  0  0
 21 23  1  0  0  0  0
 19 20  1  0  0  0  0
 17 18  2  0  0  0  0
 17 19  1  0  0  0  0
 14 15  1  0  0  0  0
 14 16  1  0  0  0  0
 14 17  1  0  0  0  0
 11 12  1  0  0  0  0
 11 13  1  0  0  0  0
 11 14  1  0  0  0  0
  9 10  1  0  0  0  0
  9 11  1  0  0  0  0
  9 21  1  0  0  0  0
  7  8  1  0  0  0  0
  7  9  1  0  0  0  0
 25 26  1  0  0  0  0
 25 27  1  0  0  0  0
 25 28  1  0  0  0  0
 23 24  1  0  0  0  0
 23 25  1  0  0  0  0
M  END
$$$$
default_name
  -OEChem-02102213163D

 28 27  0     1  0  0  0  0  0999 V2000
   -3.2133   -3.5565    1.2809 H   0  0  0  0  0  0  0  0  0  0  0  0
   -3.1873   -2.5755    0.8089 C   0  0  0  0  0  0  0  0  0  0  0  0
   -3.8793   -1.9065    1.3169 H   0  0  0  0  0  0  0  0  0  0  0  0
   -3.4623   -2.6685   -0.2401 H   0  0  0  0  0  0  0  0  0  0  0  0
   -1.7863   -2.0195    0.9119 C   0  0  0  0  0  0  0  0  0  0  0  0
   -0.9073   -2.6615    1.4699 O   0  0  0  0  0  0  0  0  0  0  0  0
   -1.5803   -0.8195    0.3749 N   0  0  0  0  0  0  0  0  0  0  0  0
   -2.3603   -0.3345   -0.0451 H   0  0  0  0  0  0  0  0  0  0  0  0
   -0.2933   -0.1205    0.3719 C   0  0  1  0  0  0  0  0  0  0  0  0
    0.3577   -0.5843    1.1143 H   0  0  0  0  0  0  0  0  0  0  0  0
    0.3613   -0.2794   -1.0156 C   0  0  0  0  0  0  0  0  0  0  0  0
    0.5202    0.7169   -1.4316 H   0  0  0  0  0  0  0  0  0  0  0  0
    1.3347   -0.7587   -0.9015 H   0  0  0  0  0  0  0  0  0  0  0  0
   -0.4758   -1.1036   -2.0091 C   0  0  0  0  0  0  0  0  0  0  0  0
   -1.4990   -1.1967   -1.6447 H   0  0  0  0  0  0  0  0  0  0  0  0
   -0.4856   -0.5983   -2.9741 H   0  0  0  0  0  0  0  0  0  0  0  0
    0.0867   -2.5064   -2.2147 C   0  0  0  0  0  0  0  0  0  0  0  0
    1.1469   -2.9089   -1.7634 O   0  0  0  0  0  0  0  0  0  0  0  0
   -0.6680   -3.3292   -2.9663 O   0  0  0  0  0  0  0  0  0  0  0  0
   -0.1769   -4.1516   -3.0090 H   0  0  0  0  0  0  0  0  0  0  0  0
   -0.4860    1.3537    0.7622 C   0  0  0  0  0  0  0  0  0  0  0  0
   -1.3956    2.0096    0.2582 O   0  0  0  0  0  0  0  0  0  0  0  0
    0.3741    1.8728    1.6466 N   0  0  0  0  0  0  0  0  0  0  0  0
    1.0814    1.2667    2.0345 H   0  0  0  0  0  0  0  0  0  0  0  0
    0.3380    3.2610    2.1024 C   0  0  0  0  0  0  0  0  0  0  0  0
   -0.6389    3.4820    2.5363 H   0  0  0  0  0  0  0  0  0  0  0  0
    1.1108    3.4337    2.8528 H   0  0  0  0  0  0  0  0  0  0  0  0
    0.5009    3.9312    1.2562 H   0  0  0  0  0  0  0  0  0  0  0  0
  5  6  2  0  0  0  0
  5  7  1  0  0  0  0
  2  3  1  0  0  0  0
  2  4  1  0  0  0  0
  2  5  1  0  0  0  0
  1  2  1  0  0  0  0
 21 22  2  0  0  0  0
 21 23  1  0  0  0  0
 19 20  1  0  0  0  0
 17 18  2  0  0  0  0
 17 19  1  0  0  0  0
 14 15  1  0  0  0  0
 14 16  1  0  0  0  0
 14 17  1  0  0  0  0
 11 12  1  0  0  0  0
 11 13  1  0  0  0  0
 11 14  1  0  0  0  0
  9 10  1  0  0  0  0
  9 11  1  0  0  0  0
  9 21  1  0  0  0  0
  7  8  1  0  0  0  0
  7  9  1  0  0  0  0
 25 26  1  0  0  0  0
 25 27  1  0  0  0  0
 25 28  1  0  0  0  0
 23 24  1  0  0  0  0
 23 25  1  0  0  0  0
M  END
$$$$
default_name
  -OEChem-02102213163D

 28 27  0     1  0  0  0  0  0999 V2000
   -3.2133   -3.5565    1.2809 H   0  0  0  0  0  0  0  0  0  0  0  0
   -3.1873   -2.5755    0.8089 C   0  0  0  0  0  0  0  0  0  0  0  0
   -3.8793   -1.9065    1.3169 H   0  0  0  0  0  0  0  0  0  0  0  0
   -3.4623   -2.6685   -0.2401 H   0  0  0  0  0  0  0  0  0  0  0  0
   -1.7863   -2.0195    0.9119 C   0  0  0  0  0  0  0  0  0  0  0  0
   -0.9073   -2.6615    1.4699 O   0  0  0  0  0  0  0  0  0  0  0  0
   -1.5803   -0.8195    0.3749 N   0  0  0  0  0  0  0  0  0  0  0  0
   -2.3603   -0.3345   -0.0451 H   0  0  0  0  0  0  0  0  0  0  0  0
   -0.2933   -0.1205    0.3719 C   0  0  1  0  0  0  0  0  0  0  0  0
    0.3577   -0.5843    1.1143 H   0  0  0  0  0  0  0  0  0  0  0  0
    0.3613   -0.2794   -1.0156 C   0  0  0  0  0  0  0  0  0  0  0  0
    0.5202    0.7169   -1.4316 H   0  0  0  0  0  0  0  0  0  0  0  0
    1.3347   -0.7587   -0.9015 H   0  0  0  0  0  0  0  0  0  0  0  0
   -0.4758   -1.1036   -2.0091 C   0  0  0  0  0  0  0  0  0  0  0  0
   -1.5371   -0.9780   -1.7940 H   0  0  0  0  0  0  0  0  0  0  0  0
   -0.2737   -0.7563   -3.0216 H   0  0  0  0  0  0  0  0  0  0  0  0
   -0.1492   -2.5921   -1.9449 C   0  0  0  0  0  0  0  0  0  0  0  0
    0.7572   -3.0827   -1.2909 O   0  0  0  0  0  0  0  0  0  0  0  0
   -0.9362   -3.3910   -2.6891 O   0  0  0  0  0  0  0  0  0  0  0  0
   -0.5971   -4.2771   -2.5508 H   0  0  0  0  0  0  0  0  0  0  0  0
   -0.4860    1.3537    0.7622 C   0  0  0  0  0  0  0  0  0  0  0  0
   -1.3956    2.0096    0.2582 O   0  0  0  0  0  0  0  0  0  0  0  0
    0.3741    1.8728    1.6466 N   0  0  0  0  0  0  0  0  0  0  0  0
    1.0814    1.2667    2.0345 H   0  0  0  0  0  0  0  0  0  0  0  0
    0.3380    3.2610    2.1024 C   0  0  0  0  0  0  0  0  0  0  0  0
   -0.6389    3.4820    2.5363 H   0  0  0  0  0  0  0  0  0  0  0  0
    1.1108    3.4337    2.8528 H   0  0  0  0  0  0  0  0  0  0  0  0
    0.5009    3.9312    1.2562 H   0  0  0  0  0  0  0  0  0  0  0  0
  5  6  2  0  0  0  0
  5  7  1  0  0  0  0
  2  3  1  0  0  0  0
  2  4  1  0  0  0  0
  2  5  1  0  0  0  0
  1  2  1  0  0  0  0
 21 22  2  0  0  0  0
 21 23  1  0  0  0  0
 19 20  1  0  0  0  0
 17 18  2  0  0  0  0
 17 19  1  0  0  0  0
 14 15  1  0  0  0  0
 14 16  1  0  0  0  0
 14 17  1  0  0  0  0
 11 12  1  0  0  0  0
 11 13  1  0  0  0  0
 11 14  1  0  0  0  0
  9 10  1  0  0  0  0
  9 11  1  0  0  0  0
  9 21  1  0  0  0  0
  7  8  1  0  0  0  0
  7  9  1  0  0  0  0
 25 26  1  0  0  0  0
 25 27  1  0  0  0  0
 25 28  1  0  0  0  0
 23 24  1  0  0  0  0
 23 25  1  0  0  0  0
M  END
$$$$
default_name
  -OEChem-02102213163D

 28 27  0     1  0  0  0  0  0999 V2000
   -3.2133   -3.5565    1.2809 H   0  0  0  0  0  0  0  0  0  0  0  0
   -3.1873   -2.5755    0.8089 C   0  0  0  0  0  0  0  0  0  0  0  0
   -3.8793   -1.9065    1.3169 H   0  0  0  0  0  0  0  0  0  0  0  0
   -3.4623   -2.6685   -0.2401 H   0  0  0  0  0  0  0  0  0  0  0  0
   -1.7863   -2.0195    0.9119 C   0  0  0  0  0  0  0  0  0  0  0  0
   -0.9073   -2.6615    1.4699 O   0  0  0  0  0  0  0  0  0  0  0  0
   -1.5803   -0.8195    0.3749 N   0  0  0  0  0  0  0  0  0  0  0  0
   -2.3603   -0.3345   -0.0451 H   0  0  0  0  0  0  0  0  0  0  0  0
   -0.2933   -0.1205    0.3719 C   0  0  1  0  0  0  0  0  0  0  0  0
    0.3577   -0.5843    1.1143 H   0  0  0  0  0  0  0  0  0  0  0  0
    0.3613   -0.2794   -1.0156 C   0  0  0  0  0  0  0  0  0  0  0  0
    0.5202    0.7169   -1.4316 H   0  0  0  0  0  0  0  0  0  0  0  0
    1.3347   -0.7587   -0.9015 H   0  0  0  0  0  0  0  0  0  0  0  0
   -0.4758   -1.1036   -2.0091 C   0  0  0  0  0  0  0  0  0  0  0  0
   -1.5166   -0.7814   -1.9743 H   0  0  0  0  0  0  0  0  0  0  0  0
   -0.0888   -0.9510   -3.0159 H   0  0  0  0  0  0  0  0  0  0  0  0
   -0.4287   -2.5975   -1.7049 C   0  0  0  0  0  0  0  0  0  0  0  0
    0.2862   -3.1188   -0.8641 O   0  0  0  0  0  0  0  0  0  0  0  0
   -1.2440   -3.3669   -2.4498 O   0  0  0  0  0  0  0  0  0  0  0  0
   -1.0875   -4.2636   -2.1488 H   0  0  0  0  0  0  0  0  0  0  0  0
   -0.4860    1.3537    0.7622 C   0  0  0  0  0  0  0  0  0  0  0  0
   -1.3956    2.0096    0.2582 O   0  0  0  0  0  0  0  0  0  0  0  0
    0.3741    1.8728    1.6466 N   0  0  0  0  0  0  0  0  0  0  0  0
    1.0814    1.2667    2.0345 H   0  0  0  0  0  0  0  0  0  0  0  0
    0.3380    3.2610    2.1024 C   0  0  0  0  0  0  0  0  0  0  0  0
   -0.6389    3.4820    2.5363 H   0  0  0  0  0  0  0  0  0  0  0  0
    1.1108    3.4337    2.8528 H   0  0  0  0  0  0  0  0  0  0  0  0
    0.5009    3.9312    1.2562 H   0  0  0  0  0  0  0  0  0  0  0  0
  5  6  2  0  0  0  0
  5  7  1  0  0  0  0
  2  3  1  0  0  0  0
  2  4  1  0  0  0  0
  2  5  1  0  0  0  0
  1  2  1  0  0  0  0
 21 22  2  0  0  0  0
 21 23  1  0  0  0  0
 19 20  1  0  0  0  0
 17 18  2  0  0  0  0
 17 19  1  0  0  0  0
 14 15  1  0  0  0  0
 14 16  1  0  0  0  0
 14 17  1  0  0  0  0
 11 12  1  0  0  0  0
 11 13  1  0  0  0  0
 11 14  1  0  0  0  0
  9 10  1  0  0  0  0
  9 11  1  0  0  0  0
  9 21  1  0  0  0  0
  7  8  1  0  0  0  0
  7  9  1  0  0  0  0
 25 26  1  0  0  0  0
 25 27  1  0  0  0  0
 25 28  1  0  0  0  0
 23 24  1  0  0  0  0
 23 25  1  0  0  0  0
M  END
$$$$
default_name
  -OEChem-02102213163D

 28 27  0     1  0  0  0  0  0999 V2000
   -3.2133   -3.5565    1.2809 H   0  0  0  0  0  0  0  0  0  0  0  0
   -3.1873   -2.5755    0.8089 C   0  0  0  0  0  0  0  0  0  0  0  0
   -3.8793   -1.9065    1.3169 H   0  0  0  0  0  0  0  0  0  0  0  0
   -3.4623   -2.6685   -0.2401 H   0  0  0  0  0  0  0  0  0  0  0  0
   -1.7863   -2.0195    0.9119 C   0  0  0  0  0  0  0  0  0  0  0  0
   -0.9073   -2.6615    1.4699 O   0  0  0  0  0  0  0  0  0  0  0  0
   -1.5803   -0.8195    0.3749 N   0  0  0  0  0  0  0  0  0  0  0  0
   -2.3603   -0.3345   -0.0451 H   0  0  0  0  0  0  0  0  0  0  0  0
   -0.2933   -0.1205    0.3719 C   0  0  1  0  0  0  0  0  0  0  0  0
    0.3577   -0.5843    1.1143 H   0  0  0  0  0  0  0  0  0  0  0  0
    0.3613   -0.2794   -1.0156 C   0  0  0  0  0  0  0  0  0  0  0  0
    0.5202    0.7169   -1.4316 H   0  0  0  0  0  0  0  0  0  0  0  0
    1.3347   -0.7587   -0.9015 H   0  0  0  0  0  0  0  0  0  0  0  0
   -0.4758   -1.1036   -2.0091 C   0  0  0  0  0  0  0  0  0  0  0  0
   -1.4390   -0.6203   -2.1734 H   0  0  0  0  0  0  0  0  0  0  0  0
    0.0565   -1.1692   -2.9572 H   0  0  0  0  0  0  0  0  0  0  0  0
   -0.7329   -2.5222   -1.5110 C   0  0  0  0  0  0  0  0  0  0  0  0
   -0.2339   -3.0149   -0.5120 O   0  0  0  0  0  0  0  0  0  0  0  0
   -1.5705   -3.2584   -2.2647 O   0  0  0  0  0  0  0  0  0  0  0  0
   -1.6147   -4.1120   -1.8304 H   0  0  0  0  0  0  0  0  0  0  0  0
   -0.4860    1.3537    0.7622 C   0  0  0  0  0  0  0  0  0  0  0  0
   -1.3956    2.0096    0.2582 O   0  0  0  0  0  0  0  0  0  0  0  0
    0.3741    1.8728    1.6466 N   0  0  0  0  0  0  0  0  0  0  0  0
    1.0814    1.2667    2.0345 H   0  0  0  0  0  0  0  0  0  0  0  0
    0.3380    3.2610    2.1024 C   0  0  0  0  0  0  0  0  0  0  0  0
   -0.6389    3.4820    2.5363 H   0  0  0  0  0  0  0  0  0  0  0  0
    1.1108    3.4337    2.8528 H   0  0  0  0  0  0  0  0  0  0  0  0
    0.5009    3.9312    1.2562 H   0  0  0  0  0  0  0  0  0  0  0  0
  5  6  2  0  0  0  0
  5  7  1  0  0  0  0
  2  3  1  0  0  0  0
  2  4  1  0  0  0  0
  2  5  1  0  0  0  0
  1  2  1  0  0  0  0
 21 22  2  0  0  0  0
 21 23  1  0  0  0  0
 19 20  1  0  0  0  0
 17 18  2  0  0  0  0
 17 19  1  0  0  0  0
 14 15  1  0  0  0  0
 14 16  1  0  0  0  0
 14 17  1  0  0  0  0
 11 12  1  0  0  0  0
 11 13  1  0  0  0  0
 11 14  1  0  0  0  0
  9 10  1  0  0  0  0
  9 11  1  0  0  0  0
  9 21  1  0  0  0  0
  7  8  1  0  0  0  0
  7  9  1  0  0  0  0
 25 26  1  0  0  0  0
 25 27  1  0  0  0  0
 25 28  1  0  0  0  0
 23 24  1  0  0  0  0
 23 25  1  0  0  0  0
M  END
$$$$
default_name
  -OEChem-02102213163D

 28 27  0     1  0  0  0  0  0999 V2000
   -3.2133   -3.5565    1.2809 H   0  0  0  0  0  0  0  0  0  0  0  0
   -3.1873   -2.5755    0.8089 C   0  0  0  0  0  0  0  0  0  0  0  0
   -3.8793   -1.9065    1.3169 H   0  0  0  0  0  0  0  0  0  0  0  0
   -3.4623   -2.6685   -0.2401 H   0  0  0  0  0  0  0  0  0  0  0  0
   -1.7863   -2.0195    0.9119 C   0  0  0  0  0  0  0  0  0  0  0  0
   -0.9073   -2.6615    1.4699 O   0  0  0  0  0  0  0  0  0  0  0  0
   -1.5803   -0.8195    0.3749 N   0  0  0  0  0  0  0  0  0  0  0  0
   -2.3603   -0.3345   -0.0451 H   0  0  0  0  0  0  0  0  0  0  0  0
   -0.2933   -0.1205    0.3719 C   0  0  1  0  0  0  0  0  0  0  0  0
    0.3577   -0.5843    1.1143 H   0  0  0  0  0  0  0  0  0  0  0  0
    0.3613   -0.2794   -1.0156 C   0  0  0  0  0  0  0  0  0  0  0  0
    0.5202    0.7169   -1.4316 H   0  0  0  0  0  0  0  0  0  0  0  0
    1.3347   -0.7587   -0.9015 H   0  0  0  0  0  0  0  0  0  0  0  0
   -0.4758   -1.1036   -2.0091 C   0  0  0  0  0  0  0  0  0  0  0  0
   -1.3095   -0.5057   -2.3775 H   0  0  0  0  0  0  0  0  0  0  0  0
    0.1522   -1.3960   -2.8498 H   0  0  0  0  0  0  0  0  0  0  0  0
   -1.0410   -2.3713   -1.3766 C   0  0  0  0  0  0  0  0  0  0  0  0
   -0.7678   -2.7780   -0.2587 O   0  0  0  0  0  0  0  0  0  0  0  0
   -1.8934   -3.0729   -2.1464 O   0  0  0  0  0  0  0  0  0  0  0  0
   -2.1427   -3.8326   -1.6173 H   0  0  0  0  0  0  0  0  0  0  0  0
   -0.4860    1.3537    0.7622 C   0  0  0  0  0  0  0  0  0  0  0  0
   -1.3956    2.0096    0.2582 O   0  0  0  0  0  0  0  0  0  0  0  0
    0.3741    1.8728    1.6466 N   0  0  0  0  0  0  0  0  0  0  0  0
    1.0814    1.2667    2.0345 H   0  0  0  0  0  0  0  0  0  0  0  0
    0.3380    3.2610    2.1024 C   0  0  0  0  0  0  0  0  0  0  0  0
   -0.6389    3.4820    2.5363 H   0  0  0  0  0  0  0  0  0  0  0  0
    1.1108    3.4337    2.8528 H   0  0  0  0  0  0  0  0  0  0  0  0
    0.5009    3.9312    1.2562 H   0  0  0  0  0  0  0  0  0  0  0  0
  5  6  2  0  0  0  0
  5  7  1  0  0  0  0
  2  3  1  0  0  0  0
  2  4  1  0  0  0  0
  2  5  1  0  0  0  0
  1  2  1  0  0  0  0
 21 22  2  0  0  0  0
 21 23  1  0  0  0  0
 19 20  1  0  0  0  0
 17 18  2  0  0  0  0
 17 19  1  0  0  0  0
 14 15  1  0  0  0  0
 14 16  1  0  0  0  0
 14 17  1  0  0  0  0
 11 12  1  0  0  0  0
 11 13  1  0  0  0  0
 11 14  1  0  0  0  0
  9 10  1  0  0  0  0
  9 11  1  0  0  0  0
  9 21  1  0  0  0  0
  7  8  1  0  0  0  0
  7  9  1  0  0  0  0
 25 26  1  0  0  0  0
 25 27  1  0  0  0  0
 25 28  1  0  0  0  0
 23 24  1  0  0  0  0
 23 25  1  0  0  0  0
M  END
$$$$
default_name
  -OEChem-02102213163D

 28 27  0     1  0  0  0  0  0999 V2000
   -3.2133   -3.5565    1.2809 H   0  0  0  0  0  0  0  0  0  0  0  0
   -3.1873   -2.5755    0.8089 C   0  0  0  0  0  0  0  0  0  0  0  0
   -3.8793   -1.9065    1.3169 H   0  0  0  0  0  0  0  0  0  0  0  0
   -3.4623   -2.6685   -0.2401 H   0  0  0  0  0  0  0  0  0  0  0  0
   -1.7863   -2.0195    0.9119 C   0  0  0  0  0  0  0  0  0  0  0  0
   -0.9073   -2.6615    1.4699 O   0  0  0  0  0  0  0  0  0  0  0  0
   -1.5803   -0.8195    0.3749 N   0  0  0  0  0  0  0  0  0  0  0  0
   -2.3603   -0.3345   -0.0451 H   0  0  0  0  0  0  0  0  0  0  0  0
   -0.2933   -0.1205    0.3719 C   0  0  1  0  0  0  0  0  0  0  0  0
    0.3577   -0.5843    1.1143 H   0  0  0  0  0  0  0  0  0  0  0  0
    0.3613   -0.2794   -1.0156 C   0  0  0  0  0  0  0  0  0  0  0  0
    0.5202    0.7169   -1.4316 H   0  0  0  0  0  0  0  0  0  0  0  0
    1.3347   -0.7587   -0.9015 H   0  0  0  0  0  0  0  0  0  0  0  0
   -0.4758   -1.1036   -2.0091 C   0  0  0  0  0  0  0  0  0  0  0  0
   -1.1370   -0.4454   -2.5729 H   0  0  0  0  0  0  0  0  0  0  0  0
    0.1919   -1.6160   -2.7007 H   0  0  0  0  0  0  0  0  0  0  0  0
   -1.3320   -2.1551   -1.3107 C   0  0  0  0  0  0  0  0  0  0  0  0
   -1.2790   -2.4243   -0.1214 O   0  0  0  0  0  0  0  0  0  0  0  0
   -2.1907   -2.8232   -2.1031 O   0  0  0  0  0  0  0  0  0  0  0  0
   -2.6355   -3.4445   -1.5240 H   0  0  0  0  0  0  0  0  0  0  0  0
   -0.4860    1.3537    0.7622 C   0  0  0  0  0  0  0  0  0  0  0  0
   -1.3956    2.0096    0.2582 O   0  0  0  0  0  0  0  0  0  0  0  0
    0.3741    1.8728    1.6466 N   0  0  0  0  0  0  0  0  0  0  0  0
    1.0814    1.2667    2.0345 H   0  0  0  0  0  0  0  0  0  0  0  0
    0.3380    3.2610    2.1024 C   0  0  0  0  0  0  0  0  0  0  0  0
   -0.6389    3.4820    2.5363 H   0  0  0  0  0  0  0  0  0  0  0  0
    1.1108    3.4337    2.8528 H   0  0  0  0  0  0  0  0  0  0  0  0
    0.5009    3.9312    1.2562 H   0  0  0  0  0  0  0  0  0  0  0  0
  5  6  2  0  0  0  0
  5  7  1  0  0  0  0
  2  3  1  0  0  0  0
  2  4  1  0  0  0  0
  2  5  1  0  0  0  0
  1  2  1  0  0  0  0
 21 22  2  0  0  0  0
 21 23  1  0  0  0  0
 19 20  1  0  0  0  0
 17 18  2  0  0  0  0
 17 19  1  0  0  0  0
 14 15  1  0  0  0  0
 14 16  1  0  0  0  0
 14 17  1  0  0  0  0
 11 12  1  0  0  0  0
 11 13  1  0  0  0  0
 11 14  1  0  0  0  0
  9 10  1  0  0  0  0
  9 11  1  0  0  0  0
  9 21  1  0  0  0  0
  7  8  1  0  0  0  0
  7  9  1  0  0  0  0
 25 26  1  0  0  0  0
 25 27  1  0  0  0  0
 25 28  1  0  0  0  0
 23 24  1  0  0  0  0
 23 25  1  0  0  0  0
M  END
$$$$
default_name
  -OEChem-02102213163D

 28 27  0     1  0  0  0  0  0999 V2000
   -3.2133   -3.5565    1.2809 H   0  0  0  0  0  0  0  0  0  0  0  0
   -3.1873   -2.5755    0.8089 C   0  0  0  0  0  0  0  0  0  0  0  0
   -3.8793   -1.9065    1.3169 H   0  0  0  0  0  0  0  0  0  0  0  0
   -3.4623   -2.6685   -0.2401 H   0  0  0  0  0  0  0  0  0  0  0  0
   -1.7863   -2.0195    0.9119 C   0  0  0  0  0  0  0  0  0  0  0  0
   -0.9073   -2.6615    1.4699 O   0  0  0  0  0  0  0  0  0  0  0  0
   -1.5803   -0.8195    0.3749 N   0  0  0  0  0  0  0  0  0  0  0  0
   -2.3603   -0.3345   -0.0451 H   0  0  0  0  0  0  0  0  0  0  0  0
   -0.2933   -0.1205    0.3719 C   0  0  1  0  0  0  0  0  0  0  0  0
    0.3577   -0.5843    1.1143 H   0  0  0  0  0  0  0  0  0  0  0  0
    0.3613   -0.2794   -1.0156 C   0  0  0  0  0  0  0  0  0  0  0  0
    0.5202    0.7169   -1.4316 H   0  0  0  0  0  0  0  0  0  0  0  0
    1.3347   -0.7587   -0.9015 H   0  0  0  0  0  0  0  0  0  0  0  0
   -0.4758   -1.1036   -2.0091 C   0  0  0  0  0  0  0  0  0  0  0  0
   -0.9331   -0.4435   -2.7462 H   0  0  0  0  0  0  0  0  0  0  0  0
    0.1727   -1.8140   -2.5203 H   0  0  0  0  0  0  0  0  0  0  0  0
   -1.5861   -1.8884   -1.3179 C   0  0  0  0  0  0  0  0  0  0  0  0
   -1.7327   -1.9779   -0.1094 O   0  0  0  0  0  0  0  0  0  0  0  0
   -2.4422   -2.5262   -2.1377 O   0  0  0  0  0  0  0  0  0  0  0  0
   -3.0597   -2.9741   -1.5569 H   0  0  0  0  0  0  0  0  0  0  0  0
   -0.4860    1.3537    0.7622 C   0  0  0  0  0  0  0  0  0  0  0  0
   -1.3956    2.0096    0.2582 O   0  0  0  0  0  0  0  0  0  0  0  0
    0.3741    1.8728    1.6466 N   0  0  0  0  0  0  0  0  0  0  0  0
    1.0814    1.2667    2.0345 H   0  0  0  0  0  0  0  0  0  0  0  0
    0.3380    3.2610    2.1024 C   0  0  0  0  0  0  0  0  0  0  0  0
   -0.6389    3.4820    2.5363 H   0  0  0  0  0  0  0  0  0  0  0  0
    1.1108    3.4337    2.8528 H   0  0  0  0  0  0  0  0  0  0  0  0
    0.5009    3.9312    1.2562 H   0  0  0  0  0  0  0  0  0  0  0  0
  5  6  2  0  0  0  0
  5  7  1  0  0  0  0
  2  3  1  0  0  0  0
  2  4  1  0  0  0  0
  2  5  1  0  0  0  0
  1  2  1  0  0  0  0
 21 22  2  0  0  0  0
 21 23  1  0  0  0  0
 19 20  1  0  0  0  0
 17 18  2  0  0  0  0
 17 19  1  0  0  0  0
 14 15  1  0  0  0  0
 14 16  1  0  0  0  0
 14 17  1  0  0  0  0
 11 12  1  0  0  0  0
 11 13  1  0  0  0  0
 11 14  1  0  0  0  0
  9 10  1  0  0  0  0
  9 11  1  0  0  0  0
  9 21  1  0  0  0  0
  7  8  1  0  0  0  0
  7  9  1  0  0  0  0
 25 26  1  0  0  0  0
 25 27  1  0  0  0  0
 25 28  1  0  0  0  0
 23 24  1  0  0  0  0
 23 25  1  0  0  0  0
M  END
$$$$
default_name
  -OEChem-02102213163D

 28 27  0     1  0  0  0  0  0999 V2000
   -3.2133   -3.5565    1.2809 H   0  0  0  0  0  0  0  0  0  0  0  0
   -3.1873   -2.5755    0.8089 C   0  0  0  0  0  0  0  0  0  0  0  0
   -3.8793   -1.9065    1.3169 H   0  0  0  0  0  0  0  0  0  0  0  0
   -3.4623   -2.6685   -0.2401 H   0  0  0  0  0  0  0  0  0  0  0  0
   -1.7863   -2.0195    0.9119 C   0  0  0  0  0  0  0  0  0  0  0  0
   -0.9073   -2.6615    1.4699 O   0  0  0  0  0  0  0  0  0  0  0  0
   -1.5803   -0.8195    0.3749 N   0  0  0  0  0  0  0  0  0  0  0  0
   -2.3603   -0.3345   -0.0451 H   0  0  0  0  0  0  0  0  0  0  0  0
   -0.2933   -0.1205    0.3719 C   0  0  1  0  0  0  0  0  0  0  0  0
    0.3577   -0.5843    1.1143 H   0  0  0  0  0  0  0  0  0  0  0  0
    0.3613   -0.2794   -1.0156 C   0  0  0  0  0  0  0  0  0  0  0  0
    0.5202    0.7169   -1.4316 H   0  0  0  0  0  0  0  0  0  0  0  0
    1.3347   -0.7587   -0.9015 H   0  0  0  0  0  0  0  0  0  0  0  0
   -0.4758   -1.1036   -2.0091 C   0  0  0  0  0  0  0  0  0  0  0  0
   -0.7119   -0.5002   -2.8856 H   0  0  0  0  0  0  0  0  0  0  0  0
    0.0962   -1.9767   -2.3208 H   0  0  0  0  0  0  0  0  0  0  0  0
   -1.7860   -1.5893   -1.3976 C   0  0  0  0  0  0  0  0  0  0  0  0
   -2.0980   -1.4692   -0.2237 O   0  0  0  0  0  0  0  0  0  0  0  0
   -2.6306   -2.2021   -2.2477 O   0  0  0  0  0  0  0  0  0  0  0  0
   -3.3862   -2.4535   -1.7137 H   0  0  0  0  0  0  0  0  0  0  0  0
   -0.4860    1.3537    0.7622 C   0  0  0  0  0  0  0  0  0  0  0  0
   -1.3956    2.0096    0.2582 O   0  0  0  0  0  0  0  0  0  0  0  0
    0.3741    1.8728    1.6466 N   0  0  0  0  0  0  0  0  0  0  0  0
    1.0814    1.2667    2.0345 H   0  0  0  0  0  0  0  0  0  0  0  0
    0.3380    3.2610    2.1024 C   0  0  0  0  0  0  0  0  0  0  0  0
   -0.6389    3.4820    2.5363 H   0  0  0  0  0  0  0  0  0  0  0  0
    1.1108    3.4337    2.8528 H   0  0  0  0  0  0  0  0  0  0  0  0
    0.5009    3.9312    1.2562 H   0  0  0  0  0  0  0  0  0  0  0  0
  5  6  2  0  0  0  0
  5  7  1  0  0  0  0
  2  3  1  0  0  0  0
  2  4  1  0  0  0  0
  2  5  1  0  0  0  0
  1  2  1  0  0  0  0
 21 22  2  0  0  0  0
 21 23  1  0  0  0  0
 19 20  1  0  0  0  0
 17 18  2  0  0  0  0
 17 19  1  0  0  0  0
 14 15  1  0  0  0  0
 14 16  1  0  0  0  0
 14 17  1  0  0  0  0
 11 12  1  0  0  0  0
 11 13  1  0  0  0  0
 11 14  1  0  0  0  0
  9 10  1  0  0  0  0
  9 11  1  0  0  0  0
  9 21  1  0  0  0  0
  7  8  1  0  0  0  0
  7  9  1  0  0  0  0
 25 26  1  0  0  0  0
 25 27  1  0  0  0  0
 25 28  1  0  0  0  0
 23 24  1  0  0  0  0
 23 25  1  0  0  0  0
M  END
$$$$
default_name
  -OEChem-02102213163D

 28 27  0     1  0  0  0  0  0999 V2000
   -3.2133   -3.5565    1.2809 H   0  0  0  0  0  0  0  0  0  0  0  0
   -3.1873   -2.5755    0.8089 C   0  0  0  0  0  0  0  0  0  0  0  0
   -3.8793   -1.9065    1.3169 H   0  0  0  0  0  0  0  0  0  0  0  0
   -3.4623   -2.6685   -0.2401 H   0  0  0  0  0  0  0  0  0  0  0  0
   -1.7863   -2.0195    0.9119 C   0  0  0  0  0  0  0  0  0  0  0  0
   -0.9073   -2.6615    1.4699 O   0  0  0  0  0  0  0  0  0  0  0  0
   -1.5803   -0.8195    0.3749 N   0  0  0  0  0  0  0  0  0  0  0  0
   -2.3603   -0.3345   -0.0451 H   0  0  0  0  0  0  0  0  0  0  0  0
   -0.2933   -0.1205    0.3719 C   0  0  1  0  0  0  0  0  0  0  0  0
    0.3577   -0.5843    1.1143 H   0  0  0  0  0  0  0  0  0  0  0  0
    0.3613   -0.2794   -1.0156 C   0  0  0  0  0  0  0  0  0  0  0  0
    0.5202    0.7169   -1.4316 H   0  0  0  0  0  0  0  0  0  0  0  0
    1.3347   -0.7587   -0.9015 H   0  0  0  0  0  0  0  0  0  0  0  0
   -0.4758   -1.1036   -2.0091 C   0  0  0  0  0  0  0  0  0  0  0  0
   -0.4884   -0.6115   -2.9816 H   0  0  0  0  0  0  0  0  0  0  0  0
   -0.0327   -2.0930   -2.1158 H   0  0  0  0  0  0  0  0  0  0  0  0
   -1.9180   -1.2782   -1.5444 C   0  0  0  0  0  0  0  0  0  0  0  0
   -2.3500   -0.9328   -0.4563 O   0  0  0  0  0  0  0  0  0  0  0  0
   -2.7432   -1.8731   -2.4258 O   0  0  0  0  0  0  0  0  0  0  0  0
   -3.5928   -1.9181   -1.9837 H   0  0  0  0  0  0  0  0  0  0  0  0
   -0.4860    1.3537    0.7622 C   0  0  0  0  0  0  0  0  0  0  0  0
   -1.3956    2.0096    0.2582 O   0  0  0  0  0  0  0  0  0  0  0  0
    0.3741    1.8728    1.6466 N   0  0  0  0  0  0  0  0  0  0  0  0
    1.0814    1.2667    2.0345 H   0  0  0  0  0  0  0  0  0  0  0  0
    0.3380    3.2610    2.1024 C   0  0  0  0  0  0  0  0  0  0  0  0
   -0.6389    3.4820    2.5363 H   0  0  0  0  0  0  0  0  0  0  0  0
    1.1108    3.4337    2.8528 H   0  0  0  0  0  0  0  0  0  0  0  0
    0.5009    3.9312    1.2562 H   0  0  0  0  0  0  0  0  0  0  0  0
  5  6  2  0  0  0  0
  5  7  1  0  0  0  0
  2  3  1  0  0  0  0
  2  4  1  0  0  0  0
  2  5  1  0  0  0  0
  1  2  1  0  0  0  0
 21 22  2  0  0  0  0
 21 23  1  0  0  0  0
 19 20  1  0  0  0  0
 17 18  2  0  0  0  0
 17 19  1  0  0  0  0
 14 15  1  0  0  0  0
 14 16  1  0  0  0  0
 14 17  1  0  0  0  0
 11 12  1  0  0  0  0
 11 13  1  0  0  0  0
 11 14  1  0  0  0  0
  9 10  1  0  0  0  0
  9 11  1  0  0  0  0
  9 21  1  0  0  0  0
  7  8  1  0  0  0  0
  7  9  1  0  0  0  0
 25 26  1  0  0  0  0
 25 27  1  0  0  0  0
 25 28  1  0  0  0  0
 23 24  1  0  0  0  0
 23 25  1  0  0  0  0
M  END
$$$$
default_name
  -OEChem-02102213163D

 28 27  0     1  0  0  0  0  0999 V2000
   -3.2133   -3.5565    1.2809 H   0  0  0  0  0  0  0  0  0  0  0  0
   -3.1873   -2.5755    0.8089 C   0  0  0  0  0  0  0  0  0  0  0  0
   -3.8793   -1.9065    1.3169 H   0  0  0  0  0  0  0  0  0  0  0  0
   -3.4623   -2.6685   -0.2401 H   0  0  0  0  0  0  0  0  0  0  0  0
   -1.7863   -2.0195    0.9119 C   0  0  0  0  0  0  0  0  0  0  0  0
   -0.9073   -2.6615    1.4699 O   0  0  0  0  0  0  0  0  0  0  0  0
   -1.5803   -0.8195    0.3749 N   0  0  0  0  0  0  0  0  0  0  0  0
   -2.3603   -0.3345   -0.0451 H   0  0  0  0  0  0  0  0  0  0  0  0
   -0.2933   -0.1205    0.3719 C   0  0  1  0  0  0  0  0  0  0  0  0
    0.3577   -0.5843    1.1143 H   0  0  0  0  0  0  0  0  0  0  0  0
    0.3613   -0.2794   -1.0156 C   0  0  0  0  0  0  0  0  0  0  0  0
    0.5202    0.7169   -1.4316 H   0  0  0  0  0  0  0  0  0  0  0  0
    1.3347   -0.7587   -0.9015 H   0  0  0  0  0  0  0  0  0  0  0  0
   -0.4758   -1.1036   -2.0091 C   0  0  0  0  0  0  0  0  0  0  0  0
   -0.2777   -0.7699   -3.0277 H   0  0  0  0  0  0  0  0  0  0  0  0
   -0.2050   -2.1549   -1.9193 H   0  0  0  0  0  0  0  0  0  0  0  0
   -1.9732   -0.9764   -1.7483 C   0  0  0  0  0  0  0  0  0  0  0  0
   -2.4715   -0.4054   -0.7914 O   0  0  0  0  0  0  0  0  0  0  0  0
   -2.7723   -1.5616   -2.6597 O   0  0  0  0  0  0  0  0  0  0  0  0
   -3.6655   -1.4044   -2.3486 H   0  0  0  0  0  0  0  0  0  0  0  0
   -0.4860    1.3537    0.7622 C   0  0  0  0  0  0  0  0  0  0  0  0
   -1.3956    2.0096    0.2582 O   0  0  0  0  0  0  0  0  0  0  0  0
    0.3741    1.8728    1.6466 N   0  0  0  0  0  0  0  0  0  0  0  0
    1.0814    1.2667    2.0345 H   0  0  0  0  0  0  0  0  0  0  0  0
    0.3380    3.2610    2.1024 C   0  0  0  0  0  0  0  0  0  0  0  0
   -0.6389    3.4820    2.5363 H   0  0  0  0  0  0  0  0  0  0  0  0
    1.1108    3.4337    2.8528 H   0  0  0  0  0  0  0  0  0  0  0  0
    0.5009    3.9312    1.2562 H   0  0  0  0  0  0  0  0  0  0  0  0
  5  6  2  0  0  0  0
  5  7  1  0  0  0  0
  2  3  1  0  0  0  0
  2  4  1  0  0  0  0
  2  5  1  0  0  0  0
  1  2  1  0  0  0  0
 21 22  2  0  0  0  0
 21 23  1  0  0  0  0
 19 20  1  0  0  0  0
 17 18  2  0  0  0  0
 17 19  1  0  0  0  0
 14 15  1  0  0  0  0
 14 16  1  0  0  0  0
 14 17  1  0  0  0  0
 11 12  1  0  0  0  0
 11 13  1  0  0  0  0
 11 14  1  0  0  0  0
  9 10  1  0  0  0  0
  9 11  1  0  0  0  0
  9 21  1  0  0  0  0
  7  8  1  0  0  0  0
  7  9  1  0  0  0  0
 25 26  1  0  0  0  0
 25 27  1  0  0  0  0
 25 28  1  0  0  0  0
 23 24  1  0  0  0  0
 23 25  1  0  0  0  0
M  END
$$$$
default_name
  -OEChem-02102213163D

 28 27  0     1  0  0  0  0  0999 V2000
   -3.2133   -3.5565    1.2809 H   0  0  0  0  0  0  0  0  0  0  0  0
   -3.1873   -2.5755    0.8089 C   0  0  0  0  0  0  0  0  0  0  0  0
   -3.8793   -1.9065    1.3169 H   0  0  0  0  0  0  0  0  0  0  0  0
   -3.4623   -2.6685   -0.2401 H   0  0  0  0  0  0  0  0  0  0  0  0
   -1.7863   -2.0195    0.9119 C   0  0  0  0  0  0  0  0  0  0  0  0
   -0.9073   -2.6615    1.4699 O   0  0  0  0  0  0  0  0  0  0  0  0
   -1.5803   -0.8195    0.3749 N   0  0  0  0  0  0  0  0  0  0  0  0
   -2.3603   -0.3345   -0.0451 H   0  0  0  0  0  0  0  0  0  0  0  0
   -0.2933   -0.1205    0.3719 C   0  0  1  0  0  0  0  0  0  0  0  0
    0.3577   -0.5843    1.1143 H   0  0  0  0  0  0  0  0  0  0  0  0
    0.3613   -0.2794   -1.0156 C   0  0  0  0  0  0  0  0  0  0  0  0
    0.5202    0.7169   -1.4316 H   0  0  0  0  0  0  0  0  0  0  0  0
    1.3347   -0.7587   -0.9015 H   0  0  0  0  0  0  0  0  0  0  0  0
   -0.4758   -1.1036   -2.0091 C   0  0  0  0  0  0  0  0  0  0  0  0
   -0.0944   -0.9646   -3.0207 H   0  0  0  0  0  0  0  0  0  0  0  0
   -0.4090   -2.1582   -1.7446 H   0  0  0  0  0  0  0  0  0  0  0  0
   -1.9478   -0.7043   -1.9954 C   0  0  0  0  0  0  0  0  0  0  0  0
   -2.4542    0.0772   -1.2063 O   0  0  0  0  0  0  0  0  0  0  0  0
   -2.7159   -1.2887   -2.9336 O   0  0  0  0  0  0  0  0  0  0  0  0
   -3.5992   -0.9475   -2.7834 H   0  0  0  0  0  0  0  0  0  0  0  0
   -0.4860    1.3537    0.7622 C   0  0  0  0  0  0  0  0  0  0  0  0
   -1.3956    2.0096    0.2582 O   0  0  0  0  0  0  0  0  0  0  0  0
    0.3741    1.8728    1.6466 N   0  0  0  0  0  0  0  0  0  0  0  0
    1.0814    1.2667    2.0345 H   0  0  0  0  0  0  0  0  0  0  0  0
    0.3380    3.2610    2.1024 C   0  0  0  0  0  0  0  0  0  0  0  0
   -0.6389    3.4820    2.5363 H   0  0  0  0  0  0  0  0  0  0  0  0
    1.1108    3.4337    2.8528 H   0  0  0  0  0  0  0  0  0  0  0  0
    0.5009    3.9312    1.2562 H   0  0  0  0  0  0  0  0  0  0  0  0
  5  6  2  0  0  0  0
  5  7  1  0  0  0  0
  2  3  1  0  0  0  0
  2  4  1  0  0  0  0
  2  5  1  0  0  0  0
  1  2  1  0  0  0  0
 21 22  2  0  0  0  0
 21 23  1  0  0  0  0
 19 20  1  0  0  0  0
 17 18  2  0  0  0  0
 17 19  1  0  0  0  0
 14 15  1  0  0  0  0
 14 16  1  0  0  0  0
 14 17  1  0  0  0  0
 11 12  1  0  0  0  0
 11 13  1  0  0  0  0
 11 14  1  0  0  0  0
  9 10  1  0  0  0  0
  9 11  1  0  0  0  0
  9 21  1  0  0  0  0
  7  8  1  0  0  0  0
  7  9  1  0  0  0  0
 25 26  1  0  0  0  0
 25 27  1  0  0  0  0
 25 28  1  0  0  0  0
 23 24  1  0  0  0  0
 23 25  1  0  0  0  0
M  END
$$$$
default_name
  -OEChem-02102213163D

 28 27  0     1  0  0  0  0  0999 V2000
   -3.2133   -3.5565    1.2809 H   0  0  0  0  0  0  0  0  0  0  0  0
   -3.1873   -2.5755    0.8089 C   0  0  0  0  0  0  0  0  0  0  0  0
   -3.8793   -1.9065    1.3169 H   0  0  0  0  0  0  0  0  0  0  0  0
   -3.4623   -2.6685   -0.2401 H   0  0  0  0  0  0  0  0  0  0  0  0
   -1.7863   -2.0195    0.9119 C   0  0  0  0  0  0  0  0  0  0  0  0
   -0.9073   -2.6615    1.4699 O   0  0  0  0  0  0  0  0  0  0  0  0
   -1.5803   -0.8195    0.3749 N   0  0  0  0  0  0  0  0  0  0  0  0
   -2.3603   -0.3345   -0.0451 H   0  0  0  0  0  0  0  0  0  0  0  0
   -0.2933   -0.1205    0.3719 C   0  0  1  0  0  0  0  0  0  0  0  0
    0.3577   -0.5843    1.1143 H   0  0  0  0  0  0  0  0  0  0  0  0
    0.3613   -0.2794   -1.0156 C   0  0  0  0  0  0  0  0  0  0  0  0
    0.5202    0.7169   -1.4316 H   0  0  0  0  0  0  0  0  0  0  0  0
    1.3347   -0.7587   -0.9015 H   0  0  0  0  0  0  0  0  0  0  0  0
   -0.4758   -1.1036   -2.0091 C   0  0  0  0  0  0  0  0  0  0  0  0
    0.0493   -1.1823   -2.9611 H   0  0  0  0  0  0  0  0  0  0  0  0
   -0.6309   -2.1028   -1.6037 H   0  0  0  0  0  0  0  0  0  0  0  0
   -1.8435   -0.4805   -2.2689 C   0  0  0  0  0  0  0  0  0  0  0  0
   -2.2994    0.4820   -1.6726 O   0  0  0  0  0  0  0  0  0  0  0  0
   -2.5778   -1.0732   -3.2287 O   0  0  0  0  0  0  0  0  0  0  0  0
   -3.3986   -0.5785   -3.2586 H   0  0  0  0  0  0  0  0  0  0  0  0
   -0.4860    1.3537    0.7622 C   0  0  0  0  0  0  0  0  0  0  0  0
   -1.3956    2.0096    0.2582 O   0  0  0  0  0  0  0  0  0  0  0  0
    0.3741    1.8728    1.6466 N   0  0  0  0  0  0  0  0  0  0  0  0
    1.0814    1.2667    2.0345 H   0  0  0  0  0  0  0  0  0  0  0  0
    0.3380    3.2610    2.1024 C   0  0  0  0  0  0  0  0  0  0  0  0
   -0.6389    3.4820    2.5363 H   0  0  0  0  0  0  0  0  0  0  0  0
    1.1108    3.4337    2.8528 H   0  0  0  0  0  0  0  0  0  0  0  0
    0.5009    3.9312    1.2562 H   0  0  0  0  0  0  0  0  0  0  0  0
  5  6  2  0  0  0  0
  5  7  1  0  0  0  0
  2  3  1  0  0  0  0
  2  4  1  0  0  0  0
  2  5  1  0  0  0  0
  1  2  1  0  0  0  0
 21 22  2  0  0  0  0
 21 23  1  0  0  0  0
 19 20  1  0  0  0  0
 17 18  2  0  0  0  0
 17 19  1  0  0  0  0
 14 15  1  0  0  0  0
 14 16  1  0  0  0  0
 14 17  1  0  0  0  0
 11 12  1  0  0  0  0
 11 13  1  0  0  0  0
 11 14  1  0  0  0  0
  9 10  1  0  0  0  0
  9 11  1  0  0  0  0
  9 21  1  0  0  0  0
  7  8  1  0  0  0  0
  7  9  1  0  0  0  0
 25 26  1  0  0  0  0
 25 27  1  0  0  0  0
 25 28  1  0  0  0  0
 23 24  1  0  0  0  0
 23 25  1  0  0  0  0
M  END
$$$$
default_name
  -OEChem-02102213163D

 28 27  0     1  0  0  0  0  0999 V2000
   -3.2133   -3.5565    1.2809 H   0  0  0  0  0  0  0  0  0  0  0  0
   -3.1873   -2.5755    0.8089 C   0  0  0  0  0  0  0  0  0  0  0  0
   -3.8793   -1.9065    1.3169 H   0  0  0  0  0  0  0  0  0  0  0  0
   -3.4623   -2.6685   -0.2401 H   0  0  0  0  0  0  0  0  0  0  0  0
   -1.7863   -2.0195    0.9119 C   0  0  0  0  0  0  0  0  0  0  0  0
   -0.9073   -2.6615    1.4699 O   0  0  0  0  0  0  0  0  0  0  0  0
   -1.5803   -0.8195    0.3749 N   0  0  0  0  0  0  0  0  0  0  0  0
   -2.3603   -0.3345   -0.0451 H   0  0  0  0  0  0  0  0  0  0  0  0
   -0.2933   -0.1205    0.3719 C   0  0  1  0  0  0  0  0  0  0  0  0
    0.3577   -0.5843    1.1143 H   0  0  0  0  0  0  0  0  0  0  0  0
    0.3613   -0.2794   -1.0156 C   0  0  0  0  0  0  0  0  0  0  0  0
    0.5202    0.7169   -1.4316 H   0  0  0  0  0  0  0  0  0  0  0  0
    1.3347   -0.7587   -0.9015 H   0  0  0  0  0  0  0  0  0  0  0  0
   -0.4758   -1.1036   -2.0091 C   0  0  0  0  0  0  0  0  0  0  0  0
    0.1433   -1.4082   -2.8529 H   0  0  0  0  0  0  0  0  0  0  0  0
   -0.8554   -1.9923   -1.5062 H   0  0  0  0  0  0  0  0  0  0  0  0
   -1.6675   -0.3203   -2.5502 C   0  0  0  0  0  0  0  0  0  0  0  0
   -2.0175    0.7815   -2.1586 O   0  0  0  0  0  0  0  0  0  0  0  0
   -2.3675   -0.9296   -3.5250 O   0  0  0  0  0  0  0  0  0  0  0  0
   -3.0772   -0.3225   -3.7418 H   0  0  0  0  0  0  0  0  0  0  0  0
   -0.4860    1.3537    0.7622 C   0  0  0  0  0  0  0  0  0  0  0  0
   -1.3956    2.0096    0.2582 O   0  0  0  0  0  0  0  0  0  0  0  0
    0.3741    1.8728    1.6466 N   0  0  0  0  0  0  0  0  0  0  0  0
    1.0814    1.2667    2.0345 H   0  0  0  0  0  0  0  0  0  0  0  0
    0.3380    3.2610    2.1024 C   0  0  0  0  0  0  0  0  0  0  0  0
   -0.6389    3.4820    2.5363 H   0  0  0  0  0  0  0  0  0  0  0  0
    1.1108    3.4337    2.8528 H   0  0  0  0  0  0  0  0  0  0  0  0
    0.5009    3.9312    1.2562 H   0  0  0  0  0  0  0  0  0  0  0  0
  5  6  2  0  0  0  0
  5  7  1  0  0  0  0
  2  3  1  0  0  0  0
  2  4  1  0  0  0  0
  2  5  1  0  0  0  0
  1  2  1  0  0  0  0
 21 22  2  0  0  0  0
 21 23  1  0  0  0  0
 19 20  1  0  0  0  0
 17 18  2  0  0  0  0
 17 19  1  0  0  0  0
 14 15  1  0  0  0  0
 14 16  1  0  0  0  0
 14 17  1  0  0  0  0
 11 12  1  0  0  0  0
 11 13  1  0  0  0  0
 11 14  1  0  0  0  0
  9 10  1  0  0  0  0
  9 11  1  0  0  0  0
  9 21  1  0  0  0  0
  7  8  1  0  0  0  0
  7  9  1  0  0  0  0
 25 26  1  0  0  0  0
 25 27  1  0  0  0  0
 25 28  1  0  0  0  0
 23 24  1  0  0  0  0
 23 25  1  0  0  0  0
M  END
$$$$
default_name
  -OEChem-02102213163D

 28 27  0     1  0  0  0  0  0999 V2000
   -3.2133   -3.5565    1.2809 H   0  0  0  0  0  0  0  0  0  0  0  0
   -3.1873   -2.5755    0.8089 C   0  0  0  0  0  0  0  0  0  0  0  0
   -3.8793   -1.9065    1.3169 H   0  0  0  0  0  0  0  0  0  0  0  0
   -3.4623   -2.6685   -0.2401 H   0  0  0  0  0  0  0  0  0  0  0  0
   -1.7863   -2.0195    0.9119 C   0  0  0  0  0  0  0  0  0  0  0  0
   -0.9073   -2.6615    1.4699 O   0  0  0  0  0  0  0  0  0  0  0  0
   -1.5803   -0.8195    0.3749 N   0  0  0  0  0  0  0  0  0  0  0  0
   -2.3603   -0.3345   -0.0451 H   0  0  0  0  0  0  0  0  0  0  0  0
   -0.2933   -0.1205    0.3719 C   0  0  1  0  0  0  0  0  0  0  0  0
    0.3577   -0.5843    1.1143 H   0  0  0  0  0  0  0  0  0  0  0  0
    0.3613   -0.2794   -1.0156 C   0  0  0  0  0  0  0  0  0  0  0  0
    0.5202    0.7169   -1.4316 H   0  0  0  0  0  0  0  0  0  0  0  0
    1.3347   -0.7587   -0.9015 H   0  0  0  0  0  0  0  0  0  0  0  0
   -0.4758   -1.1036   -2.0091 C   0  0  0  0  0  0  0  0  0  0  0  0
    0.1814   -1.6269   -2.7036 H   0  0  0  0  0  0  0  0  0  0  0  0
   -1.0674   -1.8342   -1.4587 H   0  0  0  0  0  0  0  0  0  0  0  0
   -1.4316   -0.2345   -2.8200 C   0  0  0  0  0  0  0  0  0  0  0  0
   -1.6278    0.9553   -2.6310 O   0  0  0  0  0  0  0  0  0  0  0  0
   -2.0993   -0.8678   -3.8023 O   0  0  0  0  0  0  0  0  0  0  0  0
   -2.6570   -0.1969   -4.2000 H   0  0  0  0  0  0  0  0  0  0  0  0
   -0.4860    1.3537    0.7622 C   0  0  0  0  0  0  0  0  0  0  0  0
   -1.3956    2.0096    0.2582 O   0  0  0  0  0  0  0  0  0  0  0  0
    0.3741    1.8728    1.6466 N   0  0  0  0  0  0  0  0  0  0  0  0
    1.0814    1.2667    2.0345 H   0  0  0  0  0  0  0  0  0  0  0  0
    0.3380    3.2610    2.1024 C   0  0  0  0  0  0  0  0  0  0  0  0
   -0.6389    3.4820    2.5363 H   0  0  0  0  0  0  0  0  0  0  0  0
    1.1108    3.4337    2.8528 H   0  0  0  0  0  0  0  0  0  0  0  0
    0.5009    3.9312    1.2562 H   0  0  0  0  0  0  0  0  0  0  0  0
  5  6  2  0  0  0  0
  5  7  1  0  0  0  0
  2  3  1  0  0  0  0
  2  4  1  0  0  0  0
  2  5  1  0  0  0  0
  1  2  1  0  0  0  0
 21 22  2  0  0  0  0
 21 23  1  0  0  0  0
 19 20  1  0  0  0  0
 17 18  2  0  0  0  0
 17 19  1  0  0  0  0
 14 15  1  0  0  0  0
 14 16  1  0  0  0  0
 14 17  1  0  0  0  0
 11 12  1  0  0  0  0
 11 13  1  0  0  0  0
 11 14  1  0  0  0  0
  9 10  1  0  0  0  0
  9 11  1  0  0  0  0
  9 21  1  0  0  0  0
  7  8  1  0  0  0  0
  7  9  1  0  0  0  0
 25 26  1  0  0  0  0
 25 27  1  0  0  0  0
 25 28  1  0  0  0  0
 23 24  1  0  0  0  0
 23 25  1  0  0  0  0
M  END
$$$$
default_name
  -OEChem-02102213163D

 28 27  0     1  0  0  0  0  0999 V2000
   -3.2133   -3.5565    1.2809 H   0  0  0  0  0  0  0  0  0  0  0  0
   -3.1873   -2.5755    0.8089 C   0  0  0  0  0  0  0  0  0  0  0  0
   -3.8793   -1.9065    1.3169 H   0  0  0  0  0  0  0  0  0  0  0  0
   -3.4623   -2.6685   -0.2401 H   0  0  0  0  0  0  0  0  0  0  0  0
   -1.7863   -2.0195    0.9119 C   0  0  0  0  0  0  0  0  0  0  0  0
   -0.9073   -2.6615    1.4699 O   0  0  0  0  0  0  0  0  0  0  0  0
   -1.5803   -0.8195    0.3749 N   0  0  0  0  0  0  0  0  0  0  0  0
   -2.3603   -0.3345   -0.0451 H   0  0  0  0  0  0  0  0  0  0  0  0
   -0.2933   -0.1205    0.3719 C   0  0  1  0  0  0  0  0  0  0  0  0
    0.3577   -0.5843    1.1143 H   0  0  0  0  0  0  0  0  0  0  0  0
    0.3613   -0.2794   -1.0156 C   0  0  0  0  0  0  0  0  0  0  0  0
    0.5202    0.7169   -1.4316 H   0  0  0  0  0  0  0  0  0  0  0  0
    1.3347   -0.7587   -0.9015 H   0  0  0  0  0  0  0  0  0  0  0  0
   -0.4758   -1.1036   -2.0091 C   0  0  0  0  0  0  0  0  0  0  0  0
    0.1610   -1.8235   -2.5233 H   0  0  0  0  0  0  0  0  0  0  0  0
   -1.2523   -1.6395   -1.4644 H   0  0  0  0  0  0  0  0  0  0  0  0
   -1.1521   -0.2291   -3.0600 C   0  0  0  0  0  0  0  0  0  0  0  0
   -1.1568    0.9914   -3.0579 O   0  0  0  0  0  0  0  0  0  0  0  0
   -1.7914   -0.8920   -4.0416 O   0  0  0  0  0  0  0  0  0  0  0  0
   -2.1666   -0.2104   -4.6020 H   0  0  0  0  0  0  0  0  0  0  0  0
   -0.4860    1.3537    0.7622 C   0  0  0  0  0  0  0  0  0  0  0  0
   -1.3956    2.0096    0.2582 O   0  0  0  0  0  0  0  0  0  0  0  0
    0.3741    1.8728    1.6466 N   0  0  0  0  0  0  0  0  0  0  0  0
    1.0814    1.2667    2.0345 H   0  0  0  0  0  0  0  0  0  0  0  0
    0.3380    3.2610    2.1024 C   0  0  0  0  0  0  0  0  0  0  0  0
   -0.6389    3.4820    2.5363 H   0  0  0  0  0  0  0  0  0  0  0  0
    1.1108    3.4337    2.8528 H   0  0  0  0  0  0  0  0  0  0  0  0
    0.5009    3.9312    1.2562 H   0  0  0  0  0  0  0  0  0  0  0  0
  5  6  2  0  0  0  0
  5  7  1  0  0  0  0
  2  3  1  0  0  0  0
  2  4  1  0  0  0  0
  2  5  1  0  0  0  0
  1  2  1  0  0  0  0
 21 22  2  0  0  0  0
 21 23  1  0  0  0  0
 19 20  1  0  0  0  0
 17 18  2  0  0  0  0
 17 19  1  0  0  0  0
 14 15  1  0  0  0  0
 14 16  1  0  0  0  0
 14 17  1  0  0  0  0
 11 12  1  0  0  0  0
 11 13  1  0  0  0  0
 11 14  1  0  0  0  0
  9 10  1  0  0  0  0
  9 11  1  0  0  0  0
  9 21  1  0  0  0  0
  7  8  1  0  0  0  0
  7  9  1  0  0  0  0
 25 26  1  0  0  0  0
 25 27  1  0  0  0  0
 25 28  1  0  0  0  0
 23 24  1  0  0  0  0
 23 25  1  0  0  0  0
M  END
$$$$
default_name
  -OEChem-02102213163D

 28 27  0     1  0  0  0  0  0999 V2000
   -3.2133   -3.5565    1.2809 H   0  0  0  0  0  0  0  0  0  0  0  0
   -3.1873   -2.5755    0.8089 C   0  0  0  0  0  0  0  0  0  0  0  0
   -3.8793   -1.9065    1.3169 H   0  0  0  0  0  0  0  0  0  0  0  0
   -3.4623   -2.6685   -0.2401 H   0  0  0  0  0  0  0  0  0  0  0  0
   -1.7863   -2.0195    0.9119 C   0  0  0  0  0  0  0  0  0  0  0  0
   -0.9073   -2.6615    1.4699 O   0  0  0  0  0  0  0  0  0  0  0  0
   -1.5803   -0.8195    0.3749 N   0  0  0  0  0  0  0  0  0  0  0  0
   -2.3603   -0.3345   -0.0451 H   0  0  0  0  0  0  0  0  0  0  0  0
   -0.2933   -0.1205    0.3719 C   0  0  1  0  0  0  0  0  0  0  0  0
    0.3577   -0.5843    1.1143 H   0  0  0  0  0  0  0  0  0  0  0  0
    0.3613   -0.2794   -1.0156 C   0  0  0  0  0  0  0  0  0  0  0  0
    0.5202    0.7169   -1.4316 H   0  0  0  0  0  0  0  0  0  0  0  0
    1.3347   -0.7587   -0.9015 H   0  0  0  0  0  0  0  0  0  0  0  0
   -0.4758   -1.1036   -2.0091 C   0  0  0  0  0  0  0  0  0  0  0  0
    0.0833   -1.9846   -2.3243 H   0  0  0  0  0  0  0  0  0  0  0  0
   -1.3975   -1.4213   -1.5230 H   0  0  0  0  0  0  0  0  0  0  0  0
   -0.8479   -0.3045   -3.2538 C   0  0  0  0  0  0  0  0  0  0  0  0
   -0.6367    0.8875   -3.4099 O   0  0  0  0  0  0  0  0  0  0  0  0
   -1.4650   -1.0005   -4.2267 O   0  0  0  0  0  0  0  0  0  0  0  0
   -1.6394   -0.3620   -4.9204 H   0  0  0  0  0  0  0  0  0  0  0  0
   -0.4860    1.3537    0.7622 C   0  0  0  0  0  0  0  0  0  0  0  0
   -1.3956    2.0096    0.2582 O   0  0  0  0  0  0  0  0  0  0  0  0
    0.3741    1.8728    1.6466 N   0  0  0  0  0  0  0  0  0  0  0  0
    1.0814    1.2667    2.0345 H   0  0  0  0  0  0  0  0  0  0  0  0
    0.3380    3.2610    2.1024 C   0  0  0  0  0  0  0  0  0  0  0  0
   -0.6389    3.4820    2.5363 H   0  0  0  0  0  0  0  0  0  0  0  0
    1.1108    3.4337    2.8528 H   0  0  0  0  0  0  0  0  0  0  0  0
    0.5009    3.9312    1.2562 H   0  0  0  0  0  0  0  0  0  0  0  0
  5  6  2  0  0  0  0
  5  7  1  0  0  0  0
  2  3  1  0  0  0  0
  2  4  1  0  0  0  0
  2  5  1  0  0  0  0
  1  2  1  0  0  0  0
 21 22  2  0  0  0  0
 21 23  1  0  0  0  0
 19 20  1  0  0  0  0
 17 18  2  0  0  0  0
 17 19  1  0  0  0  0
 14 15  1  0  0  0  0
 14 16  1  0  0  0  0
 14 17  1  0  0  0  0
 11 12  1  0  0  0  0
 11 13  1  0  0  0  0
 11 14  1  0  0  0  0
  9 10  1  0  0  0  0
  9 11  1  0  0  0  0
  9 21  1  0  0  0  0
  7  8  1  0  0  0  0
  7  9  1  0  0  0  0
 25 26  1  0  0  0  0
 25 27  1  0  0  0  0
 25 28  1  0  0  0  0
 23 24  1  0  0  0  0
 23 25  1  0  0  0  0
M  END
$$$$
default_name
  -OEChem-02102213163D

 28 27  0     1  0  0  0  0  0999 V2000
   -3.2133   -3.5565    1.2809 H   0  0  0  0  0  0  0  0  0  0  0  0
   -3.1873   -2.5755    0.8089 C   0  0  0  0  0  0  0  0  0  0  0  0
   -3.8793   -1.9065    1.3169 H   0  0  0  0  0  0  0  0  0  0  0  0
   -3.4623   -2.6685   -0.2401 H   0  0  0  0  0  0  0  0  0  0  0  0
   -1.7863   -2.0195    0.9119 C   0  0  0  0  0  0  0  0  0  0  0  0
   -0.9073   -2.6615    1.4699 O   0  0  0  0  0  0  0  0  0  0  0  0
   -1.5803   -0.8195    0.3749 N   0  0  0  0  0  0  0  0  0  0  0  0
   -2.3603   -0.3345   -0.0451 H   0  0  0  0  0  0  0  0  0  0  0  0
   -0.2933   -0.1205    0.3719 C   0  0  1  0  0  0  0  0  0  0  0  0
    0.3577   -0.5843    1.1143 H   0  0  0  0  0  0  0  0  0  0  0  0
    0.3613   -0.2794   -1.0156 C   0  0  0  0  0  0  0  0  0  0  0  0
    0.5202    0.7169   -1.4316 H   0  0  0  0  0  0  0  0  0  0  0  0
    1.3347   -0.7587   -0.9015 H   0  0  0  0  0  0  0  0  0  0  0  0
   -0.4758   -1.1036   -2.0091 C   0  0  0  0  0  0  0  0  0  0  0  0
   -0.0461   -2.0992   -2.1201 H   0  0  0  0  0  0  0  0  0  0  0  0
   -1.4932   -1.1945   -1.6305 H   0  0  0  0  0  0  0  0  0  0  0  0
   -0.5398   -0.4553   -3.3882 C   0  0  0  0  0  0  0  0  0  0  0  0
   -0.1028    0.6507   -3.6632 O   0  0  0  0  0  0  0  0  0  0  0  0
   -1.1421   -1.1859   -4.3449 O   0  0  0  0  0  0  0  0  0  0  0  0
   -1.1114   -0.6414   -5.1335 H   0  0  0  0  0  0  0  0  0  0  0  0
   -0.4860    1.3537    0.7622 C   0  0  0  0  0  0  0  0  0  0  0  0
   -1.3956    2.0096    0.2582 O   0  0  0  0  0  0  0  0  0  0  0  0
    0.3741    1.8728    1.6466 N   0  0  0  0  0  0  0  0  0  0  0  0
    1.0814    1.2667    2.0345 H   0  0  0  0  0  0  0  0  0  0  0  0
    0.3380    3.2610    2.1024 C   0  0  0  0  0  0  0  0  0  0  0  0
   -0.6389    3.4820    2.5363 H   0  0  0  0  0  0  0  0  0  0  0  0
    1.1108    3.4337    2.8528 H   0  0  0  0  0  0  0  0  0  0  0  0
    0.5009    3.9312    1.2562 H   0  0  0  0  0  0  0  0  0  0  0  0
  5  6  2  0  0  0  0
  5  7  1  0  0  0  0
  2  3  1  0  0  0  0
  2  4  1  0  0  0  0
  2  5  1  0  0  0  0
  1  2  1  0  0  0  0
 21 22  2  0  0  0  0
 21 23  1  0  0  0  0
 19 20  1  0  0  0  0
 17 18  2  0  0  0  0
 17 19  1  0  0  0  0
 14 15  1  0  0  0  0
 14 16  1  0  0  0  0
 14 17  1  0  0  0  0
 11 12  1  0  0  0  0
 11 13  1  0  0  0  0
 11 14  1  0  0  0  0
  9 10  1  0  0  0  0
  9 11  1  0  0  0  0
  9 21  1  0  0  0  0
  7  8  1  0  0  0  0
  7  9  1  0  0  0  0
 25 26  1  0  0  0  0
 25 27  1  0  0  0  0
 25 28  1  0  0  0  0
 23 24  1  0  0  0  0
 23 25  1  0  0  0  0
M  END
$$$$
default_name
  -OEChem-02102213163D

 28 27  0     1  0  0  0  0  0999 V2000
   -3.2133   -3.5565    1.2809 H   0  0  0  0  0  0  0  0  0  0  0  0
   -3.1873   -2.5755    0.8089 C   0  0  0  0  0  0  0  0  0  0  0  0
   -3.8793   -1.9065    1.3169 H   0  0  0  0  0  0  0  0  0  0  0  0
   -3.4623   -2.6685   -0.2401 H   0  0  0  0  0  0  0  0  0  0  0  0
   -1.7863   -2.0195    0.9119 C   0  0  0  0  0  0  0  0  0  0  0  0
   -0.9073   -2.6615    1.4699 O   0  0  0  0  0  0  0  0  0  0  0  0
   -1.5803   -0.8195    0.3749 N   0  0  0  0  0  0  0  0  0  0  0  0
   -2.3603   -0.3345   -0.0451 H   0  0  0  0  0  0  0  0  0  0  0  0
   -0.2933   -0.1205    0.3719 C   0  0  1  0  0  0  0  0  0  0  0  0
    0.3577   -0.5843    1.1143 H   0  0  0  0  0  0  0  0  0  0  0  0
    0.3613   -0.2794   -1.0156 C   0  0  0  0  0  0  0  0  0  0  0  0
    0.5202    0.7169   -1.4316 H   0  0  0  0  0  0  0  0  0  0  0  0
    1.3347   -0.7587   -0.9015 H   0  0  0  0  0  0  0  0  0  0  0  0
   -0.4758   -1.1036   -2.0091 C   0  0  0  0  0  0  0  0  0  0  0  0
   -0.2187   -2.1595   -1.9247 H   0  0  0  0  0  0  0  0  0  0  0  0
   -1.5329   -0.9746   -1.7795 H   0  0  0  0  0  0  0  0  0  0  0  0
   -0.2488   -0.6715   -3.4541 C   0  0  0  0  0  0  0  0  0  0  0  0
    0.4084    0.2969   -3.8006 O   0  0  0  0  0  0  0  0  0  0  0  0
   -0.8448   -1.4357   -4.3882 O   0  0  0  0  0  0  0  0  0  0  0  0
   -0.6185   -1.0295   -5.2268 H   0  0  0  0  0  0  0  0  0  0  0  0
   -0.4860    1.3537    0.7622 C   0  0  0  0  0  0  0  0  0  0  0  0
   -1.3956    2.0096    0.2582 O   0  0  0  0  0  0  0  0  0  0  0  0
    0.3741    1.8728    1.6466 N   0  0  0  0  0  0  0  0  0  0  0  0
    1.0814    1.2667    2.0345 H   0  0  0  0  0  0  0  0  0  0  0  0
    0.3380    3.2610    2.1024 C   0  0  0  0  0  0  0  0  0  0  0  0
   -0.6389    3.4820    2.5363 H   0  0  0  0  0  0  0  0  0  0  0  0
    1.1108    3.4337    2.8528 H   0  0  0  0  0  0  0  0  0  0  0  0
    0.5009    3.9312    1.2562 H   0  0  0  0  0  0  0  0  0  0  0  0
  5  6  2  0  0  0  0
  5  7  1  0  0  0  0
  2  3  1  0  0  0  0
  2  4  1  0  0  0  0
  2  5  1  0  0  0  0
  1  2  1  0  0  0  0
 21 22  2  0  0  0  0
 21 23  1  0  0  0  0
 19 20  1  0  0  0  0
 17 18  2  0  0  0  0
 17 19  1  0  0  0  0
 14 15  1  0  0  0  0
 14 16  1  0  0  0  0
 14 17  1  0  0  0  0
 11 12  1  0  0  0  0
 11 13  1  0  0  0  0
 11 14  1  0  0  0  0
  9 10  1  0  0  0  0
  9 11  1  0  0  0  0
  9 21  1  0  0  0  0
  7  8  1  0  0  0  0
  7  9  1  0  0  0  0
 25 26  1  0  0  0  0
 25 27  1  0  0  0  0
 25 28  1  0  0  0  0
 23 24  1  0  0  0  0
 23 25  1  0  0  0  0
M  END
$$$$
default_name
  -OEChem-02102213163D

 28 27  0     1  0  0  0  0  0999 V2000
   -3.2133   -3.5565    1.2809 H   0  0  0  0  0  0  0  0  0  0  0  0
   -3.1873   -2.5755    0.8089 C   0  0  0  0  0  0  0  0  0  0  0  0
   -3.8793   -1.9065    1.3169 H   0  0  0  0  0  0  0  0  0  0  0  0
   -3.4623   -2.6685   -0.2401 H   0  0  0  0  0  0  0  0  0  0  0  0
   -1.7863   -2.0195    0.9119 C   0  0  0  0  0  0  0  0  0  0  0  0
   -0.9073   -2.6615    1.4699 O   0  0  0  0  0  0  0  0  0  0  0  0
   -1.5803   -0.8195    0.3749 N   0  0  0  0  0  0  0  0  0  0  0  0
   -2.3603   -0.3345   -0.0451 H   0  0  0  0  0  0  0  0  0  0  0  0
   -0.2933   -0.1205    0.3719 C   0  0  1  0  0  0  0  0  0  0  0  0
    0.3577   -0.5843    1.1143 H   0  0  0  0  0  0  0  0  0  0  0  0
    0.3613   -0.2794   -1.0156 C   0  0  0  0  0  0  0  0  0  0  0  0
    0.5202    0.7169   -1.4316 H   0  0  0  0  0  0  0  0  0  0  0  0
    1.3347   -0.7587   -0.9015 H   0  0  0  0  0  0  0  0  0  0  0  0
   -0.4758   -1.1036   -2.0091 C   0  0  0  0  0  0  0  0  0  0  0  0
   -0.4225   -2.1614   -1.7514 H   0  0  0  0  0  0  0  0  0  0  0  0
   -1.5138   -0.7765   -1.9600 H   0  0  0  0  0  0  0  0  0  0  0  0
    0.0053   -0.9382   -3.4470 C   0  0  0  0  0  0  0  0  0  0  0  0
    0.8621   -0.1495   -3.8125 O   0  0  0  0  0  0  0  0  0  0  0  0
   -0.5933   -1.7327   -4.3537 O   0  0  0  0  0  0  0  0  0  0  0  0
   -0.1944   -1.5000   -5.1939 H   0  0  0  0  0  0  0  0  0  0  0  0
   -0.4860    1.3537    0.7622 C   0  0  0  0  0  0  0  0  0  0  0  0
   -1.3956    2.0096    0.2582 O   0  0  0  0  0  0  0  0  0  0  0  0
    0.3741    1.8728    1.6466 N   0  0  0  0  0  0  0  0  0  0  0  0
    1.0814    1.2667    2.0345 H   0  0  0  0  0  0  0  0  0  0  0  0
    0.3380    3.2610    2.1024 C   0  0  0  0  0  0  0  0  0  0  0  0
   -0.6389    3.4820    2.5363 H   0  0  0  0  0  0  0  0  0  0  0  0
    1.1108    3.4337    2.8528 H   0  0  0  0  0  0  0  0  0  0  0  0
    0.5009    3.9312    1.2562 H   0  0  0  0  0  0  0  0  0  0  0  0
  5  6  2  0  0  0  0
  5  7  1  0  0  0  0
  2  3  1  0  0  0  0
  2  4  1  0  0  0  0
  2  5  1  0  0  0  0
  1  2  1  0  0  0  0
 21 22  2  0  0  0  0
 21 23  1  0  0  0  0
 19 20  1  0  0  0  0
 17 18  2  0  0  0  0
 17 19  1  0  0  0  0
 14 15  1  0  0  0  0
 14 16  1  0  0  0  0
 14 17  1  0  0  0  0
 11 12  1  0  0  0  0
 11 13  1  0  0  0  0
 11 14  1  0  0  0  0
  9 10  1  0  0  0  0
  9 11  1  0  0  0  0
  9 21  1  0  0  0  0
  7  8  1  0  0  0  0
  7  9  1  0  0  0  0
 25 26  1  0  0  0  0
 25 27  1  0  0  0  0
 25 28  1  0  0  0  0
 23 24  1  0  0  0  0
 23 25  1  0  0  0  0
M  END
$$$$
default_name
  -OEChem-02102213163D

 28 27  0     1  0  0  0  0  0999 V2000
   -3.2133   -3.5565    1.2809 H   0  0  0  0  0  0  0  0  0  0  0  0
   -3.1873   -2.5755    0.8089 C   0  0  0  0  0  0  0  0  0  0  0  0
   -3.8793   -1.9065    1.3169 H   0  0  0  0  0  0  0  0  0  0  0  0
   -3.4623   -2.6685   -0.2401 H   0  0  0  0  0  0  0  0  0  0  0  0
   -1.7863   -2.0195    0.9119 C   0  0  0  0  0  0  0  0  0  0  0  0
   -0.9073   -2.6615    1.4699 O   0  0  0  0  0  0  0  0  0  0  0  0
   -1.5803   -0.8195    0.3749 N   0  0  0  0  0  0  0  0  0  0  0  0
   -2.3603   -0.3345   -0.0451 H   0  0  0  0  0  0  0  0  0  0  0  0
   -0.2933   -0.1205    0.3719 C   0  0  1  0  0  0  0  0  0  0  0  0
    0.3577   -0.5843    1.1143 H   0  0  0  0  0  0  0  0  0  0  0  0
    0.3613   -0.2794   -1.0156 C   0  0  0  0  0  0  0  0  0  0  0  0
    0.7628    0.6905   -1.3142 H   0  0  0  0  0  0  0  0  0  0  0  0
    1.1921   -0.9828   -0.9431 H   0  0  0  0  0  0  0  0  0  0  0  0
   -0.6037   -0.7737   -2.1072 C   0  0  0  0  0  0  0  0  0  0  0  0
   -1.0143   -1.7441   -1.8281 H   0  0  0  0  0  0  0  0  0  0  0  0
   -1.4189   -0.0591   -2.2144 H   0  0  0  0  0  0  0  0  0  0  0  0
    0.0813   -0.9176   -3.4624 C   0  0  0  0  0  0  0  0  0  0  0  0
    1.2221   -0.5622   -3.7118 O   0  0  0  0  0  0  0  0  0  0  0  0
   -0.6665   -1.4729   -4.4340 O   0  0  0  0  0  0  0  0  0  0  0  0
   -0.1047   -1.4792   -5.2109 H   0  0  0  0  0  0  0  0  0  0  0  0
   -0.4860    1.3537    0.7622 C   0  0  0  0  0  0  0  0  0  0  0  0
   -1.3956    2.0096    0.2582 O   0  0  0  0  0  0  0  0  0  0  0  0
    0.3741    1.8728    1.6466 N   0  0  0  0  0  0  0  0  0  0  0  0
    1.0814    1.2667    2.0345 H   0  0  0  0  0  0  0  0  0  0  0  0
    0.3380    3.2610    2.1024 C   0  0  0  0  0  0  0  0  0  0  0  0
   -0.6389    3.4820    2.5363 H   0  0  0  0  0  0  0  0  0  0  0  0
    1.1108    3.4337    2.8528 H   0  0  0  0  0  0  0  0  0  0  0  0
    0.5009    3.9312    1.2562 H   0  0  0  0  0  0  0  0  0  0  0  0
  5  6  2  0  0  0  0
  5  7  1  0  0  0  0
  2  3  1  0  0  0  0
  2  4  1  0  0  0  0
  2  5  1  0  0  0  0
  1  2  1  0  0  0  0
 21 22  2  0  0  0  0
 21 23  1  0  0  0  0
 19 20  1  0  0  0  0
 17 18  2  0  0  0  0
 17 19  1  0  0  0  0
 14 15  1  0  0  0  0
 14 16  1  0  0  0  0
 14 17  1  0  0  0  0
 11 12  1  0  0  0  0
 11 13  1  0  0  0  0
 11 14  1  0  0  0  0
  9 10  1  0  0  0  0
  9 11  1  0  0  0  0
  9 21  1  0  0  0  0
  7  8  1  0  0  0  0
  7  9  1  0  0  0  0
 25 26  1  0  0  0  0
 25 27  1  0  0  0  0
 25 28  1  0  0  0  0
 23 24  1  0  0  0  0
 23 25  1  0  0  0  0
M  END
$$$$
default_name
  -OEChem-02102213163D

 28 27  0     1  0  0  0  0  0999 V2000
   -3.2133   -3.5565    1.2809 H   0  0  0  0  0  0  0  0  0  0  0  0
   -3.1873   -2.5755    0.8089 C   0  0  0  0  0  0  0  0  0  0  0  0
   -3.8793   -1.9065    1.3169 H   0  0  0  0  0  0  0  0  0  0  0  0
   -3.4623   -2.6685   -0.2401 H   0  0  0  0  0  0  0  0  0  0  0  0
   -1.7863   -2.0195    0.9119 C   0  0  0  0  0  0  0  0  0  0  0  0
   -0.9073   -2.6615    1.4699 O   0  0  0  0  0  0  0  0  0  0  0  0
   -1.5803   -0.8195    0.3749 N   0  0  0  0  0  0  0  0  0  0  0  0
   -2.3603   -0.3345   -0.0451 H   0  0  0  0  0  0  0  0  0  0  0  0
   -0.2933   -0.1205    0.3719 C   0  0  1  0  0  0  0  0  0  0  0  0
    0.3577   -0.5843    1.1143 H   0  0  0  0  0  0  0  0  0  0  0  0
    0.3613   -0.2794   -1.0156 C   0  0  0  0  0  0  0  0  0  0  0  0
    0.7628    0.6905   -1.3142 H   0  0  0  0  0  0  0  0  0  0  0  0
    1.1921   -0.9828   -0.9431 H   0  0  0  0  0  0  0  0  0  0  0  0
   -0.6037   -0.7737   -2.1072 C   0  0  0  0  0  0  0  0  0  0  0  0
   -1.2096   -1.5944   -1.7232 H   0  0  0  0  0  0  0  0  0  0  0  0
   -1.2586    0.0449   -2.4032 H   0  0  0  0  0  0  0  0  0  0  0  0
    0.1319   -1.2648   -3.3499 C   0  0  0  0  0  0  0  0  0  0  0  0
    1.3337   -1.1643   -3.5379 O   0  0  0  0  0  0  0  0  0  0  0  0
   -0.6403   -1.8362   -4.2927 O   0  0  0  0  0  0  0  0  0  0  0  0
   -0.0384   -2.0737   -5.0003 H   0  0  0  0  0  0  0  0  0  0  0  0
   -0.4860    1.3537    0.7622 C   0  0  0  0  0  0  0  0  0  0  0  0
   -1.3956    2.0096    0.2582 O   0  0  0  0  0  0  0  0  0  0  0  0
    0.3741    1.8728    1.6466 N   0  0  0  0  0  0  0  0  0  0  0  0
    1.0814    1.2667    2.0345 H   0  0  0  0  0  0  0  0  0  0  0  0
    0.3380    3.2610    2.1024 C   0  0  0  0  0  0  0  0  0  0  0  0
   -0.6389    3.4820    2.5363 H   0  0  0  0  0  0  0  0  0  0  0  0
    1.1108    3.4337    2.8528 H   0  0  0  0  0  0  0  0  0  0  0  0
    0.5009    3.9312    1.2562 H   0  0  0  0  0  0  0  0  0  0  0  0
  5  6  2  0  0  0  0
  5  7  1  0  0  0  0
  2  3  1  0  0  0  0
  2  4  1  0  0  0  0
  2  5  1  0  0  0  0
  1  2  1  0  0  0  0
 21 22  2  0  0  0  0
 21 23  1  0  0  0  0
 19 20  1  0  0  0  0
 17 18  2  0  0  0  0
 17 19  1  0  0  0  0
 14 15  1  0  0  0  0
 14 16  1  0  0  0  0
 14 17  1  0  0  0  0
 11 12  1  0  0  0  0
 11 13  1  0  0  0  0
 11 14  1  0  0  0  0
  9 10  1  0  0  0  0
  9 11  1  0  0  0  0
  9 21  1  0  0  0  0
  7  8  1  0  0  0  0
  7  9  1  0  0  0  0
 25 26  1  0  0  0  0
 25 27  1  0  0  0  0
 25 28  1  0  0  0  0
 23 24  1  0  0  0  0
 23 25  1  0  0  0  0
M  END
$$$$
default_name
  -OEChem-02102213163D

 28 27  0     1  0  0  0  0  0999 V2000
   -3.2133   -3.5565    1.2809 H   0  0  0  0  0  0  0  0  0  0  0  0
   -3.1873   -2.5755    0.8089 C   0  0  0  0  0  0  0  0  0  0  0  0
   -3.8793   -1.9065    1.3169 H   0  0  0  0  0  0  0  0  0  0  0  0
   -3.4623   -2.6685   -0.2401 H   0  0  0  0  0  0  0  0  0  0  0  0
   -1.7863   -2.0195    0.9119 C   0  0  0  0  0  0  0  0  0  0  0  0
   -0.9073   -2.6615    1.4699 O   0  0  0  0  0  0  0  0  0  0  0  0
   -1.5803   -0.8195    0.3749 N   0  0  0  0  0  0  0  0  0  0  0  0
   -2.3603   -0.3345   -0.0451 H   0  0  0  0  0  0  0  0  0  0  0  0
   -0.2933   -0.1205    0.3719 C   0  0  1  0  0  0  0  0  0  0  0  0
    0.3577   -0.5843    1.1143 H   0  0  0  0  0  0  0  0  0  0  0  0
    0.3613   -0.2794   -1.0156 C   0  0  0  0  0  0  0  0  0  0  0  0
    0.7628    0.6905   -1.3142 H   0  0  0  0  0  0  0  0  0  0  0  0
    1.1921   -0.9828   -0.9431 H   0  0  0  0  0  0  0  0  0  0  0  0
   -0.6037   -0.7737   -2.1072 C   0  0  0  0  0  0  0  0  0  0  0  0
   -1.3796   -1.3969   -1.6624 H   0  0  0  0  0  0  0  0  0  0  0  0
   -1.0690    0.0854   -2.5891 H   0  0  0  0  0  0  0  0  0  0  0  0
    0.1076   -1.5911   -3.1806 C   0  0  0  0  0  0  0  0  0  0  0  0
    1.3165   -1.7382   -3.2628 O   0  0  0  0  0  0  0  0  0  0  0  0
   -0.6934   -2.1690   -4.0951 O   0  0  0  0  0  0  0  0  0  0  0  0
   -0.1011   -2.6260   -4.6948 H   0  0  0  0  0  0  0  0  0  0  0  0
   -0.4860    1.3537    0.7622 C   0  0  0  0  0  0  0  0  0  0  0  0
   -1.3956    2.0096    0.2582 O   0  0  0  0  0  0  0  0  0  0  0  0
    0.3741    1.8728    1.6466 N   0  0  0  0  0  0  0  0  0  0  0  0
    1.0814    1.2667    2.0345 H   0  0  0  0  0  0  0  0  0  0  0  0
    0.3380    3.2610    2.1024 C   0  0  0  0  0  0  0  0  0  0  0  0
   -0.6389    3.4820    2.5363 H   0  0  0  0  0  0  0  0  0  0  0  0
    1.1108    3.4337    2.8528 H   0  0  0  0  0  0  0  0  0  0  0  0
    0.5009    3.9312    1.2562 H   0  0  0  0  0  0  0  0  0  0  0  0
  5  6  2  0  0  0  0
  5  7  1  0  0  0  0
  2  3  1  0  0  0  0
  2  4  1  0  0  0  0
  2  5  1  0  0  0  0
  1  2  1  0  0  0  0
 21 22  2  0  0  0  0
 21 23  1  0  0  0  0
 19 20  1  0  0  0  0
 17 18  2  0  0  0  0
 17 19  1  0  0  0  0
 14 15  1  0  0  0  0
 14 16  1  0  0  0  0
 14 17  1  0  0  0  0
 11 12  1  0  0  0  0
 11 13  1  0  0  0  0
 11 14  1  0  0  0  0
  9 10  1  0  0  0  0
  9 11  1  0  0  0  0
  9 21  1  0  0  0  0
  7  8  1  0  0  0  0
  7  9  1  0  0  0  0
 25 26  1  0  0  0  0
 25 27  1  0  0  0  0
 25 28  1  0  0  0  0
 23 24  1  0  0  0  0
 23 25  1  0  0  0  0
M  END
$$$$
default_name
  -OEChem-02102213163D

 28 27  0     1  0  0  0  0  0999 V2000
   -3.2133   -3.5565    1.2809 H   0  0  0  0  0  0  0  0  0  0  0  0
   -3.1873   -2.5755    0.8089 C   0  0  0  0  0  0  0  0  0  0  0  0
   -3.8793   -1.9065    1.3169 H   0  0  0  0  0  0  0  0  0  0  0  0
   -3.4623   -2.6685   -0.2401 H   0  0  0  0  0  0  0  0  0  0  0  0
   -1.7863   -2.0195    0.9119 C   0  0  0  0  0  0  0  0  0  0  0  0
   -0.9073   -2.6615    1.4699 O   0  0  0  0  0  0  0  0  0  0  0  0
   -1.5803   -0.8195    0.3749 N   0  0  0  0  0  0  0  0  0  0  0  0
   -2.3603   -0.3345   -0.0451 H   0  0  0  0  0  0  0  0  0  0  0  0
   -0.2933   -0.1205    0.3719 C   0  0  1  0  0  0  0  0  0  0  0  0
    0.3577   -0.5843    1.1143 H   0  0  0  0  0  0  0  0  0  0  0  0
    0.3613   -0.2794   -1.0156 C   0  0  0  0  0  0  0  0  0  0  0  0
    0.7628    0.6905   -1.3142 H   0  0  0  0  0  0  0  0  0  0  0  0
    1.1921   -0.9828   -0.9431 H   0  0  0  0  0  0  0  0  0  0  0  0
   -0.6037   -0.7737   -2.1072 C   0  0  0  0  0  0  0  0  0  0  0  0
   -1.5125   -1.1650   -1.6499 H   0  0  0  0  0  0  0  0  0  0  0  0
   -0.8630    0.0594   -2.7595 H   0  0  0  0  0  0  0  0  0  0  0  0
    0.0101   -1.8745   -2.9662 C   0  0  0  0  0  0  0  0  0  0  0  0
    1.1716   -2.2448   -2.9054 O   0  0  0  0  0  0  0  0  0  0  0  0
   -0.8222   -2.4486   -3.8546 O   0  0  0  0  0  0  0  0  0  0  0  0
   -0.2885   -3.0984   -4.3153 H   0  0  0  0  0  0  0  0  0  0  0  0
   -0.4860    1.3537    0.7622 C   0  0  0  0  0  0  0  0  0  0  0  0
   -1.3956    2.0096    0.2582 O   0  0  0  0  0  0  0  0  0  0  0  0
    0.3741    1.8728    1.6466 N   0  0  0  0  0  0  0  0  0  0  0  0
    1.0814    1.2667    2.0345 H   0  0  0  0  0  0  0  0  0  0  0  0
    0.3380    3.2610    2.1024 C   0  0  0  0  0  0  0  0  0  0  0  0
   -0.6389    3.4820    2.5363 H   0  0  0  0  0  0  0  0  0  0  0  0
    1.1108    3.4337    2.8528 H   0  0  0  0  0  0  0  0  0  0  0  0
    0.5009    3.9312    1.2562 H   0  0  0  0  0  0  0  0  0  0  0  0
  5  6  2  0  0  0  0
  5  7  1  0  0  0  0
  2  3  1  0  0  0  0
  2  4  1  0  0  0  0
  2  5  1  0  0  0  0
  1  2  1  0  0  0  0
 21 22  2  0  0  0  0
 21 23  1  0  0  0  0
 19 20  1  0  0  0  0
 17 18  2  0  0  0  0
 17 19  1  0  0  0  0
 14 15  1  0  0  0  0
 14 16  1  0  0  0  0
 14 17  1  0  0  0  0
 11 12  1  0  0  0  0
 11 13  1  0  0  0  0
 11 14  1  0  0  0  0
  9 10  1  0  0  0  0
  9 11  1  0  0  0  0
  9 21  1  0  0  0  0
  7  8  1  0  0  0  0
  7  9  1  0  0  0  0
 25 26  1  0  0  0  0
 25 27  1  0  0  0  0
 25 28  1  0  0  0  0
 23 24  1  0  0  0  0
 23 25  1  0  0  0  0
M  END
$$$$
default_name
  -OEChem-02102213163D

 28 27  0     1  0  0  0  0  0999 V2000
   -3.2133   -3.5565    1.2809 H   0  0  0  0  0  0  0  0  0  0  0  0
   -3.1873   -2.5755    0.8089 C   0  0  0  0  0  0  0  0  0  0  0  0
   -3.8793   -1.9065    1.3169 H   0  0  0  0  0  0  0  0  0  0  0  0
   -3.4623   -2.6685   -0.2401 H   0  0  0  0  0  0  0  0  0  0  0  0
   -1.7863   -2.0195    0.9119 C   0  0  0  0  0  0  0  0  0  0  0  0
   -0.9073   -2.6615    1.4699 O   0  0  0  0  0  0  0  0  0  0  0  0
   -1.5803   -0.8195    0.3749 N   0  0  0  0  0  0  0  0  0  0  0  0
   -2.3603   -0.3345   -0.0451 H   0  0  0  0  0  0  0  0  0  0  0  0
   -0.2933   -0.1205    0.3719 C   0  0  1  0  0  0  0  0  0  0  0  0
    0.3577   -0.5843    1.1143 H   0  0  0  0  0  0  0  0  0  0  0  0
    0.3613   -0.2794   -1.0156 C   0  0  0  0  0  0  0  0  0  0  0  0
    0.7628    0.6905   -1.3142 H   0  0  0  0  0  0  0  0  0  0  0  0
    1.1921   -0.9828   -0.9431 H   0  0  0  0  0  0  0  0  0  0  0  0
   -0.6037   -0.7737   -2.1072 C   0  0  0  0  0  0  0  0  0  0  0  0
   -1.5993   -0.9146   -1.6865 H   0  0  0  0  0  0  0  0  0  0  0  0
   -0.6546   -0.0312   -2.9027 H   0  0  0  0  0  0  0  0  0  0  0  0
   -0.1539   -2.0955   -2.7212 C   0  0  0  0  0  0  0  0  0  0  0  0
    0.9089   -2.6494   -2.4900 O   0  0  0  0  0  0  0  0  0  0  0  0
   -1.0180   -2.6561   -3.5876 O   0  0  0  0  0  0  0  0  0  0  0  0
   -0.5878   -3.4587   -3.8876 H   0  0  0  0  0  0  0  0  0  0  0  0
   -0.4860    1.3537    0.7622 C   0  0  0  0  0  0  0  0  0  0  0  0
   -1.3956    2.0096    0.2582 O   0  0  0  0  0  0  0  0  0  0  0  0
    0.3741    1.8728    1.6466 N   0  0  0  0  0  0  0  0  0  0  0  0
    1.0814    1.2667    2.0345 H   0  0  0  0  0  0  0  0  0  0  0  0
    0.3380    3.2610    2.1024 C   0  0  0  0  0  0  0  0  0  0  0  0
   -0.6389    3.4820    2.5363 H   0  0  0  0  0  0  0  0  0  0  0  0
    1.1108    3.4337    2.8528 H   0  0  0  0  0  0  0  0  0  0  0  0
    0.5009    3.9312    1.2562 H   0  0  0  0  0  0  0  0  0  0  0  0
  5  6  2  0  0  0  0
  5  7  1  0  0  0  0
  2  3  1  0  0  0  0
  2  4  1  0  0  0  0
  2  5  1  0  0  0  0
  1  2  1  0  0  0  0
 21 22  2  0  0  0  0
 21 23  1  0  0  0  0
 19 20  1  0  0  0  0
 17 18  2  0  0  0  0
 17 19  1  0  0  0  0
 14 15  1  0  0  0  0
 14 16  1  0  0  0  0
 14 17  1  0  0  0  0
 11 12  1  0  0  0  0
 11 13  1  0  0  0  0
 11 14  1  0  0  0  0
  9 10  1  0  0  0  0
  9 11  1  0  0  0  0
  9 21  1  0  0  0  0
  7  8  1  0  0  0  0
  7  9  1  0  0  0  0
 25 26  1  0  0  0  0
 25 27  1  0  0  0  0
 25 28  1  0  0  0  0
 23 24  1  0  0  0  0
 23 25  1  0  0  0  0
M  END
$$$$
default_name
  -OEChem-02102213163D

 28 27  0     1  0  0  0  0  0999 V2000
   -3.2133   -3.5565    1.2809 H   0  0  0  0  0  0  0  0  0  0  0  0
   -3.1873   -2.5755    0.8089 C   0  0  0  0  0  0  0  0  0  0  0  0
   -3.8793   -1.9065    1.3169 H   0  0  0  0  0  0  0  0  0  0  0  0
   -3.4623   -2.6685   -0.2401 H   0  0  0  0  0  0  0  0  0  0  0  0
   -1.7863   -2.0195    0.9119 C   0  0  0  0  0  0  0  0  0  0  0  0
   -0.9073   -2.6615    1.4699 O   0  0  0  0  0  0  0  0  0  0  0  0
   -1.5803   -0.8195    0.3749 N   0  0  0  0  0  0  0  0  0  0  0  0
   -2.3603   -0.3345   -0.0451 H   0  0  0  0  0  0  0  0  0  0  0  0
   -0.2933   -0.1205    0.3719 C   0  0  1  0  0  0  0  0  0  0  0  0
    0.3577   -0.5843    1.1143 H   0  0  0  0  0  0  0  0  0  0  0  0
    0.3613   -0.2794   -1.0156 C   0  0  0  0  0  0  0  0  0  0  0  0
    0.7628    0.6905   -1.3142 H   0  0  0  0  0  0  0  0  0  0  0  0
    1.1921   -0.9828   -0.9431 H   0  0  0  0  0  0  0  0  0  0  0  0
   -0.6037   -0.7737   -2.1072 C   0  0  0  0  0  0  0  0  0  0  0  0
   -1.6342   -0.6628   -1.7697 H   0  0  0  0  0  0  0  0  0  0  0  0
   -0.4580   -0.1802   -3.0090 H   0  0  0  0  0  0  0  0  0  0  0  0
   -0.3733   -2.2390   -2.4623 C   0  0  0  0  0  0  0  0  0  0  0  0
    0.5463   -2.9246   -2.0449 O   0  0  0  0  0  0  0  0  0  0  0  0
   -1.2674   -2.7771   -3.3124 O   0  0  0  0  0  0  0  0  0  0  0  0
   -0.9786   -3.6823   -3.4409 H   0  0  0  0  0  0  0  0  0  0  0  0
   -0.4860    1.3537    0.7622 C   0  0  0  0  0  0  0  0  0  0  0  0
   -1.3956    2.0096    0.2582 O   0  0  0  0  0  0  0  0  0  0  0  0
    0.3741    1.8728    1.6466 N   0  0  0  0  0  0  0  0  0  0  0  0
    1.0814    1.2667    2.0345 H   0  0  0  0  0  0  0  0  0  0  0  0
    0.3380    3.2610    2.1024 C   0  0  0  0  0  0  0  0  0  0  0  0
   -0.6389    3.4820    2.5363 H   0  0  0  0  0  0  0  0  0  0  0  0
    1.1108    3.4337    2.8528 H   0  0  0  0  0  0  0  0  0  0  0  0
    0.5009    3.9312    1.2562 H   0  0  0  0  0  0  0  0  0  0  0  0
  5  6  2  0  0  0  0
  5  7  1  0  0  0  0
  2  3  1  0  0  0  0
  2  4  1  0  0  0  0
  2  5  1  0  0  0  0
  1  2  1  0  0  0  0
 21 22  2  0  0  0  0
 21 23  1  0  0  0  0
 19 20  1  0  0  0  0
 17 18  2  0  0  0  0
 17 19  1  0  0  0  0
 14 15  1  0  0  0  0
 14 16  1  0  0  0  0
 14 17  1  0  0  0  0
 11 12  1  0  0  0  0
 11 13  1  0  0  0  0
 11 14  1  0  0  0  0
  9 10  1  0  0  0  0
  9 11  1  0  0  0  0
  9 21  1  0  0  0  0
  7  8  1  0  0  0  0
  7  9  1  0  0  0  0
 25 26  1  0  0  0  0
 25 27  1  0  0  0  0
 25 28  1  0  0  0  0
 23 24  1  0  0  0  0
 23 25  1  0  0  0  0
M  END
$$$$
default_name
  -OEChem-02102213163D

 28 27  0     1  0  0  0  0  0999 V2000
   -3.2133   -3.5565    1.2809 H   0  0  0  0  0  0  0  0  0  0  0  0
   -3.1873   -2.5755    0.8089 C   0  0  0  0  0  0  0  0  0  0  0  0
   -3.8793   -1.9065    1.3169 H   0  0  0  0  0  0  0  0  0  0  0  0
   -3.4623   -2.6685   -0.2401 H   0  0  0  0  0  0  0  0  0  0  0  0
   -1.7863   -2.0195    0.9119 C   0  0  0  0  0  0  0  0  0  0  0  0
   -0.9073   -2.6615    1.4699 O   0  0  0  0  0  0  0  0  0  0  0  0
   -1.5803   -0.8195    0.3749 N   0  0  0  0  0  0  0  0  0  0  0  0
   -2.3603   -0.3345   -0.0451 H   0  0  0  0  0  0  0  0  0  0  0  0
   -0.2933   -0.1205    0.3719 C   0  0  1  0  0  0  0  0  0  0  0  0
    0.3577   -0.5843    1.1143 H   0  0  0  0  0  0  0  0  0  0  0  0
    0.3613   -0.2794   -1.0156 C   0  0  0  0  0  0  0  0  0  0  0  0
    0.7628    0.6905   -1.3142 H   0  0  0  0  0  0  0  0  0  0  0  0
    1.1921   -0.9828   -0.9431 H   0  0  0  0  0  0  0  0  0  0  0  0
   -0.6037   -0.7737   -2.1072 C   0  0  0  0  0  0  0  0  0  0  0  0
   -1.6147   -0.4266   -1.8938 H   0  0  0  0  0  0  0  0  0  0  0  0
   -0.2866   -0.3774   -3.0711 H   0  0  0  0  0  0  0  0  0  0  0  0
   -0.6330   -2.2954   -2.2071 C   0  0  0  0  0  0  0  0  0  0  0  0
    0.1086   -3.0516   -1.6005 O   0  0  0  0  0  0  0  0  0  0  0  0
   -1.5534   -2.8036   -3.0476 O   0  0  0  0  0  0  0  0  0  0  0  0
   -1.4342   -3.7540   -3.0057 H   0  0  0  0  0  0  0  0  0  0  0  0
   -0.4860    1.3537    0.7622 C   0  0  0  0  0  0  0  0  0  0  0  0
   -1.3956    2.0096    0.2582 O   0  0  0  0  0  0  0  0  0  0  0  0
    0.3741    1.8728    1.6466 N   0  0  0  0  0  0  0  0  0  0  0  0
    1.0814    1.2667    2.0345 H   0  0  0  0  0  0  0  0  0  0  0  0
    0.3380    3.2610    2.1024 C   0  0  0  0  0  0  0  0  0  0  0  0
   -0.6389    3.4820    2.5363 H   0  0  0  0  0  0  0  0  0  0  0  0
    1.1108    3.4337    2.8528 H   0  0  0  0  0  0  0  0  0  0  0  0
    0.5009    3.9312    1.2562 H   0  0  0  0  0  0  0  0  0  0  0  0
  5  6  2  0  0  0  0
  5  7  1  0  0  0  0
  2  3  1  0  0  0  0
  2  4  1  0  0  0  0
  2  5  1  0  0  0  0
  1  2  1  0  0  0  0
 21 22  2  0  0  0  0
 21 23  1  0  0  0  0
 19 20  1  0  0  0  0
 17 18  2  0  0  0  0
 17 19  1  0  0  0  0
 14 15  1  0  0  0  0
 14 16  1  0  0  0  0
 14 17  1  0  0  0  0
 11 12  1  0  0  0  0
 11 13  1  0  0  0  0
 11 14  1  0  0  0  0
  9 10  1  0  0  0  0
  9 11  1  0  0  0  0
  9 21  1  0  0  0  0
  7  8  1  0  0  0  0
  7  9  1  0  0  0  0
 25 26  1  0  0  0  0
 25 27  1  0  0  0  0
 25 28  1  0  0  0  0
 23 24  1  0  0  0  0
 23 25  1  0  0  0  0
M  END
$$$$
default_name
  -OEChem-02102213163D

 28 27  0     1  0  0  0  0  0999 V2000
   -3.2133   -3.5565    1.2809 H   0  0  0  0  0  0  0  0  0  0  0  0
   -3.1873   -2.5755    0.8089 C   0  0  0  0  0  0  0  0  0  0  0  0
   -3.8793   -1.9065    1.3169 H   0  0  0  0  0  0  0  0  0  0  0  0
   -3.4623   -2.6685   -0.2401 H   0  0  0  0  0  0  0  0  0  0  0  0
   -1.7863   -2.0195    0.9119 C   0  0  0  0  0  0  0  0  0  0  0  0
   -0.9073   -2.6615    1.4699 O   0  0  0  0  0  0  0  0  0  0  0  0
   -1.5803   -0.8195    0.3749 N   0  0  0  0  0  0  0  0  0  0  0  0
   -2.3603   -0.3345   -0.0451 H   0  0  0  0  0  0  0  0  0  0  0  0
   -0.2933   -0.1205    0.3719 C   0  0  1  0  0  0  0  0  0  0  0  0
    0.3577   -0.5843    1.1143 H   0  0  0  0  0  0  0  0  0  0  0  0
    0.3613   -0.2794   -1.0156 C   0  0  0  0  0  0  0  0  0  0  0  0
    0.7628    0.6905   -1.3142 H   0  0  0  0  0  0  0  0  0  0  0  0
    1.1921   -0.9828   -0.9431 H   0  0  0  0  0  0  0  0  0  0  0  0
   -0.6037   -0.7737   -2.1072 C   0  0  0  0  0  0  0  0  0  0  0  0
   -1.5422   -0.2222   -2.0505 H   0  0  0  0  0  0  0  0  0  0  0  0
   -0.1522   -0.6096   -3.0849 H   0  0  0  0  0  0  0  0  0  0  0  0
   -0.9155   -2.2607   -1.9731 C   0  0  0  0  0  0  0  0  0  0  0  0
   -0.3745   -3.0217   -1.1869 O   0  0  0  0  0  0  0  0  0  0  0  0
   -1.8565   -2.7336   -2.8113 O   0  0  0  0  0  0  0  0  0  0  0  0
   -1.9238   -3.6689   -2.6115 H   0  0  0  0  0  0  0  0  0  0  0  0
   -0.4860    1.3537    0.7622 C   0  0  0  0  0  0  0  0  0  0  0  0
   -1.3956    2.0096    0.2582 O   0  0  0  0  0  0  0  0  0  0  0  0
    0.3741    1.8728    1.6466 N   0  0  0  0  0  0  0  0  0  0  0  0
    1.0814    1.2667    2.0345 H   0  0  0  0  0  0  0  0  0  0  0  0
    0.3380    3.2610    2.1024 C   0  0  0  0  0  0  0  0  0  0  0  0
   -0.6389    3.4820    2.5363 H   0  0  0  0  0  0  0  0  0  0  0  0
    1.1108    3.4337    2.8528 H   0  0  0  0  0  0  0  0  0  0  0  0
    0.5009    3.9312    1.2562 H   0  0  0  0  0  0  0  0  0  0  0  0
  5  6  2  0  0  0  0
  5  7  1  0  0  0  0
  2  3  1  0  0  0  0
  2  4  1  0  0  0  0
  2  5  1  0  0  0  0
  1  2  1  0  0  0  0
 21 22  2  0  0  0  0
 21 23  1  0  0  0  0
 19 20  1  0  0  0  0
 17 18  2  0  0  0  0
 17 19  1  0  0  0  0
 14 15  1  0  0  0  0
 14 16  1  0  0  0  0
 14 17  1  0  0  0  0
 11 12  1  0  0  0  0
 11 13  1  0  0  0  0
 11 14  1  0  0  0  0
  9 10  1  0  0  0  0
  9 11  1  0  0  0  0
  9 21  1  0  0  0  0
  7  8  1  0  0  0  0
  7  9  1  0  0  0  0
 25 26  1  0  0  0  0
 25 27  1  0  0  0  0
 25 28  1  0  0  0  0
 23 24  1  0  0  0  0
 23 25  1  0  0  0  0
M  END
$$$$
default_name
  -OEChem-02102213163D

 28 27  0     1  0  0  0  0  0999 V2000
   -3.2133   -3.5565    1.2809 H   0  0  0  0  0  0  0  0  0  0  0  0
   -3.1873   -2.5755    0.8089 C   0  0  0  0  0  0  0  0  0  0  0  0
   -3.8793   -1.9065    1.3169 H   0  0  0  0  0  0  0  0  0  0  0  0
   -3.4623   -2.6685   -0.2401 H   0  0  0  0  0  0  0  0  0  0  0  0
   -1.7863   -2.0195    0.9119 C   0  0  0  0  0  0  0  0  0  0  0  0
   -0.9073   -2.6615    1.4699 O   0  0  0  0  0  0  0  0  0  0  0  0
   -1.5803   -0.8195    0.3749 N   0  0  0  0  0  0  0  0  0  0  0  0
   -2.3603   -0.3345   -0.0451 H   0  0  0  0  0  0  0  0  0  0  0  0
   -0.2933   -0.1205    0.3719 C   0  0  1  0  0  0  0  0  0  0  0  0
    0.3577   -0.5843    1.1143 H   0  0  0  0  0  0  0  0  0  0  0  0
    0.3613   -0.2794   -1.0156 C   0  0  0  0  0  0  0  0  0  0  0  0
    0.7628    0.6905   -1.3142 H   0  0  0  0  0  0  0  0  0  0  0  0
    1.1921   -0.9828   -0.9431 H   0  0  0  0  0  0  0  0  0  0  0  0
   -0.6037   -0.7737   -2.1072 C   0  0  0  0  0  0  0  0  0  0  0  0
   -1.4216   -0.0635   -2.2290 H   0  0  0  0  0  0  0  0  0  0  0  0
   -0.0638   -0.8607   -3.0493 H   0  0  0  0  0  0  0  0  0  0  0  0
   -1.2015   -2.1373   -1.7762 C   0  0  0  0  0  0  0  0  0  0  0  0
   -0.8701   -2.8369   -0.8325 O   0  0  0  0  0  0  0  0  0  0  0  0
   -2.1562   -2.5720   -2.6196 O   0  0  0  0  0  0  0  0  0  0  0  0
   -2.4138   -3.4329   -2.2852 H   0  0  0  0  0  0  0  0  0  0  0  0
   -0.4860    1.3537    0.7622 C   0  0  0  0  0  0  0  0  0  0  0  0
   -1.3956    2.0096    0.2582 O   0  0  0  0  0  0  0  0  0  0  0  0
    0.3741    1.8728    1.6466 N   0  0  0  0  0  0  0  0  0  0  0  0
    1.0814    1.2667    2.0345 H   0  0  0  0  0  0  0  0  0  0  0  0
    0.3380    3.2610    2.1024 C   0  0  0  0  0  0  0  0  0  0  0  0
   -0.6389    3.4820    2.5363 H   0  0  0  0  0  0  0  0  0  0  0  0
    1.1108    3.4337    2.8528 H   0  0  0  0  0  0  0  0  0  0  0  0
    0.5009    3.9312    1.2562 H   0  0  0  0  0  0  0  0  0  0  0  0
  5  6  2  0  0  0  0
  5  7  1  0  0  0  0
  2  3  1  0  0  0  0
  2  4  1  0  0  0  0
  2  5  1  0  0  0  0
  1  2  1  0  0  0  0
 21 22  2  0  0  0  0
 21 23  1  0  0  0  0
 19 20  1  0  0  0  0
 17 18  2  0  0  0  0
 17 19  1  0  0  0  0
 14 15  1  0  0  0  0
 14 16  1  0  0  0  0
 14 17  1  0  0  0  0
 11 12  1  0  0  0  0
 11 13  1  0  0  0  0
 11 14  1  0  0  0  0
  9 10  1  0  0  0  0
  9 11  1  0  0  0  0
  9 21  1  0  0  0  0
  7  8  1  0  0  0  0
  7  9  1  0  0  0  0
 25 26  1  0  0  0  0
 25 27  1  0  0  0  0
 25 28  1  0  0  0  0
 23 24  1  0  0  0  0
 23 25  1  0  0  0  0
M  END
$$$$
default_name
  -OEChem-02102213163D

 28 27  0     1  0  0  0  0  0999 V2000
   -3.2133   -3.5565    1.2809 H   0  0  0  0  0  0  0  0  0  0  0  0
   -3.1873   -2.5755    0.8089 C   0  0  0  0  0  0  0  0  0  0  0  0
   -3.8793   -1.9065    1.3169 H   0  0  0  0  0  0  0  0  0  0  0  0
   -3.4623   -2.6685   -0.2401 H   0  0  0  0  0  0  0  0  0  0  0  0
   -1.7863   -2.0195    0.9119 C   0  0  0  0  0  0  0  0  0  0  0  0
   -0.9073   -2.6615    1.4699 O   0  0  0  0  0  0  0  0  0  0  0  0
   -1.5803   -0.8195    0.3749 N   0  0  0  0  0  0  0  0  0  0  0  0
   -2.3603   -0.3345   -0.0451 H   0  0  0  0  0  0  0  0  0  0  0  0
   -0.2933   -0.1205    0.3719 C   0  0  1  0  0  0  0  0  0  0  0  0
    0.3577   -0.5843    1.1143 H   0  0  0  0  0  0  0  0  0  0  0  0
    0.3613   -0.2794   -1.0156 C   0  0  0  0  0  0  0  0  0  0  0  0
    0.7628    0.6905   -1.3142 H   0  0  0  0  0  0  0  0  0  0  0  0
    1.1921   -0.9828   -0.9431 H   0  0  0  0  0  0  0  0  0  0  0  0
   -0.6037   -0.7737   -2.1072 C   0  0  0  0  0  0  0  0  0  0  0  0
   -1.2611    0.0387   -2.4171 H   0  0  0  0  0  0  0  0  0  0  0  0
   -0.0275   -1.1137   -2.9669 H   0  0  0  0  0  0  0  0  0  0  0  0
   -1.4714   -1.9337   -1.6298 C   0  0  0  0  0  0  0  0  0  0  0  0
   -1.3443   -2.5100   -0.5614 O   0  0  0  0  0  0  0  0  0  0  0  0
   -2.4318   -2.3298   -2.4856 O   0  0  0  0  0  0  0  0  0  0  0  0
   -2.8708   -3.0619   -2.0491 H   0  0  0  0  0  0  0  0  0  0  0  0
   -0.4860    1.3537    0.7622 C   0  0  0  0  0  0  0  0  0  0  0  0
   -1.3956    2.0096    0.2582 O   0  0  0  0  0  0  0  0  0  0  0  0
    0.3741    1.8728    1.6466 N   0  0  0  0  0  0  0  0  0  0  0  0
    1.0814    1.2667    2.0345 H   0  0  0  0  0  0  0  0  0  0  0  0
    0.3380    3.2610    2.1024 C   0  0  0  0  0  0  0  0  0  0  0  0
   -0.6389    3.4820    2.5363 H   0  0  0  0  0  0  0  0  0  0  0  0
    1.1108    3.4337    2.8528 H   0  0  0  0  0  0  0  0  0  0  0  0
    0.5009    3.9312    1.2562 H   0  0  0  0  0  0  0  0  0  0  0  0
  5  6  2  0  0  0  0
  5  7  1  0  0  0  0
  2  3  1  0  0  0  0
  2  4  1  0  0  0  0
  2  5  1  0  0  0  0
  1  2  1  0  0  0  0
 21 22  2  0  0  0  0
 21 23  1  0  0  0  0
 19 20  1  0  0  0  0
 17 18  2  0  0  0  0
 17 19  1  0  0  0  0
 14 15  1  0  0  0  0
 14 16  1  0  0  0  0
 14 17  1  0  0  0  0
 11 12  1  0  0  0  0
 11 13  1  0  0  0  0
 11 14  1  0  0  0  0
  9 10  1  0  0  0  0
  9 11  1  0  0  0  0
  9 21  1  0  0  0  0
  7  8  1  0  0  0  0
  7  9  1  0  0  0  0
 25 26  1  0  0  0  0
 25 27  1  0  0  0  0
 25 28  1  0  0  0  0
 23 24  1  0  0  0  0
 23 25  1  0  0  0  0
M  END
$$$$
default_name
  -OEChem-02102213163D

 28 27  0     1  0  0  0  0  0999 V2000
   -3.2133   -3.5565    1.2809 H   0  0  0  0  0  0  0  0  0  0  0  0
   -3.1873   -2.5755    0.8089 C   0  0  0  0  0  0  0  0  0  0  0  0
   -3.8793   -1.9065    1.3169 H   0  0  0  0  0  0  0  0  0  0  0  0
   -3.4623   -2.6685   -0.2401 H   0  0  0  0  0  0  0  0  0  0  0  0
   -1.7863   -2.0195    0.9119 C   0  0  0  0  0  0  0  0  0  0  0  0
   -0.9073   -2.6615    1.4699 O   0  0  0  0  0  0  0  0  0  0  0  0
   -1.5803   -0.8195    0.3749 N   0  0  0  0  0  0  0  0  0  0  0  0
   -2.3603   -0.3345   -0.0451 H   0  0  0  0  0  0  0  0  0  0  0  0
   -0.2933   -0.1205    0.3719 C   0  0  1  0  0  0  0  0  0  0  0  0
    0.3577   -0.5843    1.1143 H   0  0  0  0  0  0  0  0  0  0  0  0
    0.3613   -0.2794   -1.0156 C   0  0  0  0  0  0  0  0  0  0  0  0
    0.7628    0.6905   -1.3142 H   0  0  0  0  0  0  0  0  0  0  0  0
    1.1921   -0.9828   -0.9431 H   0  0  0  0  0  0  0  0  0  0  0  0
   -0.6037   -0.7737   -2.1072 C   0  0  0  0  0  0  0  0  0  0  0  0
   -1.0717    0.0774   -2.6020 H   0  0  0  0  0  0  0  0  0  0  0  0
   -0.0457   -1.3514   -2.8431 H   0  0  0  0  0  0  0  0  0  0  0  0
   -1.7069   -1.6636   -1.5439 C   0  0  0  0  0  0  0  0  0  0  0  0
   -1.7649   -2.0631   -0.3920 O   0  0  0  0  0  0  0  0  0  0  0  0
   -2.6648   -2.0234   -2.4184 O   0  0  0  0  0  0  0  0  0  0  0  0
   -3.2638   -2.5814   -1.9193 H   0  0  0  0  0  0  0  0  0  0  0  0
   -0.4860    1.3537    0.7622 C   0  0  0  0  0  0  0  0  0  0  0  0
   -1.3956    2.0096    0.2582 O   0  0  0  0  0  0  0  0  0  0  0  0
    0.3741    1.8728    1.6466 N   0  0  0  0  0  0  0  0  0  0  0  0
    1.0814    1.2667    2.0345 H   0  0  0  0  0  0  0  0  0  0  0  0
    0.3380    3.2610    2.1024 C   0  0  0  0  0  0  0  0  0  0  0  0
   -0.6389    3.4820    2.5363 H   0  0  0  0  0  0  0  0  0  0  0  0
    1.1108    3.4337    2.8528 H   0  0  0  0  0  0  0  0  0  0  0  0
    0.5009    3.9312    1.2562 H   0  0  0  0  0  0  0  0  0  0  0  0
  5  6  2  0  0  0  0
  5  7  1  0  0  0  0
  2  3  1  0  0  0  0
  2  4  1  0  0  0  0
  2  5  1  0  0  0  0
  1  2  1  0  0  0  0
 21 22  2  0  0  0  0
 21 23  1  0  0  0  0
 19 20  1  0  0  0  0
 17 18  2  0  0  0  0
 17 19  1  0  0  0  0
 14 15  1  0  0  0  0
 14 16  1  0  0  0  0
 14 17  1  0  0  0  0
 11 12  1  0  0  0  0
 11 13  1  0  0  0  0
 11 14  1  0  0  0  0
  9 10  1  0  0  0  0
  9 11  1  0  0  0  0
  9 21  1  0  0  0  0
  7  8  1  0  0  0  0
  7  9  1  0  0  0  0
 25 26  1  0  0  0  0
 25 27  1  0  0  0  0
 25 28  1  0  0  0  0
 23 24  1  0  0  0  0
 23 25  1  0  0  0  0
M  END
$$$$
default_name
  -OEChem-02102213163D

 28 27  0     1  0  0  0  0  0999 V2000
   -3.2133   -3.5565    1.2809 H   0  0  0  0  0  0  0  0  0  0  0  0
   -3.1873   -2.5755    0.8089 C   0  0  0  0  0  0  0  0  0  0  0  0
   -3.8793   -1.9065    1.3169 H   0  0  0  0  0  0  0  0  0  0  0  0
   -3.4623   -2.6685   -0.2401 H   0  0  0  0  0  0  0  0  0  0  0  0
   -1.7863   -2.0195    0.9119 C   0  0  0  0  0  0  0  0  0  0  0  0
   -0.9073   -2.6615    1.4699 O   0  0  0  0  0  0  0  0  0  0  0  0
   -1.5803   -0.8195    0.3749 N   0  0  0  0  0  0  0  0  0  0  0  0
   -2.3603   -0.3345   -0.0451 H   0  0  0  0  0  0  0  0  0  0  0  0
   -0.2933   -0.1205    0.3719 C   0  0  1  0  0  0  0  0  0  0  0  0
    0.3577   -0.5843    1.1143 H   0  0  0  0  0  0  0  0  0  0  0  0
    0.3613   -0.2794   -1.0156 C   0  0  0  0  0  0  0  0  0  0  0  0
    0.7628    0.6905   -1.3142 H   0  0  0  0  0  0  0  0  0  0  0  0
    1.1921   -0.9828   -0.9431 H   0  0  0  0  0  0  0  0  0  0  0  0
   -0.6037   -0.7737   -2.1072 C   0  0  0  0  0  0  0  0  0  0  0  0
   -0.8663    0.0500   -2.7712 H   0  0  0  0  0  0  0  0  0  0  0  0
   -0.1173   -1.5576   -2.6865 H   0  0  0  0  0  0  0  0  0  0  0  0
   -1.8919   -1.3456   -1.5243 C   0  0  0  0  0  0  0  0  0  0  0  0
   -2.1031   -1.5266   -0.3359 O   0  0  0  0  0  0  0  0  0  0  0  0
   -2.8391   -1.6738   -2.4226 O   0  0  0  0  0  0  0  0  0  0  0  0
   -3.5660   -2.0239   -1.9046 H   0  0  0  0  0  0  0  0  0  0  0  0
   -0.4860    1.3537    0.7622 C   0  0  0  0  0  0  0  0  0  0  0  0
   -1.3956    2.0096    0.2582 O   0  0  0  0  0  0  0  0  0  0  0  0
    0.3741    1.8728    1.6466 N   0  0  0  0  0  0  0  0  0  0  0  0
    1.0814    1.2667    2.0345 H   0  0  0  0  0  0  0  0  0  0  0  0
    0.3380    3.2610    2.1024 C   0  0  0  0  0  0  0  0  0  0  0  0
   -0.6389    3.4820    2.5363 H   0  0  0  0  0  0  0  0  0  0  0  0
    1.1108    3.4337    2.8528 H   0  0  0  0  0  0  0  0  0  0  0  0
    0.5009    3.9312    1.2562 H   0  0  0  0  0  0  0  0  0  0  0  0
  5  6  2  0  0  0  0
  5  7  1  0  0  0  0
  2  3  1  0  0  0  0
  2  4  1  0  0  0  0
  2  5  1  0  0  0  0
  1  2  1  0  0  0  0
 21 22  2  0  0  0  0
 21 23  1  0  0  0  0
 19 20  1  0  0  0  0
 17 18  2  0  0  0  0
 17 19  1  0  0  0  0
 14 15  1  0  0  0  0
 14 16  1  0  0  0  0
 14 17  1  0  0  0  0
 11 12  1  0  0  0  0
 11 13  1  0  0  0  0
 11 14  1  0  0  0  0
  9 10  1  0  0  0  0
  9 11  1  0  0  0  0
  9 21  1  0  0  0  0
  7  8  1  0  0  0  0
  7  9  1  0  0  0  0
 25 26  1  0  0  0  0
 25 27  1  0  0  0  0
 25 28  1  0  0  0  0
 23 24  1  0  0  0  0
 23 25  1  0  0  0  0
M  END
$$$$
default_name
  -OEChem-02102213163D

 28 27  0     1  0  0  0  0  0999 V2000
   -3.2133   -3.5565    1.2809 H   0  0  0  0  0  0  0  0  0  0  0  0
   -3.1873   -2.5755    0.8089 C   0  0  0  0  0  0  0  0  0  0  0  0
   -3.8793   -1.9065    1.3169 H   0  0  0  0  0  0  0  0  0  0  0  0
   -3.4623   -2.6685   -0.2401 H   0  0  0  0  0  0  0  0  0  0  0  0
   -1.7863   -2.0195    0.9119 C   0  0  0  0  0  0  0  0  0  0  0  0
   -0.9073   -2.6615    1.4699 O   0  0  0  0  0  0  0  0  0  0  0  0
   -1.5803   -0.8195    0.3749 N   0  0  0  0  0  0  0  0  0  0  0  0
   -2.3603   -0.3345   -0.0451 H   0  0  0  0  0  0  0  0  0  0  0  0
   -0.2933   -0.1205    0.3719 C   0  0  1  0  0  0  0  0  0  0  0  0
    0.3577   -0.5843    1.1143 H   0  0  0  0  0  0  0  0  0  0  0  0
    0.3613   -0.2794   -1.0156 C   0  0  0  0  0  0  0  0  0  0  0  0
    0.7628    0.6905   -1.3142 H   0  0  0  0  0  0  0  0  0  0  0  0
    1.1921   -0.9828   -0.9431 H   0  0  0  0  0  0  0  0  0  0  0  0
   -0.6037   -0.7737   -2.1072 C   0  0  0  0  0  0  0  0  0  0  0  0
   -0.6588   -0.0417   -2.9131 H   0  0  0  0  0  0  0  0  0  0  0  0
   -0.2373   -1.7181   -2.5077 H   0  0  0  0  0  0  0  0  0  0  0  0
   -2.0139   -1.0013   -1.5724 C   0  0  0  0  0  0  0  0  0  0  0  0
   -2.3360   -0.9373   -0.3968 O   0  0  0  0  0  0  0  0  0  0  0  0
   -2.9429   -1.3048   -2.4979 O   0  0  0  0  0  0  0  0  0  0  0  0
   -3.7567   -1.4276   -2.0060 H   0  0  0  0  0  0  0  0  0  0  0  0
   -0.4860    1.3537    0.7622 C   0  0  0  0  0  0  0  0  0  0  0  0
   -1.3956    2.0096    0.2582 O   0  0  0  0  0  0  0  0  0  0  0  0
    0.3741    1.8728    1.6466 N   0  0  0  0  0  0  0  0  0  0  0  0
    1.0814    1.2667    2.0345 H   0  0  0  0  0  0  0  0  0  0  0  0
    0.3380    3.2610    2.1024 C   0  0  0  0  0  0  0  0  0  0  0  0
   -0.6389    3.4820    2.5363 H   0  0  0  0  0  0  0  0  0  0  0  0
    1.1108    3.4337    2.8528 H   0  0  0  0  0  0  0  0  0  0  0  0
    0.5009    3.9312    1.2562 H   0  0  0  0  0  0  0  0  0  0  0  0
  5  6  2  0  0  0  0
  5  7  1  0  0  0  0
  2  3  1  0  0  0  0
  2  4  1  0  0  0  0
  2  5  1  0  0  0  0
  1  2  1  0  0  0  0
 21 22  2  0  0  0  0
 21 23  1  0  0  0  0
 19 20  1  0  0  0  0
 17 18  2  0  0  0  0
 17 19  1  0  0  0  0
 14 15  1  0  0  0  0
 14 16  1  0  0  0  0
 14 17  1  0  0  0  0
 11 12  1  0  0  0  0
 11 13  1  0  0  0  0
 11 14  1  0  0  0  0
  9 10  1  0  0  0  0
  9 11  1  0  0  0  0
  9 21  1  0  0  0  0
  7  8  1  0  0  0  0
  7  9  1  0  0  0  0
 25 26  1  0  0  0  0
 25 27  1  0  0  0  0
 25 28  1  0  0  0  0
 23 24  1  0  0  0  0
 23 25  1  0  0  0  0
M  END
$$$$
default_name
  -OEChem-02102213163D

 28 27  0     1  0  0  0  0  0999 V2000
   -3.2133   -3.5565    1.2809 H   0  0  0  0  0  0  0  0  0  0  0  0
   -3.1873   -2.5755    0.8089 C   0  0  0  0  0  0  0  0  0  0  0  0
   -3.8793   -1.9065    1.3169 H   0  0  0  0  0  0  0  0  0  0  0  0
   -3.4623   -2.6685   -0.2401 H   0  0  0  0  0  0  0  0  0  0  0  0
   -1.7863   -2.0195    0.9119 C   0  0  0  0  0  0  0  0  0  0  0  0
   -0.9073   -2.6615    1.4699 O   0  0  0  0  0  0  0  0  0  0  0  0
   -1.5803   -0.8195    0.3749 N   0  0  0  0  0  0  0  0  0  0  0  0
   -2.3603   -0.3345   -0.0451 H   0  0  0  0  0  0  0  0  0  0  0  0
   -0.2933   -0.1205    0.3719 C   0  0  1  0  0  0  0  0  0  0  0  0
    0.3577   -0.5843    1.1143 H   0  0  0  0  0  0  0  0  0  0  0  0
    0.3613   -0.2794   -1.0156 C   0  0  0  0  0  0  0  0  0  0  0  0
    0.7628    0.6905   -1.3142 H   0  0  0  0  0  0  0  0  0  0  0  0
    1.1921   -0.9828   -0.9431 H   0  0  0  0  0  0  0  0  0  0  0  0
   -0.6037   -0.7737   -2.1072 C   0  0  0  0  0  0  0  0  0  0  0  0
   -0.4634   -0.1915   -3.0180 H   0  0  0  0  0  0  0  0  0  0  0  0
   -0.3976   -1.8222   -2.3190 H   0  0  0  0  0  0  0  0  0  0  0  0
   -2.0644   -0.6541   -1.6849 C   0  0  0  0  0  0  0  0  0  0  0  0
   -2.4476   -0.3351   -0.5708 O   0  0  0  0  0  0  0  0  0  0  0  0
   -2.9692   -0.9415   -2.6391 O   0  0  0  0  0  0  0  0  0  0  0  0
   -3.8230   -0.8330   -2.2166 H   0  0  0  0  0  0  0  0  0  0  0  0
   -0.4860    1.3537    0.7622 C   0  0  0  0  0  0  0  0  0  0  0  0
   -1.3956    2.0096    0.2582 O   0  0  0  0  0  0  0  0  0  0  0  0
    0.3741    1.8728    1.6466 N   0  0  0  0  0  0  0  0  0  0  0  0
    1.0814    1.2667    2.0345 H   0  0  0  0  0  0  0  0  0  0  0  0
    0.3380    3.2610    2.1024 C   0  0  0  0  0  0  0  0  0  0  0  0
   -0.6389    3.4820    2.5363 H   0  0  0  0  0  0  0  0  0  0  0  0
    1.1108    3.4337    2.8528 H   0  0  0  0  0  0  0  0  0  0  0  0
    0.5009    3.9312    1.2562 H   0  0  0  0  0  0  0  0  0  0  0  0
  5  6  2  0  0  0  0
  5  7  1  0  0  0  0
  2  3  1  0  0  0  0
  2  4  1  0  0  0  0
  2  5  1  0  0  0  0
  1  2  1  0  0  0  0
 21 22  2  0  0  0  0
 21 23  1  0  0  0  0
 19 20  1  0  0  0  0
 17 18  2  0  0  0  0
 17 19  1  0  0  0  0
 14 15  1  0  0  0  0
 14 16  1  0  0  0  0
 14 17  1  0  0  0  0
 11 12  1  0  0  0  0
 11 13  1  0  0  0  0
 11 14  1  0  0  0  0
  9 10  1  0  0  0  0
  9 11  1  0  0  0  0
  9 21  1  0  0  0  0
  7  8  1  0  0  0  0
  7  9  1  0  0  0  0
 25 26  1  0  0  0  0
 25 27  1  0  0  0  0
 25 28  1  0  0  0  0
 23 24  1  0  0  0  0
 23 25  1  0  0  0  0
M  END
$$$$
default_name
  -OEChem-02102213163D

 28 27  0     1  0  0  0  0  0999 V2000
   -3.2133   -3.5565    1.2809 H   0  0  0  0  0  0  0  0  0  0  0  0
   -3.1873   -2.5755    0.8089 C   0  0  0  0  0  0  0  0  0  0  0  0
   -3.8793   -1.9065    1.3169 H   0  0  0  0  0  0  0  0  0  0  0  0
   -3.4623   -2.6685   -0.2401 H   0  0  0  0  0  0  0  0  0  0  0  0
   -1.7863   -2.0195    0.9119 C   0  0  0  0  0  0  0  0  0  0  0  0
   -0.9073   -2.6615    1.4699 O   0  0  0  0  0  0  0  0  0  0  0  0
   -1.5803   -0.8195    0.3749 N   0  0  0  0  0  0  0  0  0  0  0  0
   -2.3603   -0.3345   -0.0451 H   0  0  0  0  0  0  0  0  0  0  0  0
   -0.2933   -0.1205    0.3719 C   0  0  1  0  0  0  0  0  0  0  0  0
    0.3577   -0.5843    1.1143 H   0  0  0  0  0  0  0  0  0  0  0  0
    0.3613   -0.2794   -1.0156 C   0  0  0  0  0  0  0  0  0  0  0  0
    0.7628    0.6905   -1.3142 H   0  0  0  0  0  0  0  0  0  0  0  0
    1.1921   -0.9828   -0.9431 H   0  0  0  0  0  0  0  0  0  0  0  0
   -0.6037   -0.7737   -2.1072 C   0  0  0  0  0  0  0  0  0  0  0  0
   -0.2935   -0.3890   -3.0788 H   0  0  0  0  0  0  0  0  0  0  0  0
   -0.5872   -1.8626   -2.1331 H   0  0  0  0  0  0  0  0  0  0  0  0
   -2.0402   -0.3277   -1.8542 C   0  0  0  0  0  0  0  0  0  0  0  0
   -2.4304    0.2388   -0.8458 O   0  0  0  0  0  0  0  0  0  0  0  0
   -2.9161   -0.6087   -2.8367 O   0  0  0  0  0  0  0  0  0  0  0  0
   -3.7603   -0.2807   -2.5221 H   0  0  0  0  0  0  0  0  0  0  0  0
   -0.4860    1.3537    0.7622 C   0  0  0  0  0  0  0  0  0  0  0  0
   -1.3956    2.0096    0.2582 O   0  0  0  0  0  0  0  0  0  0  0  0
    0.3741    1.8728    1.6466 N   0  0  0  0  0  0  0  0  0  0  0  0
    1.0814    1.2667    2.0345 H   0  0  0  0  0  0  0  0  0  0  0  0
    0.3380    3.2610    2.1024 C   0  0  0  0  0  0  0  0  0  0  0  0
   -0.6389    3.4820    2.5363 H   0  0  0  0  0  0  0  0  0  0  0  0
    1.1108    3.4337    2.8528 H   0  0  0  0  0  0  0  0  0  0  0  0
    0.5009    3.9312    1.2562 H   0  0  0  0  0  0  0  0  0  0  0  0
  5  6  2  0  0  0  0
  5  7  1  0  0  0  0
  2  3  1  0  0  0  0
  2  4  1  0  0  0  0
  2  5  1  0  0  0  0
  1  2  1  0  0  0  0
 21 22  2  0  0  0  0
 21 23  1  0  0  0  0
 19 20  1  0  0  0  0
 17 18  2  0  0  0  0
 17 19  1  0  0  0  0
 14 15  1  0  0  0  0
 14 16  1  0  0  0  0
 14 17  1  0  0  0  0
 11 12  1  0  0  0  0
 11 13  1  0  0  0  0
 11 14  1  0  0  0  0
  9 10  1  0  0  0  0
  9 11  1  0  0  0  0
  9 21  1  0  0  0  0
  7  8  1  0  0  0  0
  7  9  1  0  0  0  0
 25 26  1  0  0  0  0
 25 27  1  0  0  0  0
 25 28  1  0  0  0  0
 23 24  1  0  0  0  0
 23 25  1  0  0  0  0
M  END
$$$$
default_name
  -OEChem-02102213163D

 28 27  0     1  0  0  0  0  0999 V2000
   -3.2133   -3.5565    1.2809 H   0  0  0  0  0  0  0  0  0  0  0  0
   -3.1873   -2.5755    0.8089 C   0  0  0  0  0  0  0  0  0  0  0  0
   -3.8793   -1.9065    1.3169 H   0  0  0  0  0  0  0  0  0  0  0  0
   -3.4623   -2.6685   -0.2401 H   0  0  0  0  0  0  0  0  0  0  0  0
   -1.7863   -2.0195    0.9119 C   0  0  0  0  0  0  0  0  0  0  0  0
   -0.9073   -2.6615    1.4699 O   0  0  0  0  0  0  0  0  0  0  0  0
   -1.5803   -0.8195    0.3749 N   0  0  0  0  0  0  0  0  0  0  0  0
   -2.3603   -0.3345   -0.0451 H   0  0  0  0  0  0  0  0  0  0  0  0
   -0.2933   -0.1205    0.3719 C   0  0  1  0  0  0  0  0  0  0  0  0
    0.3577   -0.5843    1.1143 H   0  0  0  0  0  0  0  0  0  0  0  0
    0.3613   -0.2794   -1.0156 C   0  0  0  0  0  0  0  0  0  0  0  0
    0.7628    0.6905   -1.3142 H   0  0  0  0  0  0  0  0  0  0  0  0
    1.1921   -0.9828   -0.9431 H   0  0  0  0  0  0  0  0  0  0  0  0
   -0.6037   -0.7737   -2.1072 C   0  0  0  0  0  0  0  0  0  0  0  0
   -0.1606   -0.6208   -3.0913 H   0  0  0  0  0  0  0  0  0  0  0  0
   -0.7932   -1.8366   -1.9627 H   0  0  0  0  0  0  0  0  0  0  0  0
   -1.9427   -0.0443   -2.0686 C   0  0  0  0  0  0  0  0  0  0  0  0
   -2.2855    0.7453   -1.2033 O   0  0  0  0  0  0  0  0  0  0  0  0
   -2.7873   -0.3291   -3.0772 O   0  0  0  0  0  0  0  0  0  0  0  0
   -3.5730    0.1917   -2.9016 H   0  0  0  0  0  0  0  0  0  0  0  0
   -0.4860    1.3537    0.7622 C   0  0  0  0  0  0  0  0  0  0  0  0
   -1.3956    2.0096    0.2582 O   0  0  0  0  0  0  0  0  0  0  0  0
    0.3741    1.8728    1.6466 N   0  0  0  0  0  0  0  0  0  0  0  0
    1.0814    1.2667    2.0345 H   0  0  0  0  0  0  0  0  0  0  0  0
    0.3380    3.2610    2.1024 C   0  0  0  0  0  0  0  0  0  0  0  0
   -0.6389    3.4820    2.5363 H   0  0  0  0  0  0  0  0  0  0  0  0
    1.1108    3.4337    2.8528 H   0  0  0  0  0  0  0  0  0  0  0  0
    0.5009    3.9312    1.2562 H   0  0  0  0  0  0  0  0  0  0  0  0
  5  6  2  0  0  0  0
  5  7  1  0  0  0  0
  2  3  1  0  0  0  0
  2  4  1  0  0  0  0
  2  5  1  0  0  0  0
  1  2  1  0  0  0  0
 21 22  2  0  0  0  0
 21 23  1  0  0  0  0
 19 20  1  0  0  0  0
 17 18  2  0  0  0  0
 17 19  1  0  0  0  0
 14 15  1  0  0  0  0
 14 16  1  0  0  0  0
 14 17  1  0  0  0  0
 11 12  1  0  0  0  0
 11 13  1  0  0  0  0
 11 14  1  0  0  0  0
  9 10  1  0  0  0  0
  9 11  1  0  0  0  0
  9 21  1  0  0  0  0
  7  8  1  0  0  0  0
  7  9  1  0  0  0  0
 25 26  1  0  0  0  0
 25 27  1  0  0  0  0
 25 28  1  0  0  0  0
 23 24  1  0  0  0  0
 23 25  1  0  0  0  0
M  END
$$$$
default_name
  -OEChem-02102213163D

 28 27  0     1  0  0  0  0  0999 V2000
   -3.2133   -3.5565    1.2809 H   0  0  0  0  0  0  0  0  0  0  0  0
   -3.1873   -2.5755    0.8089 C   0  0  0  0  0  0  0  0  0  0  0  0
   -3.8793   -1.9065    1.3169 H   0  0  0  0  0  0  0  0  0  0  0  0
   -3.4623   -2.6685   -0.2401 H   0  0  0  0  0  0  0  0  0  0  0  0
   -1.7863   -2.0195    0.9119 C   0  0  0  0  0  0  0  0  0  0  0  0
   -0.9073   -2.6615    1.4699 O   0  0  0  0  0  0  0  0  0  0  0  0
   -1.5803   -0.8195    0.3749 N   0  0  0  0  0  0  0  0  0  0  0  0
   -2.3603   -0.3345   -0.0451 H   0  0  0  0  0  0  0  0  0  0  0  0
   -0.2933   -0.1205    0.3719 C   0  0  1  0  0  0  0  0  0  0  0  0
    0.3577   -0.5843    1.1143 H   0  0  0  0  0  0  0  0  0  0  0  0
    0.3613   -0.2794   -1.0156 C   0  0  0  0  0  0  0  0  0  0  0  0
    0.7628    0.6905   -1.3142 H   0  0  0  0  0  0  0  0  0  0  0  0
    1.1921   -0.9828   -0.9431 H   0  0  0  0  0  0  0  0  0  0  0  0
   -0.6037   -0.7737   -2.1072 C   0  0  0  0  0  0  0  0  0  0  0  0
   -0.0737   -0.8712   -3.0547 H   0  0  0  0  0  0  0  0  0  0  0  0
   -1.0016   -1.7461   -1.8195 H   0  0  0  0  0  0  0  0  0  0  0  0
   -1.7787    0.1767   -2.3136 C   0  0  0  0  0  0  0  0  0  0  0  0
   -2.0228    1.1499   -1.6187 O   0  0  0  0  0  0  0  0  0  0  0  0
   -2.5915   -0.1216   -3.3442 O   0  0  0  0  0  0  0  0  0  0  0  0
   -3.2737    0.5519   -3.3292 H   0  0  0  0  0  0  0  0  0  0  0  0
   -0.4860    1.3537    0.7622 C   0  0  0  0  0  0  0  0  0  0  0  0
   -1.3956    2.0096    0.2582 O   0  0  0  0  0  0  0  0  0  0  0  0
    0.3741    1.8728    1.6466 N   0  0  0  0  0  0  0  0  0  0  0  0
    1.0814    1.2667    2.0345 H   0  0  0  0  0  0  0  0  0  0  0  0
    0.3380    3.2610    2.1024 C   0  0  0  0  0  0  0  0  0  0  0  0
   -0.6389    3.4820    2.5363 H   0  0  0  0  0  0  0  0  0  0  0  0
    1.1108    3.4337    2.8528 H   0  0  0  0  0  0  0  0  0  0  0  0
    0.5009    3.9312    1.2562 H   0  0  0  0  0  0  0  0  0  0  0  0
  5  6  2  0  0  0  0
  5  7  1  0  0  0  0
  2  3  1  0  0  0  0
  2  4  1  0  0  0  0
  2  5  1  0  0  0  0
  1  2  1  0  0  0  0
 21 22  2  0  0  0  0
 21 23  1  0  0  0  0
 19 20  1  0  0  0  0
 17 18  2  0  0  0  0
 17 19  1  0  0  0  0
 14 15  1  0  0  0  0
 14 16  1  0  0  0  0
 14 17  1  0  0  0  0
 11 12  1  0  0  0  0
 11 13  1  0  0  0  0
 11 14  1  0  0  0  0
  9 10  1  0  0  0  0
  9 11  1  0  0  0  0
  9 21  1  0  0  0  0
  7  8  1  0  0  0  0
  7  9  1  0  0  0  0
 25 26  1  0  0  0  0
 25 27  1  0  0  0  0
 25 28  1  0  0  0  0
 23 24  1  0  0  0  0
 23 25  1  0  0  0  0
M  END
$$$$
default_name
  -OEChem-02102213163D

 28 27  0     1  0  0  0  0  0999 V2000
   -3.2133   -3.5565    1.2809 H   0  0  0  0  0  0  0  0  0  0  0  0
   -3.1873   -2.5755    0.8089 C   0  0  0  0  0  0  0  0  0  0  0  0
   -3.8793   -1.9065    1.3169 H   0  0  0  0  0  0  0  0  0  0  0  0
   -3.4623   -2.6685   -0.2401 H   0  0  0  0  0  0  0  0  0  0  0  0
   -1.7863   -2.0195    0.9119 C   0  0  0  0  0  0  0  0  0  0  0  0
   -0.9073   -2.6615    1.4699 O   0  0  0  0  0  0  0  0  0  0  0  0
   -1.5803   -0.8195    0.3749 N   0  0  0  0  0  0  0  0  0  0  0  0
   -2.3603   -0.3345   -0.0451 H   0  0  0  0  0  0  0  0  0  0  0  0
   -0.2933   -0.1205    0.3719 C   0  0  1  0  0  0  0  0  0  0  0  0
    0.3577   -0.5843    1.1143 H   0  0  0  0  0  0  0  0  0  0  0  0
    0.3613   -0.2794   -1.0156 C   0  0  0  0  0  0  0  0  0  0  0  0
    0.7628    0.6905   -1.3142 H   0  0  0  0  0  0  0  0  0  0  0  0
    1.1921   -0.9828   -0.9431 H   0  0  0  0  0  0  0  0  0  0  0  0
   -0.6037   -0.7737   -2.1072 C   0  0  0  0  0  0  0  0  0  0  0  0
   -0.0388   -1.1231   -2.9715 H   0  0  0  0  0  0  0  0  0  0  0  0
   -1.1982   -1.5971   -1.7132 H   0  0  0  0  0  0  0  0  0  0  0  0
   -1.5593    0.3202   -2.5725 C   0  0  0  0  0  0  0  0  0  0  0  0
   -1.6602    1.4251   -2.0637 O   0  0  0  0  0  0  0  0  0  0  0  0
   -2.3421   -0.0006   -3.6195 O   0  0  0  0  0  0  0  0  0  0  0  0
   -2.8829    0.7755   -3.7759 H   0  0  0  0  0  0  0  0  0  0  0  0
   -0.4860    1.3537    0.7622 C   0  0  0  0  0  0  0  0  0  0  0  0
   -1.3956    2.0096    0.2582 O   0  0  0  0  0  0  0  0  0  0  0  0
    0.3741    1.8728    1.6466 N   0  0  0  0  0  0  0  0  0  0  0  0
    1.0814    1.2667    2.0345 H   0  0  0  0  0  0  0  0  0  0  0  0
    0.3380    3.2610    2.1024 C   0  0  0  0  0  0  0  0  0  0  0  0
   -0.6389    3.4820    2.5363 H   0  0  0  0  0  0  0  0  0  0  0  0
    1.1108    3.4337    2.8528 H   0  0  0  0  0  0  0  0  0  0  0  0
    0.5009    3.9312    1.2562 H   0  0  0  0  0  0  0  0  0  0  0  0
  5  6  2  0  0  0  0
  5  7  1  0  0  0  0
  2  3  1  0  0  0  0
  2  4  1  0  0  0  0
  2  5  1  0  0  0  0
  1  2  1  0  0  0  0
 21 22  2  0  0  0  0
 21 23  1  0  0  0  0
 19 20  1  0  0  0  0
 17 18  2  0  0  0  0
 17 19  1  0  0  0  0
 14 15  1  0  0  0  0
 14 16  1  0  0  0  0
 14 17  1  0  0  0  0
 11 12  1  0  0  0  0
 11 13  1  0  0  0  0
 11 14  1  0  0  0  0
  9 10  1  0  0  0  0
  9 11  1  0  0  0  0
  9 21  1  0  0  0  0
  7  8  1  0  0  0  0
  7  9  1  0  0  0  0
 25 26  1  0  0  0  0
 25 27  1  0  0  0  0
 25 28  1  0  0  0  0
 23 24  1  0  0  0  0
 23 25  1  0  0  0  0
M  END
$$$$
default_name
  -OEChem-02102213163D

 28 27  0     1  0  0  0  0  0999 V2000
   -3.2133   -3.5565    1.2809 H   0  0  0  0  0  0  0  0  0  0  0  0
   -3.1873   -2.5755    0.8089 C   0  0  0  0  0  0  0  0  0  0  0  0
   -3.8793   -1.9065    1.3169 H   0  0  0  0  0  0  0  0  0  0  0  0
   -3.4623   -2.6685   -0.2401 H   0  0  0  0  0  0  0  0  0  0  0  0
   -1.7863   -2.0195    0.9119 C   0  0  0  0  0  0  0  0  0  0  0  0
   -0.9073   -2.6615    1.4699 O   0  0  0  0  0  0  0  0  0  0  0  0
   -1.5803   -0.8195    0.3749 N   0  0  0  0  0  0  0  0  0  0  0  0
   -2.3603   -0.3345   -0.0451 H   0  0  0  0  0  0  0  0  0  0  0  0
   -0.2933   -0.1205    0.3719 C   0  0  1  0  0  0  0  0  0  0  0  0
    0.3577   -0.5843    1.1143 H   0  0  0  0  0  0  0  0  0  0  0  0
    0.3613   -0.2794   -1.0156 C   0  0  0  0  0  0  0  0  0  0  0  0
    0.7628    0.6905   -1.3142 H   0  0  0  0  0  0  0  0  0  0  0  0
    1.1921   -0.9828   -0.9431 H   0  0  0  0  0  0  0  0  0  0  0  0
   -0.6037   -0.7737   -2.1072 C   0  0  0  0  0  0  0  0  0  0  0  0
   -0.0583   -1.3593   -2.8474 H   0  0  0  0  0  0  0  0  0  0  0  0
   -1.3696   -1.3998   -1.6510 H   0  0  0  0  0  0  0  0  0  0  0  0
   -1.2996    0.3766   -2.8277 C   0  0  0  0  0  0  0  0  0  0  0  0
   -1.2225    1.5521   -2.5082 O   0  0  0  0  0  0  0  0  0  0  0  0
   -2.0561    0.0259   -3.8843 O   0  0  0  0  0  0  0  0  0  0  0  0
   -2.4272    0.8473   -4.2112 H   0  0  0  0  0  0  0  0  0  0  0  0
   -0.4860    1.3537    0.7622 C   0  0  0  0  0  0  0  0  0  0  0  0
   -1.3956    2.0096    0.2582 O   0  0  0  0  0  0  0  0  0  0  0  0
    0.3741    1.8728    1.6466 N   0  0  0  0  0  0  0  0  0  0  0  0
    1.0814    1.2667    2.0345 H   0  0  0  0  0  0  0  0  0  0  0  0
    0.3380    3.2610    2.1024 C   0  0  0  0  0  0  0  0  0  0  0  0
   -0.6389    3.4820    2.5363 H   0  0  0  0  0  0  0  0  0  0  0  0
    1.1108    3.4337    2.8528 H   0  0  0  0  0  0  0  0  0  0  0  0
    0.5009    3.9312    1.2562 H   0  0  0  0  0  0  0  0  0  0  0  0
  5  6  2  0  0  0  0
  5  7  1  0  0  0  0
  2  3  1  0  0  0  0
  2  4  1  0  0  0  0
  2  5  1  0  0  0  0
  1  2  1  0  0  0  0
 21 22  2  0  0  0  0
 21 23  1  0  0  0  0
 19 20  1  0  0  0  0
 17 18  2  0  0  0  0
 17 19  1  0  0  0  0
 14 15  1  0  0  0  0
 14 16  1  0  0  0  0
 14 17  1  0  0  0  0
 11 12  1  0  0  0  0
 11 13  1  0  0  0  0
 11 14  1  0  0  0  0
  9 10  1  0  0  0  0
  9 11  1  0  0  0  0
  9 21  1  0  0  0  0
  7  8  1  0  0  0  0
  7  9  1  0  0  0  0
 25 26  1  0  0  0  0
 25 27  1  0  0  0  0
 25 28  1  0  0  0  0
 23 24  1  0  0  0  0
 23 25  1  0  0  0  0
M  END
$$$$
default_name
  -OEChem-02102213163D

 28 27  0     1  0  0  0  0  0999 V2000
   -3.2133   -3.5565    1.2809 H   0  0  0  0  0  0  0  0  0  0  0  0
   -3.1873   -2.5755    0.8089 C   0  0  0  0  0  0  0  0  0  0  0  0
   -3.8793   -1.9065    1.3169 H   0  0  0  0  0  0  0  0  0  0  0  0
   -3.4623   -2.6685   -0.2401 H   0  0  0  0  0  0  0  0  0  0  0  0
   -1.7863   -2.0195    0.9119 C   0  0  0  0  0  0  0  0  0  0  0  0
   -0.9073   -2.6615    1.4699 O   0  0  0  0  0  0  0  0  0  0  0  0
   -1.5803   -0.8195    0.3749 N   0  0  0  0  0  0  0  0  0  0  0  0
   -2.3603   -0.3345   -0.0451 H   0  0  0  0  0  0  0  0  0  0  0  0
   -0.2933   -0.1205    0.3719 C   0  0  1  0  0  0  0  0  0  0  0  0
    0.3577   -0.5843    1.1143 H   0  0  0  0  0  0  0  0  0  0  0  0
    0.3613   -0.2794   -1.0156 C   0  0  0  0  0  0  0  0  0  0  0  0
    0.7628    0.6905   -1.3142 H   0  0  0  0  0  0  0  0  0  0  0  0
    1.1921   -0.9828   -0.9431 H   0  0  0  0  0  0  0  0  0  0  0  0
   -0.6037   -0.7737   -2.1072 C   0  0  0  0  0  0  0  0  0  0  0  0
   -0.1308   -1.5637   -2.6907 H   0  0  0  0  0  0  0  0  0  0  0  0
   -1.5040   -1.1677   -1.6372 H   0  0  0  0  0  0  0  0  0  0  0  0
   -1.0171    0.3419   -3.0617 C   0  0  0  0  0  0  0  0  0  0  0  0
   -0.7394    1.5222   -2.9217 O   0  0  0  0  0  0  0  0  0  0  0  0
   -1.7529   -0.0441   -4.1206 O   0  0  0  0  0  0  0  0  0  0  0  0
   -1.9377    0.7622   -4.6054 H   0  0  0  0  0  0  0  0  0  0  0  0
   -0.4860    1.3537    0.7622 C   0  0  0  0  0  0  0  0  0  0  0  0
   -1.3956    2.0096    0.2582 O   0  0  0  0  0  0  0  0  0  0  0  0
    0.3741    1.8728    1.6466 N   0  0  0  0  0  0  0  0  0  0  0  0
    1.0814    1.2667    2.0345 H   0  0  0  0  0  0  0  0  0  0  0  0
    0.3380    3.2610    2.1024 C   0  0  0  0  0  0  0  0  0  0  0  0
   -0.6389    3.4820    2.5363 H   0  0  0  0  0  0  0  0  0  0  0  0
    1.1108    3.4337    2.8528 H   0  0  0  0  0  0  0  0  0  0  0  0
    0.5009    3.9312    1.2562 H   0  0  0  0  0  0  0  0  0  0  0  0
  5  6  2  0  0  0  0
  5  7  1  0  0  0  0
  2  3  1  0  0  0  0
  2  4  1  0  0  0  0
  2  5  1  0  0  0  0
  1  2  1  0  0  0  0
 21 22  2  0  0  0  0
 21 23  1  0  0  0  0
 19 20  1  0  0  0  0
 17 18  2  0  0  0  0
 17 19  1  0  0  0  0
 14 15  1  0  0  0  0
 14 16  1  0  0  0  0
 14 17  1  0  0  0  0
 11 12  1  0  0  0  0
 11 13  1  0  0  0  0
 11 14  1  0  0  0  0
  9 10  1  0  0  0  0
  9 11  1  0  0  0  0
  9 21  1  0  0  0  0
  7  8  1  0  0  0  0
  7  9  1  0  0  0  0
 25 26  1  0  0  0  0
 25 27  1  0  0  0  0
 25 28  1  0  0  0  0
 23 24  1  0  0  0  0
 23 25  1  0  0  0  0
M  END
$$$$
default_name
  -OEChem-02102213163D

 28 27  0     1  0  0  0  0  0999 V2000
   -3.2133   -3.5565    1.2809 H   0  0  0  0  0  0  0  0  0  0  0  0
   -3.1873   -2.5755    0.8089 C   0  0  0  0  0  0  0  0  0  0  0  0
   -3.8793   -1.9065    1.3169 H   0  0  0  0  0  0  0  0  0  0  0  0
   -3.4623   -2.6685   -0.2401 H   0  0  0  0  0  0  0  0  0  0  0  0
   -1.7863   -2.0195    0.9119 C   0  0  0  0  0  0  0  0  0  0  0  0
   -0.9073   -2.6615    1.4699 O   0  0  0  0  0  0  0  0  0  0  0  0
   -1.5803   -0.8195    0.3749 N   0  0  0  0  0  0  0  0  0  0  0  0
   -2.3603   -0.3345   -0.0451 H   0  0  0  0  0  0  0  0  0  0  0  0
   -0.2933   -0.1205    0.3719 C   0  0  1  0  0  0  0  0  0  0  0  0
    0.3577   -0.5843    1.1143 H   0  0  0  0  0  0  0  0  0  0  0  0
    0.3613   -0.2794   -1.0156 C   0  0  0  0  0  0  0  0  0  0  0  0
    0.7628    0.6905   -1.3142 H   0  0  0  0  0  0  0  0  0  0  0  0
    1.1921   -0.9828   -0.9431 H   0  0  0  0  0  0  0  0  0  0  0  0
   -0.6037   -0.7737   -2.1072 C   0  0  0  0  0  0  0  0  0  0  0  0
   -0.2514   -1.7224   -2.5122 H   0  0  0  0  0  0  0  0  0  0  0  0
   -1.5924   -0.9165   -1.6728 H   0  0  0  0  0  0  0  0  0  0  0  0
   -0.7311    0.2185   -3.2586 C   0  0  0  0  0  0  0  0  0  0  0  0
   -0.2438    1.3375   -3.2761 O   0  0  0  0  0  0  0  0  0  0  0  0
   -1.4533   -0.2057   -4.3122 O   0  0  0  0  0  0  0  0  0  0  0  0
   -1.4477    0.5261   -4.9317 H   0  0  0  0  0  0  0  0  0  0  0  0
   -0.4860    1.3537    0.7622 C   0  0  0  0  0  0  0  0  0  0  0  0
   -1.3956    2.0096    0.2582 O   0  0  0  0  0  0  0  0  0  0  0  0
    0.3741    1.8728    1.6466 N   0  0  0  0  0  0  0  0  0  0  0  0
    1.0814    1.2667    2.0345 H   0  0  0  0  0  0  0  0  0  0  0  0
    0.3380    3.2610    2.1024 C   0  0  0  0  0  0  0  0  0  0  0  0
   -0.6389    3.4820    2.5363 H   0  0  0  0  0  0  0  0  0  0  0  0
    1.1108    3.4337    2.8528 H   0  0  0  0  0  0  0  0  0  0  0  0
    0.5009    3.9312    1.2562 H   0  0  0  0  0  0  0  0  0  0  0  0
  5  6  2  0  0  0  0
  5  7  1  0  0  0  0
  2  3  1  0  0  0  0
  2  4  1  0  0  0  0
  2  5  1  0  0  0  0
  1  2  1  0  0  0  0
 21 22  2  0  0  0  0
 21 23  1  0  0  0  0
 19 20  1  0  0  0  0
 17 18  2  0  0  0  0
 17 19  1  0  0  0  0
 14 15  1  0  0  0  0
 14 16  1  0  0  0  0
 14 17  1  0  0  0  0
 11 12  1  0  0  0  0
 11 13  1  0  0  0  0
 11 14  1  0  0  0  0
  9 10  1  0  0  0  0
  9 11  1  0  0  0  0
  9 21  1  0  0  0  0
  7  8  1  0  0  0  0
  7  9  1  0  0  0  0
 25 26  1  0  0  0  0
 25 27  1  0  0  0  0
 25 28  1  0  0  0  0
 23 24  1  0  0  0  0
 23 25  1  0  0  0  0
M  END
$$$$
default_name
  -OEChem-02102213163D

 28 27  0     1  0  0  0  0  0999 V2000
   -3.2133   -3.5565    1.2809 H   0  0  0  0  0  0  0  0  0  0  0  0
   -3.1873   -2.5755    0.8089 C   0  0  0  0  0  0  0  0  0  0  0  0
   -3.8793   -1.9065    1.3169 H   0  0  0  0  0  0  0  0  0  0  0  0
   -3.4623   -2.6685   -0.2401 H   0  0  0  0  0  0  0  0  0  0  0  0
   -1.7863   -2.0195    0.9119 C   0  0  0  0  0  0  0  0  0  0  0  0
   -0.9073   -2.6615    1.4699 O   0  0  0  0  0  0  0  0  0  0  0  0
   -1.5803   -0.8195    0.3749 N   0  0  0  0  0  0  0  0  0  0  0  0
   -2.3603   -0.3345   -0.0451 H   0  0  0  0  0  0  0  0  0  0  0  0
   -0.2933   -0.1205    0.3719 C   0  0  1  0  0  0  0  0  0  0  0  0
    0.3577   -0.5843    1.1143 H   0  0  0  0  0  0  0  0  0  0  0  0
    0.3613   -0.2794   -1.0156 C   0  0  0  0  0  0  0  0  0  0  0  0
    0.7628    0.6905   -1.3142 H   0  0  0  0  0  0  0  0  0  0  0  0
    1.1921   -0.9828   -0.9431 H   0  0  0  0  0  0  0  0  0  0  0  0
   -0.6037   -0.7737   -2.1072 C   0  0  0  0  0  0  0  0  0  0  0  0
   -0.4119   -1.8246   -2.3241 H   0  0  0  0  0  0  0  0  0  0  0  0
   -1.6287   -0.6635   -1.7553 H   0  0  0  0  0  0  0  0  0  0  0  0
   -0.4612    0.0149   -3.4050 C   0  0  0  0  0  0  0  0  0  0  0  0
    0.2304    1.0105   -3.5473 O   0  0  0  0  0  0  0  0  0  0  0  0
   -1.1776   -0.4479   -4.4463 O   0  0  0  0  0  0  0  0  0  0  0  0
   -0.9906    0.1552   -5.1678 H   0  0  0  0  0  0  0  0  0  0  0  0
   -0.4860    1.3537    0.7622 C   0  0  0  0  0  0  0  0  0  0  0  0
   -1.3956    2.0096    0.2582 O   0  0  0  0  0  0  0  0  0  0  0  0
    0.3741    1.8728    1.6466 N   0  0  0  0  0  0  0  0  0  0  0  0
    1.0814    1.2667    2.0345 H   0  0  0  0  0  0  0  0  0  0  0  0
    0.3380    3.2610    2.1024 C   0  0  0  0  0  0  0  0  0  0  0  0
   -0.6389    3.4820    2.5363 H   0  0  0  0  0  0  0  0  0  0  0  0
    1.1108    3.4337    2.8528 H   0  0  0  0  0  0  0  0  0  0  0  0
    0.5009    3.9312    1.2562 H   0  0  0  0  0  0  0  0  0  0  0  0
  5  6  2  0  0  0  0
  5  7  1  0  0  0  0
  2  3  1  0  0  0  0
  2  4  1  0  0  0  0
  2  5  1  0  0  0  0
  1  2  1  0  0  0  0
 21 22  2  0  0  0  0
 21 23  1  0  0  0  0
 19 20  1  0  0  0  0
 17 18  2  0  0  0  0
 17 19  1  0  0  0  0
 14 15  1  0  0  0  0
 14 16  1  0  0  0  0
 14 17  1  0  0  0  0
 11 12  1  0  0  0  0
 11 13  1  0  0  0  0
 11 14  1  0  0  0  0
  9 10  1  0  0  0  0
  9 11  1  0  0  0  0
  9 21  1  0  0  0  0
  7  8  1  0  0  0  0
  7  9  1  0  0  0  0
 25 26  1  0  0  0  0
 25 27  1  0  0  0  0
 25 28  1  0  0  0  0
 23 24  1  0  0  0  0
 23 25  1  0  0  0  0
M  END
$$$$
default_name
  -OEChem-02102213163D

 28 27  0     1  0  0  0  0  0999 V2000
   -3.2133   -3.5565    1.2809 H   0  0  0  0  0  0  0  0  0  0  0  0
   -3.1873   -2.5755    0.8089 C   0  0  0  0  0  0  0  0  0  0  0  0
   -3.8793   -1.9065    1.3169 H   0  0  0  0  0  0  0  0  0  0  0  0
   -3.4623   -2.6685   -0.2401 H   0  0  0  0  0  0  0  0  0  0  0  0
   -1.7863   -2.0195    0.9119 C   0  0  0  0  0  0  0  0  0  0  0  0
   -0.9073   -2.6615    1.4699 O   0  0  0  0  0  0  0  0  0  0  0  0
   -1.5803   -0.8195    0.3749 N   0  0  0  0  0  0  0  0  0  0  0  0
   -2.3603   -0.3345   -0.0451 H   0  0  0  0  0  0  0  0  0  0  0  0
   -0.2933   -0.1205    0.3719 C   0  0  1  0  0  0  0  0  0  0  0  0
    0.3577   -0.5843    1.1143 H   0  0  0  0  0  0  0  0  0  0  0  0
    0.3613   -0.2794   -1.0156 C   0  0  0  0  0  0  0  0  0  0  0  0
    0.7628    0.6905   -1.3142 H   0  0  0  0  0  0  0  0  0  0  0  0
    1.1921   -0.9828   -0.9431 H   0  0  0  0  0  0  0  0  0  0  0  0
   -0.6037   -0.7737   -2.1072 C   0  0  0  0  0  0  0  0  0  0  0  0
   -0.6013   -1.8633   -2.1392 H   0  0  0  0  0  0  0  0  0  0  0  0
   -1.6105   -0.4258   -1.8790 H   0  0  0  0  0  0  0  0  0  0  0  0
   -0.2257   -0.2552   -3.4909 C   0  0  0  0  0  0  0  0  0  0  0  0
    0.6510    0.5636   -3.7167 O   0  0  0  0  0  0  0  0  0  0  0  0
   -0.9447   -0.7543   -4.5134 O   0  0  0  0  0  0  0  0  0  0  0  0
   -0.5976   -0.3254   -5.2976 H   0  0  0  0  0  0  0  0  0  0  0  0
   -0.4860    1.3537    0.7622 C   0  0  0  0  0  0  0  0  0  0  0  0
   -1.3956    2.0096    0.2582 O   0  0  0  0  0  0  0  0  0  0  0  0
    0.3741    1.8728    1.6466 N   0  0  0  0  0  0  0  0  0  0  0  0
    1.0814    1.2667    2.0345 H   0  0  0  0  0  0  0  0  0  0  0  0
    0.3380    3.2610    2.1024 C   0  0  0  0  0  0  0  0  0  0  0  0
   -0.6389    3.4820    2.5363 H   0  0  0  0  0  0  0  0  0  0  0  0
    1.1108    3.4337    2.8528 H   0  0  0  0  0  0  0  0  0  0  0  0
    0.5009    3.9312    1.2562 H   0  0  0  0  0  0  0  0  0  0  0  0
  5  6  2  0  0  0  0
  5  7  1  0  0  0  0
  2  3  1  0  0  0  0
  2  4  1  0  0  0  0
  2  5  1  0  0  0  0
  1  2  1  0  0  0  0
 21 22  2  0  0  0  0
 21 23  1  0  0  0  0
 19 20  1  0  0  0  0
 17 18  2  0  0  0  0
 17 19  1  0  0  0  0
 14 15  1  0  0  0  0
 14 16  1  0  0  0  0
 14 17  1  0  0  0  0
 11 12  1  0  0  0  0
 11 13  1  0  0  0  0
 11 14  1  0  0  0  0
  9 10  1  0  0  0  0
  9 11  1  0  0  0  0
  9 21  1  0  0  0  0
  7  8  1  0  0  0  0
  7  9  1  0  0  0  0
 25 26  1  0  0  0  0
 25 27  1  0  0  0  0
 25 28  1  0  0  0  0
 23 24  1  0  0  0  0
 23 25  1  0  0  0  0
M  END
$$$$
default_name
  -OEChem-02102213163D

 28 27  0     1  0  0  0  0  0999 V2000
   -3.2133   -3.5565    1.2809 H   0  0  0  0  0  0  0  0  0  0  0  0
   -3.1873   -2.5755    0.8089 C   0  0  0  0  0  0  0  0  0  0  0  0
   -3.8793   -1.9065    1.3169 H   0  0  0  0  0  0  0  0  0  0  0  0
   -3.4623   -2.6685   -0.2401 H   0  0  0  0  0  0  0  0  0  0  0  0
   -1.7863   -2.0195    0.9119 C   0  0  0  0  0  0  0  0  0  0  0  0
   -0.9073   -2.6615    1.4699 O   0  0  0  0  0  0  0  0  0  0  0  0
   -1.5803   -0.8195    0.3749 N   0  0  0  0  0  0  0  0  0  0  0  0
   -2.3603   -0.3345   -0.0451 H   0  0  0  0  0  0  0  0  0  0  0  0
   -0.2933   -0.1205    0.3719 C   0  0  1  0  0  0  0  0  0  0  0  0
    0.3577   -0.5843    1.1143 H   0  0  0  0  0  0  0  0  0  0  0  0
    0.3613   -0.2794   -1.0156 C   0  0  0  0  0  0  0  0  0  0  0  0
    0.7628    0.6905   -1.3142 H   0  0  0  0  0  0  0  0  0  0  0  0
    1.1921   -0.9828   -0.9431 H   0  0  0  0  0  0  0  0  0  0  0  0
   -0.6037   -0.7737   -2.1072 C   0  0  0  0  0  0  0  0  0  0  0  0
   -0.8068   -1.8358   -1.9700 H   0  0  0  0  0  0  0  0  0  0  0  0
   -1.5389   -0.2197   -2.0356 H   0  0  0  0  0  0  0  0  0  0  0  0
   -0.0407   -0.5732   -3.5105 C   0  0  0  0  0  0  0  0  0  0  0  0
    0.9892    0.0272   -3.7728 O   0  0  0  0  0  0  0  0  0  0  0  0
   -0.7704   -1.1039   -4.5093 O   0  0  0  0  0  0  0  0  0  0  0  0
   -0.2954   -0.8828   -5.3123 H   0  0  0  0  0  0  0  0  0  0  0  0
   -0.4860    1.3537    0.7622 C   0  0  0  0  0  0  0  0  0  0  0  0
   -1.3956    2.0096    0.2582 O   0  0  0  0  0  0  0  0  0  0  0  0
    0.3741    1.8728    1.6466 N   0  0  0  0  0  0  0  0  0  0  0  0
    1.0814    1.2667    2.0345 H   0  0  0  0  0  0  0  0  0  0  0  0
    0.3380    3.2610    2.1024 C   0  0  0  0  0  0  0  0  0  0  0  0
   -0.6389    3.4820    2.5363 H   0  0  0  0  0  0  0  0  0  0  0  0
    1.1108    3.4337    2.8528 H   0  0  0  0  0  0  0  0  0  0  0  0
    0.5009    3.9312    1.2562 H   0  0  0  0  0  0  0  0  0  0  0  0
  5  6  2  0  0  0  0
  5  7  1  0  0  0  0
  2  3  1  0  0  0  0
  2  4  1  0  0  0  0
  2  5  1  0  0  0  0
  1  2  1  0  0  0  0
 21 22  2  0  0  0  0
 21 23  1  0  0  0  0
 19 20  1  0  0  0  0
 17 18  2  0  0  0  0
 17 19  1  0  0  0  0
 14 15  1  0  0  0  0
 14 16  1  0  0  0  0
 14 17  1  0  0  0  0
 11 12  1  0  0  0  0
 11 13  1  0  0  0  0
 11 14  1  0  0  0  0
  9 10  1  0  0  0  0
  9 11  1  0  0  0  0
  9 21  1  0  0  0  0
  7  8  1  0  0  0  0
  7  9  1  0  0  0  0
 25 26  1  0  0  0  0
 25 27  1  0  0  0  0
 25 28  1  0  0  0  0
 23 24  1  0  0  0  0
 23 25  1  0  0  0  0
M  END
$$$$
default_name
  -OEChem-02102213163D

 28 27  0     1  0  0  0  0  0999 V2000
   -3.2133   -3.5565    1.2809 H   0  0  0  0  0  0  0  0  0  0  0  0
   -3.1873   -2.5755    0.8089 C   0  0  0  0  0  0  0  0  0  0  0  0
   -3.8793   -1.9065    1.3169 H   0  0  0  0  0  0  0  0  0  0  0  0
   -3.4623   -2.6685   -0.2401 H   0  0  0  0  0  0  0  0  0  0  0  0
   -1.7863   -2.0195    0.9119 C   0  0  0  0  0  0  0  0  0  0  0  0
   -0.9073   -2.6615    1.4699 O   0  0  0  0  0  0  0  0  0  0  0  0
   -1.5803   -0.8195    0.3749 N   0  0  0  0  0  0  0  0  0  0  0  0
   -2.3603   -0.3345   -0.0451 H   0  0  0  0  0  0  0  0  0  0  0  0
   -0.2933   -0.1205    0.3719 C   0  0  1  0  0  0  0  0  0  0  0  0
    0.3577   -0.5843    1.1143 H   0  0  0  0  0  0  0  0  0  0  0  0
    0.3613   -0.2794   -1.0156 C   0  0  0  0  0  0  0  0  0  0  0  0
    0.9878    0.5955   -1.1972 H   0  0  0  0  0  0  0  0  0  0  0  0
    1.0033   -1.1615   -1.0117 H   0  0  0  0  0  0  0  0  0  0  0  0
   -0.6477   -0.4144   -2.1691 C   0  0  0  0  0  0  0  0  0  0  0  0
   -1.2824   -1.2857   -2.0071 H   0  0  0  0  0  0  0  0  0  0  0  0
   -1.2706    0.4785   -2.2060 H   0  0  0  0  0  0  0  0  0  0  0  0
    0.0386   -0.5694   -3.5224 C   0  0  0  0  0  0  0  0  0  0  0  0
    1.2396   -0.4667   -3.7145 O   0  0  0  0  0  0  0  0  0  0  0  0
   -0.7783   -0.8271   -4.5607 O   0  0  0  0  0  0  0  0  0  0  0  0
   -0.2028   -0.8820   -5.3255 H   0  0  0  0  0  0  0  0  0  0  0  0
   -0.4860    1.3537    0.7622 C   0  0  0  0  0  0  0  0  0  0  0  0
   -1.3956    2.0096    0.2582 O   0  0  0  0  0  0  0  0  0  0  0  0
    0.3741    1.8728    1.6466 N   0  0  0  0  0  0  0  0  0  0  0  0
    1.0814    1.2667    2.0345 H   0  0  0  0  0  0  0  0  0  0  0  0
    0.3380    3.2610    2.1024 C   0  0  0  0  0  0  0  0  0  0  0  0
   -0.6389    3.4820    2.5363 H   0  0  0  0  0  0  0  0  0  0  0  0
    1.1108    3.4337    2.8528 H   0  0  0  0  0  0  0  0  0  0  0  0
    0.5009    3.9312    1.2562 H   0  0  0  0  0  0  0  0  0  0  0  0
  5  6  2  0  0  0  0
  5  7  1  0  0  0  0
  2  3  1  0  0  0  0
  2  4  1  0  0  0  0
  2  5  1  0  0  0  0
  1  2  1  0  0  0  0
 21 22  2  0  0  0  0
 21 23  1  0  0  0  0
 19 20  1  0  0  0  0
 17 18  2  0  0  0  0
 17 19  1  0  0  0  0
 14 15  1  0  0  0  0
 14 16  1  0  0  0  0
 14 17  1  0  0  0  0
 11 12  1  0  0  0  0
 11 13  1  0  0  0  0
 11 14  1  0  0  0  0
  9 10  1  0  0  0  0
  9 11  1  0  0  0  0
  9 21  1  0  0  0  0
  7  8  1  0  0  0  0
  7  9  1  0  0  0  0
 25 26  1  0  0  0  0
 25 27  1  0  0  0  0
 25 28  1  0  0  0  0
 23 24  1  0  0  0  0
 23 25  1  0  0  0  0
M  END
$$$$
default_name
  -OEChem-02102213163D

 28 27  0     1  0  0  0  0  0999 V2000
   -3.2133   -3.5565    1.2809 H   0  0  0  0  0  0  0  0  0  0  0  0
   -3.1873   -2.5755    0.8089 C   0  0  0  0  0  0  0  0  0  0  0  0
   -3.8793   -1.9065    1.3169 H   0  0  0  0  0  0  0  0  0  0  0  0
   -3.4623   -2.6685   -0.2401 H   0  0  0  0  0  0  0  0  0  0  0  0
   -1.7863   -2.0195    0.9119 C   0  0  0  0  0  0  0  0  0  0  0  0
   -0.9073   -2.6615    1.4699 O   0  0  0  0  0  0  0  0  0  0  0  0
   -1.5803   -0.8195    0.3749 N   0  0  0  0  0  0  0  0  0  0  0  0
   -2.3603   -0.3345   -0.0451 H   0  0  0  0  0  0  0  0  0  0  0  0
   -0.2933   -0.1205    0.3719 C   0  0  1  0  0  0  0  0  0  0  0  0
    0.3577   -0.5843    1.1143 H   0  0  0  0  0  0  0  0  0  0  0  0
    0.3613   -0.2794   -1.0156 C   0  0  0  0  0  0  0  0  0  0  0  0
    0.9878    0.5955   -1.1972 H   0  0  0  0  0  0  0  0  0  0  0  0
    1.0033   -1.1615   -1.0117 H   0  0  0  0  0  0  0  0  0  0  0  0
   -0.6477   -0.4144   -2.1691 C   0  0  0  0  0  0  0  0  0  0  0  0
   -1.4419   -1.1065   -1.8887 H   0  0  0  0  0  0  0  0  0  0  0  0
   -1.0833    0.5616   -2.3796 H   0  0  0  0  0  0  0  0  0  0  0  0
    0.0030   -0.9287   -3.4492 C   0  0  0  0  0  0  0  0  0  0  0  0
    1.2019   -1.0933   -3.6082 O   0  0  0  0  0  0  0  0  0  0  0  0
   -0.8424   -1.1994   -4.4610 O   0  0  0  0  0  0  0  0  0  0  0  0
   -0.2842   -1.4945   -5.1826 H   0  0  0  0  0  0  0  0  0  0  0  0
   -0.4860    1.3537    0.7622 C   0  0  0  0  0  0  0  0  0  0  0  0
   -1.3956    2.0096    0.2582 O   0  0  0  0  0  0  0  0  0  0  0  0
    0.3741    1.8728    1.6466 N   0  0  0  0  0  0  0  0  0  0  0  0
    1.0814    1.2667    2.0345 H   0  0  0  0  0  0  0  0  0  0  0  0
    0.3380    3.2610    2.1024 C   0  0  0  0  0  0  0  0  0  0  0  0
   -0.6389    3.4820    2.5363 H   0  0  0  0  0  0  0  0  0  0  0  0
    1.1108    3.4337    2.8528 H   0  0  0  0  0  0  0  0  0  0  0  0
    0.5009    3.9312    1.2562 H   0  0  0  0  0  0  0  0  0  0  0  0
  5  6  2  0  0  0  0
  5  7  1  0  0  0  0
  2  3  1  0  0  0  0
  2  4  1  0  0  0  0
  2  5  1  0  0  0  0
  1  2  1  0  0  0  0
 21 22  2  0  0  0  0
 21 23  1  0  0  0  0
 19 20  1  0  0  0  0
 17 18  2  0  0  0  0
 17 19  1  0  0  0  0
 14 15  1  0  0  0  0
 14 16  1  0  0  0  0
 14 17  1  0  0  0  0
 11 12  1  0  0  0  0
 11 13  1  0  0  0  0
 11 14  1  0  0  0  0
  9 10  1  0  0  0  0
  9 11  1  0  0  0  0
  9 21  1  0  0  0  0
  7  8  1  0  0  0  0
  7  9  1  0  0  0  0
 25 26  1  0  0  0  0
 25 27  1  0  0  0  0
 25 28  1  0  0  0  0
 23 24  1  0  0  0  0
 23 25  1  0  0  0  0
M  END
$$$$
default_name
  -OEChem-02102213163D

 28 27  0     1  0  0  0  0  0999 V2000
   -3.2133   -3.5565    1.2809 H   0  0  0  0  0  0  0  0  0  0  0  0
   -3.1873   -2.5755    0.8089 C   0  0  0  0  0  0  0  0  0  0  0  0
   -3.8793   -1.9065    1.3169 H   0  0  0  0  0  0  0  0  0  0  0  0
   -3.4623   -2.6685   -0.2401 H   0  0  0  0  0  0  0  0  0  0  0  0
   -1.7863   -2.0195    0.9119 C   0  0  0  0  0  0  0  0  0  0  0  0
   -0.9073   -2.6615    1.4699 O   0  0  0  0  0  0  0  0  0  0  0  0
   -1.5803   -0.8195    0.3749 N   0  0  0  0  0  0  0  0  0  0  0  0
   -2.3603   -0.3345   -0.0451 H   0  0  0  0  0  0  0  0  0  0  0  0
   -0.2933   -0.1205    0.3719 C   0  0  1  0  0  0  0  0  0  0  0  0
    0.3577   -0.5843    1.1143 H   0  0  0  0  0  0  0  0  0  0  0  0
    0.3613   -0.2794   -1.0156 C   0  0  0  0  0  0  0  0  0  0  0  0
    0.9878    0.5955   -1.1972 H   0  0  0  0  0  0  0  0  0  0  0  0
    1.0033   -1.1615   -1.0117 H   0  0  0  0  0  0  0  0  0  0  0  0
   -0.6477   -0.4144   -2.1691 C   0  0  0  0  0  0  0  0  0  0  0  0
   -1.5638   -0.8823   -1.8083 H   0  0  0  0  0  0  0  0  0  0  0  0
   -0.8822    0.5761   -2.5572 H   0  0  0  0  0  0  0  0  0  0  0  0
   -0.1029   -1.2565   -3.3183 C   0  0  0  0  0  0  0  0  0  0  0  0
    1.0415   -1.6731   -3.4000 O   0  0  0  0  0  0  0  0  0  0  0  0
   -0.9788   -1.5296   -4.3030 O   0  0  0  0  0  0  0  0  0  0  0  0
   -0.4851   -2.0461   -4.9424 H   0  0  0  0  0  0  0  0  0  0  0  0
   -0.4860    1.3537    0.7622 C   0  0  0  0  0  0  0  0  0  0  0  0
   -1.3956    2.0096    0.2582 O   0  0  0  0  0  0  0  0  0  0  0  0
    0.3741    1.8728    1.6466 N   0  0  0  0  0  0  0  0  0  0  0  0
    1.0814    1.2667    2.0345 H   0  0  0  0  0  0  0  0  0  0  0  0
    0.3380    3.2610    2.1024 C   0  0  0  0  0  0  0  0  0  0  0  0
   -0.6389    3.4820    2.5363 H   0  0  0  0  0  0  0  0  0  0  0  0
    1.1108    3.4337    2.8528 H   0  0  0  0  0  0  0  0  0  0  0  0
    0.5009    3.9312    1.2562 H   0  0  0  0  0  0  0  0  0  0  0  0
  5  6  2  0  0  0  0
  5  7  1  0  0  0  0
  2  3  1  0  0  0  0
  2  4  1  0  0  0  0
  2  5  1  0  0  0  0
  1  2  1  0  0  0  0
 21 22  2  0  0  0  0
 21 23  1  0  0  0  0
 19 20  1  0  0  0  0
 17 18  2  0  0  0  0
 17 19  1  0  0  0  0
 14 15  1  0  0  0  0
 14 16  1  0  0  0  0
 14 17  1  0  0  0  0
 11 12  1  0  0  0  0
 11 13  1  0  0  0  0
 11 14  1  0  0  0  0
  9 10  1  0  0  0  0
  9 11  1  0  0  0  0
  9 21  1  0  0  0  0
  7  8  1  0  0  0  0
  7  9  1  0  0  0  0
 25 26  1  0  0  0  0
 25 27  1  0  0  0  0
 25 28  1  0  0  0  0
 23 24  1  0  0  0  0
 23 25  1  0  0  0  0
M  END
$$$$
default_name
  -OEChem-02102213163D

 28 27  0     1  0  0  0  0  0999 V2000
   -3.2133   -3.5565    1.2809 H   0  0  0  0  0  0  0  0  0  0  0  0
   -3.1873   -2.5755    0.8089 C   0  0  0  0  0  0  0  0  0  0  0  0
   -3.8793   -1.9065    1.3169 H   0  0  0  0  0  0  0  0  0  0  0  0
   -3.4623   -2.6685   -0.2401 H   0  0  0  0  0  0  0  0  0  0  0  0
   -1.7863   -2.0195    0.9119 C   0  0  0  0  0  0  0  0  0  0  0  0
   -0.9073   -2.6615    1.4699 O   0  0  0  0  0  0  0  0  0  0  0  0
   -1.5803   -0.8195    0.3749 N   0  0  0  0  0  0  0  0  0  0  0  0
   -2.3603   -0.3345   -0.0451 H   0  0  0  0  0  0  0  0  0  0  0  0
   -0.2933   -0.1205    0.3719 C   0  0  1  0  0  0  0  0  0  0  0  0
    0.3577   -0.5843    1.1143 H   0  0  0  0  0  0  0  0  0  0  0  0
    0.3613   -0.2794   -1.0156 C   0  0  0  0  0  0  0  0  0  0  0  0
    0.9878    0.5955   -1.1972 H   0  0  0  0  0  0  0  0  0  0  0  0
    1.0033   -1.1615   -1.0117 H   0  0  0  0  0  0  0  0  0  0  0  0
   -0.6477   -0.4144   -2.1691 C   0  0  0  0  0  0  0  0  0  0  0  0
   -1.6398   -0.6285   -1.7714 H   0  0  0  0  0  0  0  0  0  0  0  0
   -0.6812    0.5209   -2.7266 H   0  0  0  0  0  0  0  0  0  0  0  0
   -0.2717   -1.5303   -3.1386 C   0  0  0  0  0  0  0  0  0  0  0  0
    0.7693   -2.1668   -3.1041 O   0  0  0  0  0  0  0  0  0  0  0  0
   -1.1783   -1.7953   -4.0975 O   0  0  0  0  0  0  0  0  0  0  0  0
   -0.7915   -2.4991   -4.6213 H   0  0  0  0  0  0  0  0  0  0  0  0
   -0.4860    1.3537    0.7622 C   0  0  0  0  0  0  0  0  0  0  0  0
   -1.3956    2.0096    0.2582 O   0  0  0  0  0  0  0  0  0  0  0  0
    0.3741    1.8728    1.6466 N   0  0  0  0  0  0  0  0  0  0  0  0
    1.0814    1.2667    2.0345 H   0  0  0  0  0  0  0  0  0  0  0  0
    0.3380    3.2610    2.1024 C   0  0  0  0  0  0  0  0  0  0  0  0
   -0.6389    3.4820    2.5363 H   0  0  0  0  0  0  0  0  0  0  0  0
    1.1108    3.4337    2.8528 H   0  0  0  0  0  0  0  0  0  0  0  0
    0.5009    3.9312    1.2562 H   0  0  0  0  0  0  0  0  0  0  0  0
  5  6  2  0  0  0  0
  5  7  1  0  0  0  0
  2  3  1  0  0  0  0
  2  4  1  0  0  0  0
  2  5  1  0  0  0  0
  1  2  1  0  0  0  0
 21 22  2  0  0  0  0
 21 23  1  0  0  0  0
 19 20  1  0  0  0  0
 17 18  2  0  0  0  0
 17 19  1  0  0  0  0
 14 15  1  0  0  0  0
 14 16  1  0  0  0  0
 14 17  1  0  0  0  0
 11 12  1  0  0  0  0
 11 13  1  0  0  0  0
 11 14  1  0  0  0  0
  9 10  1  0  0  0  0
  9 11  1  0  0  0  0
  9 21  1  0  0  0  0
  7  8  1  0  0  0  0
  7  9  1  0  0  0  0
 25 26  1  0  0  0  0
 25 27  1  0  0  0  0
 25 28  1  0  0  0  0
 23 24  1  0  0  0  0
 23 25  1  0  0  0  0
M  END
$$$$
default_name
  -OEChem-02102213163D

 28 27  0     1  0  0  0  0  0999 V2000
   -3.2133   -3.5565    1.2809 H   0  0  0  0  0  0  0  0  0  0  0  0
   -3.1873   -2.5755    0.8089 C   0  0  0  0  0  0  0  0  0  0  0  0
   -3.8793   -1.9065    1.3169 H   0  0  0  0  0  0  0  0  0  0  0  0
   -3.4623   -2.6685   -0.2401 H   0  0  0  0  0  0  0  0  0  0  0  0
   -1.7863   -2.0195    0.9119 C   0  0  0  0  0  0  0  0  0  0  0  0
   -0.9073   -2.6615    1.4699 O   0  0  0  0  0  0  0  0  0  0  0  0
   -1.5803   -0.8195    0.3749 N   0  0  0  0  0  0  0  0  0  0  0  0
   -2.3603   -0.3345   -0.0451 H   0  0  0  0  0  0  0  0  0  0  0  0
   -0.2933   -0.1205    0.3719 C   0  0  1  0  0  0  0  0  0  0  0  0
    0.3577   -0.5843    1.1143 H   0  0  0  0  0  0  0  0  0  0  0  0
    0.3613   -0.2794   -1.0156 C   0  0  0  0  0  0  0  0  0  0  0  0
    0.9878    0.5955   -1.1972 H   0  0  0  0  0  0  0  0  0  0  0  0
    1.0033   -1.1615   -1.0117 H   0  0  0  0  0  0  0  0  0  0  0  0
   -0.6477   -0.4144   -2.1691 C   0  0  0  0  0  0  0  0  0  0  0  0
   -1.6649   -0.3622   -1.7807 H   0  0  0  0  0  0  0  0  0  0  0  0
   -0.4939    0.3998   -2.8762 H   0  0  0  0  0  0  0  0  0  0  0  0
   -0.4919   -1.7316   -2.9224 C   0  0  0  0  0  0  0  0  0  0  0  0
    0.4039   -2.5405   -2.7407 O   0  0  0  0  0  0  0  0  0  0  0  0
   -1.4272   -1.9784   -3.8583 O   0  0  0  0  0  0  0  0  0  0  0  0
   -1.1828   -2.8227   -4.2412 H   0  0  0  0  0  0  0  0  0  0  0  0
   -0.4860    1.3537    0.7622 C   0  0  0  0  0  0  0  0  0  0  0  0
   -1.3956    2.0096    0.2582 O   0  0  0  0  0  0  0  0  0  0  0  0
    0.3741    1.8728    1.6466 N   0  0  0  0  0  0  0  0  0  0  0  0
    1.0814    1.2667    2.0345 H   0  0  0  0  0  0  0  0  0  0  0  0
    0.3380    3.2610    2.1024 C   0  0  0  0  0  0  0  0  0  0  0  0
   -0.6389    3.4820    2.5363 H   0  0  0  0  0  0  0  0  0  0  0  0
    1.1108    3.4337    2.8528 H   0  0  0  0  0  0  0  0  0  0  0  0
    0.5009    3.9312    1.2562 H   0  0  0  0  0  0  0  0  0  0  0  0
  5  6  2  0  0  0  0
  5  7  1  0  0  0  0
  2  3  1  0  0  0  0
  2  4  1  0  0  0  0
  2  5  1  0  0  0  0
  1  2  1  0  0  0  0
 21 22  2  0  0  0  0
 21 23  1  0  0  0  0
 19 20  1  0  0  0  0
 17 18  2  0  0  0  0
 17 19  1  0  0  0  0
 14 15  1  0  0  0  0
 14 16  1  0  0  0  0
 14 17  1  0  0  0  0
 11 12  1  0  0  0  0
 11 13  1  0  0  0  0
 11 14  1  0  0  0  0
  9 10  1  0  0  0  0
  9 11  1  0  0  0  0
  9 21  1  0  0  0  0
  7  8  1  0  0  0  0
  7  9  1  0  0  0  0
 25 26  1  0  0  0  0
 25 27  1  0  0  0  0
 25 28  1  0  0  0  0
 23 24  1  0  0  0  0
 23 25  1  0  0  0  0
M  END
$$$$
default_name
  -OEChem-02102213163D

 28 27  0     1  0  0  0  0  0999 V2000
   -3.2133   -3.5565    1.2809 H   0  0  0  0  0  0  0  0  0  0  0  0
   -3.1873   -2.5755    0.8089 C   0  0  0  0  0  0  0  0  0  0  0  0
   -3.8793   -1.9065    1.3169 H   0  0  0  0  0  0  0  0  0  0  0  0
   -3.4623   -2.6685   -0.2401 H   0  0  0  0  0  0  0  0  0  0  0  0
   -1.7863   -2.0195    0.9119 C   0  0  0  0  0  0  0  0  0  0  0  0
   -0.9073   -2.6615    1.4699 O   0  0  0  0  0  0  0  0  0  0  0  0
   -1.5803   -0.8195    0.3749 N   0  0  0  0  0  0  0  0  0  0  0  0
   -2.3603   -0.3345   -0.0451 H   0  0  0  0  0  0  0  0  0  0  0  0
   -0.2933   -0.1205    0.3719 C   0  0  1  0  0  0  0  0  0  0  0  0
    0.3577   -0.5843    1.1143 H   0  0  0  0  0  0  0  0  0  0  0  0
    0.3613   -0.2794   -1.0156 C   0  0  0  0  0  0  0  0  0  0  0  0
    0.9878    0.5955   -1.1972 H   0  0  0  0  0  0  0  0  0  0  0  0
    1.0033   -1.1615   -1.0117 H   0  0  0  0  0  0  0  0  0  0  0  0
   -0.6477   -0.4144   -2.1691 C   0  0  0  0  0  0  0  0  0  0  0  0
   -1.6372   -0.1018   -1.8354 H   0  0  0  0  0  0  0  0  0  0  0  0
   -0.3330    0.2211   -2.9960 H   0  0  0  0  0  0  0  0  0  0  0  0
   -0.7487   -1.8465   -2.6843 C   0  0  0  0  0  0  0  0  0  0  0  0
   -0.0299   -2.7690   -2.3346 O   0  0  0  0  0  0  0  0  0  0  0  0
   -1.7085   -2.0663   -3.6019 O   0  0  0  0  0  0  0  0  0  0  0  0
   -1.6321   -2.9949   -3.8280 H   0  0  0  0  0  0  0  0  0  0  0  0
   -0.4860    1.3537    0.7622 C   0  0  0  0  0  0  0  0  0  0  0  0
   -1.3956    2.0096    0.2582 O   0  0  0  0  0  0  0  0  0  0  0  0
    0.3741    1.8728    1.6466 N   0  0  0  0  0  0  0  0  0  0  0  0
    1.0814    1.2667    2.0345 H   0  0  0  0  0  0  0  0  0  0  0  0
    0.3380    3.2610    2.1024 C   0  0  0  0  0  0  0  0  0  0  0  0
   -0.6389    3.4820    2.5363 H   0  0  0  0  0  0  0  0  0  0  0  0
    1.1108    3.4337    2.8528 H   0  0  0  0  0  0  0  0  0  0  0  0
    0.5009    3.9312    1.2562 H   0  0  0  0  0  0  0  0  0  0  0  0
  5  6  2  0  0  0  0
  5  7  1  0  0  0  0
  2  3  1  0  0  0  0
  2  4  1  0  0  0  0
  2  5  1  0  0  0  0
  1  2  1  0  0  0  0
 21 22  2  0  0  0  0
 21 23  1  0  0  0  0
 19 20  1  0  0  0  0
 17 18  2  0  0  0  0
 17 19  1  0  0  0  0
 14 15  1  0  0  0  0
 14 16  1  0  0  0  0
 14 17  1  0  0  0  0
 11 12  1  0  0  0  0
 11 13  1  0  0  0  0
 11 14  1  0  0  0  0
  9 10  1  0  0  0  0
  9 11  1  0  0  0  0
  9 21  1  0  0  0  0
  7  8  1  0  0  0  0
  7  9  1  0  0  0  0
 25 26  1  0  0  0  0
 25 27  1  0  0  0  0
 25 28  1  0  0  0  0
 23 24  1  0  0  0  0
 23 25  1  0  0  0  0
M  END
$$$$
default_name
  -OEChem-02102213163D

 28 27  0     1  0  0  0  0  0999 V2000
   -3.2133   -3.5565    1.2809 H   0  0  0  0  0  0  0  0  0  0  0  0
   -3.1873   -2.5755    0.8089 C   0  0  0  0  0  0  0  0  0  0  0  0
   -3.8793   -1.9065    1.3169 H   0  0  0  0  0  0  0  0  0  0  0  0
   -3.4623   -2.6685   -0.2401 H   0  0  0  0  0  0  0  0  0  0  0  0
   -1.7863   -2.0195    0.9119 C   0  0  0  0  0  0  0  0  0  0  0  0
   -0.9073   -2.6615    1.4699 O   0  0  0  0  0  0  0  0  0  0  0  0
   -1.5803   -0.8195    0.3749 N   0  0  0  0  0  0  0  0  0  0  0  0
   -2.3603   -0.3345   -0.0451 H   0  0  0  0  0  0  0  0  0  0  0  0
   -0.2933   -0.1205    0.3719 C   0  0  1  0  0  0  0  0  0  0  0  0
    0.3577   -0.5843    1.1143 H   0  0  0  0  0  0  0  0  0  0  0  0
    0.3613   -0.2794   -1.0156 C   0  0  0  0  0  0  0  0  0  0  0  0
    0.9878    0.5955   -1.1972 H   0  0  0  0  0  0  0  0  0  0  0  0
    1.0033   -1.1615   -1.0117 H   0  0  0  0  0  0  0  0  0  0  0  0
   -0.6477   -0.4144   -2.1691 C   0  0  0  0  0  0  0  0  0  0  0  0
   -1.5587    0.1351   -1.9318 H   0  0  0  0  0  0  0  0  0  0  0  0
   -0.2096   -0.0030   -3.0777 H   0  0  0  0  0  0  0  0  0  0  0  0
   -1.0243   -1.8673   -2.4408 C   0  0  0  0  0  0  0  0  0  0  0  0
   -0.5025   -2.8365   -1.9134 O   0  0  0  0  0  0  0  0  0  0  0  0
   -2.0032   -2.0531   -3.3458 O   0  0  0  0  0  0  0  0  0  0  0  0
   -2.1089   -3.0038   -3.4099 H   0  0  0  0  0  0  0  0  0  0  0  0
   -0.4860    1.3537    0.7622 C   0  0  0  0  0  0  0  0  0  0  0  0
   -1.3956    2.0096    0.2582 O   0  0  0  0  0  0  0  0  0  0  0  0
    0.3741    1.8728    1.6466 N   0  0  0  0  0  0  0  0  0  0  0  0
    1.0814    1.2667    2.0345 H   0  0  0  0  0  0  0  0  0  0  0  0
    0.3380    3.2610    2.1024 C   0  0  0  0  0  0  0  0  0  0  0  0
   -0.6389    3.4820    2.5363 H   0  0  0  0  0  0  0  0  0  0  0  0
    1.1108    3.4337    2.8528 H   0  0  0  0  0  0  0  0  0  0  0  0
    0.5009    3.9312    1.2562 H   0  0  0  0  0  0  0  0  0  0  0  0
  5  6  2  0  0  0  0
  5  7  1  0  0  0  0
  2  3  1  0  0  0  0
  2  4  1  0  0  0  0
  2  5  1  0  0  0  0
  1  2  1  0  0  0  0
 21 22  2  0  0  0  0
 21 23  1  0  0  0  0
 19 20  1  0  0  0  0
 17 18  2  0  0  0  0
 17 19  1  0  0  0  0
 14 15  1  0  0  0  0
 14 16  1  0  0  0  0
 14 17  1  0  0  0  0
 11 12  1  0  0  0  0
 11 13  1  0  0  0  0
 11 14  1  0  0  0  0
  9 10  1  0  0  0  0
  9 11  1  0  0  0  0
  9 21  1  0  0  0  0
  7  8  1  0  0  0  0
  7  9  1  0  0  0  0
 25 26  1  0  0  0  0
 25 27  1  0  0  0  0
 25 28  1  0  0  0  0
 23 24  1  0  0  0  0
 23 25  1  0  0  0  0
M  END
$$$$
default_name
  -OEChem-02102213163D

 28 27  0     1  0  0  0  0  0999 V2000
   -3.2133   -3.5565    1.2809 H   0  0  0  0  0  0  0  0  0  0  0  0
   -3.1873   -2.5755    0.8089 C   0  0  0  0  0  0  0  0  0  0  0  0
   -3.8793   -1.9065    1.3169 H   0  0  0  0  0  0  0  0  0  0  0  0
   -3.4623   -2.6685   -0.2401 H   0  0  0  0  0  0  0  0  0  0  0  0
   -1.7863   -2.0195    0.9119 C   0  0  0  0  0  0  0  0  0  0  0  0
   -0.9073   -2.6615    1.4699 O   0  0  0  0  0  0  0  0  0  0  0  0
   -1.5803   -0.8195    0.3749 N   0  0  0  0  0  0  0  0  0  0  0  0
   -2.3603   -0.3345   -0.0451 H   0  0  0  0  0  0  0  0  0  0  0  0
   -0.2933   -0.1205    0.3719 C   0  0  1  0  0  0  0  0  0  0  0  0
    0.3577   -0.5843    1.1143 H   0  0  0  0  0  0  0  0  0  0  0  0
    0.3613   -0.2794   -1.0156 C   0  0  0  0  0  0  0  0  0  0  0  0
    0.9878    0.5955   -1.1972 H   0  0  0  0  0  0  0  0  0  0  0  0
    1.0033   -1.1615   -1.0117 H   0  0  0  0  0  0  0  0  0  0  0  0
   -0.6477   -0.4144   -2.1691 C   0  0  0  0  0  0  0  0  0  0  0  0
   -1.4347    0.3323   -2.0633 H   0  0  0  0  0  0  0  0  0  0  0  0
   -0.1321   -0.2574   -3.1158 H   0  0  0  0  0  0  0  0  0  0  0  0
   -1.3002   -1.7926   -2.2082 C   0  0  0  0  0  0  0  0  0  0  0  0
   -0.9816   -2.7385   -1.5057 O   0  0  0  0  0  0  0  0  0  0  0  0
   -2.2911   -1.9396   -3.1072 O   0  0  0  0  0  0  0  0  0  0  0  0
   -2.5807   -2.8490   -3.0153 H   0  0  0  0  0  0  0  0  0  0  0  0
   -0.4860    1.3537    0.7622 C   0  0  0  0  0  0  0  0  0  0  0  0
   -1.3956    2.0096    0.2582 O   0  0  0  0  0  0  0  0  0  0  0  0
    0.3741    1.8728    1.6466 N   0  0  0  0  0  0  0  0  0  0  0  0
    1.0814    1.2667    2.0345 H   0  0  0  0  0  0  0  0  0  0  0  0
    0.3380    3.2610    2.1024 C   0  0  0  0  0  0  0  0  0  0  0  0
   -0.6389    3.4820    2.5363 H   0  0  0  0  0  0  0  0  0  0  0  0
    1.1108    3.4337    2.8528 H   0  0  0  0  0  0  0  0  0  0  0  0
    0.5009    3.9312    1.2562 H   0  0  0  0  0  0  0  0  0  0  0  0
  5  6  2  0  0  0  0
  5  7  1  0  0  0  0
  2  3  1  0  0  0  0
  2  4  1  0  0  0  0
  2  5  1  0  0  0  0
  1  2  1  0  0  0  0
 21 22  2  0  0  0  0
 21 23  1  0  0  0  0
 19 20  1  0  0  0  0
 17 18  2  0  0  0  0
 17 19  1  0  0  0  0
 14 15  1  0  0  0  0
 14 16  1  0  0  0  0
 14 17  1  0  0  0  0
 11 12  1  0  0  0  0
 11 13  1  0  0  0  0
 11 14  1  0  0  0  0
  9 10  1  0  0  0  0
  9 11  1  0  0  0  0
  9 21  1  0  0  0  0
  7  8  1  0  0  0  0
  7  9  1  0  0  0  0
 25 26  1  0  0  0  0
 25 27  1  0  0  0  0
 25 28  1  0  0  0  0
 23 24  1  0  0  0  0
 23 25  1  0  0  0  0
M  END
$$$$
default_name
  -OEChem-02102213163D

 28 27  0     1  0  0  0  0  0999 V2000
   -3.2133   -3.5565    1.2809 H   0  0  0  0  0  0  0  0  0  0  0  0
   -3.1873   -2.5755    0.8089 C   0  0  0  0  0  0  0  0  0  0  0  0
   -3.8793   -1.9065    1.3169 H   0  0  0  0  0  0  0  0  0  0  0  0
   -3.4623   -2.6685   -0.2401 H   0  0  0  0  0  0  0  0  0  0  0  0
   -1.7863   -2.0195    0.9119 C   0  0  0  0  0  0  0  0  0  0  0  0
   -0.9073   -2.6615    1.4699 O   0  0  0  0  0  0  0  0  0  0  0  0
   -1.5803   -0.8195    0.3749 N   0  0  0  0  0  0  0  0  0  0  0  0
   -2.3603   -0.3345   -0.0451 H   0  0  0  0  0  0  0  0  0  0  0  0
   -0.2933   -0.1205    0.3719 C   0  0  1  0  0  0  0  0  0  0  0  0
    0.3577   -0.5843    1.1143 H   0  0  0  0  0  0  0  0  0  0  0  0
    0.3613   -0.2794   -1.0156 C   0  0  0  0  0  0  0  0  0  0  0  0
    0.9878    0.5955   -1.1972 H   0  0  0  0  0  0  0  0  0  0  0  0
    1.0033   -1.1615   -1.0117 H   0  0  0  0  0  0  0  0  0  0  0  0
   -0.6477   -0.4144   -2.1691 C   0  0  0  0  0  0  0  0  0  0  0  0
   -1.2737    0.4765   -2.2210 H   0  0  0  0  0  0  0  0  0  0  0  0
   -0.1057   -0.5245   -3.1076 H   0  0  0  0  0  0  0  0  0  0  0  0
   -1.5574   -1.6274   -2.0026 C   0  0  0  0  0  0  0  0  0  0  0  0
   -1.4346   -2.4817   -1.1395 O   0  0  0  0  0  0  0  0  0  0  0  0
   -2.5525   -1.7337   -2.9026 O   0  0  0  0  0  0  0  0  0  0  0  0
   -3.0154   -2.5409   -2.6712 H   0  0  0  0  0  0  0  0  0  0  0  0
   -0.4860    1.3537    0.7622 C   0  0  0  0  0  0  0  0  0  0  0  0
   -1.3956    2.0096    0.2582 O   0  0  0  0  0  0  0  0  0  0  0  0
    0.3741    1.8728    1.6466 N   0  0  0  0  0  0  0  0  0  0  0  0
    1.0814    1.2667    2.0345 H   0  0  0  0  0  0  0  0  0  0  0  0
    0.3380    3.2610    2.1024 C   0  0  0  0  0  0  0  0  0  0  0  0
   -0.6389    3.4820    2.5363 H   0  0  0  0  0  0  0  0  0  0  0  0
    1.1108    3.4337    2.8528 H   0  0  0  0  0  0  0  0  0  0  0  0
    0.5009    3.9312    1.2562 H   0  0  0  0  0  0  0  0  0  0  0  0
  5  6  2  0  0  0  0
  5  7  1  0  0  0  0
  2  3  1  0  0  0  0
  2  4  1  0  0  0  0
  2  5  1  0  0  0  0
  1  2  1  0  0  0  0
 21 22  2  0  0  0  0
 21 23  1  0  0  0  0
 19 20  1  0  0  0  0
 17 18  2  0  0  0  0
 17 19  1  0  0  0  0
 14 15  1  0  0  0  0
 14 16  1  0  0  0  0
 14 17  1  0  0  0  0
 11 12  1  0  0  0  0
 11 13  1  0  0  0  0
 11 14  1  0  0  0  0
  9 10  1  0  0  0  0
  9 11  1  0  0  0  0
  9 21  1  0  0  0  0
  7  8  1  0  0  0  0
  7  9  1  0  0  0  0
 25 26  1  0  0  0  0
 25 27  1  0  0  0  0
 25 28  1  0  0  0  0
 23 24  1  0  0  0  0
 23 25  1  0  0  0  0
M  END
$$$$
default_name
  -OEChem-02102213163D

 28 27  0     1  0  0  0  0  0999 V2000
   -3.2133   -3.5565    1.2809 H   0  0  0  0  0  0  0  0  0  0  0  0
   -3.1873   -2.5755    0.8089 C   0  0  0  0  0  0  0  0  0  0  0  0
   -3.8793   -1.9065    1.3169 H   0  0  0  0  0  0  0  0  0  0  0  0
   -3.4623   -2.6685   -0.2401 H   0  0  0  0  0  0  0  0  0  0  0  0
   -1.7863   -2.0195    0.9119 C   0  0  0  0  0  0  0  0  0  0  0  0
   -0.9073   -2.6615    1.4699 O   0  0  0  0  0  0  0  0  0  0  0  0
   -1.5803   -0.8195    0.3749 N   0  0  0  0  0  0  0  0  0  0  0  0
   -2.3603   -0.3345   -0.0451 H   0  0  0  0  0  0  0  0  0  0  0  0
   -0.2933   -0.1205    0.3719 C   0  0  1  0  0  0  0  0  0  0  0  0
    0.3577   -0.5843    1.1143 H   0  0  0  0  0  0  0  0  0  0  0  0
    0.3613   -0.2794   -1.0156 C   0  0  0  0  0  0  0  0  0  0  0  0
    0.9878    0.5955   -1.1972 H   0  0  0  0  0  0  0  0  0  0  0  0
    1.0033   -1.1615   -1.0117 H   0  0  0  0  0  0  0  0  0  0  0  0
   -0.6477   -0.4144   -2.1691 C   0  0  0  0  0  0  0  0  0  0  0  0
   -1.0866    0.5577   -2.3942 H   0  0  0  0  0  0  0  0  0  0  0  0
   -0.1322   -0.7863   -3.0538 H   0  0  0  0  0  0  0  0  0  0  0  0
   -1.7785   -1.3829   -1.8378 C   0  0  0  0  0  0  0  0  0  0  0  0
   -1.8307   -2.0836   -0.8397 O   0  0  0  0  0  0  0  0  0  0  0  0
   -2.7698   -1.4493   -2.7459 O   0  0  0  0  0  0  0  0  0  0  0  0
   -3.3832   -2.1005   -2.4010 H   0  0  0  0  0  0  0  0  0  0  0  0
   -0.4860    1.3537    0.7622 C   0  0  0  0  0  0  0  0  0  0  0  0
   -1.3956    2.0096    0.2582 O   0  0  0  0  0  0  0  0  0  0  0  0
    0.3741    1.8728    1.6466 N   0  0  0  0  0  0  0  0  0  0  0  0
    1.0814    1.2667    2.0345 H   0  0  0  0  0  0  0  0  0  0  0  0
    0.3380    3.2610    2.1024 C   0  0  0  0  0  0  0  0  0  0  0  0
   -0.6389    3.4820    2.5363 H   0  0  0  0  0  0  0  0  0  0  0  0
    1.1108    3.4337    2.8528 H   0  0  0  0  0  0  0  0  0  0  0  0
    0.5009    3.9312    1.2562 H   0  0  0  0  0  0  0  0  0  0  0  0
  5  6  2  0  0  0  0
  5  7  1  0  0  0  0
  2  3  1  0  0  0  0
  2  4  1  0  0  0  0
  2  5  1  0  0  0  0
  1  2  1  0  0  0  0
 21 22  2  0  0  0  0
 21 23  1  0  0  0  0
 19 20  1  0  0  0  0
 17 18  2  0  0  0  0
 17 19  1  0  0  0  0
 14 15  1  0  0  0  0
 14 16  1  0  0  0  0
 14 17  1  0  0  0  0
 11 12  1  0  0  0  0
 11 13  1  0  0  0  0
 11 14  1  0  0  0  0
  9 10  1  0  0  0  0
  9 11  1  0  0  0  0
  9 21  1  0  0  0  0
  7  8  1  0  0  0  0
  7  9  1  0  0  0  0
 25 26  1  0  0  0  0
 25 27  1  0  0  0  0
 25 28  1  0  0  0  0
 23 24  1  0  0  0  0
 23 25  1  0  0  0  0
M  END
$$$$
default_name
  -OEChem-02102213163D

 28 27  0     1  0  0  0  0  0999 V2000
   -3.2133   -3.5565    1.2809 H   0  0  0  0  0  0  0  0  0  0  0  0
   -3.1873   -2.5755    0.8089 C   0  0  0  0  0  0  0  0  0  0  0  0
   -3.8793   -1.9065    1.3169 H   0  0  0  0  0  0  0  0  0  0  0  0
   -3.4623   -2.6685   -0.2401 H   0  0  0  0  0  0  0  0  0  0  0  0
   -1.7863   -2.0195    0.9119 C   0  0  0  0  0  0  0  0  0  0  0  0
   -0.9073   -2.6615    1.4699 O   0  0  0  0  0  0  0  0  0  0  0  0
   -1.5803   -0.8195    0.3749 N   0  0  0  0  0  0  0  0  0  0  0  0
   -2.3603   -0.3345   -0.0451 H   0  0  0  0  0  0  0  0  0  0  0  0
   -0.2933   -0.1205    0.3719 C   0  0  1  0  0  0  0  0  0  0  0  0
    0.3577   -0.5843    1.1143 H   0  0  0  0  0  0  0  0  0  0  0  0
    0.3613   -0.2794   -1.0156 C   0  0  0  0  0  0  0  0  0  0  0  0
    0.9878    0.5955   -1.1972 H   0  0  0  0  0  0  0  0  0  0  0  0
    1.0033   -1.1615   -1.0117 H   0  0  0  0  0  0  0  0  0  0  0  0
   -0.6477   -0.4144   -2.1691 C   0  0  0  0  0  0  0  0  0  0  0  0
   -0.8862    0.5704   -2.5710 H   0  0  0  0  0  0  0  0  0  0  0  0
   -0.2098   -1.0249   -2.9579 H   0  0  0  0  0  0  0  0  0  0  0  0
   -1.9484   -1.0760   -1.7251 C   0  0  0  0  0  0  0  0  0  0  0  0
   -2.1428   -1.5713   -0.6266 O   0  0  0  0  0  0  0  0  0  0  0  0
   -2.9280   -1.1059   -2.6477 O   0  0  0  0  0  0  0  0  0  0  0  0
   -3.6592   -1.5579   -2.2231 H   0  0  0  0  0  0  0  0  0  0  0  0
   -0.4860    1.3537    0.7622 C   0  0  0  0  0  0  0  0  0  0  0  0
   -1.3956    2.0096    0.2582 O   0  0  0  0  0  0  0  0  0  0  0  0
    0.3741    1.8728    1.6466 N   0  0  0  0  0  0  0  0  0  0  0  0
    1.0814    1.2667    2.0345 H   0  0  0  0  0  0  0  0  0  0  0  0
    0.3380    3.2610    2.1024 C   0  0  0  0  0  0  0  0  0  0  0  0
   -0.6389    3.4820    2.5363 H   0  0  0  0  0  0  0  0  0  0  0  0
    1.1108    3.4337    2.8528 H   0  0  0  0  0  0  0  0  0  0  0  0
    0.5009    3.9312    1.2562 H   0  0  0  0  0  0  0  0  0  0  0  0
  5  6  2  0  0  0  0
  5  7  1  0  0  0  0
  2  3  1  0  0  0  0
  2  4  1  0  0  0  0
  2  5  1  0  0  0  0
  1  2  1  0  0  0  0
 21 22  2  0  0  0  0
 21 23  1  0  0  0  0
 19 20  1  0  0  0  0
 17 18  2  0  0  0  0
 17 19  1  0  0  0  0
 14 15  1  0  0  0  0
 14 16  1  0  0  0  0
 14 17  1  0  0  0  0
 11 12  1  0  0  0  0
 11 13  1  0  0  0  0
 11 14  1  0  0  0  0
  9 10  1  0  0  0  0
  9 11  1  0  0  0  0
  9 21  1  0  0  0  0
  7  8  1  0  0  0  0
  7  9  1  0  0  0  0
 25 26  1  0  0  0  0
 25 27  1  0  0  0  0
 25 28  1  0  0  0  0
 23 24  1  0  0  0  0
 23 25  1  0  0  0  0
M  END
$$$$
default_name
  -OEChem-02102213163D

 28 27  0     1  0  0  0  0  0999 V2000
   -3.2133   -3.5565    1.2809 H   0  0  0  0  0  0  0  0  0  0  0  0
   -3.1873   -2.5755    0.8089 C   0  0  0  0  0  0  0  0  0  0  0  0
   -3.8793   -1.9065    1.3169 H   0  0  0  0  0  0  0  0  0  0  0  0
   -3.4623   -2.6685   -0.2401 H   0  0  0  0  0  0  0  0  0  0  0  0
   -1.7863   -2.0195    0.9119 C   0  0  0  0  0  0  0  0  0  0  0  0
   -0.9073   -2.6615    1.4699 O   0  0  0  0  0  0  0  0  0  0  0  0
   -1.5803   -0.8195    0.3749 N   0  0  0  0  0  0  0  0  0  0  0  0
   -2.3603   -0.3345   -0.0451 H   0  0  0  0  0  0  0  0  0  0  0  0
   -0.2933   -0.1205    0.3719 C   0  0  1  0  0  0  0  0  0  0  0  0
    0.3577   -0.5843    1.1143 H   0  0  0  0  0  0  0  0  0  0  0  0
    0.3613   -0.2794   -1.0156 C   0  0  0  0  0  0  0  0  0  0  0  0
    0.9878    0.5955   -1.1972 H   0  0  0  0  0  0  0  0  0  0  0  0
    1.0033   -1.1615   -1.0117 H   0  0  0  0  0  0  0  0  0  0  0  0
   -0.6477   -0.4144   -2.1691 C   0  0  0  0  0  0  0  0  0  0  0  0
   -0.6861    0.5138   -2.7394 H   0  0  0  0  0  0  0  0  0  0  0  0
   -0.3333   -1.2241   -2.8266 H   0  0  0  0  0  0  0  0  0  0  0  0
   -2.0555   -0.7274   -1.6723 C   0  0  0  0  0  0  0  0  0  0  0  0
   -2.3498   -0.9797   -0.5149 O   0  0  0  0  0  0  0  0  0  0  0  0
   -3.0164   -0.7268   -2.6147 O   0  0  0  0  0  0  0  0  0  0  0  0
   -3.8246   -0.9500   -2.1496 H   0  0  0  0  0  0  0  0  0  0  0  0
   -0.4860    1.3537    0.7622 C   0  0  0  0  0  0  0  0  0  0  0  0
   -1.3956    2.0096    0.2582 O   0  0  0  0  0  0  0  0  0  0  0  0
    0.3741    1.8728    1.6466 N   0  0  0  0  0  0  0  0  0  0  0  0
    1.0814    1.2667    2.0345 H   0  0  0  0  0  0  0  0  0  0  0  0
    0.3380    3.2610    2.1024 C   0  0  0  0  0  0  0  0  0  0  0  0
   -0.6389    3.4820    2.5363 H   0  0  0  0  0  0  0  0  0  0  0  0
    1.1108    3.4337    2.8528 H   0  0  0  0  0  0  0  0  0  0  0  0
    0.5009    3.9312    1.2562 H   0  0  0  0  0  0  0  0  0  0  0  0
  5  6  2  0  0  0  0
  5  7  1  0  0  0  0
  2  3  1  0  0  0  0
  2  4  1  0  0  0  0
  2  5  1  0  0  0  0
  1  2  1  0  0  0  0
 21 22  2  0  0  0  0
 21 23  1  0  0  0  0
 19 20  1  0  0  0  0
 17 18  2  0  0  0  0
 17 19  1  0  0  0  0
 14 15  1  0  0  0  0
 14 16  1  0  0  0  0
 14 17  1  0  0  0  0
 11 12  1  0  0  0  0
 11 13  1  0  0  0  0
 11 14  1  0  0  0  0
  9 10  1  0  0  0  0
  9 11  1  0  0  0  0
  9 21  1  0  0  0  0
  7  8  1  0  0  0  0
  7  9  1  0  0  0  0
 25 26  1  0  0  0  0
 25 27  1  0  0  0  0
 25 28  1  0  0  0  0
 23 24  1  0  0  0  0
 23 25  1  0  0  0  0
M  END
$$$$
default_name
  -OEChem-02102213163D

 28 27  0     1  0  0  0  0  0999 V2000
   -3.2133   -3.5565    1.2809 H   0  0  0  0  0  0  0  0  0  0  0  0
   -3.1873   -2.5755    0.8089 C   0  0  0  0  0  0  0  0  0  0  0  0
   -3.8793   -1.9065    1.3169 H   0  0  0  0  0  0  0  0  0  0  0  0
   -3.4623   -2.6685   -0.2401 H   0  0  0  0  0  0  0  0  0  0  0  0
   -1.7863   -2.0195    0.9119 C   0  0  0  0  0  0  0  0  0  0  0  0
   -0.9073   -2.6615    1.4699 O   0  0  0  0  0  0  0  0  0  0  0  0
   -1.5803   -0.8195    0.3749 N   0  0  0  0  0  0  0  0  0  0  0  0
   -2.3603   -0.3345   -0.0451 H   0  0  0  0  0  0  0  0  0  0  0  0
   -0.2933   -0.1205    0.3719 C   0  0  1  0  0  0  0  0  0  0  0  0
    0.3577   -0.5843    1.1143 H   0  0  0  0  0  0  0  0  0  0  0  0
    0.3613   -0.2794   -1.0156 C   0  0  0  0  0  0  0  0  0  0  0  0
    0.9878    0.5955   -1.1972 H   0  0  0  0  0  0  0  0  0  0  0  0
    1.0033   -1.1615   -1.0117 H   0  0  0  0  0  0  0  0  0  0  0  0
   -0.6477   -0.4144   -2.1691 C   0  0  0  0  0  0  0  0  0  0  0  0
   -0.5000    0.3917   -2.8878 H   0  0  0  0  0  0  0  0  0  0  0  0
   -0.4942   -1.3702   -2.6688 H   0  0  0  0  0  0  0  0  0  0  0  0
   -2.0924   -0.3610   -1.6828 C   0  0  0  0  0  0  0  0  0  0  0  0
   -2.4374   -0.3491   -0.5121 O   0  0  0  0  0  0  0  0  0  0  0  0
   -3.0290   -0.3378   -2.6493 O   0  0  0  0  0  0  0  0  0  0  0  0
   -3.8680   -0.3183   -2.1856 H   0  0  0  0  0  0  0  0  0  0  0  0
   -0.4860    1.3537    0.7622 C   0  0  0  0  0  0  0  0  0  0  0  0
   -1.3956    2.0096    0.2582 O   0  0  0  0  0  0  0  0  0  0  0  0
    0.3741    1.8728    1.6466 N   0  0  0  0  0  0  0  0  0  0  0  0
    1.0814    1.2667    2.0345 H   0  0  0  0  0  0  0  0  0  0  0  0
    0.3380    3.2610    2.1024 C   0  0  0  0  0  0  0  0  0  0  0  0
   -0.6389    3.4820    2.5363 H   0  0  0  0  0  0  0  0  0  0  0  0
    1.1108    3.4337    2.8528 H   0  0  0  0  0  0  0  0  0  0  0  0
    0.5009    3.9312    1.2562 H   0  0  0  0  0  0  0  0  0  0  0  0
  5  6  2  0  0  0  0
  5  7  1  0  0  0  0
  2  3  1  0  0  0  0
  2  4  1  0  0  0  0
  2  5  1  0  0  0  0
  1  2  1  0  0  0  0
 21 22  2  0  0  0  0
 21 23  1  0  0  0  0
 19 20  1  0  0  0  0
 17 18  2  0  0  0  0
 17 19  1  0  0  0  0
 14 15  1  0  0  0  0
 14 16  1  0  0  0  0
 14 17  1  0  0  0  0
 11 12  1  0  0  0  0
 11 13  1  0  0  0  0
 11 14  1  0  0  0  0
  9 10  1  0  0  0  0
  9 11  1  0  0  0  0
  9 21  1  0  0  0  0
  7  8  1  0  0  0  0
  7  9  1  0  0  0  0
 25 26  1  0  0  0  0
 25 27  1  0  0  0  0
 25 28  1  0  0  0  0
 23 24  1  0  0  0  0
 23 25  1  0  0  0  0
M  END
$$$$
default_name
  -OEChem-02102213163D

 28 27  0     1  0  0  0  0  0999 V2000
   -3.2133   -3.5565    1.2809 H   0  0  0  0  0  0  0  0  0  0  0  0
   -3.1873   -2.5755    0.8089 C   0  0  0  0  0  0  0  0  0  0  0  0
   -3.8793   -1.9065    1.3169 H   0  0  0  0  0  0  0  0  0  0  0  0
   -3.4623   -2.6685   -0.2401 H   0  0  0  0  0  0  0  0  0  0  0  0
   -1.7863   -2.0195    0.9119 C   0  0  0  0  0  0  0  0  0  0  0  0
   -0.9073   -2.6615    1.4699 O   0  0  0  0  0  0  0  0  0  0  0  0
   -1.5803   -0.8195    0.3749 N   0  0  0  0  0  0  0  0  0  0  0  0
   -2.3603   -0.3345   -0.0451 H   0  0  0  0  0  0  0  0  0  0  0  0
   -0.2933   -0.1205    0.3719 C   0  0  1  0  0  0  0  0  0  0  0  0
    0.3577   -0.5843    1.1143 H   0  0  0  0  0  0  0  0  0  0  0  0
    0.3613   -0.2794   -1.0156 C   0  0  0  0  0  0  0  0  0  0  0  0
    0.9878    0.5955   -1.1972 H   0  0  0  0  0  0  0  0  0  0  0  0
    1.0033   -1.1615   -1.0117 H   0  0  0  0  0  0  0  0  0  0  0  0
   -0.6477   -0.4144   -2.1691 C   0  0  0  0  0  0  0  0  0  0  0  0
   -0.3406    0.2125   -3.0063 H   0  0  0  0  0  0  0  0  0  0  0  0
   -0.6815   -1.4533   -2.4952 H   0  0  0  0  0  0  0  0  0  0  0  0
   -2.0568   -0.0016   -1.7561 C   0  0  0  0  0  0  0  0  0  0  0  0
   -2.3997    0.2775   -0.6184 O   0  0  0  0  0  0  0  0  0  0  0  0
   -2.9649    0.0344   -2.7489 O   0  0  0  0  0  0  0  0  0  0  0  0
   -3.7865    0.2942   -2.3286 H   0  0  0  0  0  0  0  0  0  0  0  0
   -0.4860    1.3537    0.7622 C   0  0  0  0  0  0  0  0  0  0  0  0
   -1.3956    2.0096    0.2582 O   0  0  0  0  0  0  0  0  0  0  0  0
    0.3741    1.8728    1.6466 N   0  0  0  0  0  0  0  0  0  0  0  0
    1.0814    1.2667    2.0345 H   0  0  0  0  0  0  0  0  0  0  0  0
    0.3380    3.2610    2.1024 C   0  0  0  0  0  0  0  0  0  0  0  0
   -0.6389    3.4820    2.5363 H   0  0  0  0  0  0  0  0  0  0  0  0
    1.1108    3.4337    2.8528 H   0  0  0  0  0  0  0  0  0  0  0  0
    0.5009    3.9312    1.2562 H   0  0  0  0  0  0  0  0  0  0  0  0
  5  6  2  0  0  0  0
  5  7  1  0  0  0  0
  2  3  1  0  0  0  0
  2  4  1  0  0  0  0
  2  5  1  0  0  0  0
  1  2  1  0  0  0  0
 21 22  2  0  0  0  0
 21 23  1  0  0  0  0
 19 20  1  0  0  0  0
 17 18  2  0  0  0  0
 17 19  1  0  0  0  0
 14 15  1  0  0  0  0
 14 16  1  0  0  0  0
 14 17  1  0  0  0  0
 11 12  1  0  0  0  0
 11 13  1  0  0  0  0
 11 14  1  0  0  0  0
  9 10  1  0  0  0  0
  9 11  1  0  0  0  0
  9 21  1  0  0  0  0
  7  8  1  0  0  0  0
  7  9  1  0  0  0  0
 25 26  1  0  0  0  0
 25 27  1  0  0  0  0
 25 28  1  0  0  0  0
 23 24  1  0  0  0  0
 23 25  1  0  0  0  0
M  END
$$$$
default_name
  -OEChem-02102213163D

 28 27  0     1  0  0  0  0  0999 V2000
   -3.2133   -3.5565    1.2809 H   0  0  0  0  0  0  0  0  0  0  0  0
   -3.1873   -2.5755    0.8089 C   0  0  0  0  0  0  0  0  0  0  0  0
   -3.8793   -1.9065    1.3169 H   0  0  0  0  0  0  0  0  0  0  0  0
   -3.4623   -2.6685   -0.2401 H   0  0  0  0  0  0  0  0  0  0  0  0
   -1.7863   -2.0195    0.9119 C   0  0  0  0  0  0  0  0  0  0  0  0
   -0.9073   -2.6615    1.4699 O   0  0  0  0  0  0  0  0  0  0  0  0
   -1.5803   -0.8195    0.3749 N   0  0  0  0  0  0  0  0  0  0  0  0
   -2.3603   -0.3345   -0.0451 H   0  0  0  0  0  0  0  0  0  0  0  0
   -0.2933   -0.1205    0.3719 C   0  0  1  0  0  0  0  0  0  0  0  0
    0.3577   -0.5843    1.1143 H   0  0  0  0  0  0  0  0  0  0  0  0
    0.3613   -0.2794   -1.0156 C   0  0  0  0  0  0  0  0  0  0  0  0
    0.9878    0.5955   -1.1972 H   0  0  0  0  0  0  0  0  0  0  0  0
    1.0033   -1.1615   -1.0117 H   0  0  0  0  0  0  0  0  0  0  0  0
   -0.6477   -0.4144   -2.1691 C   0  0  0  0  0  0  0  0  0  0  0  0
   -0.2187   -0.0117   -3.0867 H   0  0  0  0  0  0  0  0  0  0  0  0
   -0.8826   -1.4678   -2.3177 H   0  0  0  0  0  0  0  0  0  0  0  0
   -1.9510    0.3261   -1.8870 C   0  0  0  0  0  0  0  0  0  0  0  0
   -2.2392    0.8573   -0.8265 O   0  0  0  0  0  0  0  0  0  0  0  0
   -2.8284    0.3647   -2.9069 O   0  0  0  0  0  0  0  0  0  0  0  0
   -3.5857    0.8458   -2.5688 H   0  0  0  0  0  0  0  0  0  0  0  0
   -0.4860    1.3537    0.7622 C   0  0  0  0  0  0  0  0  0  0  0  0
   -1.3956    2.0096    0.2582 O   0  0  0  0  0  0  0  0  0  0  0  0
    0.3741    1.8728    1.6466 N   0  0  0  0  0  0  0  0  0  0  0  0
    1.0814    1.2667    2.0345 H   0  0  0  0  0  0  0  0  0  0  0  0
    0.3380    3.2610    2.1024 C   0  0  0  0  0  0  0  0  0  0  0  0
   -0.6389    3.4820    2.5363 H   0  0  0  0  0  0  0  0  0  0  0  0
    1.1108    3.4337    2.8528 H   0  0  0  0  0  0  0  0  0  0  0  0
    0.5009    3.9312    1.2562 H   0  0  0  0  0  0  0  0  0  0  0  0
  5  6  2  0  0  0  0
  5  7  1  0  0  0  0
  2  3  1  0  0  0  0
  2  4  1  0  0  0  0
  2  5  1  0  0  0  0
  1  2  1  0  0  0  0
 21 22  2  0  0  0  0
 21 23  1  0  0  0  0
 19 20  1  0  0  0  0
 17 18  2  0  0  0  0
 17 19  1  0  0  0  0
 14 15  1  0  0  0  0
 14 16  1  0  0  0  0
 14 17  1  0  0  0  0
 11 12  1  0  0  0  0
 11 13  1  0  0  0  0
 11 14  1  0  0  0  0
  9 10  1  0  0  0  0
  9 11  1  0  0  0  0
  9 21  1  0  0  0  0
  7  8  1  0  0  0  0
  7  9  1  0  0  0  0
 25 26  1  0  0  0  0
 25 27  1  0  0  0  0
 25 28  1  0  0  0  0
 23 24  1  0  0  0  0
 23 25  1  0  0  0  0
M  END
$$$$
default_name
  -OEChem-02102213163D

 28 27  0     1  0  0  0  0  0999 V2000
   -3.2133   -3.5565    1.2809 H   0  0  0  0  0  0  0  0  0  0  0  0
   -3.1873   -2.5755    0.8089 C   0  0  0  0  0  0  0  0  0  0  0  0
   -3.8793   -1.9065    1.3169 H   0  0  0  0  0  0  0  0  0  0  0  0
   -3.4623   -2.6685   -0.2401 H   0  0  0  0  0  0  0  0  0  0  0  0
   -1.7863   -2.0195    0.9119 C   0  0  0  0  0  0  0  0  0  0  0  0
   -0.9073   -2.6615    1.4699 O   0  0  0  0  0  0  0  0  0  0  0  0
   -1.5803   -0.8195    0.3749 N   0  0  0  0  0  0  0  0  0  0  0  0
   -2.3603   -0.3345   -0.0451 H   0  0  0  0  0  0  0  0  0  0  0  0
   -0.2933   -0.1205    0.3719 C   0  0  1  0  0  0  0  0  0  0  0  0
    0.3577   -0.5843    1.1143 H   0  0  0  0  0  0  0  0  0  0  0  0
    0.3613   -0.2794   -1.0156 C   0  0  0  0  0  0  0  0  0  0  0  0
    0.9878    0.5955   -1.1972 H   0  0  0  0  0  0  0  0  0  0  0  0
    1.0033   -1.1615   -1.0117 H   0  0  0  0  0  0  0  0  0  0  0  0
   -0.6477   -0.4144   -2.1691 C   0  0  0  0  0  0  0  0  0  0  0  0
   -0.1426   -0.2656   -3.1235 H   0  0  0  0  0  0  0  0  0  0  0  0
   -1.0836   -1.4126   -2.1483 H   0  0  0  0  0  0  0  0  0  0  0  0
   -1.7822    0.6000   -2.0667 C   0  0  0  0  0  0  0  0  0  0  0  0
   -1.9670    1.3510   -1.1224 O   0  0  0  0  0  0  0  0  0  0  0  0
   -2.6290    0.6303   -3.1125 O   0  0  0  0  0  0  0  0  0  0  0  0
   -3.2792    1.2989   -2.8898 H   0  0  0  0  0  0  0  0  0  0  0  0
   -0.4860    1.3537    0.7622 C   0  0  0  0  0  0  0  0  0  0  0  0
   -1.3956    2.0096    0.2582 O   0  0  0  0  0  0  0  0  0  0  0  0
    0.3741    1.8728    1.6466 N   0  0  0  0  0  0  0  0  0  0  0  0
    1.0814    1.2667    2.0345 H   0  0  0  0  0  0  0  0  0  0  0  0
    0.3380    3.2610    2.1024 C   0  0  0  0  0  0  0  0  0  0  0  0
   -0.6389    3.4820    2.5363 H   0  0  0  0  0  0  0  0  0  0  0  0
    1.1108    3.4337    2.8528 H   0  0  0  0  0  0  0  0  0  0  0  0
    0.5009    3.9312    1.2562 H   0  0  0  0  0  0  0  0  0  0  0  0
  5  6  2  0  0  0  0
  5  7  1  0  0  0  0
  2  3  1  0  0  0  0
  2  4  1  0  0  0  0
  2  5  1  0  0  0  0
  1  2  1  0  0  0  0
 21 22  2  0  0  0  0
 21 23  1  0  0  0  0
 19 20  1  0  0  0  0
 17 18  2  0  0  0  0
 17 19  1  0  0  0  0
 14 15  1  0  0  0  0
 14 16  1  0  0  0  0
 14 17  1  0  0  0  0
 11 12  1  0  0  0  0
 11 13  1  0  0  0  0
 11 14  1  0  0  0  0
  9 10  1  0  0  0  0
  9 11  1  0  0  0  0
  9 21  1  0  0  0  0
  7  8  1  0  0  0  0
  7  9  1  0  0  0  0
 25 26  1  0  0  0  0
 25 27  1  0  0  0  0
 25 28  1  0  0  0  0
 23 24  1  0  0  0  0
 23 25  1  0  0  0  0
M  END
$$$$
default_name
  -OEChem-02102213163D

 28 27  0     1  0  0  0  0  0999 V2000
   -3.2133   -3.5565    1.2809 H   0  0  0  0  0  0  0  0  0  0  0  0
   -3.1873   -2.5755    0.8089 C   0  0  0  0  0  0  0  0  0  0  0  0
   -3.8793   -1.9065    1.3169 H   0  0  0  0  0  0  0  0  0  0  0  0
   -3.4623   -2.6685   -0.2401 H   0  0  0  0  0  0  0  0  0  0  0  0
   -1.7863   -2.0195    0.9119 C   0  0  0  0  0  0  0  0  0  0  0  0
   -0.9073   -2.6615    1.4699 O   0  0  0  0  0  0  0  0  0  0  0  0
   -1.5803   -0.8195    0.3749 N   0  0  0  0  0  0  0  0  0  0  0  0
   -2.3603   -0.3345   -0.0451 H   0  0  0  0  0  0  0  0  0  0  0  0
   -0.2933   -0.1205    0.3719 C   0  0  1  0  0  0  0  0  0  0  0  0
    0.3577   -0.5843    1.1143 H   0  0  0  0  0  0  0  0  0  0  0  0
    0.3613   -0.2794   -1.0156 C   0  0  0  0  0  0  0  0  0  0  0  0
    0.9878    0.5955   -1.1972 H   0  0  0  0  0  0  0  0  0  0  0  0
    1.0033   -1.1615   -1.0117 H   0  0  0  0  0  0  0  0  0  0  0  0
   -0.6477   -0.4144   -2.1691 C   0  0  0  0  0  0  0  0  0  0  0  0
   -0.1175   -0.5318   -3.1143 H   0  0  0  0  0  0  0  0  0  0  0  0
   -1.2709   -1.2915   -1.9986 H   0  0  0  0  0  0  0  0  0  0  0  0
   -1.5619    0.8012   -2.2829 C   0  0  0  0  0  0  0  0  0  0  0  0
   -1.6016    1.7247   -1.4858 O   0  0  0  0  0  0  0  0  0  0  0  0
   -2.3801    0.8134   -3.3516 O   0  0  0  0  0  0  0  0  0  0  0  0
   -2.8880    1.6225   -3.2699 H   0  0  0  0  0  0  0  0  0  0  0  0
   -0.4860    1.3537    0.7622 C   0  0  0  0  0  0  0  0  0  0  0  0
   -1.3956    2.0096    0.2582 O   0  0  0  0  0  0  0  0  0  0  0  0
    0.3741    1.8728    1.6466 N   0  0  0  0  0  0  0  0  0  0  0  0
    1.0814    1.2667    2.0345 H   0  0  0  0  0  0  0  0  0  0  0  0
    0.3380    3.2610    2.1024 C   0  0  0  0  0  0  0  0  0  0  0  0
   -0.6389    3.4820    2.5363 H   0  0  0  0  0  0  0  0  0  0  0  0
    1.1108    3.4337    2.8528 H   0  0  0  0  0  0  0  0  0  0  0  0
    0.5009    3.9312    1.2562 H   0  0  0  0  0  0  0  0  0  0  0  0
  5  6  2  0  0  0  0
  5  7  1  0  0  0  0
  2  3  1  0  0  0  0
  2  4  1  0  0  0  0
  2  5  1  0  0  0  0
  1  2  1  0  0  0  0
 21 22  2  0  0  0  0
 21 23  1  0  0  0  0
 19 20  1  0  0  0  0
 17 18  2  0  0  0  0
 17 19  1  0  0  0  0
 14 15  1  0  0  0  0
 14 16  1  0  0  0  0
 14 17  1  0  0  0  0
 11 12  1  0  0  0  0
 11 13  1  0  0  0  0
 11 14  1  0  0  0  0
  9 10  1  0  0  0  0
  9 11  1  0  0  0  0
  9 21  1  0  0  0  0
  7  8  1  0  0  0  0
  7  9  1  0  0  0  0
 25 26  1  0  0  0  0
 25 27  1  0  0  0  0
 25 28  1  0  0  0  0
 23 24  1  0  0  0  0
 23 25  1  0  0  0  0
M  END
$$$$
default_name
  -OEChem-02102213163D

 28 27  0     1  0  0  0  0  0999 V2000
   -3.2133   -3.5565    1.2809 H   0  0  0  0  0  0  0  0  0  0  0  0
   -3.1873   -2.5755    0.8089 C   0  0  0  0  0  0  0  0  0  0  0  0
   -3.8793   -1.9065    1.3169 H   0  0  0  0  0  0  0  0  0  0  0  0
   -3.4623   -2.6685   -0.2401 H   0  0  0  0  0  0  0  0  0  0  0  0
   -1.7863   -2.0195    0.9119 C   0  0  0  0  0  0  0  0  0  0  0  0
   -0.9073   -2.6615    1.4699 O   0  0  0  0  0  0  0  0  0  0  0  0
   -1.5803   -0.8195    0.3749 N   0  0  0  0  0  0  0  0  0  0  0  0
   -2.3603   -0.3345   -0.0451 H   0  0  0  0  0  0  0  0  0  0  0  0
   -0.2933   -0.1205    0.3719 C   0  0  1  0  0  0  0  0  0  0  0  0
    0.3577   -0.5843    1.1143 H   0  0  0  0  0  0  0  0  0  0  0  0
    0.3613   -0.2794   -1.0156 C   0  0  0  0  0  0  0  0  0  0  0  0
    0.9878    0.5955   -1.1972 H   0  0  0  0  0  0  0  0  0  0  0  0
    1.0033   -1.1615   -1.0117 H   0  0  0  0  0  0  0  0  0  0  0  0
   -0.6477   -0.4144   -2.1691 C   0  0  0  0  0  0  0  0  0  0  0  0
   -0.1452   -0.7922   -3.0596 H   0  0  0  0  0  0  0  0  0  0  0  0
   -1.4318   -1.1128   -1.8788 H   0  0  0  0  0  0  0  0  0  0  0  0
   -1.3052    0.9162   -2.5209 C   0  0  0  0  0  0  0  0  0  0  0  0
   -1.1678    1.9532   -1.8919 O   0  0  0  0  0  0  0  0  0  0  0  0
   -2.0987    0.9013   -3.6080 O   0  0  0  0  0  0  0  0  0  0  0  0
   -2.4386    1.7946   -3.6831 H   0  0  0  0  0  0  0  0  0  0  0  0
   -0.4860    1.3537    0.7622 C   0  0  0  0  0  0  0  0  0  0  0  0
   -1.3956    2.0096    0.2582 O   0  0  0  0  0  0  0  0  0  0  0  0
    0.3741    1.8728    1.6466 N   0  0  0  0  0  0  0  0  0  0  0  0
    1.0814    1.2667    2.0345 H   0  0  0  0  0  0  0  0  0  0  0  0
    0.3380    3.2610    2.1024 C   0  0  0  0  0  0  0  0  0  0  0  0
   -0.6389    3.4820    2.5363 H   0  0  0  0  0  0  0  0  0  0  0  0
    1.1108    3.4337    2.8528 H   0  0  0  0  0  0  0  0  0  0  0  0
    0.5009    3.9312    1.2562 H   0  0  0  0  0  0  0  0  0  0  0  0
  5  6  2  0  0  0  0
  5  7  1  0  0  0  0
  2  3  1  0  0  0  0
  2  4  1  0  0  0  0
  2  5  1  0  0  0  0
  1  2  1  0  0  0  0
 21 22  2  0  0  0  0
 21 23  1  0  0  0  0
 19 20  1  0  0  0  0
 17 18  2  0  0  0  0
 17 19  1  0  0  0  0
 14 15  1  0  0  0  0
 14 16  1  0  0  0  0
 14 17  1  0  0  0  0
 11 12  1  0  0  0  0
 11 13  1  0  0  0  0
 11 14  1  0  0  0  0
  9 10  1  0  0  0  0
  9 11  1  0  0  0  0
  9 21  1  0  0  0  0
  7  8  1  0  0  0  0
  7  9  1  0  0  0  0
 25 26  1  0  0  0  0
 25 27  1  0  0  0  0
 25 28  1  0  0  0  0
 23 24  1  0  0  0  0
 23 25  1  0  0  0  0
M  END
$$$$
default_name
  -OEChem-02102213163D

 28 27  0     1  0  0  0  0  0999 V2000
   -3.2133   -3.5565    1.2809 H   0  0  0  0  0  0  0  0  0  0  0  0
   -3.1873   -2.5755    0.8089 C   0  0  0  0  0  0  0  0  0  0  0  0
   -3.8793   -1.9065    1.3169 H   0  0  0  0  0  0  0  0  0  0  0  0
   -3.4623   -2.6685   -0.2401 H   0  0  0  0  0  0  0  0  0  0  0  0
   -1.7863   -2.0195    0.9119 C   0  0  0  0  0  0  0  0  0  0  0  0
   -0.9073   -2.6615    1.4699 O   0  0  0  0  0  0  0  0  0  0  0  0
   -1.5803   -0.8195    0.3749 N   0  0  0  0  0  0  0  0  0  0  0  0
   -2.3603   -0.3345   -0.0451 H   0  0  0  0  0  0  0  0  0  0  0  0
   -0.2933   -0.1205    0.3719 C   0  0  1  0  0  0  0  0  0  0  0  0
    0.3577   -0.5843    1.1143 H   0  0  0  0  0  0  0  0  0  0  0  0
    0.3613   -0.2794   -1.0156 C   0  0  0  0  0  0  0  0  0  0  0  0
    0.9878    0.5955   -1.1972 H   0  0  0  0  0  0  0  0  0  0  0  0
    1.0033   -1.1615   -1.0117 H   0  0  0  0  0  0  0  0  0  0  0  0
   -0.6477   -0.4144   -2.1691 C   0  0  0  0  0  0  0  0  0  0  0  0
   -0.2237   -1.0291   -2.9632 H   0  0  0  0  0  0  0  0  0  0  0  0
   -1.5552   -0.8887   -1.7971 H   0  0  0  0  0  0  0  0  0  0  0  0
   -1.0295    0.9370   -2.7645 C   0  0  0  0  0  0  0  0  0  0  0  0
   -0.6953    2.0207   -2.3132 O   0  0  0  0  0  0  0  0  0  0  0  0
   -1.8041    0.8881   -3.8642 O   0  0  0  0  0  0  0  0  0  0  0  0
   -1.9618    1.8036   -4.1012 H   0  0  0  0  0  0  0  0  0  0  0  0
   -0.4860    1.3537    0.7622 C   0  0  0  0  0  0  0  0  0  0  0  0
   -1.3956    2.0096    0.2582 O   0  0  0  0  0  0  0  0  0  0  0  0
    0.3741    1.8728    1.6466 N   0  0  0  0  0  0  0  0  0  0  0  0
    1.0814    1.2667    2.0345 H   0  0  0  0  0  0  0  0  0  0  0  0
    0.3380    3.2610    2.1024 C   0  0  0  0  0  0  0  0  0  0  0  0
   -0.6389    3.4820    2.5363 H   0  0  0  0  0  0  0  0  0  0  0  0
    1.1108    3.4337    2.8528 H   0  0  0  0  0  0  0  0  0  0  0  0
    0.5009    3.9312    1.2562 H   0  0  0  0  0  0  0  0  0  0  0  0
  5  6  2  0  0  0  0
  5  7  1  0  0  0  0
  2  3  1  0  0  0  0
  2  4  1  0  0  0  0
  2  5  1  0  0  0  0
  1  2  1  0  0  0  0
 21 22  2  0  0  0  0
 21 23  1  0  0  0  0
 19 20  1  0  0  0  0
 17 18  2  0  0  0  0
 17 19  1  0  0  0  0
 14 15  1  0  0  0  0
 14 16  1  0  0  0  0
 14 17  1  0  0  0  0
 11 12  1  0  0  0  0
 11 13  1  0  0  0  0
 11 14  1  0  0  0  0
  9 10  1  0  0  0  0
  9 11  1  0  0  0  0
  9 21  1  0  0  0  0
  7  8  1  0  0  0  0
  7  9  1  0  0  0  0
 25 26  1  0  0  0  0
 25 27  1  0  0  0  0
 25 28  1  0  0  0  0
 23 24  1  0  0  0  0
 23 25  1  0  0  0  0
M  END
$$$$
default_name
  -OEChem-02102213163D

 28 27  0     1  0  0  0  0  0999 V2000
   -3.2133   -3.5565    1.2809 H   0  0  0  0  0  0  0  0  0  0  0  0
   -3.1873   -2.5755    0.8089 C   0  0  0  0  0  0  0  0  0  0  0  0
   -3.8793   -1.9065    1.3169 H   0  0  0  0  0  0  0  0  0  0  0  0
   -3.4623   -2.6685   -0.2401 H   0  0  0  0  0  0  0  0  0  0  0  0
   -1.7863   -2.0195    0.9119 C   0  0  0  0  0  0  0  0  0  0  0  0
   -0.9073   -2.6615    1.4699 O   0  0  0  0  0  0  0  0  0  0  0  0
   -1.5803   -0.8195    0.3749 N   0  0  0  0  0  0  0  0  0  0  0  0
   -2.3603   -0.3345   -0.0451 H   0  0  0  0  0  0  0  0  0  0  0  0
   -0.2933   -0.1205    0.3719 C   0  0  1  0  0  0  0  0  0  0  0  0
    0.3577   -0.5843    1.1143 H   0  0  0  0  0  0  0  0  0  0  0  0
    0.3613   -0.2794   -1.0156 C   0  0  0  0  0  0  0  0  0  0  0  0
    0.9878    0.5955   -1.1972 H   0  0  0  0  0  0  0  0  0  0  0  0
    1.0033   -1.1615   -1.0117 H   0  0  0  0  0  0  0  0  0  0  0  0
   -0.6477   -0.4144   -2.1691 C   0  0  0  0  0  0  0  0  0  0  0  0
   -0.3477   -1.2264   -2.8317 H   0  0  0  0  0  0  0  0  0  0  0  0
   -1.6327   -0.6343   -1.7591 H   0  0  0  0  0  0  0  0  0  0  0  0
   -0.7536    0.8622   -2.9970 C   0  0  0  0  0  0  0  0  0  0  0  0
   -0.2162    1.9227   -2.7208 O   0  0  0  0  0  0  0  0  0  0  0  0
   -1.5162    0.7746   -4.1027 O   0  0  0  0  0  0  0  0  0  0  0  0
   -1.4900    1.6487   -4.4958 H   0  0  0  0  0  0  0  0  0  0  0  0
   -0.4860    1.3537    0.7622 C   0  0  0  0  0  0  0  0  0  0  0  0
   -1.3956    2.0096    0.2582 O   0  0  0  0  0  0  0  0  0  0  0  0
    0.3741    1.8728    1.6466 N   0  0  0  0  0  0  0  0  0  0  0  0
    1.0814    1.2667    2.0345 H   0  0  0  0  0  0  0  0  0  0  0  0
    0.3380    3.2610    2.1024 C   0  0  0  0  0  0  0  0  0  0  0  0
   -0.6389    3.4820    2.5363 H   0  0  0  0  0  0  0  0  0  0  0  0
    1.1108    3.4337    2.8528 H   0  0  0  0  0  0  0  0  0  0  0  0
    0.5009    3.9312    1.2562 H   0  0  0  0  0  0  0  0  0  0  0  0
  5  6  2  0  0  0  0
  5  7  1  0  0  0  0
  2  3  1  0  0  0  0
  2  4  1  0  0  0  0
  2  5  1  0  0  0  0
  1  2  1  0  0  0  0
 21 22  2  0  0  0  0
 21 23  1  0  0  0  0
 19 20  1  0  0  0  0
 17 18  2  0  0  0  0
 17 19  1  0  0  0  0
 14 15  1  0  0  0  0
 14 16  1  0  0  0  0
 14 17  1  0  0  0  0
 11 12  1  0  0  0  0
 11 13  1  0  0  0  0
 11 14  1  0  0  0  0
  9 10  1  0  0  0  0
  9 11  1  0  0  0  0
  9 21  1  0  0  0  0
  7  8  1  0  0  0  0
  7  9  1  0  0  0  0
 25 26  1  0  0  0  0
 25 27  1  0  0  0  0
 25 28  1  0  0  0  0
 23 24  1  0  0  0  0
 23 25  1  0  0  0  0
M  END
$$$$
default_name
  -OEChem-02102213163D

 28 27  0     1  0  0  0  0  0999 V2000
   -3.2133   -3.5565    1.2809 H   0  0  0  0  0  0  0  0  0  0  0  0
   -3.1873   -2.5755    0.8089 C   0  0  0  0  0  0  0  0  0  0  0  0
   -3.8793   -1.9065    1.3169 H   0  0  0  0  0  0  0  0  0  0  0  0
   -3.4623   -2.6685   -0.2401 H   0  0  0  0  0  0  0  0  0  0  0  0
   -1.7863   -2.0195    0.9119 C   0  0  0  0  0  0  0  0  0  0  0  0
   -0.9073   -2.6615    1.4699 O   0  0  0  0  0  0  0  0  0  0  0  0
   -1.5803   -0.8195    0.3749 N   0  0  0  0  0  0  0  0  0  0  0  0
   -2.3603   -0.3345   -0.0451 H   0  0  0  0  0  0  0  0  0  0  0  0
   -0.2933   -0.1205    0.3719 C   0  0  1  0  0  0  0  0  0  0  0  0
    0.3577   -0.5843    1.1143 H   0  0  0  0  0  0  0  0  0  0  0  0
    0.3613   -0.2794   -1.0156 C   0  0  0  0  0  0  0  0  0  0  0  0
    0.9878    0.5955   -1.1972 H   0  0  0  0  0  0  0  0  0  0  0  0
    1.0033   -1.1615   -1.0117 H   0  0  0  0  0  0  0  0  0  0  0  0
   -0.6477   -0.4144   -2.1691 C   0  0  0  0  0  0  0  0  0  0  0  0
   -0.5087   -1.3705   -2.6739 H   0  0  0  0  0  0  0  0  0  0  0  0
   -1.6591   -0.3672   -1.7672 H   0  0  0  0  0  0  0  0  0  0  0  0
   -0.4964    0.6970   -3.2027 C   0  0  0  0  0  0  0  0  0  0  0  0
    0.2369    1.6659   -3.0870 O   0  0  0  0  0  0  0  0  0  0  0  0
   -1.2547    0.5687   -4.3073 O   0  0  0  0  0  0  0  0  0  0  0  0
   -1.0554    1.3406   -4.8399 H   0  0  0  0  0  0  0  0  0  0  0  0
   -0.4860    1.3537    0.7622 C   0  0  0  0  0  0  0  0  0  0  0  0
   -1.3956    2.0096    0.2582 O   0  0  0  0  0  0  0  0  0  0  0  0
    0.3741    1.8728    1.6466 N   0  0  0  0  0  0  0  0  0  0  0  0
    1.0814    1.2667    2.0345 H   0  0  0  0  0  0  0  0  0  0  0  0
    0.3380    3.2610    2.1024 C   0  0  0  0  0  0  0  0  0  0  0  0
   -0.6389    3.4820    2.5363 H   0  0  0  0  0  0  0  0  0  0  0  0
    1.1108    3.4337    2.8528 H   0  0  0  0  0  0  0  0  0  0  0  0
    0.5009    3.9312    1.2562 H   0  0  0  0  0  0  0  0  0  0  0  0
  5  6  2  0  0  0  0
  5  7  1  0  0  0  0
  2  3  1  0  0  0  0
  2  4  1  0  0  0  0
  2  5  1  0  0  0  0
  1  2  1  0  0  0  0
 21 22  2  0  0  0  0
 21 23  1  0  0  0  0
 19 20  1  0  0  0  0
 17 18  2  0  0  0  0
 17 19  1  0  0  0  0
 14 15  1  0  0  0  0
 14 16  1  0  0  0  0
 14 17  1  0  0  0  0
 11 12  1  0  0  0  0
 11 13  1  0  0  0  0
 11 14  1  0  0  0  0
  9 10  1  0  0  0  0
  9 11  1  0  0  0  0
  9 21  1  0  0  0  0
  7  8  1  0  0  0  0
  7  9  1  0  0  0  0
 25 26  1  0  0  0  0
 25 27  1  0  0  0  0
 25 28  1  0  0  0  0
 23 24  1  0  0  0  0
 23 25  1  0  0  0  0
M  END
$$$$
default_name
  -OEChem-02102213163D

 28 27  0     1  0  0  0  0  0999 V2000
   -3.2133   -3.5565    1.2809 H   0  0  0  0  0  0  0  0  0  0  0  0
   -3.1873   -2.5755    0.8089 C   0  0  0  0  0  0  0  0  0  0  0  0
   -3.8793   -1.9065    1.3169 H   0  0  0  0  0  0  0  0  0  0  0  0
   -3.4623   -2.6685   -0.2401 H   0  0  0  0  0  0  0  0  0  0  0  0
   -1.7863   -2.0195    0.9119 C   0  0  0  0  0  0  0  0  0  0  0  0
   -0.9073   -2.6615    1.4699 O   0  0  0  0  0  0  0  0  0  0  0  0
   -1.5803   -0.8195    0.3749 N   0  0  0  0  0  0  0  0  0  0  0  0
   -2.3603   -0.3345   -0.0451 H   0  0  0  0  0  0  0  0  0  0  0  0
   -0.2933   -0.1205    0.3719 C   0  0  1  0  0  0  0  0  0  0  0  0
    0.3577   -0.5843    1.1143 H   0  0  0  0  0  0  0  0  0  0  0  0
    0.3613   -0.2794   -1.0156 C   0  0  0  0  0  0  0  0  0  0  0  0
    0.9878    0.5955   -1.1972 H   0  0  0  0  0  0  0  0  0  0  0  0
    1.0033   -1.1615   -1.0117 H   0  0  0  0  0  0  0  0  0  0  0  0
   -0.6477   -0.4144   -2.1691 C   0  0  0  0  0  0  0  0  0  0  0  0
   -0.6958   -1.4517   -2.5008 H   0  0  0  0  0  0  0  0  0  0  0  0
   -1.6326   -0.1053   -1.8211 H   0  0  0  0  0  0  0  0  0  0  0  0
   -0.2753    0.4526   -3.3675 C   0  0  0  0  0  0  0  0  0  0  0  0
    0.6329    1.2678   -3.3869 O   0  0  0  0  0  0  0  0  0  0  0  0
   -1.0375    0.2844   -4.4640 O   0  0  0  0  0  0  0  0  0  0  0  0
   -0.6875    0.9003   -5.1101 H   0  0  0  0  0  0  0  0  0  0  0  0
   -0.4860    1.3537    0.7622 C   0  0  0  0  0  0  0  0  0  0  0  0
   -1.3956    2.0096    0.2582 O   0  0  0  0  0  0  0  0  0  0  0  0
    0.3741    1.8728    1.6466 N   0  0  0  0  0  0  0  0  0  0  0  0
    1.0814    1.2667    2.0345 H   0  0  0  0  0  0  0  0  0  0  0  0
    0.3380    3.2610    2.1024 C   0  0  0  0  0  0  0  0  0  0  0  0
   -0.6389    3.4820    2.5363 H   0  0  0  0  0  0  0  0  0  0  0  0
    1.1108    3.4337    2.8528 H   0  0  0  0  0  0  0  0  0  0  0  0
    0.5009    3.9312    1.2562 H   0  0  0  0  0  0  0  0  0  0  0  0
  5  6  2  0  0  0  0
  5  7  1  0  0  0  0
  2  3  1  0  0  0  0
  2  4  1  0  0  0  0
  2  5  1  0  0  0  0
  1  2  1  0  0  0  0
 21 22  2  0  0  0  0
 21 23  1  0  0  0  0
 19 20  1  0  0  0  0
 17 18  2  0  0  0  0
 17 19  1  0  0  0  0
 14 15  1  0  0  0  0
 14 16  1  0  0  0  0
 14 17  1  0  0  0  0
 11 12  1  0  0  0  0
 11 13  1  0  0  0  0
 11 14  1  0  0  0  0
  9 10  1  0  0  0  0
  9 11  1  0  0  0  0
  9 21  1  0  0  0  0
  7  8  1  0  0  0  0
  7  9  1  0  0  0  0
 25 26  1  0  0  0  0
 25 27  1  0  0  0  0
 25 28  1  0  0  0  0
 23 24  1  0  0  0  0
 23 25  1  0  0  0  0
M  END
$$$$
default_name
  -OEChem-02102213163D

 28 27  0     1  0  0  0  0  0999 V2000
   -3.2133   -3.5565    1.2809 H   0  0  0  0  0  0  0  0  0  0  0  0
   -3.1873   -2.5755    0.8089 C   0  0  0  0  0  0  0  0  0  0  0  0
   -3.8793   -1.9065    1.3169 H   0  0  0  0  0  0  0  0  0  0  0  0
   -3.4623   -2.6685   -0.2401 H   0  0  0  0  0  0  0  0  0  0  0  0
   -1.7863   -2.0195    0.9119 C   0  0  0  0  0  0  0  0  0  0  0  0
   -0.9073   -2.6615    1.4699 O   0  0  0  0  0  0  0  0  0  0  0  0
   -1.5803   -0.8195    0.3749 N   0  0  0  0  0  0  0  0  0  0  0  0
   -2.3603   -0.3345   -0.0451 H   0  0  0  0  0  0  0  0  0  0  0  0
   -0.2933   -0.1205    0.3719 C   0  0  1  0  0  0  0  0  0  0  0  0
    0.3577   -0.5843    1.1143 H   0  0  0  0  0  0  0  0  0  0  0  0
    0.3613   -0.2794   -1.0156 C   0  0  0  0  0  0  0  0  0  0  0  0
    0.9878    0.5955   -1.1972 H   0  0  0  0  0  0  0  0  0  0  0  0
    1.0033   -1.1615   -1.0117 H   0  0  0  0  0  0  0  0  0  0  0  0
   -0.6477   -0.4144   -2.1691 C   0  0  0  0  0  0  0  0  0  0  0  0
   -0.8963   -1.4644   -2.3240 H   0  0  0  0  0  0  0  0  0  0  0  0
   -1.5550    0.1333   -1.9169 H   0  0  0  0  0  0  0  0  0  0  0  0
   -0.1054    0.1456   -3.4801 C   0  0  0  0  0  0  0  0  0  0  0  0
    0.9451    0.7555   -3.5999 O   0  0  0  0  0  0  0  0  0  0  0  0
   -0.8793   -0.0591   -4.5622 O   0  0  0  0  0  0  0  0  0  0  0  0
   -0.4115    0.3577   -5.2880 H   0  0  0  0  0  0  0  0  0  0  0  0
   -0.4860    1.3537    0.7622 C   0  0  0  0  0  0  0  0  0  0  0  0
   -1.3956    2.0096    0.2582 O   0  0  0  0  0  0  0  0  0  0  0  0
    0.3741    1.8728    1.6466 N   0  0  0  0  0  0  0  0  0  0  0  0
    1.0814    1.2667    2.0345 H   0  0  0  0  0  0  0  0  0  0  0  0
    0.3380    3.2610    2.1024 C   0  0  0  0  0  0  0  0  0  0  0  0
   -0.6389    3.4820    2.5363 H   0  0  0  0  0  0  0  0  0  0  0  0
    1.1108    3.4337    2.8528 H   0  0  0  0  0  0  0  0  0  0  0  0
    0.5009    3.9312    1.2562 H   0  0  0  0  0  0  0  0  0  0  0  0
  5  6  2  0  0  0  0
  5  7  1  0  0  0  0
  2  3  1  0  0  0  0
  2  4  1  0  0  0  0
  2  5  1  0  0  0  0
  1  2  1  0  0  0  0
 21 22  2  0  0  0  0
 21 23  1  0  0  0  0
 19 20  1  0  0  0  0
 17 18  2  0  0  0  0
 17 19  1  0  0  0  0
 14 15  1  0  0  0  0
 14 16  1  0  0  0  0
 14 17  1  0  0  0  0
 11 12  1  0  0  0  0
 11 13  1  0  0  0  0
 11 14  1  0  0  0  0
  9 10  1  0  0  0  0
  9 11  1  0  0  0  0
  9 21  1  0  0  0  0
  7  8  1  0  0  0  0
  7  9  1  0  0  0  0
 25 26  1  0  0  0  0
 25 27  1  0  0  0  0
 25 28  1  0  0  0  0
 23 24  1  0  0  0  0
 23 25  1  0  0  0  0
M  END
$$$$
default_name
  -OEChem-02102213163D

 28 27  0     1  0  0  0  0  0999 V2000
   -3.2133   -3.5565    1.2809 H   0  0  0  0  0  0  0  0  0  0  0  0
   -3.1873   -2.5755    0.8089 C   0  0  0  0  0  0  0  0  0  0  0  0
   -3.8793   -1.9065    1.3169 H   0  0  0  0  0  0  0  0  0  0  0  0
   -3.4623   -2.6685   -0.2401 H   0  0  0  0  0  0  0  0  0  0  0  0
   -1.7863   -2.0195    0.9119 C   0  0  0  0  0  0  0  0  0  0  0  0
   -0.9073   -2.6615    1.4699 O   0  0  0  0  0  0  0  0  0  0  0  0
   -1.5803   -0.8195    0.3749 N   0  0  0  0  0  0  0  0  0  0  0  0
   -2.3603   -0.3345   -0.0451 H   0  0  0  0  0  0  0  0  0  0  0  0
   -0.2933   -0.1205    0.3719 C   0  0  1  0  0  0  0  0  0  0  0  0
    0.3577   -0.5843    1.1143 H   0  0  0  0  0  0  0  0  0  0  0  0
    0.3613   -0.2794   -1.0156 C   0  0  0  0  0  0  0  0  0  0  0  0
    0.9878    0.5955   -1.1972 H   0  0  0  0  0  0  0  0  0  0  0  0
    1.0033   -1.1615   -1.0117 H   0  0  0  0  0  0  0  0  0  0  0  0
   -0.6477   -0.4144   -2.1691 C   0  0  0  0  0  0  0  0  0  0  0  0
   -1.0963   -1.4078   -2.1556 H   0  0  0  0  0  0  0  0  0  0  0  0
   -1.4315    0.3324   -2.0482 H   0  0  0  0  0  0  0  0  0  0  0  0
    0.0016   -0.2029   -3.5330 C   0  0  0  0  0  0  0  0  0  0  0  0
    1.1520    0.1638   -3.7117 O   0  0  0  0  0  0  0  0  0  0  0  0
   -0.7909   -0.4382   -4.5952 O   0  0  0  0  0  0  0  0  0  0  0  0
   -0.2462   -0.2502   -5.3615 H   0  0  0  0  0  0  0  0  0  0  0  0
   -0.4860    1.3537    0.7622 C   0  0  0  0  0  0  0  0  0  0  0  0
   -1.3956    2.0096    0.2582 O   0  0  0  0  0  0  0  0  0  0  0  0
    0.3741    1.8728    1.6466 N   0  0  0  0  0  0  0  0  0  0  0  0
    1.0814    1.2667    2.0345 H   0  0  0  0  0  0  0  0  0  0  0  0
    0.3380    3.2610    2.1024 C   0  0  0  0  0  0  0  0  0  0  0  0
   -0.6389    3.4820    2.5363 H   0  0  0  0  0  0  0  0  0  0  0  0
    1.1108    3.4337    2.8528 H   0  0  0  0  0  0  0  0  0  0  0  0
    0.5009    3.9312    1.2562 H   0  0  0  0  0  0  0  0  0  0  0  0
  5  6  2  0  0  0  0
  5  7  1  0  0  0  0
  2  3  1  0  0  0  0
  2  4  1  0  0  0  0
  2  5  1  0  0  0  0
  1  2  1  0  0  0  0
 21 22  2  0  0  0  0
 21 23  1  0  0  0  0
 19 20  1  0  0  0  0
 17 18  2  0  0  0  0
 17 19  1  0  0  0  0
 14 15  1  0  0  0  0
 14 16  1  0  0  0  0
 14 17  1  0  0  0  0
 11 12  1  0  0  0  0
 11 13  1  0  0  0  0
 11 14  1  0  0  0  0
  9 10  1  0  0  0  0
  9 11  1  0  0  0  0
  9 21  1  0  0  0  0
  7  8  1  0  0  0  0
  7  9  1  0  0  0  0
 25 26  1  0  0  0  0
 25 27  1  0  0  0  0
 25 28  1  0  0  0  0
 23 24  1  0  0  0  0
 23 25  1  0  0  0  0
M  END
$$$$
default_name
  -OEChem-02102213163D

 28 27  0     1  0  0  0  0  0999 V2000
   -3.2133   -3.5565    1.2809 H   0  0  0  0  0  0  0  0  0  0  0  0
   -3.1873   -2.5755    0.8089 C   0  0  0  0  0  0  0  0  0  0  0  0
   -3.8793   -1.9065    1.3169 H   0  0  0  0  0  0  0  0  0  0  0  0
   -3.4623   -2.6685   -0.2401 H   0  0  0  0  0  0  0  0  0  0  0  0
   -1.7863   -2.0195    0.9119 C   0  0  0  0  0  0  0  0  0  0  0  0
   -0.9073   -2.6615    1.4699 O   0  0  0  0  0  0  0  0  0  0  0  0
   -1.5803   -0.8195    0.3749 N   0  0  0  0  0  0  0  0  0  0  0  0
   -2.3603   -0.3345   -0.0451 H   0  0  0  0  0  0  0  0  0  0  0  0
   -0.2933   -0.1205    0.3719 C   0  0  1  0  0  0  0  0  0  0  0  0
    0.3577   -0.5843    1.1143 H   0  0  0  0  0  0  0  0  0  0  0  0
    0.3613   -0.2794   -1.0156 C   0  0  0  0  0  0  0  0  0  0  0  0
    1.1799    0.4386   -1.0885 H   0  0  0  0  0  0  0  0  0  0  0  0
    0.7811   -1.2826   -1.1026 H   0  0  0  0  0  0  0  0  0  0  0  0
   -0.6050   -0.0504   -2.1907 C   0  0  0  0  0  0  0  0  0  0  0  0
   -1.4300   -0.7609   -2.1369 H   0  0  0  0  0  0  0  0  0  0  0  0
   -1.0024    0.9624   -2.1350 H   0  0  0  0  0  0  0  0  0  0  0  0
    0.0800   -0.2166   -3.5433 C   0  0  0  0  0  0  0  0  0  0  0  0
    1.2788   -0.3783   -3.7061 O   0  0  0  0  0  0  0  0  0  0  0  0
   -0.7325   -0.1634   -4.6151 O   0  0  0  0  0  0  0  0  0  0  0  0
   -0.1554   -0.2697   -5.3733 H   0  0  0  0  0  0  0  0  0  0  0  0
   -0.4860    1.3537    0.7622 C   0  0  0  0  0  0  0  0  0  0  0  0
   -1.3956    2.0096    0.2582 O   0  0  0  0  0  0  0  0  0  0  0  0
    0.3741    1.8728    1.6466 N   0  0  0  0  0  0  0  0  0  0  0  0
    1.0814    1.2667    2.0345 H   0  0  0  0  0  0  0  0  0  0  0  0
    0.3380    3.2610    2.1024 C   0  0  0  0  0  0  0  0  0  0  0  0
   -0.6389    3.4820    2.5363 H   0  0  0  0  0  0  0  0  0  0  0  0
    1.1108    3.4337    2.8528 H   0  0  0  0  0  0  0  0  0  0  0  0
    0.5009    3.9312    1.2562 H   0  0  0  0  0  0  0  0  0  0  0  0
  5  6  2  0  0  0  0
  5  7  1  0  0  0  0
  2  3  1  0  0  0  0
  2  4  1  0  0  0  0
  2  5  1  0  0  0  0
  1  2  1  0  0  0  0
 21 22  2  0  0  0  0
 21 23  1  0  0  0  0
 19 20  1  0  0  0  0
 17 18  2  0  0  0  0
 17 19  1  0  0  0  0
 14 15  1  0  0  0  0
 14 16  1  0  0  0  0
 14 17  1  0  0  0  0
 11 12  1  0  0  0  0
 11 13  1  0  0  0  0
 11 14  1  0  0  0  0
  9 10  1  0  0  0  0
  9 11  1  0  0  0  0
  9 21  1  0  0  0  0
  7  8  1  0  0  0  0
  7  9  1  0  0  0  0
 25 26  1  0  0  0  0
 25 27  1  0  0  0  0
 25 28  1  0  0  0  0
 23 24  1  0  0  0  0
 23 25  1  0  0  0  0
M  END
$$$$
default_name
  -OEChem-02102213163D

 28 27  0     1  0  0  0  0  0999 V2000
   -3.2133   -3.5565    1.2809 H   0  0  0  0  0  0  0  0  0  0  0  0
   -3.1873   -2.5755    0.8089 C   0  0  0  0  0  0  0  0  0  0  0  0
   -3.8793   -1.9065    1.3169 H   0  0  0  0  0  0  0  0  0  0  0  0
   -3.4623   -2.6685   -0.2401 H   0  0  0  0  0  0  0  0  0  0  0  0
   -1.7863   -2.0195    0.9119 C   0  0  0  0  0  0  0  0  0  0  0  0
   -0.9073   -2.6615    1.4699 O   0  0  0  0  0  0  0  0  0  0  0  0
   -1.5803   -0.8195    0.3749 N   0  0  0  0  0  0  0  0  0  0  0  0
   -2.3603   -0.3345   -0.0451 H   0  0  0  0  0  0  0  0  0  0  0  0
   -0.2933   -0.1205    0.3719 C   0  0  1  0  0  0  0  0  0  0  0  0
    0.3577   -0.5843    1.1143 H   0  0  0  0  0  0  0  0  0  0  0  0
    0.3613   -0.2794   -1.0156 C   0  0  0  0  0  0  0  0  0  0  0  0
    1.1799    0.4386   -1.0885 H   0  0  0  0  0  0  0  0  0  0  0  0
    0.7811   -1.2826   -1.1026 H   0  0  0  0  0  0  0  0  0  0  0  0
   -0.6050   -0.0504   -2.1907 C   0  0  0  0  0  0  0  0  0  0  0  0
   -1.5482   -0.5630   -2.0011 H   0  0  0  0  0  0  0  0  0  0  0  0
   -0.7942    1.0173   -2.2955 H   0  0  0  0  0  0  0  0  0  0  0  0
   -0.0407   -0.5633   -3.5116 C   0  0  0  0  0  0  0  0  0  0  0  0
    1.0930   -0.9862   -3.6718 O   0  0  0  0  0  0  0  0  0  0  0  0
   -0.8849   -0.5188   -4.5590 O   0  0  0  0  0  0  0  0  0  0  0  0
   -0.3819   -0.8577   -5.3016 H   0  0  0  0  0  0  0  0  0  0  0  0
   -0.4860    1.3537    0.7622 C   0  0  0  0  0  0  0  0  0  0  0  0
   -1.3956    2.0096    0.2582 O   0  0  0  0  0  0  0  0  0  0  0  0
    0.3741    1.8728    1.6466 N   0  0  0  0  0  0  0  0  0  0  0  0
    1.0814    1.2667    2.0345 H   0  0  0  0  0  0  0  0  0  0  0  0
    0.3380    3.2610    2.1024 C   0  0  0  0  0  0  0  0  0  0  0  0
   -0.6389    3.4820    2.5363 H   0  0  0  0  0  0  0  0  0  0  0  0
    1.1108    3.4337    2.8528 H   0  0  0  0  0  0  0  0  0  0  0  0
    0.5009    3.9312    1.2562 H   0  0  0  0  0  0  0  0  0  0  0  0
  5  6  2  0  0  0  0
  5  7  1  0  0  0  0
  2  3  1  0  0  0  0
  2  4  1  0  0  0  0
  2  5  1  0  0  0  0
  1  2  1  0  0  0  0
 21 22  2  0  0  0  0
 21 23  1  0  0  0  0
 19 20  1  0  0  0  0
 17 18  2  0  0  0  0
 17 19  1  0  0  0  0
 14 15  1  0  0  0  0
 14 16  1  0  0  0  0
 14 17  1  0  0  0  0
 11 12  1  0  0  0  0
 11 13  1  0  0  0  0
 11 14  1  0  0  0  0
  9 10  1  0  0  0  0
  9 11  1  0  0  0  0
  9 21  1  0  0  0  0
  7  8  1  0  0  0  0
  7  9  1  0  0  0  0
 25 26  1  0  0  0  0
 25 27  1  0  0  0  0
 25 28  1  0  0  0  0
 23 24  1  0  0  0  0
 23 25  1  0  0  0  0
M  END
$$$$
default_name
  -OEChem-02102213163D

 28 27  0     1  0  0  0  0  0999 V2000
   -3.2133   -3.5565    1.2809 H   0  0  0  0  0  0  0  0  0  0  0  0
   -3.1873   -2.5755    0.8089 C   0  0  0  0  0  0  0  0  0  0  0  0
   -3.8793   -1.9065    1.3169 H   0  0  0  0  0  0  0  0  0  0  0  0
   -3.4623   -2.6685   -0.2401 H   0  0  0  0  0  0  0  0  0  0  0  0
   -1.7863   -2.0195    0.9119 C   0  0  0  0  0  0  0  0  0  0  0  0
   -0.9073   -2.6615    1.4699 O   0  0  0  0  0  0  0  0  0  0  0  0
   -1.5803   -0.8195    0.3749 N   0  0  0  0  0  0  0  0  0  0  0  0
   -2.3603   -0.3345   -0.0451 H   0  0  0  0  0  0  0  0  0  0  0  0
   -0.2933   -0.1205    0.3719 C   0  0  1  0  0  0  0  0  0  0  0  0
    0.3577   -0.5843    1.1143 H   0  0  0  0  0  0  0  0  0  0  0  0
    0.3613   -0.2794   -1.0156 C   0  0  0  0  0  0  0  0  0  0  0  0
    1.1799    0.4386   -1.0885 H   0  0  0  0  0  0  0  0  0  0  0  0
    0.7811   -1.2826   -1.1026 H   0  0  0  0  0  0  0  0  0  0  0  0
   -0.6050   -0.0504   -2.1907 C   0  0  0  0  0  0  0  0  0  0  0  0
   -1.6180   -0.3263   -1.8976 H   0  0  0  0  0  0  0  0  0  0  0  0
   -0.5884    1.0031   -2.4675 H   0  0  0  0  0  0  0  0  0  0  0  0
   -0.2246   -0.8691   -3.4201 C   0  0  0  0  0  0  0  0  0  0  0  0
    0.7947   -1.5312   -3.5327 O   0  0  0  0  0  0  0  0  0  0  0  0
   -1.1002   -0.8228   -4.4412 O   0  0  0  0  0  0  0  0  0  0  0  0
   -0.7143   -1.3693   -5.1281 H   0  0  0  0  0  0  0  0  0  0  0  0
   -0.4860    1.3537    0.7622 C   0  0  0  0  0  0  0  0  0  0  0  0
   -1.3956    2.0096    0.2582 O   0  0  0  0  0  0  0  0  0  0  0  0
    0.3741    1.8728    1.6466 N   0  0  0  0  0  0  0  0  0  0  0  0
    1.0814    1.2667    2.0345 H   0  0  0  0  0  0  0  0  0  0  0  0
    0.3380    3.2610    2.1024 C   0  0  0  0  0  0  0  0  0  0  0  0
   -0.6389    3.4820    2.5363 H   0  0  0  0  0  0  0  0  0  0  0  0
    1.1108    3.4337    2.8528 H   0  0  0  0  0  0  0  0  0  0  0  0
    0.5009    3.9312    1.2562 H   0  0  0  0  0  0  0  0  0  0  0  0
  5  6  2  0  0  0  0
  5  7  1  0  0  0  0
  2  3  1  0  0  0  0
  2  4  1  0  0  0  0
  2  5  1  0  0  0  0
  1  2  1  0  0  0  0
 21 22  2  0  0  0  0
 21 23  1  0  0  0  0
 19 20  1  0  0  0  0
 17 18  2  0  0  0  0
 17 19  1  0  0  0  0
 14 15  1  0  0  0  0
 14 16  1  0  0  0  0
 14 17  1  0  0  0  0
 11 12  1  0  0  0  0
 11 13  1  0  0  0  0
 11 14  1  0  0  0  0
  9 10  1  0  0  0  0
  9 11  1  0  0  0  0
  9 21  1  0  0  0  0
  7  8  1  0  0  0  0
  7  9  1  0  0  0  0
 25 26  1  0  0  0  0
 25 27  1  0  0  0  0
 25 28  1  0  0  0  0
 23 24  1  0  0  0  0
 23 25  1  0  0  0  0
M  END
$$$$
default_name
  -OEChem-02102213163D

 28 27  0     1  0  0  0  0  0999 V2000
   -3.2133   -3.5565    1.2809 H   0  0  0  0  0  0  0  0  0  0  0  0
   -3.1873   -2.5755    0.8089 C   0  0  0  0  0  0  0  0  0  0  0  0
   -3.8793   -1.9065    1.3169 H   0  0  0  0  0  0  0  0  0  0  0  0
   -3.4623   -2.6685   -0.2401 H   0  0  0  0  0  0  0  0  0  0  0  0
   -1.7863   -2.0195    0.9119 C   0  0  0  0  0  0  0  0  0  0  0  0
   -0.9073   -2.6615    1.4699 O   0  0  0  0  0  0  0  0  0  0  0  0
   -1.5803   -0.8195    0.3749 N   0  0  0  0  0  0  0  0  0  0  0  0
   -2.3603   -0.3345   -0.0451 H   0  0  0  0  0  0  0  0  0  0  0  0
   -0.2933   -0.1205    0.3719 C   0  0  1  0  0  0  0  0  0  0  0  0
    0.3577   -0.5843    1.1143 H   0  0  0  0  0  0  0  0  0  0  0  0
    0.3613   -0.2794   -1.0156 C   0  0  0  0  0  0  0  0  0  0  0  0
    1.1799    0.4386   -1.0885 H   0  0  0  0  0  0  0  0  0  0  0  0
    0.7811   -1.2826   -1.1026 H   0  0  0  0  0  0  0  0  0  0  0  0
   -0.6050   -0.0504   -2.1907 C   0  0  0  0  0  0  0  0  0  0  0  0
   -1.6347   -0.0671   -1.8333 H   0  0  0  0  0  0  0  0  0  0  0  0
   -0.3990    0.9207   -2.6393 H   0  0  0  0  0  0  0  0  0  0  0  0
   -0.4591   -1.1134   -3.2748 C   0  0  0  0  0  0  0  0  0  0  0  0
    0.4042   -1.9759   -3.2983 O   0  0  0  0  0  0  0  0  0  0  0  0
   -1.3637   -1.0547   -4.2698 O   0  0  0  0  0  0  0  0  0  0  0  0
   -1.1297   -1.7695   -4.8644 H   0  0  0  0  0  0  0  0  0  0  0  0
   -0.4860    1.3537    0.7622 C   0  0  0  0  0  0  0  0  0  0  0  0
   -1.3956    2.0096    0.2582 O   0  0  0  0  0  0  0  0  0  0  0  0
    0.3741    1.8728    1.6466 N   0  0  0  0  0  0  0  0  0  0  0  0
    1.0814    1.2667    2.0345 H   0  0  0  0  0  0  0  0  0  0  0  0
    0.3380    3.2610    2.1024 C   0  0  0  0  0  0  0  0  0  0  0  0
   -0.6389    3.4820    2.5363 H   0  0  0  0  0  0  0  0  0  0  0  0
    1.1108    3.4337    2.8528 H   0  0  0  0  0  0  0  0  0  0  0  0
    0.5009    3.9312    1.2562 H   0  0  0  0  0  0  0  0  0  0  0  0
  5  6  2  0  0  0  0
  5  7  1  0  0  0  0
  2  3  1  0  0  0  0
  2  4  1  0  0  0  0
  2  5  1  0  0  0  0
  1  2  1  0  0  0  0
 21 22  2  0  0  0  0
 21 23  1  0  0  0  0
 19 20  1  0  0  0  0
 17 18  2  0  0  0  0
 17 19  1  0  0  0  0
 14 15  1  0  0  0  0
 14 16  1  0  0  0  0
 14 17  1  0  0  0  0
 11 12  1  0  0  0  0
 11 13  1  0  0  0  0
 11 14  1  0  0  0  0
  9 10  1  0  0  0  0
  9 11  1  0  0  0  0
  9 21  1  0  0  0  0
  7  8  1  0  0  0  0
  7  9  1  0  0  0  0
 25 26  1  0  0  0  0
 25 27  1  0  0  0  0
 25 28  1  0  0  0  0
 23 24  1  0  0  0  0
 23 25  1  0  0  0  0
M  END
$$$$
default_name
  -OEChem-02102213163D

 28 27  0     1  0  0  0  0  0999 V2000
   -3.2133   -3.5565    1.2809 H   0  0  0  0  0  0  0  0  0  0  0  0
   -3.1873   -2.5755    0.8089 C   0  0  0  0  0  0  0  0  0  0  0  0
   -3.8793   -1.9065    1.3169 H   0  0  0  0  0  0  0  0  0  0  0  0
   -3.4623   -2.6685   -0.2401 H   0  0  0  0  0  0  0  0  0  0  0  0
   -1.7863   -2.0195    0.9119 C   0  0  0  0  0  0  0  0  0  0  0  0
   -0.9073   -2.6615    1.4699 O   0  0  0  0  0  0  0  0  0  0  0  0
   -1.5803   -0.8195    0.3749 N   0  0  0  0  0  0  0  0  0  0  0  0
   -2.3603   -0.3345   -0.0451 H   0  0  0  0  0  0  0  0  0  0  0  0
   -0.2933   -0.1205    0.3719 C   0  0  1  0  0  0  0  0  0  0  0  0
    0.3577   -0.5843    1.1143 H   0  0  0  0  0  0  0  0  0  0  0  0
    0.3613   -0.2794   -1.0156 C   0  0  0  0  0  0  0  0  0  0  0  0
    1.1799    0.4386   -1.0885 H   0  0  0  0  0  0  0  0  0  0  0  0
    0.7811   -1.2826   -1.1026 H   0  0  0  0  0  0  0  0  0  0  0  0
   -0.6050   -0.0504   -2.1907 C   0  0  0  0  0  0  0  0  0  0  0  0
   -1.5971    0.1970   -1.8128 H   0  0  0  0  0  0  0  0  0  0  0  0
   -0.2390    0.7758   -2.7991 H   0  0  0  0  0  0  0  0  0  0  0  0
   -0.7284   -1.2793   -3.0857 C   0  0  0  0  0  0  0  0  0  0  0  0
   -0.0520   -2.2902   -2.9845 O   0  0  0  0  0  0  0  0  0  0  0  0
   -1.6574   -1.1987   -4.0563 O   0  0  0  0  0  0  0  0  0  0  0  0
   -1.6000   -2.0311   -4.5287 H   0  0  0  0  0  0  0  0  0  0  0  0
   -0.4860    1.3537    0.7622 C   0  0  0  0  0  0  0  0  0  0  0  0
   -1.3956    2.0096    0.2582 O   0  0  0  0  0  0  0  0  0  0  0  0
    0.3741    1.8728    1.6466 N   0  0  0  0  0  0  0  0  0  0  0  0
    1.0814    1.2667    2.0345 H   0  0  0  0  0  0  0  0  0  0  0  0
    0.3380    3.2610    2.1024 C   0  0  0  0  0  0  0  0  0  0  0  0
   -0.6389    3.4820    2.5363 H   0  0  0  0  0  0  0  0  0  0  0  0
    1.1108    3.4337    2.8528 H   0  0  0  0  0  0  0  0  0  0  0  0
    0.5009    3.9312    1.2562 H   0  0  0  0  0  0  0  0  0  0  0  0
  5  6  2  0  0  0  0
  5  7  1  0  0  0  0
  2  3  1  0  0  0  0
  2  4  1  0  0  0  0
  2  5  1  0  0  0  0
  1  2  1  0  0  0  0
 21 22  2  0  0  0  0
 21 23  1  0  0  0  0
 19 20  1  0  0  0  0
 17 18  2  0  0  0  0
 17 19  1  0  0  0  0
 14 15  1  0  0  0  0
 14 16  1  0  0  0  0
 14 17  1  0  0  0  0
 11 12  1  0  0  0  0
 11 13  1  0  0  0  0
 11 14  1  0  0  0  0
  9 10  1  0  0  0  0
  9 11  1  0  0  0  0
  9 21  1  0  0  0  0
  7  8  1  0  0  0  0
  7  9  1  0  0  0  0
 25 26  1  0  0  0  0
 25 27  1  0  0  0  0
 25 28  1  0  0  0  0
 23 24  1  0  0  0  0
 23 25  1  0  0  0  0
M  END
$$$$
default_name
  -OEChem-02102213163D

 28 27  0     1  0  0  0  0  0999 V2000
   -3.2133   -3.5565    1.2809 H   0  0  0  0  0  0  0  0  0  0  0  0
   -3.1873   -2.5755    0.8089 C   0  0  0  0  0  0  0  0  0  0  0  0
   -3.8793   -1.9065    1.3169 H   0  0  0  0  0  0  0  0  0  0  0  0
   -3.4623   -2.6685   -0.2401 H   0  0  0  0  0  0  0  0  0  0  0  0
   -1.7863   -2.0195    0.9119 C   0  0  0  0  0  0  0  0  0  0  0  0
   -0.9073   -2.6615    1.4699 O   0  0  0  0  0  0  0  0  0  0  0  0
   -1.5803   -0.8195    0.3749 N   0  0  0  0  0  0  0  0  0  0  0  0
   -2.3603   -0.3345   -0.0451 H   0  0  0  0  0  0  0  0  0  0  0  0
   -0.2933   -0.1205    0.3719 C   0  0  1  0  0  0  0  0  0  0  0  0
    0.3577   -0.5843    1.1143 H   0  0  0  0  0  0  0  0  0  0  0  0
    0.3613   -0.2794   -1.0156 C   0  0  0  0  0  0  0  0  0  0  0  0
    1.1799    0.4386   -1.0885 H   0  0  0  0  0  0  0  0  0  0  0  0
    0.7811   -1.2826   -1.1026 H   0  0  0  0  0  0  0  0  0  0  0  0
   -0.6050   -0.0504   -2.1907 C   0  0  0  0  0  0  0  0  0  0  0  0
   -1.5078    0.4480   -1.8373 H   0  0  0  0  0  0  0  0  0  0  0  0
   -0.1193    0.5782   -2.9361 H   0  0  0  0  0  0  0  0  0  0  0  0
   -1.0140   -1.3556   -2.8658 C   0  0  0  0  0  0  0  0  0  0  0  0
   -0.5426   -2.4526   -2.6127 O   0  0  0  0  0  0  0  0  0  0  0  0
   -1.9614   -1.2451   -3.8153 O   0  0  0  0  0  0  0  0  0  0  0  0
   -2.0930   -2.1362   -4.1438 H   0  0  0  0  0  0  0  0  0  0  0  0
   -0.4860    1.3537    0.7622 C   0  0  0  0  0  0  0  0  0  0  0  0
   -1.3956    2.0096    0.2582 O   0  0  0  0  0  0  0  0  0  0  0  0
    0.3741    1.8728    1.6466 N   0  0  0  0  0  0  0  0  0  0  0  0
    1.0814    1.2667    2.0345 H   0  0  0  0  0  0  0  0  0  0  0  0
    0.3380    3.2610    2.1024 C   0  0  0  0  0  0  0  0  0  0  0  0
   -0.6389    3.4820    2.5363 H   0  0  0  0  0  0  0  0  0  0  0  0
    1.1108    3.4337    2.8528 H   0  0  0  0  0  0  0  0  0  0  0  0
    0.5009    3.9312    1.2562 H   0  0  0  0  0  0  0  0  0  0  0  0
  5  6  2  0  0  0  0
  5  7  1  0  0  0  0
  2  3  1  0  0  0  0
  2  4  1  0  0  0  0
  2  5  1  0  0  0  0
  1  2  1  0  0  0  0
 21 22  2  0  0  0  0
 21 23  1  0  0  0  0
 19 20  1  0  0  0  0
 17 18  2  0  0  0  0
 17 19  1  0  0  0  0
 14 15  1  0  0  0  0
 14 16  1  0  0  0  0
 14 17  1  0  0  0  0
 11 12  1  0  0  0  0
 11 13  1  0  0  0  0
 11 14  1  0  0  0  0
  9 10  1  0  0  0  0
  9 11  1  0  0  0  0
  9 21  1  0  0  0  0
  7  8  1  0  0  0  0
  7  9  1  0  0  0  0
 25 26  1  0  0  0  0
 25 27  1  0  0  0  0
 25 28  1  0  0  0  0
 23 24  1  0  0  0  0
 23 25  1  0  0  0  0
M  END
$$$$
default_name
  -OEChem-02102213163D

 28 27  0     1  0  0  0  0  0999 V2000
   -3.2133   -3.5565    1.2809 H   0  0  0  0  0  0  0  0  0  0  0  0
   -3.1873   -2.5755    0.8089 C   0  0  0  0  0  0  0  0  0  0  0  0
   -3.8793   -1.9065    1.3169 H   0  0  0  0  0  0  0  0  0  0  0  0
   -3.4623   -2.6685   -0.2401 H   0  0  0  0  0  0  0  0  0  0  0  0
   -1.7863   -2.0195    0.9119 C   0  0  0  0  0  0  0  0  0  0  0  0
   -0.9073   -2.6615    1.4699 O   0  0  0  0  0  0  0  0  0  0  0  0
   -1.5803   -0.8195    0.3749 N   0  0  0  0  0  0  0  0  0  0  0  0
   -2.3603   -0.3345   -0.0451 H   0  0  0  0  0  0  0  0  0  0  0  0
   -0.2933   -0.1205    0.3719 C   0  0  1  0  0  0  0  0  0  0  0  0
    0.3577   -0.5843    1.1143 H   0  0  0  0  0  0  0  0  0  0  0  0
    0.3613   -0.2794   -1.0156 C   0  0  0  0  0  0  0  0  0  0  0  0
    1.1799    0.4386   -1.0885 H   0  0  0  0  0  0  0  0  0  0  0  0
    0.7811   -1.2826   -1.1026 H   0  0  0  0  0  0  0  0  0  0  0  0
   -0.6050   -0.0504   -2.1907 C   0  0  0  0  0  0  0  0  0  0  0  0
   -1.3728    0.6688   -1.9052 H   0  0  0  0  0  0  0  0  0  0  0  0
   -0.0479    0.3414   -3.0409 H   0  0  0  0  0  0  0  0  0  0  0  0
   -1.2964   -1.3371   -2.6299 C   0  0  0  0  0  0  0  0  0  0  0  0
   -1.0343   -2.4521   -2.2083 O   0  0  0  0  0  0  0  0  0  0  0  0
   -2.2550   -1.1906   -3.5633 O   0  0  0  0  0  0  0  0  0  0  0  0
   -2.5752   -2.0777   -3.7360 H   0  0  0  0  0  0  0  0  0  0  0  0
   -0.4860    1.3537    0.7622 C   0  0  0  0  0  0  0  0  0  0  0  0
   -1.3956    2.0096    0.2582 O   0  0  0  0  0  0  0  0  0  0  0  0
    0.3741    1.8728    1.6466 N   0  0  0  0  0  0  0  0  0  0  0  0
    1.0814    1.2667    2.0345 H   0  0  0  0  0  0  0  0  0  0  0  0
    0.3380    3.2610    2.1024 C   0  0  0  0  0  0  0  0  0  0  0  0
   -0.6389    3.4820    2.5363 H   0  0  0  0  0  0  0  0  0  0  0  0
    1.1108    3.4337    2.8528 H   0  0  0  0  0  0  0  0  0  0  0  0
    0.5009    3.9312    1.2562 H   0  0  0  0  0  0  0  0  0  0  0  0
  5  6  2  0  0  0  0
  5  7  1  0  0  0  0
  2  3  1  0  0  0  0
  2  4  1  0  0  0  0
  2  5  1  0  0  0  0
  1  2  1  0  0  0  0
 21 22  2  0  0  0  0
 21 23  1  0  0  0  0
 19 20  1  0  0  0  0
 17 18  2  0  0  0  0
 17 19  1  0  0  0  0
 14 15  1  0  0  0  0
 14 16  1  0  0  0  0
 14 17  1  0  0  0  0
 11 12  1  0  0  0  0
 11 13  1  0  0  0  0
 11 14  1  0  0  0  0
  9 10  1  0  0  0  0
  9 11  1  0  0  0  0
  9 21  1  0  0  0  0
  7  8  1  0  0  0  0
  7  9  1  0  0  0  0
 25 26  1  0  0  0  0
 25 27  1  0  0  0  0
 25 28  1  0  0  0  0
 23 24  1  0  0  0  0
 23 25  1  0  0  0  0
M  END
$$$$
default_name
  -OEChem-02102213163D

 28 27  0     1  0  0  0  0  0999 V2000
   -3.2133   -3.5565    1.2809 H   0  0  0  0  0  0  0  0  0  0  0  0
   -3.1873   -2.5755    0.8089 C   0  0  0  0  0  0  0  0  0  0  0  0
   -3.8793   -1.9065    1.3169 H   0  0  0  0  0  0  0  0  0  0  0  0
   -3.4623   -2.6685   -0.2401 H   0  0  0  0  0  0  0  0  0  0  0  0
   -1.7863   -2.0195    0.9119 C   0  0  0  0  0  0  0  0  0  0  0  0
   -0.9073   -2.6615    1.4699 O   0  0  0  0  0  0  0  0  0  0  0  0
   -1.5803   -0.8195    0.3749 N   0  0  0  0  0  0  0  0  0  0  0  0
   -2.3603   -0.3345   -0.0451 H   0  0  0  0  0  0  0  0  0  0  0  0
   -0.2933   -0.1205    0.3719 C   0  0  1  0  0  0  0  0  0  0  0  0
    0.3577   -0.5843    1.1143 H   0  0  0  0  0  0  0  0  0  0  0  0
    0.3613   -0.2794   -1.0156 C   0  0  0  0  0  0  0  0  0  0  0  0
    1.1799    0.4386   -1.0885 H   0  0  0  0  0  0  0  0  0  0  0  0
    0.7811   -1.2826   -1.1026 H   0  0  0  0  0  0  0  0  0  0  0  0
   -0.6050   -0.0504   -2.1907 C   0  0  0  0  0  0  0  0  0  0  0  0
   -1.2014    0.8443   -2.0119 H   0  0  0  0  0  0  0  0  0  0  0  0
   -0.0299    0.0816   -3.1064 H   0  0  0  0  0  0  0  0  0  0  0  0
   -1.5565   -1.2250   -2.3942 C   0  0  0  0  0  0  0  0  0  0  0  0
   -1.4935   -2.2887   -1.7988 O   0  0  0  0  0  0  0  0  0  0  0  0
   -2.5180   -1.0390   -3.3175 O   0  0  0  0  0  0  0  0  0  0  0  0
   -3.0136   -1.8596   -3.3329 H   0  0  0  0  0  0  0  0  0  0  0  0
   -0.4860    1.3537    0.7622 C   0  0  0  0  0  0  0  0  0  0  0  0
   -1.3956    2.0096    0.2582 O   0  0  0  0  0  0  0  0  0  0  0  0
    0.3741    1.8728    1.6466 N   0  0  0  0  0  0  0  0  0  0  0  0
    1.0814    1.2667    2.0345 H   0  0  0  0  0  0  0  0  0  0  0  0
    0.3380    3.2610    2.1024 C   0  0  0  0  0  0  0  0  0  0  0  0
   -0.6389    3.4820    2.5363 H   0  0  0  0  0  0  0  0  0  0  0  0
    1.1108    3.4337    2.8528 H   0  0  0  0  0  0  0  0  0  0  0  0
    0.5009    3.9312    1.2562 H   0  0  0  0  0  0  0  0  0  0  0  0
  5  6  2  0  0  0  0
  5  7  1  0  0  0  0
  2  3  1  0  0  0  0
  2  4  1  0  0  0  0
  2  5  1  0  0  0  0
  1  2  1  0  0  0  0
 21 22  2  0  0  0  0
 21 23  1  0  0  0  0
 19 20  1  0  0  0  0
 17 18  2  0  0  0  0
 17 19  1  0  0  0  0
 14 15  1  0  0  0  0
 14 16  1  0  0  0  0
 14 17  1  0  0  0  0
 11 12  1  0  0  0  0
 11 13  1  0  0  0  0
 11 14  1  0  0  0  0
  9 10  1  0  0  0  0
  9 11  1  0  0  0  0
  9 21  1  0  0  0  0
  7  8  1  0  0  0  0
  7  9  1  0  0  0  0
 25 26  1  0  0  0  0
 25 27  1  0  0  0  0
 25 28  1  0  0  0  0
 23 24  1  0  0  0  0
 23 25  1  0  0  0  0
M  END
$$$$
default_name
  -OEChem-02102213163D

 28 27  0     1  0  0  0  0  0999 V2000
   -3.2133   -3.5565    1.2809 H   0  0  0  0  0  0  0  0  0  0  0  0
   -3.1873   -2.5755    0.8089 C   0  0  0  0  0  0  0  0  0  0  0  0
   -3.8793   -1.9065    1.3169 H   0  0  0  0  0  0  0  0  0  0  0  0
   -3.4623   -2.6685   -0.2401 H   0  0  0  0  0  0  0  0  0  0  0  0
   -1.7863   -2.0195    0.9119 C   0  0  0  0  0  0  0  0  0  0  0  0
   -0.9073   -2.6615    1.4699 O   0  0  0  0  0  0  0  0  0  0  0  0
   -1.5803   -0.8195    0.3749 N   0  0  0  0  0  0  0  0  0  0  0  0
   -2.3603   -0.3345   -0.0451 H   0  0  0  0  0  0  0  0  0  0  0  0
   -0.2933   -0.1205    0.3719 C   0  0  1  0  0  0  0  0  0  0  0  0
    0.3577   -0.5843    1.1143 H   0  0  0  0  0  0  0  0  0  0  0  0
    0.3613   -0.2794   -1.0156 C   0  0  0  0  0  0  0  0  0  0  0  0
    1.1799    0.4386   -1.0885 H   0  0  0  0  0  0  0  0  0  0  0  0
    0.7811   -1.2826   -1.1026 H   0  0  0  0  0  0  0  0  0  0  0  0
   -0.6050   -0.0504   -2.1907 C   0  0  0  0  0  0  0  0  0  0  0  0
   -1.0053    0.9627   -2.1501 H   0  0  0  0  0  0  0  0  0  0  0  0
   -0.0663   -0.1837   -3.1281 H   0  0  0  0  0  0  0  0  0  0  0  0
   -1.7765   -1.0270   -2.1747 C   0  0  0  0  0  0  0  0  0  0  0  0
   -1.8890   -1.9734   -1.4121 O   0  0  0  0  0  0  0  0  0  0  0  0
   -2.7327   -0.8006   -3.0945 O   0  0  0  0  0  0  0  0  0  0  0  0
   -3.3785   -1.4968   -2.9622 H   0  0  0  0  0  0  0  0  0  0  0  0
   -0.4860    1.3537    0.7622 C   0  0  0  0  0  0  0  0  0  0  0  0
   -1.3956    2.0096    0.2582 O   0  0  0  0  0  0  0  0  0  0  0  0
    0.3741    1.8728    1.6466 N   0  0  0  0  0  0  0  0  0  0  0  0
    1.0814    1.2667    2.0345 H   0  0  0  0  0  0  0  0  0  0  0  0
    0.3380    3.2610    2.1024 C   0  0  0  0  0  0  0  0  0  0  0  0
   -0.6389    3.4820    2.5363 H   0  0  0  0  0  0  0  0  0  0  0  0
    1.1108    3.4337    2.8528 H   0  0  0  0  0  0  0  0  0  0  0  0
    0.5009    3.9312    1.2562 H   0  0  0  0  0  0  0  0  0  0  0  0
  5  6  2  0  0  0  0
  5  7  1  0  0  0  0
  2  3  1  0  0  0  0
  2  4  1  0  0  0  0
  2  5  1  0  0  0  0
  1  2  1  0  0  0  0
 21 22  2  0  0  0  0
 21 23  1  0  0  0  0
 19 20  1  0  0  0  0
 17 18  2  0  0  0  0
 17 19  1  0  0  0  0
 14 15  1  0  0  0  0
 14 16  1  0  0  0  0
 14 17  1  0  0  0  0
 11 12  1  0  0  0  0
 11 13  1  0  0  0  0
 11 14  1  0  0  0  0
  9 10  1  0  0  0  0
  9 11  1  0  0  0  0
  9 21  1  0  0  0  0
  7  8  1  0  0  0  0
  7  9  1  0  0  0  0
 25 26  1  0  0  0  0
 25 27  1  0  0  0  0
 25 28  1  0  0  0  0
 23 24  1  0  0  0  0
 23 25  1  0  0  0  0
M  END
$$$$
default_name
  -OEChem-02102213163D

 28 27  0     1  0  0  0  0  0999 V2000
   -3.2133   -3.5565    1.2809 H   0  0  0  0  0  0  0  0  0  0  0  0
   -3.1873   -2.5755    0.8089 C   0  0  0  0  0  0  0  0  0  0  0  0
   -3.8793   -1.9065    1.3169 H   0  0  0  0  0  0  0  0  0  0  0  0
   -3.4623   -2.6685   -0.2401 H   0  0  0  0  0  0  0  0  0  0  0  0
   -1.7863   -2.0195    0.9119 C   0  0  0  0  0  0  0  0  0  0  0  0
   -0.9073   -2.6615    1.4699 O   0  0  0  0  0  0  0  0  0  0  0  0
   -1.5803   -0.8195    0.3749 N   0  0  0  0  0  0  0  0  0  0  0  0
   -2.3603   -0.3345   -0.0451 H   0  0  0  0  0  0  0  0  0  0  0  0
   -0.2933   -0.1205    0.3719 C   0  0  1  0  0  0  0  0  0  0  0  0
    0.3577   -0.5843    1.1143 H   0  0  0  0  0  0  0  0  0  0  0  0
    0.3613   -0.2794   -1.0156 C   0  0  0  0  0  0  0  0  0  0  0  0
    1.1799    0.4386   -1.0885 H   0  0  0  0  0  0  0  0  0  0  0  0
    0.7811   -1.2826   -1.1026 H   0  0  0  0  0  0  0  0  0  0  0  0
   -0.6050   -0.0504   -2.1907 C   0  0  0  0  0  0  0  0  0  0  0  0
   -0.7978    1.0158   -2.3104 H   0  0  0  0  0  0  0  0  0  0  0  0
   -0.1548   -0.4362   -3.1046 H   0  0  0  0  0  0  0  0  0  0  0  0
   -1.9414   -0.7566   -1.9864 C   0  0  0  0  0  0  0  0  0  0  0  0
   -2.1938   -1.5279   -1.0747 O   0  0  0  0  0  0  0  0  0  0  0  0
   -2.8843   -0.4916   -2.9096 O   0  0  0  0  0  0  0  0  0  0  0  0
   -3.6449   -1.0139   -2.6490 H   0  0  0  0  0  0  0  0  0  0  0  0
   -0.4860    1.3537    0.7622 C   0  0  0  0  0  0  0  0  0  0  0  0
   -1.3956    2.0096    0.2582 O   0  0  0  0  0  0  0  0  0  0  0  0
    0.3741    1.8728    1.6466 N   0  0  0  0  0  0  0  0  0  0  0  0
    1.0814    1.2667    2.0345 H   0  0  0  0  0  0  0  0  0  0  0  0
    0.3380    3.2610    2.1024 C   0  0  0  0  0  0  0  0  0  0  0  0
   -0.6389    3.4820    2.5363 H   0  0  0  0  0  0  0  0  0  0  0  0
    1.1108    3.4337    2.8528 H   0  0  0  0  0  0  0  0  0  0  0  0
    0.5009    3.9312    1.2562 H   0  0  0  0  0  0  0  0  0  0  0  0
  5  6  2  0  0  0  0
  5  7  1  0  0  0  0
  2  3  1  0  0  0  0
  2  4  1  0  0  0  0
  2  5  1  0  0  0  0
  1  2  1  0  0  0  0
 21 22  2  0  0  0  0
 21 23  1  0  0  0  0
 19 20  1  0  0  0  0
 17 18  2  0  0  0  0
 17 19  1  0  0  0  0
 14 15  1  0  0  0  0
 14 16  1  0  0  0  0
 14 17  1  0  0  0  0
 11 12  1  0  0  0  0
 11 13  1  0  0  0  0
 11 14  1  0  0  0  0
  9 10  1  0  0  0  0
  9 11  1  0  0  0  0
  9 21  1  0  0  0  0
  7  8  1  0  0  0  0
  7  9  1  0  0  0  0
 25 26  1  0  0  0  0
 25 27  1  0  0  0  0
 25 28  1  0  0  0  0
 23 24  1  0  0  0  0
 23 25  1  0  0  0  0
M  END
$$$$
default_name
  -OEChem-02102213163D

 28 27  0     1  0  0  0  0  0999 V2000
   -3.2133   -3.5565    1.2809 H   0  0  0  0  0  0  0  0  0  0  0  0
   -3.1873   -2.5755    0.8089 C   0  0  0  0  0  0  0  0  0  0  0  0
   -3.8793   -1.9065    1.3169 H   0  0  0  0  0  0  0  0  0  0  0  0
   -3.4623   -2.6685   -0.2401 H   0  0  0  0  0  0  0  0  0  0  0  0
   -1.7863   -2.0195    0.9119 C   0  0  0  0  0  0  0  0  0  0  0  0
   -0.9073   -2.6615    1.4699 O   0  0  0  0  0  0  0  0  0  0  0  0
   -1.5803   -0.8195    0.3749 N   0  0  0  0  0  0  0  0  0  0  0  0
   -2.3603   -0.3345   -0.0451 H   0  0  0  0  0  0  0  0  0  0  0  0
   -0.2933   -0.1205    0.3719 C   0  0  1  0  0  0  0  0  0  0  0  0
    0.3577   -0.5843    1.1143 H   0  0  0  0  0  0  0  0  0  0  0  0
    0.3613   -0.2794   -1.0156 C   0  0  0  0  0  0  0  0  0  0  0  0
    1.1799    0.4386   -1.0885 H   0  0  0  0  0  0  0  0  0  0  0  0
    0.7811   -1.2826   -1.1026 H   0  0  0  0  0  0  0  0  0  0  0  0
   -0.6050   -0.0504   -2.1907 C   0  0  0  0  0  0  0  0  0  0  0  0
   -0.5930    1.0000   -2.4819 H   0  0  0  0  0  0  0  0  0  0  0  0
   -0.2893   -0.6588   -3.0374 H   0  0  0  0  0  0  0  0  0  0  0  0
   -2.0400   -0.4322   -1.8421 C   0  0  0  0  0  0  0  0  0  0  0  0
   -2.3872   -0.9824   -0.8094 O   0  0  0  0  0  0  0  0  0  0  0  0
   -2.9625   -0.1332   -2.7754 O   0  0  0  0  0  0  0  0  0  0  0  0
   -3.7948   -0.4439   -2.4147 H   0  0  0  0  0  0  0  0  0  0  0  0
   -0.4860    1.3537    0.7622 C   0  0  0  0  0  0  0  0  0  0  0  0
   -1.3956    2.0096    0.2582 O   0  0  0  0  0  0  0  0  0  0  0  0
    0.3741    1.8728    1.6466 N   0  0  0  0  0  0  0  0  0  0  0  0
    1.0814    1.2667    2.0345 H   0  0  0  0  0  0  0  0  0  0  0  0
    0.3380    3.2610    2.1024 C   0  0  0  0  0  0  0  0  0  0  0  0
   -0.6389    3.4820    2.5363 H   0  0  0  0  0  0  0  0  0  0  0  0
    1.1108    3.4337    2.8528 H   0  0  0  0  0  0  0  0  0  0  0  0
    0.5009    3.9312    1.2562 H   0  0  0  0  0  0  0  0  0  0  0  0
  5  6  2  0  0  0  0
  5  7  1  0  0  0  0
  2  3  1  0  0  0  0
  2  4  1  0  0  0  0
  2  5  1  0  0  0  0
  1  2  1  0  0  0  0
 21 22  2  0  0  0  0
 21 23  1  0  0  0  0
 19 20  1  0  0  0  0
 17 18  2  0  0  0  0
 17 19  1  0  0  0  0
 14 15  1  0  0  0  0
 14 16  1  0  0  0  0
 14 17  1  0  0  0  0
 11 12  1  0  0  0  0
 11 13  1  0  0  0  0
 11 14  1  0  0  0  0
  9 10  1  0  0  0  0
  9 11  1  0  0  0  0
  9 21  1  0  0  0  0
  7  8  1  0  0  0  0
  7  9  1  0  0  0  0
 25 26  1  0  0  0  0
 25 27  1  0  0  0  0
 25 28  1  0  0  0  0
 23 24  1  0  0  0  0
 23 25  1  0  0  0  0
M  END
$$$$
default_name
  -OEChem-02102213163D

 28 27  0     1  0  0  0  0  0999 V2000
   -3.2133   -3.5565    1.2809 H   0  0  0  0  0  0  0  0  0  0  0  0
   -3.1873   -2.5755    0.8089 C   0  0  0  0  0  0  0  0  0  0  0  0
   -3.8793   -1.9065    1.3169 H   0  0  0  0  0  0  0  0  0  0  0  0
   -3.4623   -2.6685   -0.2401 H   0  0  0  0  0  0  0  0  0  0  0  0
   -1.7863   -2.0195    0.9119 C   0  0  0  0  0  0  0  0  0  0  0  0
   -0.9073   -2.6615    1.4699 O   0  0  0  0  0  0  0  0  0  0  0  0
   -1.5803   -0.8195    0.3749 N   0  0  0  0  0  0  0  0  0  0  0  0
   -2.3603   -0.3345   -0.0451 H   0  0  0  0  0  0  0  0  0  0  0  0
   -0.2933   -0.1205    0.3719 C   0  0  1  0  0  0  0  0  0  0  0  0
    0.3577   -0.5843    1.1143 H   0  0  0  0  0  0  0  0  0  0  0  0
    0.3613   -0.2794   -1.0156 C   0  0  0  0  0  0  0  0  0  0  0  0
    1.1799    0.4386   -1.0885 H   0  0  0  0  0  0  0  0  0  0  0  0
    0.7811   -1.2826   -1.1026 H   0  0  0  0  0  0  0  0  0  0  0  0
   -0.6050   -0.0504   -2.1907 C   0  0  0  0  0  0  0  0  0  0  0  0
   -0.4049    0.9164   -2.6528 H   0  0  0  0  0  0  0  0  0  0  0  0
   -0.4606   -0.8363   -2.9311 H   0  0  0  0  0  0  0  0  0  0  0  0
   -2.0655   -0.0760   -1.7517 C   0  0  0  0  0  0  0  0  0  0  0  0
   -2.4559   -0.3742   -0.6343 O   0  0  0  0  0  0  0  0  0  0  0  0
   -2.9621    0.2504   -2.7011 O   0  0  0  0  0  0  0  0  0  0  0  0
   -3.8178    0.1744   -2.2752 H   0  0  0  0  0  0  0  0  0  0  0  0
   -0.4860    1.3537    0.7622 C   0  0  0  0  0  0  0  0  0  0  0  0
   -1.3956    2.0096    0.2582 O   0  0  0  0  0  0  0  0  0  0  0  0
    0.3741    1.8728    1.6466 N   0  0  0  0  0  0  0  0  0  0  0  0
    1.0814    1.2667    2.0345 H   0  0  0  0  0  0  0  0  0  0  0  0
    0.3380    3.2610    2.1024 C   0  0  0  0  0  0  0  0  0  0  0  0
   -0.6389    3.4820    2.5363 H   0  0  0  0  0  0  0  0  0  0  0  0
    1.1108    3.4337    2.8528 H   0  0  0  0  0  0  0  0  0  0  0  0
    0.5009    3.9312    1.2562 H   0  0  0  0  0  0  0  0  0  0  0  0
  5  6  2  0  0  0  0
  5  7  1  0  0  0  0
  2  3  1  0  0  0  0
  2  4  1  0  0  0  0
  2  5  1  0  0  0  0
  1  2  1  0  0  0  0
 21 22  2  0  0  0  0
 21 23  1  0  0  0  0
 19 20  1  0  0  0  0
 17 18  2  0  0  0  0
 17 19  1  0  0  0  0
 14 15  1  0  0  0  0
 14 16  1  0  0  0  0
 14 17  1  0  0  0  0
 11 12  1  0  0  0  0
 11 13  1  0  0  0  0
 11 14  1  0  0  0  0
  9 10  1  0  0  0  0
  9 11  1  0  0  0  0
  9 21  1  0  0  0  0
  7  8  1  0  0  0  0
  7  9  1  0  0  0  0
 25 26  1  0  0  0  0
 25 27  1  0  0  0  0
 25 28  1  0  0  0  0
 23 24  1  0  0  0  0
 23 25  1  0  0  0  0
M  END
$$$$
default_name
  -OEChem-02102213163D

 28 27  0     1  0  0  0  0  0999 V2000
   -3.2133   -3.5565    1.2809 H   0  0  0  0  0  0  0  0  0  0  0  0
   -3.1873   -2.5755    0.8089 C   0  0  0  0  0  0  0  0  0  0  0  0
   -3.8793   -1.9065    1.3169 H   0  0  0  0  0  0  0  0  0  0  0  0
   -3.4623   -2.6685   -0.2401 H   0  0  0  0  0  0  0  0  0  0  0  0
   -1.7863   -2.0195    0.9119 C   0  0  0  0  0  0  0  0  0  0  0  0
   -0.9073   -2.6615    1.4699 O   0  0  0  0  0  0  0  0  0  0  0  0
   -1.5803   -0.8195    0.3749 N   0  0  0  0  0  0  0  0  0  0  0  0
   -2.3603   -0.3345   -0.0451 H   0  0  0  0  0  0  0  0  0  0  0  0
   -0.2933   -0.1205    0.3719 C   0  0  1  0  0  0  0  0  0  0  0  0
    0.3577   -0.5843    1.1143 H   0  0  0  0  0  0  0  0  0  0  0  0
    0.3613   -0.2794   -1.0156 C   0  0  0  0  0  0  0  0  0  0  0  0
    1.1799    0.4386   -1.0885 H   0  0  0  0  0  0  0  0  0  0  0  0
    0.7811   -1.2826   -1.1026 H   0  0  0  0  0  0  0  0  0  0  0  0
   -0.6050   -0.0504   -2.1907 C   0  0  0  0  0  0  0  0  0  0  0  0
   -0.2464    0.7706   -2.8116 H   0  0  0  0  0  0  0  0  0  0  0  0
   -0.6570   -0.9566   -2.7930 H   0  0  0  0  0  0  0  0  0  0  0  0
   -2.0163    0.2879   -1.7213 C   0  0  0  0  0  0  0  0  0  0  0  0
   -2.3953    0.2553   -0.5615 O   0  0  0  0  0  0  0  0  0  0  0  0
   -2.8830    0.6328   -2.6916 O   0  0  0  0  0  0  0  0  0  0  0  0
   -3.7124    0.7989   -2.2402 H   0  0  0  0  0  0  0  0  0  0  0  0
   -0.4860    1.3537    0.7622 C   0  0  0  0  0  0  0  0  0  0  0  0
   -1.3956    2.0096    0.2582 O   0  0  0  0  0  0  0  0  0  0  0  0
    0.3741    1.8728    1.6466 N   0  0  0  0  0  0  0  0  0  0  0  0
    1.0814    1.2667    2.0345 H   0  0  0  0  0  0  0  0  0  0  0  0
    0.3380    3.2610    2.1024 C   0  0  0  0  0  0  0  0  0  0  0  0
   -0.6389    3.4820    2.5363 H   0  0  0  0  0  0  0  0  0  0  0  0
    1.1108    3.4337    2.8528 H   0  0  0  0  0  0  0  0  0  0  0  0
    0.5009    3.9312    1.2562 H   0  0  0  0  0  0  0  0  0  0  0  0
  5  6  2  0  0  0  0
  5  7  1  0  0  0  0
  2  3  1  0  0  0  0
  2  4  1  0  0  0  0
  2  5  1  0  0  0  0
  1  2  1  0  0  0  0
 21 22  2  0  0  0  0
 21 23  1  0  0  0  0
 19 20  1  0  0  0  0
 17 18  2  0  0  0  0
 17 19  1  0  0  0  0
 14 15  1  0  0  0  0
 14 16  1  0  0  0  0
 14 17  1  0  0  0  0
 11 12  1  0  0  0  0
 11 13  1  0  0  0  0
 11 14  1  0  0  0  0
  9 10  1  0  0  0  0
  9 11  1  0  0  0  0
  9 21  1  0  0  0  0
  7  8  1  0  0  0  0
  7  9  1  0  0  0  0
 25 26  1  0  0  0  0
 25 27  1  0  0  0  0
 25 28  1  0  0  0  0
 23 24  1  0  0  0  0
 23 25  1  0  0  0  0
M  END
$$$$
default_name
  -OEChem-02102213163D

 28 27  0     1  0  0  0  0  0999 V2000
   -3.2133   -3.5565    1.2809 H   0  0  0  0  0  0  0  0  0  0  0  0
   -3.1873   -2.5755    0.8089 C   0  0  0  0  0  0  0  0  0  0  0  0
   -3.8793   -1.9065    1.3169 H   0  0  0  0  0  0  0  0  0  0  0  0
   -3.4623   -2.6685   -0.2401 H   0  0  0  0  0  0  0  0  0  0  0  0
   -1.7863   -2.0195    0.9119 C   0  0  0  0  0  0  0  0  0  0  0  0
   -0.9073   -2.6615    1.4699 O   0  0  0  0  0  0  0  0  0  0  0  0
   -1.5803   -0.8195    0.3749 N   0  0  0  0  0  0  0  0  0  0  0  0
   -2.3603   -0.3345   -0.0451 H   0  0  0  0  0  0  0  0  0  0  0  0
   -0.2933   -0.1205    0.3719 C   0  0  1  0  0  0  0  0  0  0  0  0
    0.3577   -0.5843    1.1143 H   0  0  0  0  0  0  0  0  0  0  0  0
    0.3613   -0.2794   -1.0156 C   0  0  0  0  0  0  0  0  0  0  0  0
    1.1799    0.4386   -1.0885 H   0  0  0  0  0  0  0  0  0  0  0  0
    0.7811   -1.2826   -1.1026 H   0  0  0  0  0  0  0  0  0  0  0  0
   -0.6050   -0.0504   -2.1907 C   0  0  0  0  0  0  0  0  0  0  0  0
   -0.1282    0.5727   -2.9474 H   0  0  0  0  0  0  0  0  0  0  0  0
   -0.8653   -1.0115   -2.6325 H   0  0  0  0  0  0  0  0  0  0  0  0
   -1.8956    0.6346   -1.7529 C   0  0  0  0  0  0  0  0  0  0  0  0
   -2.2095    0.8633   -0.5958 O   0  0  0  0  0  0  0  0  0  0  0  0
   -2.7306    0.9882   -2.7476 O   0  0  0  0  0  0  0  0  0  0  0  0
   -3.4858    1.3869   -2.3119 H   0  0  0  0  0  0  0  0  0  0  0  0
   -0.4860    1.3537    0.7622 C   0  0  0  0  0  0  0  0  0  0  0  0
   -1.3956    2.0096    0.2582 O   0  0  0  0  0  0  0  0  0  0  0  0
    0.3741    1.8728    1.6466 N   0  0  0  0  0  0  0  0  0  0  0  0
    1.0814    1.2667    2.0345 H   0  0  0  0  0  0  0  0  0  0  0  0
    0.3380    3.2610    2.1024 C   0  0  0  0  0  0  0  0  0  0  0  0
   -0.6389    3.4820    2.5363 H   0  0  0  0  0  0  0  0  0  0  0  0
    1.1108    3.4337    2.8528 H   0  0  0  0  0  0  0  0  0  0  0  0
    0.5009    3.9312    1.2562 H   0  0  0  0  0  0  0  0  0  0  0  0
  5  6  2  0  0  0  0
  5  7  1  0  0  0  0
  2  3  1  0  0  0  0
  2  4  1  0  0  0  0
  2  5  1  0  0  0  0
  1  2  1  0  0  0  0
 21 22  2  0  0  0  0
 21 23  1  0  0  0  0
 19 20  1  0  0  0  0
 17 18  2  0  0  0  0
 17 19  1  0  0  0  0
 14 15  1  0  0  0  0
 14 16  1  0  0  0  0
 14 17  1  0  0  0  0
 11 12  1  0  0  0  0
 11 13  1  0  0  0  0
 11 14  1  0  0  0  0
  9 10  1  0  0  0  0
  9 11  1  0  0  0  0
  9 21  1  0  0  0  0
  7  8  1  0  0  0  0
  7  9  1  0  0  0  0
 25 26  1  0  0  0  0
 25 27  1  0  0  0  0
 25 28  1  0  0  0  0
 23 24  1  0  0  0  0
 23 25  1  0  0  0  0
M  END
$$$$
default_name
  -OEChem-02102213163D

 28 27  0     1  0  0  0  0  0999 V2000
   -3.2133   -3.5565    1.2809 H   0  0  0  0  0  0  0  0  0  0  0  0
   -3.1873   -2.5755    0.8089 C   0  0  0  0  0  0  0  0  0  0  0  0
   -3.8793   -1.9065    1.3169 H   0  0  0  0  0  0  0  0  0  0  0  0
   -3.4623   -2.6685   -0.2401 H   0  0  0  0  0  0  0  0  0  0  0  0
   -1.7863   -2.0195    0.9119 C   0  0  0  0  0  0  0  0  0  0  0  0
   -0.9073   -2.6615    1.4699 O   0  0  0  0  0  0  0  0  0  0  0  0
   -1.5803   -0.8195    0.3749 N   0  0  0  0  0  0  0  0  0  0  0  0
   -2.3603   -0.3345   -0.0451 H   0  0  0  0  0  0  0  0  0  0  0  0
   -0.2933   -0.1205    0.3719 C   0  0  1  0  0  0  0  0  0  0  0  0
    0.3577   -0.5843    1.1143 H   0  0  0  0  0  0  0  0  0  0  0  0
    0.3613   -0.2794   -1.0156 C   0  0  0  0  0  0  0  0  0  0  0  0
    1.1799    0.4386   -1.0885 H   0  0  0  0  0  0  0  0  0  0  0  0
    0.7811   -1.2826   -1.1026 H   0  0  0  0  0  0  0  0  0  0  0  0
   -0.6050   -0.0504   -2.1907 C   0  0  0  0  0  0  0  0  0  0  0  0
   -0.0583    0.3361   -3.0509 H   0  0  0  0  0  0  0  0  0  0  0  0
   -1.0711   -0.9973   -2.4605 H   0  0  0  0  0  0  0  0  0  0  0  0
   -1.7117    0.9405   -1.8445 C   0  0  0  0  0  0  0  0  0  0  0  0
   -1.9111    1.4082   -0.7349 O   0  0  0  0  0  0  0  0  0  0  0  0
   -2.5153    1.2921   -2.8654 O   0  0  0  0  0  0  0  0  0  0  0  0
   -3.1535    1.8984   -2.4855 H   0  0  0  0  0  0  0  0  0  0  0  0
   -0.4860    1.3537    0.7622 C   0  0  0  0  0  0  0  0  0  0  0  0
   -1.3956    2.0096    0.2582 O   0  0  0  0  0  0  0  0  0  0  0  0
    0.3741    1.8728    1.6466 N   0  0  0  0  0  0  0  0  0  0  0  0
    1.0814    1.2667    2.0345 H   0  0  0  0  0  0  0  0  0  0  0  0
    0.3380    3.2610    2.1024 C   0  0  0  0  0  0  0  0  0  0  0  0
   -0.6389    3.4820    2.5363 H   0  0  0  0  0  0  0  0  0  0  0  0
    1.1108    3.4337    2.8528 H   0  0  0  0  0  0  0  0  0  0  0  0
    0.5009    3.9312    1.2562 H   0  0  0  0  0  0  0  0  0  0  0  0
  5  6  2  0  0  0  0
  5  7  1  0  0  0  0
  2  3  1  0  0  0  0
  2  4  1  0  0  0  0
  2  5  1  0  0  0  0
  1  2  1  0  0  0  0
 21 22  2  0  0  0  0
 21 23  1  0  0  0  0
 19 20  1  0  0  0  0
 17 18  2  0  0  0  0
 17 19  1  0  0  0  0
 14 15  1  0  0  0  0
 14 16  1  0  0  0  0
 14 17  1  0  0  0  0
 11 12  1  0  0  0  0
 11 13  1  0  0  0  0
 11 14  1  0  0  0  0
  9 10  1  0  0  0  0
  9 11  1  0  0  0  0
  9 21  1  0  0  0  0
  7  8  1  0  0  0  0
  7  9  1  0  0  0  0
 25 26  1  0  0  0  0
 25 27  1  0  0  0  0
 25 28  1  0  0  0  0
 23 24  1  0  0  0  0
 23 25  1  0  0  0  0
M  END
$$$$
default_name
  -OEChem-02102213163D

 28 27  0     1  0  0  0  0  0999 V2000
   -3.2133   -3.5565    1.2809 H   0  0  0  0  0  0  0  0  0  0  0  0
   -3.1873   -2.5755    0.8089 C   0  0  0  0  0  0  0  0  0  0  0  0
   -3.8793   -1.9065    1.3169 H   0  0  0  0  0  0  0  0  0  0  0  0
   -3.4623   -2.6685   -0.2401 H   0  0  0  0  0  0  0  0  0  0  0  0
   -1.7863   -2.0195    0.9119 C   0  0  0  0  0  0  0  0  0  0  0  0
   -0.9073   -2.6615    1.4699 O   0  0  0  0  0  0  0  0  0  0  0  0
   -1.5803   -0.8195    0.3749 N   0  0  0  0  0  0  0  0  0  0  0  0
   -2.3603   -0.3345   -0.0451 H   0  0  0  0  0  0  0  0  0  0  0  0
   -0.2933   -0.1205    0.3719 C   0  0  1  0  0  0  0  0  0  0  0  0
    0.3577   -0.5843    1.1143 H   0  0  0  0  0  0  0  0  0  0  0  0
    0.3613   -0.2794   -1.0156 C   0  0  0  0  0  0  0  0  0  0  0  0
    1.1799    0.4386   -1.0885 H   0  0  0  0  0  0  0  0  0  0  0  0
    0.7811   -1.2826   -1.1026 H   0  0  0  0  0  0  0  0  0  0  0  0
   -0.6050   -0.0504   -2.1907 C   0  0  0  0  0  0  0  0  0  0  0  0
   -0.0417    0.0769   -3.1152 H   0  0  0  0  0  0  0  0  0  0  0  0
   -1.2604   -0.9150   -2.2887 H   0  0  0  0  0  0  0  0  0  0  0  0
   -1.4771    1.1847   -1.9898 C   0  0  0  0  0  0  0  0  0  0  0  0
   -1.5206    1.8530   -0.9693 O   0  0  0  0  0  0  0  0  0  0  0  0
   -2.2518    1.5241   -3.0369 O   0  0  0  0  0  0  0  0  0  0  0  0
   -2.7380    2.2987   -2.7491 H   0  0  0  0  0  0  0  0  0  0  0  0
   -0.4860    1.3537    0.7622 C   0  0  0  0  0  0  0  0  0  0  0  0
   -1.3956    2.0096    0.2582 O   0  0  0  0  0  0  0  0  0  0  0  0
    0.3741    1.8728    1.6466 N   0  0  0  0  0  0  0  0  0  0  0  0
    1.0814    1.2667    2.0345 H   0  0  0  0  0  0  0  0  0  0  0  0
    0.3380    3.2610    2.1024 C   0  0  0  0  0  0  0  0  0  0  0  0
   -0.6389    3.4820    2.5363 H   0  0  0  0  0  0  0  0  0  0  0  0
    1.1108    3.4337    2.8528 H   0  0  0  0  0  0  0  0  0  0  0  0
    0.5009    3.9312    1.2562 H   0  0  0  0  0  0  0  0  0  0  0  0
  5  6  2  0  0  0  0
  5  7  1  0  0  0  0
  2  3  1  0  0  0  0
  2  4  1  0  0  0  0
  2  5  1  0  0  0  0
  1  2  1  0  0  0  0
 21 22  2  0  0  0  0
 21 23  1  0  0  0  0
 19 20  1  0  0  0  0
 17 18  2  0  0  0  0
 17 19  1  0  0  0  0
 14 15  1  0  0  0  0
 14 16  1  0  0  0  0
 14 17  1  0  0  0  0
 11 12  1  0  0  0  0
 11 13  1  0  0  0  0
 11 14  1  0  0  0  0
  9 10  1  0  0  0  0
  9 11  1  0  0  0  0
  9 21  1  0  0  0  0
  7  8  1  0  0  0  0
  7  9  1  0  0  0  0
 25 26  1  0  0  0  0
 25 27  1  0  0  0  0
 25 28  1  0  0  0  0
 23 24  1  0  0  0  0
 23 25  1  0  0  0  0
M  END
$$$$
default_name
  -OEChem-02102213163D

 28 27  0     1  0  0  0  0  0999 V2000
   -3.2133   -3.5565    1.2809 H   0  0  0  0  0  0  0  0  0  0  0  0
   -3.1873   -2.5755    0.8089 C   0  0  0  0  0  0  0  0  0  0  0  0
   -3.8793   -1.9065    1.3169 H   0  0  0  0  0  0  0  0  0  0  0  0
   -3.4623   -2.6685   -0.2401 H   0  0  0  0  0  0  0  0  0  0  0  0
   -1.7863   -2.0195    0.9119 C   0  0  0  0  0  0  0  0  0  0  0  0
   -0.9073   -2.6615    1.4699 O   0  0  0  0  0  0  0  0  0  0  0  0
   -1.5803   -0.8195    0.3749 N   0  0  0  0  0  0  0  0  0  0  0  0
   -2.3603   -0.3345   -0.0451 H   0  0  0  0  0  0  0  0  0  0  0  0
   -0.2933   -0.1205    0.3719 C   0  0  1  0  0  0  0  0  0  0  0  0
    0.3577   -0.5843    1.1143 H   0  0  0  0  0  0  0  0  0  0  0  0
    0.3613   -0.2794   -1.0156 C   0  0  0  0  0  0  0  0  0  0  0  0
    1.1799    0.4386   -1.0885 H   0  0  0  0  0  0  0  0  0  0  0  0
    0.7811   -1.2826   -1.1026 H   0  0  0  0  0  0  0  0  0  0  0  0
   -0.6050   -0.0504   -2.1907 C   0  0  0  0  0  0  0  0  0  0  0  0
   -0.0793   -0.1872   -3.1357 H   0  0  0  0  0  0  0  0  0  0  0  0
   -1.4205   -0.7701   -2.1289 H   0  0  0  0  0  0  0  0  0  0  0  0
   -1.2079    1.3506   -2.1788 C   0  0  0  0  0  0  0  0  0  0  0  0
   -1.0645    2.1673   -1.2831 O   0  0  0  0  0  0  0  0  0  0  0  0
   -1.9580    1.6681   -3.2504 O   0  0  0  0  0  0  0  0  0  0  0  0
   -2.2678    2.5602   -3.0848 H   0  0  0  0  0  0  0  0  0  0  0  0
   -0.4860    1.3537    0.7622 C   0  0  0  0  0  0  0  0  0  0  0  0
   -1.3956    2.0096    0.2582 O   0  0  0  0  0  0  0  0  0  0  0  0
    0.3741    1.8728    1.6466 N   0  0  0  0  0  0  0  0  0  0  0  0
    1.0814    1.2667    2.0345 H   0  0  0  0  0  0  0  0  0  0  0  0
    0.3380    3.2610    2.1024 C   0  0  0  0  0  0  0  0  0  0  0  0
   -0.6389    3.4820    2.5363 H   0  0  0  0  0  0  0  0  0  0  0  0
    1.1108    3.4337    2.8528 H   0  0  0  0  0  0  0  0  0  0  0  0
    0.5009    3.9312    1.2562 H   0  0  0  0  0  0  0  0  0  0  0  0
  5  6  2  0  0  0  0
  5  7  1  0  0  0  0
  2  3  1  0  0  0  0
  2  4  1  0  0  0  0
  2  5  1  0  0  0  0
  1  2  1  0  0  0  0
 21 22  2  0  0  0  0
 21 23  1  0  0  0  0
 19 20  1  0  0  0  0
 17 18  2  0  0  0  0
 17 19  1  0  0  0  0
 14 15  1  0  0  0  0
 14 16  1  0  0  0  0
 14 17  1  0  0  0  0
 11 12  1  0  0  0  0
 11 13  1  0  0  0  0
 11 14  1  0  0  0  0
  9 10  1  0  0  0  0
  9 11  1  0  0  0  0
  9 21  1  0  0  0  0
  7  8  1  0  0  0  0
  7  9  1  0  0  0  0
 25 26  1  0  0  0  0
 25 27  1  0  0  0  0
 25 28  1  0  0  0  0
 23 24  1  0  0  0  0
 23 25  1  0  0  0  0
M  END
$$$$
default_name
  -OEChem-02102213163D

 28 27  0     1  0  0  0  0  0999 V2000
   -3.2133   -3.5565    1.2809 H   0  0  0  0  0  0  0  0  0  0  0  0
   -3.1873   -2.5755    0.8089 C   0  0  0  0  0  0  0  0  0  0  0  0
   -3.8793   -1.9065    1.3169 H   0  0  0  0  0  0  0  0  0  0  0  0
   -3.4623   -2.6685   -0.2401 H   0  0  0  0  0  0  0  0  0  0  0  0
   -1.7863   -2.0195    0.9119 C   0  0  0  0  0  0  0  0  0  0  0  0
   -0.9073   -2.6615    1.4699 O   0  0  0  0  0  0  0  0  0  0  0  0
   -1.5803   -0.8195    0.3749 N   0  0  0  0  0  0  0  0  0  0  0  0
   -2.3603   -0.3345   -0.0451 H   0  0  0  0  0  0  0  0  0  0  0  0
   -0.2933   -0.1205    0.3719 C   0  0  1  0  0  0  0  0  0  0  0  0
    0.3577   -0.5843    1.1143 H   0  0  0  0  0  0  0  0  0  0  0  0
    0.3613   -0.2794   -1.0156 C   0  0  0  0  0  0  0  0  0  0  0  0
    1.1799    0.4386   -1.0885 H   0  0  0  0  0  0  0  0  0  0  0  0
    0.7811   -1.2826   -1.1026 H   0  0  0  0  0  0  0  0  0  0  0  0
   -0.6050   -0.0504   -2.1907 C   0  0  0  0  0  0  0  0  0  0  0  0
   -0.1686   -0.4382   -3.1112 H   0  0  0  0  0  0  0  0  0  0  0  0
   -1.5402   -0.5725   -1.9919 H   0  0  0  0  0  0  0  0  0  0  0  0
   -0.9223    1.4269   -2.3988 C   0  0  0  0  0  0  0  0  0  0  0  0
   -0.5739    2.3297   -1.6549 O   0  0  0  0  0  0  0  0  0  0  0  0
   -1.6540    1.7145   -3.4913 O   0  0  0  0  0  0  0  0  0  0  0  0
   -1.7747    2.6654   -3.4697 H   0  0  0  0  0  0  0  0  0  0  0  0
   -0.4860    1.3537    0.7622 C   0  0  0  0  0  0  0  0  0  0  0  0
   -1.3956    2.0096    0.2582 O   0  0  0  0  0  0  0  0  0  0  0  0
    0.3741    1.8728    1.6466 N   0  0  0  0  0  0  0  0  0  0  0  0
    1.0814    1.2667    2.0345 H   0  0  0  0  0  0  0  0  0  0  0  0
    0.3380    3.2610    2.1024 C   0  0  0  0  0  0  0  0  0  0  0  0
   -0.6389    3.4820    2.5363 H   0  0  0  0  0  0  0  0  0  0  0  0
    1.1108    3.4337    2.8528 H   0  0  0  0  0  0  0  0  0  0  0  0
    0.5009    3.9312    1.2562 H   0  0  0  0  0  0  0  0  0  0  0  0
  5  6  2  0  0  0  0
  5  7  1  0  0  0  0
  2  3  1  0  0  0  0
  2  4  1  0  0  0  0
  2  5  1  0  0  0  0
  1  2  1  0  0  0  0
 21 22  2  0  0  0  0
 21 23  1  0  0  0  0
 19 20  1  0  0  0  0
 17 18  2  0  0  0  0
 17 19  1  0  0  0  0
 14 15  1  0  0  0  0
 14 16  1  0  0  0  0
 14 17  1  0  0  0  0
 11 12  1  0  0  0  0
 11 13  1  0  0  0  0
 11 14  1  0  0  0  0
  9 10  1  0  0  0  0
  9 11  1  0  0  0  0
  9 21  1  0  0  0  0
  7  8  1  0  0  0  0
  7  9  1  0  0  0  0
 25 26  1  0  0  0  0
 25 27  1  0  0  0  0
 25 28  1  0  0  0  0
 23 24  1  0  0  0  0
 23 25  1  0  0  0  0
M  END
$$$$
default_name
  -OEChem-02102213163D

 28 27  0     1  0  0  0  0  0999 V2000
   -3.2133   -3.5565    1.2809 H   0  0  0  0  0  0  0  0  0  0  0  0
   -3.1873   -2.5755    0.8089 C   0  0  0  0  0  0  0  0  0  0  0  0
   -3.8793   -1.9065    1.3169 H   0  0  0  0  0  0  0  0  0  0  0  0
   -3.4623   -2.6685   -0.2401 H   0  0  0  0  0  0  0  0  0  0  0  0
   -1.7863   -2.0195    0.9119 C   0  0  0  0  0  0  0  0  0  0  0  0
   -0.9073   -2.6615    1.4699 O   0  0  0  0  0  0  0  0  0  0  0  0
   -1.5803   -0.8195    0.3749 N   0  0  0  0  0  0  0  0  0  0  0  0
   -2.3603   -0.3345   -0.0451 H   0  0  0  0  0  0  0  0  0  0  0  0
   -0.2933   -0.1205    0.3719 C   0  0  1  0  0  0  0  0  0  0  0  0
    0.3577   -0.5843    1.1143 H   0  0  0  0  0  0  0  0  0  0  0  0
    0.3613   -0.2794   -1.0156 C   0  0  0  0  0  0  0  0  0  0  0  0
    1.1799    0.4386   -1.0885 H   0  0  0  0  0  0  0  0  0  0  0  0
    0.7811   -1.2826   -1.1026 H   0  0  0  0  0  0  0  0  0  0  0  0
   -0.6050   -0.0504   -2.1907 C   0  0  0  0  0  0  0  0  0  0  0  0
   -0.3035   -0.6590   -3.0433 H   0  0  0  0  0  0  0  0  0  0  0  0
   -1.6116   -0.3357   -1.8871 H   0  0  0  0  0  0  0  0  0  0  0  0
   -0.6398    1.4084   -2.6347 C   0  0  0  0  0  0  0  0  0  0  0  0
   -0.0822    2.3292   -2.0593 O   0  0  0  0  0  0  0  0  0  0  0  0
   -1.3604    1.6600   -3.7433 O   0  0  0  0  0  0  0  0  0  0  0  0
   -1.2926    2.6069   -3.8775 H   0  0  0  0  0  0  0  0  0  0  0  0
   -0.4860    1.3537    0.7622 C   0  0  0  0  0  0  0  0  0  0  0  0
   -1.3956    2.0096    0.2582 O   0  0  0  0  0  0  0  0  0  0  0  0
    0.3741    1.8728    1.6466 N   0  0  0  0  0  0  0  0  0  0  0  0
    1.0814    1.2667    2.0345 H   0  0  0  0  0  0  0  0  0  0  0  0
    0.3380    3.2610    2.1024 C   0  0  0  0  0  0  0  0  0  0  0  0
   -0.6389    3.4820    2.5363 H   0  0  0  0  0  0  0  0  0  0  0  0
    1.1108    3.4337    2.8528 H   0  0  0  0  0  0  0  0  0  0  0  0
    0.5009    3.9312    1.2562 H   0  0  0  0  0  0  0  0  0  0  0  0
  5  6  2  0  0  0  0
  5  7  1  0  0  0  0
  2  3  1  0  0  0  0
  2  4  1  0  0  0  0
  2  5  1  0  0  0  0
  1  2  1  0  0  0  0
 21 22  2  0  0  0  0
 21 23  1  0  0  0  0
 19 20  1  0  0  0  0
 17 18  2  0  0  0  0
 17 19  1  0  0  0  0
 14 15  1  0  0  0  0
 14 16  1  0  0  0  0
 14 17  1  0  0  0  0
 11 12  1  0  0  0  0
 11 13  1  0  0  0  0
 11 14  1  0  0  0  0
  9 10  1  0  0  0  0
  9 11  1  0  0  0  0
  9 21  1  0  0  0  0
  7  8  1  0  0  0  0
  7  9  1  0  0  0  0
 25 26  1  0  0  0  0
 25 27  1  0  0  0  0
 25 28  1  0  0  0  0
 23 24  1  0  0  0  0
 23 25  1  0  0  0  0
M  END
$$$$
default_name
  -OEChem-02102213163D

 28 27  0     1  0  0  0  0  0999 V2000
   -3.2133   -3.5565    1.2809 H   0  0  0  0  0  0  0  0  0  0  0  0
   -3.1873   -2.5755    0.8089 C   0  0  0  0  0  0  0  0  0  0  0  0
   -3.8793   -1.9065    1.3169 H   0  0  0  0  0  0  0  0  0  0  0  0
   -3.4623   -2.6685   -0.2401 H   0  0  0  0  0  0  0  0  0  0  0  0
   -1.7863   -2.0195    0.9119 C   0  0  0  0  0  0  0  0  0  0  0  0
   -0.9073   -2.6615    1.4699 O   0  0  0  0  0  0  0  0  0  0  0  0
   -1.5803   -0.8195    0.3749 N   0  0  0  0  0  0  0  0  0  0  0  0
   -2.3603   -0.3345   -0.0451 H   0  0  0  0  0  0  0  0  0  0  0  0
   -0.2933   -0.1205    0.3719 C   0  0  1  0  0  0  0  0  0  0  0  0
    0.3577   -0.5843    1.1143 H   0  0  0  0  0  0  0  0  0  0  0  0
    0.3613   -0.2794   -1.0156 C   0  0  0  0  0  0  0  0  0  0  0  0
    1.1799    0.4386   -1.0885 H   0  0  0  0  0  0  0  0  0  0  0  0
    0.7811   -1.2826   -1.1026 H   0  0  0  0  0  0  0  0  0  0  0  0
   -0.6050   -0.0504   -2.1907 C   0  0  0  0  0  0  0  0  0  0  0  0
   -0.4749   -0.8346   -2.9366 H   0  0  0  0  0  0  0  0  0  0  0  0
   -1.6296   -0.0758   -1.8216 H   0  0  0  0  0  0  0  0  0  0  0  0
   -0.3797    1.2964   -2.8704 C   0  0  0  0  0  0  0  0  0  0  0  0
    0.3771    2.1657   -2.4688 O   0  0  0  0  0  0  0  0  0  0  0  0
   -1.0974    1.5084   -3.9892 O   0  0  0  0  0  0  0  0  0  0  0  0
   -0.8541    2.3888   -4.2806 H   0  0  0  0  0  0  0  0  0  0  0  0
   -0.4860    1.3537    0.7622 C   0  0  0  0  0  0  0  0  0  0  0  0
   -1.3956    2.0096    0.2582 O   0  0  0  0  0  0  0  0  0  0  0  0
    0.3741    1.8728    1.6466 N   0  0  0  0  0  0  0  0  0  0  0  0
    1.0814    1.2667    2.0345 H   0  0  0  0  0  0  0  0  0  0  0  0
    0.3380    3.2610    2.1024 C   0  0  0  0  0  0  0  0  0  0  0  0
   -0.6389    3.4820    2.5363 H   0  0  0  0  0  0  0  0  0  0  0  0
    1.1108    3.4337    2.8528 H   0  0  0  0  0  0  0  0  0  0  0  0
    0.5009    3.9312    1.2562 H   0  0  0  0  0  0  0  0  0  0  0  0
  5  6  2  0  0  0  0
  5  7  1  0  0  0  0
  2  3  1  0  0  0  0
  2  4  1  0  0  0  0
  2  5  1  0  0  0  0
  1  2  1  0  0  0  0
 21 22  2  0  0  0  0
 21 23  1  0  0  0  0
 19 20  1  0  0  0  0
 17 18  2  0  0  0  0
 17 19  1  0  0  0  0
 14 15  1  0  0  0  0
 14 16  1  0  0  0  0
 14 17  1  0  0  0  0
 11 12  1  0  0  0  0
 11 13  1  0  0  0  0
 11 14  1  0  0  0  0
  9 10  1  0  0  0  0
  9 11  1  0  0  0  0
  9 21  1  0  0  0  0
  7  8  1  0  0  0  0
  7  9  1  0  0  0  0
 25 26  1  0  0  0  0
 25 27  1  0  0  0  0
 25 28  1  0  0  0  0
 23 24  1  0  0  0  0
 23 25  1  0  0  0  0
M  END
$$$$
default_name
  -OEChem-02102213163D

 28 27  0     1  0  0  0  0  0999 V2000
   -3.2133   -3.5565    1.2809 H   0  0  0  0  0  0  0  0  0  0  0  0
   -3.1873   -2.5755    0.8089 C   0  0  0  0  0  0  0  0  0  0  0  0
   -3.8793   -1.9065    1.3169 H   0  0  0  0  0  0  0  0  0  0  0  0
   -3.4623   -2.6685   -0.2401 H   0  0  0  0  0  0  0  0  0  0  0  0
   -1.7863   -2.0195    0.9119 C   0  0  0  0  0  0  0  0  0  0  0  0
   -0.9073   -2.6615    1.4699 O   0  0  0  0  0  0  0  0  0  0  0  0
   -1.5803   -0.8195    0.3749 N   0  0  0  0  0  0  0  0  0  0  0  0
   -2.3603   -0.3345   -0.0451 H   0  0  0  0  0  0  0  0  0  0  0  0
   -0.2933   -0.1205    0.3719 C   0  0  1  0  0  0  0  0  0  0  0  0
    0.3577   -0.5843    1.1143 H   0  0  0  0  0  0  0  0  0  0  0  0
    0.3613   -0.2794   -1.0156 C   0  0  0  0  0  0  0  0  0  0  0  0
    1.1799    0.4386   -1.0885 H   0  0  0  0  0  0  0  0  0  0  0  0
    0.7811   -1.2826   -1.1026 H   0  0  0  0  0  0  0  0  0  0  0  0
   -0.6050   -0.0504   -2.1907 C   0  0  0  0  0  0  0  0  0  0  0  0
   -0.6710   -0.9529   -2.7983 H   0  0  0  0  0  0  0  0  0  0  0  0
   -1.5932    0.1894   -1.7999 H   0  0  0  0  0  0  0  0  0  0  0  0
   -0.1598    1.0984   -3.0899 C   0  0  0  0  0  0  0  0  0  0  0  0
    0.7726    1.8505   -2.8554 O   0  0  0  0  0  0  0  0  0  0  0  0
   -0.8827    1.2700   -4.2121 O   0  0  0  0  0  0  0  0  0  0  0  0
   -0.4892    2.0260   -4.6513 H   0  0  0  0  0  0  0  0  0  0  0  0
   -0.4860    1.3537    0.7622 C   0  0  0  0  0  0  0  0  0  0  0  0
   -1.3956    2.0096    0.2582 O   0  0  0  0  0  0  0  0  0  0  0  0
    0.3741    1.8728    1.6466 N   0  0  0  0  0  0  0  0  0  0  0  0
    1.0814    1.2667    2.0345 H   0  0  0  0  0  0  0  0  0  0  0  0
    0.3380    3.2610    2.1024 C   0  0  0  0  0  0  0  0  0  0  0  0
   -0.6389    3.4820    2.5363 H   0  0  0  0  0  0  0  0  0  0  0  0
    1.1108    3.4337    2.8528 H   0  0  0  0  0  0  0  0  0  0  0  0
    0.5009    3.9312    1.2562 H   0  0  0  0  0  0  0  0  0  0  0  0
  5  6  2  0  0  0  0
  5  7  1  0  0  0  0
  2  3  1  0  0  0  0
  2  4  1  0  0  0  0
  2  5  1  0  0  0  0
  1  2  1  0  0  0  0
 21 22  2  0  0  0  0
 21 23  1  0  0  0  0
 19 20  1  0  0  0  0
 17 18  2  0  0  0  0
 17 19  1  0  0  0  0
 14 15  1  0  0  0  0
 14 16  1  0  0  0  0
 14 17  1  0  0  0  0
 11 12  1  0  0  0  0
 11 13  1  0  0  0  0
 11 14  1  0  0  0  0
  9 10  1  0  0  0  0
  9 11  1  0  0  0  0
  9 21  1  0  0  0  0
  7  8  1  0  0  0  0
  7  9  1  0  0  0  0
 25 26  1  0  0  0  0
 25 27  1  0  0  0  0
 25 28  1  0  0  0  0
 23 24  1  0  0  0  0
 23 25  1  0  0  0  0
M  END
$$$$
default_name
  -OEChem-02102213163D

 28 27  0     1  0  0  0  0  0999 V2000
   -3.2133   -3.5565    1.2809 H   0  0  0  0  0  0  0  0  0  0  0  0
   -3.1873   -2.5755    0.8089 C   0  0  0  0  0  0  0  0  0  0  0  0
   -3.8793   -1.9065    1.3169 H   0  0  0  0  0  0  0  0  0  0  0  0
   -3.4623   -2.6685   -0.2401 H   0  0  0  0  0  0  0  0  0  0  0  0
   -1.7863   -2.0195    0.9119 C   0  0  0  0  0  0  0  0  0  0  0  0
   -0.9073   -2.6615    1.4699 O   0  0  0  0  0  0  0  0  0  0  0  0
   -1.5803   -0.8195    0.3749 N   0  0  0  0  0  0  0  0  0  0  0  0
   -2.3603   -0.3345   -0.0451 H   0  0  0  0  0  0  0  0  0  0  0  0
   -0.2933   -0.1205    0.3719 C   0  0  1  0  0  0  0  0  0  0  0  0
    0.3577   -0.5843    1.1143 H   0  0  0  0  0  0  0  0  0  0  0  0
    0.3613   -0.2794   -1.0156 C   0  0  0  0  0  0  0  0  0  0  0  0
    1.1799    0.4386   -1.0885 H   0  0  0  0  0  0  0  0  0  0  0  0
    0.7811   -1.2826   -1.1026 H   0  0  0  0  0  0  0  0  0  0  0  0
   -0.6050   -0.0504   -2.1907 C   0  0  0  0  0  0  0  0  0  0  0  0
   -0.8786   -1.0060   -2.6380 H   0  0  0  0  0  0  0  0  0  0  0  0
   -1.5047    0.4419   -1.8234 H   0  0  0  0  0  0  0  0  0  0  0  0
    0.0052    0.8280   -3.2782 C   0  0  0  0  0  0  0  0  0  0  0  0
    1.0774    1.4049   -3.1929 O   0  0  0  0  0  0  0  0  0  0  0  0
   -0.7311    0.9610   -4.3970 O   0  0  0  0  0  0  0  0  0  0  0  0
   -0.2228    1.5431   -4.9645 H   0  0  0  0  0  0  0  0  0  0  0  0
   -0.4860    1.3537    0.7622 C   0  0  0  0  0  0  0  0  0  0  0  0
   -1.3956    2.0096    0.2582 O   0  0  0  0  0  0  0  0  0  0  0  0
    0.3741    1.8728    1.6466 N   0  0  0  0  0  0  0  0  0  0  0  0
    1.0814    1.2667    2.0345 H   0  0  0  0  0  0  0  0  0  0  0  0
    0.3380    3.2610    2.1024 C   0  0  0  0  0  0  0  0  0  0  0  0
   -0.6389    3.4820    2.5363 H   0  0  0  0  0  0  0  0  0  0  0  0
    1.1108    3.4337    2.8528 H   0  0  0  0  0  0  0  0  0  0  0  0
    0.5009    3.9312    1.2562 H   0  0  0  0  0  0  0  0  0  0  0  0
  5  6  2  0  0  0  0
  5  7  1  0  0  0  0
  2  3  1  0  0  0  0
  2  4  1  0  0  0  0
  2  5  1  0  0  0  0
  1  2  1  0  0  0  0
 21 22  2  0  0  0  0
 21 23  1  0  0  0  0
 19 20  1  0  0  0  0
 17 18  2  0  0  0  0
 17 19  1  0  0  0  0
 14 15  1  0  0  0  0
 14 16  1  0  0  0  0
 14 17  1  0  0  0  0
 11 12  1  0  0  0  0
 11 13  1  0  0  0  0
 11 14  1  0  0  0  0
  9 10  1  0  0  0  0
  9 11  1  0  0  0  0
  9 21  1  0  0  0  0
  7  8  1  0  0  0  0
  7  9  1  0  0  0  0
 25 26  1  0  0  0  0
 25 27  1  0  0  0  0
 25 28  1  0  0  0  0
 23 24  1  0  0  0  0
 23 25  1  0  0  0  0
M  END
$$$$
default_name
  -OEChem-02102213163D

 28 27  0     1  0  0  0  0  0999 V2000
   -3.2133   -3.5565    1.2809 H   0  0  0  0  0  0  0  0  0  0  0  0
   -3.1873   -2.5755    0.8089 C   0  0  0  0  0  0  0  0  0  0  0  0
   -3.8793   -1.9065    1.3169 H   0  0  0  0  0  0  0  0  0  0  0  0
   -3.4623   -2.6685   -0.2401 H   0  0  0  0  0  0  0  0  0  0  0  0
   -1.7863   -2.0195    0.9119 C   0  0  0  0  0  0  0  0  0  0  0  0
   -0.9073   -2.6615    1.4699 O   0  0  0  0  0  0  0  0  0  0  0  0
   -1.5803   -0.8195    0.3749 N   0  0  0  0  0  0  0  0  0  0  0  0
   -2.3603   -0.3345   -0.0451 H   0  0  0  0  0  0  0  0  0  0  0  0
   -0.2933   -0.1205    0.3719 C   0  0  1  0  0  0  0  0  0  0  0  0
    0.3577   -0.5843    1.1143 H   0  0  0  0  0  0  0  0  0  0  0  0
    0.3613   -0.2794   -1.0156 C   0  0  0  0  0  0  0  0  0  0  0  0
    1.1799    0.4386   -1.0885 H   0  0  0  0  0  0  0  0  0  0  0  0
    0.7811   -1.2826   -1.1026 H   0  0  0  0  0  0  0  0  0  0  0  0
   -0.6050   -0.0504   -2.1907 C   0  0  0  0  0  0  0  0  0  0  0  0
   -1.0833   -0.9902   -2.4666 H   0  0  0  0  0  0  0  0  0  0  0  0
   -1.3702    0.6645   -1.8906 H   0  0  0  0  0  0  0  0  0  0  0  0
    0.1037    0.5036   -3.4224 C   0  0  0  0  0  0  0  0  0  0  0  0
    1.2707    0.8595   -3.4582 O   0  0  0  0  0  0  0  0  0  0  0  0
   -0.6529    0.6025   -4.5312 O   0  0  0  0  0  0  0  0  0  0  0  0
   -0.0730    0.9731   -5.1988 H   0  0  0  0  0  0  0  0  0  0  0  0
   -0.4860    1.3537    0.7622 C   0  0  0  0  0  0  0  0  0  0  0  0
   -1.3956    2.0096    0.2582 O   0  0  0  0  0  0  0  0  0  0  0  0
    0.3741    1.8728    1.6466 N   0  0  0  0  0  0  0  0  0  0  0  0
    1.0814    1.2667    2.0345 H   0  0  0  0  0  0  0  0  0  0  0  0
    0.3380    3.2610    2.1024 C   0  0  0  0  0  0  0  0  0  0  0  0
   -0.6389    3.4820    2.5363 H   0  0  0  0  0  0  0  0  0  0  0  0
    1.1108    3.4337    2.8528 H   0  0  0  0  0  0  0  0  0  0  0  0
    0.5009    3.9312    1.2562 H   0  0  0  0  0  0  0  0  0  0  0  0
  5  6  2  0  0  0  0
  5  7  1  0  0  0  0
  2  3  1  0  0  0  0
  2  4  1  0  0  0  0
  2  5  1  0  0  0  0
  1  2  1  0  0  0  0
 21 22  2  0  0  0  0
 21 23  1  0  0  0  0
 19 20  1  0  0  0  0
 17 18  2  0  0  0  0
 17 19  1  0  0  0  0
 14 15  1  0  0  0  0
 14 16  1  0  0  0  0
 14 17  1  0  0  0  0
 11 12  1  0  0  0  0
 11 13  1  0  0  0  0
 11 14  1  0  0  0  0
  9 10  1  0  0  0  0
  9 11  1  0  0  0  0
  9 21  1  0  0  0  0
  7  8  1  0  0  0  0
  7  9  1  0  0  0  0
 25 26  1  0  0  0  0
 25 27  1  0  0  0  0
 25 28  1  0  0  0  0
 23 24  1  0  0  0  0
 23 25  1  0  0  0  0
M  END
$$$$
default_name
  -OEChem-02102213163D

 28 27  0     1  0  0  0  0  0999 V2000
   -3.2133   -3.5565    1.2809 H   0  0  0  0  0  0  0  0  0  0  0  0
   -3.1873   -2.5755    0.8089 C   0  0  0  0  0  0  0  0  0  0  0  0
   -3.8793   -1.9065    1.3169 H   0  0  0  0  0  0  0  0  0  0  0  0
   -3.4623   -2.6685   -0.2401 H   0  0  0  0  0  0  0  0  0  0  0  0
   -1.7863   -2.0195    0.9119 C   0  0  0  0  0  0  0  0  0  0  0  0
   -0.9073   -2.6615    1.4699 O   0  0  0  0  0  0  0  0  0  0  0  0
   -1.5803   -0.8195    0.3749 N   0  0  0  0  0  0  0  0  0  0  0  0
   -2.3603   -0.3345   -0.0451 H   0  0  0  0  0  0  0  0  0  0  0  0
   -0.2933   -0.1205    0.3719 C   0  0  1  0  0  0  0  0  0  0  0  0
    0.3577   -0.5843    1.1143 H   0  0  0  0  0  0  0  0  0  0  0  0
    0.3613   -0.2794   -1.0156 C   0  0  0  0  0  0  0  0  0  0  0  0
    1.1799    0.4386   -1.0885 H   0  0  0  0  0  0  0  0  0  0  0  0
    0.7811   -1.2826   -1.1026 H   0  0  0  0  0  0  0  0  0  0  0  0
   -0.6050   -0.0504   -2.1907 C   0  0  0  0  0  0  0  0  0  0  0  0
   -1.2714   -0.9066   -2.2956 H   0  0  0  0  0  0  0  0  0  0  0  0
   -1.1989    0.8420   -1.9969 H   0  0  0  0  0  0  0  0  0  0  0  0
    0.1293    0.1473   -3.5129 C   0  0  0  0  0  0  0  0  0  0  0  0
    1.3394    0.2512   -3.6332 O   0  0  0  0  0  0  0  0  0  0  0  0
   -0.6533    0.2190   -4.6056 O   0  0  0  0  0  0  0  0  0  0  0  0
   -0.0500    0.3548   -5.3383 H   0  0  0  0  0  0  0  0  0  0  0  0
   -0.4860    1.3537    0.7622 C   0  0  0  0  0  0  0  0  0  0  0  0
   -1.3956    2.0096    0.2582 O   0  0  0  0  0  0  0  0  0  0  0  0
    0.3741    1.8728    1.6466 N   0  0  0  0  0  0  0  0  0  0  0  0
    1.0814    1.2667    2.0345 H   0  0  0  0  0  0  0  0  0  0  0  0
    0.3380    3.2610    2.1024 C   0  0  0  0  0  0  0  0  0  0  0  0
   -0.6389    3.4820    2.5363 H   0  0  0  0  0  0  0  0  0  0  0  0
    1.1108    3.4337    2.8528 H   0  0  0  0  0  0  0  0  0  0  0  0
    0.5009    3.9312    1.2562 H   0  0  0  0  0  0  0  0  0  0  0  0
  5  6  2  0  0  0  0
  5  7  1  0  0  0  0
  2  3  1  0  0  0  0
  2  4  1  0  0  0  0
  2  5  1  0  0  0  0
  1  2  1  0  0  0  0
 21 22  2  0  0  0  0
 21 23  1  0  0  0  0
 19 20  1  0  0  0  0
 17 18  2  0  0  0  0
 17 19  1  0  0  0  0
 14 15  1  0  0  0  0
 14 16  1  0  0  0  0
 14 17  1  0  0  0  0
 11 12  1  0  0  0  0
 11 13  1  0  0  0  0
 11 14  1  0  0  0  0
  9 10  1  0  0  0  0
  9 11  1  0  0  0  0
  9 21  1  0  0  0  0
  7  8  1  0  0  0  0
  7  9  1  0  0  0  0
 25 26  1  0  0  0  0
 25 27  1  0  0  0  0
 25 28  1  0  0  0  0
 23 24  1  0  0  0  0
 23 25  1  0  0  0  0
M  END
$$$$
default_name
  -OEChem-02102213163D

 28 27  0     1  0  0  0  0  0999 V2000
   -3.2133   -3.5565    1.2809 H   0  0  0  0  0  0  0  0  0  0  0  0
   -3.1873   -2.5755    0.8089 C   0  0  0  0  0  0  0  0  0  0  0  0
   -3.8793   -1.9065    1.3169 H   0  0  0  0  0  0  0  0  0  0  0  0
   -3.4623   -2.6685   -0.2401 H   0  0  0  0  0  0  0  0  0  0  0  0
   -1.7863   -2.0195    0.9119 C   0  0  0  0  0  0  0  0  0  0  0  0
   -0.9073   -2.6615    1.4699 O   0  0  0  0  0  0  0  0  0  0  0  0
   -1.5803   -0.8195    0.3749 N   0  0  0  0  0  0  0  0  0  0  0  0
   -2.3603   -0.3345   -0.0451 H   0  0  0  0  0  0  0  0  0  0  0  0
   -0.2933   -0.1205    0.3719 C   0  0  1  0  0  0  0  0  0  0  0  0
    0.3577   -0.5843    1.1143 H   0  0  0  0  0  0  0  0  0  0  0  0
    0.3613   -0.2794   -1.0156 C   0  0  0  0  0  0  0  0  0  0  0  0
    1.3261    0.2304   -0.9957 H   0  0  0  0  0  0  0  0  0  0  0  0
    0.5408   -1.3379   -1.2097 H   0  0  0  0  0  0  0  0  0  0  0  0
   -0.4784    0.2937   -2.1703 C   0  0  0  0  0  0  0  0  0  0  0  0
   -1.4468   -0.2053   -2.2085 H   0  0  0  0  0  0  0  0  0  0  0  0
   -0.6326    1.3595   -2.0060 H   0  0  0  0  0  0  0  0  0  0  0  0
    0.2027    0.1169   -3.5236 C   0  0  0  0  0  0  0  0  0  0  0  0
    1.3371   -0.3029   -3.6872 O   0  0  0  0  0  0  0  0  0  0  0  0
   -0.5322    0.4729   -4.5935 O   0  0  0  0  0  0  0  0  0  0  0  0
    0.0343    0.3159   -5.3510 H   0  0  0  0  0  0  0  0  0  0  0  0
   -0.4860    1.3537    0.7622 C   0  0  0  0  0  0  0  0  0  0  0  0
   -1.3956    2.0096    0.2582 O   0  0  0  0  0  0  0  0  0  0  0  0
    0.3741    1.8728    1.6466 N   0  0  0  0  0  0  0  0  0  0  0  0
    1.0814    1.2667    2.0345 H   0  0  0  0  0  0  0  0  0  0  0  0
    0.3380    3.2610    2.1024 C   0  0  0  0  0  0  0  0  0  0  0  0
   -0.6389    3.4820    2.5363 H   0  0  0  0  0  0  0  0  0  0  0  0
    1.1108    3.4337    2.8528 H   0  0  0  0  0  0  0  0  0  0  0  0
    0.5009    3.9312    1.2562 H   0  0  0  0  0  0  0  0  0  0  0  0
  5  6  2  0  0  0  0
  5  7  1  0  0  0  0
  2  3  1  0  0  0  0
  2  4  1  0  0  0  0
  2  5  1  0  0  0  0
  1  2  1  0  0  0  0
 21 22  2  0  0  0  0
 21 23  1  0  0  0  0
 19 20  1  0  0  0  0
 17 18  2  0  0  0  0
 17 19  1  0  0  0  0
 14 15  1  0  0  0  0
 14 16  1  0  0  0  0
 14 17  1  0  0  0  0
 11 12  1  0  0  0  0
 11 13  1  0  0  0  0
 11 14  1  0  0  0  0
  9 10  1  0  0  0  0
  9 11  1  0  0  0  0
  9 21  1  0  0  0  0
  7  8  1  0  0  0  0
  7  9  1  0  0  0  0
 25 26  1  0  0  0  0
 25 27  1  0  0  0  0
 25 28  1  0  0  0  0
 23 24  1  0  0  0  0
 23 25  1  0  0  0  0
M  END
$$$$
default_name
  -OEChem-02102213163D

 28 27  0     1  0  0  0  0  0999 V2000
   -3.2133   -3.5565    1.2809 H   0  0  0  0  0  0  0  0  0  0  0  0
   -3.1873   -2.5755    0.8089 C   0  0  0  0  0  0  0  0  0  0  0  0
   -3.8793   -1.9065    1.3169 H   0  0  0  0  0  0  0  0  0  0  0  0
   -3.4623   -2.6685   -0.2401 H   0  0  0  0  0  0  0  0  0  0  0  0
   -1.7863   -2.0195    0.9119 C   0  0  0  0  0  0  0  0  0  0  0  0
   -0.9073   -2.6615    1.4699 O   0  0  0  0  0  0  0  0  0  0  0  0
   -1.5803   -0.8195    0.3749 N   0  0  0  0  0  0  0  0  0  0  0  0
   -2.3603   -0.3345   -0.0451 H   0  0  0  0  0  0  0  0  0  0  0  0
   -0.2933   -0.1205    0.3719 C   0  0  1  0  0  0  0  0  0  0  0  0
    0.3577   -0.5843    1.1143 H   0  0  0  0  0  0  0  0  0  0  0  0
    0.3613   -0.2794   -1.0156 C   0  0  0  0  0  0  0  0  0  0  0  0
    1.3261    0.2304   -0.9957 H   0  0  0  0  0  0  0  0  0  0  0  0
    0.5408   -1.3379   -1.2097 H   0  0  0  0  0  0  0  0  0  0  0  0
   -0.4784    0.2937   -2.1703 C   0  0  0  0  0  0  0  0  0  0  0  0
   -1.5213   -0.0008   -2.0528 H   0  0  0  0  0  0  0  0  0  0  0  0
   -0.4111    1.3809   -2.1564 H   0  0  0  0  0  0  0  0  0  0  0  0
    0.0039   -0.1932   -3.5330 C   0  0  0  0  0  0  0  0  0  0  0  0
    1.0145   -0.8505   -3.7244 O   0  0  0  0  0  0  0  0  0  0  0  0
   -0.7648    0.1593   -4.5801 O   0  0  0  0  0  0  0  0  0  0  0  0
   -0.3249   -0.2068   -5.3493 H   0  0  0  0  0  0  0  0  0  0  0  0
   -0.4860    1.3537    0.7622 C   0  0  0  0  0  0  0  0  0  0  0  0
   -1.3956    2.0096    0.2582 O   0  0  0  0  0  0  0  0  0  0  0  0
    0.3741    1.8728    1.6466 N   0  0  0  0  0  0  0  0  0  0  0  0
    1.0814    1.2667    2.0345 H   0  0  0  0  0  0  0  0  0  0  0  0
    0.3380    3.2610    2.1024 C   0  0  0  0  0  0  0  0  0  0  0  0
   -0.6389    3.4820    2.5363 H   0  0  0  0  0  0  0  0  0  0  0  0
    1.1108    3.4337    2.8528 H   0  0  0  0  0  0  0  0  0  0  0  0
    0.5009    3.9312    1.2562 H   0  0  0  0  0  0  0  0  0  0  0  0
  5  6  2  0  0  0  0
  5  7  1  0  0  0  0
  2  3  1  0  0  0  0
  2  4  1  0  0  0  0
  2  5  1  0  0  0  0
  1  2  1  0  0  0  0
 21 22  2  0  0  0  0
 21 23  1  0  0  0  0
 19 20  1  0  0  0  0
 17 18  2  0  0  0  0
 17 19  1  0  0  0  0
 14 15  1  0  0  0  0
 14 16  1  0  0  0  0
 14 17  1  0  0  0  0
 11 12  1  0  0  0  0
 11 13  1  0  0  0  0
 11 14  1  0  0  0  0
  9 10  1  0  0  0  0
  9 11  1  0  0  0  0
  9 21  1  0  0  0  0
  7  8  1  0  0  0  0
  7  9  1  0  0  0  0
 25 26  1  0  0  0  0
 25 27  1  0  0  0  0
 25 28  1  0  0  0  0
 23 24  1  0  0  0  0
 23 25  1  0  0  0  0
M  END
$$$$
default_name
  -OEChem-02102213163D

 28 27  0     1  0  0  0  0  0999 V2000
   -3.2133   -3.5565    1.2809 H   0  0  0  0  0  0  0  0  0  0  0  0
   -3.1873   -2.5755    0.8089 C   0  0  0  0  0  0  0  0  0  0  0  0
   -3.8793   -1.9065    1.3169 H   0  0  0  0  0  0  0  0  0  0  0  0
   -3.4623   -2.6685   -0.2401 H   0  0  0  0  0  0  0  0  0  0  0  0
   -1.7863   -2.0195    0.9119 C   0  0  0  0  0  0  0  0  0  0  0  0
   -0.9073   -2.6615    1.4699 O   0  0  0  0  0  0  0  0  0  0  0  0
   -1.5803   -0.8195    0.3749 N   0  0  0  0  0  0  0  0  0  0  0  0
   -2.3603   -0.3345   -0.0451 H   0  0  0  0  0  0  0  0  0  0  0  0
   -0.2933   -0.1205    0.3719 C   0  0  1  0  0  0  0  0  0  0  0  0
    0.3577   -0.5843    1.1143 H   0  0  0  0  0  0  0  0  0  0  0  0
    0.3613   -0.2794   -1.0156 C   0  0  0  0  0  0  0  0  0  0  0  0
    1.3261    0.2304   -0.9957 H   0  0  0  0  0  0  0  0  0  0  0  0
    0.5408   -1.3379   -1.2097 H   0  0  0  0  0  0  0  0  0  0  0  0
   -0.4784    0.2937   -2.1703 C   0  0  0  0  0  0  0  0  0  0  0  0
   -1.5386    0.2331   -1.9242 H   0  0  0  0  0  0  0  0  0  0  0  0
   -0.2075    1.3373   -2.3261 H   0  0  0  0  0  0  0  0  0  0  0  0
   -0.2492   -0.4555   -3.4791 C   0  0  0  0  0  0  0  0  0  0  0  0
    0.5929   -1.3220   -3.6519 O   0  0  0  0  0  0  0  0  0  0  0  0
   -1.0491   -0.0965   -4.5003 O   0  0  0  0  0  0  0  0  0  0  0  0
   -0.7731   -0.6418   -5.2392 H   0  0  0  0  0  0  0  0  0  0  0  0
   -0.4860    1.3537    0.7622 C   0  0  0  0  0  0  0  0  0  0  0  0
   -1.3956    2.0096    0.2582 O   0  0  0  0  0  0  0  0  0  0  0  0
    0.3741    1.8728    1.6466 N   0  0  0  0  0  0  0  0  0  0  0  0
    1.0814    1.2667    2.0345 H   0  0  0  0  0  0  0  0  0  0  0  0
    0.3380    3.2610    2.1024 C   0  0  0  0  0  0  0  0  0  0  0  0
   -0.6389    3.4820    2.5363 H   0  0  0  0  0  0  0  0  0  0  0  0
    1.1108    3.4337    2.8528 H   0  0  0  0  0  0  0  0  0  0  0  0
    0.5009    3.9312    1.2562 H   0  0  0  0  0  0  0  0  0  0  0  0
  5  6  2  0  0  0  0
  5  7  1  0  0  0  0
  2  3  1  0  0  0  0
  2  4  1  0  0  0  0
  2  5  1  0  0  0  0
  1  2  1  0  0  0  0
 21 22  2  0  0  0  0
 21 23  1  0  0  0  0
 19 20  1  0  0  0  0
 17 18  2  0  0  0  0
 17 19  1  0  0  0  0
 14 15  1  0  0  0  0
 14 16  1  0  0  0  0
 14 17  1  0  0  0  0
 11 12  1  0  0  0  0
 11 13  1  0  0  0  0
 11 14  1  0  0  0  0
  9 10  1  0  0  0  0
  9 11  1  0  0  0  0
  9 21  1  0  0  0  0
  7  8  1  0  0  0  0
  7  9  1  0  0  0  0
 25 26  1  0  0  0  0
 25 27  1  0  0  0  0
 25 28  1  0  0  0  0
 23 24  1  0  0  0  0
 23 25  1  0  0  0  0
M  END
$$$$
default_name
  -OEChem-02102213163D

 28 27  0     1  0  0  0  0  0999 V2000
   -3.2133   -3.5565    1.2809 H   0  0  0  0  0  0  0  0  0  0  0  0
   -3.1873   -2.5755    0.8089 C   0  0  0  0  0  0  0  0  0  0  0  0
   -3.8793   -1.9065    1.3169 H   0  0  0  0  0  0  0  0  0  0  0  0
   -3.4623   -2.6685   -0.2401 H   0  0  0  0  0  0  0  0  0  0  0  0
   -1.7863   -2.0195    0.9119 C   0  0  0  0  0  0  0  0  0  0  0  0
   -0.9073   -2.6615    1.4699 O   0  0  0  0  0  0  0  0  0  0  0  0
   -1.5803   -0.8195    0.3749 N   0  0  0  0  0  0  0  0  0  0  0  0
   -2.3603   -0.3345   -0.0451 H   0  0  0  0  0  0  0  0  0  0  0  0
   -0.2933   -0.1205    0.3719 C   0  0  1  0  0  0  0  0  0  0  0  0
    0.3577   -0.5843    1.1143 H   0  0  0  0  0  0  0  0  0  0  0  0
    0.3613   -0.2794   -1.0156 C   0  0  0  0  0  0  0  0  0  0  0  0
    1.3261    0.2304   -0.9957 H   0  0  0  0  0  0  0  0  0  0  0  0
    0.5408   -1.3379   -1.2097 H   0  0  0  0  0  0  0  0  0  0  0  0
   -0.4784    0.2937   -2.1703 C   0  0  0  0  0  0  0  0  0  0  0  0
   -1.4974    0.4806   -1.8313 H   0  0  0  0  0  0  0  0  0  0  0  0
   -0.0357    1.2316   -2.5035 H   0  0  0  0  0  0  0  0  0  0  0  0
   -0.5395   -0.6520   -3.3655 C   0  0  0  0  0  0  0  0  0  0  0  0
    0.1011   -1.6853   -3.4745 O   0  0  0  0  0  0  0  0  0  0  0  0
   -1.3657   -0.2772   -4.3598 O   0  0  0  0  0  0  0  0  0  0  0  0
   -1.2800   -0.9593   -5.0282 H   0  0  0  0  0  0  0  0  0  0  0  0
   -0.4860    1.3537    0.7622 C   0  0  0  0  0  0  0  0  0  0  0  0
   -1.3956    2.0096    0.2582 O   0  0  0  0  0  0  0  0  0  0  0  0
    0.3741    1.8728    1.6466 N   0  0  0  0  0  0  0  0  0  0  0  0
    1.0814    1.2667    2.0345 H   0  0  0  0  0  0  0  0  0  0  0  0
    0.3380    3.2610    2.1024 C   0  0  0  0  0  0  0  0  0  0  0  0
   -0.6389    3.4820    2.5363 H   0  0  0  0  0  0  0  0  0  0  0  0
    1.1108    3.4337    2.8528 H   0  0  0  0  0  0  0  0  0  0  0  0
    0.5009    3.9312    1.2562 H   0  0  0  0  0  0  0  0  0  0  0  0
  5  6  2  0  0  0  0
  5  7  1  0  0  0  0
  2  3  1  0  0  0  0
  2  4  1  0  0  0  0
  2  5  1  0  0  0  0
  1  2  1  0  0  0  0
 21 22  2  0  0  0  0
 21 23  1  0  0  0  0
 19 20  1  0  0  0  0
 17 18  2  0  0  0  0
 17 19  1  0  0  0  0
 14 15  1  0  0  0  0
 14 16  1  0  0  0  0
 14 17  1  0  0  0  0
 11 12  1  0  0  0  0
 11 13  1  0  0  0  0
 11 14  1  0  0  0  0
  9 10  1  0  0  0  0
  9 11  1  0  0  0  0
  9 21  1  0  0  0  0
  7  8  1  0  0  0  0
  7  9  1  0  0  0  0
 25 26  1  0  0  0  0
 25 27  1  0  0  0  0
 25 28  1  0  0  0  0
 23 24  1  0  0  0  0
 23 25  1  0  0  0  0
M  END
$$$$
default_name
  -OEChem-02102213163D

 28 27  0     1  0  0  0  0  0999 V2000
   -3.2133   -3.5565    1.2809 H   0  0  0  0  0  0  0  0  0  0  0  0
   -3.1873   -2.5755    0.8089 C   0  0  0  0  0  0  0  0  0  0  0  0
   -3.8793   -1.9065    1.3169 H   0  0  0  0  0  0  0  0  0  0  0  0
   -3.4623   -2.6685   -0.2401 H   0  0  0  0  0  0  0  0  0  0  0  0
   -1.7863   -2.0195    0.9119 C   0  0  0  0  0  0  0  0  0  0  0  0
   -0.9073   -2.6615    1.4699 O   0  0  0  0  0  0  0  0  0  0  0  0
   -1.5803   -0.8195    0.3749 N   0  0  0  0  0  0  0  0  0  0  0  0
   -2.3603   -0.3345   -0.0451 H   0  0  0  0  0  0  0  0  0  0  0  0
   -0.2933   -0.1205    0.3719 C   0  0  1  0  0  0  0  0  0  0  0  0
    0.3577   -0.5843    1.1143 H   0  0  0  0  0  0  0  0  0  0  0  0
    0.3613   -0.2794   -1.0156 C   0  0  0  0  0  0  0  0  0  0  0  0
    1.3261    0.2304   -0.9957 H   0  0  0  0  0  0  0  0  0  0  0  0
    0.5408   -1.3379   -1.2097 H   0  0  0  0  0  0  0  0  0  0  0  0
   -0.4784    0.2937   -2.1703 C   0  0  0  0  0  0  0  0  0  0  0  0
   -1.4005    0.7248   -1.7805 H   0  0  0  0  0  0  0  0  0  0  0  0
    0.0927    1.0712   -2.6764 H   0  0  0  0  0  0  0  0  0  0  0  0
   -0.8471   -0.7694   -3.2001 C   0  0  0  0  0  0  0  0  0  0  0  0
   -0.4275   -1.9156   -3.2045 O   0  0  0  0  0  0  0  0  0  0  0  0
   -1.6930   -0.3703   -4.1680 O   0  0  0  0  0  0  0  0  0  0  0  0
   -1.8110   -1.1376   -4.7306 H   0  0  0  0  0  0  0  0  0  0  0  0
   -0.4860    1.3537    0.7622 C   0  0  0  0  0  0  0  0  0  0  0  0
   -1.3956    2.0096    0.2582 O   0  0  0  0  0  0  0  0  0  0  0  0
    0.3741    1.8728    1.6466 N   0  0  0  0  0  0  0  0  0  0  0  0
    1.0814    1.2667    2.0345 H   0  0  0  0  0  0  0  0  0  0  0  0
    0.3380    3.2610    2.1024 C   0  0  0  0  0  0  0  0  0  0  0  0
   -0.6389    3.4820    2.5363 H   0  0  0  0  0  0  0  0  0  0  0  0
    1.1108    3.4337    2.8528 H   0  0  0  0  0  0  0  0  0  0  0  0
    0.5009    3.9312    1.2562 H   0  0  0  0  0  0  0  0  0  0  0  0
  5  6  2  0  0  0  0
  5  7  1  0  0  0  0
  2  3  1  0  0  0  0
  2  4  1  0  0  0  0
  2  5  1  0  0  0  0
  1  2  1  0  0  0  0
 21 22  2  0  0  0  0
 21 23  1  0  0  0  0
 19 20  1  0  0  0  0
 17 18  2  0  0  0  0
 17 19  1  0  0  0  0
 14 15  1  0  0  0  0
 14 16  1  0  0  0  0
 14 17  1  0  0  0  0
 11 12  1  0  0  0  0
 11 13  1  0  0  0  0
 11 14  1  0  0  0  0
  9 10  1  0  0  0  0
  9 11  1  0  0  0  0
  9 21  1  0  0  0  0
  7  8  1  0  0  0  0
  7  9  1  0  0  0  0
 25 26  1  0  0  0  0
 25 27  1  0  0  0  0
 25 28  1  0  0  0  0
 23 24  1  0  0  0  0
 23 25  1  0  0  0  0
M  END
$$$$
default_name
  -OEChem-02102213163D

 28 27  0     1  0  0  0  0  0999 V2000
   -3.2133   -3.5565    1.2809 H   0  0  0  0  0  0  0  0  0  0  0  0
   -3.1873   -2.5755    0.8089 C   0  0  0  0  0  0  0  0  0  0  0  0
   -3.8793   -1.9065    1.3169 H   0  0  0  0  0  0  0  0  0  0  0  0
   -3.4623   -2.6685   -0.2401 H   0  0  0  0  0  0  0  0  0  0  0  0
   -1.7863   -2.0195    0.9119 C   0  0  0  0  0  0  0  0  0  0  0  0
   -0.9073   -2.6615    1.4699 O   0  0  0  0  0  0  0  0  0  0  0  0
   -1.5803   -0.8195    0.3749 N   0  0  0  0  0  0  0  0  0  0  0  0
   -2.3603   -0.3345   -0.0451 H   0  0  0  0  0  0  0  0  0  0  0  0
   -0.2933   -0.1205    0.3719 C   0  0  1  0  0  0  0  0  0  0  0  0
    0.3577   -0.5843    1.1143 H   0  0  0  0  0  0  0  0  0  0  0  0
    0.3613   -0.2794   -1.0156 C   0  0  0  0  0  0  0  0  0  0  0  0
    1.3261    0.2304   -0.9957 H   0  0  0  0  0  0  0  0  0  0  0  0
    0.5408   -1.3379   -1.2097 H   0  0  0  0  0  0  0  0  0  0  0  0
   -0.4784    0.2937   -2.1703 C   0  0  0  0  0  0  0  0  0  0  0  0
   -1.2547    0.9491   -1.7753 H   0  0  0  0  0  0  0  0  0  0  0  0
    0.1688    0.8668   -2.8332 H   0  0  0  0  0  0  0  0  0  0  0  0
   -1.1511   -0.7997   -2.9941 C   0  0  0  0  0  0  0  0  0  0  0  0
   -0.9567   -1.9972   -2.8602 O   0  0  0  0  0  0  0  0  0  0  0  0
   -2.0089   -0.3696   -3.9380 O   0  0  0  0  0  0  0  0  0  0  0  0
   -2.3298   -1.1648   -4.3669 H   0  0  0  0  0  0  0  0  0  0  0  0
   -0.4860    1.3537    0.7622 C   0  0  0  0  0  0  0  0  0  0  0  0
   -1.3956    2.0096    0.2582 O   0  0  0  0  0  0  0  0  0  0  0  0
    0.3741    1.8728    1.6466 N   0  0  0  0  0  0  0  0  0  0  0  0
    1.0814    1.2667    2.0345 H   0  0  0  0  0  0  0  0  0  0  0  0
    0.3380    3.2610    2.1024 C   0  0  0  0  0  0  0  0  0  0  0  0
   -0.6389    3.4820    2.5363 H   0  0  0  0  0  0  0  0  0  0  0  0
    1.1108    3.4337    2.8528 H   0  0  0  0  0  0  0  0  0  0  0  0
    0.5009    3.9312    1.2562 H   0  0  0  0  0  0  0  0  0  0  0  0
  5  6  2  0  0  0  0
  5  7  1  0  0  0  0
  2  3  1  0  0  0  0
  2  4  1  0  0  0  0
  2  5  1  0  0  0  0
  1  2  1  0  0  0  0
 21 22  2  0  0  0  0
 21 23  1  0  0  0  0
 19 20  1  0  0  0  0
 17 18  2  0  0  0  0
 17 19  1  0  0  0  0
 14 15  1  0  0  0  0
 14 16  1  0  0  0  0
 14 17  1  0  0  0  0
 11 12  1  0  0  0  0
 11 13  1  0  0  0  0
 11 14  1  0  0  0  0
  9 10  1  0  0  0  0
  9 11  1  0  0  0  0
  9 21  1  0  0  0  0
  7  8  1  0  0  0  0
  7  9  1  0  0  0  0
 25 26  1  0  0  0  0
 25 27  1  0  0  0  0
 25 28  1  0  0  0  0
 23 24  1  0  0  0  0
 23 25  1  0  0  0  0
M  END
$$$$
default_name
  -OEChem-02102213163D

 28 27  0     1  0  0  0  0  0999 V2000
   -3.2133   -3.5565    1.2809 H   0  0  0  0  0  0  0  0  0  0  0  0
   -3.1873   -2.5755    0.8089 C   0  0  0  0  0  0  0  0  0  0  0  0
   -3.8793   -1.9065    1.3169 H   0  0  0  0  0  0  0  0  0  0  0  0
   -3.4623   -2.6685   -0.2401 H   0  0  0  0  0  0  0  0  0  0  0  0
   -1.7863   -2.0195    0.9119 C   0  0  0  0  0  0  0  0  0  0  0  0
   -0.9073   -2.6615    1.4699 O   0  0  0  0  0  0  0  0  0  0  0  0
   -1.5803   -0.8195    0.3749 N   0  0  0  0  0  0  0  0  0  0  0  0
   -2.3603   -0.3345   -0.0451 H   0  0  0  0  0  0  0  0  0  0  0  0
   -0.2933   -0.1205    0.3719 C   0  0  1  0  0  0  0  0  0  0  0  0
    0.3577   -0.5843    1.1143 H   0  0  0  0  0  0  0  0  0  0  0  0
    0.3613   -0.2794   -1.0156 C   0  0  0  0  0  0  0  0  0  0  0  0
    1.3261    0.2304   -0.9957 H   0  0  0  0  0  0  0  0  0  0  0  0
    0.5408   -1.3379   -1.2097 H   0  0  0  0  0  0  0  0  0  0  0  0
   -0.4784    0.2937   -2.1703 C   0  0  0  0  0  0  0  0  0  0  0  0
   -1.0697    1.1381   -1.8160 H   0  0  0  0  0  0  0  0  0  0  0  0
    0.1875    0.6325   -2.9631 H   0  0  0  0  0  0  0  0  0  0  0  0
   -1.4307   -0.7407   -2.7616 C   0  0  0  0  0  0  0  0  0  0  0  0
   -1.4506   -1.9246   -2.4651 O   0  0  0  0  0  0  0  0  0  0  0  0
   -2.2916   -0.2750   -3.6855 O   0  0  0  0  0  0  0  0  0  0  0  0
   -2.8012   -1.0388   -3.9616 H   0  0  0  0  0  0  0  0  0  0  0  0
   -0.4860    1.3537    0.7622 C   0  0  0  0  0  0  0  0  0  0  0  0
   -1.3956    2.0096    0.2582 O   0  0  0  0  0  0  0  0  0  0  0  0
    0.3741    1.8728    1.6466 N   0  0  0  0  0  0  0  0  0  0  0  0
    1.0814    1.2667    2.0345 H   0  0  0  0  0  0  0  0  0  0  0  0
    0.3380    3.2610    2.1024 C   0  0  0  0  0  0  0  0  0  0  0  0
   -0.6389    3.4820    2.5363 H   0  0  0  0  0  0  0  0  0  0  0  0
    1.1108    3.4337    2.8528 H   0  0  0  0  0  0  0  0  0  0  0  0
    0.5009    3.9312    1.2562 H   0  0  0  0  0  0  0  0  0  0  0  0
  5  6  2  0  0  0  0
  5  7  1  0  0  0  0
  2  3  1  0  0  0  0
  2  4  1  0  0  0  0
  2  5  1  0  0  0  0
  1  2  1  0  0  0  0
 21 22  2  0  0  0  0
 21 23  1  0  0  0  0
 19 20  1  0  0  0  0
 17 18  2  0  0  0  0
 17 19  1  0  0  0  0
 14 15  1  0  0  0  0
 14 16  1  0  0  0  0
 14 17  1  0  0  0  0
 11 12  1  0  0  0  0
 11 13  1  0  0  0  0
 11 14  1  0  0  0  0
  9 10  1  0  0  0  0
  9 11  1  0  0  0  0
  9 21  1  0  0  0  0
  7  8  1  0  0  0  0
  7  9  1  0  0  0  0
 25 26  1  0  0  0  0
 25 27  1  0  0  0  0
 25 28  1  0  0  0  0
 23 24  1  0  0  0  0
 23 25  1  0  0  0  0
M  END
$$$$
default_name
  -OEChem-02102213163D

 28 27  0     1  0  0  0  0  0999 V2000
   -3.2133   -3.5565    1.2809 H   0  0  0  0  0  0  0  0  0  0  0  0
   -3.1873   -2.5755    0.8089 C   0  0  0  0  0  0  0  0  0  0  0  0
   -3.8793   -1.9065    1.3169 H   0  0  0  0  0  0  0  0  0  0  0  0
   -3.4623   -2.6685   -0.2401 H   0  0  0  0  0  0  0  0  0  0  0  0
   -1.7863   -2.0195    0.9119 C   0  0  0  0  0  0  0  0  0  0  0  0
   -0.9073   -2.6615    1.4699 O   0  0  0  0  0  0  0  0  0  0  0  0
   -1.5803   -0.8195    0.3749 N   0  0  0  0  0  0  0  0  0  0  0  0
   -2.3603   -0.3345   -0.0451 H   0  0  0  0  0  0  0  0  0  0  0  0
   -0.2933   -0.1205    0.3719 C   0  0  1  0  0  0  0  0  0  0  0  0
    0.3577   -0.5843    1.1143 H   0  0  0  0  0  0  0  0  0  0  0  0
    0.3613   -0.2794   -1.0156 C   0  0  0  0  0  0  0  0  0  0  0  0
    1.3261    0.2304   -0.9957 H   0  0  0  0  0  0  0  0  0  0  0  0
    0.5408   -1.3379   -1.2097 H   0  0  0  0  0  0  0  0  0  0  0  0
   -0.4784    0.2937   -2.1703 C   0  0  0  0  0  0  0  0  0  0  0  0
   -0.8583    1.2789   -1.8998 H   0  0  0  0  0  0  0  0  0  0  0  0
    0.1476    0.3841   -3.0573 H   0  0  0  0  0  0  0  0  0  0  0  0
   -1.6670   -0.5967   -2.5183 C   0  0  0  0  0  0  0  0  0  0  0  0
   -1.8754   -1.7027   -2.0461 O   0  0  0  0  0  0  0  0  0  0  0  0
   -2.5220   -0.0931   -3.4277 O   0  0  0  0  0  0  0  0  0  0  0  0
   -3.1929   -0.7683   -3.5425 H   0  0  0  0  0  0  0  0  0  0  0  0
   -0.4860    1.3537    0.7622 C   0  0  0  0  0  0  0  0  0  0  0  0
   -1.3956    2.0096    0.2582 O   0  0  0  0  0  0  0  0  0  0  0  0
    0.3741    1.8728    1.6466 N   0  0  0  0  0  0  0  0  0  0  0  0
    1.0814    1.2667    2.0345 H   0  0  0  0  0  0  0  0  0  0  0  0
    0.3380    3.2610    2.1024 C   0  0  0  0  0  0  0  0  0  0  0  0
   -0.6389    3.4820    2.5363 H   0  0  0  0  0  0  0  0  0  0  0  0
    1.1108    3.4337    2.8528 H   0  0  0  0  0  0  0  0  0  0  0  0
    0.5009    3.9312    1.2562 H   0  0  0  0  0  0  0  0  0  0  0  0
  5  6  2  0  0  0  0
  5  7  1  0  0  0  0
  2  3  1  0  0  0  0
  2  4  1  0  0  0  0
  2  5  1  0  0  0  0
  1  2  1  0  0  0  0
 21 22  2  0  0  0  0
 21 23  1  0  0  0  0
 19 20  1  0  0  0  0
 17 18  2  0  0  0  0
 17 19  1  0  0  0  0
 14 15  1  0  0  0  0
 14 16  1  0  0  0  0
 14 17  1  0  0  0  0
 11 12  1  0  0  0  0
 11 13  1  0  0  0  0
 11 14  1  0  0  0  0
  9 10  1  0  0  0  0
  9 11  1  0  0  0  0
  9 21  1  0  0  0  0
  7  8  1  0  0  0  0
  7  9  1  0  0  0  0
 25 26  1  0  0  0  0
 25 27  1  0  0  0  0
 25 28  1  0  0  0  0
 23 24  1  0  0  0  0
 23 25  1  0  0  0  0
M  END
$$$$
default_name
  -OEChem-02102213163D

 28 27  0     1  0  0  0  0  0999 V2000
   -3.2133   -3.5565    1.2809 H   0  0  0  0  0  0  0  0  0  0  0  0
   -3.1873   -2.5755    0.8089 C   0  0  0  0  0  0  0  0  0  0  0  0
   -3.8793   -1.9065    1.3169 H   0  0  0  0  0  0  0  0  0  0  0  0
   -3.4623   -2.6685   -0.2401 H   0  0  0  0  0  0  0  0  0  0  0  0
   -1.7863   -2.0195    0.9119 C   0  0  0  0  0  0  0  0  0  0  0  0
   -0.9073   -2.6615    1.4699 O   0  0  0  0  0  0  0  0  0  0  0  0
   -1.5803   -0.8195    0.3749 N   0  0  0  0  0  0  0  0  0  0  0  0
   -2.3603   -0.3345   -0.0451 H   0  0  0  0  0  0  0  0  0  0  0  0
   -0.2933   -0.1205    0.3719 C   0  0  1  0  0  0  0  0  0  0  0  0
    0.3577   -0.5843    1.1143 H   0  0  0  0  0  0  0  0  0  0  0  0
    0.3613   -0.2794   -1.0156 C   0  0  0  0  0  0  0  0  0  0  0  0
    1.3261    0.2304   -0.9957 H   0  0  0  0  0  0  0  0  0  0  0  0
    0.5408   -1.3379   -1.2097 H   0  0  0  0  0  0  0  0  0  0  0  0
   -0.4784    0.2937   -2.1703 C   0  0  0  0  0  0  0  0  0  0  0  0
   -0.6347    1.3621   -2.0211 H   0  0  0  0  0  0  0  0  0  0  0  0
    0.0516    0.1387   -3.1094 H   0  0  0  0  0  0  0  0  0  0  0  0
   -1.8437   -0.3772   -2.2809 C   0  0  0  0  0  0  0  0  0  0  0  0
   -2.2023   -1.3467   -1.6317 O   0  0  0  0  0  0  0  0  0  0  0  0
   -2.6843    0.1637   -3.1822 O   0  0  0  0  0  0  0  0  0  0  0  0
   -3.4784   -0.3718   -3.1382 H   0  0  0  0  0  0  0  0  0  0  0  0
   -0.4860    1.3537    0.7622 C   0  0  0  0  0  0  0  0  0  0  0  0
   -1.3956    2.0096    0.2582 O   0  0  0  0  0  0  0  0  0  0  0  0
    0.3741    1.8728    1.6466 N   0  0  0  0  0  0  0  0  0  0  0  0
    1.0814    1.2667    2.0345 H   0  0  0  0  0  0  0  0  0  0  0  0
    0.3380    3.2610    2.1024 C   0  0  0  0  0  0  0  0  0  0  0  0
   -0.6389    3.4820    2.5363 H   0  0  0  0  0  0  0  0  0  0  0  0
    1.1108    3.4337    2.8528 H   0  0  0  0  0  0  0  0  0  0  0  0
    0.5009    3.9312    1.2562 H   0  0  0  0  0  0  0  0  0  0  0  0
  5  6  2  0  0  0  0
  5  7  1  0  0  0  0
  2  3  1  0  0  0  0
  2  4  1  0  0  0  0
  2  5  1  0  0  0  0
  1  2  1  0  0  0  0
 21 22  2  0  0  0  0
 21 23  1  0  0  0  0
 19 20  1  0  0  0  0
 17 18  2  0  0  0  0
 17 19  1  0  0  0  0
 14 15  1  0  0  0  0
 14 16  1  0  0  0  0
 14 17  1  0  0  0  0
 11 12  1  0  0  0  0
 11 13  1  0  0  0  0
 11 14  1  0  0  0  0
  9 10  1  0  0  0  0
  9 11  1  0  0  0  0
  9 21  1  0  0  0  0
  7  8  1  0  0  0  0
  7  9  1  0  0  0  0
 25 26  1  0  0  0  0
 25 27  1  0  0  0  0
 25 28  1  0  0  0  0
 23 24  1  0  0  0  0
 23 25  1  0  0  0  0
M  END
$$$$
default_name
  -OEChem-02102213163D

 28 27  0     1  0  0  0  0  0999 V2000
   -3.2133   -3.5565    1.2809 H   0  0  0  0  0  0  0  0  0  0  0  0
   -3.1873   -2.5755    0.8089 C   0  0  0  0  0  0  0  0  0  0  0  0
   -3.8793   -1.9065    1.3169 H   0  0  0  0  0  0  0  0  0  0  0  0
   -3.4623   -2.6685   -0.2401 H   0  0  0  0  0  0  0  0  0  0  0  0
   -1.7863   -2.0195    0.9119 C   0  0  0  0  0  0  0  0  0  0  0  0
   -0.9073   -2.6615    1.4699 O   0  0  0  0  0  0  0  0  0  0  0  0
   -1.5803   -0.8195    0.3749 N   0  0  0  0  0  0  0  0  0  0  0  0
   -2.3603   -0.3345   -0.0451 H   0  0  0  0  0  0  0  0  0  0  0  0
   -0.2933   -0.1205    0.3719 C   0  0  1  0  0  0  0  0  0  0  0  0
    0.3577   -0.5843    1.1143 H   0  0  0  0  0  0  0  0  0  0  0  0
    0.3613   -0.2794   -1.0156 C   0  0  0  0  0  0  0  0  0  0  0  0
    1.3261    0.2304   -0.9957 H   0  0  0  0  0  0  0  0  0  0  0  0
    0.5408   -1.3379   -1.2097 H   0  0  0  0  0  0  0  0  0  0  0  0
   -0.4784    0.2937   -2.1703 C   0  0  0  0  0  0  0  0  0  0  0  0
   -0.4144    1.3819   -2.1715 H   0  0  0  0  0  0  0  0  0  0  0  0
   -0.0937   -0.0871   -3.1157 H   0  0  0  0  0  0  0  0  0  0  0  0
   -1.9489   -0.0974   -2.0655 C   0  0  0  0  0  0  0  0  0  0  0  0
   -2.4089   -0.8808   -1.2503 O   0  0  0  0  0  0  0  0  0  0  0  0
   -2.7676    0.4781   -2.9657 O   0  0  0  0  0  0  0  0  0  0  0  0
   -3.6381    0.1239   -2.7761 H   0  0  0  0  0  0  0  0  0  0  0  0
   -0.4860    1.3537    0.7622 C   0  0  0  0  0  0  0  0  0  0  0  0
   -1.3956    2.0096    0.2582 O   0  0  0  0  0  0  0  0  0  0  0  0
    0.3741    1.8728    1.6466 N   0  0  0  0  0  0  0  0  0  0  0  0
    1.0814    1.2667    2.0345 H   0  0  0  0  0  0  0  0  0  0  0  0
    0.3380    3.2610    2.1024 C   0  0  0  0  0  0  0  0  0  0  0  0
   -0.6389    3.4820    2.5363 H   0  0  0  0  0  0  0  0  0  0  0  0
    1.1108    3.4337    2.8528 H   0  0  0  0  0  0  0  0  0  0  0  0
    0.5009    3.9312    1.2562 H   0  0  0  0  0  0  0  0  0  0  0  0
  5  6  2  0  0  0  0
  5  7  1  0  0  0  0
  2  3  1  0  0  0  0
  2  4  1  0  0  0  0
  2  5  1  0  0  0  0
  1  2  1  0  0  0  0
 21 22  2  0  0  0  0
 21 23  1  0  0  0  0
 19 20  1  0  0  0  0
 17 18  2  0  0  0  0
 17 19  1  0  0  0  0
 14 15  1  0  0  0  0
 14 16  1  0  0  0  0
 14 17  1  0  0  0  0
 11 12  1  0  0  0  0
 11 13  1  0  0  0  0
 11 14  1  0  0  0  0
  9 10  1  0  0  0  0
  9 11  1  0  0  0  0
  9 21  1  0  0  0  0
  7  8  1  0  0  0  0
  7  9  1  0  0  0  0
 25 26  1  0  0  0  0
 25 27  1  0  0  0  0
 25 28  1  0  0  0  0
 23 24  1  0  0  0  0
 23 25  1  0  0  0  0
M  END
$$$$
default_name
  -OEChem-02102213163D

 28 27  0     1  0  0  0  0  0999 V2000
   -3.2133   -3.5565    1.2809 H   0  0  0  0  0  0  0  0  0  0  0  0
   -3.1873   -2.5755    0.8089 C   0  0  0  0  0  0  0  0  0  0  0  0
   -3.8793   -1.9065    1.3169 H   0  0  0  0  0  0  0  0  0  0  0  0
   -3.4623   -2.6685   -0.2401 H   0  0  0  0  0  0  0  0  0  0  0  0
   -1.7863   -2.0195    0.9119 C   0  0  0  0  0  0  0  0  0  0  0  0
   -0.9073   -2.6615    1.4699 O   0  0  0  0  0  0  0  0  0  0  0  0
   -1.5803   -0.8195    0.3749 N   0  0  0  0  0  0  0  0  0  0  0  0
   -2.3603   -0.3345   -0.0451 H   0  0  0  0  0  0  0  0  0  0  0  0
   -0.2933   -0.1205    0.3719 C   0  0  1  0  0  0  0  0  0  0  0  0
    0.3577   -0.5843    1.1143 H   0  0  0  0  0  0  0  0  0  0  0  0
    0.3613   -0.2794   -1.0156 C   0  0  0  0  0  0  0  0  0  0  0  0
    1.3261    0.2304   -0.9957 H   0  0  0  0  0  0  0  0  0  0  0  0
    0.5408   -1.3379   -1.2097 H   0  0  0  0  0  0  0  0  0  0  0  0
   -0.4784    0.2937   -2.1703 C   0  0  0  0  0  0  0  0  0  0  0  0
   -0.2122    1.3369   -2.3408 H   0  0  0  0  0  0  0  0  0  0  0  0
   -0.2786   -0.2779   -3.0760 H   0  0  0  0  0  0  0  0  0  0  0  0
   -1.9754    0.2238   -1.8868 C   0  0  0  0  0  0  0  0  0  0  0  0
   -2.4812   -0.3367   -0.9277 O   0  0  0  0  0  0  0  0  0  0  0  0
   -2.7660    0.8285   -2.7929 O   0  0  0  0  0  0  0  0  0  0  0  0
   -3.6612    0.6848   -2.4809 H   0  0  0  0  0  0  0  0  0  0  0  0
   -0.4860    1.3537    0.7622 C   0  0  0  0  0  0  0  0  0  0  0  0
   -1.3956    2.0096    0.2582 O   0  0  0  0  0  0  0  0  0  0  0  0
    0.3741    1.8728    1.6466 N   0  0  0  0  0  0  0  0  0  0  0  0
    1.0814    1.2667    2.0345 H   0  0  0  0  0  0  0  0  0  0  0  0
    0.3380    3.2610    2.1024 C   0  0  0  0  0  0  0  0  0  0  0  0
   -0.6389    3.4820    2.5363 H   0  0  0  0  0  0  0  0  0  0  0  0
    1.1108    3.4337    2.8528 H   0  0  0  0  0  0  0  0  0  0  0  0
    0.5009    3.9312    1.2562 H   0  0  0  0  0  0  0  0  0  0  0  0
  5  6  2  0  0  0  0
  5  7  1  0  0  0  0
  2  3  1  0  0  0  0
  2  4  1  0  0  0  0
  2  5  1  0  0  0  0
  1  2  1  0  0  0  0
 21 22  2  0  0  0  0
 21 23  1  0  0  0  0
 19 20  1  0  0  0  0
 17 18  2  0  0  0  0
 17 19  1  0  0  0  0
 14 15  1  0  0  0  0
 14 16  1  0  0  0  0
 14 17  1  0  0  0  0
 11 12  1  0  0  0  0
 11 13  1  0  0  0  0
 11 14  1  0  0  0  0
  9 10  1  0  0  0  0
  9 11  1  0  0  0  0
  9 21  1  0  0  0  0
  7  8  1  0  0  0  0
  7  9  1  0  0  0  0
 25 26  1  0  0  0  0
 25 27  1  0  0  0  0
 25 28  1  0  0  0  0
 23 24  1  0  0  0  0
 23 25  1  0  0  0  0
M  END
$$$$
default_name
  -OEChem-02102213163D

 28 27  0     1  0  0  0  0  0999 V2000
   -3.2133   -3.5565    1.2809 H   0  0  0  0  0  0  0  0  0  0  0  0
   -3.1873   -2.5755    0.8089 C   0  0  0  0  0  0  0  0  0  0  0  0
   -3.8793   -1.9065    1.3169 H   0  0  0  0  0  0  0  0  0  0  0  0
   -3.4623   -2.6685   -0.2401 H   0  0  0  0  0  0  0  0  0  0  0  0
   -1.7863   -2.0195    0.9119 C   0  0  0  0  0  0  0  0  0  0  0  0
   -0.9073   -2.6615    1.4699 O   0  0  0  0  0  0  0  0  0  0  0  0
   -1.5803   -0.8195    0.3749 N   0  0  0  0  0  0  0  0  0  0  0  0
   -2.3603   -0.3345   -0.0451 H   0  0  0  0  0  0  0  0  0  0  0  0
   -0.2933   -0.1205    0.3719 C   0  0  1  0  0  0  0  0  0  0  0  0
    0.3577   -0.5843    1.1143 H   0  0  0  0  0  0  0  0  0  0  0  0
    0.3613   -0.2794   -1.0156 C   0  0  0  0  0  0  0  0  0  0  0  0
    1.3261    0.2304   -0.9957 H   0  0  0  0  0  0  0  0  0  0  0  0
    0.5408   -1.3379   -1.2097 H   0  0  0  0  0  0  0  0  0  0  0  0
   -0.4784    0.2937   -2.1703 C   0  0  0  0  0  0  0  0  0  0  0  0
   -0.0419    1.2303   -2.5175 H   0  0  0  0  0  0  0  0  0  0  0  0
   -0.4904   -0.4206   -2.9928 H   0  0  0  0  0  0  0  0  0  0  0  0
   -1.9214    0.5644   -1.7571 C   0  0  0  0  0  0  0  0  0  0  0  0
   -2.4142    0.2484   -0.6860 O   0  0  0  0  0  0  0  0  0  0  0  0
   -2.6798    1.1911   -2.6757 O   0  0  0  0  0  0  0  0  0  0  0  0
   -3.5460    1.2728   -2.2729 H   0  0  0  0  0  0  0  0  0  0  0  0
   -0.4860    1.3537    0.7622 C   0  0  0  0  0  0  0  0  0  0  0  0
   -1.3956    2.0096    0.2582 O   0  0  0  0  0  0  0  0  0  0  0  0
    0.3741    1.8728    1.6466 N   0  0  0  0  0  0  0  0  0  0  0  0
    1.0814    1.2667    2.0345 H   0  0  0  0  0  0  0  0  0  0  0  0
    0.3380    3.2610    2.1024 C   0  0  0  0  0  0  0  0  0  0  0  0
   -0.6389    3.4820    2.5363 H   0  0  0  0  0  0  0  0  0  0  0  0
    1.1108    3.4337    2.8528 H   0  0  0  0  0  0  0  0  0  0  0  0
    0.5009    3.9312    1.2562 H   0  0  0  0  0  0  0  0  0  0  0  0
  5  6  2  0  0  0  0
  5  7  1  0  0  0  0
  2  3  1  0  0  0  0
  2  4  1  0  0  0  0
  2  5  1  0  0  0  0
  1  2  1  0  0  0  0
 21 22  2  0  0  0  0
 21 23  1  0  0  0  0
 19 20  1  0  0  0  0
 17 18  2  0  0  0  0
 17 19  1  0  0  0  0
 14 15  1  0  0  0  0
 14 16  1  0  0  0  0
 14 17  1  0  0  0  0
 11 12  1  0  0  0  0
 11 13  1  0  0  0  0
 11 14  1  0  0  0  0
  9 10  1  0  0  0  0
  9 11  1  0  0  0  0
  9 21  1  0  0  0  0
  7  8  1  0  0  0  0
  7  9  1  0  0  0  0
 25 26  1  0  0  0  0
 25 27  1  0  0  0  0
 25 28  1  0  0  0  0
 23 24  1  0  0  0  0
 23 25  1  0  0  0  0
M  END
$$$$
default_name
  -OEChem-02102213163D

 28 27  0     1  0  0  0  0  0999 V2000
   -3.2133   -3.5565    1.2809 H   0  0  0  0  0  0  0  0  0  0  0  0
   -3.1873   -2.5755    0.8089 C   0  0  0  0  0  0  0  0  0  0  0  0
   -3.8793   -1.9065    1.3169 H   0  0  0  0  0  0  0  0  0  0  0  0
   -3.4623   -2.6685   -0.2401 H   0  0  0  0  0  0  0  0  0  0  0  0
   -1.7863   -2.0195    0.9119 C   0  0  0  0  0  0  0  0  0  0  0  0
   -0.9073   -2.6615    1.4699 O   0  0  0  0  0  0  0  0  0  0  0  0
   -1.5803   -0.8195    0.3749 N   0  0  0  0  0  0  0  0  0  0  0  0
   -2.3603   -0.3345   -0.0451 H   0  0  0  0  0  0  0  0  0  0  0  0
   -0.2933   -0.1205    0.3719 C   0  0  1  0  0  0  0  0  0  0  0  0
    0.3577   -0.5843    1.1143 H   0  0  0  0  0  0  0  0  0  0  0  0
    0.3613   -0.2794   -1.0156 C   0  0  0  0  0  0  0  0  0  0  0  0
    1.3261    0.2304   -0.9957 H   0  0  0  0  0  0  0  0  0  0  0  0
    0.5408   -1.3379   -1.2097 H   0  0  0  0  0  0  0  0  0  0  0  0
   -0.4784    0.2937   -2.1703 C   0  0  0  0  0  0  0  0  0  0  0  0
    0.0848    1.0692   -2.6896 H   0  0  0  0  0  0  0  0  0  0  0  0
   -0.7147   -0.5055   -2.8719 H   0  0  0  0  0  0  0  0  0  0  0  0
   -1.7906    0.9012   -1.6850 C   0  0  0  0  0  0  0  0  0  0  0  0
   -2.2126    0.8348   -0.5417 O   0  0  0  0  0  0  0  0  0  0  0  0
   -2.5148    1.5411   -2.6219 O   0  0  0  0  0  0  0  0  0  0  0  0
   -3.3005    1.8477   -2.1660 H   0  0  0  0  0  0  0  0  0  0  0  0
   -0.4860    1.3537    0.7622 C   0  0  0  0  0  0  0  0  0  0  0  0
   -1.3956    2.0096    0.2582 O   0  0  0  0  0  0  0  0  0  0  0  0
    0.3741    1.8728    1.6466 N   0  0  0  0  0  0  0  0  0  0  0  0
    1.0814    1.2667    2.0345 H   0  0  0  0  0  0  0  0  0  0  0  0
    0.3380    3.2610    2.1024 C   0  0  0  0  0  0  0  0  0  0  0  0
   -0.6389    3.4820    2.5363 H   0  0  0  0  0  0  0  0  0  0  0  0
    1.1108    3.4337    2.8528 H   0  0  0  0  0  0  0  0  0  0  0  0
    0.5009    3.9312    1.2562 H   0  0  0  0  0  0  0  0  0  0  0  0
  5  6  2  0  0  0  0
  5  7  1  0  0  0  0
  2  3  1  0  0  0  0
  2  4  1  0  0  0  0
  2  5  1  0  0  0  0
  1  2  1  0  0  0  0
 21 22  2  0  0  0  0
 21 23  1  0  0  0  0
 19 20  1  0  0  0  0
 17 18  2  0  0  0  0
 17 19  1  0  0  0  0
 14 15  1  0  0  0  0
 14 16  1  0  0  0  0
 14 17  1  0  0  0  0
 11 12  1  0  0  0  0
 11 13  1  0  0  0  0
 11 14  1  0  0  0  0
  9 10  1  0  0  0  0
  9 11  1  0  0  0  0
  9 21  1  0  0  0  0
  7  8  1  0  0  0  0
  7  9  1  0  0  0  0
 25 26  1  0  0  0  0
 25 27  1  0  0  0  0
 25 28  1  0  0  0  0
 23 24  1  0  0  0  0
 23 25  1  0  0  0  0
M  END
$$$$
default_name
  -OEChem-02102213163D

 28 27  0     1  0  0  0  0  0999 V2000
   -3.2133   -3.5565    1.2809 H   0  0  0  0  0  0  0  0  0  0  0  0
   -3.1873   -2.5755    0.8089 C   0  0  0  0  0  0  0  0  0  0  0  0
   -3.8793   -1.9065    1.3169 H   0  0  0  0  0  0  0  0  0  0  0  0
   -3.4623   -2.6685   -0.2401 H   0  0  0  0  0  0  0  0  0  0  0  0
   -1.7863   -2.0195    0.9119 C   0  0  0  0  0  0  0  0  0  0  0  0
   -0.9073   -2.6615    1.4699 O   0  0  0  0  0  0  0  0  0  0  0  0
   -1.5803   -0.8195    0.3749 N   0  0  0  0  0  0  0  0  0  0  0  0
   -2.3603   -0.3345   -0.0451 H   0  0  0  0  0  0  0  0  0  0  0  0
   -0.2933   -0.1205    0.3719 C   0  0  1  0  0  0  0  0  0  0  0  0
    0.3577   -0.5843    1.1143 H   0  0  0  0  0  0  0  0  0  0  0  0
    0.3613   -0.2794   -1.0156 C   0  0  0  0  0  0  0  0  0  0  0  0
    1.3261    0.2304   -0.9957 H   0  0  0  0  0  0  0  0  0  0  0  0
    0.5408   -1.3379   -1.2097 H   0  0  0  0  0  0  0  0  0  0  0  0
   -0.4784    0.2937   -2.1703 C   0  0  0  0  0  0  0  0  0  0  0  0
    0.1593    0.8648   -2.8452 H   0  0  0  0  0  0  0  0  0  0  0  0
   -0.9362   -0.5269   -2.7215 H   0  0  0  0  0  0  0  0  0  0  0  0
   -1.5918    1.2113   -1.6757 C   0  0  0  0  0  0  0  0  0  0  0  0
   -1.8899    1.3823   -0.5045 O   0  0  0  0  0  0  0  0  0  0  0  0
   -2.2822    1.8547   -2.6354 O   0  0  0  0  0  0  0  0  0  0  0  0
   -2.9414    2.3705   -2.1677 H   0  0  0  0  0  0  0  0  0  0  0  0
   -0.4860    1.3537    0.7622 C   0  0  0  0  0  0  0  0  0  0  0  0
   -1.3956    2.0096    0.2582 O   0  0  0  0  0  0  0  0  0  0  0  0
    0.3741    1.8728    1.6466 N   0  0  0  0  0  0  0  0  0  0  0  0
    1.0814    1.2667    2.0345 H   0  0  0  0  0  0  0  0  0  0  0  0
    0.3380    3.2610    2.1024 C   0  0  0  0  0  0  0  0  0  0  0  0
   -0.6389    3.4820    2.5363 H   0  0  0  0  0  0  0  0  0  0  0  0
    1.1108    3.4337    2.8528 H   0  0  0  0  0  0  0  0  0  0  0  0
    0.5009    3.9312    1.2562 H   0  0  0  0  0  0  0  0  0  0  0  0
  5  6  2  0  0  0  0
  5  7  1  0  0  0  0
  2  3  1  0  0  0  0
  2  4  1  0  0  0  0
  2  5  1  0  0  0  0
  1  2  1  0  0  0  0
 21 22  2  0  0  0  0
 21 23  1  0  0  0  0
 19 20  1  0  0  0  0
 17 18  2  0  0  0  0
 17 19  1  0  0  0  0
 14 15  1  0  0  0  0
 14 16  1  0  0  0  0
 14 17  1  0  0  0  0
 11 12  1  0  0  0  0
 11 13  1  0  0  0  0
 11 14  1  0  0  0  0
  9 10  1  0  0  0  0
  9 11  1  0  0  0  0
  9 21  1  0  0  0  0
  7  8  1  0  0  0  0
  7  9  1  0  0  0  0
 25 26  1  0  0  0  0
 25 27  1  0  0  0  0
 25 28  1  0  0  0  0
 23 24  1  0  0  0  0
 23 25  1  0  0  0  0
M  END
$$$$
default_name
  -OEChem-02102213163D

 28 27  0     1  0  0  0  0  0999 V2000
   -3.2133   -3.5565    1.2809 H   0  0  0  0  0  0  0  0  0  0  0  0
   -3.1873   -2.5755    0.8089 C   0  0  0  0  0  0  0  0  0  0  0  0
   -3.8793   -1.9065    1.3169 H   0  0  0  0  0  0  0  0  0  0  0  0
   -3.4623   -2.6685   -0.2401 H   0  0  0  0  0  0  0  0  0  0  0  0
   -1.7863   -2.0195    0.9119 C   0  0  0  0  0  0  0  0  0  0  0  0
   -0.9073   -2.6615    1.4699 O   0  0  0  0  0  0  0  0  0  0  0  0
   -1.5803   -0.8195    0.3749 N   0  0  0  0  0  0  0  0  0  0  0  0
   -2.3603   -0.3345   -0.0451 H   0  0  0  0  0  0  0  0  0  0  0  0
   -0.2933   -0.1205    0.3719 C   0  0  1  0  0  0  0  0  0  0  0  0
    0.3577   -0.5843    1.1143 H   0  0  0  0  0  0  0  0  0  0  0  0
    0.3613   -0.2794   -1.0156 C   0  0  0  0  0  0  0  0  0  0  0  0
    1.3261    0.2304   -0.9957 H   0  0  0  0  0  0  0  0  0  0  0  0
    0.5408   -1.3379   -1.2097 H   0  0  0  0  0  0  0  0  0  0  0  0
   -0.4784    0.2937   -2.1703 C   0  0  0  0  0  0  0  0  0  0  0  0
    0.1765    0.6308   -2.9739 H   0  0  0  0  0  0  0  0  0  0  0  0
   -1.1398   -0.4833   -2.5518 H   0  0  0  0  0  0  0  0  0  0  0  0
   -1.3387    1.4736   -1.7296 C   0  0  0  0  0  0  0  0  0  0  0  0
   -1.4684    1.8538   -0.5770 O   0  0  0  0  0  0  0  0  0  0  0  0
   -1.9979    2.1105   -2.7151 O   0  0  0  0  0  0  0  0  0  0  0  0
   -2.4931    2.8054   -2.2778 H   0  0  0  0  0  0  0  0  0  0  0  0
   -0.4860    1.3537    0.7622 C   0  0  0  0  0  0  0  0  0  0  0  0
   -1.3956    2.0096    0.2582 O   0  0  0  0  0  0  0  0  0  0  0  0
    0.3741    1.8728    1.6466 N   0  0  0  0  0  0  0  0  0  0  0  0
    1.0814    1.2667    2.0345 H   0  0  0  0  0  0  0  0  0  0  0  0
    0.3380    3.2610    2.1024 C   0  0  0  0  0  0  0  0  0  0  0  0
   -0.6389    3.4820    2.5363 H   0  0  0  0  0  0  0  0  0  0  0  0
    1.1108    3.4337    2.8528 H   0  0  0  0  0  0  0  0  0  0  0  0
    0.5009    3.9312    1.2562 H   0  0  0  0  0  0  0  0  0  0  0  0
  5  6  2  0  0  0  0
  5  7  1  0  0  0  0
  2  3  1  0  0  0  0
  2  4  1  0  0  0  0
  2  5  1  0  0  0  0
  1  2  1  0  0  0  0
 21 22  2  0  0  0  0
 21 23  1  0  0  0  0
 19 20  1  0  0  0  0
 17 18  2  0  0  0  0
 17 19  1  0  0  0  0
 14 15  1  0  0  0  0
 14 16  1  0  0  0  0
 14 17  1  0  0  0  0
 11 12  1  0  0  0  0
 11 13  1  0  0  0  0
 11 14  1  0  0  0  0
  9 10  1  0  0  0  0
  9 11  1  0  0  0  0
  9 21  1  0  0  0  0
  7  8  1  0  0  0  0
  7  9  1  0  0  0  0
 25 26  1  0  0  0  0
 25 27  1  0  0  0  0
 25 28  1  0  0  0  0
 23 24  1  0  0  0  0
 23 25  1  0  0  0  0
M  END
$$$$
default_name
  -OEChem-02102213163D

 28 27  0     1  0  0  0  0  0999 V2000
   -3.2133   -3.5565    1.2809 H   0  0  0  0  0  0  0  0  0  0  0  0
   -3.1873   -2.5755    0.8089 C   0  0  0  0  0  0  0  0  0  0  0  0
   -3.8793   -1.9065    1.3169 H   0  0  0  0  0  0  0  0  0  0  0  0
   -3.4623   -2.6685   -0.2401 H   0  0  0  0  0  0  0  0  0  0  0  0
   -1.7863   -2.0195    0.9119 C   0  0  0  0  0  0  0  0  0  0  0  0
   -0.9073   -2.6615    1.4699 O   0  0  0  0  0  0  0  0  0  0  0  0
   -1.5803   -0.8195    0.3749 N   0  0  0  0  0  0  0  0  0  0  0  0
   -2.3603   -0.3345   -0.0451 H   0  0  0  0  0  0  0  0  0  0  0  0
   -0.2933   -0.1205    0.3719 C   0  0  1  0  0  0  0  0  0  0  0  0
    0.3577   -0.5843    1.1143 H   0  0  0  0  0  0  0  0  0  0  0  0
    0.3613   -0.2794   -1.0156 C   0  0  0  0  0  0  0  0  0  0  0  0
    1.3261    0.2304   -0.9957 H   0  0  0  0  0  0  0  0  0  0  0  0
    0.5408   -1.3379   -1.2097 H   0  0  0  0  0  0  0  0  0  0  0  0
   -0.4784    0.2937   -2.1703 C   0  0  0  0  0  0  0  0  0  0  0  0
    0.1354    0.3833   -3.0668 H   0  0  0  0  0  0  0  0  0  0  0  0
   -1.3116   -0.3777   -2.3744 H   0  0  0  0  0  0  0  0  0  0  0  0
   -1.0484    1.6701   -1.8431 C   0  0  0  0  0  0  0  0  0  0  0  0
   -0.9765    2.2171   -0.7544 O   0  0  0  0  0  0  0  0  0  0  0  0
   -1.6813    2.2912   -2.8557 O   0  0  0  0  0  0  0  0  0  0  0  0
   -1.9862    3.1229   -2.4888 H   0  0  0  0  0  0  0  0  0  0  0  0
   -0.4860    1.3537    0.7622 C   0  0  0  0  0  0  0  0  0  0  0  0
   -1.3956    2.0096    0.2582 O   0  0  0  0  0  0  0  0  0  0  0  0
    0.3741    1.8728    1.6466 N   0  0  0  0  0  0  0  0  0  0  0  0
    1.0814    1.2667    2.0345 H   0  0  0  0  0  0  0  0  0  0  0  0
    0.3380    3.2610    2.1024 C   0  0  0  0  0  0  0  0  0  0  0  0
   -0.6389    3.4820    2.5363 H   0  0  0  0  0  0  0  0  0  0  0  0
    1.1108    3.4337    2.8528 H   0  0  0  0  0  0  0  0  0  0  0  0
    0.5009    3.9312    1.2562 H   0  0  0  0  0  0  0  0  0  0  0  0
  5  6  2  0  0  0  0
  5  7  1  0  0  0  0
  2  3  1  0  0  0  0
  2  4  1  0  0  0  0
  2  5  1  0  0  0  0
  1  2  1  0  0  0  0
 21 22  2  0  0  0  0
 21 23  1  0  0  0  0
 19 20  1  0  0  0  0
 17 18  2  0  0  0  0
 17 19  1  0  0  0  0
 14 15  1  0  0  0  0
 14 16  1  0  0  0  0
 14 17  1  0  0  0  0
 11 12  1  0  0  0  0
 11 13  1  0  0  0  0
 11 14  1  0  0  0  0
  9 10  1  0  0  0  0
  9 11  1  0  0  0  0
  9 21  1  0  0  0  0
  7  8  1  0  0  0  0
  7  9  1  0  0  0  0
 25 26  1  0  0  0  0
 25 27  1  0  0  0  0
 25 28  1  0  0  0  0
 23 24  1  0  0  0  0
 23 25  1  0  0  0  0
M  END
$$$$
default_name
  -OEChem-02102213163D

 28 27  0     1  0  0  0  0  0999 V2000
   -3.2133   -3.5565    1.2809 H   0  0  0  0  0  0  0  0  0  0  0  0
   -3.1873   -2.5755    0.8089 C   0  0  0  0  0  0  0  0  0  0  0  0
   -3.8793   -1.9065    1.3169 H   0  0  0  0  0  0  0  0  0  0  0  0
   -3.4623   -2.6685   -0.2401 H   0  0  0  0  0  0  0  0  0  0  0  0
   -1.7863   -2.0195    0.9119 C   0  0  0  0  0  0  0  0  0  0  0  0
   -0.9073   -2.6615    1.4699 O   0  0  0  0  0  0  0  0  0  0  0  0
   -1.5803   -0.8195    0.3749 N   0  0  0  0  0  0  0  0  0  0  0  0
   -2.3603   -0.3345   -0.0451 H   0  0  0  0  0  0  0  0  0  0  0  0
   -0.2933   -0.1205    0.3719 C   0  0  1  0  0  0  0  0  0  0  0  0
    0.3577   -0.5843    1.1143 H   0  0  0  0  0  0  0  0  0  0  0  0
    0.3613   -0.2794   -1.0156 C   0  0  0  0  0  0  0  0  0  0  0  0
    1.3261    0.2304   -0.9957 H   0  0  0  0  0  0  0  0  0  0  0  0
    0.5408   -1.3379   -1.2097 H   0  0  0  0  0  0  0  0  0  0  0  0
   -0.4784    0.2937   -2.1703 C   0  0  0  0  0  0  0  0  0  0  0  0
    0.0385    0.1391   -3.1175 H   0  0  0  0  0  0  0  0  0  0  0  0
   -1.4400   -0.2172   -2.2014 H   0  0  0  0  0  0  0  0  0  0  0  0
   -0.7408    1.7875   -2.0085 C   0  0  0  0  0  0  0  0  0  0  0  0
   -0.4480    2.4474   -1.0244 O   0  0  0  0  0  0  0  0  0  0  0  0
   -1.3540    2.3843   -3.0475 O   0  0  0  0  0  0  0  0  0  0  0  0
   -1.4553    3.3013   -2.7864 H   0  0  0  0  0  0  0  0  0  0  0  0
   -0.4860    1.3537    0.7622 C   0  0  0  0  0  0  0  0  0  0  0  0
   -1.3956    2.0096    0.2582 O   0  0  0  0  0  0  0  0  0  0  0  0
    0.3741    1.8728    1.6466 N   0  0  0  0  0  0  0  0  0  0  0  0
    1.0814    1.2667    2.0345 H   0  0  0  0  0  0  0  0  0  0  0  0
    0.3380    3.2610    2.1024 C   0  0  0  0  0  0  0  0  0  0  0  0
   -0.6389    3.4820    2.5363 H   0  0  0  0  0  0  0  0  0  0  0  0
    1.1108    3.4337    2.8528 H   0  0  0  0  0  0  0  0  0  0  0  0
    0.5009    3.9312    1.2562 H   0  0  0  0  0  0  0  0  0  0  0  0
  5  6  2  0  0  0  0
  5  7  1  0  0  0  0
  2  3  1  0  0  0  0
  2  4  1  0  0  0  0
  2  5  1  0  0  0  0
  1  2  1  0  0  0  0
 21 22  2  0  0  0  0
 21 23  1  0  0  0  0
 19 20  1  0  0  0  0
 17 18  2  0  0  0  0
 17 19  1  0  0  0  0
 14 15  1  0  0  0  0
 14 16  1  0  0  0  0
 14 17  1  0  0  0  0
 11 12  1  0  0  0  0
 11 13  1  0  0  0  0
 11 14  1  0  0  0  0
  9 10  1  0  0  0  0
  9 11  1  0  0  0  0
  9 21  1  0  0  0  0
  7  8  1  0  0  0  0
  7  9  1  0  0  0  0
 25 26  1  0  0  0  0
 25 27  1  0  0  0  0
 25 28  1  0  0  0  0
 23 24  1  0  0  0  0
 23 25  1  0  0  0  0
M  END
$$$$
default_name
  -OEChem-02102213163D

 28 27  0     1  0  0  0  0  0999 V2000
   -3.2133   -3.5565    1.2809 H   0  0  0  0  0  0  0  0  0  0  0  0
   -3.1873   -2.5755    0.8089 C   0  0  0  0  0  0  0  0  0  0  0  0
   -3.8793   -1.9065    1.3169 H   0  0  0  0  0  0  0  0  0  0  0  0
   -3.4623   -2.6685   -0.2401 H   0  0  0  0  0  0  0  0  0  0  0  0
   -1.7863   -2.0195    0.9119 C   0  0  0  0  0  0  0  0  0  0  0  0
   -0.9073   -2.6615    1.4699 O   0  0  0  0  0  0  0  0  0  0  0  0
   -1.5803   -0.8195    0.3749 N   0  0  0  0  0  0  0  0  0  0  0  0
   -2.3603   -0.3345   -0.0451 H   0  0  0  0  0  0  0  0  0  0  0  0
   -0.2933   -0.1205    0.3719 C   0  0  1  0  0  0  0  0  0  0  0  0
    0.3577   -0.5843    1.1143 H   0  0  0  0  0  0  0  0  0  0  0  0
    0.3613   -0.2794   -1.0156 C   0  0  0  0  0  0  0  0  0  0  0  0
    1.3261    0.2304   -0.9957 H   0  0  0  0  0  0  0  0  0  0  0  0
    0.5408   -1.3379   -1.2097 H   0  0  0  0  0  0  0  0  0  0  0  0
   -0.4784    0.2937   -2.1703 C   0  0  0  0  0  0  0  0  0  0  0  0
   -0.1073   -0.0851   -3.1228 H   0  0  0  0  0  0  0  0  0  0  0  0
   -1.5161   -0.0129   -2.0447 H   0  0  0  0  0  0  0  0  0  0  0  0
   -0.4368    1.8177   -2.2145 C   0  0  0  0  0  0  0  0  0  0  0  0
    0.0812    2.5291   -1.3687 O   0  0  0  0  0  0  0  0  0  0  0  0
   -1.0382    2.3836   -3.2775 O   0  0  0  0  0  0  0  0  0  0  0  0
   -0.9364    3.3284   -3.1501 H   0  0  0  0  0  0  0  0  0  0  0  0
   -0.4860    1.3537    0.7622 C   0  0  0  0  0  0  0  0  0  0  0  0
   -1.3956    2.0096    0.2582 O   0  0  0  0  0  0  0  0  0  0  0  0
    0.3741    1.8728    1.6466 N   0  0  0  0  0  0  0  0  0  0  0  0
    1.0814    1.2667    2.0345 H   0  0  0  0  0  0  0  0  0  0  0  0
    0.3380    3.2610    2.1024 C   0  0  0  0  0  0  0  0  0  0  0  0
   -0.6389    3.4820    2.5363 H   0  0  0  0  0  0  0  0  0  0  0  0
    1.1108    3.4337    2.8528 H   0  0  0  0  0  0  0  0  0  0  0  0
    0.5009    3.9312    1.2562 H   0  0  0  0  0  0  0  0  0  0  0  0
  5  6  2  0  0  0  0
  5  7  1  0  0  0  0
  2  3  1  0  0  0  0
  2  4  1  0  0  0  0
  2  5  1  0  0  0  0
  1  2  1  0  0  0  0
 21 22  2  0  0  0  0
 21 23  1  0  0  0  0
 19 20  1  0  0  0  0
 17 18  2  0  0  0  0
 17 19  1  0  0  0  0
 14 15  1  0  0  0  0
 14 16  1  0  0  0  0
 14 17  1  0  0  0  0
 11 12  1  0  0  0  0
 11 13  1  0  0  0  0
 11 14  1  0  0  0  0
  9 10  1  0  0  0  0
  9 11  1  0  0  0  0
  9 21  1  0  0  0  0
  7  8  1  0  0  0  0
  7  9  1  0  0  0  0
 25 26  1  0  0  0  0
 25 27  1  0  0  0  0
 25 28  1  0  0  0  0
 23 24  1  0  0  0  0
 23 25  1  0  0  0  0
M  END
$$$$
default_name
  -OEChem-02102213163D

 28 27  0     1  0  0  0  0  0999 V2000
   -3.2133   -3.5565    1.2809 H   0  0  0  0  0  0  0  0  0  0  0  0
   -3.1873   -2.5755    0.8089 C   0  0  0  0  0  0  0  0  0  0  0  0
   -3.8793   -1.9065    1.3169 H   0  0  0  0  0  0  0  0  0  0  0  0
   -3.4623   -2.6685   -0.2401 H   0  0  0  0  0  0  0  0  0  0  0  0
   -1.7863   -2.0195    0.9119 C   0  0  0  0  0  0  0  0  0  0  0  0
   -0.9073   -2.6615    1.4699 O   0  0  0  0  0  0  0  0  0  0  0  0
   -1.5803   -0.8195    0.3749 N   0  0  0  0  0  0  0  0  0  0  0  0
   -2.3603   -0.3345   -0.0451 H   0  0  0  0  0  0  0  0  0  0  0  0
   -0.2933   -0.1205    0.3719 C   0  0  1  0  0  0  0  0  0  0  0  0
    0.3577   -0.5843    1.1143 H   0  0  0  0  0  0  0  0  0  0  0  0
    0.3613   -0.2794   -1.0156 C   0  0  0  0  0  0  0  0  0  0  0  0
    1.3261    0.2304   -0.9957 H   0  0  0  0  0  0  0  0  0  0  0  0
    0.5408   -1.3379   -1.2097 H   0  0  0  0  0  0  0  0  0  0  0  0
   -0.4784    0.2937   -2.1703 C   0  0  0  0  0  0  0  0  0  0  0  0
   -0.2923   -0.2741   -3.0821 H   0  0  0  0  0  0  0  0  0  0  0  0
   -1.5349    0.2215   -1.9147 H   0  0  0  0  0  0  0  0  0  0  0  0
   -0.1571    1.7588   -2.4471 C   0  0  0  0  0  0  0  0  0  0  0  0
    0.5751    2.4565   -1.7638 O   0  0  0  0  0  0  0  0  0  0  0  0
   -0.7554    2.2891   -3.5300 O   0  0  0  0  0  0  0  0  0  0  0  0
   -0.4651    3.2025   -3.5554 H   0  0  0  0  0  0  0  0  0  0  0  0
   -0.4860    1.3537    0.7622 C   0  0  0  0  0  0  0  0  0  0  0  0
   -1.3956    2.0096    0.2582 O   0  0  0  0  0  0  0  0  0  0  0  0
    0.3741    1.8728    1.6466 N   0  0  0  0  0  0  0  0  0  0  0  0
    1.0814    1.2667    2.0345 H   0  0  0  0  0  0  0  0  0  0  0  0
    0.3380    3.2610    2.1024 C   0  0  0  0  0  0  0  0  0  0  0  0
   -0.6389    3.4820    2.5363 H   0  0  0  0  0  0  0  0  0  0  0  0
    1.1108    3.4337    2.8528 H   0  0  0  0  0  0  0  0  0  0  0  0
    0.5009    3.9312    1.2562 H   0  0  0  0  0  0  0  0  0  0  0  0
  5  6  2  0  0  0  0
  5  7  1  0  0  0  0
  2  3  1  0  0  0  0
  2  4  1  0  0  0  0
  2  5  1  0  0  0  0
  1  2  1  0  0  0  0
 21 22  2  0  0  0  0
 21 23  1  0  0  0  0
 19 20  1  0  0  0  0
 17 18  2  0  0  0  0
 17 19  1  0  0  0  0
 14 15  1  0  0  0  0
 14 16  1  0  0  0  0
 14 17  1  0  0  0  0
 11 12  1  0  0  0  0
 11 13  1  0  0  0  0
 11 14  1  0  0  0  0
  9 10  1  0  0  0  0
  9 11  1  0  0  0  0
  9 21  1  0  0  0  0
  7  8  1  0  0  0  0
  7  9  1  0  0  0  0
 25 26  1  0  0  0  0
 25 27  1  0  0  0  0
 25 28  1  0  0  0  0
 23 24  1  0  0  0  0
 23 25  1  0  0  0  0
M  END
$$$$
default_name
  -OEChem-02102213163D

 28 27  0     1  0  0  0  0  0999 V2000
   -3.2133   -3.5565    1.2809 H   0  0  0  0  0  0  0  0  0  0  0  0
   -3.1873   -2.5755    0.8089 C   0  0  0  0  0  0  0  0  0  0  0  0
   -3.8793   -1.9065    1.3169 H   0  0  0  0  0  0  0  0  0  0  0  0
   -3.4623   -2.6685   -0.2401 H   0  0  0  0  0  0  0  0  0  0  0  0
   -1.7863   -2.0195    0.9119 C   0  0  0  0  0  0  0  0  0  0  0  0
   -0.9073   -2.6615    1.4699 O   0  0  0  0  0  0  0  0  0  0  0  0
   -1.5803   -0.8195    0.3749 N   0  0  0  0  0  0  0  0  0  0  0  0
   -2.3603   -0.3345   -0.0451 H   0  0  0  0  0  0  0  0  0  0  0  0
   -0.2933   -0.1205    0.3719 C   0  0  1  0  0  0  0  0  0  0  0  0
    0.3577   -0.5843    1.1143 H   0  0  0  0  0  0  0  0  0  0  0  0
    0.3613   -0.2794   -1.0156 C   0  0  0  0  0  0  0  0  0  0  0  0
    1.3261    0.2304   -0.9957 H   0  0  0  0  0  0  0  0  0  0  0  0
    0.5408   -1.3379   -1.2097 H   0  0  0  0  0  0  0  0  0  0  0  0
   -0.4784    0.2937   -2.1703 C   0  0  0  0  0  0  0  0  0  0  0  0
   -0.5037   -0.4150   -2.9982 H   0  0  0  0  0  0  0  0  0  0  0  0
   -1.4949    0.4698   -1.8205 H   0  0  0  0  0  0  0  0  0  0  0  0
    0.0791    1.6147   -2.6904 C   0  0  0  0  0  0  0  0  0  0  0  0
    1.0000    2.2346   -2.1828 O   0  0  0  0  0  0  0  0  0  0  0  0
   -0.5250    2.1071   -3.7878 O   0  0  0  0  0  0  0  0  0  0  0  0
   -0.0733    2.9320   -3.9745 H   0  0  0  0  0  0  0  0  0  0  0  0
   -0.4860    1.3537    0.7622 C   0  0  0  0  0  0  0  0  0  0  0  0
   -1.3956    2.0096    0.2582 O   0  0  0  0  0  0  0  0  0  0  0  0
    0.3741    1.8728    1.6466 N   0  0  0  0  0  0  0  0  0  0  0  0
    1.0814    1.2667    2.0345 H   0  0  0  0  0  0  0  0  0  0  0  0
    0.3380    3.2610    2.1024 C   0  0  0  0  0  0  0  0  0  0  0  0
   -0.6389    3.4820    2.5363 H   0  0  0  0  0  0  0  0  0  0  0  0
    1.1108    3.4337    2.8528 H   0  0  0  0  0  0  0  0  0  0  0  0
    0.5009    3.9312    1.2562 H   0  0  0  0  0  0  0  0  0  0  0  0
  5  6  2  0  0  0  0
  5  7  1  0  0  0  0
  2  3  1  0  0  0  0
  2  4  1  0  0  0  0
  2  5  1  0  0  0  0
  1  2  1  0  0  0  0
 21 22  2  0  0  0  0
 21 23  1  0  0  0  0
 19 20  1  0  0  0  0
 17 18  2  0  0  0  0
 17 19  1  0  0  0  0
 14 15  1  0  0  0  0
 14 16  1  0  0  0  0
 14 17  1  0  0  0  0
 11 12  1  0  0  0  0
 11 13  1  0  0  0  0
 11 14  1  0  0  0  0
  9 10  1  0  0  0  0
  9 11  1  0  0  0  0
  9 21  1  0  0  0  0
  7  8  1  0  0  0  0
  7  9  1  0  0  0  0
 25 26  1  0  0  0  0
 25 27  1  0  0  0  0
 25 28  1  0  0  0  0
 23 24  1  0  0  0  0
 23 25  1  0  0  0  0
M  END
$$$$
default_name
  -OEChem-02102213163D

 28 27  0     1  0  0  0  0  0999 V2000
   -3.2133   -3.5565    1.2809 H   0  0  0  0  0  0  0  0  0  0  0  0
   -3.1873   -2.5755    0.8089 C   0  0  0  0  0  0  0  0  0  0  0  0
   -3.8793   -1.9065    1.3169 H   0  0  0  0  0  0  0  0  0  0  0  0
   -3.4623   -2.6685   -0.2401 H   0  0  0  0  0  0  0  0  0  0  0  0
   -1.7863   -2.0195    0.9119 C   0  0  0  0  0  0  0  0  0  0  0  0
   -0.9073   -2.6615    1.4699 O   0  0  0  0  0  0  0  0  0  0  0  0
   -1.5803   -0.8195    0.3749 N   0  0  0  0  0  0  0  0  0  0  0  0
   -2.3603   -0.3345   -0.0451 H   0  0  0  0  0  0  0  0  0  0  0  0
   -0.2933   -0.1205    0.3719 C   0  0  1  0  0  0  0  0  0  0  0  0
    0.3577   -0.5843    1.1143 H   0  0  0  0  0  0  0  0  0  0  0  0
    0.3613   -0.2794   -1.0156 C   0  0  0  0  0  0  0  0  0  0  0  0
    1.3261    0.2304   -0.9957 H   0  0  0  0  0  0  0  0  0  0  0  0
    0.5408   -1.3379   -1.2097 H   0  0  0  0  0  0  0  0  0  0  0  0
   -0.4784    0.2937   -2.1703 C   0  0  0  0  0  0  0  0  0  0  0  0
   -0.7273   -0.4982   -2.8770 H   0  0  0  0  0  0  0  0  0  0  0  0
   -1.3990    0.7153   -1.7685 H   0  0  0  0  0  0  0  0  0  0  0  0
    0.2559    1.3953   -2.9278 C   0  0  0  0  0  0  0  0  0  0  0  0
    1.3268    1.8786   -2.5972 O   0  0  0  0  0  0  0  0  0  0  0  0
   -0.3627    1.8503   -4.0333 O   0  0  0  0  0  0  0  0  0  0  0  0
    0.2121    2.5354   -4.3788 H   0  0  0  0  0  0  0  0  0  0  0  0
   -0.4860    1.3537    0.7622 C   0  0  0  0  0  0  0  0  0  0  0  0
   -1.3956    2.0096    0.2582 O   0  0  0  0  0  0  0  0  0  0  0  0
    0.3741    1.8728    1.6466 N   0  0  0  0  0  0  0  0  0  0  0  0
    1.0814    1.2667    2.0345 H   0  0  0  0  0  0  0  0  0  0  0  0
    0.3380    3.2610    2.1024 C   0  0  0  0  0  0  0  0  0  0  0  0
   -0.6389    3.4820    2.5363 H   0  0  0  0  0  0  0  0  0  0  0  0
    1.1108    3.4337    2.8528 H   0  0  0  0  0  0  0  0  0  0  0  0
    0.5009    3.9312    1.2562 H   0  0  0  0  0  0  0  0  0  0  0  0
  5  6  2  0  0  0  0
  5  7  1  0  0  0  0
  2  3  1  0  0  0  0
  2  4  1  0  0  0  0
  2  5  1  0  0  0  0
  1  2  1  0  0  0  0
 21 22  2  0  0  0  0
 21 23  1  0  0  0  0
 19 20  1  0  0  0  0
 17 18  2  0  0  0  0
 17 19  1  0  0  0  0
 14 15  1  0  0  0  0
 14 16  1  0  0  0  0
 14 17  1  0  0  0  0
 11 12  1  0  0  0  0
 11 13  1  0  0  0  0
 11 14  1  0  0  0  0
  9 10  1  0  0  0  0
  9 11  1  0  0  0  0
  9 21  1  0  0  0  0
  7  8  1  0  0  0  0
  7  9  1  0  0  0  0
 25 26  1  0  0  0  0
 25 27  1  0  0  0  0
 25 28  1  0  0  0  0
 23 24  1  0  0  0  0
 23 25  1  0  0  0  0
M  END
$$$$
default_name
  -OEChem-02102213163D

 28 27  0     1  0  0  0  0  0999 V2000
   -3.2133   -3.5565    1.2809 H   0  0  0  0  0  0  0  0  0  0  0  0
   -3.1873   -2.5755    0.8089 C   0  0  0  0  0  0  0  0  0  0  0  0
   -3.8793   -1.9065    1.3169 H   0  0  0  0  0  0  0  0  0  0  0  0
   -3.4623   -2.6685   -0.2401 H   0  0  0  0  0  0  0  0  0  0  0  0
   -1.7863   -2.0195    0.9119 C   0  0  0  0  0  0  0  0  0  0  0  0
   -0.9073   -2.6615    1.4699 O   0  0  0  0  0  0  0  0  0  0  0  0
   -1.5803   -0.8195    0.3749 N   0  0  0  0  0  0  0  0  0  0  0  0
   -2.3603   -0.3345   -0.0451 H   0  0  0  0  0  0  0  0  0  0  0  0
   -0.2933   -0.1205    0.3719 C   0  0  1  0  0  0  0  0  0  0  0  0
    0.3577   -0.5843    1.1143 H   0  0  0  0  0  0  0  0  0  0  0  0
    0.3613   -0.2794   -1.0156 C   0  0  0  0  0  0  0  0  0  0  0  0
    1.3261    0.2304   -0.9957 H   0  0  0  0  0  0  0  0  0  0  0  0
    0.5408   -1.3379   -1.2097 H   0  0  0  0  0  0  0  0  0  0  0  0
   -0.4784    0.2937   -2.1703 C   0  0  0  0  0  0  0  0  0  0  0  0
   -0.9476   -0.5179   -2.7266 H   0  0  0  0  0  0  0  0  0  0  0  0
   -1.2536    0.9410   -1.7621 H   0  0  0  0  0  0  0  0  0  0  0  0
    0.3611    1.1155   -3.1432 C   0  0  0  0  0  0  0  0  0  0  0  0
    1.5334    1.4126   -2.9786 O   0  0  0  0  0  0  0  0  0  0  0  0
   -0.2795    1.5359   -4.2498 O   0  0  0  0  0  0  0  0  0  0  0  0
    0.3718    2.0398   -4.7409 H   0  0  0  0  0  0  0  0  0  0  0  0
   -0.4860    1.3537    0.7622 C   0  0  0  0  0  0  0  0  0  0  0  0
   -1.3956    2.0096    0.2582 O   0  0  0  0  0  0  0  0  0  0  0  0
    0.3741    1.8728    1.6466 N   0  0  0  0  0  0  0  0  0  0  0  0
    1.0814    1.2667    2.0345 H   0  0  0  0  0  0  0  0  0  0  0  0
    0.3380    3.2610    2.1024 C   0  0  0  0  0  0  0  0  0  0  0  0
   -0.6389    3.4820    2.5363 H   0  0  0  0  0  0  0  0  0  0  0  0
    1.1108    3.4337    2.8528 H   0  0  0  0  0  0  0  0  0  0  0  0
    0.5009    3.9312    1.2562 H   0  0  0  0  0  0  0  0  0  0  0  0
  5  6  2  0  0  0  0
  5  7  1  0  0  0  0
  2  3  1  0  0  0  0
  2  4  1  0  0  0  0
  2  5  1  0  0  0  0
  1  2  1  0  0  0  0
 21 22  2  0  0  0  0
 21 23  1  0  0  0  0
 19 20  1  0  0  0  0
 17 18  2  0  0  0  0
 17 19  1  0  0  0  0
 14 15  1  0  0  0  0
 14 16  1  0  0  0  0
 14 17  1  0  0  0  0
 11 12  1  0  0  0  0
 11 13  1  0  0  0  0
 11 14  1  0  0  0  0
  9 10  1  0  0  0  0
  9 11  1  0  0  0  0
  9 21  1  0  0  0  0
  7  8  1  0  0  0  0
  7  9  1  0  0  0  0
 25 26  1  0  0  0  0
 25 27  1  0  0  0  0
 25 28  1  0  0  0  0
 23 24  1  0  0  0  0
 23 25  1  0  0  0  0
M  END
$$$$
default_name
  -OEChem-02102213163D

 28 27  0     1  0  0  0  0  0999 V2000
   -3.2133   -3.5565    1.2809 H   0  0  0  0  0  0  0  0  0  0  0  0
   -3.1873   -2.5755    0.8089 C   0  0  0  0  0  0  0  0  0  0  0  0
   -3.8793   -1.9065    1.3169 H   0  0  0  0  0  0  0  0  0  0  0  0
   -3.4623   -2.6685   -0.2401 H   0  0  0  0  0  0  0  0  0  0  0  0
   -1.7863   -2.0195    0.9119 C   0  0  0  0  0  0  0  0  0  0  0  0
   -0.9073   -2.6615    1.4699 O   0  0  0  0  0  0  0  0  0  0  0  0
   -1.5803   -0.8195    0.3749 N   0  0  0  0  0  0  0  0  0  0  0  0
   -2.3603   -0.3345   -0.0451 H   0  0  0  0  0  0  0  0  0  0  0  0
   -0.2933   -0.1205    0.3719 C   0  0  1  0  0  0  0  0  0  0  0  0
    0.3577   -0.5843    1.1143 H   0  0  0  0  0  0  0  0  0  0  0  0
    0.3613   -0.2794   -1.0156 C   0  0  0  0  0  0  0  0  0  0  0  0
    1.3261    0.2304   -0.9957 H   0  0  0  0  0  0  0  0  0  0  0  0
    0.5408   -1.3379   -1.2097 H   0  0  0  0  0  0  0  0  0  0  0  0
   -0.4784    0.2937   -2.1703 C   0  0  0  0  0  0  0  0  0  0  0  0
   -1.1498   -0.4730   -2.5572 H   0  0  0  0  0  0  0  0  0  0  0  0
   -1.0687    1.1318   -1.8019 H   0  0  0  0  0  0  0  0  0  0  0  0
    0.3876    0.7943   -3.3218 C   0  0  0  0  0  0  0  0  0  0  0  0
    1.6057    0.8686   -3.3012 O   0  0  0  0  0  0  0  0  0  0  0  0
   -0.2810    1.1855   -4.4226 O   0  0  0  0  0  0  0  0  0  0  0  0
    0.3949    1.4789   -5.0361 H   0  0  0  0  0  0  0  0  0  0  0  0
   -0.4860    1.3537    0.7622 C   0  0  0  0  0  0  0  0  0  0  0  0
   -1.3956    2.0096    0.2582 O   0  0  0  0  0  0  0  0  0  0  0  0
    0.3741    1.8728    1.6466 N   0  0  0  0  0  0  0  0  0  0  0  0
    1.0814    1.2667    2.0345 H   0  0  0  0  0  0  0  0  0  0  0  0
    0.3380    3.2610    2.1024 C   0  0  0  0  0  0  0  0  0  0  0  0
   -0.6389    3.4820    2.5363 H   0  0  0  0  0  0  0  0  0  0  0  0
    1.1108    3.4337    2.8528 H   0  0  0  0  0  0  0  0  0  0  0  0
    0.5009    3.9312    1.2562 H   0  0  0  0  0  0  0  0  0  0  0  0
  5  6  2  0  0  0  0
  5  7  1  0  0  0  0
  2  3  1  0  0  0  0
  2  4  1  0  0  0  0
  2  5  1  0  0  0  0
  1  2  1  0  0  0  0
 21 22  2  0  0  0  0
 21 23  1  0  0  0  0
 19 20  1  0  0  0  0
 17 18  2  0  0  0  0
 17 19  1  0  0  0  0
 14 15  1  0  0  0  0
 14 16  1  0  0  0  0
 14 17  1  0  0  0  0
 11 12  1  0  0  0  0
 11 13  1  0  0  0  0
 11 14  1  0  0  0  0
  9 10  1  0  0  0  0
  9 11  1  0  0  0  0
  9 21  1  0  0  0  0
  7  8  1  0  0  0  0
  7  9  1  0  0  0  0
 25 26  1  0  0  0  0
 25 27  1  0  0  0  0
 25 28  1  0  0  0  0
 23 24  1  0  0  0  0
 23 25  1  0  0  0  0
M  END
$$$$
default_name
  -OEChem-02102213163D

 28 27  0     1  0  0  0  0  0999 V2000
   -3.2133   -3.5565    1.2809 H   0  0  0  0  0  0  0  0  0  0  0  0
   -3.1873   -2.5755    0.8089 C   0  0  0  0  0  0  0  0  0  0  0  0
   -3.8793   -1.9065    1.3169 H   0  0  0  0  0  0  0  0  0  0  0  0
   -3.4623   -2.6685   -0.2401 H   0  0  0  0  0  0  0  0  0  0  0  0
   -1.7863   -2.0195    0.9119 C   0  0  0  0  0  0  0  0  0  0  0  0
   -0.9073   -2.6615    1.4699 O   0  0  0  0  0  0  0  0  0  0  0  0
   -1.5803   -0.8195    0.3749 N   0  0  0  0  0  0  0  0  0  0  0  0
   -2.3603   -0.3345   -0.0451 H   0  0  0  0  0  0  0  0  0  0  0  0
   -0.2933   -0.1205    0.3719 C   0  0  1  0  0  0  0  0  0  0  0  0
    0.3577   -0.5843    1.1143 H   0  0  0  0  0  0  0  0  0  0  0  0
    0.3613   -0.2794   -1.0156 C   0  0  0  0  0  0  0  0  0  0  0  0
    1.3261    0.2304   -0.9957 H   0  0  0  0  0  0  0  0  0  0  0  0
    0.5408   -1.3379   -1.2097 H   0  0  0  0  0  0  0  0  0  0  0  0
   -0.4784    0.2937   -2.1703 C   0  0  0  0  0  0  0  0  0  0  0  0
   -1.3201   -0.3663   -2.3805 H   0  0  0  0  0  0  0  0  0  0  0  0
   -0.8569    1.2745   -1.8851 H   0  0  0  0  0  0  0  0  0  0  0  0
    0.3336    0.4537   -3.4516 C   0  0  0  0  0  0  0  0  0  0  0  0
    1.5388    0.2834   -3.5429 O   0  0  0  0  0  0  0  0  0  0  0  0
   -0.3672    0.8230   -4.5398 O   0  0  0  0  0  0  0  0  0  0  0  0
    0.2798    0.8909   -5.2441 H   0  0  0  0  0  0  0  0  0  0  0  0
   -0.4860    1.3537    0.7622 C   0  0  0  0  0  0  0  0  0  0  0  0
   -1.3956    2.0096    0.2582 O   0  0  0  0  0  0  0  0  0  0  0  0
    0.3741    1.8728    1.6466 N   0  0  0  0  0  0  0  0  0  0  0  0
    1.0814    1.2667    2.0345 H   0  0  0  0  0  0  0  0  0  0  0  0
    0.3380    3.2610    2.1024 C   0  0  0  0  0  0  0  0  0  0  0  0
   -0.6389    3.4820    2.5363 H   0  0  0  0  0  0  0  0  0  0  0  0
    1.1108    3.4337    2.8528 H   0  0  0  0  0  0  0  0  0  0  0  0
    0.5009    3.9312    1.2562 H   0  0  0  0  0  0  0  0  0  0  0  0
  5  6  2  0  0  0  0
  5  7  1  0  0  0  0
  2  3  1  0  0  0  0
  2  4  1  0  0  0  0
  2  5  1  0  0  0  0
  1  2  1  0  0  0  0
 21 22  2  0  0  0  0
 21 23  1  0  0  0  0
 19 20  1  0  0  0  0
 17 18  2  0  0  0  0
 17 19  1  0  0  0  0
 14 15  1  0  0  0  0
 14 16  1  0  0  0  0
 14 17  1  0  0  0  0
 11 12  1  0  0  0  0
 11 13  1  0  0  0  0
 11 14  1  0  0  0  0
  9 10  1  0  0  0  0
  9 11  1  0  0  0  0
  9 21  1  0  0  0  0
  7  8  1  0  0  0  0
  7  9  1  0  0  0  0
 25 26  1  0  0  0  0
 25 27  1  0  0  0  0
 25 28  1  0  0  0  0
 23 24  1  0  0  0  0
 23 25  1  0  0  0  0
M  END
$$$$
default_name
  -OEChem-02102213163D

 28 27  0     1  0  0  0  0  0999 V2000
   -3.2133   -3.5565    1.2809 H   0  0  0  0  0  0  0  0  0  0  0  0
   -3.1873   -2.5755    0.8089 C   0  0  0  0  0  0  0  0  0  0  0  0
   -3.8793   -1.9065    1.3169 H   0  0  0  0  0  0  0  0  0  0  0  0
   -3.4623   -2.6685   -0.2401 H   0  0  0  0  0  0  0  0  0  0  0  0
   -1.7863   -2.0195    0.9119 C   0  0  0  0  0  0  0  0  0  0  0  0
   -0.9073   -2.6615    1.4699 O   0  0  0  0  0  0  0  0  0  0  0  0
   -1.5803   -0.8195    0.3749 N   0  0  0  0  0  0  0  0  0  0  0  0
   -2.3603   -0.3345   -0.0451 H   0  0  0  0  0  0  0  0  0  0  0  0
   -0.2933   -0.1205    0.3719 C   0  0  1  0  0  0  0  0  0  0  0  0
    0.3577   -0.5843    1.1143 H   0  0  0  0  0  0  0  0  0  0  0  0
    0.3613   -0.2794   -1.0156 C   0  0  0  0  0  0  0  0  0  0  0  0
    1.4163   -0.0150   -0.9251 H   0  0  0  0  0  0  0  0  0  0  0  0
    0.2986   -1.3235   -1.3256 H   0  0  0  0  0  0  0  0  0  0  0  0
   -0.2765    0.5943   -2.1096 C   0  0  0  0  0  0  0  0  0  0  0  0
   -1.3318    0.3431   -2.2170 H   0  0  0  0  0  0  0  0  0  0  0  0
   -0.1864    1.6428   -1.8279 H   0  0  0  0  0  0  0  0  0  0  0  0
    0.3984    0.4082   -3.4647 C   0  0  0  0  0  0  0  0  0  0  0  0
    1.4104   -0.2458   -3.6592 O   0  0  0  0  0  0  0  0  0  0  0  0
   -0.1912    1.0387   -4.4975 O   0  0  0  0  0  0  0  0  0  0  0  0
    0.3532    0.8350   -5.2600 H   0  0  0  0  0  0  0  0  0  0  0  0
   -0.4860    1.3537    0.7622 C   0  0  0  0  0  0  0  0  0  0  0  0
   -1.3956    2.0096    0.2582 O   0  0  0  0  0  0  0  0  0  0  0  0
    0.3741    1.8728    1.6466 N   0  0  0  0  0  0  0  0  0  0  0  0
    1.0814    1.2667    2.0345 H   0  0  0  0  0  0  0  0  0  0  0  0
    0.3380    3.2610    2.1024 C   0  0  0  0  0  0  0  0  0  0  0  0
   -0.6389    3.4820    2.5363 H   0  0  0  0  0  0  0  0  0  0  0  0
    1.1108    3.4337    2.8528 H   0  0  0  0  0  0  0  0  0  0  0  0
    0.5009    3.9312    1.2562 H   0  0  0  0  0  0  0  0  0  0  0  0
  5  6  2  0  0  0  0
  5  7  1  0  0  0  0
  2  3  1  0  0  0  0
  2  4  1  0  0  0  0
  2  5  1  0  0  0  0
  1  2  1  0  0  0  0
 21 22  2  0  0  0  0
 21 23  1  0  0  0  0
 19 20  1  0  0  0  0
 17 18  2  0  0  0  0
 17 19  1  0  0  0  0
 14 15  1  0  0  0  0
 14 16  1  0  0  0  0
 14 17  1  0  0  0  0
 11 12  1  0  0  0  0
 11 13  1  0  0  0  0
 11 14  1  0  0  0  0
  9 10  1  0  0  0  0
  9 11  1  0  0  0  0
  9 21  1  0  0  0  0
  7  8  1  0  0  0  0
  7  9  1  0  0  0  0
 25 26  1  0  0  0  0
 25 27  1  0  0  0  0
 25 28  1  0  0  0  0
 23 24  1  0  0  0  0
 23 25  1  0  0  0  0
M  END
$$$$
default_name
  -OEChem-02102213163D

 28 27  0     1  0  0  0  0  0999 V2000
   -3.2133   -3.5565    1.2809 H   0  0  0  0  0  0  0  0  0  0  0  0
   -3.1873   -2.5755    0.8089 C   0  0  0  0  0  0  0  0  0  0  0  0
   -3.8793   -1.9065    1.3169 H   0  0  0  0  0  0  0  0  0  0  0  0
   -3.4623   -2.6685   -0.2401 H   0  0  0  0  0  0  0  0  0  0  0  0
   -1.7863   -2.0195    0.9119 C   0  0  0  0  0  0  0  0  0  0  0  0
   -0.9073   -2.6615    1.4699 O   0  0  0  0  0  0  0  0  0  0  0  0
   -1.5803   -0.8195    0.3749 N   0  0  0  0  0  0  0  0  0  0  0  0
   -2.3603   -0.3345   -0.0451 H   0  0  0  0  0  0  0  0  0  0  0  0
   -0.2933   -0.1205    0.3719 C   0  0  1  0  0  0  0  0  0  0  0  0
    0.3577   -0.5843    1.1143 H   0  0  0  0  0  0  0  0  0  0  0  0
    0.3613   -0.2794   -1.0156 C   0  0  0  0  0  0  0  0  0  0  0  0
    1.4163   -0.0150   -0.9251 H   0  0  0  0  0  0  0  0  0  0  0  0
    0.2986   -1.3235   -1.3256 H   0  0  0  0  0  0  0  0  0  0  0  0
   -0.2765    0.5943   -2.1096 C   0  0  0  0  0  0  0  0  0  0  0  0
   -1.3631    0.5416   -2.0403 H   0  0  0  0  0  0  0  0  0  0  0  0
    0.0398    1.6276   -1.9720 H   0  0  0  0  0  0  0  0  0  0  0  0
    0.1338    0.1562   -3.5118 C   0  0  0  0  0  0  0  0  0  0  0  0
    0.9716   -0.6953   -3.7624 O   0  0  0  0  0  0  0  0  0  0  0  0
   -0.4904    0.7887   -4.5227 O   0  0  0  0  0  0  0  0  0  0  0  0
   -0.1169    0.4138   -5.3223 H   0  0  0  0  0  0  0  0  0  0  0  0
   -0.4860    1.3537    0.7622 C   0  0  0  0  0  0  0  0  0  0  0  0
   -1.3956    2.0096    0.2582 O   0  0  0  0  0  0  0  0  0  0  0  0
    0.3741    1.8728    1.6466 N   0  0  0  0  0  0  0  0  0  0  0  0
    1.0814    1.2667    2.0345 H   0  0  0  0  0  0  0  0  0  0  0  0
    0.3380    3.2610    2.1024 C   0  0  0  0  0  0  0  0  0  0  0  0
   -0.6389    3.4820    2.5363 H   0  0  0  0  0  0  0  0  0  0  0  0
    1.1108    3.4337    2.8528 H   0  0  0  0  0  0  0  0  0  0  0  0
    0.5009    3.9312    1.2562 H   0  0  0  0  0  0  0  0  0  0  0  0
  5  6  2  0  0  0  0
  5  7  1  0  0  0  0
  2  3  1  0  0  0  0
  2  4  1  0  0  0  0
  2  5  1  0  0  0  0
  1  2  1  0  0  0  0
 21 22  2  0  0  0  0
 21 23  1  0  0  0  0
 19 20  1  0  0  0  0
 17 18  2  0  0  0  0
 17 19  1  0  0  0  0
 14 15  1  0  0  0  0
 14 16  1  0  0  0  0
 14 17  1  0  0  0  0
 11 12  1  0  0  0  0
 11 13  1  0  0  0  0
 11 14  1  0  0  0  0
  9 10  1  0  0  0  0
  9 11  1  0  0  0  0
  9 21  1  0  0  0  0
  7  8  1  0  0  0  0
  7  9  1  0  0  0  0
 25 26  1  0  0  0  0
 25 27  1  0  0  0  0
 25 28  1  0  0  0  0
 23 24  1  0  0  0  0
 23 25  1  0  0  0  0
M  END
$$$$
default_name
  -OEChem-02102213163D

 28 27  0     1  0  0  0  0  0999 V2000
   -3.2133   -3.5565    1.2809 H   0  0  0  0  0  0  0  0  0  0  0  0
   -3.1873   -2.5755    0.8089 C   0  0  0  0  0  0  0  0  0  0  0  0
   -3.8793   -1.9065    1.3169 H   0  0  0  0  0  0  0  0  0  0  0  0
   -3.4623   -2.6685   -0.2401 H   0  0  0  0  0  0  0  0  0  0  0  0
   -1.7863   -2.0195    0.9119 C   0  0  0  0  0  0  0  0  0  0  0  0
   -0.9073   -2.6615    1.4699 O   0  0  0  0  0  0  0  0  0  0  0  0
   -1.5803   -0.8195    0.3749 N   0  0  0  0  0  0  0  0  0  0  0  0
   -2.3603   -0.3345   -0.0451 H   0  0  0  0  0  0  0  0  0  0  0  0
   -0.2933   -0.1205    0.3719 C   0  0  1  0  0  0  0  0  0  0  0  0
    0.3577   -0.5843    1.1143 H   0  0  0  0  0  0  0  0  0  0  0  0
    0.3613   -0.2794   -1.0156 C   0  0  0  0  0  0  0  0  0  0  0  0
    1.4163   -0.0150   -0.9251 H   0  0  0  0  0  0  0  0  0  0  0  0
    0.2986   -1.3235   -1.3256 H   0  0  0  0  0  0  0  0  0  0  0  0
   -0.2765    0.5943   -2.1096 C   0  0  0  0  0  0  0  0  0  0  0  0
   -1.3308    0.7580   -1.8863 H   0  0  0  0  0  0  0  0  0  0  0  0
    0.2344    1.5559   -2.1427 H   0  0  0  0  0  0  0  0  0  0  0  0
   -0.1751   -0.0437   -3.4913 C   0  0  0  0  0  0  0  0  0  0  0  0
    0.4499   -1.0599   -3.7494 O   0  0  0  0  0  0  0  0  0  0  0  0
   -0.8291    0.5995   -4.4763 O   0  0  0  0  0  0  0  0  0  0  0  0
   -0.6577    0.0869   -5.2682 H   0  0  0  0  0  0  0  0  0  0  0  0
   -0.4860    1.3537    0.7622 C   0  0  0  0  0  0  0  0  0  0  0  0
   -1.3956    2.0096    0.2582 O   0  0  0  0  0  0  0  0  0  0  0  0
    0.3741    1.8728    1.6466 N   0  0  0  0  0  0  0  0  0  0  0  0
    1.0814    1.2667    2.0345 H   0  0  0  0  0  0  0  0  0  0  0  0
    0.3380    3.2610    2.1024 C   0  0  0  0  0  0  0  0  0  0  0  0
   -0.6389    3.4820    2.5363 H   0  0  0  0  0  0  0  0  0  0  0  0
    1.1108    3.4337    2.8528 H   0  0  0  0  0  0  0  0  0  0  0  0
    0.5009    3.9312    1.2562 H   0  0  0  0  0  0  0  0  0  0  0  0
  5  6  2  0  0  0  0
  5  7  1  0  0  0  0
  2  3  1  0  0  0  0
  2  4  1  0  0  0  0
  2  5  1  0  0  0  0
  1  2  1  0  0  0  0
 21 22  2  0  0  0  0
 21 23  1  0  0  0  0
 19 20  1  0  0  0  0
 17 18  2  0  0  0  0
 17 19  1  0  0  0  0
 14 15  1  0  0  0  0
 14 16  1  0  0  0  0
 14 17  1  0  0  0  0
 11 12  1  0  0  0  0
 11 13  1  0  0  0  0
 11 14  1  0  0  0  0
  9 10  1  0  0  0  0
  9 11  1  0  0  0  0
  9 21  1  0  0  0  0
  7  8  1  0  0  0  0
  7  9  1  0  0  0  0
 25 26  1  0  0  0  0
 25 27  1  0  0  0  0
 25 28  1  0  0  0  0
 23 24  1  0  0  0  0
 23 25  1  0  0  0  0
M  END
$$$$
default_name
  -OEChem-02102213163D

 28 27  0     1  0  0  0  0  0999 V2000
   -3.2133   -3.5565    1.2809 H   0  0  0  0  0  0  0  0  0  0  0  0
   -3.1873   -2.5755    0.8089 C   0  0  0  0  0  0  0  0  0  0  0  0
   -3.8793   -1.9065    1.3169 H   0  0  0  0  0  0  0  0  0  0  0  0
   -3.4623   -2.6685   -0.2401 H   0  0  0  0  0  0  0  0  0  0  0  0
   -1.7863   -2.0195    0.9119 C   0  0  0  0  0  0  0  0  0  0  0  0
   -0.9073   -2.6615    1.4699 O   0  0  0  0  0  0  0  0  0  0  0  0
   -1.5803   -0.8195    0.3749 N   0  0  0  0  0  0  0  0  0  0  0  0
   -2.3603   -0.3345   -0.0451 H   0  0  0  0  0  0  0  0  0  0  0  0
   -0.2933   -0.1205    0.3719 C   0  0  1  0  0  0  0  0  0  0  0  0
    0.3577   -0.5843    1.1143 H   0  0  0  0  0  0  0  0  0  0  0  0
    0.3613   -0.2794   -1.0156 C   0  0  0  0  0  0  0  0  0  0  0  0
    1.4163   -0.0150   -0.9251 H   0  0  0  0  0  0  0  0  0  0  0  0
    0.2986   -1.3235   -1.3256 H   0  0  0  0  0  0  0  0  0  0  0  0
   -0.2765    0.5943   -2.1096 C   0  0  0  0  0  0  0  0  0  0  0  0
   -1.2372    0.9776   -1.7655 H   0  0  0  0  0  0  0  0  0  0  0  0
    0.3840    1.4325   -2.3285 H   0  0  0  0  0  0  0  0  0  0  0  0
   -0.5072   -0.1777   -3.4047 C   0  0  0  0  0  0  0  0  0  0  0  0
   -0.1193   -1.3146   -3.6210 O   0  0  0  0  0  0  0  0  0  0  0  0
   -1.1842    0.4842   -4.3614 O   0  0  0  0  0  0  0  0  0  0  0  0
   -1.2322   -0.1237   -5.1013 H   0  0  0  0  0  0  0  0  0  0  0  0
   -0.4860    1.3537    0.7622 C   0  0  0  0  0  0  0  0  0  0  0  0
   -1.3956    2.0096    0.2582 O   0  0  0  0  0  0  0  0  0  0  0  0
    0.3741    1.8728    1.6466 N   0  0  0  0  0  0  0  0  0  0  0  0
    1.0814    1.2667    2.0345 H   0  0  0  0  0  0  0  0  0  0  0  0
    0.3380    3.2610    2.1024 C   0  0  0  0  0  0  0  0  0  0  0  0
   -0.6389    3.4820    2.5363 H   0  0  0  0  0  0  0  0  0  0  0  0
    1.1108    3.4337    2.8528 H   0  0  0  0  0  0  0  0  0  0  0  0
    0.5009    3.9312    1.2562 H   0  0  0  0  0  0  0  0  0  0  0  0
  5  6  2  0  0  0  0
  5  7  1  0  0  0  0
  2  3  1  0  0  0  0
  2  4  1  0  0  0  0
  2  5  1  0  0  0  0
  1  2  1  0  0  0  0
 21 22  2  0  0  0  0
 21 23  1  0  0  0  0
 19 20  1  0  0  0  0
 17 18  2  0  0  0  0
 17 19  1  0  0  0  0
 14 15  1  0  0  0  0
 14 16  1  0  0  0  0
 14 17  1  0  0  0  0
 11 12  1  0  0  0  0
 11 13  1  0  0  0  0
 11 14  1  0  0  0  0
  9 10  1  0  0  0  0
  9 11  1  0  0  0  0
  9 21  1  0  0  0  0
  7  8  1  0  0  0  0
  7  9  1  0  0  0  0
 25 26  1  0  0  0  0
 25 27  1  0  0  0  0
 25 28  1  0  0  0  0
 23 24  1  0  0  0  0
 23 25  1  0  0  0  0
M  END
$$$$
default_name
  -OEChem-02102213163D

 28 27  0     1  0  0  0  0  0999 V2000
   -3.2133   -3.5565    1.2809 H   0  0  0  0  0  0  0  0  0  0  0  0
   -3.1873   -2.5755    0.8089 C   0  0  0  0  0  0  0  0  0  0  0  0
   -3.8793   -1.9065    1.3169 H   0  0  0  0  0  0  0  0  0  0  0  0
   -3.4623   -2.6685   -0.2401 H   0  0  0  0  0  0  0  0  0  0  0  0
   -1.7863   -2.0195    0.9119 C   0  0  0  0  0  0  0  0  0  0  0  0
   -0.9073   -2.6615    1.4699 O   0  0  0  0  0  0  0  0  0  0  0  0
   -1.5803   -0.8195    0.3749 N   0  0  0  0  0  0  0  0  0  0  0  0
   -2.3603   -0.3345   -0.0451 H   0  0  0  0  0  0  0  0  0  0  0  0
   -0.2933   -0.1205    0.3719 C   0  0  1  0  0  0  0  0  0  0  0  0
    0.3577   -0.5843    1.1143 H   0  0  0  0  0  0  0  0  0  0  0  0
    0.3613   -0.2794   -1.0156 C   0  0  0  0  0  0  0  0  0  0  0  0
    1.4163   -0.0150   -0.9251 H   0  0  0  0  0  0  0  0  0  0  0  0
    0.2986   -1.3235   -1.3256 H   0  0  0  0  0  0  0  0  0  0  0  0
   -0.2765    0.5943   -2.1096 C   0  0  0  0  0  0  0  0  0  0  0  0
   -1.0886    1.1854   -1.6861 H   0  0  0  0  0  0  0  0  0  0  0  0
    0.4785    1.2658   -2.5167 H   0  0  0  0  0  0  0  0  0  0  0  0
   -0.8400   -0.2367   -3.2578 C   0  0  0  0  0  0  0  0  0  0  0  0
   -0.6971   -1.4421   -3.3860 O   0  0  0  0  0  0  0  0  0  0  0  0
   -1.5316    0.4504   -4.1858 O   0  0  0  0  0  0  0  0  0  0  0  0
   -1.8014   -0.2034   -4.8332 H   0  0  0  0  0  0  0  0  0  0  0  0
   -0.4860    1.3537    0.7622 C   0  0  0  0  0  0  0  0  0  0  0  0
   -1.3956    2.0096    0.2582 O   0  0  0  0  0  0  0  0  0  0  0  0
    0.3741    1.8728    1.6466 N   0  0  0  0  0  0  0  0  0  0  0  0
    1.0814    1.2667    2.0345 H   0  0  0  0  0  0  0  0  0  0  0  0
    0.3380    3.2610    2.1024 C   0  0  0  0  0  0  0  0  0  0  0  0
   -0.6389    3.4820    2.5363 H   0  0  0  0  0  0  0  0  0  0  0  0
    1.1108    3.4337    2.8528 H   0  0  0  0  0  0  0  0  0  0  0  0
    0.5009    3.9312    1.2562 H   0  0  0  0  0  0  0  0  0  0  0  0
  5  6  2  0  0  0  0
  5  7  1  0  0  0  0
  2  3  1  0  0  0  0
  2  4  1  0  0  0  0
  2  5  1  0  0  0  0
  1  2  1  0  0  0  0
 21 22  2  0  0  0  0
 21 23  1  0  0  0  0
 19 20  1  0  0  0  0
 17 18  2  0  0  0  0
 17 19  1  0  0  0  0
 14 15  1  0  0  0  0
 14 16  1  0  0  0  0
 14 17  1  0  0  0  0
 11 12  1  0  0  0  0
 11 13  1  0  0  0  0
 11 14  1  0  0  0  0
  9 10  1  0  0  0  0
  9 11  1  0  0  0  0
  9 21  1  0  0  0  0
  7  8  1  0  0  0  0
  7  9  1  0  0  0  0
 25 26  1  0  0  0  0
 25 27  1  0  0  0  0
 25 28  1  0  0  0  0
 23 24  1  0  0  0  0
 23 25  1  0  0  0  0
M  END
$$$$
default_name
  -OEChem-02102213163D

 28 27  0     1  0  0  0  0  0999 V2000
   -3.2133   -3.5565    1.2809 H   0  0  0  0  0  0  0  0  0  0  0  0
   -3.1873   -2.5755    0.8089 C   0  0  0  0  0  0  0  0  0  0  0  0
   -3.8793   -1.9065    1.3169 H   0  0  0  0  0  0  0  0  0  0  0  0
   -3.4623   -2.6685   -0.2401 H   0  0  0  0  0  0  0  0  0  0  0  0
   -1.7863   -2.0195    0.9119 C   0  0  0  0  0  0  0  0  0  0  0  0
   -0.9073   -2.6615    1.4699 O   0  0  0  0  0  0  0  0  0  0  0  0
   -1.5803   -0.8195    0.3749 N   0  0  0  0  0  0  0  0  0  0  0  0
   -2.3603   -0.3345   -0.0451 H   0  0  0  0  0  0  0  0  0  0  0  0
   -0.2933   -0.1205    0.3719 C   0  0  1  0  0  0  0  0  0  0  0  0
    0.3577   -0.5843    1.1143 H   0  0  0  0  0  0  0  0  0  0  0  0
    0.3613   -0.2794   -1.0156 C   0  0  0  0  0  0  0  0  0  0  0  0
    1.4163   -0.0150   -0.9251 H   0  0  0  0  0  0  0  0  0  0  0  0
    0.2986   -1.3235   -1.3256 H   0  0  0  0  0  0  0  0  0  0  0  0
   -0.2765    0.5943   -2.1096 C   0  0  0  0  0  0  0  0  0  0  0  0
   -0.8952    1.3674   -1.6536 H   0  0  0  0  0  0  0  0  0  0  0  0
    0.5115    1.0672   -2.6945 H   0  0  0  0  0  0  0  0  0  0  0  0
   -1.1506   -0.2167   -3.0607 C   0  0  0  0  0  0  0  0  0  0  0  0
   -1.2441   -1.4337   -3.0604 O   0  0  0  0  0  0  0  0  0  0  0  0
   -1.8475    0.5006   -3.9616 O   0  0  0  0  0  0  0  0  0  0  0  0
   -2.3265   -0.1468   -4.4819 H   0  0  0  0  0  0  0  0  0  0  0  0
   -0.4860    1.3537    0.7622 C   0  0  0  0  0  0  0  0  0  0  0  0
   -1.3956    2.0096    0.2582 O   0  0  0  0  0  0  0  0  0  0  0  0
    0.3741    1.8728    1.6466 N   0  0  0  0  0  0  0  0  0  0  0  0
    1.0814    1.2667    2.0345 H   0  0  0  0  0  0  0  0  0  0  0  0
    0.3380    3.2610    2.1024 C   0  0  0  0  0  0  0  0  0  0  0  0
   -0.6389    3.4820    2.5363 H   0  0  0  0  0  0  0  0  0  0  0  0
    1.1108    3.4337    2.8528 H   0  0  0  0  0  0  0  0  0  0  0  0
    0.5009    3.9312    1.2562 H   0  0  0  0  0  0  0  0  0  0  0  0
  5  6  2  0  0  0  0
  5  7  1  0  0  0  0
  2  3  1  0  0  0  0
  2  4  1  0  0  0  0
  2  5  1  0  0  0  0
  1  2  1  0  0  0  0
 21 22  2  0  0  0  0
 21 23  1  0  0  0  0
 19 20  1  0  0  0  0
 17 18  2  0  0  0  0
 17 19  1  0  0  0  0
 14 15  1  0  0  0  0
 14 16  1  0  0  0  0
 14 17  1  0  0  0  0
 11 12  1  0  0  0  0
 11 13  1  0  0  0  0
 11 14  1  0  0  0  0
  9 10  1  0  0  0  0
  9 11  1  0  0  0  0
  9 21  1  0  0  0  0
  7  8  1  0  0  0  0
  7  9  1  0  0  0  0
 25 26  1  0  0  0  0
 25 27  1  0  0  0  0
 25 28  1  0  0  0  0
 23 24  1  0  0  0  0
 23 25  1  0  0  0  0
M  END
$$$$
default_name
  -OEChem-02102213163D

 28 27  0     1  0  0  0  0  0999 V2000
   -3.2133   -3.5565    1.2809 H   0  0  0  0  0  0  0  0  0  0  0  0
   -3.1873   -2.5755    0.8089 C   0  0  0  0  0  0  0  0  0  0  0  0
   -3.8793   -1.9065    1.3169 H   0  0  0  0  0  0  0  0  0  0  0  0
   -3.4623   -2.6685   -0.2401 H   0  0  0  0  0  0  0  0  0  0  0  0
   -1.7863   -2.0195    0.9119 C   0  0  0  0  0  0  0  0  0  0  0  0
   -0.9073   -2.6615    1.4699 O   0  0  0  0  0  0  0  0  0  0  0  0
   -1.5803   -0.8195    0.3749 N   0  0  0  0  0  0  0  0  0  0  0  0
   -2.3603   -0.3345   -0.0451 H   0  0  0  0  0  0  0  0  0  0  0  0
   -0.2933   -0.1205    0.3719 C   0  0  1  0  0  0  0  0  0  0  0  0
    0.3577   -0.5843    1.1143 H   0  0  0  0  0  0  0  0  0  0  0  0
    0.3613   -0.2794   -1.0156 C   0  0  0  0  0  0  0  0  0  0  0  0
    1.4163   -0.0150   -0.9251 H   0  0  0  0  0  0  0  0  0  0  0  0
    0.2986   -1.3235   -1.3256 H   0  0  0  0  0  0  0  0  0  0  0  0
   -0.2765    0.5943   -2.1096 C   0  0  0  0  0  0  0  0  0  0  0  0
   -0.6701    1.5110   -1.6702 H   0  0  0  0  0  0  0  0  0  0  0  0
    0.4806    0.8502   -2.8498 H   0  0  0  0  0  0  0  0  0  0  0  0
   -1.4181   -0.1190   -2.8268 C   0  0  0  0  0  0  0  0  0  0  0  0
   -1.7230   -1.2900   -2.6664 O   0  0  0  0  0  0  0  0  0  0  0  0
   -2.1105    0.6313   -3.7039 O   0  0  0  0  0  0  0  0  0  0  0  0
   -2.7716    0.0421   -4.0715 H   0  0  0  0  0  0  0  0  0  0  0  0
   -0.4860    1.3537    0.7622 C   0  0  0  0  0  0  0  0  0  0  0  0
   -1.3956    2.0096    0.2582 O   0  0  0  0  0  0  0  0  0  0  0  0
    0.3741    1.8728    1.6466 N   0  0  0  0  0  0  0  0  0  0  0  0
    1.0814    1.2667    2.0345 H   0  0  0  0  0  0  0  0  0  0  0  0
    0.3380    3.2610    2.1024 C   0  0  0  0  0  0  0  0  0  0  0  0
   -0.6389    3.4820    2.5363 H   0  0  0  0  0  0  0  0  0  0  0  0
    1.1108    3.4337    2.8528 H   0  0  0  0  0  0  0  0  0  0  0  0
    0.5009    3.9312    1.2562 H   0  0  0  0  0  0  0  0  0  0  0  0
  5  6  2  0  0  0  0
  5  7  1  0  0  0  0
  2  3  1  0  0  0  0
  2  4  1  0  0  0  0
  2  5  1  0  0  0  0
  1  2  1  0  0  0  0
 21 22  2  0  0  0  0
 21 23  1  0  0  0  0
 19 20  1  0  0  0  0
 17 18  2  0  0  0  0
 17 19  1  0  0  0  0
 14 15  1  0  0  0  0
 14 16  1  0  0  0  0
 14 17  1  0  0  0  0
 11 12  1  0  0  0  0
 11 13  1  0  0  0  0
 11 14  1  0  0  0  0
  9 10  1  0  0  0  0
  9 11  1  0  0  0  0
  9 21  1  0  0  0  0
  7  8  1  0  0  0  0
  7  9  1  0  0  0  0
 25 26  1  0  0  0  0
 25 27  1  0  0  0  0
 25 28  1  0  0  0  0
 23 24  1  0  0  0  0
 23 25  1  0  0  0  0
M  END
$$$$
default_name
  -OEChem-02102213163D

 28 27  0     1  0  0  0  0  0999 V2000
   -3.2133   -3.5565    1.2809 H   0  0  0  0  0  0  0  0  0  0  0  0
   -3.1873   -2.5755    0.8089 C   0  0  0  0  0  0  0  0  0  0  0  0
   -3.8793   -1.9065    1.3169 H   0  0  0  0  0  0  0  0  0  0  0  0
   -3.4623   -2.6685   -0.2401 H   0  0  0  0  0  0  0  0  0  0  0  0
   -1.7863   -2.0195    0.9119 C   0  0  0  0  0  0  0  0  0  0  0  0
   -0.9073   -2.6615    1.4699 O   0  0  0  0  0  0  0  0  0  0  0  0
   -1.5803   -0.8195    0.3749 N   0  0  0  0  0  0  0  0  0  0  0  0
   -2.3603   -0.3345   -0.0451 H   0  0  0  0  0  0  0  0  0  0  0  0
   -0.2933   -0.1205    0.3719 C   0  0  1  0  0  0  0  0  0  0  0  0
    0.3577   -0.5843    1.1143 H   0  0  0  0  0  0  0  0  0  0  0  0
    0.3613   -0.2794   -1.0156 C   0  0  0  0  0  0  0  0  0  0  0  0
    1.4163   -0.0150   -0.9251 H   0  0  0  0  0  0  0  0  0  0  0  0
    0.2986   -1.3235   -1.3256 H   0  0  0  0  0  0  0  0  0  0  0  0
   -0.2765    0.5943   -2.1096 C   0  0  0  0  0  0  0  0  0  0  0  0
   -0.4286    1.6065   -1.7346 H   0  0  0  0  0  0  0  0  0  0  0  0
    0.3881    0.6296   -2.9720 H   0  0  0  0  0  0  0  0  0  0  0  0
   -1.6241    0.0496   -2.5721 C   0  0  0  0  0  0  0  0  0  0  0  0
   -2.1013   -1.0207   -2.2308 O   0  0  0  0  0  0  0  0  0  0  0  0
   -2.3026    0.8335   -3.4304 O   0  0  0  0  0  0  0  0  0  0  0  0
   -3.1065    0.3506   -3.6299 H   0  0  0  0  0  0  0  0  0  0  0  0
   -0.4860    1.3537    0.7622 C   0  0  0  0  0  0  0  0  0  0  0  0
   -1.3956    2.0096    0.2582 O   0  0  0  0  0  0  0  0  0  0  0  0
    0.3741    1.8728    1.6466 N   0  0  0  0  0  0  0  0  0  0  0  0
    1.0814    1.2667    2.0345 H   0  0  0  0  0  0  0  0  0  0  0  0
    0.3380    3.2610    2.1024 C   0  0  0  0  0  0  0  0  0  0  0  0
   -0.6389    3.4820    2.5363 H   0  0  0  0  0  0  0  0  0  0  0  0
    1.1108    3.4337    2.8528 H   0  0  0  0  0  0  0  0  0  0  0  0
    0.5009    3.9312    1.2562 H   0  0  0  0  0  0  0  0  0  0  0  0
  5  6  2  0  0  0  0
  5  7  1  0  0  0  0
  2  3  1  0  0  0  0
  2  4  1  0  0  0  0
  2  5  1  0  0  0  0
  1  2  1  0  0  0  0
 21 22  2  0  0  0  0
 21 23  1  0  0  0  0
 19 20  1  0  0  0  0
 17 18  2  0  0  0  0
 17 19  1  0  0  0  0
 14 15  1  0  0  0  0
 14 16  1  0  0  0  0
 14 17  1  0  0  0  0
 11 12  1  0  0  0  0
 11 13  1  0  0  0  0
 11 14  1  0  0  0  0
  9 10  1  0  0  0  0
  9 11  1  0  0  0  0
  9 21  1  0  0  0  0
  7  8  1  0  0  0  0
  7  9  1  0  0  0  0
 25 26  1  0  0  0  0
 25 27  1  0  0  0  0
 25 28  1  0  0  0  0
 23 24  1  0  0  0  0
 23 25  1  0  0  0  0
M  END
$$$$
default_name
  -OEChem-02102213163D

 28 27  0     1  0  0  0  0  0999 V2000
   -3.2133   -3.5565    1.2809 H   0  0  0  0  0  0  0  0  0  0  0  0
   -3.1873   -2.5755    0.8089 C   0  0  0  0  0  0  0  0  0  0  0  0
   -3.8793   -1.9065    1.3169 H   0  0  0  0  0  0  0  0  0  0  0  0
   -3.4623   -2.6685   -0.2401 H   0  0  0  0  0  0  0  0  0  0  0  0
   -1.7863   -2.0195    0.9119 C   0  0  0  0  0  0  0  0  0  0  0  0
   -0.9073   -2.6615    1.4699 O   0  0  0  0  0  0  0  0  0  0  0  0
   -1.5803   -0.8195    0.3749 N   0  0  0  0  0  0  0  0  0  0  0  0
   -2.3603   -0.3345   -0.0451 H   0  0  0  0  0  0  0  0  0  0  0  0
   -0.2933   -0.1205    0.3719 C   0  0  1  0  0  0  0  0  0  0  0  0
    0.3577   -0.5843    1.1143 H   0  0  0  0  0  0  0  0  0  0  0  0
    0.3613   -0.2794   -1.0156 C   0  0  0  0  0  0  0  0  0  0  0  0
    1.4163   -0.0150   -0.9251 H   0  0  0  0  0  0  0  0  0  0  0  0
    0.2986   -1.3235   -1.3256 H   0  0  0  0  0  0  0  0  0  0  0  0
   -0.2765    0.5943   -2.1096 C   0  0  0  0  0  0  0  0  0  0  0  0
   -0.1873    1.6474   -1.8427 H   0  0  0  0  0  0  0  0  0  0  0  0
    0.2401    0.4205   -3.0528 H   0  0  0  0  0  0  0  0  0  0  0  0
   -1.7545    0.2777   -2.3138 C   0  0  0  0  0  0  0  0  0  0  0  0
   -2.3531   -0.6443   -1.7834 O   0  0  0  0  0  0  0  0  0  0  0  0
   -2.4107    1.0936   -3.1596 O   0  0  0  0  0  0  0  0  0  0  0  0
   -3.3083    0.7575   -3.1873 H   0  0  0  0  0  0  0  0  0  0  0  0
   -0.4860    1.3537    0.7622 C   0  0  0  0  0  0  0  0  0  0  0  0
   -1.3956    2.0096    0.2582 O   0  0  0  0  0  0  0  0  0  0  0  0
    0.3741    1.8728    1.6466 N   0  0  0  0  0  0  0  0  0  0  0  0
    1.0814    1.2667    2.0345 H   0  0  0  0  0  0  0  0  0  0  0  0
    0.3380    3.2610    2.1024 C   0  0  0  0  0  0  0  0  0  0  0  0
   -0.6389    3.4820    2.5363 H   0  0  0  0  0  0  0  0  0  0  0  0
    1.1108    3.4337    2.8528 H   0  0  0  0  0  0  0  0  0  0  0  0
    0.5009    3.9312    1.2562 H   0  0  0  0  0  0  0  0  0  0  0  0
  5  6  2  0  0  0  0
  5  7  1  0  0  0  0
  2  3  1  0  0  0  0
  2  4  1  0  0  0  0
  2  5  1  0  0  0  0
  1  2  1  0  0  0  0
 21 22  2  0  0  0  0
 21 23  1  0  0  0  0
 19 20  1  0  0  0  0
 17 18  2  0  0  0  0
 17 19  1  0  0  0  0
 14 15  1  0  0  0  0
 14 16  1  0  0  0  0
 14 17  1  0  0  0  0
 11 12  1  0  0  0  0
 11 13  1  0  0  0  0
 11 14  1  0  0  0  0
  9 10  1  0  0  0  0
  9 11  1  0  0  0  0
  9 21  1  0  0  0  0
  7  8  1  0  0  0  0
  7  9  1  0  0  0  0
 25 26  1  0  0  0  0
 25 27  1  0  0  0  0
 25 28  1  0  0  0  0
 23 24  1  0  0  0  0
 23 25  1  0  0  0  0
M  END
$$$$
default_name
  -OEChem-02102213163D

 28 27  0     1  0  0  0  0  0999 V2000
   -3.2133   -3.5565    1.2809 H   0  0  0  0  0  0  0  0  0  0  0  0
   -3.1873   -2.5755    0.8089 C   0  0  0  0  0  0  0  0  0  0  0  0
   -3.8793   -1.9065    1.3169 H   0  0  0  0  0  0  0  0  0  0  0  0
   -3.4623   -2.6685   -0.2401 H   0  0  0  0  0  0  0  0  0  0  0  0
   -1.7863   -2.0195    0.9119 C   0  0  0  0  0  0  0  0  0  0  0  0
   -0.9073   -2.6615    1.4699 O   0  0  0  0  0  0  0  0  0  0  0  0
   -1.5803   -0.8195    0.3749 N   0  0  0  0  0  0  0  0  0  0  0  0
   -2.3603   -0.3345   -0.0451 H   0  0  0  0  0  0  0  0  0  0  0  0
   -0.2933   -0.1205    0.3719 C   0  0  1  0  0  0  0  0  0  0  0  0
    0.3577   -0.5843    1.1143 H   0  0  0  0  0  0  0  0  0  0  0  0
    0.3613   -0.2794   -1.0156 C   0  0  0  0  0  0  0  0  0  0  0  0
    1.4163   -0.0150   -0.9251 H   0  0  0  0  0  0  0  0  0  0  0  0
    0.2986   -1.3235   -1.3256 H   0  0  0  0  0  0  0  0  0  0  0  0
   -0.2765    0.5943   -2.1096 C   0  0  0  0  0  0  0  0  0  0  0  0
    0.0375    1.6309   -1.9869 H   0  0  0  0  0  0  0  0  0  0  0  0
    0.0468    0.2371   -3.0866 H   0  0  0  0  0  0  0  0  0  0  0  0
   -1.8006    0.5498   -2.0697 C   0  0  0  0  0  0  0  0  0  0  0  0
   -2.4613   -0.1864   -1.3546 O   0  0  0  0  0  0  0  0  0  0  0  0
   -2.4275    1.3938   -2.9101 O   0  0  0  0  0  0  0  0  0  0  0  0
   -3.3632    1.2352   -2.7737 H   0  0  0  0  0  0  0  0  0  0  0  0
   -0.4860    1.3537    0.7622 C   0  0  0  0  0  0  0  0  0  0  0  0
   -1.3956    2.0096    0.2582 O   0  0  0  0  0  0  0  0  0  0  0  0
    0.3741    1.8728    1.6466 N   0  0  0  0  0  0  0  0  0  0  0  0
    1.0814    1.2667    2.0345 H   0  0  0  0  0  0  0  0  0  0  0  0
    0.3380    3.2610    2.1024 C   0  0  0  0  0  0  0  0  0  0  0  0
   -0.6389    3.4820    2.5363 H   0  0  0  0  0  0  0  0  0  0  0  0
    1.1108    3.4337    2.8528 H   0  0  0  0  0  0  0  0  0  0  0  0
    0.5009    3.9312    1.2562 H   0  0  0  0  0  0  0  0  0  0  0  0
  5  6  2  0  0  0  0
  5  7  1  0  0  0  0
  2  3  1  0  0  0  0
  2  4  1  0  0  0  0
  2  5  1  0  0  0  0
  1  2  1  0  0  0  0
 21 22  2  0  0  0  0
 21 23  1  0  0  0  0
 19 20  1  0  0  0  0
 17 18  2  0  0  0  0
 17 19  1  0  0  0  0
 14 15  1  0  0  0  0
 14 16  1  0  0  0  0
 14 17  1  0  0  0  0
 11 12  1  0  0  0  0
 11 13  1  0  0  0  0
 11 14  1  0  0  0  0
  9 10  1  0  0  0  0
  9 11  1  0  0  0  0
  9 21  1  0  0  0  0
  7  8  1  0  0  0  0
  7  9  1  0  0  0  0
 25 26  1  0  0  0  0
 25 27  1  0  0  0  0
 25 28  1  0  0  0  0
 23 24  1  0  0  0  0
 23 25  1  0  0  0  0
M  END
$$$$
default_name
  -OEChem-02102213163D

 28 27  0     1  0  0  0  0  0999 V2000
   -3.2133   -3.5565    1.2809 H   0  0  0  0  0  0  0  0  0  0  0  0
   -3.1873   -2.5755    0.8089 C   0  0  0  0  0  0  0  0  0  0  0  0
   -3.8793   -1.9065    1.3169 H   0  0  0  0  0  0  0  0  0  0  0  0
   -3.4623   -2.6685   -0.2401 H   0  0  0  0  0  0  0  0  0  0  0  0
   -1.7863   -2.0195    0.9119 C   0  0  0  0  0  0  0  0  0  0  0  0
   -0.9073   -2.6615    1.4699 O   0  0  0  0  0  0  0  0  0  0  0  0
   -1.5803   -0.8195    0.3749 N   0  0  0  0  0  0  0  0  0  0  0  0
   -2.3603   -0.3345   -0.0451 H   0  0  0  0  0  0  0  0  0  0  0  0
   -0.2933   -0.1205    0.3719 C   0  0  1  0  0  0  0  0  0  0  0  0
    0.3577   -0.5843    1.1143 H   0  0  0  0  0  0  0  0  0  0  0  0
    0.3613   -0.2794   -1.0156 C   0  0  0  0  0  0  0  0  0  0  0  0
    1.4163   -0.0150   -0.9251 H   0  0  0  0  0  0  0  0  0  0  0  0
    0.2986   -1.3235   -1.3256 H   0  0  0  0  0  0  0  0  0  0  0  0
   -0.2765    0.5943   -2.1096 C   0  0  0  0  0  0  0  0  0  0  0  0
    0.2304    1.5582   -2.1574 H   0  0  0  0  0  0  0  0  0  0  0  0
   -0.1786    0.0918   -3.0712 H   0  0  0  0  0  0  0  0  0  0  0  0
   -1.7592    0.8473   -1.8562 C   0  0  0  0  0  0  0  0  0  0  0  0
   -2.4185    0.3219   -0.9736 O   0  0  0  0  0  0  0  0  0  0  0  0
   -2.3518    1.7135   -2.6989 O   0  0  0  0  0  0  0  0  0  0  0  0
   -3.2676    1.7512   -2.4174 H   0  0  0  0  0  0  0  0  0  0  0  0
   -0.4860    1.3537    0.7622 C   0  0  0  0  0  0  0  0  0  0  0  0
   -1.3956    2.0096    0.2582 O   0  0  0  0  0  0  0  0  0  0  0  0
    0.3741    1.8728    1.6466 N   0  0  0  0  0  0  0  0  0  0  0  0
    1.0814    1.2667    2.0345 H   0  0  0  0  0  0  0  0  0  0  0  0
    0.3380    3.2610    2.1024 C   0  0  0  0  0  0  0  0  0  0  0  0
   -0.6389    3.4820    2.5363 H   0  0  0  0  0  0  0  0  0  0  0  0
    1.1108    3.4337    2.8528 H   0  0  0  0  0  0  0  0  0  0  0  0
    0.5009    3.9312    1.2562 H   0  0  0  0  0  0  0  0  0  0  0  0
  5  6  2  0  0  0  0
  5  7  1  0  0  0  0
  2  3  1  0  0  0  0
  2  4  1  0  0  0  0
  2  5  1  0  0  0  0
  1  2  1  0  0  0  0
 21 22  2  0  0  0  0
 21 23  1  0  0  0  0
 19 20  1  0  0  0  0
 17 18  2  0  0  0  0
 17 19  1  0  0  0  0
 14 15  1  0  0  0  0
 14 16  1  0  0  0  0
 14 17  1  0  0  0  0
 11 12  1  0  0  0  0
 11 13  1  0  0  0  0
 11 14  1  0  0  0  0
  9 10  1  0  0  0  0
  9 11  1  0  0  0  0
  9 21  1  0  0  0  0
  7  8  1  0  0  0  0
  7  9  1  0  0  0  0
 25 26  1  0  0  0  0
 25 27  1  0  0  0  0
 25 28  1  0  0  0  0
 23 24  1  0  0  0  0
 23 25  1  0  0  0  0
M  END
$$$$
default_name
  -OEChem-02102213163D

 28 27  0     1  0  0  0  0  0999 V2000
   -3.2133   -3.5565    1.2809 H   0  0  0  0  0  0  0  0  0  0  0  0
   -3.1873   -2.5755    0.8089 C   0  0  0  0  0  0  0  0  0  0  0  0
   -3.8793   -1.9065    1.3169 H   0  0  0  0  0  0  0  0  0  0  0  0
   -3.4623   -2.6685   -0.2401 H   0  0  0  0  0  0  0  0  0  0  0  0
   -1.7863   -2.0195    0.9119 C   0  0  0  0  0  0  0  0  0  0  0  0
   -0.9073   -2.6615    1.4699 O   0  0  0  0  0  0  0  0  0  0  0  0
   -1.5803   -0.8195    0.3749 N   0  0  0  0  0  0  0  0  0  0  0  0
   -2.3603   -0.3345   -0.0451 H   0  0  0  0  0  0  0  0  0  0  0  0
   -0.2933   -0.1205    0.3719 C   0  0  1  0  0  0  0  0  0  0  0  0
    0.3577   -0.5843    1.1143 H   0  0  0  0  0  0  0  0  0  0  0  0
    0.3613   -0.2794   -1.0156 C   0  0  0  0  0  0  0  0  0  0  0  0
    1.4163   -0.0150   -0.9251 H   0  0  0  0  0  0  0  0  0  0  0  0
    0.2986   -1.3235   -1.3256 H   0  0  0  0  0  0  0  0  0  0  0  0
   -0.2765    0.5943   -2.1096 C   0  0  0  0  0  0  0  0  0  0  0  0
    0.3782    1.4341   -2.3427 H   0  0  0  0  0  0  0  0  0  0  0  0
   -0.4208   -0.0053   -3.0075 H   0  0  0  0  0  0  0  0  0  0  0  0
   -1.6330    1.1499   -1.6881 C   0  0  0  0  0  0  0  0  0  0  0  0
   -2.2276    0.8459   -0.6664 O   0  0  0  0  0  0  0  0  0  0  0  0
   -2.1888    2.0312   -2.5403 O   0  0  0  0  0  0  0  0  0  0  0  0
   -3.0279    2.2701   -2.1427 H   0  0  0  0  0  0  0  0  0  0  0  0
   -0.4860    1.3537    0.7622 C   0  0  0  0  0  0  0  0  0  0  0  0
   -1.3956    2.0096    0.2582 O   0  0  0  0  0  0  0  0  0  0  0  0
    0.3741    1.8728    1.6466 N   0  0  0  0  0  0  0  0  0  0  0  0
    1.0814    1.2667    2.0345 H   0  0  0  0  0  0  0  0  0  0  0  0
    0.3380    3.2610    2.1024 C   0  0  0  0  0  0  0  0  0  0  0  0
   -0.6389    3.4820    2.5363 H   0  0  0  0  0  0  0  0  0  0  0  0
    1.1108    3.4337    2.8528 H   0  0  0  0  0  0  0  0  0  0  0  0
    0.5009    3.9312    1.2562 H   0  0  0  0  0  0  0  0  0  0  0  0
  5  6  2  0  0  0  0
  5  7  1  0  0  0  0
  2  3  1  0  0  0  0
  2  4  1  0  0  0  0
  2  5  1  0  0  0  0
  1  2  1  0  0  0  0
 21 22  2  0  0  0  0
 21 23  1  0  0  0  0
 19 20  1  0  0  0  0
 17 18  2  0  0  0  0
 17 19  1  0  0  0  0
 14 15  1  0  0  0  0
 14 16  1  0  0  0  0
 14 17  1  0  0  0  0
 11 12  1  0  0  0  0
 11 13  1  0  0  0  0
 11 14  1  0  0  0  0
  9 10  1  0  0  0  0
  9 11  1  0  0  0  0
  9 21  1  0  0  0  0
  7  8  1  0  0  0  0
  7  9  1  0  0  0  0
 25 26  1  0  0  0  0
 25 27  1  0  0  0  0
 25 28  1  0  0  0  0
 23 24  1  0  0  0  0
 23 25  1  0  0  0  0
M  END
$$$$
default_name
  -OEChem-02102213163D

 28 27  0     1  0  0  0  0  0999 V2000
   -3.2133   -3.5565    1.2809 H   0  0  0  0  0  0  0  0  0  0  0  0
   -3.1873   -2.5755    0.8089 C   0  0  0  0  0  0  0  0  0  0  0  0
   -3.8793   -1.9065    1.3169 H   0  0  0  0  0  0  0  0  0  0  0  0
   -3.4623   -2.6685   -0.2401 H   0  0  0  0  0  0  0  0  0  0  0  0
   -1.7863   -2.0195    0.9119 C   0  0  0  0  0  0  0  0  0  0  0  0
   -0.9073   -2.6615    1.4699 O   0  0  0  0  0  0  0  0  0  0  0  0
   -1.5803   -0.8195    0.3749 N   0  0  0  0  0  0  0  0  0  0  0  0
   -2.3603   -0.3345   -0.0451 H   0  0  0  0  0  0  0  0  0  0  0  0
   -0.2933   -0.1205    0.3719 C   0  0  1  0  0  0  0  0  0  0  0  0
    0.3577   -0.5843    1.1143 H   0  0  0  0  0  0  0  0  0  0  0  0
    0.3613   -0.2794   -1.0156 C   0  0  0  0  0  0  0  0  0  0  0  0
    1.4163   -0.0150   -0.9251 H   0  0  0  0  0  0  0  0  0  0  0  0
    0.2986   -1.3235   -1.3256 H   0  0  0  0  0  0  0  0  0  0  0  0
   -0.2765    0.5943   -2.1096 C   0  0  0  0  0  0  0  0  0  0  0  0
    0.4709    1.2671   -2.5301 H   0  0  0  0  0  0  0  0  0  0  0  0
   -0.6633   -0.0477   -2.9001 H   0  0  0  0  0  0  0  0  0  0  0  0
   -1.4308    1.4371   -1.5767 C   0  0  0  0  0  0  0  0  0  0  0  0
   -1.9017    1.3498   -0.4540 O   0  0  0  0  0  0  0  0  0  0  0  0
   -1.9495    2.3250   -2.4451 O   0  0  0  0  0  0  0  0  0  0  0  0
   -2.6605    2.7568   -1.9682 H   0  0  0  0  0  0  0  0  0  0  0  0
   -0.4860    1.3537    0.7622 C   0  0  0  0  0  0  0  0  0  0  0  0
   -1.3956    2.0096    0.2582 O   0  0  0  0  0  0  0  0  0  0  0  0
    0.3741    1.8728    1.6466 N   0  0  0  0  0  0  0  0  0  0  0  0
    1.0814    1.2667    2.0345 H   0  0  0  0  0  0  0  0  0  0  0  0
    0.3380    3.2610    2.1024 C   0  0  0  0  0  0  0  0  0  0  0  0
   -0.6389    3.4820    2.5363 H   0  0  0  0  0  0  0  0  0  0  0  0
    1.1108    3.4337    2.8528 H   0  0  0  0  0  0  0  0  0  0  0  0
    0.5009    3.9312    1.2562 H   0  0  0  0  0  0  0  0  0  0  0  0
  5  6  2  0  0  0  0
  5  7  1  0  0  0  0
  2  3  1  0  0  0  0
  2  4  1  0  0  0  0
  2  5  1  0  0  0  0
  1  2  1  0  0  0  0
 21 22  2  0  0  0  0
 21 23  1  0  0  0  0
 19 20  1  0  0  0  0
 17 18  2  0  0  0  0
 17 19  1  0  0  0  0
 14 15  1  0  0  0  0
 14 16  1  0  0  0  0
 14 17  1  0  0  0  0
 11 12  1  0  0  0  0
 11 13  1  0  0  0  0
 11 14  1  0  0  0  0
  9 10  1  0  0  0  0
  9 11  1  0  0  0  0
  9 21  1  0  0  0  0
  7  8  1  0  0  0  0
  7  9  1  0  0  0  0
 25 26  1  0  0  0  0
 25 27  1  0  0  0  0
 25 28  1  0  0  0  0
 23 24  1  0  0  0  0
 23 25  1  0  0  0  0
M  END
$$$$
default_name
  -OEChem-02102213163D

 28 27  0     1  0  0  0  0  0999 V2000
   -3.2133   -3.5565    1.2809 H   0  0  0  0  0  0  0  0  0  0  0  0
   -3.1873   -2.5755    0.8089 C   0  0  0  0  0  0  0  0  0  0  0  0
   -3.8793   -1.9065    1.3169 H   0  0  0  0  0  0  0  0  0  0  0  0
   -3.4623   -2.6685   -0.2401 H   0  0  0  0  0  0  0  0  0  0  0  0
   -1.7863   -2.0195    0.9119 C   0  0  0  0  0  0  0  0  0  0  0  0
   -0.9073   -2.6615    1.4699 O   0  0  0  0  0  0  0  0  0  0  0  0
   -1.5803   -0.8195    0.3749 N   0  0  0  0  0  0  0  0  0  0  0  0
   -2.3603   -0.3345   -0.0451 H   0  0  0  0  0  0  0  0  0  0  0  0
   -0.2933   -0.1205    0.3719 C   0  0  1  0  0  0  0  0  0  0  0  0
    0.3577   -0.5843    1.1143 H   0  0  0  0  0  0  0  0  0  0  0  0
    0.3613   -0.2794   -1.0156 C   0  0  0  0  0  0  0  0  0  0  0  0
    1.4163   -0.0150   -0.9251 H   0  0  0  0  0  0  0  0  0  0  0  0
    0.2986   -1.3235   -1.3256 H   0  0  0  0  0  0  0  0  0  0  0  0
   -0.2765    0.5943   -2.1096 C   0  0  0  0  0  0  0  0  0  0  0  0
    0.5023    1.0687   -2.7068 H   0  0  0  0  0  0  0  0  0  0  0  0
   -0.8895   -0.0326   -2.7561 H   0  0  0  0  0  0  0  0  0  0  0  0
   -1.1662    1.6891   -1.5296 C   0  0  0  0  0  0  0  0  0  0  0  0
   -1.4629    1.7993   -0.3508 O   0  0  0  0  0  0  0  0  0  0  0  0
   -1.6504    2.5750   -2.4198 O   0  0  0  0  0  0  0  0  0  0  0  0
   -2.1904    3.1779   -1.9059 H   0  0  0  0  0  0  0  0  0  0  0  0
   -0.4860    1.3537    0.7622 C   0  0  0  0  0  0  0  0  0  0  0  0
   -1.3956    2.0096    0.2582 O   0  0  0  0  0  0  0  0  0  0  0  0
    0.3741    1.8728    1.6466 N   0  0  0  0  0  0  0  0  0  0  0  0
    1.0814    1.2667    2.0345 H   0  0  0  0  0  0  0  0  0  0  0  0
    0.3380    3.2610    2.1024 C   0  0  0  0  0  0  0  0  0  0  0  0
   -0.6389    3.4820    2.5363 H   0  0  0  0  0  0  0  0  0  0  0  0
    1.1108    3.4337    2.8528 H   0  0  0  0  0  0  0  0  0  0  0  0
    0.5009    3.9312    1.2562 H   0  0  0  0  0  0  0  0  0  0  0  0
  5  6  2  0  0  0  0
  5  7  1  0  0  0  0
  2  3  1  0  0  0  0
  2  4  1  0  0  0  0
  2  5  1  0  0  0  0
  1  2  1  0  0  0  0
 21 22  2  0  0  0  0
 21 23  1  0  0  0  0
 19 20  1  0  0  0  0
 17 18  2  0  0  0  0
 17 19  1  0  0  0  0
 14 15  1  0  0  0  0
 14 16  1  0  0  0  0
 14 17  1  0  0  0  0
 11 12  1  0  0  0  0
 11 13  1  0  0  0  0
 11 14  1  0  0  0  0
  9 10  1  0  0  0  0
  9 11  1  0  0  0  0
  9 21  1  0  0  0  0
  7  8  1  0  0  0  0
  7  9  1  0  0  0  0
 25 26  1  0  0  0  0
 25 27  1  0  0  0  0
 25 28  1  0  0  0  0
 23 24  1  0  0  0  0
 23 25  1  0  0  0  0
M  END
$$$$
default_name
  -OEChem-02102213163D

 28 27  0     1  0  0  0  0  0999 V2000
   -3.2133   -3.5565    1.2809 H   0  0  0  0  0  0  0  0  0  0  0  0
   -3.1873   -2.5755    0.8089 C   0  0  0  0  0  0  0  0  0  0  0  0
   -3.8793   -1.9065    1.3169 H   0  0  0  0  0  0  0  0  0  0  0  0
   -3.4623   -2.6685   -0.2401 H   0  0  0  0  0  0  0  0  0  0  0  0
   -1.7863   -2.0195    0.9119 C   0  0  0  0  0  0  0  0  0  0  0  0
   -0.9073   -2.6615    1.4699 O   0  0  0  0  0  0  0  0  0  0  0  0
   -1.5803   -0.8195    0.3749 N   0  0  0  0  0  0  0  0  0  0  0  0
   -2.3603   -0.3345   -0.0451 H   0  0  0  0  0  0  0  0  0  0  0  0
   -0.2933   -0.1205    0.3719 C   0  0  1  0  0  0  0  0  0  0  0  0
    0.3577   -0.5843    1.1143 H   0  0  0  0  0  0  0  0  0  0  0  0
    0.3613   -0.2794   -1.0156 C   0  0  0  0  0  0  0  0  0  0  0  0
    1.4163   -0.0150   -0.9251 H   0  0  0  0  0  0  0  0  0  0  0  0
    0.2986   -1.3235   -1.3256 H   0  0  0  0  0  0  0  0  0  0  0  0
   -0.2765    0.5943   -2.1096 C   0  0  0  0  0  0  0  0  0  0  0  0
    0.4700    0.8523   -2.8608 H   0  0  0  0  0  0  0  0  0  0  0  0
   -1.0841    0.0392   -2.5854 H   0  0  0  0  0  0  0  0  0  0  0  0
   -0.8573    1.8890   -1.5501 C   0  0  0  0  0  0  0  0  0  0  0  0
   -0.9411    2.1639   -0.3638 O   0  0  0  0  0  0  0  0  0  0  0  0
   -1.3117    2.7641   -2.4662 O   0  0  0  0  0  0  0  0  0  0  0  0
   -1.6496    3.5049   -1.9600 H   0  0  0  0  0  0  0  0  0  0  0  0
   -0.4860    1.3537    0.7622 C   0  0  0  0  0  0  0  0  0  0  0  0
   -1.3956    2.0096    0.2582 O   0  0  0  0  0  0  0  0  0  0  0  0
    0.3741    1.8728    1.6466 N   0  0  0  0  0  0  0  0  0  0  0  0
    1.0814    1.2667    2.0345 H   0  0  0  0  0  0  0  0  0  0  0  0
    0.3380    3.2610    2.1024 C   0  0  0  0  0  0  0  0  0  0  0  0
   -0.6389    3.4820    2.5363 H   0  0  0  0  0  0  0  0  0  0  0  0
    1.1108    3.4337    2.8528 H   0  0  0  0  0  0  0  0  0  0  0  0
    0.5009    3.9312    1.2562 H   0  0  0  0  0  0  0  0  0  0  0  0
  5  6  2  0  0  0  0
  5  7  1  0  0  0  0
  2  3  1  0  0  0  0
  2  4  1  0  0  0  0
  2  5  1  0  0  0  0
  1  2  1  0  0  0  0
 21 22  2  0  0  0  0
 21 23  1  0  0  0  0
 19 20  1  0  0  0  0
 17 18  2  0  0  0  0
 17 19  1  0  0  0  0
 14 15  1  0  0  0  0
 14 16  1  0  0  0  0
 14 17  1  0  0  0  0
 11 12  1  0  0  0  0
 11 13  1  0  0  0  0
 11 14  1  0  0  0  0
  9 10  1  0  0  0  0
  9 11  1  0  0  0  0
  9 21  1  0  0  0  0
  7  8  1  0  0  0  0
  7  9  1  0  0  0  0
 25 26  1  0  0  0  0
 25 27  1  0  0  0  0
 25 28  1  0  0  0  0
 23 24  1  0  0  0  0
 23 25  1  0  0  0  0
M  END
$$$$
default_name
  -OEChem-02102213163D

 28 27  0     1  0  0  0  0  0999 V2000
   -3.2133   -3.5565    1.2809 H   0  0  0  0  0  0  0  0  0  0  0  0
   -3.1873   -2.5755    0.8089 C   0  0  0  0  0  0  0  0  0  0  0  0
   -3.8793   -1.9065    1.3169 H   0  0  0  0  0  0  0  0  0  0  0  0
   -3.4623   -2.6685   -0.2401 H   0  0  0  0  0  0  0  0  0  0  0  0
   -1.7863   -2.0195    0.9119 C   0  0  0  0  0  0  0  0  0  0  0  0
   -0.9073   -2.6615    1.4699 O   0  0  0  0  0  0  0  0  0  0  0  0
   -1.5803   -0.8195    0.3749 N   0  0  0  0  0  0  0  0  0  0  0  0
   -2.3603   -0.3345   -0.0451 H   0  0  0  0  0  0  0  0  0  0  0  0
   -0.2933   -0.1205    0.3719 C   0  0  1  0  0  0  0  0  0  0  0  0
    0.3577   -0.5843    1.1143 H   0  0  0  0  0  0  0  0  0  0  0  0
    0.3613   -0.2794   -1.0156 C   0  0  0  0  0  0  0  0  0  0  0  0
    1.4163   -0.0150   -0.9251 H   0  0  0  0  0  0  0  0  0  0  0  0
    0.2986   -1.3235   -1.3256 H   0  0  0  0  0  0  0  0  0  0  0  0
   -0.2765    0.5943   -2.1096 C   0  0  0  0  0  0  0  0  0  0  0  0
    0.3764    0.6327   -2.9816 H   0  0  0  0  0  0  0  0  0  0  0  0
   -1.2337    0.1626   -2.3995 H   0  0  0  0  0  0  0  0  0  0  0  0
   -0.5252    2.0230   -1.6367 C   0  0  0  0  0  0  0  0  0  0  0  0
   -0.3720    2.4186   -0.4922 O   0  0  0  0  0  0  0  0  0  0  0  0
   -0.9566    2.8795   -2.5811 O   0  0  0  0  0  0  0  0  0  0  0  0
   -1.0751    3.7155   -2.1269 H   0  0  0  0  0  0  0  0  0  0  0  0
   -0.4860    1.3537    0.7622 C   0  0  0  0  0  0  0  0  0  0  0  0
   -1.3956    2.0096    0.2582 O   0  0  0  0  0  0  0  0  0  0  0  0
    0.3741    1.8728    1.6466 N   0  0  0  0  0  0  0  0  0  0  0  0
    1.0814    1.2667    2.0345 H   0  0  0  0  0  0  0  0  0  0  0  0
    0.3380    3.2610    2.1024 C   0  0  0  0  0  0  0  0  0  0  0  0
   -0.6389    3.4820    2.5363 H   0  0  0  0  0  0  0  0  0  0  0  0
    1.1108    3.4337    2.8528 H   0  0  0  0  0  0  0  0  0  0  0  0
    0.5009    3.9312    1.2562 H   0  0  0  0  0  0  0  0  0  0  0  0
  5  6  2  0  0  0  0
  5  7  1  0  0  0  0
  2  3  1  0  0  0  0
  2  4  1  0  0  0  0
  2  5  1  0  0  0  0
  1  2  1  0  0  0  0
 21 22  2  0  0  0  0
 21 23  1  0  0  0  0
 19 20  1  0  0  0  0
 17 18  2  0  0  0  0
 17 19  1  0  0  0  0
 14 15  1  0  0  0  0
 14 16  1  0  0  0  0
 14 17  1  0  0  0  0
 11 12  1  0  0  0  0
 11 13  1  0  0  0  0
 11 14  1  0  0  0  0
  9 10  1  0  0  0  0
  9 11  1  0  0  0  0
  9 21  1  0  0  0  0
  7  8  1  0  0  0  0
  7  9  1  0  0  0  0
 25 26  1  0  0  0  0
 25 27  1  0  0  0  0
 25 28  1  0  0  0  0
 23 24  1  0  0  0  0
 23 25  1  0  0  0  0
M  END
$$$$
default_name
  -OEChem-02102213163D

 28 27  0     1  0  0  0  0  0999 V2000
   -3.2133   -3.5565    1.2809 H   0  0  0  0  0  0  0  0  0  0  0  0
   -3.1873   -2.5755    0.8089 C   0  0  0  0  0  0  0  0  0  0  0  0
   -3.8793   -1.9065    1.3169 H   0  0  0  0  0  0  0  0  0  0  0  0
   -3.4623   -2.6685   -0.2401 H   0  0  0  0  0  0  0  0  0  0  0  0
   -1.7863   -2.0195    0.9119 C   0  0  0  0  0  0  0  0  0  0  0  0
   -0.9073   -2.6615    1.4699 O   0  0  0  0  0  0  0  0  0  0  0  0
   -1.5803   -0.8195    0.3749 N   0  0  0  0  0  0  0  0  0  0  0  0
   -2.3603   -0.3345   -0.0451 H   0  0  0  0  0  0  0  0  0  0  0  0
   -0.2933   -0.1205    0.3719 C   0  0  1  0  0  0  0  0  0  0  0  0
    0.3577   -0.5843    1.1143 H   0  0  0  0  0  0  0  0  0  0  0  0
    0.3613   -0.2794   -1.0156 C   0  0  0  0  0  0  0  0  0  0  0  0
    1.4163   -0.0150   -0.9251 H   0  0  0  0  0  0  0  0  0  0  0  0
    0.2986   -1.3235   -1.3256 H   0  0  0  0  0  0  0  0  0  0  0  0
   -0.2765    0.5943   -2.1096 C   0  0  0  0  0  0  0  0  0  0  0  0
    0.2278    0.4249   -3.0610 H   0  0  0  0  0  0  0  0  0  0  0  0
   -1.3282    0.3293   -2.2113 H   0  0  0  0  0  0  0  0  0  0  0  0
   -0.1924    2.0820   -1.7836 C   0  0  0  0  0  0  0  0  0  0  0  0
    0.2058    2.5461   -0.7272 O   0  0  0  0  0  0  0  0  0  0  0  0
   -0.6092    2.9132   -2.7567 O   0  0  0  0  0  0  0  0  0  0  0  0
   -0.5059    3.7952   -2.3951 H   0  0  0  0  0  0  0  0  0  0  0  0
   -0.4860    1.3537    0.7622 C   0  0  0  0  0  0  0  0  0  0  0  0
   -1.3956    2.0096    0.2582 O   0  0  0  0  0  0  0  0  0  0  0  0
    0.3741    1.8728    1.6466 N   0  0  0  0  0  0  0  0  0  0  0  0
    1.0814    1.2667    2.0345 H   0  0  0  0  0  0  0  0  0  0  0  0
    0.3380    3.2610    2.1024 C   0  0  0  0  0  0  0  0  0  0  0  0
   -0.6389    3.4820    2.5363 H   0  0  0  0  0  0  0  0  0  0  0  0
    1.1108    3.4337    2.8528 H   0  0  0  0  0  0  0  0  0  0  0  0
    0.5009    3.9312    1.2562 H   0  0  0  0  0  0  0  0  0  0  0  0
  5  6  2  0  0  0  0
  5  7  1  0  0  0  0
  2  3  1  0  0  0  0
  2  4  1  0  0  0  0
  2  5  1  0  0  0  0
  1  2  1  0  0  0  0
 21 22  2  0  0  0  0
 21 23  1  0  0  0  0
 19 20  1  0  0  0  0
 17 18  2  0  0  0  0
 17 19  1  0  0  0  0
 14 15  1  0  0  0  0
 14 16  1  0  0  0  0
 14 17  1  0  0  0  0
 11 12  1  0  0  0  0
 11 13  1  0  0  0  0
 11 14  1  0  0  0  0
  9 10  1  0  0  0  0
  9 11  1  0  0  0  0
  9 21  1  0  0  0  0
  7  8  1  0  0  0  0
  7  9  1  0  0  0  0
 25 26  1  0  0  0  0
 25 27  1  0  0  0  0
 25 28  1  0  0  0  0
 23 24  1  0  0  0  0
 23 25  1  0  0  0  0
M  END
$$$$
default_name
  -OEChem-02102213163D

 28 27  0     1  0  0  0  0  0999 V2000
   -3.2133   -3.5565    1.2809 H   0  0  0  0  0  0  0  0  0  0  0  0
   -3.1873   -2.5755    0.8089 C   0  0  0  0  0  0  0  0  0  0  0  0
   -3.8793   -1.9065    1.3169 H   0  0  0  0  0  0  0  0  0  0  0  0
   -3.4623   -2.6685   -0.2401 H   0  0  0  0  0  0  0  0  0  0  0  0
   -1.7863   -2.0195    0.9119 C   0  0  0  0  0  0  0  0  0  0  0  0
   -0.9073   -2.6615    1.4699 O   0  0  0  0  0  0  0  0  0  0  0  0
   -1.5803   -0.8195    0.3749 N   0  0  0  0  0  0  0  0  0  0  0  0
   -2.3603   -0.3345   -0.0451 H   0  0  0  0  0  0  0  0  0  0  0  0
   -0.2933   -0.1205    0.3719 C   0  0  1  0  0  0  0  0  0  0  0  0
    0.3577   -0.5843    1.1143 H   0  0  0  0  0  0  0  0  0  0  0  0
    0.3613   -0.2794   -1.0156 C   0  0  0  0  0  0  0  0  0  0  0  0
    1.4163   -0.0150   -0.9251 H   0  0  0  0  0  0  0  0  0  0  0  0
    0.2986   -1.3235   -1.3256 H   0  0  0  0  0  0  0  0  0  0  0  0
   -0.2765    0.5943   -2.1096 C   0  0  0  0  0  0  0  0  0  0  0  0
    0.0343    0.2429   -3.0935 H   0  0  0  0  0  0  0  0  0  0  0  0
   -1.3612    0.5279   -2.0335 H   0  0  0  0  0  0  0  0  0  0  0  0
    0.1182    2.0620   -1.9807 C   0  0  0  0  0  0  0  0  0  0  0  0
    0.7528    2.5377   -1.0528 O   0  0  0  0  0  0  0  0  0  0  0  0
   -0.2932    2.8630   -2.9810 O   0  0  0  0  0  0  0  0  0  0  0  0
    0.0192    3.7386   -2.7463 H   0  0  0  0  0  0  0  0  0  0  0  0
   -0.4860    1.3537    0.7622 C   0  0  0  0  0  0  0  0  0  0  0  0
   -1.3956    2.0096    0.2582 O   0  0  0  0  0  0  0  0  0  0  0  0
    0.3741    1.8728    1.6466 N   0  0  0  0  0  0  0  0  0  0  0  0
    1.0814    1.2667    2.0345 H   0  0  0  0  0  0  0  0  0  0  0  0
    0.3380    3.2610    2.1024 C   0  0  0  0  0  0  0  0  0  0  0  0
   -0.6389    3.4820    2.5363 H   0  0  0  0  0  0  0  0  0  0  0  0
    1.1108    3.4337    2.8528 H   0  0  0  0  0  0  0  0  0  0  0  0
    0.5009    3.9312    1.2562 H   0  0  0  0  0  0  0  0  0  0  0  0
  5  6  2  0  0  0  0
  5  7  1  0  0  0  0
  2  3  1  0  0  0  0
  2  4  1  0  0  0  0
  2  5  1  0  0  0  0
  1  2  1  0  0  0  0
 21 22  2  0  0  0  0
 21 23  1  0  0  0  0
 19 20  1  0  0  0  0
 17 18  2  0  0  0  0
 17 19  1  0  0  0  0
 14 15  1  0  0  0  0
 14 16  1  0  0  0  0
 14 17  1  0  0  0  0
 11 12  1  0  0  0  0
 11 13  1  0  0  0  0
 11 14  1  0  0  0  0
  9 10  1  0  0  0  0
  9 11  1  0  0  0  0
  9 21  1  0  0  0  0
  7  8  1  0  0  0  0
  7  9  1  0  0  0  0
 25 26  1  0  0  0  0
 25 27  1  0  0  0  0
 25 28  1  0  0  0  0
 23 24  1  0  0  0  0
 23 25  1  0  0  0  0
M  END
$$$$
default_name
  -OEChem-02102213163D

 28 27  0     1  0  0  0  0  0999 V2000
   -3.2133   -3.5565    1.2809 H   0  0  0  0  0  0  0  0  0  0  0  0
   -3.1873   -2.5755    0.8089 C   0  0  0  0  0  0  0  0  0  0  0  0
   -3.8793   -1.9065    1.3169 H   0  0  0  0  0  0  0  0  0  0  0  0
   -3.4623   -2.6685   -0.2401 H   0  0  0  0  0  0  0  0  0  0  0  0
   -1.7863   -2.0195    0.9119 C   0  0  0  0  0  0  0  0  0  0  0  0
   -0.9073   -2.6615    1.4699 O   0  0  0  0  0  0  0  0  0  0  0  0
   -1.5803   -0.8195    0.3749 N   0  0  0  0  0  0  0  0  0  0  0  0
   -2.3603   -0.3345   -0.0451 H   0  0  0  0  0  0  0  0  0  0  0  0
   -0.2933   -0.1205    0.3719 C   0  0  1  0  0  0  0  0  0  0  0  0
    0.3577   -0.5843    1.1143 H   0  0  0  0  0  0  0  0  0  0  0  0
    0.3613   -0.2794   -1.0156 C   0  0  0  0  0  0  0  0  0  0  0  0
    1.4163   -0.0150   -0.9251 H   0  0  0  0  0  0  0  0  0  0  0  0
    0.2986   -1.3235   -1.3256 H   0  0  0  0  0  0  0  0  0  0  0  0
   -0.2765    0.5943   -2.1096 C   0  0  0  0  0  0  0  0  0  0  0  0
   -0.1908    0.0993   -3.0770 H   0  0  0  0  0  0  0  0  0  0  0  0
   -1.3303    0.7448   -1.8782 H   0  0  0  0  0  0  0  0  0  0  0  0
    0.3857    1.9643   -2.2146 C   0  0  0  0  0  0  0  0  0  0  0  0
    1.2318    2.3940   -1.4468 O   0  0  0  0  0  0  0  0  0  0  0  0
   -0.0303    2.7324   -3.2386 O   0  0  0  0  0  0  0  0  0  0  0  0
    0.4643    3.5497   -3.1567 H   0  0  0  0  0  0  0  0  0  0  0  0
   -0.4860    1.3537    0.7622 C   0  0  0  0  0  0  0  0  0  0  0  0
   -1.3956    2.0096    0.2582 O   0  0  0  0  0  0  0  0  0  0  0  0
    0.3741    1.8728    1.6466 N   0  0  0  0  0  0  0  0  0  0  0  0
    1.0814    1.2667    2.0345 H   0  0  0  0  0  0  0  0  0  0  0  0
    0.3380    3.2610    2.1024 C   0  0  0  0  0  0  0  0  0  0  0  0
   -0.6389    3.4820    2.5363 H   0  0  0  0  0  0  0  0  0  0  0  0
    1.1108    3.4337    2.8528 H   0  0  0  0  0  0  0  0  0  0  0  0
    0.5009    3.9312    1.2562 H   0  0  0  0  0  0  0  0  0  0  0  0
  5  6  2  0  0  0  0
  5  7  1  0  0  0  0
  2  3  1  0  0  0  0
  2  4  1  0  0  0  0
  2  5  1  0  0  0  0
  1  2  1  0  0  0  0
 21 22  2  0  0  0  0
 21 23  1  0  0  0  0
 19 20  1  0  0  0  0
 17 18  2  0  0  0  0
 17 19  1  0  0  0  0
 14 15  1  0  0  0  0
 14 16  1  0  0  0  0
 14 17  1  0  0  0  0
 11 12  1  0  0  0  0
 11 13  1  0  0  0  0
 11 14  1  0  0  0  0
  9 10  1  0  0  0  0
  9 11  1  0  0  0  0
  9 21  1  0  0  0  0
  7  8  1  0  0  0  0
  7  9  1  0  0  0  0
 25 26  1  0  0  0  0
 25 27  1  0  0  0  0
 25 28  1  0  0  0  0
 23 24  1  0  0  0  0
 23 25  1  0  0  0  0
M  END
$$$$
default_name
  -OEChem-02102213163D

 28 27  0     1  0  0  0  0  0999 V2000
   -3.2133   -3.5565    1.2809 H   0  0  0  0  0  0  0  0  0  0  0  0
   -3.1873   -2.5755    0.8089 C   0  0  0  0  0  0  0  0  0  0  0  0
   -3.8793   -1.9065    1.3169 H   0  0  0  0  0  0  0  0  0  0  0  0
   -3.4623   -2.6685   -0.2401 H   0  0  0  0  0  0  0  0  0  0  0  0
   -1.7863   -2.0195    0.9119 C   0  0  0  0  0  0  0  0  0  0  0  0
   -0.9073   -2.6615    1.4699 O   0  0  0  0  0  0  0  0  0  0  0  0
   -1.5803   -0.8195    0.3749 N   0  0  0  0  0  0  0  0  0  0  0  0
   -2.3603   -0.3345   -0.0451 H   0  0  0  0  0  0  0  0  0  0  0  0
   -0.2933   -0.1205    0.3719 C   0  0  1  0  0  0  0  0  0  0  0  0
    0.3577   -0.5843    1.1143 H   0  0  0  0  0  0  0  0  0  0  0  0
    0.3613   -0.2794   -1.0156 C   0  0  0  0  0  0  0  0  0  0  0  0
    1.4163   -0.0150   -0.9251 H   0  0  0  0  0  0  0  0  0  0  0  0
    0.2986   -1.3235   -1.3256 H   0  0  0  0  0  0  0  0  0  0  0  0
   -0.2765    0.5943   -2.1096 C   0  0  0  0  0  0  0  0  0  0  0  0
   -0.4323    0.0038   -3.0125 H   0  0  0  0  0  0  0  0  0  0  0  0
   -1.2378    0.9654   -1.7560 H   0  0  0  0  0  0  0  0  0  0  0  0
    0.5917    1.7957   -2.4693 C   0  0  0  0  0  0  0  0  0  0  0  0
    1.6100    2.1247   -1.8824 O   0  0  0  0  0  0  0  0  0  0  0  0
    0.1618    2.5301   -3.5122 O   0  0  0  0  0  0  0  0  0  0  0  0
    0.7992    3.2412   -3.5983 H   0  0  0  0  0  0  0  0  0  0  0  0
   -0.4860    1.3537    0.7622 C   0  0  0  0  0  0  0  0  0  0  0  0
   -1.3956    2.0096    0.2582 O   0  0  0  0  0  0  0  0  0  0  0  0
    0.3741    1.8728    1.6466 N   0  0  0  0  0  0  0  0  0  0  0  0
    1.0814    1.2667    2.0345 H   0  0  0  0  0  0  0  0  0  0  0  0
    0.3380    3.2610    2.1024 C   0  0  0  0  0  0  0  0  0  0  0  0
   -0.6389    3.4820    2.5363 H   0  0  0  0  0  0  0  0  0  0  0  0
    1.1108    3.4337    2.8528 H   0  0  0  0  0  0  0  0  0  0  0  0
    0.5009    3.9312    1.2562 H   0  0  0  0  0  0  0  0  0  0  0  0
  5  6  2  0  0  0  0
  5  7  1  0  0  0  0
  2  3  1  0  0  0  0
  2  4  1  0  0  0  0
  2  5  1  0  0  0  0
  1  2  1  0  0  0  0
 21 22  2  0  0  0  0
 21 23  1  0  0  0  0
 19 20  1  0  0  0  0
 17 18  2  0  0  0  0
 17 19  1  0  0  0  0
 14 15  1  0  0  0  0
 14 16  1  0  0  0  0
 14 17  1  0  0  0  0
 11 12  1  0  0  0  0
 11 13  1  0  0  0  0
 11 14  1  0  0  0  0
  9 10  1  0  0  0  0
  9 11  1  0  0  0  0
  9 21  1  0  0  0  0
  7  8  1  0  0  0  0
  7  9  1  0  0  0  0
 25 26  1  0  0  0  0
 25 27  1  0  0  0  0
 25 28  1  0  0  0  0
 23 24  1  0  0  0  0
 23 25  1  0  0  0  0
M  END
$$$$
default_name
  -OEChem-02102213163D

 28 27  0     1  0  0  0  0  0999 V2000
   -3.2133   -3.5565    1.2809 H   0  0  0  0  0  0  0  0  0  0  0  0
   -3.1873   -2.5755    0.8089 C   0  0  0  0  0  0  0  0  0  0  0  0
   -3.8793   -1.9065    1.3169 H   0  0  0  0  0  0  0  0  0  0  0  0
   -3.4623   -2.6685   -0.2401 H   0  0  0  0  0  0  0  0  0  0  0  0
   -1.7863   -2.0195    0.9119 C   0  0  0  0  0  0  0  0  0  0  0  0
   -0.9073   -2.6615    1.4699 O   0  0  0  0  0  0  0  0  0  0  0  0
   -1.5803   -0.8195    0.3749 N   0  0  0  0  0  0  0  0  0  0  0  0
   -2.3603   -0.3345   -0.0451 H   0  0  0  0  0  0  0  0  0  0  0  0
   -0.2933   -0.1205    0.3719 C   0  0  1  0  0  0  0  0  0  0  0  0
    0.3577   -0.5843    1.1143 H   0  0  0  0  0  0  0  0  0  0  0  0
    0.3613   -0.2794   -1.0156 C   0  0  0  0  0  0  0  0  0  0  0  0
    1.4163   -0.0150   -0.9251 H   0  0  0  0  0  0  0  0  0  0  0  0
    0.2986   -1.3235   -1.3256 H   0  0  0  0  0  0  0  0  0  0  0  0
   -0.2765    0.5943   -2.1096 C   0  0  0  0  0  0  0  0  0  0  0  0
   -0.6736   -0.0371   -2.9045 H   0  0  0  0  0  0  0  0  0  0  0  0
   -1.0898    1.1745   -1.6753 H   0  0  0  0  0  0  0  0  0  0  0  0
    0.7221    1.5676   -2.7276 C   0  0  0  0  0  0  0  0  0  0  0  0
    1.8619    1.7483   -2.3298 O   0  0  0  0  0  0  0  0  0  0  0  0
    0.2700    2.2700   -3.7829 O   0  0  0  0  0  0  0  0  0  0  0  0
    1.0010    2.8343   -4.0409 H   0  0  0  0  0  0  0  0  0  0  0  0
   -0.4860    1.3537    0.7622 C   0  0  0  0  0  0  0  0  0  0  0  0
   -1.3956    2.0096    0.2582 O   0  0  0  0  0  0  0  0  0  0  0  0
    0.3741    1.8728    1.6466 N   0  0  0  0  0  0  0  0  0  0  0  0
    1.0814    1.2667    2.0345 H   0  0  0  0  0  0  0  0  0  0  0  0
    0.3380    3.2610    2.1024 C   0  0  0  0  0  0  0  0  0  0  0  0
   -0.6389    3.4820    2.5363 H   0  0  0  0  0  0  0  0  0  0  0  0
    1.1108    3.4337    2.8528 H   0  0  0  0  0  0  0  0  0  0  0  0
    0.5009    3.9312    1.2562 H   0  0  0  0  0  0  0  0  0  0  0  0
  5  6  2  0  0  0  0
  5  7  1  0  0  0  0
  2  3  1  0  0  0  0
  2  4  1  0  0  0  0
  2  5  1  0  0  0  0
  1  2  1  0  0  0  0
 21 22  2  0  0  0  0
 21 23  1  0  0  0  0
 19 20  1  0  0  0  0
 17 18  2  0  0  0  0
 17 19  1  0  0  0  0
 14 15  1  0  0  0  0
 14 16  1  0  0  0  0
 14 17  1  0  0  0  0
 11 12  1  0  0  0  0
 11 13  1  0  0  0  0
 11 14  1  0  0  0  0
  9 10  1  0  0  0  0
  9 11  1  0  0  0  0
  9 21  1  0  0  0  0
  7  8  1  0  0  0  0
  7  9  1  0  0  0  0
 25 26  1  0  0  0  0
 25 27  1  0  0  0  0
 25 28  1  0  0  0  0
 23 24  1  0  0  0  0
 23 25  1  0  0  0  0
M  END
$$$$
default_name
  -OEChem-02102213163D

 28 27  0     1  0  0  0  0  0999 V2000
   -3.2133   -3.5565    1.2809 H   0  0  0  0  0  0  0  0  0  0  0  0
   -3.1873   -2.5755    0.8089 C   0  0  0  0  0  0  0  0  0  0  0  0
   -3.8793   -1.9065    1.3169 H   0  0  0  0  0  0  0  0  0  0  0  0
   -3.4623   -2.6685   -0.2401 H   0  0  0  0  0  0  0  0  0  0  0  0
   -1.7863   -2.0195    0.9119 C   0  0  0  0  0  0  0  0  0  0  0  0
   -0.9073   -2.6615    1.4699 O   0  0  0  0  0  0  0  0  0  0  0  0
   -1.5803   -0.8195    0.3749 N   0  0  0  0  0  0  0  0  0  0  0  0
   -2.3603   -0.3345   -0.0451 H   0  0  0  0  0  0  0  0  0  0  0  0
   -0.2933   -0.1205    0.3719 C   0  0  1  0  0  0  0  0  0  0  0  0
    0.3577   -0.5843    1.1143 H   0  0  0  0  0  0  0  0  0  0  0  0
    0.3613   -0.2794   -1.0156 C   0  0  0  0  0  0  0  0  0  0  0  0
    1.4163   -0.0150   -0.9251 H   0  0  0  0  0  0  0  0  0  0  0  0
    0.2986   -1.3235   -1.3256 H   0  0  0  0  0  0  0  0  0  0  0  0
   -0.2765    0.5943   -2.1096 C   0  0  0  0  0  0  0  0  0  0  0  0
   -0.8983   -0.0206   -2.7603 H   0  0  0  0  0  0  0  0  0  0  0  0
   -0.8965    1.3579   -1.6414 H   0  0  0  0  0  0  0  0  0  0  0  0
    0.7682    1.2955   -2.9717 C   0  0  0  0  0  0  0  0  0  0  0  0
    1.9700    1.2903   -2.7586 O   0  0  0  0  0  0  0  0  0  0  0  0
    0.2868    1.9699   -4.0324 O   0  0  0  0  0  0  0  0  0  0  0  0
    1.0559    2.3566   -4.4545 H   0  0  0  0  0  0  0  0  0  0  0  0
   -0.4860    1.3537    0.7622 C   0  0  0  0  0  0  0  0  0  0  0  0
   -1.3956    2.0096    0.2582 O   0  0  0  0  0  0  0  0  0  0  0  0
    0.3741    1.8728    1.6466 N   0  0  0  0  0  0  0  0  0  0  0  0
    1.0814    1.2667    2.0345 H   0  0  0  0  0  0  0  0  0  0  0  0
    0.3380    3.2610    2.1024 C   0  0  0  0  0  0  0  0  0  0  0  0
   -0.6389    3.4820    2.5363 H   0  0  0  0  0  0  0  0  0  0  0  0
    1.1108    3.4337    2.8528 H   0  0  0  0  0  0  0  0  0  0  0  0
    0.5009    3.9312    1.2562 H   0  0  0  0  0  0  0  0  0  0  0  0
  5  6  2  0  0  0  0
  5  7  1  0  0  0  0
  2  3  1  0  0  0  0
  2  4  1  0  0  0  0
  2  5  1  0  0  0  0
  1  2  1  0  0  0  0
 21 22  2  0  0  0  0
 21 23  1  0  0  0  0
 19 20  1  0  0  0  0
 17 18  2  0  0  0  0
 17 19  1  0  0  0  0
 14 15  1  0  0  0  0
 14 16  1  0  0  0  0
 14 17  1  0  0  0  0
 11 12  1  0  0  0  0
 11 13  1  0  0  0  0
 11 14  1  0  0  0  0
  9 10  1  0  0  0  0
  9 11  1  0  0  0  0
  9 21  1  0  0  0  0
  7  8  1  0  0  0  0
  7  9  1  0  0  0  0
 25 26  1  0  0  0  0
 25 27  1  0  0  0  0
 25 28  1  0  0  0  0
 23 24  1  0  0  0  0
 23 25  1  0  0  0  0
M  END
$$$$
default_name
  -OEChem-02102213163D

 28 27  0     1  0  0  0  0  0999 V2000
   -3.2133   -3.5565    1.2809 H   0  0  0  0  0  0  0  0  0  0  0  0
   -3.1873   -2.5755    0.8089 C   0  0  0  0  0  0  0  0  0  0  0  0
   -3.8793   -1.9065    1.3169 H   0  0  0  0  0  0  0  0  0  0  0  0
   -3.4623   -2.6685   -0.2401 H   0  0  0  0  0  0  0  0  0  0  0  0
   -1.7863   -2.0195    0.9119 C   0  0  0  0  0  0  0  0  0  0  0  0
   -0.9073   -2.6615    1.4699 O   0  0  0  0  0  0  0  0  0  0  0  0
   -1.5803   -0.8195    0.3749 N   0  0  0  0  0  0  0  0  0  0  0  0
   -2.3603   -0.3345   -0.0451 H   0  0  0  0  0  0  0  0  0  0  0  0
   -0.2933   -0.1205    0.3719 C   0  0  1  0  0  0  0  0  0  0  0  0
    0.3577   -0.5843    1.1143 H   0  0  0  0  0  0  0  0  0  0  0  0
    0.3613   -0.2794   -1.0156 C   0  0  0  0  0  0  0  0  0  0  0  0
    1.4163   -0.0150   -0.9251 H   0  0  0  0  0  0  0  0  0  0  0  0
    0.2986   -1.3235   -1.3256 H   0  0  0  0  0  0  0  0  0  0  0  0
   -0.2765    0.5943   -2.1096 C   0  0  0  0  0  0  0  0  0  0  0  0
   -1.0912    0.0521   -2.5897 H   0  0  0  0  0  0  0  0  0  0  0  0
   -0.6711    1.5032   -1.6569 H   0  0  0  0  0  0  0  0  0  0  0  0
    0.7268    0.9980   -3.1852 C   0  0  0  0  0  0  0  0  0  0  0  0
    1.9272    0.7821   -3.1396 O   0  0  0  0  0  0  0  0  0  0  0  0
    0.2110    1.6501   -4.2437 O   0  0  0  0  0  0  0  0  0  0  0  0
    0.9603    1.8406   -4.8108 H   0  0  0  0  0  0  0  0  0  0  0  0
   -0.4860    1.3537    0.7622 C   0  0  0  0  0  0  0  0  0  0  0  0
   -1.3956    2.0096    0.2582 O   0  0  0  0  0  0  0  0  0  0  0  0
    0.3741    1.8728    1.6466 N   0  0  0  0  0  0  0  0  0  0  0  0
    1.0814    1.2667    2.0345 H   0  0  0  0  0  0  0  0  0  0  0  0
    0.3380    3.2610    2.1024 C   0  0  0  0  0  0  0  0  0  0  0  0
   -0.6389    3.4820    2.5363 H   0  0  0  0  0  0  0  0  0  0  0  0
    1.1108    3.4337    2.8528 H   0  0  0  0  0  0  0  0  0  0  0  0
    0.5009    3.9312    1.2562 H   0  0  0  0  0  0  0  0  0  0  0  0
  5  6  2  0  0  0  0
  5  7  1  0  0  0  0
  2  3  1  0  0  0  0
  2  4  1  0  0  0  0
  2  5  1  0  0  0  0
  1  2  1  0  0  0  0
 21 22  2  0  0  0  0
 21 23  1  0  0  0  0
 19 20  1  0  0  0  0
 17 18  2  0  0  0  0
 17 19  1  0  0  0  0
 14 15  1  0  0  0  0
 14 16  1  0  0  0  0
 14 17  1  0  0  0  0
 11 12  1  0  0  0  0
 11 13  1  0  0  0  0
 11 14  1  0  0  0  0
  9 10  1  0  0  0  0
  9 11  1  0  0  0  0
  9 21  1  0  0  0  0
  7  8  1  0  0  0  0
  7  9  1  0  0  0  0
 25 26  1  0  0  0  0
 25 27  1  0  0  0  0
 25 28  1  0  0  0  0
 23 24  1  0  0  0  0
 23 25  1  0  0  0  0
M  END
$$$$
default_name
  -OEChem-02102213163D

 28 27  0     1  0  0  0  0  0999 V2000
   -3.2133   -3.5565    1.2809 H   0  0  0  0  0  0  0  0  0  0  0  0
   -3.1873   -2.5755    0.8089 C   0  0  0  0  0  0  0  0  0  0  0  0
   -3.8793   -1.9065    1.3169 H   0  0  0  0  0  0  0  0  0  0  0  0
   -3.4623   -2.6685   -0.2401 H   0  0  0  0  0  0  0  0  0  0  0  0
   -1.7863   -2.0195    0.9119 C   0  0  0  0  0  0  0  0  0  0  0  0
   -0.9073   -2.6615    1.4699 O   0  0  0  0  0  0  0  0  0  0  0  0
   -1.5803   -0.8195    0.3749 N   0  0  0  0  0  0  0  0  0  0  0  0
   -2.3603   -0.3345   -0.0451 H   0  0  0  0  0  0  0  0  0  0  0  0
   -0.2933   -0.1205    0.3719 C   0  0  1  0  0  0  0  0  0  0  0  0
    0.3577   -0.5843    1.1143 H   0  0  0  0  0  0  0  0  0  0  0  0
    0.3613   -0.2794   -1.0156 C   0  0  0  0  0  0  0  0  0  0  0  0
    1.4163   -0.0150   -0.9251 H   0  0  0  0  0  0  0  0  0  0  0  0
    0.2986   -1.3235   -1.3256 H   0  0  0  0  0  0  0  0  0  0  0  0
   -0.2765    0.5943   -2.1096 C   0  0  0  0  0  0  0  0  0  0  0  0
   -1.2391    0.1762   -2.4044 H   0  0  0  0  0  0  0  0  0  0  0  0
   -0.4289    1.6003   -1.7205 H   0  0  0  0  0  0  0  0  0  0  0  0
    0.6006    0.6954   -3.3533 C   0  0  0  0  0  0  0  0  0  0  0  0
    1.7364    0.2581   -3.4468 O   0  0  0  0  0  0  0  0  0  0  0  0
    0.0480    1.3325   -4.4023 O   0  0  0  0  0  0  0  0  0  0  0  0
    0.7206    1.3217   -5.0855 H   0  0  0  0  0  0  0  0  0  0  0  0
   -0.4860    1.3537    0.7622 C   0  0  0  0  0  0  0  0  0  0  0  0
   -1.3956    2.0096    0.2582 O   0  0  0  0  0  0  0  0  0  0  0  0
    0.3741    1.8728    1.6466 N   0  0  0  0  0  0  0  0  0  0  0  0
    1.0814    1.2667    2.0345 H   0  0  0  0  0  0  0  0  0  0  0  0
    0.3380    3.2610    2.1024 C   0  0  0  0  0  0  0  0  0  0  0  0
   -0.6389    3.4820    2.5363 H   0  0  0  0  0  0  0  0  0  0  0  0
    1.1108    3.4337    2.8528 H   0  0  0  0  0  0  0  0  0  0  0  0
    0.5009    3.9312    1.2562 H   0  0  0  0  0  0  0  0  0  0  0  0
  5  6  2  0  0  0  0
  5  7  1  0  0  0  0
  2  3  1  0  0  0  0
  2  4  1  0  0  0  0
  2  5  1  0  0  0  0
  1  2  1  0  0  0  0
 21 22  2  0  0  0  0
 21 23  1  0  0  0  0
 19 20  1  0  0  0  0
 17 18  2  0  0  0  0
 17 19  1  0  0  0  0
 14 15  1  0  0  0  0
 14 16  1  0  0  0  0
 14 17  1  0  0  0  0
 11 12  1  0  0  0  0
 11 13  1  0  0  0  0
 11 14  1  0  0  0  0
  9 10  1  0  0  0  0
  9 11  1  0  0  0  0
  9 21  1  0  0  0  0
  7  8  1  0  0  0  0
  7  9  1  0  0  0  0
 25 26  1  0  0  0  0
 25 27  1  0  0  0  0
 25 28  1  0  0  0  0
 23 24  1  0  0  0  0
 23 25  1  0  0  0  0
M  END
$$$$
default_name
  -OEChem-02102213163D

 28 27  0     1  0  0  0  0  0999 V2000
   -3.2133   -3.5565    1.2809 H   0  0  0  0  0  0  0  0  0  0  0  0
   -3.1873   -2.5755    0.8089 C   0  0  0  0  0  0  0  0  0  0  0  0
   -3.8793   -1.9065    1.3169 H   0  0  0  0  0  0  0  0  0  0  0  0
   -3.4623   -2.6685   -0.2401 H   0  0  0  0  0  0  0  0  0  0  0  0
   -1.7863   -2.0195    0.9119 C   0  0  0  0  0  0  0  0  0  0  0  0
   -0.9073   -2.6615    1.4699 O   0  0  0  0  0  0  0  0  0  0  0  0
   -1.5803   -0.8195    0.3749 N   0  0  0  0  0  0  0  0  0  0  0  0
   -2.3603   -0.3345   -0.0451 H   0  0  0  0  0  0  0  0  0  0  0  0
   -0.2933   -0.1205    0.3719 C   0  0  1  0  0  0  0  0  0  0  0  0
    0.3577   -0.5843    1.1143 H   0  0  0  0  0  0  0  0  0  0  0  0
    0.3613   -0.2794   -1.0156 C   0  0  0  0  0  0  0  0  0  0  0  0
    1.4444   -0.2808   -0.8814 H   0  0  0  0  0  0  0  0  0  0  0  0
    0.0711   -1.2406   -1.4424 H   0  0  0  0  0  0  0  0  0  0  0  0
   -0.0132    0.8310   -2.0124 C   0  0  0  0  0  0  0  0  0  0  0  0
   -1.0928    0.8471   -2.1620 H   0  0  0  0  0  0  0  0  0  0  0  0
    0.3058    1.7930   -1.6129 H   0  0  0  0  0  0  0  0  0  0  0  0
    0.6536    0.6377   -3.3706 C   0  0  0  0  0  0  0  0  0  0  0  0
    1.4938   -0.2107   -3.6239 O   0  0  0  0  0  0  0  0  0  0  0  0
    0.2673    1.4951   -4.3335 O   0  0  0  0  0  0  0  0  0  0  0  0
    0.7797    1.2521   -5.1066 H   0  0  0  0  0  0  0  0  0  0  0  0
   -0.4860    1.3537    0.7622 C   0  0  0  0  0  0  0  0  0  0  0  0
   -1.3956    2.0096    0.2582 O   0  0  0  0  0  0  0  0  0  0  0  0
    0.3741    1.8728    1.6466 N   0  0  0  0  0  0  0  0  0  0  0  0
    1.0814    1.2667    2.0345 H   0  0  0  0  0  0  0  0  0  0  0  0
    0.3380    3.2610    2.1024 C   0  0  0  0  0  0  0  0  0  0  0  0
   -0.6389    3.4820    2.5363 H   0  0  0  0  0  0  0  0  0  0  0  0
    1.1108    3.4337    2.8528 H   0  0  0  0  0  0  0  0  0  0  0  0
    0.5009    3.9312    1.2562 H   0  0  0  0  0  0  0  0  0  0  0  0
  5  6  2  0  0  0  0
  5  7  1  0  0  0  0
  2  3  1  0  0  0  0
  2  4  1  0  0  0  0
  2  5  1  0  0  0  0
  1  2  1  0  0  0  0
 21 22  2  0  0  0  0
 21 23  1  0  0  0  0
 19 20  1  0  0  0  0
 17 18  2  0  0  0  0
 17 19  1  0  0  0  0
 14 15  1  0  0  0  0
 14 16  1  0  0  0  0
 14 17  1  0  0  0  0
 11 12  1  0  0  0  0
 11 13  1  0  0  0  0
 11 14  1  0  0  0  0
  9 10  1  0  0  0  0
  9 11  1  0  0  0  0
  9 21  1  0  0  0  0
  7  8  1  0  0  0  0
  7  9  1  0  0  0  0
 25 26  1  0  0  0  0
 25 27  1  0  0  0  0
 25 28  1  0  0  0  0
 23 24  1  0  0  0  0
 23 25  1  0  0  0  0
M  END
$$$$
default_name
  -OEChem-02102213163D

 28 27  0     1  0  0  0  0  0999 V2000
   -3.2133   -3.5565    1.2809 H   0  0  0  0  0  0  0  0  0  0  0  0
   -3.1873   -2.5755    0.8089 C   0  0  0  0  0  0  0  0  0  0  0  0
   -3.8793   -1.9065    1.3169 H   0  0  0  0  0  0  0  0  0  0  0  0
   -3.4623   -2.6685   -0.2401 H   0  0  0  0  0  0  0  0  0  0  0  0
   -1.7863   -2.0195    0.9119 C   0  0  0  0  0  0  0  0  0  0  0  0
   -0.9073   -2.6615    1.4699 O   0  0  0  0  0  0  0  0  0  0  0  0
   -1.5803   -0.8195    0.3749 N   0  0  0  0  0  0  0  0  0  0  0  0
   -2.3603   -0.3345   -0.0451 H   0  0  0  0  0  0  0  0  0  0  0  0
   -0.2933   -0.1205    0.3719 C   0  0  1  0  0  0  0  0  0  0  0  0
    0.3577   -0.5843    1.1143 H   0  0  0  0  0  0  0  0  0  0  0  0
    0.3613   -0.2794   -1.0156 C   0  0  0  0  0  0  0  0  0  0  0  0
    1.4444   -0.2808   -0.8814 H   0  0  0  0  0  0  0  0  0  0  0  0
    0.0711   -1.2406   -1.4424 H   0  0  0  0  0  0  0  0  0  0  0  0
   -0.0132    0.8310   -2.0124 C   0  0  0  0  0  0  0  0  0  0  0  0
   -1.0843    1.0273   -1.9645 H   0  0  0  0  0  0  0  0  0  0  0  0
    0.5279    1.7407   -1.7546 H   0  0  0  0  0  0  0  0  0  0  0  0
    0.3400    0.4611   -3.4494 C   0  0  0  0  0  0  0  0  0  0  0  0
    0.9674   -0.5313   -3.7832 O   0  0  0  0  0  0  0  0  0  0  0  0
   -0.0803    1.3264   -4.3909 O   0  0  0  0  0  0  0  0  0  0  0  0
    0.2277    0.9620   -5.2225 H   0  0  0  0  0  0  0  0  0  0  0  0
   -0.4860    1.3537    0.7622 C   0  0  0  0  0  0  0  0  0  0  0  0
   -1.3956    2.0096    0.2582 O   0  0  0  0  0  0  0  0  0  0  0  0
    0.3741    1.8728    1.6466 N   0  0  0  0  0  0  0  0  0  0  0  0
    1.0814    1.2667    2.0345 H   0  0  0  0  0  0  0  0  0  0  0  0
    0.3380    3.2610    2.1024 C   0  0  0  0  0  0  0  0  0  0  0  0
   -0.6389    3.4820    2.5363 H   0  0  0  0  0  0  0  0  0  0  0  0
    1.1108    3.4337    2.8528 H   0  0  0  0  0  0  0  0  0  0  0  0
    0.5009    3.9312    1.2562 H   0  0  0  0  0  0  0  0  0  0  0  0
  5  6  2  0  0  0  0
  5  7  1  0  0  0  0
  2  3  1  0  0  0  0
  2  4  1  0  0  0  0
  2  5  1  0  0  0  0
  1  2  1  0  0  0  0
 21 22  2  0  0  0  0
 21 23  1  0  0  0  0
 19 20  1  0  0  0  0
 17 18  2  0  0  0  0
 17 19  1  0  0  0  0
 14 15  1  0  0  0  0
 14 16  1  0  0  0  0
 14 17  1  0  0  0  0
 11 12  1  0  0  0  0
 11 13  1  0  0  0  0
 11 14  1  0  0  0  0
  9 10  1  0  0  0  0
  9 11  1  0  0  0  0
  9 21  1  0  0  0  0
  7  8  1  0  0  0  0
  7  9  1  0  0  0  0
 25 26  1  0  0  0  0
 25 27  1  0  0  0  0
 25 28  1  0  0  0  0
 23 24  1  0  0  0  0
 23 25  1  0  0  0  0
M  END
$$$$
default_name
  -OEChem-02102213163D

 28 27  0     1  0  0  0  0  0999 V2000
   -3.2133   -3.5565    1.2809 H   0  0  0  0  0  0  0  0  0  0  0  0
   -3.1873   -2.5755    0.8089 C   0  0  0  0  0  0  0  0  0  0  0  0
   -3.8793   -1.9065    1.3169 H   0  0  0  0  0  0  0  0  0  0  0  0
   -3.4623   -2.6685   -0.2401 H   0  0  0  0  0  0  0  0  0  0  0  0
   -1.7863   -2.0195    0.9119 C   0  0  0  0  0  0  0  0  0  0  0  0
   -0.9073   -2.6615    1.4699 O   0  0  0  0  0  0  0  0  0  0  0  0
   -1.5803   -0.8195    0.3749 N   0  0  0  0  0  0  0  0  0  0  0  0
   -2.3603   -0.3345   -0.0451 H   0  0  0  0  0  0  0  0  0  0  0  0
   -0.2933   -0.1205    0.3719 C   0  0  1  0  0  0  0  0  0  0  0  0
    0.3577   -0.5843    1.1143 H   0  0  0  0  0  0  0  0  0  0  0  0
    0.3613   -0.2794   -1.0156 C   0  0  0  0  0  0  0  0  0  0  0  0
    1.4444   -0.2808   -0.8814 H   0  0  0  0  0  0  0  0  0  0  0  0
    0.0711   -1.2406   -1.4424 H   0  0  0  0  0  0  0  0  0  0  0  0
   -0.0132    0.8310   -2.0124 C   0  0  0  0  0  0  0  0  0  0  0  0
   -1.0090    1.2124   -1.7865 H   0  0  0  0  0  0  0  0  0  0  0  0
    0.7072    1.6440   -1.9297 H   0  0  0  0  0  0  0  0  0  0  0  0
   -0.0073    0.3382   -3.4559 C   0  0  0  0  0  0  0  0  0  0  0  0
    0.3753   -0.7627   -3.8186 O   0  0  0  0  0  0  0  0  0  0  0  0
   -0.4551    1.2180   -4.3708 O   0  0  0  0  0  0  0  0  0  0  0  0
   -0.3757    0.7669   -5.2131 H   0  0  0  0  0  0  0  0  0  0  0  0
   -0.4860    1.3537    0.7622 C   0  0  0  0  0  0  0  0  0  0  0  0
   -1.3956    2.0096    0.2582 O   0  0  0  0  0  0  0  0  0  0  0  0
    0.3741    1.8728    1.6466 N   0  0  0  0  0  0  0  0  0  0  0  0
    1.0814    1.2667    2.0345 H   0  0  0  0  0  0  0  0  0  0  0  0
    0.3380    3.2610    2.1024 C   0  0  0  0  0  0  0  0  0  0  0  0
   -0.6389    3.4820    2.5363 H   0  0  0  0  0  0  0  0  0  0  0  0
    1.1108    3.4337    2.8528 H   0  0  0  0  0  0  0  0  0  0  0  0
    0.5009    3.9312    1.2562 H   0  0  0  0  0  0  0  0  0  0  0  0
  5  6  2  0  0  0  0
  5  7  1  0  0  0  0
  2  3  1  0  0  0  0
  2  4  1  0  0  0  0
  2  5  1  0  0  0  0
  1  2  1  0  0  0  0
 21 22  2  0  0  0  0
 21 23  1  0  0  0  0
 19 20  1  0  0  0  0
 17 18  2  0  0  0  0
 17 19  1  0  0  0  0
 14 15  1  0  0  0  0
 14 16  1  0  0  0  0
 14 17  1  0  0  0  0
 11 12  1  0  0  0  0
 11 13  1  0  0  0  0
 11 14  1  0  0  0  0
  9 10  1  0  0  0  0
  9 11  1  0  0  0  0
  9 21  1  0  0  0  0
  7  8  1  0  0  0  0
  7  9  1  0  0  0  0
 25 26  1  0  0  0  0
 25 27  1  0  0  0  0
 25 28  1  0  0  0  0
 23 24  1  0  0  0  0
 23 25  1  0  0  0  0
M  END
$$$$
default_name
  -OEChem-02102213163D

 28 27  0     1  0  0  0  0  0999 V2000
   -3.2133   -3.5565    1.2809 H   0  0  0  0  0  0  0  0  0  0  0  0
   -3.1873   -2.5755    0.8089 C   0  0  0  0  0  0  0  0  0  0  0  0
   -3.8793   -1.9065    1.3169 H   0  0  0  0  0  0  0  0  0  0  0  0
   -3.4623   -2.6685   -0.2401 H   0  0  0  0  0  0  0  0  0  0  0  0
   -1.7863   -2.0195    0.9119 C   0  0  0  0  0  0  0  0  0  0  0  0
   -0.9073   -2.6615    1.4699 O   0  0  0  0  0  0  0  0  0  0  0  0
   -1.5803   -0.8195    0.3749 N   0  0  0  0  0  0  0  0  0  0  0  0
   -2.3603   -0.3345   -0.0451 H   0  0  0  0  0  0  0  0  0  0  0  0
   -0.2933   -0.1205    0.3719 C   0  0  1  0  0  0  0  0  0  0  0  0
    0.3577   -0.5843    1.1143 H   0  0  0  0  0  0  0  0  0  0  0  0
    0.3613   -0.2794   -1.0156 C   0  0  0  0  0  0  0  0  0  0  0  0
    1.4444   -0.2808   -0.8814 H   0  0  0  0  0  0  0  0  0  0  0  0
    0.0711   -1.2406   -1.4424 H   0  0  0  0  0  0  0  0  0  0  0  0
   -0.0132    0.8310   -2.0124 C   0  0  0  0  0  0  0  0  0  0  0  0
   -0.8720    1.3898   -1.6404 H   0  0  0  0  0  0  0  0  0  0  0  0
    0.8315    1.5095   -2.1262 H   0  0  0  0  0  0  0  0  0  0  0  0
   -0.3646    0.2773   -3.3895 C   0  0  0  0  0  0  0  0  0  0  0  0
   -0.2420   -0.8891   -3.7276 O   0  0  0  0  0  0  0  0  0  0  0  0
   -0.8316    1.1775   -4.2745 O   0  0  0  0  0  0  0  0  0  0  0  0
   -0.9895    0.6804   -5.0790 H   0  0  0  0  0  0  0  0  0  0  0  0
   -0.4860    1.3537    0.7622 C   0  0  0  0  0  0  0  0  0  0  0  0
   -1.3956    2.0096    0.2582 O   0  0  0  0  0  0  0  0  0  0  0  0
    0.3741    1.8728    1.6466 N   0  0  0  0  0  0  0  0  0  0  0  0
    1.0814    1.2667    2.0345 H   0  0  0  0  0  0  0  0  0  0  0  0
    0.3380    3.2610    2.1024 C   0  0  0  0  0  0  0  0  0  0  0  0
   -0.6389    3.4820    2.5363 H   0  0  0  0  0  0  0  0  0  0  0  0
    1.1108    3.4337    2.8528 H   0  0  0  0  0  0  0  0  0  0  0  0
    0.5009    3.9312    1.2562 H   0  0  0  0  0  0  0  0  0  0  0  0
  5  6  2  0  0  0  0
  5  7  1  0  0  0  0
  2  3  1  0  0  0  0
  2  4  1  0  0  0  0
  2  5  1  0  0  0  0
  1  2  1  0  0  0  0
 21 22  2  0  0  0  0
 21 23  1  0  0  0  0
 19 20  1  0  0  0  0
 17 18  2  0  0  0  0
 17 19  1  0  0  0  0
 14 15  1  0  0  0  0
 14 16  1  0  0  0  0
 14 17  1  0  0  0  0
 11 12  1  0  0  0  0
 11 13  1  0  0  0  0
 11 14  1  0  0  0  0
  9 10  1  0  0  0  0
  9 11  1  0  0  0  0
  9 21  1  0  0  0  0
  7  8  1  0  0  0  0
  7  9  1  0  0  0  0
 25 26  1  0  0  0  0
 25 27  1  0  0  0  0
 25 28  1  0  0  0  0
 23 24  1  0  0  0  0
 23 25  1  0  0  0  0
M  END
$$$$
default_name
  -OEChem-02102213163D

 28 27  0     1  0  0  0  0  0999 V2000
   -3.2133   -3.5565    1.2809 H   0  0  0  0  0  0  0  0  0  0  0  0
   -3.1873   -2.5755    0.8089 C   0  0  0  0  0  0  0  0  0  0  0  0
   -3.8793   -1.9065    1.3169 H   0  0  0  0  0  0  0  0  0  0  0  0
   -3.4623   -2.6685   -0.2401 H   0  0  0  0  0  0  0  0  0  0  0  0
   -1.7863   -2.0195    0.9119 C   0  0  0  0  0  0  0  0  0  0  0  0
   -0.9073   -2.6615    1.4699 O   0  0  0  0  0  0  0  0  0  0  0  0
   -1.5803   -0.8195    0.3749 N   0  0  0  0  0  0  0  0  0  0  0  0
   -2.3603   -0.3345   -0.0451 H   0  0  0  0  0  0  0  0  0  0  0  0
   -0.2933   -0.1205    0.3719 C   0  0  1  0  0  0  0  0  0  0  0  0
    0.3577   -0.5843    1.1143 H   0  0  0  0  0  0  0  0  0  0  0  0
    0.3613   -0.2794   -1.0156 C   0  0  0  0  0  0  0  0  0  0  0  0
    1.4444   -0.2808   -0.8814 H   0  0  0  0  0  0  0  0  0  0  0  0
    0.0711   -1.2406   -1.4424 H   0  0  0  0  0  0  0  0  0  0  0  0
   -0.0132    0.8310   -2.0124 C   0  0  0  0  0  0  0  0  0  0  0  0
   -0.6826    1.5473   -1.5361 H   0  0  0  0  0  0  0  0  0  0  0  0
    0.8923    1.3464   -2.3307 H   0  0  0  0  0  0  0  0  0  0  0  0
   -0.7075    0.2826   -3.2548 C   0  0  0  0  0  0  0  0  0  0  0  0
   -0.8424   -0.9020   -3.5164 O   0  0  0  0  0  0  0  0  0  0  0  0
   -1.1840    1.2076   -4.1086 O   0  0  0  0  0  0  0  0  0  0  0  0
   -1.5719    0.7081   -4.8293 H   0  0  0  0  0  0  0  0  0  0  0  0
   -0.4860    1.3537    0.7622 C   0  0  0  0  0  0  0  0  0  0  0  0
   -1.3956    2.0096    0.2582 O   0  0  0  0  0  0  0  0  0  0  0  0
    0.3741    1.8728    1.6466 N   0  0  0  0  0  0  0  0  0  0  0  0
    1.0814    1.2667    2.0345 H   0  0  0  0  0  0  0  0  0  0  0  0
    0.3380    3.2610    2.1024 C   0  0  0  0  0  0  0  0  0  0  0  0
   -0.6389    3.4820    2.5363 H   0  0  0  0  0  0  0  0  0  0  0  0
    1.1108    3.4337    2.8528 H   0  0  0  0  0  0  0  0  0  0  0  0
    0.5009    3.9312    1.2562 H   0  0  0  0  0  0  0  0  0  0  0  0
  5  6  2  0  0  0  0
  5  7  1  0  0  0  0
  2  3  1  0  0  0  0
  2  4  1  0  0  0  0
  2  5  1  0  0  0  0
  1  2  1  0  0  0  0
 21 22  2  0  0  0  0
 21 23  1  0  0  0  0
 19 20  1  0  0  0  0
 17 18  2  0  0  0  0
 17 19  1  0  0  0  0
 14 15  1  0  0  0  0
 14 16  1  0  0  0  0
 14 17  1  0  0  0  0
 11 12  1  0  0  0  0
 11 13  1  0  0  0  0
 11 14  1  0  0  0  0
  9 10  1  0  0  0  0
  9 11  1  0  0  0  0
  9 21  1  0  0  0  0
  7  8  1  0  0  0  0
  7  9  1  0  0  0  0
 25 26  1  0  0  0  0
 25 27  1  0  0  0  0
 25 28  1  0  0  0  0
 23 24  1  0  0  0  0
 23 25  1  0  0  0  0
M  END
$$$$
default_name
  -OEChem-02102213163D

 28 27  0     1  0  0  0  0  0999 V2000
   -3.2133   -3.5565    1.2809 H   0  0  0  0  0  0  0  0  0  0  0  0
   -3.1873   -2.5755    0.8089 C   0  0  0  0  0  0  0  0  0  0  0  0
   -3.8793   -1.9065    1.3169 H   0  0  0  0  0  0  0  0  0  0  0  0
   -3.4623   -2.6685   -0.2401 H   0  0  0  0  0  0  0  0  0  0  0  0
   -1.7863   -2.0195    0.9119 C   0  0  0  0  0  0  0  0  0  0  0  0
   -0.9073   -2.6615    1.4699 O   0  0  0  0  0  0  0  0  0  0  0  0
   -1.5803   -0.8195    0.3749 N   0  0  0  0  0  0  0  0  0  0  0  0
   -2.3603   -0.3345   -0.0451 H   0  0  0  0  0  0  0  0  0  0  0  0
   -0.2933   -0.1205    0.3719 C   0  0  1  0  0  0  0  0  0  0  0  0
    0.3577   -0.5843    1.1143 H   0  0  0  0  0  0  0  0  0  0  0  0
    0.3613   -0.2794   -1.0156 C   0  0  0  0  0  0  0  0  0  0  0  0
    1.4444   -0.2808   -0.8814 H   0  0  0  0  0  0  0  0  0  0  0  0
    0.0711   -1.2406   -1.4424 H   0  0  0  0  0  0  0  0  0  0  0  0
   -0.0132    0.8310   -2.0124 C   0  0  0  0  0  0  0  0  0  0  0  0
   -0.4538    1.6743   -1.4805 H   0  0  0  0  0  0  0  0  0  0  0  0
    0.8854    1.1657   -2.5294 H   0  0  0  0  0  0  0  0  0  0  0  0
   -1.0127    0.3537   -3.0610 C   0  0  0  0  0  0  0  0  0  0  0  0
   -1.3851   -0.8004   -3.1994 O   0  0  0  0  0  0  0  0  0  0  0  0
   -1.4885    1.3062   -3.8845 O   0  0  0  0  0  0  0  0  0  0  0  0
   -2.0832    0.8483   -4.4811 H   0  0  0  0  0  0  0  0  0  0  0  0
   -0.4860    1.3537    0.7622 C   0  0  0  0  0  0  0  0  0  0  0  0
   -1.3956    2.0096    0.2582 O   0  0  0  0  0  0  0  0  0  0  0  0
    0.3741    1.8728    1.6466 N   0  0  0  0  0  0  0  0  0  0  0  0
    1.0814    1.2667    2.0345 H   0  0  0  0  0  0  0  0  0  0  0  0
    0.3380    3.2610    2.1024 C   0  0  0  0  0  0  0  0  0  0  0  0
   -0.6389    3.4820    2.5363 H   0  0  0  0  0  0  0  0  0  0  0  0
    1.1108    3.4337    2.8528 H   0  0  0  0  0  0  0  0  0  0  0  0
    0.5009    3.9312    1.2562 H   0  0  0  0  0  0  0  0  0  0  0  0
  5  6  2  0  0  0  0
  5  7  1  0  0  0  0
  2  3  1  0  0  0  0
  2  4  1  0  0  0  0
  2  5  1  0  0  0  0
  1  2  1  0  0  0  0
 21 22  2  0  0  0  0
 21 23  1  0  0  0  0
 19 20  1  0  0  0  0
 17 18  2  0  0  0  0
 17 19  1  0  0  0  0
 14 15  1  0  0  0  0
 14 16  1  0  0  0  0
 14 17  1  0  0  0  0
 11 12  1  0  0  0  0
 11 13  1  0  0  0  0
 11 14  1  0  0  0  0
  9 10  1  0  0  0  0
  9 11  1  0  0  0  0
  9 21  1  0  0  0  0
  7  8  1  0  0  0  0
  7  9  1  0  0  0  0
 25 26  1  0  0  0  0
 25 27  1  0  0  0  0
 25 28  1  0  0  0  0
 23 24  1  0  0  0  0
 23 25  1  0  0  0  0
M  END
$$$$
default_name
  -OEChem-02102213163D

 28 27  0     1  0  0  0  0  0999 V2000
   -3.2133   -3.5565    1.2809 H   0  0  0  0  0  0  0  0  0  0  0  0
   -3.1873   -2.5755    0.8089 C   0  0  0  0  0  0  0  0  0  0  0  0
   -3.8793   -1.9065    1.3169 H   0  0  0  0  0  0  0  0  0  0  0  0
   -3.4623   -2.6685   -0.2401 H   0  0  0  0  0  0  0  0  0  0  0  0
   -1.7863   -2.0195    0.9119 C   0  0  0  0  0  0  0  0  0  0  0  0
   -0.9073   -2.6615    1.4699 O   0  0  0  0  0  0  0  0  0  0  0  0
   -1.5803   -0.8195    0.3749 N   0  0  0  0  0  0  0  0  0  0  0  0
   -2.3603   -0.3345   -0.0451 H   0  0  0  0  0  0  0  0  0  0  0  0
   -0.2933   -0.1205    0.3719 C   0  0  1  0  0  0  0  0  0  0  0  0
    0.3577   -0.5843    1.1143 H   0  0  0  0  0  0  0  0  0  0  0  0
    0.3613   -0.2794   -1.0156 C   0  0  0  0  0  0  0  0  0  0  0  0
    1.4444   -0.2808   -0.8814 H   0  0  0  0  0  0  0  0  0  0  0  0
    0.0711   -1.2406   -1.4424 H   0  0  0  0  0  0  0  0  0  0  0  0
   -0.0132    0.8310   -2.0124 C   0  0  0  0  0  0  0  0  0  0  0  0
   -0.2011    1.7621   -1.4777 H   0  0  0  0  0  0  0  0  0  0  0  0
    0.8114    0.9798   -2.7086 H   0  0  0  0  0  0  0  0  0  0  0  0
   -1.2594    0.4857   -2.8212 C   0  0  0  0  0  0  0  0  0  0  0  0
   -1.8331   -0.5914   -2.7983 O   0  0  0  0  0  0  0  0  0  0  0  0
   -1.7241    1.4666   -3.6173 O   0  0  0  0  0  0  0  0  0  0  0  0
   -2.4884    1.0914   -4.0581 H   0  0  0  0  0  0  0  0  0  0  0  0
   -0.4860    1.3537    0.7622 C   0  0  0  0  0  0  0  0  0  0  0  0
   -1.3956    2.0096    0.2582 O   0  0  0  0  0  0  0  0  0  0  0  0
    0.3741    1.8728    1.6466 N   0  0  0  0  0  0  0  0  0  0  0  0
    1.0814    1.2667    2.0345 H   0  0  0  0  0  0  0  0  0  0  0  0
    0.3380    3.2610    2.1024 C   0  0  0  0  0  0  0  0  0  0  0  0
   -0.6389    3.4820    2.5363 H   0  0  0  0  0  0  0  0  0  0  0  0
    1.1108    3.4337    2.8528 H   0  0  0  0  0  0  0  0  0  0  0  0
    0.5009    3.9312    1.2562 H   0  0  0  0  0  0  0  0  0  0  0  0
  5  6  2  0  0  0  0
  5  7  1  0  0  0  0
  2  3  1  0  0  0  0
  2  4  1  0  0  0  0
  2  5  1  0  0  0  0
  1  2  1  0  0  0  0
 21 22  2  0  0  0  0
 21 23  1  0  0  0  0
 19 20  1  0  0  0  0
 17 18  2  0  0  0  0
 17 19  1  0  0  0  0
 14 15  1  0  0  0  0
 14 16  1  0  0  0  0
 14 17  1  0  0  0  0
 11 12  1  0  0  0  0
 11 13  1  0  0  0  0
 11 14  1  0  0  0  0
  9 10  1  0  0  0  0
  9 11  1  0  0  0  0
  9 21  1  0  0  0  0
  7  8  1  0  0  0  0
  7  9  1  0  0  0  0
 25 26  1  0  0  0  0
 25 27  1  0  0  0  0
 25 28  1  0  0  0  0
 23 24  1  0  0  0  0
 23 25  1  0  0  0  0
M  END
$$$$
default_name
  -OEChem-02102213163D

 28 27  0     1  0  0  0  0  0999 V2000
   -3.2133   -3.5565    1.2809 H   0  0  0  0  0  0  0  0  0  0  0  0
   -3.1873   -2.5755    0.8089 C   0  0  0  0  0  0  0  0  0  0  0  0
   -3.8793   -1.9065    1.3169 H   0  0  0  0  0  0  0  0  0  0  0  0
   -3.4623   -2.6685   -0.2401 H   0  0  0  0  0  0  0  0  0  0  0  0
   -1.7863   -2.0195    0.9119 C   0  0  0  0  0  0  0  0  0  0  0  0
   -0.9073   -2.6615    1.4699 O   0  0  0  0  0  0  0  0  0  0  0  0
   -1.5803   -0.8195    0.3749 N   0  0  0  0  0  0  0  0  0  0  0  0
   -2.3603   -0.3345   -0.0451 H   0  0  0  0  0  0  0  0  0  0  0  0
   -0.2933   -0.1205    0.3719 C   0  0  1  0  0  0  0  0  0  0  0  0
    0.3577   -0.5843    1.1143 H   0  0  0  0  0  0  0  0  0  0  0  0
    0.3613   -0.2794   -1.0156 C   0  0  0  0  0  0  0  0  0  0  0  0
    1.4444   -0.2808   -0.8814 H   0  0  0  0  0  0  0  0  0  0  0  0
    0.0711   -1.2406   -1.4424 H   0  0  0  0  0  0  0  0  0  0  0  0
   -0.0132    0.8310   -2.0124 C   0  0  0  0  0  0  0  0  0  0  0  0
    0.0583    1.8047   -1.5276 H   0  0  0  0  0  0  0  0  0  0  0  0
    0.6753    0.8014   -2.8562 H   0  0  0  0  0  0  0  0  0  0  0  0
   -1.4307    0.6698   -2.5519 C   0  0  0  0  0  0  0  0  0  0  0  0
   -2.1558   -0.2890   -2.3403 O   0  0  0  0  0  0  0  0  0  0  0  0
   -1.8749    1.6778   -3.3253 O   0  0  0  0  0  0  0  0  0  0  0  0
   -2.7601    1.4208   -3.5891 H   0  0  0  0  0  0  0  0  0  0  0  0
   -0.4860    1.3537    0.7622 C   0  0  0  0  0  0  0  0  0  0  0  0
   -1.3956    2.0096    0.2582 O   0  0  0  0  0  0  0  0  0  0  0  0
    0.3741    1.8728    1.6466 N   0  0  0  0  0  0  0  0  0  0  0  0
    1.0814    1.2667    2.0345 H   0  0  0  0  0  0  0  0  0  0  0  0
    0.3380    3.2610    2.1024 C   0  0  0  0  0  0  0  0  0  0  0  0
   -0.6389    3.4820    2.5363 H   0  0  0  0  0  0  0  0  0  0  0  0
    1.1108    3.4337    2.8528 H   0  0  0  0  0  0  0  0  0  0  0  0
    0.5009    3.9312    1.2562 H   0  0  0  0  0  0  0  0  0  0  0  0
  5  6  2  0  0  0  0
  5  7  1  0  0  0  0
  2  3  1  0  0  0  0
  2  4  1  0  0  0  0
  2  5  1  0  0  0  0
  1  2  1  0  0  0  0
 21 22  2  0  0  0  0
 21 23  1  0  0  0  0
 19 20  1  0  0  0  0
 17 18  2  0  0  0  0
 17 19  1  0  0  0  0
 14 15  1  0  0  0  0
 14 16  1  0  0  0  0
 14 17  1  0  0  0  0
 11 12  1  0  0  0  0
 11 13  1  0  0  0  0
 11 14  1  0  0  0  0
  9 10  1  0  0  0  0
  9 11  1  0  0  0  0
  9 21  1  0  0  0  0
  7  8  1  0  0  0  0
  7  9  1  0  0  0  0
 25 26  1  0  0  0  0
 25 27  1  0  0  0  0
 25 28  1  0  0  0  0
 23 24  1  0  0  0  0
 23 25  1  0  0  0  0
M  END
$$$$
default_name
  -OEChem-02102213163D

 28 27  0     1  0  0  0  0  0999 V2000
   -3.2133   -3.5565    1.2809 H   0  0  0  0  0  0  0  0  0  0  0  0
   -3.1873   -2.5755    0.8089 C   0  0  0  0  0  0  0  0  0  0  0  0
   -3.8793   -1.9065    1.3169 H   0  0  0  0  0  0  0  0  0  0  0  0
   -3.4623   -2.6685   -0.2401 H   0  0  0  0  0  0  0  0  0  0  0  0
   -1.7863   -2.0195    0.9119 C   0  0  0  0  0  0  0  0  0  0  0  0
   -0.9073   -2.6615    1.4699 O   0  0  0  0  0  0  0  0  0  0  0  0
   -1.5803   -0.8195    0.3749 N   0  0  0  0  0  0  0  0  0  0  0  0
   -2.3603   -0.3345   -0.0451 H   0  0  0  0  0  0  0  0  0  0  0  0
   -0.2933   -0.1205    0.3719 C   0  0  1  0  0  0  0  0  0  0  0  0
    0.3577   -0.5843    1.1143 H   0  0  0  0  0  0  0  0  0  0  0  0
    0.3613   -0.2794   -1.0156 C   0  0  0  0  0  0  0  0  0  0  0  0
    1.4444   -0.2808   -0.8814 H   0  0  0  0  0  0  0  0  0  0  0  0
    0.0711   -1.2406   -1.4424 H   0  0  0  0  0  0  0  0  0  0  0  0
   -0.0132    0.8310   -2.0124 C   0  0  0  0  0  0  0  0  0  0  0  0
    0.3066    1.7992   -1.6270 H   0  0  0  0  0  0  0  0  0  0  0  0
    0.4863    0.6426   -2.9621 H   0  0  0  0  0  0  0  0  0  0  0  0
   -1.5150    0.8932   -2.2713 C   0  0  0  0  0  0  0  0  0  0  0  0
   -2.3312    0.0860   -1.8567 O   0  0  0  0  0  0  0  0  0  0  0  0
   -1.9306    1.9256   -3.0284 O   0  0  0  0  0  0  0  0  0  0  0  0
   -2.8797    1.8141   -3.1061 H   0  0  0  0  0  0  0  0  0  0  0  0
   -0.4860    1.3537    0.7622 C   0  0  0  0  0  0  0  0  0  0  0  0
   -1.3956    2.0096    0.2582 O   0  0  0  0  0  0  0  0  0  0  0  0
    0.3741    1.8728    1.6466 N   0  0  0  0  0  0  0  0  0  0  0  0
    1.0814    1.2667    2.0345 H   0  0  0  0  0  0  0  0  0  0  0  0
    0.3380    3.2610    2.1024 C   0  0  0  0  0  0  0  0  0  0  0  0
   -0.6389    3.4820    2.5363 H   0  0  0  0  0  0  0  0  0  0  0  0
    1.1108    3.4337    2.8528 H   0  0  0  0  0  0  0  0  0  0  0  0
    0.5009    3.9312    1.2562 H   0  0  0  0  0  0  0  0  0  0  0  0
  5  6  2  0  0  0  0
  5  7  1  0  0  0  0
  2  3  1  0  0  0  0
  2  4  1  0  0  0  0
  2  5  1  0  0  0  0
  1  2  1  0  0  0  0
 21 22  2  0  0  0  0
 21 23  1  0  0  0  0
 19 20  1  0  0  0  0
 17 18  2  0  0  0  0
 17 19  1  0  0  0  0
 14 15  1  0  0  0  0
 14 16  1  0  0  0  0
 14 17  1  0  0  0  0
 11 12  1  0  0  0  0
 11 13  1  0  0  0  0
 11 14  1  0  0  0  0
  9 10  1  0  0  0  0
  9 11  1  0  0  0  0
  9 21  1  0  0  0  0
  7  8  1  0  0  0  0
  7  9  1  0  0  0  0
 25 26  1  0  0  0  0
 25 27  1  0  0  0  0
 25 28  1  0  0  0  0
 23 24  1  0  0  0  0
 23 25  1  0  0  0  0
M  END
$$$$
default_name
  -OEChem-02102213163D

 28 27  0     1  0  0  0  0  0999 V2000
   -3.2133   -3.5565    1.2809 H   0  0  0  0  0  0  0  0  0  0  0  0
   -3.1873   -2.5755    0.8089 C   0  0  0  0  0  0  0  0  0  0  0  0
   -3.8793   -1.9065    1.3169 H   0  0  0  0  0  0  0  0  0  0  0  0
   -3.4623   -2.6685   -0.2401 H   0  0  0  0  0  0  0  0  0  0  0  0
   -1.7863   -2.0195    0.9119 C   0  0  0  0  0  0  0  0  0  0  0  0
   -0.9073   -2.6615    1.4699 O   0  0  0  0  0  0  0  0  0  0  0  0
   -1.5803   -0.8195    0.3749 N   0  0  0  0  0  0  0  0  0  0  0  0
   -2.3603   -0.3345   -0.0451 H   0  0  0  0  0  0  0  0  0  0  0  0
   -0.2933   -0.1205    0.3719 C   0  0  1  0  0  0  0  0  0  0  0  0
    0.3577   -0.5843    1.1143 H   0  0  0  0  0  0  0  0  0  0  0  0
    0.3613   -0.2794   -1.0156 C   0  0  0  0  0  0  0  0  0  0  0  0
    1.4444   -0.2808   -0.8814 H   0  0  0  0  0  0  0  0  0  0  0  0
    0.0711   -1.2406   -1.4424 H   0  0  0  0  0  0  0  0  0  0  0  0
   -0.0132    0.8310   -2.0124 C   0  0  0  0  0  0  0  0  0  0  0  0
    0.5270    1.7460   -1.7691 H   0  0  0  0  0  0  0  0  0  0  0  0
    0.2573    0.5143   -3.0191 H   0  0  0  0  0  0  0  0  0  0  0  0
   -1.5066    1.1409   -1.9986 C   0  0  0  0  0  0  0  0  0  0  0  0
   -2.3475    0.5081   -1.3804 O   0  0  0  0  0  0  0  0  0  0  0  0
   -1.8873    2.1929   -2.7469 O   0  0  0  0  0  0  0  0  0  0  0  0
   -2.8390    2.2445   -2.6420 H   0  0  0  0  0  0  0  0  0  0  0  0
   -0.4860    1.3537    0.7622 C   0  0  0  0  0  0  0  0  0  0  0  0
   -1.3956    2.0096    0.2582 O   0  0  0  0  0  0  0  0  0  0  0  0
    0.3741    1.8728    1.6466 N   0  0  0  0  0  0  0  0  0  0  0  0
    1.0814    1.2667    2.0345 H   0  0  0  0  0  0  0  0  0  0  0  0
    0.3380    3.2610    2.1024 C   0  0  0  0  0  0  0  0  0  0  0  0
   -0.6389    3.4820    2.5363 H   0  0  0  0  0  0  0  0  0  0  0  0
    1.1108    3.4337    2.8528 H   0  0  0  0  0  0  0  0  0  0  0  0
    0.5009    3.9312    1.2562 H   0  0  0  0  0  0  0  0  0  0  0  0
  5  6  2  0  0  0  0
  5  7  1  0  0  0  0
  2  3  1  0  0  0  0
  2  4  1  0  0  0  0
  2  5  1  0  0  0  0
  1  2  1  0  0  0  0
 21 22  2  0  0  0  0
 21 23  1  0  0  0  0
 19 20  1  0  0  0  0
 17 18  2  0  0  0  0
 17 19  1  0  0  0  0
 14 15  1  0  0  0  0
 14 16  1  0  0  0  0
 14 17  1  0  0  0  0
 11 12  1  0  0  0  0
 11 13  1  0  0  0  0
 11 14  1  0  0  0  0
  9 10  1  0  0  0  0
  9 11  1  0  0  0  0
  9 21  1  0  0  0  0
  7  8  1  0  0  0  0
  7  9  1  0  0  0  0
 25 26  1  0  0  0  0
 25 27  1  0  0  0  0
 25 28  1  0  0  0  0
 23 24  1  0  0  0  0
 23 25  1  0  0  0  0
M  END
$$$$
default_name
  -OEChem-02102213163D

 28 27  0     1  0  0  0  0  0999 V2000
   -3.2133   -3.5565    1.2809 H   0  0  0  0  0  0  0  0  0  0  0  0
   -3.1873   -2.5755    0.8089 C   0  0  0  0  0  0  0  0  0  0  0  0
   -3.8793   -1.9065    1.3169 H   0  0  0  0  0  0  0  0  0  0  0  0
   -3.4623   -2.6685   -0.2401 H   0  0  0  0  0  0  0  0  0  0  0  0
   -1.7863   -2.0195    0.9119 C   0  0  0  0  0  0  0  0  0  0  0  0
   -0.9073   -2.6615    1.4699 O   0  0  0  0  0  0  0  0  0  0  0  0
   -1.5803   -0.8195    0.3749 N   0  0  0  0  0  0  0  0  0  0  0  0
   -2.3603   -0.3345   -0.0451 H   0  0  0  0  0  0  0  0  0  0  0  0
   -0.2933   -0.1205    0.3719 C   0  0  1  0  0  0  0  0  0  0  0  0
    0.3577   -0.5843    1.1143 H   0  0  0  0  0  0  0  0  0  0  0  0
    0.3613   -0.2794   -1.0156 C   0  0  0  0  0  0  0  0  0  0  0  0
    1.4444   -0.2808   -0.8814 H   0  0  0  0  0  0  0  0  0  0  0  0
    0.0711   -1.2406   -1.4424 H   0  0  0  0  0  0  0  0  0  0  0  0
   -0.0132    0.8310   -2.0124 C   0  0  0  0  0  0  0  0  0  0  0  0
    0.7044    1.6487   -1.9441 H   0  0  0  0  0  0  0  0  0  0  0  0
    0.0039    0.4251   -3.0232 H   0  0  0  0  0  0  0  0  0  0  0  0
   -1.4059    1.3959   -1.7524 C   0  0  0  0  0  0  0  0  0  0  0  0
   -2.2034    0.9485   -0.9439 O   0  0  0  0  0  0  0  0  0  0  0  0
   -1.7482    2.4617   -2.4998 O   0  0  0  0  0  0  0  0  0  0  0  0
   -2.6408    2.6826   -2.2285 H   0  0  0  0  0  0  0  0  0  0  0  0
   -0.4860    1.3537    0.7622 C   0  0  0  0  0  0  0  0  0  0  0  0
   -1.3956    2.0096    0.2582 O   0  0  0  0  0  0  0  0  0  0  0  0
    0.3741    1.8728    1.6466 N   0  0  0  0  0  0  0  0  0  0  0  0
    1.0814    1.2667    2.0345 H   0  0  0  0  0  0  0  0  0  0  0  0
    0.3380    3.2610    2.1024 C   0  0  0  0  0  0  0  0  0  0  0  0
   -0.6389    3.4820    2.5363 H   0  0  0  0  0  0  0  0  0  0  0  0
    1.1108    3.4337    2.8528 H   0  0  0  0  0  0  0  0  0  0  0  0
    0.5009    3.9312    1.2562 H   0  0  0  0  0  0  0  0  0  0  0  0
  5  6  2  0  0  0  0
  5  7  1  0  0  0  0
  2  3  1  0  0  0  0
  2  4  1  0  0  0  0
  2  5  1  0  0  0  0
  1  2  1  0  0  0  0
 21 22  2  0  0  0  0
 21 23  1  0  0  0  0
 19 20  1  0  0  0  0
 17 18  2  0  0  0  0
 17 19  1  0  0  0  0
 14 15  1  0  0  0  0
 14 16  1  0  0  0  0
 14 17  1  0  0  0  0
 11 12  1  0  0  0  0
 11 13  1  0  0  0  0
 11 14  1  0  0  0  0
  9 10  1  0  0  0  0
  9 11  1  0  0  0  0
  9 21  1  0  0  0  0
  7  8  1  0  0  0  0
  7  9  1  0  0  0  0
 25 26  1  0  0  0  0
 25 27  1  0  0  0  0
 25 28  1  0  0  0  0
 23 24  1  0  0  0  0
 23 25  1  0  0  0  0
M  END
$$$$
default_name
  -OEChem-02102213163D

 28 27  0     1  0  0  0  0  0999 V2000
   -3.2133   -3.5565    1.2809 H   0  0  0  0  0  0  0  0  0  0  0  0
   -3.1873   -2.5755    0.8089 C   0  0  0  0  0  0  0  0  0  0  0  0
   -3.8793   -1.9065    1.3169 H   0  0  0  0  0  0  0  0  0  0  0  0
   -3.4623   -2.6685   -0.2401 H   0  0  0  0  0  0  0  0  0  0  0  0
   -1.7863   -2.0195    0.9119 C   0  0  0  0  0  0  0  0  0  0  0  0
   -0.9073   -2.6615    1.4699 O   0  0  0  0  0  0  0  0  0  0  0  0
   -1.5803   -0.8195    0.3749 N   0  0  0  0  0  0  0  0  0  0  0  0
   -2.3603   -0.3345   -0.0451 H   0  0  0  0  0  0  0  0  0  0  0  0
   -0.2933   -0.1205    0.3719 C   0  0  1  0  0  0  0  0  0  0  0  0
    0.3577   -0.5843    1.1143 H   0  0  0  0  0  0  0  0  0  0  0  0
    0.3613   -0.2794   -1.0156 C   0  0  0  0  0  0  0  0  0  0  0  0
    1.4444   -0.2808   -0.8814 H   0  0  0  0  0  0  0  0  0  0  0  0
    0.0711   -1.2406   -1.4424 H   0  0  0  0  0  0  0  0  0  0  0  0
   -0.0132    0.8310   -2.0124 C   0  0  0  0  0  0  0  0  0  0  0  0
    0.8268    1.5139   -2.1402 H   0  0  0  0  0  0  0  0  0  0  0  0
   -0.2565    0.3812   -2.9743 H   0  0  0  0  0  0  0  0  0  0  0  0
   -1.2200    1.6408   -1.5495 C   0  0  0  0  0  0  0  0  0  0  0  0
   -1.9089    1.3773   -0.5769 O   0  0  0  0  0  0  0  0  0  0  0  0
   -1.5225    2.7135   -2.3041 O   0  0  0  0  0  0  0  0  0  0  0  0
   -2.2987    3.0986   -1.8936 H   0  0  0  0  0  0  0  0  0  0  0  0
   -0.4860    1.3537    0.7622 C   0  0  0  0  0  0  0  0  0  0  0  0
   -1.3956    2.0096    0.2582 O   0  0  0  0  0  0  0  0  0  0  0  0
    0.3741    1.8728    1.6466 N   0  0  0  0  0  0  0  0  0  0  0  0
    1.0814    1.2667    2.0345 H   0  0  0  0  0  0  0  0  0  0  0  0
    0.3380    3.2610    2.1024 C   0  0  0  0  0  0  0  0  0  0  0  0
   -0.6389    3.4820    2.5363 H   0  0  0  0  0  0  0  0  0  0  0  0
    1.1108    3.4337    2.8528 H   0  0  0  0  0  0  0  0  0  0  0  0
    0.5009    3.9312    1.2562 H   0  0  0  0  0  0  0  0  0  0  0  0
  5  6  2  0  0  0  0
  5  7  1  0  0  0  0
  2  3  1  0  0  0  0
  2  4  1  0  0  0  0
  2  5  1  0  0  0  0
  1  2  1  0  0  0  0
 21 22  2  0  0  0  0
 21 23  1  0  0  0  0
 19 20  1  0  0  0  0
 17 18  2  0  0  0  0
 17 19  1  0  0  0  0
 14 15  1  0  0  0  0
 14 16  1  0  0  0  0
 14 17  1  0  0  0  0
 11 12  1  0  0  0  0
 11 13  1  0  0  0  0
 11 14  1  0  0  0  0
  9 10  1  0  0  0  0
  9 11  1  0  0  0  0
  9 21  1  0  0  0  0
  7  8  1  0  0  0  0
  7  9  1  0  0  0  0
 25 26  1  0  0  0  0
 25 27  1  0  0  0  0
 25 28  1  0  0  0  0
 23 24  1  0  0  0  0
 23 25  1  0  0  0  0
M  END
$$$$
default_name
  -OEChem-02102213163D

 28 27  0     1  0  0  0  0  0999 V2000
   -3.2133   -3.5565    1.2809 H   0  0  0  0  0  0  0  0  0  0  0  0
   -3.1873   -2.5755    0.8089 C   0  0  0  0  0  0  0  0  0  0  0  0
   -3.8793   -1.9065    1.3169 H   0  0  0  0  0  0  0  0  0  0  0  0
   -3.4623   -2.6685   -0.2401 H   0  0  0  0  0  0  0  0  0  0  0  0
   -1.7863   -2.0195    0.9119 C   0  0  0  0  0  0  0  0  0  0  0  0
   -0.9073   -2.6615    1.4699 O   0  0  0  0  0  0  0  0  0  0  0  0
   -1.5803   -0.8195    0.3749 N   0  0  0  0  0  0  0  0  0  0  0  0
   -2.3603   -0.3345   -0.0451 H   0  0  0  0  0  0  0  0  0  0  0  0
   -0.2933   -0.1205    0.3719 C   0  0  1  0  0  0  0  0  0  0  0  0
    0.3577   -0.5843    1.1143 H   0  0  0  0  0  0  0  0  0  0  0  0
    0.3613   -0.2794   -1.0156 C   0  0  0  0  0  0  0  0  0  0  0  0
    1.4444   -0.2808   -0.8814 H   0  0  0  0  0  0  0  0  0  0  0  0
    0.0711   -1.2406   -1.4424 H   0  0  0  0  0  0  0  0  0  0  0  0
   -0.0132    0.8310   -2.0124 C   0  0  0  0  0  0  0  0  0  0  0  0
    0.8858    1.3509   -2.3440 H   0  0  0  0  0  0  0  0  0  0  0  0
   -0.5063    0.3856   -2.8756 H   0  0  0  0  0  0  0  0  0  0  0  0
   -0.9613    1.8590   -1.4036 C   0  0  0  0  0  0  0  0  0  0  0  0
   -1.4839    1.7652   -0.3045 O   0  0  0  0  0  0  0  0  0  0  0  0
   -1.2257    2.9312   -2.1731 O   0  0  0  0  0  0  0  0  0  0  0  0
   -1.8359    3.4641   -1.6602 H   0  0  0  0  0  0  0  0  0  0  0  0
   -0.4860    1.3537    0.7622 C   0  0  0  0  0  0  0  0  0  0  0  0
   -1.3956    2.0096    0.2582 O   0  0  0  0  0  0  0  0  0  0  0  0
    0.3741    1.8728    1.6466 N   0  0  0  0  0  0  0  0  0  0  0  0
    1.0814    1.2667    2.0345 H   0  0  0  0  0  0  0  0  0  0  0  0
    0.3380    3.2610    2.1024 C   0  0  0  0  0  0  0  0  0  0  0  0
   -0.6389    3.4820    2.5363 H   0  0  0  0  0  0  0  0  0  0  0  0
    1.1108    3.4337    2.8528 H   0  0  0  0  0  0  0  0  0  0  0  0
    0.5009    3.9312    1.2562 H   0  0  0  0  0  0  0  0  0  0  0  0
  5  6  2  0  0  0  0
  5  7  1  0  0  0  0
  2  3  1  0  0  0  0
  2  4  1  0  0  0  0
  2  5  1  0  0  0  0
  1  2  1  0  0  0  0
 21 22  2  0  0  0  0
 21 23  1  0  0  0  0
 19 20  1  0  0  0  0
 17 18  2  0  0  0  0
 17 19  1  0  0  0  0
 14 15  1  0  0  0  0
 14 16  1  0  0  0  0
 14 17  1  0  0  0  0
 11 12  1  0  0  0  0
 11 13  1  0  0  0  0
 11 14  1  0  0  0  0
  9 10  1  0  0  0  0
  9 11  1  0  0  0  0
  9 21  1  0  0  0  0
  7  8  1  0  0  0  0
  7  9  1  0  0  0  0
 25 26  1  0  0  0  0
 25 27  1  0  0  0  0
 25 28  1  0  0  0  0
 23 24  1  0  0  0  0
 23 25  1  0  0  0  0
M  END
$$$$
default_name
  -OEChem-02102213163D

 28 27  0     1  0  0  0  0  0999 V2000
   -3.2133   -3.5565    1.2809 H   0  0  0  0  0  0  0  0  0  0  0  0
   -3.1873   -2.5755    0.8089 C   0  0  0  0  0  0  0  0  0  0  0  0
   -3.8793   -1.9065    1.3169 H   0  0  0  0  0  0  0  0  0  0  0  0
   -3.4623   -2.6685   -0.2401 H   0  0  0  0  0  0  0  0  0  0  0  0
   -1.7863   -2.0195    0.9119 C   0  0  0  0  0  0  0  0  0  0  0  0
   -0.9073   -2.6615    1.4699 O   0  0  0  0  0  0  0  0  0  0  0  0
   -1.5803   -0.8195    0.3749 N   0  0  0  0  0  0  0  0  0  0  0  0
   -2.3603   -0.3345   -0.0451 H   0  0  0  0  0  0  0  0  0  0  0  0
   -0.2933   -0.1205    0.3719 C   0  0  1  0  0  0  0  0  0  0  0  0
    0.3577   -0.5843    1.1143 H   0  0  0  0  0  0  0  0  0  0  0  0
    0.3613   -0.2794   -1.0156 C   0  0  0  0  0  0  0  0  0  0  0  0
    1.4444   -0.2808   -0.8814 H   0  0  0  0  0  0  0  0  0  0  0  0
    0.0711   -1.2406   -1.4424 H   0  0  0  0  0  0  0  0  0  0  0  0
   -0.0132    0.8310   -2.0124 C   0  0  0  0  0  0  0  0  0  0  0  0
    0.8773    1.1707   -2.5415 H   0  0  0  0  0  0  0  0  0  0  0  0
   -0.7284    0.4379   -2.7340 H   0  0  0  0  0  0  0  0  0  0  0  0
   -0.6477    2.0355   -1.3247 C   0  0  0  0  0  0  0  0  0  0  0  0
   -0.9574    2.0858   -0.1451 O   0  0  0  0  0  0  0  0  0  0  0  0
   -0.8781    3.0999   -2.1156 O   0  0  0  0  0  0  0  0  0  0  0  0
   -1.2839    3.7543   -1.5443 H   0  0  0  0  0  0  0  0  0  0  0  0
   -0.4860    1.3537    0.7622 C   0  0  0  0  0  0  0  0  0  0  0  0
   -1.3956    2.0096    0.2582 O   0  0  0  0  0  0  0  0  0  0  0  0
    0.3741    1.8728    1.6466 N   0  0  0  0  0  0  0  0  0  0  0  0
    1.0814    1.2667    2.0345 H   0  0  0  0  0  0  0  0  0  0  0  0
    0.3380    3.2610    2.1024 C   0  0  0  0  0  0  0  0  0  0  0  0
   -0.6389    3.4820    2.5363 H   0  0  0  0  0  0  0  0  0  0  0  0
    1.1108    3.4337    2.8528 H   0  0  0  0  0  0  0  0  0  0  0  0
    0.5009    3.9312    1.2562 H   0  0  0  0  0  0  0  0  0  0  0  0
  5  6  2  0  0  0  0
  5  7  1  0  0  0  0
  2  3  1  0  0  0  0
  2  4  1  0  0  0  0
  2  5  1  0  0  0  0
  1  2  1  0  0  0  0
 21 22  2  0  0  0  0
 21 23  1  0  0  0  0
 19 20  1  0  0  0  0
 17 18  2  0  0  0  0
 17 19  1  0  0  0  0
 14 15  1  0  0  0  0
 14 16  1  0  0  0  0
 14 17  1  0  0  0  0
 11 12  1  0  0  0  0
 11 13  1  0  0  0  0
 11 14  1  0  0  0  0
  9 10  1  0  0  0  0
  9 11  1  0  0  0  0
  9 21  1  0  0  0  0
  7  8  1  0  0  0  0
  7  9  1  0  0  0  0
 25 26  1  0  0  0  0
 25 27  1  0  0  0  0
 25 28  1  0  0  0  0
 23 24  1  0  0  0  0
 23 25  1  0  0  0  0
M  END
$$$$
default_name
  -OEChem-02102213163D

 28 27  0     1  0  0  0  0  0999 V2000
   -3.2133   -3.5565    1.2809 H   0  0  0  0  0  0  0  0  0  0  0  0
   -3.1873   -2.5755    0.8089 C   0  0  0  0  0  0  0  0  0  0  0  0
   -3.8793   -1.9065    1.3169 H   0  0  0  0  0  0  0  0  0  0  0  0
   -3.4623   -2.6685   -0.2401 H   0  0  0  0  0  0  0  0  0  0  0  0
   -1.7863   -2.0195    0.9119 C   0  0  0  0  0  0  0  0  0  0  0  0
   -0.9073   -2.6615    1.4699 O   0  0  0  0  0  0  0  0  0  0  0  0
   -1.5803   -0.8195    0.3749 N   0  0  0  0  0  0  0  0  0  0  0  0
   -2.3603   -0.3345   -0.0451 H   0  0  0  0  0  0  0  0  0  0  0  0
   -0.2933   -0.1205    0.3719 C   0  0  1  0  0  0  0  0  0  0  0  0
    0.3577   -0.5843    1.1143 H   0  0  0  0  0  0  0  0  0  0  0  0
    0.3613   -0.2794   -1.0156 C   0  0  0  0  0  0  0  0  0  0  0  0
    1.4444   -0.2808   -0.8814 H   0  0  0  0  0  0  0  0  0  0  0  0
    0.0711   -1.2406   -1.4424 H   0  0  0  0  0  0  0  0  0  0  0  0
   -0.0132    0.8310   -2.0124 C   0  0  0  0  0  0  0  0  0  0  0  0
    0.8020    0.9856   -2.7195 H   0  0  0  0  0  0  0  0  0  0  0  0
   -0.9077    0.5346   -2.5589 H   0  0  0  0  0  0  0  0  0  0  0  0
   -0.3004    2.1584   -1.3182 C   0  0  0  0  0  0  0  0  0  0  0  0
   -0.3654    2.3171   -0.1098 O   0  0  0  0  0  0  0  0  0  0  0  0
   -0.5033    3.2083   -2.1358 O   0  0  0  0  0  0  0  0  0  0  0  0
   -0.6805    3.9493   -1.5538 H   0  0  0  0  0  0  0  0  0  0  0  0
   -0.4860    1.3537    0.7622 C   0  0  0  0  0  0  0  0  0  0  0  0
   -1.3956    2.0096    0.2582 O   0  0  0  0  0  0  0  0  0  0  0  0
    0.3741    1.8728    1.6466 N   0  0  0  0  0  0  0  0  0  0  0  0
    1.0814    1.2667    2.0345 H   0  0  0  0  0  0  0  0  0  0  0  0
    0.3380    3.2610    2.1024 C   0  0  0  0  0  0  0  0  0  0  0  0
   -0.6389    3.4820    2.5363 H   0  0  0  0  0  0  0  0  0  0  0  0
    1.1108    3.4337    2.8528 H   0  0  0  0  0  0  0  0  0  0  0  0
    0.5009    3.9312    1.2562 H   0  0  0  0  0  0  0  0  0  0  0  0
  5  6  2  0  0  0  0
  5  7  1  0  0  0  0
  2  3  1  0  0  0  0
  2  4  1  0  0  0  0
  2  5  1  0  0  0  0
  1  2  1  0  0  0  0
 21 22  2  0  0  0  0
 21 23  1  0  0  0  0
 19 20  1  0  0  0  0
 17 18  2  0  0  0  0
 17 19  1  0  0  0  0
 14 15  1  0  0  0  0
 14 16  1  0  0  0  0
 14 17  1  0  0  0  0
 11 12  1  0  0  0  0
 11 13  1  0  0  0  0
 11 14  1  0  0  0  0
  9 10  1  0  0  0  0
  9 11  1  0  0  0  0
  9 21  1  0  0  0  0
  7  8  1  0  0  0  0
  7  9  1  0  0  0  0
 25 26  1  0  0  0  0
 25 27  1  0  0  0  0
 25 28  1  0  0  0  0
 23 24  1  0  0  0  0
 23 25  1  0  0  0  0
M  END
$$$$
default_name
  -OEChem-02102213163D

 28 27  0     1  0  0  0  0  0999 V2000
   -3.2133   -3.5565    1.2809 H   0  0  0  0  0  0  0  0  0  0  0  0
   -3.1873   -2.5755    0.8089 C   0  0  0  0  0  0  0  0  0  0  0  0
   -3.8793   -1.9065    1.3169 H   0  0  0  0  0  0  0  0  0  0  0  0
   -3.4623   -2.6685   -0.2401 H   0  0  0  0  0  0  0  0  0  0  0  0
   -1.7863   -2.0195    0.9119 C   0  0  0  0  0  0  0  0  0  0  0  0
   -0.9073   -2.6615    1.4699 O   0  0  0  0  0  0  0  0  0  0  0  0
   -1.5803   -0.8195    0.3749 N   0  0  0  0  0  0  0  0  0  0  0  0
   -2.3603   -0.3345   -0.0451 H   0  0  0  0  0  0  0  0  0  0  0  0
   -0.2933   -0.1205    0.3719 C   0  0  1  0  0  0  0  0  0  0  0  0
    0.3577   -0.5843    1.1143 H   0  0  0  0  0  0  0  0  0  0  0  0
    0.3613   -0.2794   -1.0156 C   0  0  0  0  0  0  0  0  0  0  0  0
    1.4444   -0.2808   -0.8814 H   0  0  0  0  0  0  0  0  0  0  0  0
    0.0711   -1.2406   -1.4424 H   0  0  0  0  0  0  0  0  0  0  0  0
   -0.0132    0.8310   -2.0124 C   0  0  0  0  0  0  0  0  0  0  0  0
    0.6650    0.8082   -2.8656 H   0  0  0  0  0  0  0  0  0  0  0  0
   -1.0320    0.6691   -2.3624 H   0  0  0  0  0  0  0  0  0  0  0  0
    0.0569    2.2193   -1.3846 C   0  0  0  0  0  0  0  0  0  0  0  0
    0.2519    2.4436   -0.2008 O   0  0  0  0  0  0  0  0  0  0  0  0
   -0.1268    3.2488   -2.2320 O   0  0  0  0  0  0  0  0  0  0  0  0
   -0.0667    4.0359   -1.6879 H   0  0  0  0  0  0  0  0  0  0  0  0
   -0.4860    1.3537    0.7622 C   0  0  0  0  0  0  0  0  0  0  0  0
   -1.3956    2.0096    0.2582 O   0  0  0  0  0  0  0  0  0  0  0  0
    0.3741    1.8728    1.6466 N   0  0  0  0  0  0  0  0  0  0  0  0
    1.0814    1.2667    2.0345 H   0  0  0  0  0  0  0  0  0  0  0  0
    0.3380    3.2610    2.1024 C   0  0  0  0  0  0  0  0  0  0  0  0
   -0.6389    3.4820    2.5363 H   0  0  0  0  0  0  0  0  0  0  0  0
    1.1108    3.4337    2.8528 H   0  0  0  0  0  0  0  0  0  0  0  0
    0.5009    3.9312    1.2562 H   0  0  0  0  0  0  0  0  0  0  0  0
  5  6  2  0  0  0  0
  5  7  1  0  0  0  0
  2  3  1  0  0  0  0
  2  4  1  0  0  0  0
  2  5  1  0  0  0  0
  1  2  1  0  0  0  0
 21 22  2  0  0  0  0
 21 23  1  0  0  0  0
 19 20  1  0  0  0  0
 17 18  2  0  0  0  0
 17 19  1  0  0  0  0
 14 15  1  0  0  0  0
 14 16  1  0  0  0  0
 14 17  1  0  0  0  0
 11 12  1  0  0  0  0
 11 13  1  0  0  0  0
 11 14  1  0  0  0  0
  9 10  1  0  0  0  0
  9 11  1  0  0  0  0
  9 21  1  0  0  0  0
  7  8  1  0  0  0  0
  7  9  1  0  0  0  0
 25 26  1  0  0  0  0
 25 27  1  0  0  0  0
 25 28  1  0  0  0  0
 23 24  1  0  0  0  0
 23 25  1  0  0  0  0
M  END
$$$$
default_name
  -OEChem-02102213163D

 28 27  0     1  0  0  0  0  0999 V2000
   -3.2133   -3.5565    1.2809 H   0  0  0  0  0  0  0  0  0  0  0  0
   -3.1873   -2.5755    0.8089 C   0  0  0  0  0  0  0  0  0  0  0  0
   -3.8793   -1.9065    1.3169 H   0  0  0  0  0  0  0  0  0  0  0  0
   -3.4623   -2.6685   -0.2401 H   0  0  0  0  0  0  0  0  0  0  0  0
   -1.7863   -2.0195    0.9119 C   0  0  0  0  0  0  0  0  0  0  0  0
   -0.9073   -2.6615    1.4699 O   0  0  0  0  0  0  0  0  0  0  0  0
   -1.5803   -0.8195    0.3749 N   0  0  0  0  0  0  0  0  0  0  0  0
   -2.3603   -0.3345   -0.0451 H   0  0  0  0  0  0  0  0  0  0  0  0
   -0.2933   -0.1205    0.3719 C   0  0  1  0  0  0  0  0  0  0  0  0
    0.3577   -0.5843    1.1143 H   0  0  0  0  0  0  0  0  0  0  0  0
    0.3613   -0.2794   -1.0156 C   0  0  0  0  0  0  0  0  0  0  0  0
    1.4444   -0.2808   -0.8814 H   0  0  0  0  0  0  0  0  0  0  0  0
    0.0711   -1.2406   -1.4424 H   0  0  0  0  0  0  0  0  0  0  0  0
   -0.0132    0.8310   -2.0124 C   0  0  0  0  0  0  0  0  0  0  0  0
    0.4756    0.6506   -2.9699 H   0  0  0  0  0  0  0  0  0  0  0  0
   -1.0928    0.8322   -2.1579 H   0  0  0  0  0  0  0  0  0  0  0  0
    0.3998    2.2140   -1.5193 C   0  0  0  0  0  0  0  0  0  0  0  0
    0.8523    2.4565   -0.4119 O   0  0  0  0  0  0  0  0  0  0  0  0
    0.2256    3.2187   -2.3979 O   0  0  0  0  0  0  0  0  0  0  0  0
    0.5157    4.0082   -1.9375 H   0  0  0  0  0  0  0  0  0  0  0  0
   -0.4860    1.3537    0.7622 C   0  0  0  0  0  0  0  0  0  0  0  0
   -1.3956    2.0096    0.2582 O   0  0  0  0  0  0  0  0  0  0  0  0
    0.3741    1.8728    1.6466 N   0  0  0  0  0  0  0  0  0  0  0  0
    1.0814    1.2667    2.0345 H   0  0  0  0  0  0  0  0  0  0  0  0
    0.3380    3.2610    2.1024 C   0  0  0  0  0  0  0  0  0  0  0  0
   -0.6389    3.4820    2.5363 H   0  0  0  0  0  0  0  0  0  0  0  0
    1.1108    3.4337    2.8528 H   0  0  0  0  0  0  0  0  0  0  0  0
    0.5009    3.9312    1.2562 H   0  0  0  0  0  0  0  0  0  0  0  0
  5  6  2  0  0  0  0
  5  7  1  0  0  0  0
  2  3  1  0  0  0  0
  2  4  1  0  0  0  0
  2  5  1  0  0  0  0
  1  2  1  0  0  0  0
 21 22  2  0  0  0  0
 21 23  1  0  0  0  0
 19 20  1  0  0  0  0
 17 18  2  0  0  0  0
 17 19  1  0  0  0  0
 14 15  1  0  0  0  0
 14 16  1  0  0  0  0
 14 17  1  0  0  0  0
 11 12  1  0  0  0  0
 11 13  1  0  0  0  0
 11 14  1  0  0  0  0
  9 10  1  0  0  0  0
  9 11  1  0  0  0  0
  9 21  1  0  0  0  0
  7  8  1  0  0  0  0
  7  9  1  0  0  0  0
 25 26  1  0  0  0  0
 25 27  1  0  0  0  0
 25 28  1  0  0  0  0
 23 24  1  0  0  0  0
 23 25  1  0  0  0  0
M  END
$$$$
default_name
  -OEChem-02102213163D

 28 27  0     1  0  0  0  0  0999 V2000
   -3.2133   -3.5565    1.2809 H   0  0  0  0  0  0  0  0  0  0  0  0
   -3.1873   -2.5755    0.8089 C   0  0  0  0  0  0  0  0  0  0  0  0
   -3.8793   -1.9065    1.3169 H   0  0  0  0  0  0  0  0  0  0  0  0
   -3.4623   -2.6685   -0.2401 H   0  0  0  0  0  0  0  0  0  0  0  0
   -1.7863   -2.0195    0.9119 C   0  0  0  0  0  0  0  0  0  0  0  0
   -0.9073   -2.6615    1.4699 O   0  0  0  0  0  0  0  0  0  0  0  0
   -1.5803   -0.8195    0.3749 N   0  0  0  0  0  0  0  0  0  0  0  0
   -2.3603   -0.3345   -0.0451 H   0  0  0  0  0  0  0  0  0  0  0  0
   -0.2933   -0.1205    0.3719 C   0  0  1  0  0  0  0  0  0  0  0  0
    0.3577   -0.5843    1.1143 H   0  0  0  0  0  0  0  0  0  0  0  0
    0.3613   -0.2794   -1.0156 C   0  0  0  0  0  0  0  0  0  0  0  0
    1.4444   -0.2808   -0.8814 H   0  0  0  0  0  0  0  0  0  0  0  0
    0.0711   -1.2406   -1.4424 H   0  0  0  0  0  0  0  0  0  0  0  0
   -0.0132    0.8310   -2.0124 C   0  0  0  0  0  0  0  0  0  0  0  0
    0.2468    0.5236   -3.0254 H   0  0  0  0  0  0  0  0  0  0  0  0
   -1.0859    1.0128   -1.9592 H   0  0  0  0  0  0  0  0  0  0  0  0
    0.7050    2.1429   -1.7131 C   0  0  0  0  0  0  0  0  0  0  0  0
    1.3950    2.3549   -0.7289 O   0  0  0  0  0  0  0  0  0  0  0  0
    0.5300    3.1201   -2.6220 O   0  0  0  0  0  0  0  0  0  0  0  0
    1.0270    3.8680   -2.2857 H   0  0  0  0  0  0  0  0  0  0  0  0
   -0.4860    1.3537    0.7622 C   0  0  0  0  0  0  0  0  0  0  0  0
   -1.3956    2.0096    0.2582 O   0  0  0  0  0  0  0  0  0  0  0  0
    0.3741    1.8728    1.6466 N   0  0  0  0  0  0  0  0  0  0  0  0
    1.0814    1.2667    2.0345 H   0  0  0  0  0  0  0  0  0  0  0  0
    0.3380    3.2610    2.1024 C   0  0  0  0  0  0  0  0  0  0  0  0
   -0.6389    3.4820    2.5363 H   0  0  0  0  0  0  0  0  0  0  0  0
    1.1108    3.4337    2.8528 H   0  0  0  0  0  0  0  0  0  0  0  0
    0.5009    3.9312    1.2562 H   0  0  0  0  0  0  0  0  0  0  0  0
  5  6  2  0  0  0  0
  5  7  1  0  0  0  0
  2  3  1  0  0  0  0
  2  4  1  0  0  0  0
  2  5  1  0  0  0  0
  1  2  1  0  0  0  0
 21 22  2  0  0  0  0
 21 23  1  0  0  0  0
 19 20  1  0  0  0  0
 17 18  2  0  0  0  0
 17 19  1  0  0  0  0
 14 15  1  0  0  0  0
 14 16  1  0  0  0  0
 14 17  1  0  0  0  0
 11 12  1  0  0  0  0
 11 13  1  0  0  0  0
 11 14  1  0  0  0  0
  9 10  1  0  0  0  0
  9 11  1  0  0  0  0
  9 21  1  0  0  0  0
  7  8  1  0  0  0  0
  7  9  1  0  0  0  0
 25 26  1  0  0  0  0
 25 27  1  0  0  0  0
 25 28  1  0  0  0  0
 23 24  1  0  0  0  0
 23 25  1  0  0  0  0
M  END
$$$$
default_name
  -OEChem-02102213163D

 28 27  0     1  0  0  0  0  0999 V2000
   -3.2133   -3.5565    1.2809 H   0  0  0  0  0  0  0  0  0  0  0  0
   -3.1873   -2.5755    0.8089 C   0  0  0  0  0  0  0  0  0  0  0  0
   -3.8793   -1.9065    1.3169 H   0  0  0  0  0  0  0  0  0  0  0  0
   -3.4623   -2.6685   -0.2401 H   0  0  0  0  0  0  0  0  0  0  0  0
   -1.7863   -2.0195    0.9119 C   0  0  0  0  0  0  0  0  0  0  0  0
   -0.9073   -2.6615    1.4699 O   0  0  0  0  0  0  0  0  0  0  0  0
   -1.5803   -0.8195    0.3749 N   0  0  0  0  0  0  0  0  0  0  0  0
   -2.3603   -0.3345   -0.0451 H   0  0  0  0  0  0  0  0  0  0  0  0
   -0.2933   -0.1205    0.3719 C   0  0  1  0  0  0  0  0  0  0  0  0
    0.3577   -0.5843    1.1143 H   0  0  0  0  0  0  0  0  0  0  0  0
    0.3613   -0.2794   -1.0156 C   0  0  0  0  0  0  0  0  0  0  0  0
    1.4444   -0.2808   -0.8814 H   0  0  0  0  0  0  0  0  0  0  0  0
    0.0711   -1.2406   -1.4424 H   0  0  0  0  0  0  0  0  0  0  0  0
   -0.0132    0.8310   -2.0124 C   0  0  0  0  0  0  0  0  0  0  0  0
   -0.0060    0.4358   -3.0283 H   0  0  0  0  0  0  0  0  0  0  0  0
   -1.0119    1.1987   -1.7800 H   0  0  0  0  0  0  0  0  0  0  0  0
    0.9516    2.0109   -1.9529 C   0  0  0  0  0  0  0  0  0  0  0  0
    1.8430    2.1459   -1.1300 O   0  0  0  0  0  0  0  0  0  0  0  0
    0.7657    2.9598   -2.8892 O   0  0  0  0  0  0  0  0  0  0  0  0
    1.4322    3.6249   -2.7087 H   0  0  0  0  0  0  0  0  0  0  0  0
   -0.4860    1.3537    0.7622 C   0  0  0  0  0  0  0  0  0  0  0  0
   -1.3956    2.0096    0.2582 O   0  0  0  0  0  0  0  0  0  0  0  0
    0.3741    1.8728    1.6466 N   0  0  0  0  0  0  0  0  0  0  0  0
    1.0814    1.2667    2.0345 H   0  0  0  0  0  0  0  0  0  0  0  0
    0.3380    3.2610    2.1024 C   0  0  0  0  0  0  0  0  0  0  0  0
   -0.6389    3.4820    2.5363 H   0  0  0  0  0  0  0  0  0  0  0  0
    1.1108    3.4337    2.8528 H   0  0  0  0  0  0  0  0  0  0  0  0
    0.5009    3.9312    1.2562 H   0  0  0  0  0  0  0  0  0  0  0  0
  5  6  2  0  0  0  0
  5  7  1  0  0  0  0
  2  3  1  0  0  0  0
  2  4  1  0  0  0  0
  2  5  1  0  0  0  0
  1  2  1  0  0  0  0
 21 22  2  0  0  0  0
 21 23  1  0  0  0  0
 19 20  1  0  0  0  0
 17 18  2  0  0  0  0
 17 19  1  0  0  0  0
 14 15  1  0  0  0  0
 14 16  1  0  0  0  0
 14 17  1  0  0  0  0
 11 12  1  0  0  0  0
 11 13  1  0  0  0  0
 11 14  1  0  0  0  0
  9 10  1  0  0  0  0
  9 11  1  0  0  0  0
  9 21  1  0  0  0  0
  7  8  1  0  0  0  0
  7  9  1  0  0  0  0
 25 26  1  0  0  0  0
 25 27  1  0  0  0  0
 25 28  1  0  0  0  0
 23 24  1  0  0  0  0
 23 25  1  0  0  0  0
M  END
$$$$
default_name
  -OEChem-02102213163D

 28 27  0     1  0  0  0  0  0999 V2000
   -3.2133   -3.5565    1.2809 H   0  0  0  0  0  0  0  0  0  0  0  0
   -3.1873   -2.5755    0.8089 C   0  0  0  0  0  0  0  0  0  0  0  0
   -3.8793   -1.9065    1.3169 H   0  0  0  0  0  0  0  0  0  0  0  0
   -3.4623   -2.6685   -0.2401 H   0  0  0  0  0  0  0  0  0  0  0  0
   -1.7863   -2.0195    0.9119 C   0  0  0  0  0  0  0  0  0  0  0  0
   -0.9073   -2.6615    1.4699 O   0  0  0  0  0  0  0  0  0  0  0  0
   -1.5803   -0.8195    0.3749 N   0  0  0  0  0  0  0  0  0  0  0  0
   -2.3603   -0.3345   -0.0451 H   0  0  0  0  0  0  0  0  0  0  0  0
   -0.2933   -0.1205    0.3719 C   0  0  1  0  0  0  0  0  0  0  0  0
    0.3577   -0.5843    1.1143 H   0  0  0  0  0  0  0  0  0  0  0  0
    0.3613   -0.2794   -1.0156 C   0  0  0  0  0  0  0  0  0  0  0  0
    1.4444   -0.2808   -0.8814 H   0  0  0  0  0  0  0  0  0  0  0  0
    0.0711   -1.2406   -1.4424 H   0  0  0  0  0  0  0  0  0  0  0  0
   -0.0132    0.8310   -2.0124 C   0  0  0  0  0  0  0  0  0  0  0  0
   -0.2653    0.3932   -2.9784 H   0  0  0  0  0  0  0  0  0  0  0  0
   -0.8757    1.3771   -1.6324 H   0  0  0  0  0  0  0  0  0  0  0  0
    1.1230    1.8268   -2.2222 C   0  0  0  0  0  0  0  0  0  0  0  0
    2.1657    1.8435   -1.5880 O   0  0  0  0  0  0  0  0  0  0  0  0
    0.9165    2.7485   -3.1812 O   0  0  0  0  0  0  0  0  0  0  0  0
    1.7039    3.2955   -3.1777 H   0  0  0  0  0  0  0  0  0  0  0  0
   -0.4860    1.3537    0.7622 C   0  0  0  0  0  0  0  0  0  0  0  0
   -1.3956    2.0096    0.2582 O   0  0  0  0  0  0  0  0  0  0  0  0
    0.3741    1.8728    1.6466 N   0  0  0  0  0  0  0  0  0  0  0  0
    1.0814    1.2667    2.0345 H   0  0  0  0  0  0  0  0  0  0  0  0
    0.3380    3.2610    2.1024 C   0  0  0  0  0  0  0  0  0  0  0  0
   -0.6389    3.4820    2.5363 H   0  0  0  0  0  0  0  0  0  0  0  0
    1.1108    3.4337    2.8528 H   0  0  0  0  0  0  0  0  0  0  0  0
    0.5009    3.9312    1.2562 H   0  0  0  0  0  0  0  0  0  0  0  0
  5  6  2  0  0  0  0
  5  7  1  0  0  0  0
  2  3  1  0  0  0  0
  2  4  1  0  0  0  0
  2  5  1  0  0  0  0
  1  2  1  0  0  0  0
 21 22  2  0  0  0  0
 21 23  1  0  0  0  0
 19 20  1  0  0  0  0
 17 18  2  0  0  0  0
 17 19  1  0  0  0  0
 14 15  1  0  0  0  0
 14 16  1  0  0  0  0
 14 17  1  0  0  0  0
 11 12  1  0  0  0  0
 11 13  1  0  0  0  0
 11 14  1  0  0  0  0
  9 10  1  0  0  0  0
  9 11  1  0  0  0  0
  9 21  1  0  0  0  0
  7  8  1  0  0  0  0
  7  9  1  0  0  0  0
 25 26  1  0  0  0  0
 25 27  1  0  0  0  0
 25 28  1  0  0  0  0
 23 24  1  0  0  0  0
 23 25  1  0  0  0  0
M  END
$$$$
default_name
  -OEChem-02102213163D

 28 27  0     1  0  0  0  0  0999 V2000
   -3.2133   -3.5565    1.2809 H   0  0  0  0  0  0  0  0  0  0  0  0
   -3.1873   -2.5755    0.8089 C   0  0  0  0  0  0  0  0  0  0  0  0
   -3.8793   -1.9065    1.3169 H   0  0  0  0  0  0  0  0  0  0  0  0
   -3.4623   -2.6685   -0.2401 H   0  0  0  0  0  0  0  0  0  0  0  0
   -1.7863   -2.0195    0.9119 C   0  0  0  0  0  0  0  0  0  0  0  0
   -0.9073   -2.6615    1.4699 O   0  0  0  0  0  0  0  0  0  0  0  0
   -1.5803   -0.8195    0.3749 N   0  0  0  0  0  0  0  0  0  0  0  0
   -2.3603   -0.3345   -0.0451 H   0  0  0  0  0  0  0  0  0  0  0  0
   -0.2933   -0.1205    0.3719 C   0  0  1  0  0  0  0  0  0  0  0  0
    0.3577   -0.5843    1.1143 H   0  0  0  0  0  0  0  0  0  0  0  0
    0.3613   -0.2794   -1.0156 C   0  0  0  0  0  0  0  0  0  0  0  0
    1.4444   -0.2808   -0.8814 H   0  0  0  0  0  0  0  0  0  0  0  0
    0.0711   -1.2406   -1.4424 H   0  0  0  0  0  0  0  0  0  0  0  0
   -0.0132    0.8310   -2.0124 C   0  0  0  0  0  0  0  0  0  0  0  0
   -0.5137    0.3987   -2.8790 H   0  0  0  0  0  0  0  0  0  0  0  0
   -0.6867    1.5359   -1.5265 H   0  0  0  0  0  0  0  0  0  0  0  0
    1.2073    1.6034   -2.5028 C   0  0  0  0  0  0  0  0  0  0  0  0
    2.3412    1.4685   -2.0716 O   0  0  0  0  0  0  0  0  0  0  0  0
    0.9721    2.5007   -3.4781 O   0  0  0  0  0  0  0  0  0  0  0  0
    1.8235    2.9022   -3.6607 H   0  0  0  0  0  0  0  0  0  0  0  0
   -0.4860    1.3537    0.7622 C   0  0  0  0  0  0  0  0  0  0  0  0
   -1.3956    2.0096    0.2582 O   0  0  0  0  0  0  0  0  0  0  0  0
    0.3741    1.8728    1.6466 N   0  0  0  0  0  0  0  0  0  0  0  0
    1.0814    1.2667    2.0345 H   0  0  0  0  0  0  0  0  0  0  0  0
    0.3380    3.2610    2.1024 C   0  0  0  0  0  0  0  0  0  0  0  0
   -0.6389    3.4820    2.5363 H   0  0  0  0  0  0  0  0  0  0  0  0
    1.1108    3.4337    2.8528 H   0  0  0  0  0  0  0  0  0  0  0  0
    0.5009    3.9312    1.2562 H   0  0  0  0  0  0  0  0  0  0  0  0
  5  6  2  0  0  0  0
  5  7  1  0  0  0  0
  2  3  1  0  0  0  0
  2  4  1  0  0  0  0
  2  5  1  0  0  0  0
  1  2  1  0  0  0  0
 21 22  2  0  0  0  0
 21 23  1  0  0  0  0
 19 20  1  0  0  0  0
 17 18  2  0  0  0  0
 17 19  1  0  0  0  0
 14 15  1  0  0  0  0
 14 16  1  0  0  0  0
 14 17  1  0  0  0  0
 11 12  1  0  0  0  0
 11 13  1  0  0  0  0
 11 14  1  0  0  0  0
  9 10  1  0  0  0  0
  9 11  1  0  0  0  0
  9 21  1  0  0  0  0
  7  8  1  0  0  0  0
  7  9  1  0  0  0  0
 25 26  1  0  0  0  0
 25 27  1  0  0  0  0
 25 28  1  0  0  0  0
 23 24  1  0  0  0  0
 23 25  1  0  0  0  0
M  END
$$$$
default_name
  -OEChem-02102213163D

 28 27  0     1  0  0  0  0  0999 V2000
   -3.2133   -3.5565    1.2809 H   0  0  0  0  0  0  0  0  0  0  0  0
   -3.1873   -2.5755    0.8089 C   0  0  0  0  0  0  0  0  0  0  0  0
   -3.8793   -1.9065    1.3169 H   0  0  0  0  0  0  0  0  0  0  0  0
   -3.4623   -2.6685   -0.2401 H   0  0  0  0  0  0  0  0  0  0  0  0
   -1.7863   -2.0195    0.9119 C   0  0  0  0  0  0  0  0  0  0  0  0
   -0.9073   -2.6615    1.4699 O   0  0  0  0  0  0  0  0  0  0  0  0
   -1.5803   -0.8195    0.3749 N   0  0  0  0  0  0  0  0  0  0  0  0
   -2.3603   -0.3345   -0.0451 H   0  0  0  0  0  0  0  0  0  0  0  0
   -0.2933   -0.1205    0.3719 C   0  0  1  0  0  0  0  0  0  0  0  0
    0.3577   -0.5843    1.1143 H   0  0  0  0  0  0  0  0  0  0  0  0
    0.3613   -0.2794   -1.0156 C   0  0  0  0  0  0  0  0  0  0  0  0
    1.4444   -0.2808   -0.8814 H   0  0  0  0  0  0  0  0  0  0  0  0
    0.0711   -1.2406   -1.4424 H   0  0  0  0  0  0  0  0  0  0  0  0
   -0.0132    0.8310   -2.0124 C   0  0  0  0  0  0  0  0  0  0  0  0
   -0.7341    0.4519   -2.7369 H   0  0  0  0  0  0  0  0  0  0  0  0
   -0.4578    1.6643   -1.4695 H   0  0  0  0  0  0  0  0  0  0  0  0
    1.1988    1.3557   -2.7755 C   0  0  0  0  0  0  0  0  0  0  0  0
    2.3574    1.0464   -2.5479 O   0  0  0  0  0  0  0  0  0  0  0  0
    0.9289    2.2334   -3.7596 O   0  0  0  0  0  0  0  0  0  0  0  0
    1.7828    2.4718   -4.1248 H   0  0  0  0  0  0  0  0  0  0  0  0
   -0.4860    1.3537    0.7622 C   0  0  0  0  0  0  0  0  0  0  0  0
   -1.3956    2.0096    0.2582 O   0  0  0  0  0  0  0  0  0  0  0  0
    0.3741    1.8728    1.6466 N   0  0  0  0  0  0  0  0  0  0  0  0
    1.0814    1.2667    2.0345 H   0  0  0  0  0  0  0  0  0  0  0  0
    0.3380    3.2610    2.1024 C   0  0  0  0  0  0  0  0  0  0  0  0
   -0.6389    3.4820    2.5363 H   0  0  0  0  0  0  0  0  0  0  0  0
    1.1108    3.4337    2.8528 H   0  0  0  0  0  0  0  0  0  0  0  0
    0.5009    3.9312    1.2562 H   0  0  0  0  0  0  0  0  0  0  0  0
  5  6  2  0  0  0  0
  5  7  1  0  0  0  0
  2  3  1  0  0  0  0
  2  4  1  0  0  0  0
  2  5  1  0  0  0  0
  1  2  1  0  0  0  0
 21 22  2  0  0  0  0
 21 23  1  0  0  0  0
 19 20  1  0  0  0  0
 17 18  2  0  0  0  0
 17 19  1  0  0  0  0
 14 15  1  0  0  0  0
 14 16  1  0  0  0  0
 14 17  1  0  0  0  0
 11 12  1  0  0  0  0
 11 13  1  0  0  0  0
 11 14  1  0  0  0  0
  9 10  1  0  0  0  0
  9 11  1  0  0  0  0
  9 21  1  0  0  0  0
  7  8  1  0  0  0  0
  7  9  1  0  0  0  0
 25 26  1  0  0  0  0
 25 27  1  0  0  0  0
 25 28  1  0  0  0  0
 23 24  1  0  0  0  0
 23 25  1  0  0  0  0
M  END
$$$$
default_name
  -OEChem-02102213163D

 28 27  0     1  0  0  0  0  0999 V2000
   -3.2133   -3.5565    1.2809 H   0  0  0  0  0  0  0  0  0  0  0  0
   -3.1873   -2.5755    0.8089 C   0  0  0  0  0  0  0  0  0  0  0  0
   -3.8793   -1.9065    1.3169 H   0  0  0  0  0  0  0  0  0  0  0  0
   -3.4623   -2.6685   -0.2401 H   0  0  0  0  0  0  0  0  0  0  0  0
   -1.7863   -2.0195    0.9119 C   0  0  0  0  0  0  0  0  0  0  0  0
   -0.9073   -2.6615    1.4699 O   0  0  0  0  0  0  0  0  0  0  0  0
   -1.5803   -0.8195    0.3749 N   0  0  0  0  0  0  0  0  0  0  0  0
   -2.3603   -0.3345   -0.0451 H   0  0  0  0  0  0  0  0  0  0  0  0
   -0.2933   -0.1205    0.3719 C   0  0  1  0  0  0  0  0  0  0  0  0
    0.3577   -0.5843    1.1143 H   0  0  0  0  0  0  0  0  0  0  0  0
    0.3613   -0.2794   -1.0156 C   0  0  0  0  0  0  0  0  0  0  0  0
    1.4444   -0.2808   -0.8814 H   0  0  0  0  0  0  0  0  0  0  0  0
    0.0711   -1.2406   -1.4424 H   0  0  0  0  0  0  0  0  0  0  0  0
   -0.0132    0.8310   -2.0124 C   0  0  0  0  0  0  0  0  0  0  0  0
   -0.9115    0.5492   -2.5619 H   0  0  0  0  0  0  0  0  0  0  0  0
   -0.2044    1.7534   -1.4654 H   0  0  0  0  0  0  0  0  0  0  0  0
    1.0982    1.1007   -3.0217 C   0  0  0  0  0  0  0  0  0  0  0  0
    2.2134    0.6060   -2.9844 O   0  0  0  0  0  0  0  0  0  0  0  0
    0.7897    1.9646   -4.0067 O   0  0  0  0  0  0  0  0  0  0  0  0
    1.5846    2.0337   -4.5384 H   0  0  0  0  0  0  0  0  0  0  0  0
   -0.4860    1.3537    0.7622 C   0  0  0  0  0  0  0  0  0  0  0  0
   -1.3956    2.0096    0.2582 O   0  0  0  0  0  0  0  0  0  0  0  0
    0.3741    1.8728    1.6466 N   0  0  0  0  0  0  0  0  0  0  0  0
    1.0814    1.2667    2.0345 H   0  0  0  0  0  0  0  0  0  0  0  0
    0.3380    3.2610    2.1024 C   0  0  0  0  0  0  0  0  0  0  0  0
   -0.6389    3.4820    2.5363 H   0  0  0  0  0  0  0  0  0  0  0  0
    1.1108    3.4337    2.8528 H   0  0  0  0  0  0  0  0  0  0  0  0
    0.5009    3.9312    1.2562 H   0  0  0  0  0  0  0  0  0  0  0  0
  5  6  2  0  0  0  0
  5  7  1  0  0  0  0
  2  3  1  0  0  0  0
  2  4  1  0  0  0  0
  2  5  1  0  0  0  0
  1  2  1  0  0  0  0
 21 22  2  0  0  0  0
 21 23  1  0  0  0  0
 19 20  1  0  0  0  0
 17 18  2  0  0  0  0
 17 19  1  0  0  0  0
 14 15  1  0  0  0  0
 14 16  1  0  0  0  0
 14 17  1  0  0  0  0
 11 12  1  0  0  0  0
 11 13  1  0  0  0  0
 11 14  1  0  0  0  0
  9 10  1  0  0  0  0
  9 11  1  0  0  0  0
  9 21  1  0  0  0  0
  7  8  1  0  0  0  0
  7  9  1  0  0  0  0
 25 26  1  0  0  0  0
 25 27  1  0  0  0  0
 25 28  1  0  0  0  0
 23 24  1  0  0  0  0
 23 25  1  0  0  0  0
M  END
$$$$
default_name
  -OEChem-02102213163D

 28 27  0     1  0  0  0  0  0999 V2000
   -3.2133   -3.5565    1.2809 H   0  0  0  0  0  0  0  0  0  0  0  0
   -3.1873   -2.5755    0.8089 C   0  0  0  0  0  0  0  0  0  0  0  0
   -3.8793   -1.9065    1.3169 H   0  0  0  0  0  0  0  0  0  0  0  0
   -3.4623   -2.6685   -0.2401 H   0  0  0  0  0  0  0  0  0  0  0  0
   -1.7863   -2.0195    0.9119 C   0  0  0  0  0  0  0  0  0  0  0  0
   -0.9073   -2.6615    1.4699 O   0  0  0  0  0  0  0  0  0  0  0  0
   -1.5803   -0.8195    0.3749 N   0  0  0  0  0  0  0  0  0  0  0  0
   -2.3603   -0.3345   -0.0451 H   0  0  0  0  0  0  0  0  0  0  0  0
   -0.2933   -0.1205    0.3719 C   0  0  1  0  0  0  0  0  0  0  0  0
    0.3577   -0.5843    1.1143 H   0  0  0  0  0  0  0  0  0  0  0  0
    0.3613   -0.2794   -1.0156 C   0  0  0  0  0  0  0  0  0  0  0  0
    1.4444   -0.2808   -0.8814 H   0  0  0  0  0  0  0  0  0  0  0  0
    0.0711   -1.2406   -1.4424 H   0  0  0  0  0  0  0  0  0  0  0  0
   -0.0132    0.8310   -2.0124 C   0  0  0  0  0  0  0  0  0  0  0  0
   -1.0338    0.6840   -2.3658 H   0  0  0  0  0  0  0  0  0  0  0  0
    0.0560    1.7973   -1.5143 H   0  0  0  0  0  0  0  0  0  0  0  0
    0.9122    0.8558   -3.2247 C   0  0  0  0  0  0  0  0  0  0  0  0
    1.9188    0.1772   -3.3514 O   0  0  0  0  0  0  0  0  0  0  0  0
    0.5641    1.7128   -4.2024 O   0  0  0  0  0  0  0  0  0  0  0  0
    1.2425    1.6177   -4.8732 H   0  0  0  0  0  0  0  0  0  0  0  0
   -0.4860    1.3537    0.7622 C   0  0  0  0  0  0  0  0  0  0  0  0
   -1.3956    2.0096    0.2582 O   0  0  0  0  0  0  0  0  0  0  0  0
    0.3741    1.8728    1.6466 N   0  0  0  0  0  0  0  0  0  0  0  0
    1.0814    1.2667    2.0345 H   0  0  0  0  0  0  0  0  0  0  0  0
    0.3380    3.2610    2.1024 C   0  0  0  0  0  0  0  0  0  0  0  0
   -0.6389    3.4820    2.5363 H   0  0  0  0  0  0  0  0  0  0  0  0
    1.1108    3.4337    2.8528 H   0  0  0  0  0  0  0  0  0  0  0  0
    0.5009    3.9312    1.2562 H   0  0  0  0  0  0  0  0  0  0  0  0
  5  6  2  0  0  0  0
  5  7  1  0  0  0  0
  2  3  1  0  0  0  0
  2  4  1  0  0  0  0
  2  5  1  0  0  0  0
  1  2  1  0  0  0  0
 21 22  2  0  0  0  0
 21 23  1  0  0  0  0
 19 20  1  0  0  0  0
 17 18  2  0  0  0  0
 17 19  1  0  0  0  0
 14 15  1  0  0  0  0
 14 16  1  0  0  0  0
 14 17  1  0  0  0  0
 11 12  1  0  0  0  0
 11 13  1  0  0  0  0
 11 14  1  0  0  0  0
  9 10  1  0  0  0  0
  9 11  1  0  0  0  0
  9 21  1  0  0  0  0
  7  8  1  0  0  0  0
  7  9  1  0  0  0  0
 25 26  1  0  0  0  0
 25 27  1  0  0  0  0
 25 28  1  0  0  0  0
 23 24  1  0  0  0  0
 23 25  1  0  0  0  0
M  END
$$$$
default_name
  -OEChem-02102213163D

 28 27  0     1  0  0  0  0  0999 V2000
   -3.2133   -3.5565    1.2809 H   0  0  0  0  0  0  0  0  0  0  0  0
   -3.1873   -2.5755    0.8089 C   0  0  0  0  0  0  0  0  0  0  0  0
   -3.8793   -1.9065    1.3169 H   0  0  0  0  0  0  0  0  0  0  0  0
   -3.4623   -2.6685   -0.2401 H   0  0  0  0  0  0  0  0  0  0  0  0
   -1.7863   -2.0195    0.9119 C   0  0  0  0  0  0  0  0  0  0  0  0
   -0.9073   -2.6615    1.4699 O   0  0  0  0  0  0  0  0  0  0  0  0
   -1.5803   -0.8195    0.3749 N   0  0  0  0  0  0  0  0  0  0  0  0
   -2.3603   -0.3345   -0.0451 H   0  0  0  0  0  0  0  0  0  0  0  0
   -0.2933   -0.1205    0.3719 C   0  0  1  0  0  0  0  0  0  0  0  0
    0.3577   -0.5843    1.1143 H   0  0  0  0  0  0  0  0  0  0  0  0
    0.3613   -0.2794   -1.0156 C   0  0  0  0  0  0  0  0  0  0  0  0
    1.4085   -0.5488   -0.8676 H   0  0  0  0  0  0  0  0  0  0  0  0
   -0.1262   -1.0946   -1.5522 H   0  0  0  0  0  0  0  0  0  0  0  0
    0.2938    0.9876   -1.8856 C   0  0  0  0  0  0  0  0  0  0  0  0
   -0.7461    1.2721   -2.0471 H   0  0  0  0  0  0  0  0  0  0  0  0
    0.8105    1.7998   -1.3756 H   0  0  0  0  0  0  0  0  0  0  0  0
    0.9511    0.7895   -3.2476 C   0  0  0  0  0  0  0  0  0  0  0  0
    1.5816   -0.2001   -3.5837 O   0  0  0  0  0  0  0  0  0  0  0  0
    0.8121    1.8113   -4.1126 O   0  0  0  0  0  0  0  0  0  0  0  0
    1.2846    1.5389   -4.9012 H   0  0  0  0  0  0  0  0  0  0  0  0
   -0.4860    1.3537    0.7622 C   0  0  0  0  0  0  0  0  0  0  0  0
   -1.3956    2.0096    0.2582 O   0  0  0  0  0  0  0  0  0  0  0  0
    0.3741    1.8728    1.6466 N   0  0  0  0  0  0  0  0  0  0  0  0
    1.0814    1.2667    2.0345 H   0  0  0  0  0  0  0  0  0  0  0  0
    0.3380    3.2610    2.1024 C   0  0  0  0  0  0  0  0  0  0  0  0
   -0.6389    3.4820    2.5363 H   0  0  0  0  0  0  0  0  0  0  0  0
    1.1108    3.4337    2.8528 H   0  0  0  0  0  0  0  0  0  0  0  0
    0.5009    3.9312    1.2562 H   0  0  0  0  0  0  0  0  0  0  0  0
  5  6  2  0  0  0  0
  5  7  1  0  0  0  0
  2  3  1  0  0  0  0
  2  4  1  0  0  0  0
  2  5  1  0  0  0  0
  1  2  1  0  0  0  0
 21 22  2  0  0  0  0
 21 23  1  0  0  0  0
 19 20  1  0  0  0  0
 17 18  2  0  0  0  0
 17 19  1  0  0  0  0
 14 15  1  0  0  0  0
 14 16  1  0  0  0  0
 14 17  1  0  0  0  0
 11 12  1  0  0  0  0
 11 13  1  0  0  0  0
 11 14  1  0  0  0  0
  9 10  1  0  0  0  0
  9 11  1  0  0  0  0
  9 21  1  0  0  0  0
  7  8  1  0  0  0  0
  7  9  1  0  0  0  0
 25 26  1  0  0  0  0
 25 27  1  0  0  0  0
 25 28  1  0  0  0  0
 23 24  1  0  0  0  0
 23 25  1  0  0  0  0
M  END
$$$$
default_name
  -OEChem-02102213163D

 28 27  0     1  0  0  0  0  0999 V2000
   -3.2133   -3.5565    1.2809 H   0  0  0  0  0  0  0  0  0  0  0  0
   -3.1873   -2.5755    0.8089 C   0  0  0  0  0  0  0  0  0  0  0  0
   -3.8793   -1.9065    1.3169 H   0  0  0  0  0  0  0  0  0  0  0  0
   -3.4623   -2.6685   -0.2401 H   0  0  0  0  0  0  0  0  0  0  0  0
   -1.7863   -2.0195    0.9119 C   0  0  0  0  0  0  0  0  0  0  0  0
   -0.9073   -2.6615    1.4699 O   0  0  0  0  0  0  0  0  0  0  0  0
   -1.5803   -0.8195    0.3749 N   0  0  0  0  0  0  0  0  0  0  0  0
   -2.3603   -0.3345   -0.0451 H   0  0  0  0  0  0  0  0  0  0  0  0
   -0.2933   -0.1205    0.3719 C   0  0  1  0  0  0  0  0  0  0  0  0
    0.3577   -0.5843    1.1143 H   0  0  0  0  0  0  0  0  0  0  0  0
    0.3613   -0.2794   -1.0156 C   0  0  0  0  0  0  0  0  0  0  0  0
    1.4085   -0.5488   -0.8676 H   0  0  0  0  0  0  0  0  0  0  0  0
   -0.1262   -1.0946   -1.5522 H   0  0  0  0  0  0  0  0  0  0  0  0
    0.2938    0.9876   -1.8856 C   0  0  0  0  0  0  0  0  0  0  0  0
   -0.7040    1.4232   -1.8304 H   0  0  0  0  0  0  0  0  0  0  0  0
    1.0199    1.7124   -1.5193 H   0  0  0  0  0  0  0  0  0  0  0  0
    0.6085    0.7008   -3.3502 C   0  0  0  0  0  0  0  0  0  0  0  0
    1.0020   -0.3695   -3.7854 O   0  0  0  0  0  0  0  0  0  0  0  0
    0.4374    1.7358   -4.1935 O   0  0  0  0  0  0  0  0  0  0  0  0
    0.6856    1.4002   -5.0567 H   0  0  0  0  0  0  0  0  0  0  0  0
   -0.4860    1.3537    0.7622 C   0  0  0  0  0  0  0  0  0  0  0  0
   -1.3956    2.0096    0.2582 O   0  0  0  0  0  0  0  0  0  0  0  0
    0.3741    1.8728    1.6466 N   0  0  0  0  0  0  0  0  0  0  0  0
    1.0814    1.2667    2.0345 H   0  0  0  0  0  0  0  0  0  0  0  0
    0.3380    3.2610    2.1024 C   0  0  0  0  0  0  0  0  0  0  0  0
   -0.6389    3.4820    2.5363 H   0  0  0  0  0  0  0  0  0  0  0  0
    1.1108    3.4337    2.8528 H   0  0  0  0  0  0  0  0  0  0  0  0
    0.5009    3.9312    1.2562 H   0  0  0  0  0  0  0  0  0  0  0  0
  5  6  2  0  0  0  0
  5  7  1  0  0  0  0
  2  3  1  0  0  0  0
  2  4  1  0  0  0  0
  2  5  1  0  0  0  0
  1  2  1  0  0  0  0
 21 22  2  0  0  0  0
 21 23  1  0  0  0  0
 19 20  1  0  0  0  0
 17 18  2  0  0  0  0
 17 19  1  0  0  0  0
 14 15  1  0  0  0  0
 14 16  1  0  0  0  0
 14 17  1  0  0  0  0
 11 12  1  0  0  0  0
 11 13  1  0  0  0  0
 11 14  1  0  0  0  0
  9 10  1  0  0  0  0
  9 11  1  0  0  0  0
  9 21  1  0  0  0  0
  7  8  1  0  0  0  0
  7  9  1  0  0  0  0
 25 26  1  0  0  0  0
 25 27  1  0  0  0  0
 25 28  1  0  0  0  0
 23 24  1  0  0  0  0
 23 25  1  0  0  0  0
M  END
$$$$
default_name
  -OEChem-02102213163D

 28 27  0     1  0  0  0  0  0999 V2000
   -3.2133   -3.5565    1.2809 H   0  0  0  0  0  0  0  0  0  0  0  0
   -3.1873   -2.5755    0.8089 C   0  0  0  0  0  0  0  0  0  0  0  0
   -3.8793   -1.9065    1.3169 H   0  0  0  0  0  0  0  0  0  0  0  0
   -3.4623   -2.6685   -0.2401 H   0  0  0  0  0  0  0  0  0  0  0  0
   -1.7863   -2.0195    0.9119 C   0  0  0  0  0  0  0  0  0  0  0  0
   -0.9073   -2.6615    1.4699 O   0  0  0  0  0  0  0  0  0  0  0  0
   -1.5803   -0.8195    0.3749 N   0  0  0  0  0  0  0  0  0  0  0  0
   -2.3603   -0.3345   -0.0451 H   0  0  0  0  0  0  0  0  0  0  0  0
   -0.2933   -0.1205    0.3719 C   0  0  1  0  0  0  0  0  0  0  0  0
    0.3577   -0.5843    1.1143 H   0  0  0  0  0  0  0  0  0  0  0  0
    0.3613   -0.2794   -1.0156 C   0  0  0  0  0  0  0  0  0  0  0  0
    1.4085   -0.5488   -0.8676 H   0  0  0  0  0  0  0  0  0  0  0  0
   -0.1262   -1.0946   -1.5522 H   0  0  0  0  0  0  0  0  0  0  0  0
    0.2938    0.9876   -1.8856 C   0  0  0  0  0  0  0  0  0  0  0  0
   -0.5950    1.5654   -1.6317 H   0  0  0  0  0  0  0  0  0  0  0  0
    1.1788    1.5956   -1.7017 H   0  0  0  0  0  0  0  0  0  0  0  0
    0.2427    0.6641   -3.3753 C   0  0  0  0  0  0  0  0  0  0  0  0
    0.3744   -0.4506   -3.8548 O   0  0  0  0  0  0  0  0  0  0  0  0
    0.0472    1.7168   -4.1909 O   0  0  0  0  0  0  0  0  0  0  0  0
    0.0535    1.3522   -5.0776 H   0  0  0  0  0  0  0  0  0  0  0  0
   -0.4860    1.3537    0.7622 C   0  0  0  0  0  0  0  0  0  0  0  0
   -1.3956    2.0096    0.2582 O   0  0  0  0  0  0  0  0  0  0  0  0
    0.3741    1.8728    1.6466 N   0  0  0  0  0  0  0  0  0  0  0  0
    1.0814    1.2667    2.0345 H   0  0  0  0  0  0  0  0  0  0  0  0
    0.3380    3.2610    2.1024 C   0  0  0  0  0  0  0  0  0  0  0  0
   -0.6389    3.4820    2.5363 H   0  0  0  0  0  0  0  0  0  0  0  0
    1.1108    3.4337    2.8528 H   0  0  0  0  0  0  0  0  0  0  0  0
    0.5009    3.9312    1.2562 H   0  0  0  0  0  0  0  0  0  0  0  0
  5  6  2  0  0  0  0
  5  7  1  0  0  0  0
  2  3  1  0  0  0  0
  2  4  1  0  0  0  0
  2  5  1  0  0  0  0
  1  2  1  0  0  0  0
 21 22  2  0  0  0  0
 21 23  1  0  0  0  0
 19 20  1  0  0  0  0
 17 18  2  0  0  0  0
 17 19  1  0  0  0  0
 14 15  1  0  0  0  0
 14 16  1  0  0  0  0
 14 17  1  0  0  0  0
 11 12  1  0  0  0  0
 11 13  1  0  0  0  0
 11 14  1  0  0  0  0
  9 10  1  0  0  0  0
  9 11  1  0  0  0  0
  9 21  1  0  0  0  0
  7  8  1  0  0  0  0
  7  9  1  0  0  0  0
 25 26  1  0  0  0  0
 25 27  1  0  0  0  0
 25 28  1  0  0  0  0
 23 24  1  0  0  0  0
 23 25  1  0  0  0  0
M  END
$$$$
default_name
  -OEChem-02102213163D

 28 27  0     1  0  0  0  0  0999 V2000
   -3.2133   -3.5565    1.2809 H   0  0  0  0  0  0  0  0  0  0  0  0
   -3.1873   -2.5755    0.8089 C   0  0  0  0  0  0  0  0  0  0  0  0
   -3.8793   -1.9065    1.3169 H   0  0  0  0  0  0  0  0  0  0  0  0
   -3.4623   -2.6685   -0.2401 H   0  0  0  0  0  0  0  0  0  0  0  0
   -1.7863   -2.0195    0.9119 C   0  0  0  0  0  0  0  0  0  0  0  0
   -0.9073   -2.6615    1.4699 O   0  0  0  0  0  0  0  0  0  0  0  0
   -1.5803   -0.8195    0.3749 N   0  0  0  0  0  0  0  0  0  0  0  0
   -2.3603   -0.3345   -0.0451 H   0  0  0  0  0  0  0  0  0  0  0  0
   -0.2933   -0.1205    0.3719 C   0  0  1  0  0  0  0  0  0  0  0  0
    0.3577   -0.5843    1.1143 H   0  0  0  0  0  0  0  0  0  0  0  0
    0.3613   -0.2794   -1.0156 C   0  0  0  0  0  0  0  0  0  0  0  0
    1.4085   -0.5488   -0.8676 H   0  0  0  0  0  0  0  0  0  0  0  0
   -0.1262   -1.0946   -1.5522 H   0  0  0  0  0  0  0  0  0  0  0  0
    0.2938    0.9876   -1.8856 C   0  0  0  0  0  0  0  0  0  0  0  0
   -0.4266    1.6891   -1.4646 H   0  0  0  0  0  0  0  0  0  0  0  0
    1.2763    1.4575   -1.9104 H   0  0  0  0  0  0  0  0  0  0  0  0
   -0.1213    0.6819   -3.3211 C   0  0  0  0  0  0  0  0  0  0  0  0
   -0.2585   -0.4379   -3.7871 O   0  0  0  0  0  0  0  0  0  0  0  0
   -0.3319    1.7556   -4.1050 O   0  0  0  0  0  0  0  0  0  0  0  0
   -0.5685    1.3980   -4.9626 H   0  0  0  0  0  0  0  0  0  0  0  0
   -0.4860    1.3537    0.7622 C   0  0  0  0  0  0  0  0  0  0  0  0
   -1.3956    2.0096    0.2582 O   0  0  0  0  0  0  0  0  0  0  0  0
    0.3741    1.8728    1.6466 N   0  0  0  0  0  0  0  0  0  0  0  0
    1.0814    1.2667    2.0345 H   0  0  0  0  0  0  0  0  0  0  0  0
    0.3380    3.2610    2.1024 C   0  0  0  0  0  0  0  0  0  0  0  0
   -0.6389    3.4820    2.5363 H   0  0  0  0  0  0  0  0  0  0  0  0
    1.1108    3.4337    2.8528 H   0  0  0  0  0  0  0  0  0  0  0  0
    0.5009    3.9312    1.2562 H   0  0  0  0  0  0  0  0  0  0  0  0
  5  6  2  0  0  0  0
  5  7  1  0  0  0  0
  2  3  1  0  0  0  0
  2  4  1  0  0  0  0
  2  5  1  0  0  0  0
  1  2  1  0  0  0  0
 21 22  2  0  0  0  0
 21 23  1  0  0  0  0
 19 20  1  0  0  0  0
 17 18  2  0  0  0  0
 17 19  1  0  0  0  0
 14 15  1  0  0  0  0
 14 16  1  0  0  0  0
 14 17  1  0  0  0  0
 11 12  1  0  0  0  0
 11 13  1  0  0  0  0
 11 14  1  0  0  0  0
  9 10  1  0  0  0  0
  9 11  1  0  0  0  0
  9 21  1  0  0  0  0
  7  8  1  0  0  0  0
  7  9  1  0  0  0  0
 25 26  1  0  0  0  0
 25 27  1  0  0  0  0
 25 28  1  0  0  0  0
 23 24  1  0  0  0  0
 23 25  1  0  0  0  0
M  END
$$$$
default_name
  -OEChem-02102213163D

 28 27  0     1  0  0  0  0  0999 V2000
   -3.2133   -3.5565    1.2809 H   0  0  0  0  0  0  0  0  0  0  0  0
   -3.1873   -2.5755    0.8089 C   0  0  0  0  0  0  0  0  0  0  0  0
   -3.8793   -1.9065    1.3169 H   0  0  0  0  0  0  0  0  0  0  0  0
   -3.4623   -2.6685   -0.2401 H   0  0  0  0  0  0  0  0  0  0  0  0
   -1.7863   -2.0195    0.9119 C   0  0  0  0  0  0  0  0  0  0  0  0
   -0.9073   -2.6615    1.4699 O   0  0  0  0  0  0  0  0  0  0  0  0
   -1.5803   -0.8195    0.3749 N   0  0  0  0  0  0  0  0  0  0  0  0
   -2.3603   -0.3345   -0.0451 H   0  0  0  0  0  0  0  0  0  0  0  0
   -0.2933   -0.1205    0.3719 C   0  0  1  0  0  0  0  0  0  0  0  0
    0.3577   -0.5843    1.1143 H   0  0  0  0  0  0  0  0  0  0  0  0
    0.3613   -0.2794   -1.0156 C   0  0  0  0  0  0  0  0  0  0  0  0
    1.4085   -0.5488   -0.8676 H   0  0  0  0  0  0  0  0  0  0  0  0
   -0.1262   -1.0946   -1.5522 H   0  0  0  0  0  0  0  0  0  0  0  0
    0.2938    0.9876   -1.8856 C   0  0  0  0  0  0  0  0  0  0  0  0
   -0.2102    1.7859   -1.3405 H   0  0  0  0  0  0  0  0  0  0  0  0
    1.3058    1.3074   -2.1312 H   0  0  0  0  0  0  0  0  0  0  0  0
   -0.4588    0.7530   -3.1914 C   0  0  0  0  0  0  0  0  0  0  0  0
   -0.8536   -0.3322   -3.5869 O   0  0  0  0  0  0  0  0  0  0  0  0
   -0.6741    1.8495   -3.9416 O   0  0  0  0  0  0  0  0  0  0  0  0
   -1.1381    1.5347   -4.7194 H   0  0  0  0  0  0  0  0  0  0  0  0
   -0.4860    1.3537    0.7622 C   0  0  0  0  0  0  0  0  0  0  0  0
   -1.3956    2.0096    0.2582 O   0  0  0  0  0  0  0  0  0  0  0  0
    0.3741    1.8728    1.6466 N   0  0  0  0  0  0  0  0  0  0  0  0
    1.0814    1.2667    2.0345 H   0  0  0  0  0  0  0  0  0  0  0  0
    0.3380    3.2610    2.1024 C   0  0  0  0  0  0  0  0  0  0  0  0
   -0.6389    3.4820    2.5363 H   0  0  0  0  0  0  0  0  0  0  0  0
    1.1108    3.4337    2.8528 H   0  0  0  0  0  0  0  0  0  0  0  0
    0.5009    3.9312    1.2562 H   0  0  0  0  0  0  0  0  0  0  0  0
  5  6  2  0  0  0  0
  5  7  1  0  0  0  0
  2  3  1  0  0  0  0
  2  4  1  0  0  0  0
  2  5  1  0  0  0  0
  1  2  1  0  0  0  0
 21 22  2  0  0  0  0
 21 23  1  0  0  0  0
 19 20  1  0  0  0  0
 17 18  2  0  0  0  0
 17 19  1  0  0  0  0
 14 15  1  0  0  0  0
 14 16  1  0  0  0  0
 14 17  1  0  0  0  0
 11 12  1  0  0  0  0
 11 13  1  0  0  0  0
 11 14  1  0  0  0  0
  9 10  1  0  0  0  0
  9 11  1  0  0  0  0
  9 21  1  0  0  0  0
  7  8  1  0  0  0  0
  7  9  1  0  0  0  0
 25 26  1  0  0  0  0
 25 27  1  0  0  0  0
 25 28  1  0  0  0  0
 23 24  1  0  0  0  0
 23 25  1  0  0  0  0
M  END
$$$$
default_name
  -OEChem-02102213163D

 28 27  0     1  0  0  0  0  0999 V2000
   -3.2133   -3.5565    1.2809 H   0  0  0  0  0  0  0  0  0  0  0  0
   -3.1873   -2.5755    0.8089 C   0  0  0  0  0  0  0  0  0  0  0  0
   -3.8793   -1.9065    1.3169 H   0  0  0  0  0  0  0  0  0  0  0  0
   -3.4623   -2.6685   -0.2401 H   0  0  0  0  0  0  0  0  0  0  0  0
   -1.7863   -2.0195    0.9119 C   0  0  0  0  0  0  0  0  0  0  0  0
   -0.9073   -2.6615    1.4699 O   0  0  0  0  0  0  0  0  0  0  0  0
   -1.5803   -0.8195    0.3749 N   0  0  0  0  0  0  0  0  0  0  0  0
   -2.3603   -0.3345   -0.0451 H   0  0  0  0  0  0  0  0  0  0  0  0
   -0.2933   -0.1205    0.3719 C   0  0  1  0  0  0  0  0  0  0  0  0
    0.3577   -0.5843    1.1143 H   0  0  0  0  0  0  0  0  0  0  0  0
    0.3613   -0.2794   -1.0156 C   0  0  0  0  0  0  0  0  0  0  0  0
    1.4085   -0.5488   -0.8676 H   0  0  0  0  0  0  0  0  0  0  0  0
   -0.1262   -1.0946   -1.5522 H   0  0  0  0  0  0  0  0  0  0  0  0
    0.2938    0.9876   -1.8856 C   0  0  0  0  0  0  0  0  0  0  0  0
    0.0394    1.8490   -1.2679 H   0  0  0  0  0  0  0  0  0  0  0  0
    1.2652    1.1557   -2.3491 H   0  0  0  0  0  0  0  0  0  0  0  0
   -0.7467    0.8725   -2.9949 C   0  0  0  0  0  0  0  0  0  0  0  0
   -1.3702   -0.1407   -3.2680 O   0  0  0  0  0  0  0  0  0  0  0  0
   -0.9561    1.9922   -3.7119 O   0  0  0  0  0  0  0  0  0  0  0  0
   -1.6164    1.7528   -4.3646 H   0  0  0  0  0  0  0  0  0  0  0  0
   -0.4860    1.3537    0.7622 C   0  0  0  0  0  0  0  0  0  0  0  0
   -1.3956    2.0096    0.2582 O   0  0  0  0  0  0  0  0  0  0  0  0
    0.3741    1.8728    1.6466 N   0  0  0  0  0  0  0  0  0  0  0  0
    1.0814    1.2667    2.0345 H   0  0  0  0  0  0  0  0  0  0  0  0
    0.3380    3.2610    2.1024 C   0  0  0  0  0  0  0  0  0  0  0  0
   -0.6389    3.4820    2.5363 H   0  0  0  0  0  0  0  0  0  0  0  0
    1.1108    3.4337    2.8528 H   0  0  0  0  0  0  0  0  0  0  0  0
    0.5009    3.9312    1.2562 H   0  0  0  0  0  0  0  0  0  0  0  0
  5  6  2  0  0  0  0
  5  7  1  0  0  0  0
  2  3  1  0  0  0  0
  2  4  1  0  0  0  0
  2  5  1  0  0  0  0
  1  2  1  0  0  0  0
 21 22  2  0  0  0  0
 21 23  1  0  0  0  0
 19 20  1  0  0  0  0
 17 18  2  0  0  0  0
 17 19  1  0  0  0  0
 14 15  1  0  0  0  0
 14 16  1  0  0  0  0
 14 17  1  0  0  0  0
 11 12  1  0  0  0  0
 11 13  1  0  0  0  0
 11 14  1  0  0  0  0
  9 10  1  0  0  0  0
  9 11  1  0  0  0  0
  9 21  1  0  0  0  0
  7  8  1  0  0  0  0
  7  9  1  0  0  0  0
 25 26  1  0  0  0  0
 25 27  1  0  0  0  0
 25 28  1  0  0  0  0
 23 24  1  0  0  0  0
 23 25  1  0  0  0  0
M  END
$$$$
default_name
  -OEChem-02102213163D

 28 27  0     1  0  0  0  0  0999 V2000
   -3.2133   -3.5565    1.2809 H   0  0  0  0  0  0  0  0  0  0  0  0
   -3.1873   -2.5755    0.8089 C   0  0  0  0  0  0  0  0  0  0  0  0
   -3.8793   -1.9065    1.3169 H   0  0  0  0  0  0  0  0  0  0  0  0
   -3.4623   -2.6685   -0.2401 H   0  0  0  0  0  0  0  0  0  0  0  0
   -1.7863   -2.0195    0.9119 C   0  0  0  0  0  0  0  0  0  0  0  0
   -0.9073   -2.6615    1.4699 O   0  0  0  0  0  0  0  0  0  0  0  0
   -1.5803   -0.8195    0.3749 N   0  0  0  0  0  0  0  0  0  0  0  0
   -2.3603   -0.3345   -0.0451 H   0  0  0  0  0  0  0  0  0  0  0  0
   -0.2933   -0.1205    0.3719 C   0  0  1  0  0  0  0  0  0  0  0  0
    0.3577   -0.5843    1.1143 H   0  0  0  0  0  0  0  0  0  0  0  0
    0.3613   -0.2794   -1.0156 C   0  0  0  0  0  0  0  0  0  0  0  0
    1.4085   -0.5488   -0.8676 H   0  0  0  0  0  0  0  0  0  0  0  0
   -0.1262   -1.0946   -1.5522 H   0  0  0  0  0  0  0  0  0  0  0  0
    0.2938    0.9876   -1.8856 C   0  0  0  0  0  0  0  0  0  0  0  0
    0.3053    1.8744   -1.2517 H   0  0  0  0  0  0  0  0  0  0  0  0
    1.1573    1.0125   -2.5492 H   0  0  0  0  0  0  0  0  0  0  0  0
   -0.9654    1.0323   -2.7452 C   0  0  0  0  0  0  0  0  0  0  0  0
   -1.7732    0.1235   -2.8520 O   0  0  0  0  0  0  0  0  0  0  0  0
   -1.1587    2.1739   -3.4316 O   0  0  0  0  0  0  0  0  0  0  0  0
   -1.9709    2.0375   -3.9224 H   0  0  0  0  0  0  0  0  0  0  0  0
   -0.4860    1.3537    0.7622 C   0  0  0  0  0  0  0  0  0  0  0  0
   -1.3956    2.0096    0.2582 O   0  0  0  0  0  0  0  0  0  0  0  0
    0.3741    1.8728    1.6466 N   0  0  0  0  0  0  0  0  0  0  0  0
    1.0814    1.2667    2.0345 H   0  0  0  0  0  0  0  0  0  0  0  0
    0.3380    3.2610    2.1024 C   0  0  0  0  0  0  0  0  0  0  0  0
   -0.6389    3.4820    2.5363 H   0  0  0  0  0  0  0  0  0  0  0  0
    1.1108    3.4337    2.8528 H   0  0  0  0  0  0  0  0  0  0  0  0
    0.5009    3.9312    1.2562 H   0  0  0  0  0  0  0  0  0  0  0  0
  5  6  2  0  0  0  0
  5  7  1  0  0  0  0
  2  3  1  0  0  0  0
  2  4  1  0  0  0  0
  2  5  1  0  0  0  0
  1  2  1  0  0  0  0
 21 22  2  0  0  0  0
 21 23  1  0  0  0  0
 19 20  1  0  0  0  0
 17 18  2  0  0  0  0
 17 19  1  0  0  0  0
 14 15  1  0  0  0  0
 14 16  1  0  0  0  0
 14 17  1  0  0  0  0
 11 12  1  0  0  0  0
 11 13  1  0  0  0  0
 11 14  1  0  0  0  0
  9 10  1  0  0  0  0
  9 11  1  0  0  0  0
  9 21  1  0  0  0  0
  7  8  1  0  0  0  0
  7  9  1  0  0  0  0
 25 26  1  0  0  0  0
 25 27  1  0  0  0  0
 25 28  1  0  0  0  0
 23 24  1  0  0  0  0
 23 25  1  0  0  0  0
M  END
$$$$
default_name
  -OEChem-02102213163D

 28 27  0     1  0  0  0  0  0999 V2000
   -3.2133   -3.5565    1.2809 H   0  0  0  0  0  0  0  0  0  0  0  0
   -3.1873   -2.5755    0.8089 C   0  0  0  0  0  0  0  0  0  0  0  0
   -3.8793   -1.9065    1.3169 H   0  0  0  0  0  0  0  0  0  0  0  0
   -3.4623   -2.6685   -0.2401 H   0  0  0  0  0  0  0  0  0  0  0  0
   -1.7863   -2.0195    0.9119 C   0  0  0  0  0  0  0  0  0  0  0  0
   -0.9073   -2.6615    1.4699 O   0  0  0  0  0  0  0  0  0  0  0  0
   -1.5803   -0.8195    0.3749 N   0  0  0  0  0  0  0  0  0  0  0  0
   -2.3603   -0.3345   -0.0451 H   0  0  0  0  0  0  0  0  0  0  0  0
   -0.2933   -0.1205    0.3719 C   0  0  1  0  0  0  0  0  0  0  0  0
    0.3577   -0.5843    1.1143 H   0  0  0  0  0  0  0  0  0  0  0  0
    0.3613   -0.2794   -1.0156 C   0  0  0  0  0  0  0  0  0  0  0  0
    1.4085   -0.5488   -0.8676 H   0  0  0  0  0  0  0  0  0  0  0  0
   -0.1262   -1.0946   -1.5522 H   0  0  0  0  0  0  0  0  0  0  0  0
    0.2938    0.9876   -1.8856 C   0  0  0  0  0  0  0  0  0  0  0  0
    0.5692    1.8601   -1.2929 H   0  0  0  0  0  0  0  0  0  0  0  0
    0.9896    0.8878   -2.7178 H   0  0  0  0  0  0  0  0  0  0  0  0
   -1.1001    1.2216   -2.4592 C   0  0  0  0  0  0  0  0  0  0  0  0
   -2.0351    0.4424   -2.3672 O   0  0  0  0  0  0  0  0  0  0  0  0
   -1.2680    2.3822   -3.1197 O   0  0  0  0  0  0  0  0  0  0  0  0
   -2.1774    2.3695   -3.4229 H   0  0  0  0  0  0  0  0  0  0  0  0
   -0.4860    1.3537    0.7622 C   0  0  0  0  0  0  0  0  0  0  0  0
   -1.3956    2.0096    0.2582 O   0  0  0  0  0  0  0  0  0  0  0  0
    0.3741    1.8728    1.6466 N   0  0  0  0  0  0  0  0  0  0  0  0
    1.0814    1.2667    2.0345 H   0  0  0  0  0  0  0  0  0  0  0  0
    0.3380    3.2610    2.1024 C   0  0  0  0  0  0  0  0  0  0  0  0
   -0.6389    3.4820    2.5363 H   0  0  0  0  0  0  0  0  0  0  0  0
    1.1108    3.4337    2.8528 H   0  0  0  0  0  0  0  0  0  0  0  0
    0.5009    3.9312    1.2562 H   0  0  0  0  0  0  0  0  0  0  0  0
  5  6  2  0  0  0  0
  5  7  1  0  0  0  0
  2  3  1  0  0  0  0
  2  4  1  0  0  0  0
  2  5  1  0  0  0  0
  1  2  1  0  0  0  0
 21 22  2  0  0  0  0
 21 23  1  0  0  0  0
 19 20  1  0  0  0  0
 17 18  2  0  0  0  0
 17 19  1  0  0  0  0
 14 15  1  0  0  0  0
 14 16  1  0  0  0  0
 14 17  1  0  0  0  0
 11 12  1  0  0  0  0
 11 13  1  0  0  0  0
 11 14  1  0  0  0  0
  9 10  1  0  0  0  0
  9 11  1  0  0  0  0
  9 21  1  0  0  0  0
  7  8  1  0  0  0  0
  7  9  1  0  0  0  0
 25 26  1  0  0  0  0
 25 27  1  0  0  0  0
 25 28  1  0  0  0  0
 23 24  1  0  0  0  0
 23 25  1  0  0  0  0
M  END
$$$$
default_name
  -OEChem-02102213163D

 28 27  0     1  0  0  0  0  0999 V2000
   -3.2133   -3.5565    1.2809 H   0  0  0  0  0  0  0  0  0  0  0  0
   -3.1873   -2.5755    0.8089 C   0  0  0  0  0  0  0  0  0  0  0  0
   -3.8793   -1.9065    1.3169 H   0  0  0  0  0  0  0  0  0  0  0  0
   -3.4623   -2.6685   -0.2401 H   0  0  0  0  0  0  0  0  0  0  0  0
   -1.7863   -2.0195    0.9119 C   0  0  0  0  0  0  0  0  0  0  0  0
   -0.9073   -2.6615    1.4699 O   0  0  0  0  0  0  0  0  0  0  0  0
   -1.5803   -0.8195    0.3749 N   0  0  0  0  0  0  0  0  0  0  0  0
   -2.3603   -0.3345   -0.0451 H   0  0  0  0  0  0  0  0  0  0  0  0
   -0.2933   -0.1205    0.3719 C   0  0  1  0  0  0  0  0  0  0  0  0
    0.3577   -0.5843    1.1143 H   0  0  0  0  0  0  0  0  0  0  0  0
    0.3613   -0.2794   -1.0156 C   0  0  0  0  0  0  0  0  0  0  0  0
    1.4085   -0.5488   -0.8676 H   0  0  0  0  0  0  0  0  0  0  0  0
   -0.1262   -1.0946   -1.5522 H   0  0  0  0  0  0  0  0  0  0  0  0
    0.2938    0.9876   -1.8856 C   0  0  0  0  0  0  0  0  0  0  0  0
    0.8133    1.8072   -1.3889 H   0  0  0  0  0  0  0  0  0  0  0  0
    0.7733    0.7899   -2.8435 H   0  0  0  0  0  0  0  0  0  0  0  0
   -1.1415    1.4273   -2.1563 C   0  0  0  0  0  0  0  0  0  0  0  0
   -2.1381    0.7943   -1.8467 O   0  0  0  0  0  0  0  0  0  0  0  0
   -1.2765    2.6030   -2.7975 O   0  0  0  0  0  0  0  0  0  0  0  0
   -2.2218    2.7260   -2.9003 H   0  0  0  0  0  0  0  0  0  0  0  0
   -0.4860    1.3537    0.7622 C   0  0  0  0  0  0  0  0  0  0  0  0
   -1.3956    2.0096    0.2582 O   0  0  0  0  0  0  0  0  0  0  0  0
    0.3741    1.8728    1.6466 N   0  0  0  0  0  0  0  0  0  0  0  0
    1.0814    1.2667    2.0345 H   0  0  0  0  0  0  0  0  0  0  0  0
    0.3380    3.2610    2.1024 C   0  0  0  0  0  0  0  0  0  0  0  0
   -0.6389    3.4820    2.5363 H   0  0  0  0  0  0  0  0  0  0  0  0
    1.1108    3.4337    2.8528 H   0  0  0  0  0  0  0  0  0  0  0  0
    0.5009    3.9312    1.2562 H   0  0  0  0  0  0  0  0  0  0  0  0
  5  6  2  0  0  0  0
  5  7  1  0  0  0  0
  2  3  1  0  0  0  0
  2  4  1  0  0  0  0
  2  5  1  0  0  0  0
  1  2  1  0  0  0  0
 21 22  2  0  0  0  0
 21 23  1  0  0  0  0
 19 20  1  0  0  0  0
 17 18  2  0  0  0  0
 17 19  1  0  0  0  0
 14 15  1  0  0  0  0
 14 16  1  0  0  0  0
 14 17  1  0  0  0  0
 11 12  1  0  0  0  0
 11 13  1  0  0  0  0
 11 14  1  0  0  0  0
  9 10  1  0  0  0  0
  9 11  1  0  0  0  0
  9 21  1  0  0  0  0
  7  8  1  0  0  0  0
  7  9  1  0  0  0  0
 25 26  1  0  0  0  0
 25 27  1  0  0  0  0
 25 28  1  0  0  0  0
 23 24  1  0  0  0  0
 23 25  1  0  0  0  0
M  END
$$$$
default_name
  -OEChem-02102213163D

 28 27  0     1  0  0  0  0  0999 V2000
   -3.2133   -3.5565    1.2809 H   0  0  0  0  0  0  0  0  0  0  0  0
   -3.1873   -2.5755    0.8089 C   0  0  0  0  0  0  0  0  0  0  0  0
   -3.8793   -1.9065    1.3169 H   0  0  0  0  0  0  0  0  0  0  0  0
   -3.4623   -2.6685   -0.2401 H   0  0  0  0  0  0  0  0  0  0  0  0
   -1.7863   -2.0195    0.9119 C   0  0  0  0  0  0  0  0  0  0  0  0
   -0.9073   -2.6615    1.4699 O   0  0  0  0  0  0  0  0  0  0  0  0
   -1.5803   -0.8195    0.3749 N   0  0  0  0  0  0  0  0  0  0  0  0
   -2.3603   -0.3345   -0.0451 H   0  0  0  0  0  0  0  0  0  0  0  0
   -0.2933   -0.1205    0.3719 C   0  0  1  0  0  0  0  0  0  0  0  0
    0.3577   -0.5843    1.1143 H   0  0  0  0  0  0  0  0  0  0  0  0
    0.3613   -0.2794   -1.0156 C   0  0  0  0  0  0  0  0  0  0  0  0
    1.4085   -0.5488   -0.8676 H   0  0  0  0  0  0  0  0  0  0  0  0
   -0.1262   -1.0946   -1.5522 H   0  0  0  0  0  0  0  0  0  0  0  0
    0.2938    0.9876   -1.8856 C   0  0  0  0  0  0  0  0  0  0  0  0
    1.0209    1.7193   -1.5331 H   0  0  0  0  0  0  0  0  0  0  0  0
    0.5233    0.7256   -2.9178 H   0  0  0  0  0  0  0  0  0  0  0  0
   -1.0868    1.6356   -1.8573 C   0  0  0  0  0  0  0  0  0  0  0  0
   -2.0752    1.1552   -1.3261 O   0  0  0  0  0  0  0  0  0  0  0  0
   -1.1839    2.8212   -2.4870 O   0  0  0  0  0  0  0  0  0  0  0  0
   -2.1012    3.0828   -2.3900 H   0  0  0  0  0  0  0  0  0  0  0  0
   -0.4860    1.3537    0.7622 C   0  0  0  0  0  0  0  0  0  0  0  0
   -1.3956    2.0096    0.2582 O   0  0  0  0  0  0  0  0  0  0  0  0
    0.3741    1.8728    1.6466 N   0  0  0  0  0  0  0  0  0  0  0  0
    1.0814    1.2667    2.0345 H   0  0  0  0  0  0  0  0  0  0  0  0
    0.3380    3.2610    2.1024 C   0  0  0  0  0  0  0  0  0  0  0  0
   -0.6389    3.4820    2.5363 H   0  0  0  0  0  0  0  0  0  0  0  0
    1.1108    3.4337    2.8528 H   0  0  0  0  0  0  0  0  0  0  0  0
    0.5009    3.9312    1.2562 H   0  0  0  0  0  0  0  0  0  0  0  0
  5  6  2  0  0  0  0
  5  7  1  0  0  0  0
  2  3  1  0  0  0  0
  2  4  1  0  0  0  0
  2  5  1  0  0  0  0
  1  2  1  0  0  0  0
 21 22  2  0  0  0  0
 21 23  1  0  0  0  0
 19 20  1  0  0  0  0
 17 18  2  0  0  0  0
 17 19  1  0  0  0  0
 14 15  1  0  0  0  0
 14 16  1  0  0  0  0
 14 17  1  0  0  0  0
 11 12  1  0  0  0  0
 11 13  1  0  0  0  0
 11 14  1  0  0  0  0
  9 10  1  0  0  0  0
  9 11  1  0  0  0  0
  9 21  1  0  0  0  0
  7  8  1  0  0  0  0
  7  9  1  0  0  0  0
 25 26  1  0  0  0  0
 25 27  1  0  0  0  0
 25 28  1  0  0  0  0
 23 24  1  0  0  0  0
 23 25  1  0  0  0  0
M  END
$$$$
default_name
  -OEChem-02102213163D

 28 27  0     1  0  0  0  0  0999 V2000
   -3.2133   -3.5565    1.2809 H   0  0  0  0  0  0  0  0  0  0  0  0
   -3.1873   -2.5755    0.8089 C   0  0  0  0  0  0  0  0  0  0  0  0
   -3.8793   -1.9065    1.3169 H   0  0  0  0  0  0  0  0  0  0  0  0
   -3.4623   -2.6685   -0.2401 H   0  0  0  0  0  0  0  0  0  0  0  0
   -1.7863   -2.0195    0.9119 C   0  0  0  0  0  0  0  0  0  0  0  0
   -0.9073   -2.6615    1.4699 O   0  0  0  0  0  0  0  0  0  0  0  0
   -1.5803   -0.8195    0.3749 N   0  0  0  0  0  0  0  0  0  0  0  0
   -2.3603   -0.3345   -0.0451 H   0  0  0  0  0  0  0  0  0  0  0  0
   -0.2933   -0.1205    0.3719 C   0  0  1  0  0  0  0  0  0  0  0  0
    0.3577   -0.5843    1.1143 H   0  0  0  0  0  0  0  0  0  0  0  0
    0.3613   -0.2794   -1.0156 C   0  0  0  0  0  0  0  0  0  0  0  0
    1.4085   -0.5488   -0.8676 H   0  0  0  0  0  0  0  0  0  0  0  0
   -0.1262   -1.0946   -1.5522 H   0  0  0  0  0  0  0  0  0  0  0  0
    0.2938    0.9876   -1.8856 C   0  0  0  0  0  0  0  0  0  0  0  0
    1.1778    1.6023   -1.7155 H   0  0  0  0  0  0  0  0  0  0  0  0
    0.2566    0.6993   -2.9354 H   0  0  0  0  0  0  0  0  0  0  0  0
   -0.9397    1.8321   -1.5825 C   0  0  0  0  0  0  0  0  0  0  0  0
   -1.8505    1.5005   -0.8407 O   0  0  0  0  0  0  0  0  0  0  0  0
   -0.9962    3.0219   -2.2092 O   0  0  0  0  0  0  0  0  0  0  0  0
   -1.8236    3.4156   -1.9269 H   0  0  0  0  0  0  0  0  0  0  0  0
   -0.4860    1.3537    0.7622 C   0  0  0  0  0  0  0  0  0  0  0  0
   -1.3956    2.0096    0.2582 O   0  0  0  0  0  0  0  0  0  0  0  0
    0.3741    1.8728    1.6466 N   0  0  0  0  0  0  0  0  0  0  0  0
    1.0814    1.2667    2.0345 H   0  0  0  0  0  0  0  0  0  0  0  0
    0.3380    3.2610    2.1024 C   0  0  0  0  0  0  0  0  0  0  0  0
   -0.6389    3.4820    2.5363 H   0  0  0  0  0  0  0  0  0  0  0  0
    1.1108    3.4337    2.8528 H   0  0  0  0  0  0  0  0  0  0  0  0
    0.5009    3.9312    1.2562 H   0  0  0  0  0  0  0  0  0  0  0  0
  5  6  2  0  0  0  0
  5  7  1  0  0  0  0
  2  3  1  0  0  0  0
  2  4  1  0  0  0  0
  2  5  1  0  0  0  0
  1  2  1  0  0  0  0
 21 22  2  0  0  0  0
 21 23  1  0  0  0  0
 19 20  1  0  0  0  0
 17 18  2  0  0  0  0
 17 19  1  0  0  0  0
 14 15  1  0  0  0  0
 14 16  1  0  0  0  0
 14 17  1  0  0  0  0
 11 12  1  0  0  0  0
 11 13  1  0  0  0  0
 11 14  1  0  0  0  0
  9 10  1  0  0  0  0
  9 11  1  0  0  0  0
  9 21  1  0  0  0  0
  7  8  1  0  0  0  0
  7  9  1  0  0  0  0
 25 26  1  0  0  0  0
 25 27  1  0  0  0  0
 25 28  1  0  0  0  0
 23 24  1  0  0  0  0
 23 25  1  0  0  0  0
M  END
$$$$
default_name
  -OEChem-02102213163D

 28 27  0     1  0  0  0  0  0999 V2000
   -3.2133   -3.5565    1.2809 H   0  0  0  0  0  0  0  0  0  0  0  0
   -3.1873   -2.5755    0.8089 C   0  0  0  0  0  0  0  0  0  0  0  0
   -3.8793   -1.9065    1.3169 H   0  0  0  0  0  0  0  0  0  0  0  0
   -3.4623   -2.6685   -0.2401 H   0  0  0  0  0  0  0  0  0  0  0  0
   -1.7863   -2.0195    0.9119 C   0  0  0  0  0  0  0  0  0  0  0  0
   -0.9073   -2.6615    1.4699 O   0  0  0  0  0  0  0  0  0  0  0  0
   -1.5803   -0.8195    0.3749 N   0  0  0  0  0  0  0  0  0  0  0  0
   -2.3603   -0.3345   -0.0451 H   0  0  0  0  0  0  0  0  0  0  0  0
   -0.2933   -0.1205    0.3719 C   0  0  1  0  0  0  0  0  0  0  0  0
    0.3577   -0.5843    1.1143 H   0  0  0  0  0  0  0  0  0  0  0  0
    0.3613   -0.2794   -1.0156 C   0  0  0  0  0  0  0  0  0  0  0  0
    1.4085   -0.5488   -0.8676 H   0  0  0  0  0  0  0  0  0  0  0  0
   -0.1262   -1.0946   -1.5522 H   0  0  0  0  0  0  0  0  0  0  0  0
    0.2938    0.9876   -1.8856 C   0  0  0  0  0  0  0  0  0  0  0  0
    1.2733    1.4644   -1.9239 H   0  0  0  0  0  0  0  0  0  0  0  0
   -0.0087    0.7127   -2.8954 H   0  0  0  0  0  0  0  0  0  0  0  0
   -0.7104    2.0035   -1.3506 C   0  0  0  0  0  0  0  0  0  0  0  0
   -1.4796    1.8066   -0.4236 O   0  0  0  0  0  0  0  0  0  0  0  0
   -0.7264    3.1914   -1.9833 O   0  0  0  0  0  0  0  0  0  0  0  0
   -1.4080    3.7017   -1.5425 H   0  0  0  0  0  0  0  0  0  0  0  0
   -0.4860    1.3537    0.7622 C   0  0  0  0  0  0  0  0  0  0  0  0
   -1.3956    2.0096    0.2582 O   0  0  0  0  0  0  0  0  0  0  0  0
    0.3741    1.8728    1.6466 N   0  0  0  0  0  0  0  0  0  0  0  0
    1.0814    1.2667    2.0345 H   0  0  0  0  0  0  0  0  0  0  0  0
    0.3380    3.2610    2.1024 C   0  0  0  0  0  0  0  0  0  0  0  0
   -0.6389    3.4820    2.5363 H   0  0  0  0  0  0  0  0  0  0  0  0
    1.1108    3.4337    2.8528 H   0  0  0  0  0  0  0  0  0  0  0  0
    0.5009    3.9312    1.2562 H   0  0  0  0  0  0  0  0  0  0  0  0
  5  6  2  0  0  0  0
  5  7  1  0  0  0  0
  2  3  1  0  0  0  0
  2  4  1  0  0  0  0
  2  5  1  0  0  0  0
  1  2  1  0  0  0  0
 21 22  2  0  0  0  0
 21 23  1  0  0  0  0
 19 20  1  0  0  0  0
 17 18  2  0  0  0  0
 17 19  1  0  0  0  0
 14 15  1  0  0  0  0
 14 16  1  0  0  0  0
 14 17  1  0  0  0  0
 11 12  1  0  0  0  0
 11 13  1  0  0  0  0
 11 14  1  0  0  0  0
  9 10  1  0  0  0  0
  9 11  1  0  0  0  0
  9 21  1  0  0  0  0
  7  8  1  0  0  0  0
  7  9  1  0  0  0  0
 25 26  1  0  0  0  0
 25 27  1  0  0  0  0
 25 28  1  0  0  0  0
 23 24  1  0  0  0  0
 23 25  1  0  0  0  0
M  END
$$$$
default_name
  -OEChem-02102213163D

 28 27  0     1  0  0  0  0  0999 V2000
   -3.2133   -3.5565    1.2809 H   0  0  0  0  0  0  0  0  0  0  0  0
   -3.1873   -2.5755    0.8089 C   0  0  0  0  0  0  0  0  0  0  0  0
   -3.8793   -1.9065    1.3169 H   0  0  0  0  0  0  0  0  0  0  0  0
   -3.4623   -2.6685   -0.2401 H   0  0  0  0  0  0  0  0  0  0  0  0
   -1.7863   -2.0195    0.9119 C   0  0  0  0  0  0  0  0  0  0  0  0
   -0.9073   -2.6615    1.4699 O   0  0  0  0  0  0  0  0  0  0  0  0
   -1.5803   -0.8195    0.3749 N   0  0  0  0  0  0  0  0  0  0  0  0
   -2.3603   -0.3345   -0.0451 H   0  0  0  0  0  0  0  0  0  0  0  0
   -0.2933   -0.1205    0.3719 C   0  0  1  0  0  0  0  0  0  0  0  0
    0.3577   -0.5843    1.1143 H   0  0  0  0  0  0  0  0  0  0  0  0
    0.3613   -0.2794   -1.0156 C   0  0  0  0  0  0  0  0  0  0  0  0
    1.4085   -0.5488   -0.8676 H   0  0  0  0  0  0  0  0  0  0  0  0
   -0.1262   -1.0946   -1.5522 H   0  0  0  0  0  0  0  0  0  0  0  0
    0.2938    0.9876   -1.8856 C   0  0  0  0  0  0  0  0  0  0  0  0
    1.3010    1.3147   -2.1440 H   0  0  0  0  0  0  0  0  0  0  0  0
   -0.2544    0.7649   -2.8003 H   0  0  0  0  0  0  0  0  0  0  0  0
   -0.4143    2.1382   -1.1775 C   0  0  0  0  0  0  0  0  0  0  0  0
   -0.9875    2.0528   -0.1033 O   0  0  0  0  0  0  0  0  0  0  0  0
   -0.3927    3.3183   -1.8244 O   0  0  0  0  0  0  0  0  0  0  0  0
   -0.8829    3.9215   -1.2631 H   0  0  0  0  0  0  0  0  0  0  0  0
   -0.4860    1.3537    0.7622 C   0  0  0  0  0  0  0  0  0  0  0  0
   -1.3956    2.0096    0.2582 O   0  0  0  0  0  0  0  0  0  0  0  0
    0.3741    1.8728    1.6466 N   0  0  0  0  0  0  0  0  0  0  0  0
    1.0814    1.2667    2.0345 H   0  0  0  0  0  0  0  0  0  0  0  0
    0.3380    3.2610    2.1024 C   0  0  0  0  0  0  0  0  0  0  0  0
   -0.6389    3.4820    2.5363 H   0  0  0  0  0  0  0  0  0  0  0  0
    1.1108    3.4337    2.8528 H   0  0  0  0  0  0  0  0  0  0  0  0
    0.5009    3.9312    1.2562 H   0  0  0  0  0  0  0  0  0  0  0  0
  5  6  2  0  0  0  0
  5  7  1  0  0  0  0
  2  3  1  0  0  0  0
  2  4  1  0  0  0  0
  2  5  1  0  0  0  0
  1  2  1  0  0  0  0
 21 22  2  0  0  0  0
 21 23  1  0  0  0  0
 19 20  1  0  0  0  0
 17 18  2  0  0  0  0
 17 19  1  0  0  0  0
 14 15  1  0  0  0  0
 14 16  1  0  0  0  0
 14 17  1  0  0  0  0
 11 12  1  0  0  0  0
 11 13  1  0  0  0  0
 11 14  1  0  0  0  0
  9 10  1  0  0  0  0
  9 11  1  0  0  0  0
  9 21  1  0  0  0  0
  7  8  1  0  0  0  0
  7  9  1  0  0  0  0
 25 26  1  0  0  0  0
 25 27  1  0  0  0  0
 25 28  1  0  0  0  0
 23 24  1  0  0  0  0
 23 25  1  0  0  0  0
M  END
$$$$
default_name
  -OEChem-02102213163D

 28 27  0     1  0  0  0  0  0999 V2000
   -3.2133   -3.5565    1.2809 H   0  0  0  0  0  0  0  0  0  0  0  0
   -3.1873   -2.5755    0.8089 C   0  0  0  0  0  0  0  0  0  0  0  0
   -3.8793   -1.9065    1.3169 H   0  0  0  0  0  0  0  0  0  0  0  0
   -3.4623   -2.6685   -0.2401 H   0  0  0  0  0  0  0  0  0  0  0  0
   -1.7863   -2.0195    0.9119 C   0  0  0  0  0  0  0  0  0  0  0  0
   -0.9073   -2.6615    1.4699 O   0  0  0  0  0  0  0  0  0  0  0  0
   -1.5803   -0.8195    0.3749 N   0  0  0  0  0  0  0  0  0  0  0  0
   -2.3603   -0.3345   -0.0451 H   0  0  0  0  0  0  0  0  0  0  0  0
   -0.2933   -0.1205    0.3719 C   0  0  1  0  0  0  0  0  0  0  0  0
    0.3577   -0.5843    1.1143 H   0  0  0  0  0  0  0  0  0  0  0  0
    0.3613   -0.2794   -1.0156 C   0  0  0  0  0  0  0  0  0  0  0  0
    1.4085   -0.5488   -0.8676 H   0  0  0  0  0  0  0  0  0  0  0  0
   -0.1262   -1.0946   -1.5522 H   0  0  0  0  0  0  0  0  0  0  0  0
    0.2938    0.9876   -1.8856 C   0  0  0  0  0  0  0  0  0  0  0  0
    1.2589    1.1636   -2.3607 H   0  0  0  0  0  0  0  0  0  0  0  0
   -0.4638    0.8523   -2.6566 H   0  0  0  0  0  0  0  0  0  0  0  0
   -0.0717    2.2269   -1.0749 C   0  0  0  0  0  0  0  0  0  0  0  0
   -0.4080    2.2222    0.0984 O   0  0  0  0  0  0  0  0  0  0  0  0
   -0.0180    3.3938   -1.7436 O   0  0  0  0  0  0  0  0  0  0  0  0
   -0.2838    4.0602   -1.1076 H   0  0  0  0  0  0  0  0  0  0  0  0
   -0.4860    1.3537    0.7622 C   0  0  0  0  0  0  0  0  0  0  0  0
   -1.3956    2.0096    0.2582 O   0  0  0  0  0  0  0  0  0  0  0  0
    0.3741    1.8728    1.6466 N   0  0  0  0  0  0  0  0  0  0  0  0
    1.0814    1.2667    2.0345 H   0  0  0  0  0  0  0  0  0  0  0  0
    0.3380    3.2610    2.1024 C   0  0  0  0  0  0  0  0  0  0  0  0
   -0.6389    3.4820    2.5363 H   0  0  0  0  0  0  0  0  0  0  0  0
    1.1108    3.4337    2.8528 H   0  0  0  0  0  0  0  0  0  0  0  0
    0.5009    3.9312    1.2562 H   0  0  0  0  0  0  0  0  0  0  0  0
  5  6  2  0  0  0  0
  5  7  1  0  0  0  0
  2  3  1  0  0  0  0
  2  4  1  0  0  0  0
  2  5  1  0  0  0  0
  1  2  1  0  0  0  0
 21 22  2  0  0  0  0
 21 23  1  0  0  0  0
 19 20  1  0  0  0  0
 17 18  2  0  0  0  0
 17 19  1  0  0  0  0
 14 15  1  0  0  0  0
 14 16  1  0  0  0  0
 14 17  1  0  0  0  0
 11 12  1  0  0  0  0
 11 13  1  0  0  0  0
 11 14  1  0  0  0  0
  9 10  1  0  0  0  0
  9 11  1  0  0  0  0
  9 21  1  0  0  0  0
  7  8  1  0  0  0  0
  7  9  1  0  0  0  0
 25 26  1  0  0  0  0
 25 27  1  0  0  0  0
 25 28  1  0  0  0  0
 23 24  1  0  0  0  0
 23 25  1  0  0  0  0
M  END
$$$$
default_name
  -OEChem-02102213163D

 28 27  0     1  0  0  0  0  0999 V2000
   -3.2133   -3.5565    1.2809 H   0  0  0  0  0  0  0  0  0  0  0  0
   -3.1873   -2.5755    0.8089 C   0  0  0  0  0  0  0  0  0  0  0  0
   -3.8793   -1.9065    1.3169 H   0  0  0  0  0  0  0  0  0  0  0  0
   -3.4623   -2.6685   -0.2401 H   0  0  0  0  0  0  0  0  0  0  0  0
   -1.7863   -2.0195    0.9119 C   0  0  0  0  0  0  0  0  0  0  0  0
   -0.9073   -2.6615    1.4699 O   0  0  0  0  0  0  0  0  0  0  0  0
   -1.5803   -0.8195    0.3749 N   0  0  0  0  0  0  0  0  0  0  0  0
   -2.3603   -0.3345   -0.0451 H   0  0  0  0  0  0  0  0  0  0  0  0
   -0.2933   -0.1205    0.3719 C   0  0  1  0  0  0  0  0  0  0  0  0
    0.3577   -0.5843    1.1143 H   0  0  0  0  0  0  0  0  0  0  0  0
    0.3613   -0.2794   -1.0156 C   0  0  0  0  0  0  0  0  0  0  0  0
    1.4085   -0.5488   -0.8676 H   0  0  0  0  0  0  0  0  0  0  0  0
   -0.1262   -1.0946   -1.5522 H   0  0  0  0  0  0  0  0  0  0  0  0
    0.2938    0.9876   -1.8856 C   0  0  0  0  0  0  0  0  0  0  0  0
    1.1500    1.0214   -2.5594 H   0  0  0  0  0  0  0  0  0  0  0  0
   -0.6227    0.9691   -2.4742 H   0  0  0  0  0  0  0  0  0  0  0  0
    0.2941    2.2636   -1.0498 C   0  0  0  0  0  0  0  0  0  0  0  0
    0.2197    2.3033    0.1678 O   0  0  0  0  0  0  0  0  0  0  0  0
    0.3722    3.4128   -1.7462 O   0  0  0  0  0  0  0  0  0  0  0  0
    0.3483    4.1083   -1.0866 H   0  0  0  0  0  0  0  0  0  0  0  0
   -0.4860    1.3537    0.7622 C   0  0  0  0  0  0  0  0  0  0  0  0
   -1.3956    2.0096    0.2582 O   0  0  0  0  0  0  0  0  0  0  0  0
    0.3741    1.8728    1.6466 N   0  0  0  0  0  0  0  0  0  0  0  0
    1.0814    1.2667    2.0345 H   0  0  0  0  0  0  0  0  0  0  0  0
    0.3380    3.2610    2.1024 C   0  0  0  0  0  0  0  0  0  0  0  0
   -0.6389    3.4820    2.5363 H   0  0  0  0  0  0  0  0  0  0  0  0
    1.1108    3.4337    2.8528 H   0  0  0  0  0  0  0  0  0  0  0  0
    0.5009    3.9312    1.2562 H   0  0  0  0  0  0  0  0  0  0  0  0
  5  6  2  0  0  0  0
  5  7  1  0  0  0  0
  2  3  1  0  0  0  0
  2  4  1  0  0  0  0
  2  5  1  0  0  0  0
  1  2  1  0  0  0  0
 21 22  2  0  0  0  0
 21 23  1  0  0  0  0
 19 20  1  0  0  0  0
 17 18  2  0  0  0  0
 17 19  1  0  0  0  0
 14 15  1  0  0  0  0
 14 16  1  0  0  0  0
 14 17  1  0  0  0  0
 11 12  1  0  0  0  0
 11 13  1  0  0  0  0
 11 14  1  0  0  0  0
  9 10  1  0  0  0  0
  9 11  1  0  0  0  0
  9 21  1  0  0  0  0
  7  8  1  0  0  0  0
  7  9  1  0  0  0  0
 25 26  1  0  0  0  0
 25 27  1  0  0  0  0
 25 28  1  0  0  0  0
 23 24  1  0  0  0  0
 23 25  1  0  0  0  0
M  END
$$$$
default_name
  -OEChem-02102213163D

 28 27  0     1  0  0  0  0  0999 V2000
   -3.2133   -3.5565    1.2809 H   0  0  0  0  0  0  0  0  0  0  0  0
   -3.1873   -2.5755    0.8089 C   0  0  0  0  0  0  0  0  0  0  0  0
   -3.8793   -1.9065    1.3169 H   0  0  0  0  0  0  0  0  0  0  0  0
   -3.4623   -2.6685   -0.2401 H   0  0  0  0  0  0  0  0  0  0  0  0
   -1.7863   -2.0195    0.9119 C   0  0  0  0  0  0  0  0  0  0  0  0
   -0.9073   -2.6615    1.4699 O   0  0  0  0  0  0  0  0  0  0  0  0
   -1.5803   -0.8195    0.3749 N   0  0  0  0  0  0  0  0  0  0  0  0
   -2.3603   -0.3345   -0.0451 H   0  0  0  0  0  0  0  0  0  0  0  0
   -0.2933   -0.1205    0.3719 C   0  0  1  0  0  0  0  0  0  0  0  0
    0.3577   -0.5843    1.1143 H   0  0  0  0  0  0  0  0  0  0  0  0
    0.3613   -0.2794   -1.0156 C   0  0  0  0  0  0  0  0  0  0  0  0
    1.4085   -0.5488   -0.8676 H   0  0  0  0  0  0  0  0  0  0  0  0
   -0.1262   -1.0946   -1.5522 H   0  0  0  0  0  0  0  0  0  0  0  0
    0.2938    0.9876   -1.8856 C   0  0  0  0  0  0  0  0  0  0  0  0
    0.9815    0.8977   -2.7265 H   0  0  0  0  0  0  0  0  0  0  0  0
   -0.7202    1.1072   -2.2655 H   0  0  0  0  0  0  0  0  0  0  0  0
    0.6581    2.2458   -1.1040 C   0  0  0  0  0  0  0  0  0  0  0  0
    0.8526    2.2905    0.1001 O   0  0  0  0  0  0  0  0  0  0  0  0
    0.7513    3.3740   -1.8321 O   0  0  0  0  0  0  0  0  0  0  0  0
    0.9703    4.0624   -1.2017 H   0  0  0  0  0  0  0  0  0  0  0  0
   -0.4860    1.3537    0.7622 C   0  0  0  0  0  0  0  0  0  0  0  0
   -1.3956    2.0096    0.2582 O   0  0  0  0  0  0  0  0  0  0  0  0
    0.3741    1.8728    1.6466 N   0  0  0  0  0  0  0  0  0  0  0  0
    1.0814    1.2667    2.0345 H   0  0  0  0  0  0  0  0  0  0  0  0
    0.3380    3.2610    2.1024 C   0  0  0  0  0  0  0  0  0  0  0  0
   -0.6389    3.4820    2.5363 H   0  0  0  0  0  0  0  0  0  0  0  0
    1.1108    3.4337    2.8528 H   0  0  0  0  0  0  0  0  0  0  0  0
    0.5009    3.9312    1.2562 H   0  0  0  0  0  0  0  0  0  0  0  0
  5  6  2  0  0  0  0
  5  7  1  0  0  0  0
  2  3  1  0  0  0  0
  2  4  1  0  0  0  0
  2  5  1  0  0  0  0
  1  2  1  0  0  0  0
 21 22  2  0  0  0  0
 21 23  1  0  0  0  0
 19 20  1  0  0  0  0
 17 18  2  0  0  0  0
 17 19  1  0  0  0  0
 14 15  1  0  0  0  0
 14 16  1  0  0  0  0
 14 17  1  0  0  0  0
 11 12  1  0  0  0  0
 11 13  1  0  0  0  0
 11 14  1  0  0  0  0
  9 10  1  0  0  0  0
  9 11  1  0  0  0  0
  9 21  1  0  0  0  0
  7  8  1  0  0  0  0
  7  9  1  0  0  0  0
 25 26  1  0  0  0  0
 25 27  1  0  0  0  0
 25 28  1  0  0  0  0
 23 24  1  0  0  0  0
 23 25  1  0  0  0  0
M  END
$$$$
default_name
  -OEChem-02102213163D

 28 27  0     1  0  0  0  0  0999 V2000
   -3.2133   -3.5565    1.2809 H   0  0  0  0  0  0  0  0  0  0  0  0
   -3.1873   -2.5755    0.8089 C   0  0  0  0  0  0  0  0  0  0  0  0
   -3.8793   -1.9065    1.3169 H   0  0  0  0  0  0  0  0  0  0  0  0
   -3.4623   -2.6685   -0.2401 H   0  0  0  0  0  0  0  0  0  0  0  0
   -1.7863   -2.0195    0.9119 C   0  0  0  0  0  0  0  0  0  0  0  0
   -0.9073   -2.6615    1.4699 O   0  0  0  0  0  0  0  0  0  0  0  0
   -1.5803   -0.8195    0.3749 N   0  0  0  0  0  0  0  0  0  0  0  0
   -2.3603   -0.3345   -0.0451 H   0  0  0  0  0  0  0  0  0  0  0  0
   -0.2933   -0.1205    0.3719 C   0  0  1  0  0  0  0  0  0  0  0  0
    0.3577   -0.5843    1.1143 H   0  0  0  0  0  0  0  0  0  0  0  0
    0.3613   -0.2794   -1.0156 C   0  0  0  0  0  0  0  0  0  0  0  0
    1.4085   -0.5488   -0.8676 H   0  0  0  0  0  0  0  0  0  0  0  0
   -0.1262   -1.0946   -1.5522 H   0  0  0  0  0  0  0  0  0  0  0  0
    0.2938    0.9876   -1.8856 C   0  0  0  0  0  0  0  0  0  0  0  0
    0.7651    0.8010   -2.8506 H   0  0  0  0  0  0  0  0  0  0  0  0
   -0.7497    1.2573   -2.0447 H   0  0  0  0  0  0  0  0  0  0  0  0
    0.9956    2.1747   -1.2337 C   0  0  0  0  0  0  0  0  0  0  0  0
    1.4476    2.1848   -0.1000 O   0  0  0  0  0  0  0  0  0  0  0  0
    1.0935    3.2801   -1.9955 O   0  0  0  0  0  0  0  0  0  0  0  0
    1.5399    3.9258   -1.4449 H   0  0  0  0  0  0  0  0  0  0  0  0
   -0.4860    1.3537    0.7622 C   0  0  0  0  0  0  0  0  0  0  0  0
   -1.3956    2.0096    0.2582 O   0  0  0  0  0  0  0  0  0  0  0  0
    0.3741    1.8728    1.6466 N   0  0  0  0  0  0  0  0  0  0  0  0
    1.0814    1.2667    2.0345 H   0  0  0  0  0  0  0  0  0  0  0  0
    0.3380    3.2610    2.1024 C   0  0  0  0  0  0  0  0  0  0  0  0
   -0.6389    3.4820    2.5363 H   0  0  0  0  0  0  0  0  0  0  0  0
    1.1108    3.4337    2.8528 H   0  0  0  0  0  0  0  0  0  0  0  0
    0.5009    3.9312    1.2562 H   0  0  0  0  0  0  0  0  0  0  0  0
  5  6  2  0  0  0  0
  5  7  1  0  0  0  0
  2  3  1  0  0  0  0
  2  4  1  0  0  0  0
  2  5  1  0  0  0  0
  1  2  1  0  0  0  0
 21 22  2  0  0  0  0
 21 23  1  0  0  0  0
 19 20  1  0  0  0  0
 17 18  2  0  0  0  0
 17 19  1  0  0  0  0
 14 15  1  0  0  0  0
 14 16  1  0  0  0  0
 14 17  1  0  0  0  0
 11 12  1  0  0  0  0
 11 13  1  0  0  0  0
 11 14  1  0  0  0  0
  9 10  1  0  0  0  0
  9 11  1  0  0  0  0
  9 21  1  0  0  0  0
  7  8  1  0  0  0  0
  7  9  1  0  0  0  0
 25 26  1  0  0  0  0
 25 27  1  0  0  0  0
 25 28  1  0  0  0  0
 23 24  1  0  0  0  0
 23 25  1  0  0  0  0
M  END
$$$$
default_name
  -OEChem-02102213163D

 28 27  0     1  0  0  0  0  0999 V2000
   -3.2133   -3.5565    1.2809 H   0  0  0  0  0  0  0  0  0  0  0  0
   -3.1873   -2.5755    0.8089 C   0  0  0  0  0  0  0  0  0  0  0  0
   -3.8793   -1.9065    1.3169 H   0  0  0  0  0  0  0  0  0  0  0  0
   -3.4623   -2.6685   -0.2401 H   0  0  0  0  0  0  0  0  0  0  0  0
   -1.7863   -2.0195    0.9119 C   0  0  0  0  0  0  0  0  0  0  0  0
   -0.9073   -2.6615    1.4699 O   0  0  0  0  0  0  0  0  0  0  0  0
   -1.5803   -0.8195    0.3749 N   0  0  0  0  0  0  0  0  0  0  0  0
   -2.3603   -0.3345   -0.0451 H   0  0  0  0  0  0  0  0  0  0  0  0
   -0.2933   -0.1205    0.3719 C   0  0  1  0  0  0  0  0  0  0  0  0
    0.3577   -0.5843    1.1143 H   0  0  0  0  0  0  0  0  0  0  0  0
    0.3613   -0.2794   -1.0156 C   0  0  0  0  0  0  0  0  0  0  0  0
    1.4085   -0.5488   -0.8676 H   0  0  0  0  0  0  0  0  0  0  0  0
   -0.1262   -1.0946   -1.5522 H   0  0  0  0  0  0  0  0  0  0  0  0
    0.2938    0.9876   -1.8856 C   0  0  0  0  0  0  0  0  0  0  0  0
    0.5155    0.7378   -2.9232 H   0  0  0  0  0  0  0  0  0  0  0  0
   -0.7091    1.4091   -1.8268 H   0  0  0  0  0  0  0  0  0  0  0  0
    1.2835    2.0552   -1.4302 C   0  0  0  0  0  0  0  0  0  0  0  0
    1.9642    1.9933   -0.4190 O   0  0  0  0  0  0  0  0  0  0  0  0
    1.3755    3.1374   -2.2251 O   0  0  0  0  0  0  0  0  0  0  0  0
    2.0182    3.7077   -1.7997 H   0  0  0  0  0  0  0  0  0  0  0  0
   -0.4860    1.3537    0.7622 C   0  0  0  0  0  0  0  0  0  0  0  0
   -1.3956    2.0096    0.2582 O   0  0  0  0  0  0  0  0  0  0  0  0
    0.3741    1.8728    1.6466 N   0  0  0  0  0  0  0  0  0  0  0  0
    1.0814    1.2667    2.0345 H   0  0  0  0  0  0  0  0  0  0  0  0
    0.3380    3.2610    2.1024 C   0  0  0  0  0  0  0  0  0  0  0  0
   -0.6389    3.4820    2.5363 H   0  0  0  0  0  0  0  0  0  0  0  0
    1.1108    3.4337    2.8528 H   0  0  0  0  0  0  0  0  0  0  0  0
    0.5009    3.9312    1.2562 H   0  0  0  0  0  0  0  0  0  0  0  0
  5  6  2  0  0  0  0
  5  7  1  0  0  0  0
  2  3  1  0  0  0  0
  2  4  1  0  0  0  0
  2  5  1  0  0  0  0
  1  2  1  0  0  0  0
 21 22  2  0  0  0  0
 21 23  1  0  0  0  0
 19 20  1  0  0  0  0
 17 18  2  0  0  0  0
 17 19  1  0  0  0  0
 14 15  1  0  0  0  0
 14 16  1  0  0  0  0
 14 17  1  0  0  0  0
 11 12  1  0  0  0  0
 11 13  1  0  0  0  0
 11 14  1  0  0  0  0
  9 10  1  0  0  0  0
  9 11  1  0  0  0  0
  9 21  1  0  0  0  0
  7  8  1  0  0  0  0
  7  9  1  0  0  0  0
 25 26  1  0  0  0  0
 25 27  1  0  0  0  0
 25 28  1  0  0  0  0
 23 24  1  0  0  0  0
 23 25  1  0  0  0  0
M  END
$$$$
default_name
  -OEChem-02102213163D

 28 27  0     1  0  0  0  0  0999 V2000
   -3.2133   -3.5565    1.2809 H   0  0  0  0  0  0  0  0  0  0  0  0
   -3.1873   -2.5755    0.8089 C   0  0  0  0  0  0  0  0  0  0  0  0
   -3.8793   -1.9065    1.3169 H   0  0  0  0  0  0  0  0  0  0  0  0
   -3.4623   -2.6685   -0.2401 H   0  0  0  0  0  0  0  0  0  0  0  0
   -1.7863   -2.0195    0.9119 C   0  0  0  0  0  0  0  0  0  0  0  0
   -0.9073   -2.6615    1.4699 O   0  0  0  0  0  0  0  0  0  0  0  0
   -1.5803   -0.8195    0.3749 N   0  0  0  0  0  0  0  0  0  0  0  0
   -2.3603   -0.3345   -0.0451 H   0  0  0  0  0  0  0  0  0  0  0  0
   -0.2933   -0.1205    0.3719 C   0  0  1  0  0  0  0  0  0  0  0  0
    0.3577   -0.5843    1.1143 H   0  0  0  0  0  0  0  0  0  0  0  0
    0.3613   -0.2794   -1.0156 C   0  0  0  0  0  0  0  0  0  0  0  0
    1.4085   -0.5488   -0.8676 H   0  0  0  0  0  0  0  0  0  0  0  0
   -0.1262   -1.0946   -1.5522 H   0  0  0  0  0  0  0  0  0  0  0  0
    0.2938    0.9876   -1.8856 C   0  0  0  0  0  0  0  0  0  0  0  0
    0.2496    0.7125   -2.9394 H   0  0  0  0  0  0  0  0  0  0  0  0
   -0.6012    1.5522   -1.6267 H   0  0  0  0  0  0  0  0  0  0  0  0
    1.5022    1.8953   -1.6799 C   0  0  0  0  0  0  0  0  0  0  0  0
    2.3672    1.7291   -0.8350 O   0  0  0  0  0  0  0  0  0  0  0  0
    1.5781    2.9557   -2.5055 O   0  0  0  0  0  0  0  0  0  0  0  0
    2.3727    3.4229   -2.2419 H   0  0  0  0  0  0  0  0  0  0  0  0
   -0.4860    1.3537    0.7622 C   0  0  0  0  0  0  0  0  0  0  0  0
   -1.3956    2.0096    0.2582 O   0  0  0  0  0  0  0  0  0  0  0  0
    0.3741    1.8728    1.6466 N   0  0  0  0  0  0  0  0  0  0  0  0
    1.0814    1.2667    2.0345 H   0  0  0  0  0  0  0  0  0  0  0  0
    0.3380    3.2610    2.1024 C   0  0  0  0  0  0  0  0  0  0  0  0
   -0.6389    3.4820    2.5363 H   0  0  0  0  0  0  0  0  0  0  0  0
    1.1108    3.4337    2.8528 H   0  0  0  0  0  0  0  0  0  0  0  0
    0.5009    3.9312    1.2562 H   0  0  0  0  0  0  0  0  0  0  0  0
  5  6  2  0  0  0  0
  5  7  1  0  0  0  0
  2  3  1  0  0  0  0
  2  4  1  0  0  0  0
  2  5  1  0  0  0  0
  1  2  1  0  0  0  0
 21 22  2  0  0  0  0
 21 23  1  0  0  0  0
 19 20  1  0  0  0  0
 17 18  2  0  0  0  0
 17 19  1  0  0  0  0
 14 15  1  0  0  0  0
 14 16  1  0  0  0  0
 14 17  1  0  0  0  0
 11 12  1  0  0  0  0
 11 13  1  0  0  0  0
 11 14  1  0  0  0  0
  9 10  1  0  0  0  0
  9 11  1  0  0  0  0
  9 21  1  0  0  0  0
  7  8  1  0  0  0  0
  7  9  1  0  0  0  0
 25 26  1  0  0  0  0
 25 27  1  0  0  0  0
 25 28  1  0  0  0  0
 23 24  1  0  0  0  0
 23 25  1  0  0  0  0
M  END
$$$$
default_name
  -OEChem-02102213163D

 28 27  0     1  0  0  0  0  0999 V2000
   -3.2133   -3.5565    1.2809 H   0  0  0  0  0  0  0  0  0  0  0  0
   -3.1873   -2.5755    0.8089 C   0  0  0  0  0  0  0  0  0  0  0  0
   -3.8793   -1.9065    1.3169 H   0  0  0  0  0  0  0  0  0  0  0  0
   -3.4623   -2.6685   -0.2401 H   0  0  0  0  0  0  0  0  0  0  0  0
   -1.7863   -2.0195    0.9119 C   0  0  0  0  0  0  0  0  0  0  0  0
   -0.9073   -2.6615    1.4699 O   0  0  0  0  0  0  0  0  0  0  0  0
   -1.5803   -0.8195    0.3749 N   0  0  0  0  0  0  0  0  0  0  0  0
   -2.3603   -0.3345   -0.0451 H   0  0  0  0  0  0  0  0  0  0  0  0
   -0.2933   -0.1205    0.3719 C   0  0  1  0  0  0  0  0  0  0  0  0
    0.3577   -0.5843    1.1143 H   0  0  0  0  0  0  0  0  0  0  0  0
    0.3613   -0.2794   -1.0156 C   0  0  0  0  0  0  0  0  0  0  0  0
    1.4085   -0.5488   -0.8676 H   0  0  0  0  0  0  0  0  0  0  0  0
   -0.1262   -1.0946   -1.5522 H   0  0  0  0  0  0  0  0  0  0  0  0
    0.2938    0.9876   -1.8856 C   0  0  0  0  0  0  0  0  0  0  0  0
   -0.0143    0.7268   -2.8982 H   0  0  0  0  0  0  0  0  0  0  0  0
   -0.4335    1.6769   -1.4581 H   0  0  0  0  0  0  0  0  0  0  0  0
    1.6368    1.7061   -1.9660 C   0  0  0  0  0  0  0  0  0  0  0  0
    2.6292    1.4102   -1.3198 O   0  0  0  0  0  0  0  0  0  0  0  0
    1.6874    2.7473   -2.8174 O   0  0  0  0  0  0  0  0  0  0  0  0
    2.5792    3.0910   -2.7413 H   0  0  0  0  0  0  0  0  0  0  0  0
   -0.4860    1.3537    0.7622 C   0  0  0  0  0  0  0  0  0  0  0  0
   -1.3956    2.0096    0.2582 O   0  0  0  0  0  0  0  0  0  0  0  0
    0.3741    1.8728    1.6466 N   0  0  0  0  0  0  0  0  0  0  0  0
    1.0814    1.2667    2.0345 H   0  0  0  0  0  0  0  0  0  0  0  0
    0.3380    3.2610    2.1024 C   0  0  0  0  0  0  0  0  0  0  0  0
   -0.6389    3.4820    2.5363 H   0  0  0  0  0  0  0  0  0  0  0  0
    1.1108    3.4337    2.8528 H   0  0  0  0  0  0  0  0  0  0  0  0
    0.5009    3.9312    1.2562 H   0  0  0  0  0  0  0  0  0  0  0  0
  5  6  2  0  0  0  0
  5  7  1  0  0  0  0
  2  3  1  0  0  0  0
  2  4  1  0  0  0  0
  2  5  1  0  0  0  0
  1  2  1  0  0  0  0
 21 22  2  0  0  0  0
 21 23  1  0  0  0  0
 19 20  1  0  0  0  0
 17 18  2  0  0  0  0
 17 19  1  0  0  0  0
 14 15  1  0  0  0  0
 14 16  1  0  0  0  0
 14 17  1  0  0  0  0
 11 12  1  0  0  0  0
 11 13  1  0  0  0  0
 11 14  1  0  0  0  0
  9 10  1  0  0  0  0
  9 11  1  0  0  0  0
  9 21  1  0  0  0  0
  7  8  1  0  0  0  0
  7  9  1  0  0  0  0
 25 26  1  0  0  0  0
 25 27  1  0  0  0  0
 25 28  1  0  0  0  0
 23 24  1  0  0  0  0
 23 25  1  0  0  0  0
M  END
$$$$
default_name
  -OEChem-02102213163D

 28 27  0     1  0  0  0  0  0999 V2000
   -3.2133   -3.5565    1.2809 H   0  0  0  0  0  0  0  0  0  0  0  0
   -3.1873   -2.5755    0.8089 C   0  0  0  0  0  0  0  0  0  0  0  0
   -3.8793   -1.9065    1.3169 H   0  0  0  0  0  0  0  0  0  0  0  0
   -3.4623   -2.6685   -0.2401 H   0  0  0  0  0  0  0  0  0  0  0  0
   -1.7863   -2.0195    0.9119 C   0  0  0  0  0  0  0  0  0  0  0  0
   -0.9073   -2.6615    1.4699 O   0  0  0  0  0  0  0  0  0  0  0  0
   -1.5803   -0.8195    0.3749 N   0  0  0  0  0  0  0  0  0  0  0  0
   -2.3603   -0.3345   -0.0451 H   0  0  0  0  0  0  0  0  0  0  0  0
   -0.2933   -0.1205    0.3719 C   0  0  1  0  0  0  0  0  0  0  0  0
    0.3577   -0.5843    1.1143 H   0  0  0  0  0  0  0  0  0  0  0  0
    0.3613   -0.2794   -1.0156 C   0  0  0  0  0  0  0  0  0  0  0  0
    1.4085   -0.5488   -0.8676 H   0  0  0  0  0  0  0  0  0  0  0  0
   -0.1262   -1.0946   -1.5522 H   0  0  0  0  0  0  0  0  0  0  0  0
    0.2938    0.9876   -1.8856 C   0  0  0  0  0  0  0  0  0  0  0  0
   -0.2584    0.7797   -2.8022 H   0  0  0  0  0  0  0  0  0  0  0  0
   -0.2172    1.7748   -1.3324 H   0  0  0  0  0  0  0  0  0  0  0  0
    1.6782    1.5003   -2.2688 C   0  0  0  0  0  0  0  0  0  0  0  0
    2.7322    1.0583   -1.8402 O   0  0  0  0  0  0  0  0  0  0  0  0
    1.6960    2.5266   -3.1396 O   0  0  0  0  0  0  0  0  0  0  0  0
    2.6236    2.7345   -3.2640 H   0  0  0  0  0  0  0  0  0  0  0  0
   -0.4860    1.3537    0.7622 C   0  0  0  0  0  0  0  0  0  0  0  0
   -1.3956    2.0096    0.2582 O   0  0  0  0  0  0  0  0  0  0  0  0
    0.3741    1.8728    1.6466 N   0  0  0  0  0  0  0  0  0  0  0  0
    1.0814    1.2667    2.0345 H   0  0  0  0  0  0  0  0  0  0  0  0
    0.3380    3.2610    2.1024 C   0  0  0  0  0  0  0  0  0  0  0  0
   -0.6389    3.4820    2.5363 H   0  0  0  0  0  0  0  0  0  0  0  0
    1.1108    3.4337    2.8528 H   0  0  0  0  0  0  0  0  0  0  0  0
    0.5009    3.9312    1.2562 H   0  0  0  0  0  0  0  0  0  0  0  0
  5  6  2  0  0  0  0
  5  7  1  0  0  0  0
  2  3  1  0  0  0  0
  2  4  1  0  0  0  0
  2  5  1  0  0  0  0
  1  2  1  0  0  0  0
 21 22  2  0  0  0  0
 21 23  1  0  0  0  0
 19 20  1  0  0  0  0
 17 18  2  0  0  0  0
 17 19  1  0  0  0  0
 14 15  1  0  0  0  0
 14 16  1  0  0  0  0
 14 17  1  0  0  0  0
 11 12  1  0  0  0  0
 11 13  1  0  0  0  0
 11 14  1  0  0  0  0
  9 10  1  0  0  0  0
  9 11  1  0  0  0  0
  9 21  1  0  0  0  0
  7  8  1  0  0  0  0
  7  9  1  0  0  0  0
 25 26  1  0  0  0  0
 25 27  1  0  0  0  0
 25 28  1  0  0  0  0
 23 24  1  0  0  0  0
 23 25  1  0  0  0  0
M  END
$$$$
default_name
  -OEChem-02102213163D

 28 27  0     1  0  0  0  0  0999 V2000
   -3.2133   -3.5565    1.2809 H   0  0  0  0  0  0  0  0  0  0  0  0
   -3.1873   -2.5755    0.8089 C   0  0  0  0  0  0  0  0  0  0  0  0
   -3.8793   -1.9065    1.3169 H   0  0  0  0  0  0  0  0  0  0  0  0
   -3.4623   -2.6685   -0.2401 H   0  0  0  0  0  0  0  0  0  0  0  0
   -1.7863   -2.0195    0.9119 C   0  0  0  0  0  0  0  0  0  0  0  0
   -0.9073   -2.6615    1.4699 O   0  0  0  0  0  0  0  0  0  0  0  0
   -1.5803   -0.8195    0.3749 N   0  0  0  0  0  0  0  0  0  0  0  0
   -2.3603   -0.3345   -0.0451 H   0  0  0  0  0  0  0  0  0  0  0  0
   -0.2933   -0.1205    0.3719 C   0  0  1  0  0  0  0  0  0  0  0  0
    0.3577   -0.5843    1.1143 H   0  0  0  0  0  0  0  0  0  0  0  0
    0.3613   -0.2794   -1.0156 C   0  0  0  0  0  0  0  0  0  0  0  0
    1.4085   -0.5488   -0.8676 H   0  0  0  0  0  0  0  0  0  0  0  0
   -0.1262   -1.0946   -1.5522 H   0  0  0  0  0  0  0  0  0  0  0  0
    0.2938    0.9876   -1.8856 C   0  0  0  0  0  0  0  0  0  0  0  0
   -0.4660    0.8676   -2.6580 H   0  0  0  0  0  0  0  0  0  0  0  0
    0.0328    1.8391   -1.2581 H   0  0  0  0  0  0  0  0  0  0  0  0
    1.6235    1.2921   -2.5678 C   0  0  0  0  0  0  0  0  0  0  0  0
    2.6692    0.6975   -2.3609 O   0  0  0  0  0  0  0  0  0  0  0  0
    1.6033    2.3084   -3.4501 O   0  0  0  0  0  0  0  0  0  0  0  0
    2.5029    2.3777   -3.7743 H   0  0  0  0  0  0  0  0  0  0  0  0
   -0.4860    1.3537    0.7622 C   0  0  0  0  0  0  0  0  0  0  0  0
   -1.3956    2.0096    0.2582 O   0  0  0  0  0  0  0  0  0  0  0  0
    0.3741    1.8728    1.6466 N   0  0  0  0  0  0  0  0  0  0  0  0
    1.0814    1.2667    2.0345 H   0  0  0  0  0  0  0  0  0  0  0  0
    0.3380    3.2610    2.1024 C   0  0  0  0  0  0  0  0  0  0  0  0
   -0.6389    3.4820    2.5363 H   0  0  0  0  0  0  0  0  0  0  0  0
    1.1108    3.4337    2.8528 H   0  0  0  0  0  0  0  0  0  0  0  0
    0.5009    3.9312    1.2562 H   0  0  0  0  0  0  0  0  0  0  0  0
  5  6  2  0  0  0  0
  5  7  1  0  0  0  0
  2  3  1  0  0  0  0
  2  4  1  0  0  0  0
  2  5  1  0  0  0  0
  1  2  1  0  0  0  0
 21 22  2  0  0  0  0
 21 23  1  0  0  0  0
 19 20  1  0  0  0  0
 17 18  2  0  0  0  0
 17 19  1  0  0  0  0
 14 15  1  0  0  0  0
 14 16  1  0  0  0  0
 14 17  1  0  0  0  0
 11 12  1  0  0  0  0
 11 13  1  0  0  0  0
 11 14  1  0  0  0  0
  9 10  1  0  0  0  0
  9 11  1  0  0  0  0
  9 21  1  0  0  0  0
  7  8  1  0  0  0  0
  7  9  1  0  0  0  0
 25 26  1  0  0  0  0
 25 27  1  0  0  0  0
 25 28  1  0  0  0  0
 23 24  1  0  0  0  0
 23 25  1  0  0  0  0
M  END
$$$$
default_name
  -OEChem-02102213163D

 28 27  0     1  0  0  0  0  0999 V2000
   -3.2133   -3.5565    1.2809 H   0  0  0  0  0  0  0  0  0  0  0  0
   -3.1873   -2.5755    0.8089 C   0  0  0  0  0  0  0  0  0  0  0  0
   -3.8793   -1.9065    1.3169 H   0  0  0  0  0  0  0  0  0  0  0  0
   -3.4623   -2.6685   -0.2401 H   0  0  0  0  0  0  0  0  0  0  0  0
   -1.7863   -2.0195    0.9119 C   0  0  0  0  0  0  0  0  0  0  0  0
   -0.9073   -2.6615    1.4699 O   0  0  0  0  0  0  0  0  0  0  0  0
   -1.5803   -0.8195    0.3749 N   0  0  0  0  0  0  0  0  0  0  0  0
   -2.3603   -0.3345   -0.0451 H   0  0  0  0  0  0  0  0  0  0  0  0
   -0.2933   -0.1205    0.3719 C   0  0  1  0  0  0  0  0  0  0  0  0
    0.3577   -0.5843    1.1143 H   0  0  0  0  0  0  0  0  0  0  0  0
    0.3613   -0.2794   -1.0156 C   0  0  0  0  0  0  0  0  0  0  0  0
    1.4085   -0.5488   -0.8676 H   0  0  0  0  0  0  0  0  0  0  0  0
   -0.1262   -1.0946   -1.5522 H   0  0  0  0  0  0  0  0  0  0  0  0
    0.2938    0.9876   -1.8856 C   0  0  0  0  0  0  0  0  0  0  0  0
   -0.6228    0.9845   -2.4756 H   0  0  0  0  0  0  0  0  0  0  0  0
    0.2995    1.8654   -1.2405 H   0  0  0  0  0  0  0  0  0  0  0  0
    1.4765    1.0956   -2.8426 C   0  0  0  0  0  0  0  0  0  0  0  0
    2.4446    0.3522   -2.8463 O   0  0  0  0  0  0  0  0  0  0  0  0
    1.4156    2.1077   -3.7278 O   0  0  0  0  0  0  0  0  0  0  0  0
    2.2254    2.0449   -4.2374 H   0  0  0  0  0  0  0  0  0  0  0  0
   -0.4860    1.3537    0.7622 C   0  0  0  0  0  0  0  0  0  0  0  0
   -1.3956    2.0096    0.2582 O   0  0  0  0  0  0  0  0  0  0  0  0
    0.3741    1.8728    1.6466 N   0  0  0  0  0  0  0  0  0  0  0  0
    1.0814    1.2667    2.0345 H   0  0  0  0  0  0  0  0  0  0  0  0
    0.3380    3.2610    2.1024 C   0  0  0  0  0  0  0  0  0  0  0  0
   -0.6389    3.4820    2.5363 H   0  0  0  0  0  0  0  0  0  0  0  0
    1.1108    3.4337    2.8528 H   0  0  0  0  0  0  0  0  0  0  0  0
    0.5009    3.9312    1.2562 H   0  0  0  0  0  0  0  0  0  0  0  0
  5  6  2  0  0  0  0
  5  7  1  0  0  0  0
  2  3  1  0  0  0  0
  2  4  1  0  0  0  0
  2  5  1  0  0  0  0
  1  2  1  0  0  0  0
 21 22  2  0  0  0  0
 21 23  1  0  0  0  0
 19 20  1  0  0  0  0
 17 18  2  0  0  0  0
 17 19  1  0  0  0  0
 14 15  1  0  0  0  0
 14 16  1  0  0  0  0
 14 17  1  0  0  0  0
 11 12  1  0  0  0  0
 11 13  1  0  0  0  0
 11 14  1  0  0  0  0
  9 10  1  0  0  0  0
  9 11  1  0  0  0  0
  9 21  1  0  0  0  0
  7  8  1  0  0  0  0
  7  9  1  0  0  0  0
 25 26  1  0  0  0  0
 25 27  1  0  0  0  0
 25 28  1  0  0  0  0
 23 24  1  0  0  0  0
 23 25  1  0  0  0  0
M  END
$$$$
default_name
  -OEChem-02102213163D

 28 27  0     1  0  0  0  0  0999 V2000
   -3.2133   -3.5565    1.2809 H   0  0  0  0  0  0  0  0  0  0  0  0
   -3.1873   -2.5755    0.8089 C   0  0  0  0  0  0  0  0  0  0  0  0
   -3.8793   -1.9065    1.3169 H   0  0  0  0  0  0  0  0  0  0  0  0
   -3.4623   -2.6685   -0.2401 H   0  0  0  0  0  0  0  0  0  0  0  0
   -1.7863   -2.0195    0.9119 C   0  0  0  0  0  0  0  0  0  0  0  0
   -0.9073   -2.6615    1.4699 O   0  0  0  0  0  0  0  0  0  0  0  0
   -1.5803   -0.8195    0.3749 N   0  0  0  0  0  0  0  0  0  0  0  0
   -2.3603   -0.3345   -0.0451 H   0  0  0  0  0  0  0  0  0  0  0  0
   -0.2933   -0.1205    0.3719 C   0  0  1  0  0  0  0  0  0  0  0  0
    0.3577   -0.5843    1.1143 H   0  0  0  0  0  0  0  0  0  0  0  0
    0.3613   -0.2794   -1.0156 C   0  0  0  0  0  0  0  0  0  0  0  0
    1.4085   -0.5488   -0.8676 H   0  0  0  0  0  0  0  0  0  0  0  0
   -0.1262   -1.0946   -1.5522 H   0  0  0  0  0  0  0  0  0  0  0  0
    0.2938    0.9876   -1.8856 C   0  0  0  0  0  0  0  0  0  0  0  0
   -0.7184    1.1225   -2.2672 H   0  0  0  0  0  0  0  0  0  0  0  0
    0.5648    1.8521   -1.2805 H   0  0  0  0  0  0  0  0  0  0  0  0
    1.2471    0.9241   -3.0745 C   0  0  0  0  0  0  0  0  0  0  0  0
    2.0736    0.0460   -3.2634 O   0  0  0  0  0  0  0  0  0  0  0  0
    1.1458    1.9381   -3.9538 O   0  0  0  0  0  0  0  0  0  0  0  0
    1.8098    1.7588   -4.6217 H   0  0  0  0  0  0  0  0  0  0  0  0
   -0.4860    1.3537    0.7622 C   0  0  0  0  0  0  0  0  0  0  0  0
   -1.3956    2.0096    0.2582 O   0  0  0  0  0  0  0  0  0  0  0  0
    0.3741    1.8728    1.6466 N   0  0  0  0  0  0  0  0  0  0  0  0
    1.0814    1.2667    2.0345 H   0  0  0  0  0  0  0  0  0  0  0  0
    0.3380    3.2610    2.1024 C   0  0  0  0  0  0  0  0  0  0  0  0
   -0.6389    3.4820    2.5363 H   0  0  0  0  0  0  0  0  0  0  0  0
    1.1108    3.4337    2.8528 H   0  0  0  0  0  0  0  0  0  0  0  0
    0.5009    3.9312    1.2562 H   0  0  0  0  0  0  0  0  0  0  0  0
  5  6  2  0  0  0  0
  5  7  1  0  0  0  0
  2  3  1  0  0  0  0
  2  4  1  0  0  0  0
  2  5  1  0  0  0  0
  1  2  1  0  0  0  0
 21 22  2  0  0  0  0
 21 23  1  0  0  0  0
 19 20  1  0  0  0  0
 17 18  2  0  0  0  0
 17 19  1  0  0  0  0
 14 15  1  0  0  0  0
 14 16  1  0  0  0  0
 14 17  1  0  0  0  0
 11 12  1  0  0  0  0
 11 13  1  0  0  0  0
 11 14  1  0  0  0  0
  9 10  1  0  0  0  0
  9 11  1  0  0  0  0
  9 21  1  0  0  0  0
  7  8  1  0  0  0  0
  7  9  1  0  0  0  0
 25 26  1  0  0  0  0
 25 27  1  0  0  0  0
 25 28  1  0  0  0  0
 23 24  1  0  0  0  0
 23 25  1  0  0  0  0
M  END
$$$$
default_name
  -OEChem-02102213163D

 28 27  0     1  0  0  0  0  0999 V2000
   -3.2133   -3.5565    1.2809 H   0  0  0  0  0  0  0  0  0  0  0  0
   -3.1873   -2.5755    0.8089 C   0  0  0  0  0  0  0  0  0  0  0  0
   -3.8793   -1.9065    1.3169 H   0  0  0  0  0  0  0  0  0  0  0  0
   -3.4623   -2.6685   -0.2401 H   0  0  0  0  0  0  0  0  0  0  0  0
   -1.7863   -2.0195    0.9119 C   0  0  0  0  0  0  0  0  0  0  0  0
   -0.9073   -2.6615    1.4699 O   0  0  0  0  0  0  0  0  0  0  0  0
   -1.5803   -0.8195    0.3749 N   0  0  0  0  0  0  0  0  0  0  0  0
   -2.3603   -0.3345   -0.0451 H   0  0  0  0  0  0  0  0  0  0  0  0
   -0.2933   -0.1205    0.3719 C   0  0  1  0  0  0  0  0  0  0  0  0
    0.3577   -0.5843    1.1143 H   0  0  0  0  0  0  0  0  0  0  0  0
    0.3613   -0.2794   -1.0156 C   0  0  0  0  0  0  0  0  0  0  0  0
    1.3110   -0.8009   -0.8847 H   0  0  0  0  0  0  0  0  0  0  0  0
   -0.2799   -0.8957   -1.6475 H   0  0  0  0  0  0  0  0  0  0  0  0
    0.6233    1.0536   -1.7377 C   0  0  0  0  0  0  0  0  0  0  0  0
   -0.3153    1.5893   -1.8803 H   0  0  0  0  0  0  0  0  0  0  0  0
    1.2932    1.6629   -1.1322 H   0  0  0  0  0  0  0  0  0  0  0  0
    1.2704    0.8534   -3.1043 C   0  0  0  0  0  0  0  0  0  0  0  0
    1.6677   -0.2148   -3.5414 O   0  0  0  0  0  0  0  0  0  0  0  0
    1.4061    1.9656   -3.8501 O   0  0  0  0  0  0  0  0  0  0  0  0
    1.8337    1.6758   -4.6579 H   0  0  0  0  0  0  0  0  0  0  0  0
   -0.4860    1.3537    0.7622 C   0  0  0  0  0  0  0  0  0  0  0  0
   -1.3956    2.0096    0.2582 O   0  0  0  0  0  0  0  0  0  0  0  0
    0.3741    1.8728    1.6466 N   0  0  0  0  0  0  0  0  0  0  0  0
    1.0814    1.2667    2.0345 H   0  0  0  0  0  0  0  0  0  0  0  0
    0.3380    3.2610    2.1024 C   0  0  0  0  0  0  0  0  0  0  0  0
   -0.6389    3.4820    2.5363 H   0  0  0  0  0  0  0  0  0  0  0  0
    1.1108    3.4337    2.8528 H   0  0  0  0  0  0  0  0  0  0  0  0
    0.5009    3.9312    1.2562 H   0  0  0  0  0  0  0  0  0  0  0  0
  5  6  2  0  0  0  0
  5  7  1  0  0  0  0
  2  3  1  0  0  0  0
  2  4  1  0  0  0  0
  2  5  1  0  0  0  0
  1  2  1  0  0  0  0
 21 22  2  0  0  0  0
 21 23  1  0  0  0  0
 19 20  1  0  0  0  0
 17 18  2  0  0  0  0
 17 19  1  0  0  0  0
 14 15  1  0  0  0  0
 14 16  1  0  0  0  0
 14 17  1  0  0  0  0
 11 12  1  0  0  0  0
 11 13  1  0  0  0  0
 11 14  1  0  0  0  0
  9 10  1  0  0  0  0
  9 11  1  0  0  0  0
  9 21  1  0  0  0  0
  7  8  1  0  0  0  0
  7  9  1  0  0  0  0
 25 26  1  0  0  0  0
 25 27  1  0  0  0  0
 25 28  1  0  0  0  0
 23 24  1  0  0  0  0
 23 25  1  0  0  0  0
M  END
$$$$
default_name
  -OEChem-02102213163D

 28 27  0     1  0  0  0  0  0999 V2000
   -3.2133   -3.5565    1.2809 H   0  0  0  0  0  0  0  0  0  0  0  0
   -3.1873   -2.5755    0.8089 C   0  0  0  0  0  0  0  0  0  0  0  0
   -3.8793   -1.9065    1.3169 H   0  0  0  0  0  0  0  0  0  0  0  0
   -3.4623   -2.6685   -0.2401 H   0  0  0  0  0  0  0  0  0  0  0  0
   -1.7863   -2.0195    0.9119 C   0  0  0  0  0  0  0  0  0  0  0  0
   -0.9073   -2.6615    1.4699 O   0  0  0  0  0  0  0  0  0  0  0  0
   -1.5803   -0.8195    0.3749 N   0  0  0  0  0  0  0  0  0  0  0  0
   -2.3603   -0.3345   -0.0451 H   0  0  0  0  0  0  0  0  0  0  0  0
   -0.2933   -0.1205    0.3719 C   0  0  1  0  0  0  0  0  0  0  0  0
    0.3577   -0.5843    1.1143 H   0  0  0  0  0  0  0  0  0  0  0  0
    0.3613   -0.2794   -1.0156 C   0  0  0  0  0  0  0  0  0  0  0  0
    1.3110   -0.8009   -0.8847 H   0  0  0  0  0  0  0  0  0  0  0  0
   -0.2799   -0.8957   -1.6475 H   0  0  0  0  0  0  0  0  0  0  0  0
    0.6233    1.0536   -1.7377 C   0  0  0  0  0  0  0  0  0  0  0  0
   -0.2480    1.7023   -1.6472 H   0  0  0  0  0  0  0  0  0  0  0  0
    1.4823    1.5446   -1.2819 H   0  0  0  0  0  0  0  0  0  0  0  0
    0.9210    0.8589   -3.2209 C   0  0  0  0  0  0  0  0  0  0  0  0
    1.0732   -0.2211   -3.7688 O   0  0  0  0  0  0  0  0  0  0  0  0
    1.0276    1.9890   -3.9441 O   0  0  0  0  0  0  0  0  0  0  0  0
    1.2255    1.6987   -4.8362 H   0  0  0  0  0  0  0  0  0  0  0  0
   -0.4860    1.3537    0.7622 C   0  0  0  0  0  0  0  0  0  0  0  0
   -1.3956    2.0096    0.2582 O   0  0  0  0  0  0  0  0  0  0  0  0
    0.3741    1.8728    1.6466 N   0  0  0  0  0  0  0  0  0  0  0  0
    1.0814    1.2667    2.0345 H   0  0  0  0  0  0  0  0  0  0  0  0
    0.3380    3.2610    2.1024 C   0  0  0  0  0  0  0  0  0  0  0  0
   -0.6389    3.4820    2.5363 H   0  0  0  0  0  0  0  0  0  0  0  0
    1.1108    3.4337    2.8528 H   0  0  0  0  0  0  0  0  0  0  0  0
    0.5009    3.9312    1.2562 H   0  0  0  0  0  0  0  0  0  0  0  0
  5  6  2  0  0  0  0
  5  7  1  0  0  0  0
  2  3  1  0  0  0  0
  2  4  1  0  0  0  0
  2  5  1  0  0  0  0
  1  2  1  0  0  0  0
 21 22  2  0  0  0  0
 21 23  1  0  0  0  0
 19 20  1  0  0  0  0
 17 18  2  0  0  0  0
 17 19  1  0  0  0  0
 14 15  1  0  0  0  0
 14 16  1  0  0  0  0
 14 17  1  0  0  0  0
 11 12  1  0  0  0  0
 11 13  1  0  0  0  0
 11 14  1  0  0  0  0
  9 10  1  0  0  0  0
  9 11  1  0  0  0  0
  9 21  1  0  0  0  0
  7  8  1  0  0  0  0
  7  9  1  0  0  0  0
 25 26  1  0  0  0  0
 25 27  1  0  0  0  0
 25 28  1  0  0  0  0
 23 24  1  0  0  0  0
 23 25  1  0  0  0  0
M  END
$$$$
default_name
  -OEChem-02102213163D

 28 27  0     1  0  0  0  0  0999 V2000
   -3.2133   -3.5565    1.2809 H   0  0  0  0  0  0  0  0  0  0  0  0
   -3.1873   -2.5755    0.8089 C   0  0  0  0  0  0  0  0  0  0  0  0
   -3.8793   -1.9065    1.3169 H   0  0  0  0  0  0  0  0  0  0  0  0
   -3.4623   -2.6685   -0.2401 H   0  0  0  0  0  0  0  0  0  0  0  0
   -1.7863   -2.0195    0.9119 C   0  0  0  0  0  0  0  0  0  0  0  0
   -0.9073   -2.6615    1.4699 O   0  0  0  0  0  0  0  0  0  0  0  0
   -1.5803   -0.8195    0.3749 N   0  0  0  0  0  0  0  0  0  0  0  0
   -2.3603   -0.3345   -0.0451 H   0  0  0  0  0  0  0  0  0  0  0  0
   -0.2933   -0.1205    0.3719 C   0  0  1  0  0  0  0  0  0  0  0  0
    0.3577   -0.5843    1.1143 H   0  0  0  0  0  0  0  0  0  0  0  0
    0.3613   -0.2794   -1.0156 C   0  0  0  0  0  0  0  0  0  0  0  0
    1.3110   -0.8009   -0.8847 H   0  0  0  0  0  0  0  0  0  0  0  0
   -0.2799   -0.8957   -1.6475 H   0  0  0  0  0  0  0  0  0  0  0  0
    0.6233    1.0536   -1.7377 C   0  0  0  0  0  0  0  0  0  0  0  0
   -0.1171    1.7931   -1.4323 H   0  0  0  0  0  0  0  0  0  0  0  0
    1.6170    1.4140   -1.4742 H   0  0  0  0  0  0  0  0  0  0  0  0
    0.5579    0.9118   -3.2549 C   0  0  0  0  0  0  0  0  0  0  0  0
    0.4471   -0.1450   -3.8555 O   0  0  0  0  0  0  0  0  0  0  0  0
    0.6438    2.0618   -3.9490 O   0  0  0  0  0  0  0  0  0  0  0  0
    0.6008    1.8026   -4.8711 H   0  0  0  0  0  0  0  0  0  0  0  0
   -0.4860    1.3537    0.7622 C   0  0  0  0  0  0  0  0  0  0  0  0
   -1.3956    2.0096    0.2582 O   0  0  0  0  0  0  0  0  0  0  0  0
    0.3741    1.8728    1.6466 N   0  0  0  0  0  0  0  0  0  0  0  0
    1.0814    1.2667    2.0345 H   0  0  0  0  0  0  0  0  0  0  0  0
    0.3380    3.2610    2.1024 C   0  0  0  0  0  0  0  0  0  0  0  0
   -0.6389    3.4820    2.5363 H   0  0  0  0  0  0  0  0  0  0  0  0
    1.1108    3.4337    2.8528 H   0  0  0  0  0  0  0  0  0  0  0  0
    0.5009    3.9312    1.2562 H   0  0  0  0  0  0  0  0  0  0  0  0
  5  6  2  0  0  0  0
  5  7  1  0  0  0  0
  2  3  1  0  0  0  0
  2  4  1  0  0  0  0
  2  5  1  0  0  0  0
  1  2  1  0  0  0  0
 21 22  2  0  0  0  0
 21 23  1  0  0  0  0
 19 20  1  0  0  0  0
 17 18  2  0  0  0  0
 17 19  1  0  0  0  0
 14 15  1  0  0  0  0
 14 16  1  0  0  0  0
 14 17  1  0  0  0  0
 11 12  1  0  0  0  0
 11 13  1  0  0  0  0
 11 14  1  0  0  0  0
  9 10  1  0  0  0  0
  9 11  1  0  0  0  0
  9 21  1  0  0  0  0
  7  8  1  0  0  0  0
  7  9  1  0  0  0  0
 25 26  1  0  0  0  0
 25 27  1  0  0  0  0
 25 28  1  0  0  0  0
 23 24  1  0  0  0  0
 23 25  1  0  0  0  0
M  END
$$$$
default_name
  -OEChem-02102213163D

 28 27  0     1  0  0  0  0  0999 V2000
   -3.2133   -3.5565    1.2809 H   0  0  0  0  0  0  0  0  0  0  0  0
   -3.1873   -2.5755    0.8089 C   0  0  0  0  0  0  0  0  0  0  0  0
   -3.8793   -1.9065    1.3169 H   0  0  0  0  0  0  0  0  0  0  0  0
   -3.4623   -2.6685   -0.2401 H   0  0  0  0  0  0  0  0  0  0  0  0
   -1.7863   -2.0195    0.9119 C   0  0  0  0  0  0  0  0  0  0  0  0
   -0.9073   -2.6615    1.4699 O   0  0  0  0  0  0  0  0  0  0  0  0
   -1.5803   -0.8195    0.3749 N   0  0  0  0  0  0  0  0  0  0  0  0
   -2.3603   -0.3345   -0.0451 H   0  0  0  0  0  0  0  0  0  0  0  0
   -0.2933   -0.1205    0.3719 C   0  0  1  0  0  0  0  0  0  0  0  0
    0.3577   -0.5843    1.1143 H   0  0  0  0  0  0  0  0  0  0  0  0
    0.3613   -0.2794   -1.0156 C   0  0  0  0  0  0  0  0  0  0  0  0
    1.3110   -0.8009   -0.8847 H   0  0  0  0  0  0  0  0  0  0  0  0
   -0.2799   -0.8957   -1.6475 H   0  0  0  0  0  0  0  0  0  0  0  0
    0.6233    1.0536   -1.7377 C   0  0  0  0  0  0  0  0  0  0  0  0
    0.0686    1.8553   -1.2500 H   0  0  0  0  0  0  0  0  0  0  0  0
    1.6881    1.2800   -1.6958 H   0  0  0  0  0  0  0  0  0  0  0  0
    0.2060    1.0085   -3.2041 C   0  0  0  0  0  0  0  0  0  0  0  0
   -0.1679    0.0084   -3.7955 O   0  0  0  0  0  0  0  0  0  0  0  0
    0.2809    2.1790   -3.8644 O   0  0  0  0  0  0  0  0  0  0  0  0
    0.0022    1.9804   -4.7601 H   0  0  0  0  0  0  0  0  0  0  0  0
   -0.4860    1.3537    0.7622 C   0  0  0  0  0  0  0  0  0  0  0  0
   -1.3956    2.0096    0.2582 O   0  0  0  0  0  0  0  0  0  0  0  0
    0.3741    1.8728    1.6466 N   0  0  0  0  0  0  0  0  0  0  0  0
    1.0814    1.2667    2.0345 H   0  0  0  0  0  0  0  0  0  0  0  0
    0.3380    3.2610    2.1024 C   0  0  0  0  0  0  0  0  0  0  0  0
   -0.6389    3.4820    2.5363 H   0  0  0  0  0  0  0  0  0  0  0  0
    1.1108    3.4337    2.8528 H   0  0  0  0  0  0  0  0  0  0  0  0
    0.5009    3.9312    1.2562 H   0  0  0  0  0  0  0  0  0  0  0  0
  5  6  2  0  0  0  0
  5  7  1  0  0  0  0
  2  3  1  0  0  0  0
  2  4  1  0  0  0  0
  2  5  1  0  0  0  0
  1  2  1  0  0  0  0
 21 22  2  0  0  0  0
 21 23  1  0  0  0  0
 19 20  1  0  0  0  0
 17 18  2  0  0  0  0
 17 19  1  0  0  0  0
 14 15  1  0  0  0  0
 14 16  1  0  0  0  0
 14 17  1  0  0  0  0
 11 12  1  0  0  0  0
 11 13  1  0  0  0  0
 11 14  1  0  0  0  0
  9 10  1  0  0  0  0
  9 11  1  0  0  0  0
  9 21  1  0  0  0  0
  7  8  1  0  0  0  0
  7  9  1  0  0  0  0
 25 26  1  0  0  0  0
 25 27  1  0  0  0  0
 25 28  1  0  0  0  0
 23 24  1  0  0  0  0
 23 25  1  0  0  0  0
M  END
$$$$
default_name
  -OEChem-02102213163D

 28 27  0     1  0  0  0  0  0999 V2000
   -3.2133   -3.5565    1.2809 H   0  0  0  0  0  0  0  0  0  0  0  0
   -3.1873   -2.5755    0.8089 C   0  0  0  0  0  0  0  0  0  0  0  0
   -3.8793   -1.9065    1.3169 H   0  0  0  0  0  0  0  0  0  0  0  0
   -3.4623   -2.6685   -0.2401 H   0  0  0  0  0  0  0  0  0  0  0  0
   -1.7863   -2.0195    0.9119 C   0  0  0  0  0  0  0  0  0  0  0  0
   -0.9073   -2.6615    1.4699 O   0  0  0  0  0  0  0  0  0  0  0  0
   -1.5803   -0.8195    0.3749 N   0  0  0  0  0  0  0  0  0  0  0  0
   -2.3603   -0.3345   -0.0451 H   0  0  0  0  0  0  0  0  0  0  0  0
   -0.2933   -0.1205    0.3719 C   0  0  1  0  0  0  0  0  0  0  0  0
    0.3577   -0.5843    1.1143 H   0  0  0  0  0  0  0  0  0  0  0  0
    0.3613   -0.2794   -1.0156 C   0  0  0  0  0  0  0  0  0  0  0  0
    1.3110   -0.8009   -0.8847 H   0  0  0  0  0  0  0  0  0  0  0  0
   -0.2799   -0.8957   -1.6475 H   0  0  0  0  0  0  0  0  0  0  0  0
    0.6233    1.0536   -1.7377 C   0  0  0  0  0  0  0  0  0  0  0  0
    0.2964    1.8848   -1.1128 H   0  0  0  0  0  0  0  0  0  0  0  0
    1.6907    1.1516   -1.9317 H   0  0  0  0  0  0  0  0  0  0  0  0
   -0.1107    1.1425   -3.0718 C   0  0  0  0  0  0  0  0  0  0  0  0
   -0.7298    0.2286   -3.5928 O   0  0  0  0  0  0  0  0  0  0  0  0
   -0.0366    2.3325   -3.6962 O   0  0  0  0  0  0  0  0  0  0  0  0
   -0.5296    2.2200   -4.5108 H   0  0  0  0  0  0  0  0  0  0  0  0
   -0.4860    1.3537    0.7622 C   0  0  0  0  0  0  0  0  0  0  0  0
   -1.3956    2.0096    0.2582 O   0  0  0  0  0  0  0  0  0  0  0  0
    0.3741    1.8728    1.6466 N   0  0  0  0  0  0  0  0  0  0  0  0
    1.0814    1.2667    2.0345 H   0  0  0  0  0  0  0  0  0  0  0  0
    0.3380    3.2610    2.1024 C   0  0  0  0  0  0  0  0  0  0  0  0
   -0.6389    3.4820    2.5363 H   0  0  0  0  0  0  0  0  0  0  0  0
    1.1108    3.4337    2.8528 H   0  0  0  0  0  0  0  0  0  0  0  0
    0.5009    3.9312    1.2562 H   0  0  0  0  0  0  0  0  0  0  0  0
  5  6  2  0  0  0  0
  5  7  1  0  0  0  0
  2  3  1  0  0  0  0
  2  4  1  0  0  0  0
  2  5  1  0  0  0  0
  1  2  1  0  0  0  0
 21 22  2  0  0  0  0
 21 23  1  0  0  0  0
 19 20  1  0  0  0  0
 17 18  2  0  0  0  0
 17 19  1  0  0  0  0
 14 15  1  0  0  0  0
 14 16  1  0  0  0  0
 14 17  1  0  0  0  0
 11 12  1  0  0  0  0
 11 13  1  0  0  0  0
 11 14  1  0  0  0  0
  9 10  1  0  0  0  0
  9 11  1  0  0  0  0
  9 21  1  0  0  0  0
  7  8  1  0  0  0  0
  7  9  1  0  0  0  0
 25 26  1  0  0  0  0
 25 27  1  0  0  0  0
 25 28  1  0  0  0  0
 23 24  1  0  0  0  0
 23 25  1  0  0  0  0
M  END
$$$$
default_name
  -OEChem-02102213163D

 28 27  0     1  0  0  0  0  0999 V2000
   -3.2133   -3.5565    1.2809 H   0  0  0  0  0  0  0  0  0  0  0  0
   -3.1873   -2.5755    0.8089 C   0  0  0  0  0  0  0  0  0  0  0  0
   -3.8793   -1.9065    1.3169 H   0  0  0  0  0  0  0  0  0  0  0  0
   -3.4623   -2.6685   -0.2401 H   0  0  0  0  0  0  0  0  0  0  0  0
   -1.7863   -2.0195    0.9119 C   0  0  0  0  0  0  0  0  0  0  0  0
   -0.9073   -2.6615    1.4699 O   0  0  0  0  0  0  0  0  0  0  0  0
   -1.5803   -0.8195    0.3749 N   0  0  0  0  0  0  0  0  0  0  0  0
   -2.3603   -0.3345   -0.0451 H   0  0  0  0  0  0  0  0  0  0  0  0
   -0.2933   -0.1205    0.3719 C   0  0  1  0  0  0  0  0  0  0  0  0
    0.3577   -0.5843    1.1143 H   0  0  0  0  0  0  0  0  0  0  0  0
    0.3613   -0.2794   -1.0156 C   0  0  0  0  0  0  0  0  0  0  0  0
    1.3110   -0.8009   -0.8847 H   0  0  0  0  0  0  0  0  0  0  0  0
   -0.2799   -0.8957   -1.6475 H   0  0  0  0  0  0  0  0  0  0  0  0
    0.6233    1.0536   -1.7377 C   0  0  0  0  0  0  0  0  0  0  0  0
    0.5508    1.8796   -1.0301 H   0  0  0  0  0  0  0  0  0  0  0  0
    1.6248    1.0377   -2.1659 H   0  0  0  0  0  0  0  0  0  0  0  0
   -0.3707    1.3045   -2.8671 C   0  0  0  0  0  0  0  0  0  0  0  0
   -1.2003    0.5007   -3.2613 O   0  0  0  0  0  0  0  0  0  0  0  0
   -0.2868    2.5120   -3.4557 O   0  0  0  0  0  0  0  0  0  0  0  0
   -0.9582    2.5050   -4.1402 H   0  0  0  0  0  0  0  0  0  0  0  0
   -0.4860    1.3537    0.7622 C   0  0  0  0  0  0  0  0  0  0  0  0
   -1.3956    2.0096    0.2582 O   0  0  0  0  0  0  0  0  0  0  0  0
    0.3741    1.8728    1.6466 N   0  0  0  0  0  0  0  0  0  0  0  0
    1.0814    1.2667    2.0345 H   0  0  0  0  0  0  0  0  0  0  0  0
    0.3380    3.2610    2.1024 C   0  0  0  0  0  0  0  0  0  0  0  0
   -0.6389    3.4820    2.5363 H   0  0  0  0  0  0  0  0  0  0  0  0
    1.1108    3.4337    2.8528 H   0  0  0  0  0  0  0  0  0  0  0  0
    0.5009    3.9312    1.2562 H   0  0  0  0  0  0  0  0  0  0  0  0
  5  6  2  0  0  0  0
  5  7  1  0  0  0  0
  2  3  1  0  0  0  0
  2  4  1  0  0  0  0
  2  5  1  0  0  0  0
  1  2  1  0  0  0  0
 21 22  2  0  0  0  0
 21 23  1  0  0  0  0
 19 20  1  0  0  0  0
 17 18  2  0  0  0  0
 17 19  1  0  0  0  0
 14 15  1  0  0  0  0
 14 16  1  0  0  0  0
 14 17  1  0  0  0  0
 11 12  1  0  0  0  0
 11 13  1  0  0  0  0
 11 14  1  0  0  0  0
  9 10  1  0  0  0  0
  9 11  1  0  0  0  0
  9 21  1  0  0  0  0
  7  8  1  0  0  0  0
  7  9  1  0  0  0  0
 25 26  1  0  0  0  0
 25 27  1  0  0  0  0
 25 28  1  0  0  0  0
 23 24  1  0  0  0  0
 23 25  1  0  0  0  0
M  END
$$$$
default_name
  -OEChem-02102213163D

 28 27  0     1  0  0  0  0  0999 V2000
   -3.2133   -3.5565    1.2809 H   0  0  0  0  0  0  0  0  0  0  0  0
   -3.1873   -2.5755    0.8089 C   0  0  0  0  0  0  0  0  0  0  0  0
   -3.8793   -1.9065    1.3169 H   0  0  0  0  0  0  0  0  0  0  0  0
   -3.4623   -2.6685   -0.2401 H   0  0  0  0  0  0  0  0  0  0  0  0
   -1.7863   -2.0195    0.9119 C   0  0  0  0  0  0  0  0  0  0  0  0
   -0.9073   -2.6615    1.4699 O   0  0  0  0  0  0  0  0  0  0  0  0
   -1.5803   -0.8195    0.3749 N   0  0  0  0  0  0  0  0  0  0  0  0
   -2.3603   -0.3345   -0.0451 H   0  0  0  0  0  0  0  0  0  0  0  0
   -0.2933   -0.1205    0.3719 C   0  0  1  0  0  0  0  0  0  0  0  0
    0.3577   -0.5843    1.1143 H   0  0  0  0  0  0  0  0  0  0  0  0
    0.3613   -0.2794   -1.0156 C   0  0  0  0  0  0  0  0  0  0  0  0
    1.3110   -0.8009   -0.8847 H   0  0  0  0  0  0  0  0  0  0  0  0
   -0.2799   -0.8957   -1.6475 H   0  0  0  0  0  0  0  0  0  0  0  0
    0.6233    1.0536   -1.7377 C   0  0  0  0  0  0  0  0  0  0  0  0
    0.8145    1.8401   -1.0075 H   0  0  0  0  0  0  0  0  0  0  0  0
    1.4948    0.9460   -2.3823 H   0  0  0  0  0  0  0  0  0  0  0  0
   -0.5563    1.4835   -2.6039 C   0  0  0  0  0  0  0  0  0  0  0  0
   -1.5475    0.8060   -2.8237 O   0  0  0  0  0  0  0  0  0  0  0  0
   -0.4528    2.7051   -3.1594 O   0  0  0  0  0  0  0  0  0  0  0  0
   -1.2544    2.8160   -3.6736 H   0  0  0  0  0  0  0  0  0  0  0  0
   -0.4860    1.3537    0.7622 C   0  0  0  0  0  0  0  0  0  0  0  0
   -1.3956    2.0096    0.2582 O   0  0  0  0  0  0  0  0  0  0  0  0
    0.3741    1.8728    1.6466 N   0  0  0  0  0  0  0  0  0  0  0  0
    1.0814    1.2667    2.0345 H   0  0  0  0  0  0  0  0  0  0  0  0
    0.3380    3.2610    2.1024 C   0  0  0  0  0  0  0  0  0  0  0  0
   -0.6389    3.4820    2.5363 H   0  0  0  0  0  0  0  0  0  0  0  0
    1.1108    3.4337    2.8528 H   0  0  0  0  0  0  0  0  0  0  0  0
    0.5009    3.9312    1.2562 H   0  0  0  0  0  0  0  0  0  0  0  0
  5  6  2  0  0  0  0
  5  7  1  0  0  0  0
  2  3  1  0  0  0  0
  2  4  1  0  0  0  0
  2  5  1  0  0  0  0
  1  2  1  0  0  0  0
 21 22  2  0  0  0  0
 21 23  1  0  0  0  0
 19 20  1  0  0  0  0
 17 18  2  0  0  0  0
 17 19  1  0  0  0  0
 14 15  1  0  0  0  0
 14 16  1  0  0  0  0
 14 17  1  0  0  0  0
 11 12  1  0  0  0  0
 11 13  1  0  0  0  0
 11 14  1  0  0  0  0
  9 10  1  0  0  0  0
  9 11  1  0  0  0  0
  9 21  1  0  0  0  0
  7  8  1  0  0  0  0
  7  9  1  0  0  0  0
 25 26  1  0  0  0  0
 25 27  1  0  0  0  0
 25 28  1  0  0  0  0
 23 24  1  0  0  0  0
 23 25  1  0  0  0  0
M  END
$$$$
default_name
  -OEChem-02102213163D

 28 27  0     1  0  0  0  0  0999 V2000
   -3.2133   -3.5565    1.2809 H   0  0  0  0  0  0  0  0  0  0  0  0
   -3.1873   -2.5755    0.8089 C   0  0  0  0  0  0  0  0  0  0  0  0
   -3.8793   -1.9065    1.3169 H   0  0  0  0  0  0  0  0  0  0  0  0
   -3.4623   -2.6685   -0.2401 H   0  0  0  0  0  0  0  0  0  0  0  0
   -1.7863   -2.0195    0.9119 C   0  0  0  0  0  0  0  0  0  0  0  0
   -0.9073   -2.6615    1.4699 O   0  0  0  0  0  0  0  0  0  0  0  0
   -1.5803   -0.8195    0.3749 N   0  0  0  0  0  0  0  0  0  0  0  0
   -2.3603   -0.3345   -0.0451 H   0  0  0  0  0  0  0  0  0  0  0  0
   -0.2933   -0.1205    0.3719 C   0  0  1  0  0  0  0  0  0  0  0  0
    0.3577   -0.5843    1.1143 H   0  0  0  0  0  0  0  0  0  0  0  0
    0.3613   -0.2794   -1.0156 C   0  0  0  0  0  0  0  0  0  0  0  0
    1.3110   -0.8009   -0.8847 H   0  0  0  0  0  0  0  0  0  0  0  0
   -0.2799   -0.8957   -1.6475 H   0  0  0  0  0  0  0  0  0  0  0  0
    0.6233    1.0536   -1.7377 C   0  0  0  0  0  0  0  0  0  0  0  0
    1.0694    1.7688   -1.0465 H   0  0  0  0  0  0  0  0  0  0  0  0
    1.3096    0.8828   -2.5663 H   0  0  0  0  0  0  0  0  0  0  0  0
   -0.6547    1.6674   -2.3001 C   0  0  0  0  0  0  0  0  0  0  0  0
   -1.7475    1.1238   -2.3096 O   0  0  0  0  0  0  0  0  0  0  0  0
   -0.5232    2.8988   -2.8275 O   0  0  0  0  0  0  0  0  0  0  0  0
   -1.3982    3.1319   -3.1427 H   0  0  0  0  0  0  0  0  0  0  0  0
   -0.4860    1.3537    0.7622 C   0  0  0  0  0  0  0  0  0  0  0  0
   -1.3956    2.0096    0.2582 O   0  0  0  0  0  0  0  0  0  0  0  0
    0.3741    1.8728    1.6466 N   0  0  0  0  0  0  0  0  0  0  0  0
    1.0814    1.2667    2.0345 H   0  0  0  0  0  0  0  0  0  0  0  0
    0.3380    3.2610    2.1024 C   0  0  0  0  0  0  0  0  0  0  0  0
   -0.6389    3.4820    2.5363 H   0  0  0  0  0  0  0  0  0  0  0  0
    1.1108    3.4337    2.8528 H   0  0  0  0  0  0  0  0  0  0  0  0
    0.5009    3.9312    1.2562 H   0  0  0  0  0  0  0  0  0  0  0  0
  5  6  2  0  0  0  0
  5  7  1  0  0  0  0
  2  3  1  0  0  0  0
  2  4  1  0  0  0  0
  2  5  1  0  0  0  0
  1  2  1  0  0  0  0
 21 22  2  0  0  0  0
 21 23  1  0  0  0  0
 19 20  1  0  0  0  0
 17 18  2  0  0  0  0
 17 19  1  0  0  0  0
 14 15  1  0  0  0  0
 14 16  1  0  0  0  0
 14 17  1  0  0  0  0
 11 12  1  0  0  0  0
 11 13  1  0  0  0  0
 11 14  1  0  0  0  0
  9 10  1  0  0  0  0
  9 11  1  0  0  0  0
  9 21  1  0  0  0  0
  7  8  1  0  0  0  0
  7  9  1  0  0  0  0
 25 26  1  0  0  0  0
 25 27  1  0  0  0  0
 25 28  1  0  0  0  0
 23 24  1  0  0  0  0
 23 25  1  0  0  0  0
M  END
$$$$
default_name
  -OEChem-02102213163D

 28 27  0     1  0  0  0  0  0999 V2000
   -3.2133   -3.5565    1.2809 H   0  0  0  0  0  0  0  0  0  0  0  0
   -3.1873   -2.5755    0.8089 C   0  0  0  0  0  0  0  0  0  0  0  0
   -3.8793   -1.9065    1.3169 H   0  0  0  0  0  0  0  0  0  0  0  0
   -3.4623   -2.6685   -0.2401 H   0  0  0  0  0  0  0  0  0  0  0  0
   -1.7863   -2.0195    0.9119 C   0  0  0  0  0  0  0  0  0  0  0  0
   -0.9073   -2.6615    1.4699 O   0  0  0  0  0  0  0  0  0  0  0  0
   -1.5803   -0.8195    0.3749 N   0  0  0  0  0  0  0  0  0  0  0  0
   -2.3603   -0.3345   -0.0451 H   0  0  0  0  0  0  0  0  0  0  0  0
   -0.2933   -0.1205    0.3719 C   0  0  1  0  0  0  0  0  0  0  0  0
    0.3577   -0.5843    1.1143 H   0  0  0  0  0  0  0  0  0  0  0  0
    0.3613   -0.2794   -1.0156 C   0  0  0  0  0  0  0  0  0  0  0  0
    1.3110   -0.8009   -0.8847 H   0  0  0  0  0  0  0  0  0  0  0  0
   -0.2799   -0.8957   -1.6475 H   0  0  0  0  0  0  0  0  0  0  0  0
    0.6233    1.0536   -1.7377 C   0  0  0  0  0  0  0  0  0  0  0  0
    1.2982    1.6708   -1.1445 H   0  0  0  0  0  0  0  0  0  0  0  0
    1.0817    0.8523   -2.7052 H   0  0  0  0  0  0  0  0  0  0  0  0
   -0.6594    1.8436   -1.9766 C   0  0  0  0  0  0  0  0  0  0  0  0
   -1.7869    1.4324   -1.7542 O   0  0  0  0  0  0  0  0  0  0  0  0
   -0.4932    3.0797   -2.4826 O   0  0  0  0  0  0  0  0  0  0  0  0
   -1.3796    3.4310   -2.5837 H   0  0  0  0  0  0  0  0  0  0  0  0
   -0.4860    1.3537    0.7622 C   0  0  0  0  0  0  0  0  0  0  0  0
   -1.3956    2.0096    0.2582 O   0  0  0  0  0  0  0  0  0  0  0  0
    0.3741    1.8728    1.6466 N   0  0  0  0  0  0  0  0  0  0  0  0
    1.0814    1.2667    2.0345 H   0  0  0  0  0  0  0  0  0  0  0  0
    0.3380    3.2610    2.1024 C   0  0  0  0  0  0  0  0  0  0  0  0
   -0.6389    3.4820    2.5363 H   0  0  0  0  0  0  0  0  0  0  0  0
    1.1108    3.4337    2.8528 H   0  0  0  0  0  0  0  0  0  0  0  0
    0.5009    3.9312    1.2562 H   0  0  0  0  0  0  0  0  0  0  0  0
  5  6  2  0  0  0  0
  5  7  1  0  0  0  0
  2  3  1  0  0  0  0
  2  4  1  0  0  0  0
  2  5  1  0  0  0  0
  1  2  1  0  0  0  0
 21 22  2  0  0  0  0
 21 23  1  0  0  0  0
 19 20  1  0  0  0  0
 17 18  2  0  0  0  0
 17 19  1  0  0  0  0
 14 15  1  0  0  0  0
 14 16  1  0  0  0  0
 14 17  1  0  0  0  0
 11 12  1  0  0  0  0
 11 13  1  0  0  0  0
 11 14  1  0  0  0  0
  9 10  1  0  0  0  0
  9 11  1  0  0  0  0
  9 21  1  0  0  0  0
  7  8  1  0  0  0  0
  7  9  1  0  0  0  0
 25 26  1  0  0  0  0
 25 27  1  0  0  0  0
 25 28  1  0  0  0  0
 23 24  1  0  0  0  0
 23 25  1  0  0  0  0
M  END
$$$$
default_name
  -OEChem-02102213163D

 28 27  0     1  0  0  0  0  0999 V2000
   -3.2133   -3.5565    1.2809 H   0  0  0  0  0  0  0  0  0  0  0  0
   -3.1873   -2.5755    0.8089 C   0  0  0  0  0  0  0  0  0  0  0  0
   -3.8793   -1.9065    1.3169 H   0  0  0  0  0  0  0  0  0  0  0  0
   -3.4623   -2.6685   -0.2401 H   0  0  0  0  0  0  0  0  0  0  0  0
   -1.7863   -2.0195    0.9119 C   0  0  0  0  0  0  0  0  0  0  0  0
   -0.9073   -2.6615    1.4699 O   0  0  0  0  0  0  0  0  0  0  0  0
   -1.5803   -0.8195    0.3749 N   0  0  0  0  0  0  0  0  0  0  0  0
   -2.3603   -0.3345   -0.0451 H   0  0  0  0  0  0  0  0  0  0  0  0
   -0.2933   -0.1205    0.3719 C   0  0  1  0  0  0  0  0  0  0  0  0
    0.3577   -0.5843    1.1143 H   0  0  0  0  0  0  0  0  0  0  0  0
    0.3613   -0.2794   -1.0156 C   0  0  0  0  0  0  0  0  0  0  0  0
    1.3110   -0.8009   -0.8847 H   0  0  0  0  0  0  0  0  0  0  0  0
   -0.2799   -0.8957   -1.6475 H   0  0  0  0  0  0  0  0  0  0  0  0
    0.6233    1.0536   -1.7377 C   0  0  0  0  0  0  0  0  0  0  0  0
    1.4854    1.5525   -1.2948 H   0  0  0  0  0  0  0  0  0  0  0  0
    0.8268    0.8567   -2.7896 H   0  0  0  0  0  0  0  0  0  0  0  0
   -0.5699    2.0001   -1.6552 C   0  0  0  0  0  0  0  0  0  0  0  0
   -1.6629    1.7108   -1.1952 O   0  0  0  0  0  0  0  0  0  0  0  0
   -0.3650    3.2357   -2.1482 O   0  0  0  0  0  0  0  0  0  0  0  0
   -1.2000    3.6931   -2.0348 H   0  0  0  0  0  0  0  0  0  0  0  0
   -0.4860    1.3537    0.7622 C   0  0  0  0  0  0  0  0  0  0  0  0
   -1.3956    2.0096    0.2582 O   0  0  0  0  0  0  0  0  0  0  0  0
    0.3741    1.8728    1.6466 N   0  0  0  0  0  0  0  0  0  0  0  0
    1.0814    1.2667    2.0345 H   0  0  0  0  0  0  0  0  0  0  0  0
    0.3380    3.2610    2.1024 C   0  0  0  0  0  0  0  0  0  0  0  0
   -0.6389    3.4820    2.5363 H   0  0  0  0  0  0  0  0  0  0  0  0
    1.1108    3.4337    2.8528 H   0  0  0  0  0  0  0  0  0  0  0  0
    0.5009    3.9312    1.2562 H   0  0  0  0  0  0  0  0  0  0  0  0
  5  6  2  0  0  0  0
  5  7  1  0  0  0  0
  2  3  1  0  0  0  0
  2  4  1  0  0  0  0
  2  5  1  0  0  0  0
  1  2  1  0  0  0  0
 21 22  2  0  0  0  0
 21 23  1  0  0  0  0
 19 20  1  0  0  0  0
 17 18  2  0  0  0  0
 17 19  1  0  0  0  0
 14 15  1  0  0  0  0
 14 16  1  0  0  0  0
 14 17  1  0  0  0  0
 11 12  1  0  0  0  0
 11 13  1  0  0  0  0
 11 14  1  0  0  0  0
  9 10  1  0  0  0  0
  9 11  1  0  0  0  0
  9 21  1  0  0  0  0
  7  8  1  0  0  0  0
  7  9  1  0  0  0  0
 25 26  1  0  0  0  0
 25 27  1  0  0  0  0
 25 28  1  0  0  0  0
 23 24  1  0  0  0  0
 23 25  1  0  0  0  0
M  END
$$$$
default_name
  -OEChem-02102213163D

 28 27  0     1  0  0  0  0  0999 V2000
   -3.2133   -3.5565    1.2809 H   0  0  0  0  0  0  0  0  0  0  0  0
   -3.1873   -2.5755    0.8089 C   0  0  0  0  0  0  0  0  0  0  0  0
   -3.8793   -1.9065    1.3169 H   0  0  0  0  0  0  0  0  0  0  0  0
   -3.4623   -2.6685   -0.2401 H   0  0  0  0  0  0  0  0  0  0  0  0
   -1.7863   -2.0195    0.9119 C   0  0  0  0  0  0  0  0  0  0  0  0
   -0.9073   -2.6615    1.4699 O   0  0  0  0  0  0  0  0  0  0  0  0
   -1.5803   -0.8195    0.3749 N   0  0  0  0  0  0  0  0  0  0  0  0
   -2.3603   -0.3345   -0.0451 H   0  0  0  0  0  0  0  0  0  0  0  0
   -0.2933   -0.1205    0.3719 C   0  0  1  0  0  0  0  0  0  0  0  0
    0.3577   -0.5843    1.1143 H   0  0  0  0  0  0  0  0  0  0  0  0
    0.3613   -0.2794   -1.0156 C   0  0  0  0  0  0  0  0  0  0  0  0
    1.3110   -0.8009   -0.8847 H   0  0  0  0  0  0  0  0  0  0  0  0
   -0.2799   -0.8957   -1.6475 H   0  0  0  0  0  0  0  0  0  0  0  0
    0.6233    1.0536   -1.7377 C   0  0  0  0  0  0  0  0  0  0  0  0
    1.6181    1.4223   -1.4872 H   0  0  0  0  0  0  0  0  0  0  0  0
    0.5621    0.8956   -2.8138 H   0  0  0  0  0  0  0  0  0  0  0  0
   -0.3924    2.1263   -1.3580 C   0  0  0  0  0  0  0  0  0  0  0  0
   -1.3839    1.9401   -0.6709 O   0  0  0  0  0  0  0  0  0  0  0  0
   -0.1472    3.3560   -1.8470 O   0  0  0  0  0  0  0  0  0  0  0  0
   -0.8716    3.9002   -1.5333 H   0  0  0  0  0  0  0  0  0  0  0  0
   -0.4860    1.3537    0.7622 C   0  0  0  0  0  0  0  0  0  0  0  0
   -1.3956    2.0096    0.2582 O   0  0  0  0  0  0  0  0  0  0  0  0
    0.3741    1.8728    1.6466 N   0  0  0  0  0  0  0  0  0  0  0  0
    1.0814    1.2667    2.0345 H   0  0  0  0  0  0  0  0  0  0  0  0
    0.3380    3.2610    2.1024 C   0  0  0  0  0  0  0  0  0  0  0  0
   -0.6389    3.4820    2.5363 H   0  0  0  0  0  0  0  0  0  0  0  0
    1.1108    3.4337    2.8528 H   0  0  0  0  0  0  0  0  0  0  0  0
    0.5009    3.9312    1.2562 H   0  0  0  0  0  0  0  0  0  0  0  0
  5  6  2  0  0  0  0
  5  7  1  0  0  0  0
  2  3  1  0  0  0  0
  2  4  1  0  0  0  0
  2  5  1  0  0  0  0
  1  2  1  0  0  0  0
 21 22  2  0  0  0  0
 21 23  1  0  0  0  0
 19 20  1  0  0  0  0
 17 18  2  0  0  0  0
 17 19  1  0  0  0  0
 14 15  1  0  0  0  0
 14 16  1  0  0  0  0
 14 17  1  0  0  0  0
 11 12  1  0  0  0  0
 11 13  1  0  0  0  0
 11 14  1  0  0  0  0
  9 10  1  0  0  0  0
  9 11  1  0  0  0  0
  9 21  1  0  0  0  0
  7  8  1  0  0  0  0
  7  9  1  0  0  0  0
 25 26  1  0  0  0  0
 25 27  1  0  0  0  0
 25 28  1  0  0  0  0
 23 24  1  0  0  0  0
 23 25  1  0  0  0  0
M  END
$$$$
default_name
  -OEChem-02102213163D

 28 27  0     1  0  0  0  0  0999 V2000
   -3.2133   -3.5565    1.2809 H   0  0  0  0  0  0  0  0  0  0  0  0
   -3.1873   -2.5755    0.8089 C   0  0  0  0  0  0  0  0  0  0  0  0
   -3.8793   -1.9065    1.3169 H   0  0  0  0  0  0  0  0  0  0  0  0
   -3.4623   -2.6685   -0.2401 H   0  0  0  0  0  0  0  0  0  0  0  0
   -1.7863   -2.0195    0.9119 C   0  0  0  0  0  0  0  0  0  0  0  0
   -0.9073   -2.6615    1.4699 O   0  0  0  0  0  0  0  0  0  0  0  0
   -1.5803   -0.8195    0.3749 N   0  0  0  0  0  0  0  0  0  0  0  0
   -2.3603   -0.3345   -0.0451 H   0  0  0  0  0  0  0  0  0  0  0  0
   -0.2933   -0.1205    0.3719 C   0  0  1  0  0  0  0  0  0  0  0  0
    0.3577   -0.5843    1.1143 H   0  0  0  0  0  0  0  0  0  0  0  0
    0.3613   -0.2794   -1.0156 C   0  0  0  0  0  0  0  0  0  0  0  0
    1.3110   -0.8009   -0.8847 H   0  0  0  0  0  0  0  0  0  0  0  0
   -0.2799   -0.8957   -1.6475 H   0  0  0  0  0  0  0  0  0  0  0  0
    0.6233    1.0536   -1.7377 C   0  0  0  0  0  0  0  0  0  0  0  0
    1.6873    1.2888   -1.7085 H   0  0  0  0  0  0  0  0  0  0  0  0
    0.3058    0.9665   -2.7761 H   0  0  0  0  0  0  0  0  0  0  0  0
   -0.1390    2.2134   -1.1051 C   0  0  0  0  0  0  0  0  0  0  0  0
   -0.9690    2.1045   -0.2169 O   0  0  0  0  0  0  0  0  0  0  0  0
    0.1454    3.4325   -1.5996 O   0  0  0  0  0  0  0  0  0  0  0  0
   -0.4167    4.0383   -1.1134 H   0  0  0  0  0  0  0  0  0  0  0  0
   -0.4860    1.3537    0.7622 C   0  0  0  0  0  0  0  0  0  0  0  0
   -1.3956    2.0096    0.2582 O   0  0  0  0  0  0  0  0  0  0  0  0
    0.3741    1.8728    1.6466 N   0  0  0  0  0  0  0  0  0  0  0  0
    1.0814    1.2667    2.0345 H   0  0  0  0  0  0  0  0  0  0  0  0
    0.3380    3.2610    2.1024 C   0  0  0  0  0  0  0  0  0  0  0  0
   -0.6389    3.4820    2.5363 H   0  0  0  0  0  0  0  0  0  0  0  0
    1.1108    3.4337    2.8528 H   0  0  0  0  0  0  0  0  0  0  0  0
    0.5009    3.9312    1.2562 H   0  0  0  0  0  0  0  0  0  0  0  0
  5  6  2  0  0  0  0
  5  7  1  0  0  0  0
  2  3  1  0  0  0  0
  2  4  1  0  0  0  0
  2  5  1  0  0  0  0
  1  2  1  0  0  0  0
 21 22  2  0  0  0  0
 21 23  1  0  0  0  0
 19 20  1  0  0  0  0
 17 18  2  0  0  0  0
 17 19  1  0  0  0  0
 14 15  1  0  0  0  0
 14 16  1  0  0  0  0
 14 17  1  0  0  0  0
 11 12  1  0  0  0  0
 11 13  1  0  0  0  0
 11 14  1  0  0  0  0
  9 10  1  0  0  0  0
  9 11  1  0  0  0  0
  9 21  1  0  0  0  0
  7  8  1  0  0  0  0
  7  9  1  0  0  0  0
 25 26  1  0  0  0  0
 25 27  1  0  0  0  0
 25 28  1  0  0  0  0
 23 24  1  0  0  0  0
 23 25  1  0  0  0  0
M  END
$$$$
default_name
  -OEChem-02102213163D

 28 27  0     1  0  0  0  0  0999 V2000
   -3.2133   -3.5565    1.2809 H   0  0  0  0  0  0  0  0  0  0  0  0
   -3.1873   -2.5755    0.8089 C   0  0  0  0  0  0  0  0  0  0  0  0
   -3.8793   -1.9065    1.3169 H   0  0  0  0  0  0  0  0  0  0  0  0
   -3.4623   -2.6685   -0.2401 H   0  0  0  0  0  0  0  0  0  0  0  0
   -1.7863   -2.0195    0.9119 C   0  0  0  0  0  0  0  0  0  0  0  0
   -0.9073   -2.6615    1.4699 O   0  0  0  0  0  0  0  0  0  0  0  0
   -1.5803   -0.8195    0.3749 N   0  0  0  0  0  0  0  0  0  0  0  0
   -2.3603   -0.3345   -0.0451 H   0  0  0  0  0  0  0  0  0  0  0  0
   -0.2933   -0.1205    0.3719 C   0  0  1  0  0  0  0  0  0  0  0  0
    0.3577   -0.5843    1.1143 H   0  0  0  0  0  0  0  0  0  0  0  0
    0.3613   -0.2794   -1.0156 C   0  0  0  0  0  0  0  0  0  0  0  0
    1.3110   -0.8009   -0.8847 H   0  0  0  0  0  0  0  0  0  0  0  0
   -0.2799   -0.8957   -1.6475 H   0  0  0  0  0  0  0  0  0  0  0  0
    0.6233    1.0536   -1.7377 C   0  0  0  0  0  0  0  0  0  0  0  0
    1.6883    1.1612   -1.9436 H   0  0  0  0  0  0  0  0  0  0  0  0
    0.0752    1.0643   -2.6791 H   0  0  0  0  0  0  0  0  0  0  0  0
    0.1731    2.2557   -0.9138 C   0  0  0  0  0  0  0  0  0  0  0  0
   -0.4465    2.1929    0.1359 O   0  0  0  0  0  0  0  0  0  0  0  0
    0.4927    3.4600   -1.4229 O   0  0  0  0  0  0  0  0  0  0  0  0
    0.1336    4.0978   -0.8037 H   0  0  0  0  0  0  0  0  0  0  0  0
   -0.4860    1.3537    0.7622 C   0  0  0  0  0  0  0  0  0  0  0  0
   -1.3956    2.0096    0.2582 O   0  0  0  0  0  0  0  0  0  0  0  0
    0.3741    1.8728    1.6466 N   0  0  0  0  0  0  0  0  0  0  0  0
    1.0814    1.2667    2.0345 H   0  0  0  0  0  0  0  0  0  0  0  0
    0.3380    3.2610    2.1024 C   0  0  0  0  0  0  0  0  0  0  0  0
   -0.6389    3.4820    2.5363 H   0  0  0  0  0  0  0  0  0  0  0  0
    1.1108    3.4337    2.8528 H   0  0  0  0  0  0  0  0  0  0  0  0
    0.5009    3.9312    1.2562 H   0  0  0  0  0  0  0  0  0  0  0  0
  5  6  2  0  0  0  0
  5  7  1  0  0  0  0
  2  3  1  0  0  0  0
  2  4  1  0  0  0  0
  2  5  1  0  0  0  0
  1  2  1  0  0  0  0
 21 22  2  0  0  0  0
 21 23  1  0  0  0  0
 19 20  1  0  0  0  0
 17 18  2  0  0  0  0
 17 19  1  0  0  0  0
 14 15  1  0  0  0  0
 14 16  1  0  0  0  0
 14 17  1  0  0  0  0
 11 12  1  0  0  0  0
 11 13  1  0  0  0  0
 11 14  1  0  0  0  0
  9 10  1  0  0  0  0
  9 11  1  0  0  0  0
  9 21  1  0  0  0  0
  7  8  1  0  0  0  0
  7  9  1  0  0  0  0
 25 26  1  0  0  0  0
 25 27  1  0  0  0  0
 25 28  1  0  0  0  0
 23 24  1  0  0  0  0
 23 25  1  0  0  0  0
M  END
$$$$
default_name
  -OEChem-02102213163D

 28 27  0     1  0  0  0  0  0999 V2000
   -3.2133   -3.5565    1.2809 H   0  0  0  0  0  0  0  0  0  0  0  0
   -3.1873   -2.5755    0.8089 C   0  0  0  0  0  0  0  0  0  0  0  0
   -3.8793   -1.9065    1.3169 H   0  0  0  0  0  0  0  0  0  0  0  0
   -3.4623   -2.6685   -0.2401 H   0  0  0  0  0  0  0  0  0  0  0  0
   -1.7863   -2.0195    0.9119 C   0  0  0  0  0  0  0  0  0  0  0  0
   -0.9073   -2.6615    1.4699 O   0  0  0  0  0  0  0  0  0  0  0  0
   -1.5803   -0.8195    0.3749 N   0  0  0  0  0  0  0  0  0  0  0  0
   -2.3603   -0.3345   -0.0451 H   0  0  0  0  0  0  0  0  0  0  0  0
   -0.2933   -0.1205    0.3719 C   0  0  1  0  0  0  0  0  0  0  0  0
    0.3577   -0.5843    1.1143 H   0  0  0  0  0  0  0  0  0  0  0  0
    0.3613   -0.2794   -1.0156 C   0  0  0  0  0  0  0  0  0  0  0  0
    1.3110   -0.8009   -0.8847 H   0  0  0  0  0  0  0  0  0  0  0  0
   -0.2799   -0.8957   -1.6475 H   0  0  0  0  0  0  0  0  0  0  0  0
    0.6233    1.0536   -1.7377 C   0  0  0  0  0  0  0  0  0  0  0  0
    1.6211    1.0482   -2.1766 H   0  0  0  0  0  0  0  0  0  0  0  0
   -0.1138    1.1826   -2.5293 H   0  0  0  0  0  0  0  0  0  0  0  0
    0.5226    2.2502   -0.7972 C   0  0  0  0  0  0  0  0  0  0  0  0
    0.1481    2.1992    0.3634 O   0  0  0  0  0  0  0  0  0  0  0  0
    0.8712    3.4365   -1.3289 O   0  0  0  0  0  0  0  0  0  0  0  0
    0.7418    4.0749   -0.6254 H   0  0  0  0  0  0  0  0  0  0  0  0
   -0.4860    1.3537    0.7622 C   0  0  0  0  0  0  0  0  0  0  0  0
   -1.3956    2.0096    0.2582 O   0  0  0  0  0  0  0  0  0  0  0  0
    0.3741    1.8728    1.6466 N   0  0  0  0  0  0  0  0  0  0  0  0
    1.0814    1.2667    2.0345 H   0  0  0  0  0  0  0  0  0  0  0  0
    0.3380    3.2610    2.1024 C   0  0  0  0  0  0  0  0  0  0  0  0
   -0.6389    3.4820    2.5363 H   0  0  0  0  0  0  0  0  0  0  0  0
    1.1108    3.4337    2.8528 H   0  0  0  0  0  0  0  0  0  0  0  0
    0.5009    3.9312    1.2562 H   0  0  0  0  0  0  0  0  0  0  0  0
  5  6  2  0  0  0  0
  5  7  1  0  0  0  0
  2  3  1  0  0  0  0
  2  4  1  0  0  0  0
  2  5  1  0  0  0  0
  1  2  1  0  0  0  0
 21 22  2  0  0  0  0
 21 23  1  0  0  0  0
 19 20  1  0  0  0  0
 17 18  2  0  0  0  0
 17 19  1  0  0  0  0
 14 15  1  0  0  0  0
 14 16  1  0  0  0  0
 14 17  1  0  0  0  0
 11 12  1  0  0  0  0
 11 13  1  0  0  0  0
 11 14  1  0  0  0  0
  9 10  1  0  0  0  0
  9 11  1  0  0  0  0
  9 21  1  0  0  0  0
  7  8  1  0  0  0  0
  7  9  1  0  0  0  0
 25 26  1  0  0  0  0
 25 27  1  0  0  0  0
 25 28  1  0  0  0  0
 23 24  1  0  0  0  0
 23 25  1  0  0  0  0
M  END
$$$$
default_name
  -OEChem-02102213163D

 28 27  0     1  0  0  0  0  0999 V2000
   -3.2133   -3.5565    1.2809 H   0  0  0  0  0  0  0  0  0  0  0  0
   -3.1873   -2.5755    0.8089 C   0  0  0  0  0  0  0  0  0  0  0  0
   -3.8793   -1.9065    1.3169 H   0  0  0  0  0  0  0  0  0  0  0  0
   -3.4623   -2.6685   -0.2401 H   0  0  0  0  0  0  0  0  0  0  0  0
   -1.7863   -2.0195    0.9119 C   0  0  0  0  0  0  0  0  0  0  0  0
   -0.9073   -2.6615    1.4699 O   0  0  0  0  0  0  0  0  0  0  0  0
   -1.5803   -0.8195    0.3749 N   0  0  0  0  0  0  0  0  0  0  0  0
   -2.3603   -0.3345   -0.0451 H   0  0  0  0  0  0  0  0  0  0  0  0
   -0.2933   -0.1205    0.3719 C   0  0  1  0  0  0  0  0  0  0  0  0
    0.3577   -0.5843    1.1143 H   0  0  0  0  0  0  0  0  0  0  0  0
    0.3613   -0.2794   -1.0156 C   0  0  0  0  0  0  0  0  0  0  0  0
    1.3110   -0.8009   -0.8847 H   0  0  0  0  0  0  0  0  0  0  0  0
   -0.2799   -0.8957   -1.6475 H   0  0  0  0  0  0  0  0  0  0  0  0
    0.6233    1.0536   -1.7377 C   0  0  0  0  0  0  0  0  0  0  0  0
    1.4901    0.9575   -2.3916 H   0  0  0  0  0  0  0  0  0  0  0  0
   -0.2485    1.3132   -2.3371 H   0  0  0  0  0  0  0  0  0  0  0  0
    0.8856    2.1973   -0.7632 C   0  0  0  0  0  0  0  0  0  0  0  0
    0.7741    2.1231    0.4500 O   0  0  0  0  0  0  0  0  0  0  0  0
    1.2550    3.3637   -1.3241 O   0  0  0  0  0  0  0  0  0  0  0  0
    1.3665    3.9710   -0.5905 H   0  0  0  0  0  0  0  0  0  0  0  0
   -0.4860    1.3537    0.7622 C   0  0  0  0  0  0  0  0  0  0  0  0
   -1.3956    2.0096    0.2582 O   0  0  0  0  0  0  0  0  0  0  0  0
    0.3741    1.8728    1.6466 N   0  0  0  0  0  0  0  0  0  0  0  0
    1.0814    1.2667    2.0345 H   0  0  0  0  0  0  0  0  0  0  0  0
    0.3380    3.2610    2.1024 C   0  0  0  0  0  0  0  0  0  0  0  0
   -0.6389    3.4820    2.5363 H   0  0  0  0  0  0  0  0  0  0  0  0
    1.1108    3.4337    2.8528 H   0  0  0  0  0  0  0  0  0  0  0  0
    0.5009    3.9312    1.2562 H   0  0  0  0  0  0  0  0  0  0  0  0
  5  6  2  0  0  0  0
  5  7  1  0  0  0  0
  2  3  1  0  0  0  0
  2  4  1  0  0  0  0
  2  5  1  0  0  0  0
  1  2  1  0  0  0  0
 21 22  2  0  0  0  0
 21 23  1  0  0  0  0
 19 20  1  0  0  0  0
 17 18  2  0  0  0  0
 17 19  1  0  0  0  0
 14 15  1  0  0  0  0
 14 16  1  0  0  0  0
 14 17  1  0  0  0  0
 11 12  1  0  0  0  0
 11 13  1  0  0  0  0
 11 14  1  0  0  0  0
  9 10  1  0  0  0  0
  9 11  1  0  0  0  0
  9 21  1  0  0  0  0
  7  8  1  0  0  0  0
  7  9  1  0  0  0  0
 25 26  1  0  0  0  0
 25 27  1  0  0  0  0
 25 28  1  0  0  0  0
 23 24  1  0  0  0  0
 23 25  1  0  0  0  0
M  END
$$$$
default_name
  -OEChem-02102213163D

 28 27  0     1  0  0  0  0  0999 V2000
   -3.2133   -3.5565    1.2809 H   0  0  0  0  0  0  0  0  0  0  0  0
   -3.1873   -2.5755    0.8089 C   0  0  0  0  0  0  0  0  0  0  0  0
   -3.8793   -1.9065    1.3169 H   0  0  0  0  0  0  0  0  0  0  0  0
   -3.4623   -2.6685   -0.2401 H   0  0  0  0  0  0  0  0  0  0  0  0
   -1.7863   -2.0195    0.9119 C   0  0  0  0  0  0  0  0  0  0  0  0
   -0.9073   -2.6615    1.4699 O   0  0  0  0  0  0  0  0  0  0  0  0
   -1.5803   -0.8195    0.3749 N   0  0  0  0  0  0  0  0  0  0  0  0
   -2.3603   -0.3345   -0.0451 H   0  0  0  0  0  0  0  0  0  0  0  0
   -0.2933   -0.1205    0.3719 C   0  0  1  0  0  0  0  0  0  0  0  0
    0.3577   -0.5843    1.1143 H   0  0  0  0  0  0  0  0  0  0  0  0
    0.3613   -0.2794   -1.0156 C   0  0  0  0  0  0  0  0  0  0  0  0
    1.3110   -0.8009   -0.8847 H   0  0  0  0  0  0  0  0  0  0  0  0
   -0.2799   -0.8957   -1.6475 H   0  0  0  0  0  0  0  0  0  0  0  0
    0.6233    1.0536   -1.7377 C   0  0  0  0  0  0  0  0  0  0  0  0
    1.3044    0.8952   -2.5739 H   0  0  0  0  0  0  0  0  0  0  0  0
   -0.3196    1.4473   -2.1155 H   0  0  0  0  0  0  0  0  0  0  0  0
    1.2375    2.1005   -0.8140 C   0  0  0  0  0  0  0  0  0  0  0  0
    1.3891    1.9697    0.3900 O   0  0  0  0  0  0  0  0  0  0  0  0
    1.6180    3.2465   -1.4086 O   0  0  0  0  0  0  0  0  0  0  0  0
    1.9651    3.7932   -0.7015 H   0  0  0  0  0  0  0  0  0  0  0  0
   -0.4860    1.3537    0.7622 C   0  0  0  0  0  0  0  0  0  0  0  0
   -1.3956    2.0096    0.2582 O   0  0  0  0  0  0  0  0  0  0  0  0
    0.3741    1.8728    1.6466 N   0  0  0  0  0  0  0  0  0  0  0  0
    1.0814    1.2667    2.0345 H   0  0  0  0  0  0  0  0  0  0  0  0
    0.3380    3.2610    2.1024 C   0  0  0  0  0  0  0  0  0  0  0  0
   -0.6389    3.4820    2.5363 H   0  0  0  0  0  0  0  0  0  0  0  0
    1.1108    3.4337    2.8528 H   0  0  0  0  0  0  0  0  0  0  0  0
    0.5009    3.9312    1.2562 H   0  0  0  0  0  0  0  0  0  0  0  0
  5  6  2  0  0  0  0
  5  7  1  0  0  0  0
  2  3  1  0  0  0  0
  2  4  1  0  0  0  0
  2  5  1  0  0  0  0
  1  2  1  0  0  0  0
 21 22  2  0  0  0  0
 21 23  1  0  0  0  0
 19 20  1  0  0  0  0
 17 18  2  0  0  0  0
 17 19  1  0  0  0  0
 14 15  1  0  0  0  0
 14 16  1  0  0  0  0
 14 17  1  0  0  0  0
 11 12  1  0  0  0  0
 11 13  1  0  0  0  0
 11 14  1  0  0  0  0
  9 10  1  0  0  0  0
  9 11  1  0  0  0  0
  9 21  1  0  0  0  0
  7  8  1  0  0  0  0
  7  9  1  0  0  0  0
 25 26  1  0  0  0  0
 25 27  1  0  0  0  0
 25 28  1  0  0  0  0
 23 24  1  0  0  0  0
 23 25  1  0  0  0  0
M  END
$$$$
default_name
  -OEChem-02102213163D

 28 27  0     1  0  0  0  0  0999 V2000
   -3.2133   -3.5565    1.2809 H   0  0  0  0  0  0  0  0  0  0  0  0
   -3.1873   -2.5755    0.8089 C   0  0  0  0  0  0  0  0  0  0  0  0
   -3.8793   -1.9065    1.3169 H   0  0  0  0  0  0  0  0  0  0  0  0
   -3.4623   -2.6685   -0.2401 H   0  0  0  0  0  0  0  0  0  0  0  0
   -1.7863   -2.0195    0.9119 C   0  0  0  0  0  0  0  0  0  0  0  0
   -0.9073   -2.6615    1.4699 O   0  0  0  0  0  0  0  0  0  0  0  0
   -1.5803   -0.8195    0.3749 N   0  0  0  0  0  0  0  0  0  0  0  0
   -2.3603   -0.3345   -0.0451 H   0  0  0  0  0  0  0  0  0  0  0  0
   -0.2933   -0.1205    0.3719 C   0  0  1  0  0  0  0  0  0  0  0  0
    0.3577   -0.5843    1.1143 H   0  0  0  0  0  0  0  0  0  0  0  0
    0.3613   -0.2794   -1.0156 C   0  0  0  0  0  0  0  0  0  0  0  0
    1.3110   -0.8009   -0.8847 H   0  0  0  0  0  0  0  0  0  0  0  0
   -0.2799   -0.8957   -1.6475 H   0  0  0  0  0  0  0  0  0  0  0  0
    0.6233    1.0536   -1.7377 C   0  0  0  0  0  0  0  0  0  0  0  0
    1.0766    0.8657   -2.7110 H   0  0  0  0  0  0  0  0  0  0  0  0
   -0.3223    1.5756   -1.8795 H   0  0  0  0  0  0  0  0  0  0  0  0
    1.5542    1.9666   -0.9463 C   0  0  0  0  0  0  0  0  0  0  0  0
    1.9510    1.7495    0.1874 O   0  0  0  0  0  0  0  0  0  0  0  0
    1.9354    3.0930   -1.5769 O   0  0  0  0  0  0  0  0  0  0  0  0
    2.4968    3.5536   -0.9508 H   0  0  0  0  0  0  0  0  0  0  0  0
   -0.4860    1.3537    0.7622 C   0  0  0  0  0  0  0  0  0  0  0  0
   -1.3956    2.0096    0.2582 O   0  0  0  0  0  0  0  0  0  0  0  0
    0.3741    1.8728    1.6466 N   0  0  0  0  0  0  0  0  0  0  0  0
    1.0814    1.2667    2.0345 H   0  0  0  0  0  0  0  0  0  0  0  0
    0.3380    3.2610    2.1024 C   0  0  0  0  0  0  0  0  0  0  0  0
   -0.6389    3.4820    2.5363 H   0  0  0  0  0  0  0  0  0  0  0  0
    1.1108    3.4337    2.8528 H   0  0  0  0  0  0  0  0  0  0  0  0
    0.5009    3.9312    1.2562 H   0  0  0  0  0  0  0  0  0  0  0  0
  5  6  2  0  0  0  0
  5  7  1  0  0  0  0
  2  3  1  0  0  0  0
  2  4  1  0  0  0  0
  2  5  1  0  0  0  0
  1  2  1  0  0  0  0
 21 22  2  0  0  0  0
 21 23  1  0  0  0  0
 19 20  1  0  0  0  0
 17 18  2  0  0  0  0
 17 19  1  0  0  0  0
 14 15  1  0  0  0  0
 14 16  1  0  0  0  0
 14 17  1  0  0  0  0
 11 12  1  0  0  0  0
 11 13  1  0  0  0  0
 11 14  1  0  0  0  0
  9 10  1  0  0  0  0
  9 11  1  0  0  0  0
  9 21  1  0  0  0  0
  7  8  1  0  0  0  0
  7  9  1  0  0  0  0
 25 26  1  0  0  0  0
 25 27  1  0  0  0  0
 25 28  1  0  0  0  0
 23 24  1  0  0  0  0
 23 25  1  0  0  0  0
M  END
$$$$
default_name
  -OEChem-02102213163D

 28 27  0     1  0  0  0  0  0999 V2000
   -3.2133   -3.5565    1.2809 H   0  0  0  0  0  0  0  0  0  0  0  0
   -3.1873   -2.5755    0.8089 C   0  0  0  0  0  0  0  0  0  0  0  0
   -3.8793   -1.9065    1.3169 H   0  0  0  0  0  0  0  0  0  0  0  0
   -3.4623   -2.6685   -0.2401 H   0  0  0  0  0  0  0  0  0  0  0  0
   -1.7863   -2.0195    0.9119 C   0  0  0  0  0  0  0  0  0  0  0  0
   -0.9073   -2.6615    1.4699 O   0  0  0  0  0  0  0  0  0  0  0  0
   -1.5803   -0.8195    0.3749 N   0  0  0  0  0  0  0  0  0  0  0  0
   -2.3603   -0.3345   -0.0451 H   0  0  0  0  0  0  0  0  0  0  0  0
   -0.2933   -0.1205    0.3719 C   0  0  1  0  0  0  0  0  0  0  0  0
    0.3577   -0.5843    1.1143 H   0  0  0  0  0  0  0  0  0  0  0  0
    0.3613   -0.2794   -1.0156 C   0  0  0  0  0  0  0  0  0  0  0  0
    1.3110   -0.8009   -0.8847 H   0  0  0  0  0  0  0  0  0  0  0  0
   -0.2799   -0.8957   -1.6475 H   0  0  0  0  0  0  0  0  0  0  0  0
    0.6233    1.0536   -1.7377 C   0  0  0  0  0  0  0  0  0  0  0  0
    0.8222    0.8709   -2.7938 H   0  0  0  0  0  0  0  0  0  0  0  0
   -0.2564    1.6895   -1.6454 H   0  0  0  0  0  0  0  0  0  0  0  0
    1.8142    1.8046   -1.1511 C   0  0  0  0  0  0  0  0  0  0  0  0
    2.4215    1.4774   -0.1441 O   0  0  0  0  0  0  0  0  0  0  0  0
    2.1856    2.9136   -1.8173 O   0  0  0  0  0  0  0  0  0  0  0  0
    2.9254    3.2686   -1.3214 H   0  0  0  0  0  0  0  0  0  0  0  0
   -0.4860    1.3537    0.7622 C   0  0  0  0  0  0  0  0  0  0  0  0
   -1.3956    2.0096    0.2582 O   0  0  0  0  0  0  0  0  0  0  0  0
    0.3741    1.8728    1.6466 N   0  0  0  0  0  0  0  0  0  0  0  0
    1.0814    1.2667    2.0345 H   0  0  0  0  0  0  0  0  0  0  0  0
    0.3380    3.2610    2.1024 C   0  0  0  0  0  0  0  0  0  0  0  0
   -0.6389    3.4820    2.5363 H   0  0  0  0  0  0  0  0  0  0  0  0
    1.1108    3.4337    2.8528 H   0  0  0  0  0  0  0  0  0  0  0  0
    0.5009    3.9312    1.2562 H   0  0  0  0  0  0  0  0  0  0  0  0
  5  6  2  0  0  0  0
  5  7  1  0  0  0  0
  2  3  1  0  0  0  0
  2  4  1  0  0  0  0
  2  5  1  0  0  0  0
  1  2  1  0  0  0  0
 21 22  2  0  0  0  0
 21 23  1  0  0  0  0
 19 20  1  0  0  0  0
 17 18  2  0  0  0  0
 17 19  1  0  0  0  0
 14 15  1  0  0  0  0
 14 16  1  0  0  0  0
 14 17  1  0  0  0  0
 11 12  1  0  0  0  0
 11 13  1  0  0  0  0
 11 14  1  0  0  0  0
  9 10  1  0  0  0  0
  9 11  1  0  0  0  0
  9 21  1  0  0  0  0
  7  8  1  0  0  0  0
  7  9  1  0  0  0  0
 25 26  1  0  0  0  0
 25 27  1  0  0  0  0
 25 28  1  0  0  0  0
 23 24  1  0  0  0  0
 23 25  1  0  0  0  0
M  END
$$$$
default_name
  -OEChem-02102213163D

 28 27  0     1  0  0  0  0  0999 V2000
   -3.2133   -3.5565    1.2809 H   0  0  0  0  0  0  0  0  0  0  0  0
   -3.1873   -2.5755    0.8089 C   0  0  0  0  0  0  0  0  0  0  0  0
   -3.8793   -1.9065    1.3169 H   0  0  0  0  0  0  0  0  0  0  0  0
   -3.4623   -2.6685   -0.2401 H   0  0  0  0  0  0  0  0  0  0  0  0
   -1.7863   -2.0195    0.9119 C   0  0  0  0  0  0  0  0  0  0  0  0
   -0.9073   -2.6615    1.4699 O   0  0  0  0  0  0  0  0  0  0  0  0
   -1.5803   -0.8195    0.3749 N   0  0  0  0  0  0  0  0  0  0  0  0
   -2.3603   -0.3345   -0.0451 H   0  0  0  0  0  0  0  0  0  0  0  0
   -0.2933   -0.1205    0.3719 C   0  0  1  0  0  0  0  0  0  0  0  0
    0.3577   -0.5843    1.1143 H   0  0  0  0  0  0  0  0  0  0  0  0
    0.3613   -0.2794   -1.0156 C   0  0  0  0  0  0  0  0  0  0  0  0
    1.3110   -0.8009   -0.8847 H   0  0  0  0  0  0  0  0  0  0  0  0
   -0.2799   -0.8957   -1.6475 H   0  0  0  0  0  0  0  0  0  0  0  0
    0.6233    1.0536   -1.7377 C   0  0  0  0  0  0  0  0  0  0  0  0
    0.5586    0.9104   -2.8164 H   0  0  0  0  0  0  0  0  0  0  0  0
   -0.1264    1.7812   -1.4290 H   0  0  0  0  0  0  0  0  0  0  0  0
    1.9998    1.6255   -1.4143 C   0  0  0  0  0  0  0  0  0  0  0  0
    2.7687    1.1721   -0.5818 O   0  0  0  0  0  0  0  0  0  0  0  0
    2.3516    2.7204   -2.1136 O   0  0  0  0  0  0  0  0  0  0  0  0
    3.2217    2.9576   -1.7880 H   0  0  0  0  0  0  0  0  0  0  0  0
   -0.4860    1.3537    0.7622 C   0  0  0  0  0  0  0  0  0  0  0  0
   -1.3956    2.0096    0.2582 O   0  0  0  0  0  0  0  0  0  0  0  0
    0.3741    1.8728    1.6466 N   0  0  0  0  0  0  0  0  0  0  0  0
    1.0814    1.2667    2.0345 H   0  0  0  0  0  0  0  0  0  0  0  0
    0.3380    3.2610    2.1024 C   0  0  0  0  0  0  0  0  0  0  0  0
   -0.6389    3.4820    2.5363 H   0  0  0  0  0  0  0  0  0  0  0  0
    1.1108    3.4337    2.8528 H   0  0  0  0  0  0  0  0  0  0  0  0
    0.5009    3.9312    1.2562 H   0  0  0  0  0  0  0  0  0  0  0  0
  5  6  2  0  0  0  0
  5  7  1  0  0  0  0
  2  3  1  0  0  0  0
  2  4  1  0  0  0  0
  2  5  1  0  0  0  0
  1  2  1  0  0  0  0
 21 22  2  0  0  0  0
 21 23  1  0  0  0  0
 19 20  1  0  0  0  0
 17 18  2  0  0  0  0
 17 19  1  0  0  0  0
 14 15  1  0  0  0  0
 14 16  1  0  0  0  0
 14 17  1  0  0  0  0
 11 12  1  0  0  0  0
 11 13  1  0  0  0  0
 11 14  1  0  0  0  0
  9 10  1  0  0  0  0
  9 11  1  0  0  0  0
  9 21  1  0  0  0  0
  7  8  1  0  0  0  0
  7  9  1  0  0  0  0
 25 26  1  0  0  0  0
 25 27  1  0  0  0  0
 25 28  1  0  0  0  0
 23 24  1  0  0  0  0
 23 25  1  0  0  0  0
M  END
$$$$
default_name
  -OEChem-02102213163D

 28 27  0     1  0  0  0  0  0999 V2000
   -3.2133   -3.5565    1.2809 H   0  0  0  0  0  0  0  0  0  0  0  0
   -3.1873   -2.5755    0.8089 C   0  0  0  0  0  0  0  0  0  0  0  0
   -3.8793   -1.9065    1.3169 H   0  0  0  0  0  0  0  0  0  0  0  0
   -3.4623   -2.6685   -0.2401 H   0  0  0  0  0  0  0  0  0  0  0  0
   -1.7863   -2.0195    0.9119 C   0  0  0  0  0  0  0  0  0  0  0  0
   -0.9073   -2.6615    1.4699 O   0  0  0  0  0  0  0  0  0  0  0  0
   -1.5803   -0.8195    0.3749 N   0  0  0  0  0  0  0  0  0  0  0  0
   -2.3603   -0.3345   -0.0451 H   0  0  0  0  0  0  0  0  0  0  0  0
   -0.2933   -0.1205    0.3719 C   0  0  1  0  0  0  0  0  0  0  0  0
    0.3577   -0.5843    1.1143 H   0  0  0  0  0  0  0  0  0  0  0  0
    0.3613   -0.2794   -1.0156 C   0  0  0  0  0  0  0  0  0  0  0  0
    1.3110   -0.8009   -0.8847 H   0  0  0  0  0  0  0  0  0  0  0  0
   -0.2799   -0.8957   -1.6475 H   0  0  0  0  0  0  0  0  0  0  0  0
    0.6233    1.0536   -1.7377 C   0  0  0  0  0  0  0  0  0  0  0  0
    0.3037    0.9817   -2.7774 H   0  0  0  0  0  0  0  0  0  0  0  0
    0.0589    1.8444   -1.2450 H   0  0  0  0  0  0  0  0  0  0  0  0
    2.0983    1.4416   -1.7180 C   0  0  0  0  0  0  0  0  0  0  0  0
    2.9688    0.8543   -1.0959 O   0  0  0  0  0  0  0  0  0  0  0  0
    2.4220    2.5268   -2.4455 O   0  0  0  0  0  0  0  0  0  0  0  0
    3.3655    2.6418   -2.3189 H   0  0  0  0  0  0  0  0  0  0  0  0
   -0.4860    1.3537    0.7622 C   0  0  0  0  0  0  0  0  0  0  0  0
   -1.3956    2.0096    0.2582 O   0  0  0  0  0  0  0  0  0  0  0  0
    0.3741    1.8728    1.6466 N   0  0  0  0  0  0  0  0  0  0  0  0
    1.0814    1.2667    2.0345 H   0  0  0  0  0  0  0  0  0  0  0  0
    0.3380    3.2610    2.1024 C   0  0  0  0  0  0  0  0  0  0  0  0
   -0.6389    3.4820    2.5363 H   0  0  0  0  0  0  0  0  0  0  0  0
    1.1108    3.4337    2.8528 H   0  0  0  0  0  0  0  0  0  0  0  0
    0.5009    3.9312    1.2562 H   0  0  0  0  0  0  0  0  0  0  0  0
  5  6  2  0  0  0  0
  5  7  1  0  0  0  0
  2  3  1  0  0  0  0
  2  4  1  0  0  0  0
  2  5  1  0  0  0  0
  1  2  1  0  0  0  0
 21 22  2  0  0  0  0
 21 23  1  0  0  0  0
 19 20  1  0  0  0  0
 17 18  2  0  0  0  0
 17 19  1  0  0  0  0
 14 15  1  0  0  0  0
 14 16  1  0  0  0  0
 14 17  1  0  0  0  0
 11 12  1  0  0  0  0
 11 13  1  0  0  0  0
 11 14  1  0  0  0  0
  9 10  1  0  0  0  0
  9 11  1  0  0  0  0
  9 21  1  0  0  0  0
  7  8  1  0  0  0  0
  7  9  1  0  0  0  0
 25 26  1  0  0  0  0
 25 27  1  0  0  0  0
 25 28  1  0  0  0  0
 23 24  1  0  0  0  0
 23 25  1  0  0  0  0
M  END
$$$$
default_name
  -OEChem-02102213163D

 28 27  0     1  0  0  0  0  0999 V2000
   -3.2133   -3.5565    1.2809 H   0  0  0  0  0  0  0  0  0  0  0  0
   -3.1873   -2.5755    0.8089 C   0  0  0  0  0  0  0  0  0  0  0  0
   -3.8793   -1.9065    1.3169 H   0  0  0  0  0  0  0  0  0  0  0  0
   -3.4623   -2.6685   -0.2401 H   0  0  0  0  0  0  0  0  0  0  0  0
   -1.7863   -2.0195    0.9119 C   0  0  0  0  0  0  0  0  0  0  0  0
   -0.9073   -2.6615    1.4699 O   0  0  0  0  0  0  0  0  0  0  0  0
   -1.5803   -0.8195    0.3749 N   0  0  0  0  0  0  0  0  0  0  0  0
   -2.3603   -0.3345   -0.0451 H   0  0  0  0  0  0  0  0  0  0  0  0
   -0.2933   -0.1205    0.3719 C   0  0  1  0  0  0  0  0  0  0  0  0
    0.3577   -0.5843    1.1143 H   0  0  0  0  0  0  0  0  0  0  0  0
    0.3613   -0.2794   -1.0156 C   0  0  0  0  0  0  0  0  0  0  0  0
    1.3110   -0.8009   -0.8847 H   0  0  0  0  0  0  0  0  0  0  0  0
   -0.2799   -0.8957   -1.6475 H   0  0  0  0  0  0  0  0  0  0  0  0
    0.6233    1.0536   -1.7377 C   0  0  0  0  0  0  0  0  0  0  0  0
    0.0748    1.0798   -2.6794 H   0  0  0  0  0  0  0  0  0  0  0  0
    0.2867    1.8749   -1.1061 H   0  0  0  0  0  0  0  0  0  0  0  0
    2.1029    1.2654   -2.0416 C   0  0  0  0  0  0  0  0  0  0  0  0
    3.0081    0.5457   -1.6513 O   0  0  0  0  0  0  0  0  0  0  0  0
    2.3921    2.3458   -2.7904 O   0  0  0  0  0  0  0  0  0  0  0  0
    3.3469    2.3426   -2.8779 H   0  0  0  0  0  0  0  0  0  0  0  0
   -0.4860    1.3537    0.7622 C   0  0  0  0  0  0  0  0  0  0  0  0
   -1.3956    2.0096    0.2582 O   0  0  0  0  0  0  0  0  0  0  0  0
    0.3741    1.8728    1.6466 N   0  0  0  0  0  0  0  0  0  0  0  0
    1.0814    1.2667    2.0345 H   0  0  0  0  0  0  0  0  0  0  0  0
    0.3380    3.2610    2.1024 C   0  0  0  0  0  0  0  0  0  0  0  0
   -0.6389    3.4820    2.5363 H   0  0  0  0  0  0  0  0  0  0  0  0
    1.1108    3.4337    2.8528 H   0  0  0  0  0  0  0  0  0  0  0  0
    0.5009    3.9312    1.2562 H   0  0  0  0  0  0  0  0  0  0  0  0
  5  6  2  0  0  0  0
  5  7  1  0  0  0  0
  2  3  1  0  0  0  0
  2  4  1  0  0  0  0
  2  5  1  0  0  0  0
  1  2  1  0  0  0  0
 21 22  2  0  0  0  0
 21 23  1  0  0  0  0
 19 20  1  0  0  0  0
 17 18  2  0  0  0  0
 17 19  1  0  0  0  0
 14 15  1  0  0  0  0
 14 16  1  0  0  0  0
 14 17  1  0  0  0  0
 11 12  1  0  0  0  0
 11 13  1  0  0  0  0
 11 14  1  0  0  0  0
  9 10  1  0  0  0  0
  9 11  1  0  0  0  0
  9 21  1  0  0  0  0
  7  8  1  0  0  0  0
  7  9  1  0  0  0  0
 25 26  1  0  0  0  0
 25 27  1  0  0  0  0
 25 28  1  0  0  0  0
 23 24  1  0  0  0  0
 23 25  1  0  0  0  0
M  END
$$$$
default_name
  -OEChem-02102213163D

 28 27  0     1  0  0  0  0  0999 V2000
   -3.2133   -3.5565    1.2809 H   0  0  0  0  0  0  0  0  0  0  0  0
   -3.1873   -2.5755    0.8089 C   0  0  0  0  0  0  0  0  0  0  0  0
   -3.8793   -1.9065    1.3169 H   0  0  0  0  0  0  0  0  0  0  0  0
   -3.4623   -2.6685   -0.2401 H   0  0  0  0  0  0  0  0  0  0  0  0
   -1.7863   -2.0195    0.9119 C   0  0  0  0  0  0  0  0  0  0  0  0
   -0.9073   -2.6615    1.4699 O   0  0  0  0  0  0  0  0  0  0  0  0
   -1.5803   -0.8195    0.3749 N   0  0  0  0  0  0  0  0  0  0  0  0
   -2.3603   -0.3345   -0.0451 H   0  0  0  0  0  0  0  0  0  0  0  0
   -0.2933   -0.1205    0.3719 C   0  0  1  0  0  0  0  0  0  0  0  0
    0.3577   -0.5843    1.1143 H   0  0  0  0  0  0  0  0  0  0  0  0
    0.3613   -0.2794   -1.0156 C   0  0  0  0  0  0  0  0  0  0  0  0
    1.3110   -0.8009   -0.8847 H   0  0  0  0  0  0  0  0  0  0  0  0
   -0.2799   -0.8957   -1.6475 H   0  0  0  0  0  0  0  0  0  0  0  0
    0.6233    1.0536   -1.7377 C   0  0  0  0  0  0  0  0  0  0  0  0
   -0.1123    1.1980   -2.5291 H   0  0  0  0  0  0  0  0  0  0  0  0
    0.5417    1.8705   -1.0217 H   0  0  0  0  0  0  0  0  0  0  0  0
    2.0134    1.1089   -2.3629 C   0  0  0  0  0  0  0  0  0  0  0  0
    2.8841    0.2672   -2.2102 O   0  0  0  0  0  0  0  0  0  0  0  0
    2.2638    2.1898   -3.1249 O   0  0  0  0  0  0  0  0  0  0  0  0
    3.1673    2.0805   -3.4268 H   0  0  0  0  0  0  0  0  0  0  0  0
   -0.4860    1.3537    0.7622 C   0  0  0  0  0  0  0  0  0  0  0  0
   -1.3956    2.0096    0.2582 O   0  0  0  0  0  0  0  0  0  0  0  0
    0.3741    1.8728    1.6466 N   0  0  0  0  0  0  0  0  0  0  0  0
    1.0814    1.2667    2.0345 H   0  0  0  0  0  0  0  0  0  0  0  0
    0.3380    3.2610    2.1024 C   0  0  0  0  0  0  0  0  0  0  0  0
   -0.6389    3.4820    2.5363 H   0  0  0  0  0  0  0  0  0  0  0  0
    1.1108    3.4337    2.8528 H   0  0  0  0  0  0  0  0  0  0  0  0
    0.5009    3.9312    1.2562 H   0  0  0  0  0  0  0  0  0  0  0  0
  5  6  2  0  0  0  0
  5  7  1  0  0  0  0
  2  3  1  0  0  0  0
  2  4  1  0  0  0  0
  2  5  1  0  0  0  0
  1  2  1  0  0  0  0
 21 22  2  0  0  0  0
 21 23  1  0  0  0  0
 19 20  1  0  0  0  0
 17 18  2  0  0  0  0
 17 19  1  0  0  0  0
 14 15  1  0  0  0  0
 14 16  1  0  0  0  0
 14 17  1  0  0  0  0
 11 12  1  0  0  0  0
 11 13  1  0  0  0  0
 11 14  1  0  0  0  0
  9 10  1  0  0  0  0
  9 11  1  0  0  0  0
  9 21  1  0  0  0  0
  7  8  1  0  0  0  0
  7  9  1  0  0  0  0
 25 26  1  0  0  0  0
 25 27  1  0  0  0  0
 25 28  1  0  0  0  0
 23 24  1  0  0  0  0
 23 25  1  0  0  0  0
M  END
$$$$
default_name
  -OEChem-02102213163D

 28 27  0     1  0  0  0  0  0999 V2000
   -3.2133   -3.5565    1.2809 H   0  0  0  0  0  0  0  0  0  0  0  0
   -3.1873   -2.5755    0.8089 C   0  0  0  0  0  0  0  0  0  0  0  0
   -3.8793   -1.9065    1.3169 H   0  0  0  0  0  0  0  0  0  0  0  0
   -3.4623   -2.6685   -0.2401 H   0  0  0  0  0  0  0  0  0  0  0  0
   -1.7863   -2.0195    0.9119 C   0  0  0  0  0  0  0  0  0  0  0  0
   -0.9073   -2.6615    1.4699 O   0  0  0  0  0  0  0  0  0  0  0  0
   -1.5803   -0.8195    0.3749 N   0  0  0  0  0  0  0  0  0  0  0  0
   -2.3603   -0.3345   -0.0451 H   0  0  0  0  0  0  0  0  0  0  0  0
   -0.2933   -0.1205    0.3719 C   0  0  1  0  0  0  0  0  0  0  0  0
    0.3577   -0.5843    1.1143 H   0  0  0  0  0  0  0  0  0  0  0  0
    0.3613   -0.2794   -1.0156 C   0  0  0  0  0  0  0  0  0  0  0  0
    1.3110   -0.8009   -0.8847 H   0  0  0  0  0  0  0  0  0  0  0  0
   -0.2799   -0.8957   -1.6475 H   0  0  0  0  0  0  0  0  0  0  0  0
    0.6233    1.0536   -1.7377 C   0  0  0  0  0  0  0  0  0  0  0  0
   -0.2450    1.3282   -2.3367 H   0  0  0  0  0  0  0  0  0  0  0  0
    0.8063    1.8316   -0.9975 H   0  0  0  0  0  0  0  0  0  0  0  0
    1.8359    0.9828   -2.6602 C   0  0  0  0  0  0  0  0  0  0  0  0
    2.6051    0.0380   -2.7346 O   0  0  0  0  0  0  0  0  0  0  0  0
    2.0460    2.0695   -3.4260 O   0  0  0  0  0  0  0  0  0  0  0  0
    2.8388    1.8734   -3.9283 H   0  0  0  0  0  0  0  0  0  0  0  0
   -0.4860    1.3537    0.7622 C   0  0  0  0  0  0  0  0  0  0  0  0
   -1.3956    2.0096    0.2582 O   0  0  0  0  0  0  0  0  0  0  0  0
    0.3741    1.8728    1.6466 N   0  0  0  0  0  0  0  0  0  0  0  0
    1.0814    1.2667    2.0345 H   0  0  0  0  0  0  0  0  0  0  0  0
    0.3380    3.2610    2.1024 C   0  0  0  0  0  0  0  0  0  0  0  0
   -0.6389    3.4820    2.5363 H   0  0  0  0  0  0  0  0  0  0  0  0
    1.1108    3.4337    2.8528 H   0  0  0  0  0  0  0  0  0  0  0  0
    0.5009    3.9312    1.2562 H   0  0  0  0  0  0  0  0  0  0  0  0
  5  6  2  0  0  0  0
  5  7  1  0  0  0  0
  2  3  1  0  0  0  0
  2  4  1  0  0  0  0
  2  5  1  0  0  0  0
  1  2  1  0  0  0  0
 21 22  2  0  0  0  0
 21 23  1  0  0  0  0
 19 20  1  0  0  0  0
 17 18  2  0  0  0  0
 17 19  1  0  0  0  0
 14 15  1  0  0  0  0
 14 16  1  0  0  0  0
 14 17  1  0  0  0  0
 11 12  1  0  0  0  0
 11 13  1  0  0  0  0
 11 14  1  0  0  0  0
  9 10  1  0  0  0  0
  9 11  1  0  0  0  0
  9 21  1  0  0  0  0
  7  8  1  0  0  0  0
  7  9  1  0  0  0  0
 25 26  1  0  0  0  0
 25 27  1  0  0  0  0
 25 28  1  0  0  0  0
 23 24  1  0  0  0  0
 23 25  1  0  0  0  0
M  END
$$$$
default_name
  -OEChem-02102213163D

 28 27  0     1  0  0  0  0  0999 V2000
   -3.2133   -3.5565    1.2809 H   0  0  0  0  0  0  0  0  0  0  0  0
   -3.1873   -2.5755    0.8089 C   0  0  0  0  0  0  0  0  0  0  0  0
   -3.8793   -1.9065    1.3169 H   0  0  0  0  0  0  0  0  0  0  0  0
   -3.4623   -2.6685   -0.2401 H   0  0  0  0  0  0  0  0  0  0  0  0
   -1.7863   -2.0195    0.9119 C   0  0  0  0  0  0  0  0  0  0  0  0
   -0.9073   -2.6615    1.4699 O   0  0  0  0  0  0  0  0  0  0  0  0
   -1.5803   -0.8195    0.3749 N   0  0  0  0  0  0  0  0  0  0  0  0
   -2.3603   -0.3345   -0.0451 H   0  0  0  0  0  0  0  0  0  0  0  0
   -0.2933   -0.1205    0.3719 C   0  0  1  0  0  0  0  0  0  0  0  0
    0.3577   -0.5843    1.1143 H   0  0  0  0  0  0  0  0  0  0  0  0
    0.3613   -0.2794   -1.0156 C   0  0  0  0  0  0  0  0  0  0  0  0
    1.3110   -0.8009   -0.8847 H   0  0  0  0  0  0  0  0  0  0  0  0
   -0.2799   -0.8957   -1.6475 H   0  0  0  0  0  0  0  0  0  0  0  0
    0.6233    1.0536   -1.7377 C   0  0  0  0  0  0  0  0  0  0  0  0
   -0.3142    1.4617   -2.1154 H   0  0  0  0  0  0  0  0  0  0  0  0
    1.0627    1.7608   -1.0352 H   0  0  0  0  0  0  0  0  0  0  0  0
    1.5825    0.8956   -2.9130 C   0  0  0  0  0  0  0  0  0  0  0  0
    2.1903   -0.1264   -3.1886 O   0  0  0  0  0  0  0  0  0  0  0  0
    1.7535    1.9930   -3.6734 O   0  0  0  0  0  0  0  0  0  0  0  0
    2.3840    1.7354   -4.3482 H   0  0  0  0  0  0  0  0  0  0  0  0
   -0.4860    1.3537    0.7622 C   0  0  0  0  0  0  0  0  0  0  0  0
   -1.3956    2.0096    0.2582 O   0  0  0  0  0  0  0  0  0  0  0  0
    0.3741    1.8728    1.6466 N   0  0  0  0  0  0  0  0  0  0  0  0
    1.0814    1.2667    2.0345 H   0  0  0  0  0  0  0  0  0  0  0  0
    0.3380    3.2610    2.1024 C   0  0  0  0  0  0  0  0  0  0  0  0
   -0.6389    3.4820    2.5363 H   0  0  0  0  0  0  0  0  0  0  0  0
    1.1108    3.4337    2.8528 H   0  0  0  0  0  0  0  0  0  0  0  0
    0.5009    3.9312    1.2562 H   0  0  0  0  0  0  0  0  0  0  0  0
  5  6  2  0  0  0  0
  5  7  1  0  0  0  0
  2  3  1  0  0  0  0
  2  4  1  0  0  0  0
  2  5  1  0  0  0  0
  1  2  1  0  0  0  0
 21 22  2  0  0  0  0
 21 23  1  0  0  0  0
 19 20  1  0  0  0  0
 17 18  2  0  0  0  0
 17 19  1  0  0  0  0
 14 15  1  0  0  0  0
 14 16  1  0  0  0  0
 14 17  1  0  0  0  0
 11 12  1  0  0  0  0
 11 13  1  0  0  0  0
 11 14  1  0  0  0  0
  9 10  1  0  0  0  0
  9 11  1  0  0  0  0
  9 21  1  0  0  0  0
  7  8  1  0  0  0  0
  7  9  1  0  0  0  0
 25 26  1  0  0  0  0
 25 27  1  0  0  0  0
 25 28  1  0  0  0  0
 23 24  1  0  0  0  0
 23 25  1  0  0  0  0
M  END
$$$$
default_name
  -OEChem-02102213163D

 28 27  0     1  0  0  0  0  0999 V2000
   -3.2133   -3.5565    1.2809 H   0  0  0  0  0  0  0  0  0  0  0  0
   -3.1873   -2.5755    0.8089 C   0  0  0  0  0  0  0  0  0  0  0  0
   -3.8793   -1.9065    1.3169 H   0  0  0  0  0  0  0  0  0  0  0  0
   -3.4623   -2.6685   -0.2401 H   0  0  0  0  0  0  0  0  0  0  0  0
   -1.7863   -2.0195    0.9119 C   0  0  0  0  0  0  0  0  0  0  0  0
   -0.9073   -2.6615    1.4699 O   0  0  0  0  0  0  0  0  0  0  0  0
   -1.5803   -0.8195    0.3749 N   0  0  0  0  0  0  0  0  0  0  0  0
   -2.3603   -0.3345   -0.0451 H   0  0  0  0  0  0  0  0  0  0  0  0
   -0.2933   -0.1205    0.3719 C   0  0  1  0  0  0  0  0  0  0  0  0
    0.3577   -0.5843    1.1143 H   0  0  0  0  0  0  0  0  0  0  0  0
    0.3613   -0.2794   -1.0156 C   0  0  0  0  0  0  0  0  0  0  0  0
    1.1586   -1.0198   -0.9315 H   0  0  0  0  0  0  0  0  0  0  0  0
   -0.3795   -0.6572   -1.7218 H   0  0  0  0  0  0  0  0  0  0  0  0
    0.9530    1.0243   -1.5788 C   0  0  0  0  0  0  0  0  0  0  0  0
    0.1703    1.7771   -1.6727 H   0  0  0  0  0  0  0  0  0  0  0  0
    1.7212    1.3915   -0.8992 H   0  0  0  0  0  0  0  0  0  0  0  0
    1.5900    0.8250   -2.9503 C   0  0  0  0  0  0  0  0  0  0  0  0
    1.7464   -0.2536   -3.4998 O   0  0  0  0  0  0  0  0  0  0  0  0
    2.0088    1.9475   -3.5637 O   0  0  0  0  0  0  0  0  0  0  0  0
    2.3894    1.6534   -4.3931 H   0  0  0  0  0  0  0  0  0  0  0  0
   -0.4860    1.3537    0.7622 C   0  0  0  0  0  0  0  0  0  0  0  0
   -1.3956    2.0096    0.2582 O   0  0  0  0  0  0  0  0  0  0  0  0
    0.3741    1.8728    1.6466 N   0  0  0  0  0  0  0  0  0  0  0  0
    1.0814    1.2667    2.0345 H   0  0  0  0  0  0  0  0  0  0  0  0
    0.3380    3.2610    2.1024 C   0  0  0  0  0  0  0  0  0  0  0  0
   -0.6389    3.4820    2.5363 H   0  0  0  0  0  0  0  0  0  0  0  0
    1.1108    3.4337    2.8528 H   0  0  0  0  0  0  0  0  0  0  0  0
    0.5009    3.9312    1.2562 H   0  0  0  0  0  0  0  0  0  0  0  0
  5  6  2  0  0  0  0
  5  7  1  0  0  0  0
  2  3  1  0  0  0  0
  2  4  1  0  0  0  0
  2  5  1  0  0  0  0
  1  2  1  0  0  0  0
 21 22  2  0  0  0  0
 21 23  1  0  0  0  0
 19 20  1  0  0  0  0
 17 18  2  0  0  0  0
 17 19  1  0  0  0  0
 14 15  1  0  0  0  0
 14 16  1  0  0  0  0
 14 17  1  0  0  0  0
 11 12  1  0  0  0  0
 11 13  1  0  0  0  0
 11 14  1  0  0  0  0
  9 10  1  0  0  0  0
  9 11  1  0  0  0  0
  9 21  1  0  0  0  0
  7  8  1  0  0  0  0
  7  9  1  0  0  0  0
 25 26  1  0  0  0  0
 25 27  1  0  0  0  0
 25 28  1  0  0  0  0
 23 24  1  0  0  0  0
 23 25  1  0  0  0  0
M  END
$$$$
default_name
  -OEChem-02102213163D

 28 27  0     1  0  0  0  0  0999 V2000
   -3.2133   -3.5565    1.2809 H   0  0  0  0  0  0  0  0  0  0  0  0
   -3.1873   -2.5755    0.8089 C   0  0  0  0  0  0  0  0  0  0  0  0
   -3.8793   -1.9065    1.3169 H   0  0  0  0  0  0  0  0  0  0  0  0
   -3.4623   -2.6685   -0.2401 H   0  0  0  0  0  0  0  0  0  0  0  0
   -1.7863   -2.0195    0.9119 C   0  0  0  0  0  0  0  0  0  0  0  0
   -0.9073   -2.6615    1.4699 O   0  0  0  0  0  0  0  0  0  0  0  0
   -1.5803   -0.8195    0.3749 N   0  0  0  0  0  0  0  0  0  0  0  0
   -2.3603   -0.3345   -0.0451 H   0  0  0  0  0  0  0  0  0  0  0  0
   -0.2933   -0.1205    0.3719 C   0  0  1  0  0  0  0  0  0  0  0  0
    0.3577   -0.5843    1.1143 H   0  0  0  0  0  0  0  0  0  0  0  0
    0.3613   -0.2794   -1.0156 C   0  0  0  0  0  0  0  0  0  0  0  0
    1.1586   -1.0198   -0.9315 H   0  0  0  0  0  0  0  0  0  0  0  0
   -0.3795   -0.6572   -1.7218 H   0  0  0  0  0  0  0  0  0  0  0  0
    0.9530    1.0243   -1.5788 C   0  0  0  0  0  0  0  0  0  0  0  0
    0.2525    1.8457   -1.4275 H   0  0  0  0  0  0  0  0  0  0  0  0
    1.8835    1.2489   -1.0588 H   0  0  0  0  0  0  0  0  0  0  0  0
    1.2562    0.9246   -3.0703 C   0  0  0  0  0  0  0  0  0  0  0  0
    1.1760   -0.0962   -3.7346 O   0  0  0  0  0  0  0  0  0  0  0  0
    1.6500    2.0689   -3.6596 O   0  0  0  0  0  0  0  0  0  0  0  0
    1.8106    1.8371   -4.5760 H   0  0  0  0  0  0  0  0  0  0  0  0
   -0.4860    1.3537    0.7622 C   0  0  0  0  0  0  0  0  0  0  0  0
   -1.3956    2.0096    0.2582 O   0  0  0  0  0  0  0  0  0  0  0  0
    0.3741    1.8728    1.6466 N   0  0  0  0  0  0  0  0  0  0  0  0
    1.0814    1.2667    2.0345 H   0  0  0  0  0  0  0  0  0  0  0  0
    0.3380    3.2610    2.1024 C   0  0  0  0  0  0  0  0  0  0  0  0
   -0.6389    3.4820    2.5363 H   0  0  0  0  0  0  0  0  0  0  0  0
    1.1108    3.4337    2.8528 H   0  0  0  0  0  0  0  0  0  0  0  0
    0.5009    3.9312    1.2562 H   0  0  0  0  0  0  0  0  0  0  0  0
  5  6  2  0  0  0  0
  5  7  1  0  0  0  0
  2  3  1  0  0  0  0
  2  4  1  0  0  0  0
  2  5  1  0  0  0  0
  1  2  1  0  0  0  0
 21 22  2  0  0  0  0
 21 23  1  0  0  0  0
 19 20  1  0  0  0  0
 17 18  2  0  0  0  0
 17 19  1  0  0  0  0
 14 15  1  0  0  0  0
 14 16  1  0  0  0  0
 14 17  1  0  0  0  0
 11 12  1  0  0  0  0
 11 13  1  0  0  0  0
 11 14  1  0  0  0  0
  9 10  1  0  0  0  0
  9 11  1  0  0  0  0
  9 21  1  0  0  0  0
  7  8  1  0  0  0  0
  7  9  1  0  0  0  0
 25 26  1  0  0  0  0
 25 27  1  0  0  0  0
 25 28  1  0  0  0  0
 23 24  1  0  0  0  0
 23 25  1  0  0  0  0
M  END
$$$$
default_name
  -OEChem-02102213163D

 28 27  0     1  0  0  0  0  0999 V2000
   -3.2133   -3.5565    1.2809 H   0  0  0  0  0  0  0  0  0  0  0  0
   -3.1873   -2.5755    0.8089 C   0  0  0  0  0  0  0  0  0  0  0  0
   -3.8793   -1.9065    1.3169 H   0  0  0  0  0  0  0  0  0  0  0  0
   -3.4623   -2.6685   -0.2401 H   0  0  0  0  0  0  0  0  0  0  0  0
   -1.7863   -2.0195    0.9119 C   0  0  0  0  0  0  0  0  0  0  0  0
   -0.9073   -2.6615    1.4699 O   0  0  0  0  0  0  0  0  0  0  0  0
   -1.5803   -0.8195    0.3749 N   0  0  0  0  0  0  0  0  0  0  0  0
   -2.3603   -0.3345   -0.0451 H   0  0  0  0  0  0  0  0  0  0  0  0
   -0.2933   -0.1205    0.3719 C   0  0  1  0  0  0  0  0  0  0  0  0
    0.3577   -0.5843    1.1143 H   0  0  0  0  0  0  0  0  0  0  0  0
    0.3613   -0.2794   -1.0156 C   0  0  0  0  0  0  0  0  0  0  0  0
    1.1586   -1.0198   -0.9315 H   0  0  0  0  0  0  0  0  0  0  0  0
   -0.3795   -0.6572   -1.7218 H   0  0  0  0  0  0  0  0  0  0  0  0
    0.9530    1.0243   -1.5788 C   0  0  0  0  0  0  0  0  0  0  0  0
    0.3923    1.8797   -1.2019 H   0  0  0  0  0  0  0  0  0  0  0  0
    1.9918    1.1116   -1.2627 H   0  0  0  0  0  0  0  0  0  0  0  0
    0.9169    1.0645   -3.1031 C   0  0  0  0  0  0  0  0  0  0  0  0
    0.5885    0.1333   -3.8207 O   0  0  0  0  0  0  0  0  0  0  0  0
    1.2940    2.2297   -3.6615 O   0  0  0  0  0  0  0  0  0  0  0  0
    1.2288    2.0876   -4.6074 H   0  0  0  0  0  0  0  0  0  0  0  0
   -0.4860    1.3537    0.7622 C   0  0  0  0  0  0  0  0  0  0  0  0
   -1.3956    2.0096    0.2582 O   0  0  0  0  0  0  0  0  0  0  0  0
    0.3741    1.8728    1.6466 N   0  0  0  0  0  0  0  0  0  0  0  0
    1.0814    1.2667    2.0345 H   0  0  0  0  0  0  0  0  0  0  0  0
    0.3380    3.2610    2.1024 C   0  0  0  0  0  0  0  0  0  0  0  0
   -0.6389    3.4820    2.5363 H   0  0  0  0  0  0  0  0  0  0  0  0
    1.1108    3.4337    2.8528 H   0  0  0  0  0  0  0  0  0  0  0  0
    0.5009    3.9312    1.2562 H   0  0  0  0  0  0  0  0  0  0  0  0
  5  6  2  0  0  0  0
  5  7  1  0  0  0  0
  2  3  1  0  0  0  0
  2  4  1  0  0  0  0
  2  5  1  0  0  0  0
  1  2  1  0  0  0  0
 21 22  2  0  0  0  0
 21 23  1  0  0  0  0
 19 20  1  0  0  0  0
 17 18  2  0  0  0  0
 17 19  1  0  0  0  0
 14 15  1  0  0  0  0
 14 16  1  0  0  0  0
 14 17  1  0  0  0  0
 11 12  1  0  0  0  0
 11 13  1  0  0  0  0
 11 14  1  0  0  0  0
  9 10  1  0  0  0  0
  9 11  1  0  0  0  0
  9 21  1  0  0  0  0
  7  8  1  0  0  0  0
  7  9  1  0  0  0  0
 25 26  1  0  0  0  0
 25 27  1  0  0  0  0
 25 28  1  0  0  0  0
 23 24  1  0  0  0  0
 23 25  1  0  0  0  0
M  END
$$$$
default_name
  -OEChem-02102213163D

 28 27  0     1  0  0  0  0  0999 V2000
   -3.2133   -3.5565    1.2809 H   0  0  0  0  0  0  0  0  0  0  0  0
   -3.1873   -2.5755    0.8089 C   0  0  0  0  0  0  0  0  0  0  0  0
   -3.8793   -1.9065    1.3169 H   0  0  0  0  0  0  0  0  0  0  0  0
   -3.4623   -2.6685   -0.2401 H   0  0  0  0  0  0  0  0  0  0  0  0
   -1.7863   -2.0195    0.9119 C   0  0  0  0  0  0  0  0  0  0  0  0
   -0.9073   -2.6615    1.4699 O   0  0  0  0  0  0  0  0  0  0  0  0
   -1.5803   -0.8195    0.3749 N   0  0  0  0  0  0  0  0  0  0  0  0
   -2.3603   -0.3345   -0.0451 H   0  0  0  0  0  0  0  0  0  0  0  0
   -0.2933   -0.1205    0.3719 C   0  0  1  0  0  0  0  0  0  0  0  0
    0.3577   -0.5843    1.1143 H   0  0  0  0  0  0  0  0  0  0  0  0
    0.3613   -0.2794   -1.0156 C   0  0  0  0  0  0  0  0  0  0  0  0
    1.1586   -1.0198   -0.9315 H   0  0  0  0  0  0  0  0  0  0  0  0
   -0.3795   -0.6572   -1.7218 H   0  0  0  0  0  0  0  0  0  0  0  0
    0.9530    1.0243   -1.5788 C   0  0  0  0  0  0  0  0  0  0  0  0
    0.5800    1.8769   -1.0113 H   0  0  0  0  0  0  0  0  0  0  0  0
    2.0387    0.9891   -1.4970 H   0  0  0  0  0  0  0  0  0  0  0  0
    0.5952    1.2350   -3.0464 C   0  0  0  0  0  0  0  0  0  0  0  0
    0.0238    0.4192   -3.7521 O   0  0  0  0  0  0  0  0  0  0  0  0
    0.9649    2.4189   -3.5692 O   0  0  0  0  0  0  0  0  0  0  0  0
    0.6836    2.3879   -4.4853 H   0  0  0  0  0  0  0  0  0  0  0  0
   -0.4860    1.3537    0.7622 C   0  0  0  0  0  0  0  0  0  0  0  0
   -1.3956    2.0096    0.2582 O   0  0  0  0  0  0  0  0  0  0  0  0
    0.3741    1.8728    1.6466 N   0  0  0  0  0  0  0  0  0  0  0  0
    1.0814    1.2667    2.0345 H   0  0  0  0  0  0  0  0  0  0  0  0
    0.3380    3.2610    2.1024 C   0  0  0  0  0  0  0  0  0  0  0  0
   -0.6389    3.4820    2.5363 H   0  0  0  0  0  0  0  0  0  0  0  0
    1.1108    3.4337    2.8528 H   0  0  0  0  0  0  0  0  0  0  0  0
    0.5009    3.9312    1.2562 H   0  0  0  0  0  0  0  0  0  0  0  0
  5  6  2  0  0  0  0
  5  7  1  0  0  0  0
  2  3  1  0  0  0  0
  2  4  1  0  0  0  0
  2  5  1  0  0  0  0
  1  2  1  0  0  0  0
 21 22  2  0  0  0  0
 21 23  1  0  0  0  0
 19 20  1  0  0  0  0
 17 18  2  0  0  0  0
 17 19  1  0  0  0  0
 14 15  1  0  0  0  0
 14 16  1  0  0  0  0
 14 17  1  0  0  0  0
 11 12  1  0  0  0  0
 11 13  1  0  0  0  0
 11 14  1  0  0  0  0
  9 10  1  0  0  0  0
  9 11  1  0  0  0  0
  9 21  1  0  0  0  0
  7  8  1  0  0  0  0
  7  9  1  0  0  0  0
 25 26  1  0  0  0  0
 25 27  1  0  0  0  0
 25 28  1  0  0  0  0
 23 24  1  0  0  0  0
 23 25  1  0  0  0  0
M  END
$$$$
default_name
  -OEChem-02102213163D

 28 27  0     1  0  0  0  0  0999 V2000
   -3.2133   -3.5565    1.2809 H   0  0  0  0  0  0  0  0  0  0  0  0
   -3.1873   -2.5755    0.8089 C   0  0  0  0  0  0  0  0  0  0  0  0
   -3.8793   -1.9065    1.3169 H   0  0  0  0  0  0  0  0  0  0  0  0
   -3.4623   -2.6685   -0.2401 H   0  0  0  0  0  0  0  0  0  0  0  0
   -1.7863   -2.0195    0.9119 C   0  0  0  0  0  0  0  0  0  0  0  0
   -0.9073   -2.6615    1.4699 O   0  0  0  0  0  0  0  0  0  0  0  0
   -1.5803   -0.8195    0.3749 N   0  0  0  0  0  0  0  0  0  0  0  0
   -2.3603   -0.3345   -0.0451 H   0  0  0  0  0  0  0  0  0  0  0  0
   -0.2933   -0.1205    0.3719 C   0  0  1  0  0  0  0  0  0  0  0  0
    0.3577   -0.5843    1.1143 H   0  0  0  0  0  0  0  0  0  0  0  0
    0.3613   -0.2794   -1.0156 C   0  0  0  0  0  0  0  0  0  0  0  0
    1.1586   -1.0198   -0.9315 H   0  0  0  0  0  0  0  0  0  0  0  0
   -0.3795   -0.6572   -1.7218 H   0  0  0  0  0  0  0  0  0  0  0  0
    0.9530    1.0243   -1.5788 C   0  0  0  0  0  0  0  0  0  0  0  0
    0.8028    1.8374   -0.8685 H   0  0  0  0  0  0  0  0  0  0  0  0
    2.0210    0.8896   -1.7459 H   0  0  0  0  0  0  0  0  0  0  0  0
    0.3130    1.4245   -2.9042 C   0  0  0  0  0  0  0  0  0  0  0  0
   -0.4795    0.7421   -3.5336 O   0  0  0  0  0  0  0  0  0  0  0  0
    0.6852    2.6237   -3.3890 O   0  0  0  0  0  0  0  0  0  0  0  0
    0.2123    2.7173   -4.2178 H   0  0  0  0  0  0  0  0  0  0  0  0
   -0.4860    1.3537    0.7622 C   0  0  0  0  0  0  0  0  0  0  0  0
   -1.3956    2.0096    0.2582 O   0  0  0  0  0  0  0  0  0  0  0  0
    0.3741    1.8728    1.6466 N   0  0  0  0  0  0  0  0  0  0  0  0
    1.0814    1.2667    2.0345 H   0  0  0  0  0  0  0  0  0  0  0  0
    0.3380    3.2610    2.1024 C   0  0  0  0  0  0  0  0  0  0  0  0
   -0.6389    3.4820    2.5363 H   0  0  0  0  0  0  0  0  0  0  0  0
    1.1108    3.4337    2.8528 H   0  0  0  0  0  0  0  0  0  0  0  0
    0.5009    3.9312    1.2562 H   0  0  0  0  0  0  0  0  0  0  0  0
  5  6  2  0  0  0  0
  5  7  1  0  0  0  0
  2  3  1  0  0  0  0
  2  4  1  0  0  0  0
  2  5  1  0  0  0  0
  1  2  1  0  0  0  0
 21 22  2  0  0  0  0
 21 23  1  0  0  0  0
 19 20  1  0  0  0  0
 17 18  2  0  0  0  0
 17 19  1  0  0  0  0
 14 15  1  0  0  0  0
 14 16  1  0  0  0  0
 14 17  1  0  0  0  0
 11 12  1  0  0  0  0
 11 13  1  0  0  0  0
 11 14  1  0  0  0  0
  9 10  1  0  0  0  0
  9 11  1  0  0  0  0
  9 21  1  0  0  0  0
  7  8  1  0  0  0  0
  7  9  1  0  0  0  0
 25 26  1  0  0  0  0
 25 27  1  0  0  0  0
 25 28  1  0  0  0  0
 23 24  1  0  0  0  0
 23 25  1  0  0  0  0
M  END
$$$$
default_name
  -OEChem-02102213163D

 28 27  0     1  0  0  0  0  0999 V2000
   -3.2133   -3.5565    1.2809 H   0  0  0  0  0  0  0  0  0  0  0  0
   -3.1873   -2.5755    0.8089 C   0  0  0  0  0  0  0  0  0  0  0  0
   -3.8793   -1.9065    1.3169 H   0  0  0  0  0  0  0  0  0  0  0  0
   -3.4623   -2.6685   -0.2401 H   0  0  0  0  0  0  0  0  0  0  0  0
   -1.7863   -2.0195    0.9119 C   0  0  0  0  0  0  0  0  0  0  0  0
   -0.9073   -2.6615    1.4699 O   0  0  0  0  0  0  0  0  0  0  0  0
   -1.5803   -0.8195    0.3749 N   0  0  0  0  0  0  0  0  0  0  0  0
   -2.3603   -0.3345   -0.0451 H   0  0  0  0  0  0  0  0  0  0  0  0
   -0.2933   -0.1205    0.3719 C   0  0  1  0  0  0  0  0  0  0  0  0
    0.3577   -0.5843    1.1143 H   0  0  0  0  0  0  0  0  0  0  0  0
    0.3613   -0.2794   -1.0156 C   0  0  0  0  0  0  0  0  0  0  0  0
    1.1586   -1.0198   -0.9315 H   0  0  0  0  0  0  0  0  0  0  0  0
   -0.3795   -0.6572   -1.7218 H   0  0  0  0  0  0  0  0  0  0  0  0
    0.9530    1.0243   -1.5788 C   0  0  0  0  0  0  0  0  0  0  0  0
    1.0456    1.7640   -0.7835 H   0  0  0  0  0  0  0  0  0  0  0  0
    1.9399    0.8200   -1.9923 H   0  0  0  0  0  0  0  0  0  0  0  0
    0.0896    1.6201   -2.6860 C   0  0  0  0  0  0  0  0  0  0  0  0
   -0.8871    1.0799   -3.1799 O   0  0  0  0  0  0  0  0  0  0  0  0
    0.4739    2.8300   -3.1333 O   0  0  0  0  0  0  0  0  0  0  0  0
   -0.1531    3.0536   -3.8233 H   0  0  0  0  0  0  0  0  0  0  0  0
   -0.4860    1.3537    0.7622 C   0  0  0  0  0  0  0  0  0  0  0  0
   -1.3956    2.0096    0.2582 O   0  0  0  0  0  0  0  0  0  0  0  0
    0.3741    1.8728    1.6466 N   0  0  0  0  0  0  0  0  0  0  0  0
    1.0814    1.2667    2.0345 H   0  0  0  0  0  0  0  0  0  0  0  0
    0.3380    3.2610    2.1024 C   0  0  0  0  0  0  0  0  0  0  0  0
   -0.6389    3.4820    2.5363 H   0  0  0  0  0  0  0  0  0  0  0  0
    1.1108    3.4337    2.8528 H   0  0  0  0  0  0  0  0  0  0  0  0
    0.5009    3.9312    1.2562 H   0  0  0  0  0  0  0  0  0  0  0  0
  5  6  2  0  0  0  0
  5  7  1  0  0  0  0
  2  3  1  0  0  0  0
  2  4  1  0  0  0  0
  2  5  1  0  0  0  0
  1  2  1  0  0  0  0
 21 22  2  0  0  0  0
 21 23  1  0  0  0  0
 19 20  1  0  0  0  0
 17 18  2  0  0  0  0
 17 19  1  0  0  0  0
 14 15  1  0  0  0  0
 14 16  1  0  0  0  0
 14 17  1  0  0  0  0
 11 12  1  0  0  0  0
 11 13  1  0  0  0  0
 11 14  1  0  0  0  0
  9 10  1  0  0  0  0
  9 11  1  0  0  0  0
  9 21  1  0  0  0  0
  7  8  1  0  0  0  0
  7  9  1  0  0  0  0
 25 26  1  0  0  0  0
 25 27  1  0  0  0  0
 25 28  1  0  0  0  0
 23 24  1  0  0  0  0
 23 25  1  0  0  0  0
M  END
$$$$
default_name
  -OEChem-02102213163D

 28 27  0     1  0  0  0  0  0999 V2000
   -3.2133   -3.5565    1.2809 H   0  0  0  0  0  0  0  0  0  0  0  0
   -3.1873   -2.5755    0.8089 C   0  0  0  0  0  0  0  0  0  0  0  0
   -3.8793   -1.9065    1.3169 H   0  0  0  0  0  0  0  0  0  0  0  0
   -3.4623   -2.6685   -0.2401 H   0  0  0  0  0  0  0  0  0  0  0  0
   -1.7863   -2.0195    0.9119 C   0  0  0  0  0  0  0  0  0  0  0  0
   -0.9073   -2.6615    1.4699 O   0  0  0  0  0  0  0  0  0  0  0  0
   -1.5803   -0.8195    0.3749 N   0  0  0  0  0  0  0  0  0  0  0  0
   -2.3603   -0.3345   -0.0451 H   0  0  0  0  0  0  0  0  0  0  0  0
   -0.2933   -0.1205    0.3719 C   0  0  1  0  0  0  0  0  0  0  0  0
    0.3577   -0.5843    1.1143 H   0  0  0  0  0  0  0  0  0  0  0  0
    0.3613   -0.2794   -1.0156 C   0  0  0  0  0  0  0  0  0  0  0  0
    1.1586   -1.0198   -0.9315 H   0  0  0  0  0  0  0  0  0  0  0  0
   -0.3795   -0.6572   -1.7218 H   0  0  0  0  0  0  0  0  0  0  0  0
    0.9530    1.0243   -1.5788 C   0  0  0  0  0  0  0  0  0  0  0  0
    1.2918    1.6616   -0.7619 H   0  0  0  0  0  0  0  0  0  0  0  0
    1.8009    0.7849   -2.2195 H   0  0  0  0  0  0  0  0  0  0  0  0
   -0.0598    1.8085   -2.4069 C   0  0  0  0  0  0  0  0  0  0  0  0
   -1.1713    1.4096   -2.7153 O   0  0  0  0  0  0  0  0  0  0  0  0
    0.3455    3.0240   -2.8194 O   0  0  0  0  0  0  0  0  0  0  0  0
   -0.3877    3.3738   -3.3286 H   0  0  0  0  0  0  0  0  0  0  0  0
   -0.4860    1.3537    0.7622 C   0  0  0  0  0  0  0  0  0  0  0  0
   -1.3956    2.0096    0.2582 O   0  0  0  0  0  0  0  0  0  0  0  0
    0.3741    1.8728    1.6466 N   0  0  0  0  0  0  0  0  0  0  0  0
    1.0814    1.2667    2.0345 H   0  0  0  0  0  0  0  0  0  0  0  0
    0.3380    3.2610    2.1024 C   0  0  0  0  0  0  0  0  0  0  0  0
   -0.6389    3.4820    2.5363 H   0  0  0  0  0  0  0  0  0  0  0  0
    1.1108    3.4337    2.8528 H   0  0  0  0  0  0  0  0  0  0  0  0
    0.5009    3.9312    1.2562 H   0  0  0  0  0  0  0  0  0  0  0  0
  5  6  2  0  0  0  0
  5  7  1  0  0  0  0
  2  3  1  0  0  0  0
  2  4  1  0  0  0  0
  2  5  1  0  0  0  0
  1  2  1  0  0  0  0
 21 22  2  0  0  0  0
 21 23  1  0  0  0  0
 19 20  1  0  0  0  0
 17 18  2  0  0  0  0
 17 19  1  0  0  0  0
 14 15  1  0  0  0  0
 14 16  1  0  0  0  0
 14 17  1  0  0  0  0
 11 12  1  0  0  0  0
 11 13  1  0  0  0  0
 11 14  1  0  0  0  0
  9 10  1  0  0  0  0
  9 11  1  0  0  0  0
  9 21  1  0  0  0  0
  7  8  1  0  0  0  0
  7  9  1  0  0  0  0
 25 26  1  0  0  0  0
 25 27  1  0  0  0  0
 25 28  1  0  0  0  0
 23 24  1  0  0  0  0
 23 25  1  0  0  0  0
M  END
$$$$
default_name
  -OEChem-02102213163D

 28 27  0     1  0  0  0  0  0999 V2000
   -3.2133   -3.5565    1.2809 H   0  0  0  0  0  0  0  0  0  0  0  0
   -3.1873   -2.5755    0.8089 C   0  0  0  0  0  0  0  0  0  0  0  0
   -3.8793   -1.9065    1.3169 H   0  0  0  0  0  0  0  0  0  0  0  0
   -3.4623   -2.6685   -0.2401 H   0  0  0  0  0  0  0  0  0  0  0  0
   -1.7863   -2.0195    0.9119 C   0  0  0  0  0  0  0  0  0  0  0  0
   -0.9073   -2.6615    1.4699 O   0  0  0  0  0  0  0  0  0  0  0  0
   -1.5803   -0.8195    0.3749 N   0  0  0  0  0  0  0  0  0  0  0  0
   -2.3603   -0.3345   -0.0451 H   0  0  0  0  0  0  0  0  0  0  0  0
   -0.2933   -0.1205    0.3719 C   0  0  1  0  0  0  0  0  0  0  0  0
    0.3577   -0.5843    1.1143 H   0  0  0  0  0  0  0  0  0  0  0  0
    0.3613   -0.2794   -1.0156 C   0  0  0  0  0  0  0  0  0  0  0  0
    1.1586   -1.0198   -0.9315 H   0  0  0  0  0  0  0  0  0  0  0  0
   -0.3795   -0.6572   -1.7218 H   0  0  0  0  0  0  0  0  0  0  0  0
    0.9530    1.0243   -1.5788 C   0  0  0  0  0  0  0  0  0  0  0  0
    1.5247    1.5371   -0.8052 H   0  0  0  0  0  0  0  0  0  0  0  0
    1.6135    0.7869   -2.4119 H   0  0  0  0  0  0  0  0  0  0  0  0
   -0.1250    1.9769   -2.0857 C   0  0  0  0  0  0  0  0  0  0  0  0
   -1.3126    1.7087   -2.1714 O   0  0  0  0  0  0  0  0  0  0  0  0
    0.3087    3.1922   -2.4687 O   0  0  0  0  0  0  0  0  0  0  0  0
   -0.4754    3.6561   -2.7674 H   0  0  0  0  0  0  0  0  0  0  0  0
   -0.4860    1.3537    0.7622 C   0  0  0  0  0  0  0  0  0  0  0  0
   -1.3956    2.0096    0.2582 O   0  0  0  0  0  0  0  0  0  0  0  0
    0.3741    1.8728    1.6466 N   0  0  0  0  0  0  0  0  0  0  0  0
    1.0814    1.2667    2.0345 H   0  0  0  0  0  0  0  0  0  0  0  0
    0.3380    3.2610    2.1024 C   0  0  0  0  0  0  0  0  0  0  0  0
   -0.6389    3.4820    2.5363 H   0  0  0  0  0  0  0  0  0  0  0  0
    1.1108    3.4337    2.8528 H   0  0  0  0  0  0  0  0  0  0  0  0
    0.5009    3.9312    1.2562 H   0  0  0  0  0  0  0  0  0  0  0  0
  5  6  2  0  0  0  0
  5  7  1  0  0  0  0
  2  3  1  0  0  0  0
  2  4  1  0  0  0  0
  2  5  1  0  0  0  0
  1  2  1  0  0  0  0
 21 22  2  0  0  0  0
 21 23  1  0  0  0  0
 19 20  1  0  0  0  0
 17 18  2  0  0  0  0
 17 19  1  0  0  0  0
 14 15  1  0  0  0  0
 14 16  1  0  0  0  0
 14 17  1  0  0  0  0
 11 12  1  0  0  0  0
 11 13  1  0  0  0  0
 11 14  1  0  0  0  0
  9 10  1  0  0  0  0
  9 11  1  0  0  0  0
  9 21  1  0  0  0  0
  7  8  1  0  0  0  0
  7  9  1  0  0  0  0
 25 26  1  0  0  0  0
 25 27  1  0  0  0  0
 25 28  1  0  0  0  0
 23 24  1  0  0  0  0
 23 25  1  0  0  0  0
M  END
$$$$
default_name
  -OEChem-02102213163D

 28 27  0     1  0  0  0  0  0999 V2000
   -3.2133   -3.5565    1.2809 H   0  0  0  0  0  0  0  0  0  0  0  0
   -3.1873   -2.5755    0.8089 C   0  0  0  0  0  0  0  0  0  0  0  0
   -3.8793   -1.9065    1.3169 H   0  0  0  0  0  0  0  0  0  0  0  0
   -3.4623   -2.6685   -0.2401 H   0  0  0  0  0  0  0  0  0  0  0  0
   -1.7863   -2.0195    0.9119 C   0  0  0  0  0  0  0  0  0  0  0  0
   -0.9073   -2.6615    1.4699 O   0  0  0  0  0  0  0  0  0  0  0  0
   -1.5803   -0.8195    0.3749 N   0  0  0  0  0  0  0  0  0  0  0  0
   -2.3603   -0.3345   -0.0451 H   0  0  0  0  0  0  0  0  0  0  0  0
   -0.2933   -0.1205    0.3719 C   0  0  1  0  0  0  0  0  0  0  0  0
    0.3577   -0.5843    1.1143 H   0  0  0  0  0  0  0  0  0  0  0  0
    0.3613   -0.2794   -1.0156 C   0  0  0  0  0  0  0  0  0  0  0  0
    1.1586   -1.0198   -0.9315 H   0  0  0  0  0  0  0  0  0  0  0  0
   -0.3795   -0.6572   -1.7218 H   0  0  0  0  0  0  0  0  0  0  0  0
    0.9530    1.0243   -1.5788 C   0  0  0  0  0  0  0  0  0  0  0  0
    1.7283    1.3992   -0.9105 H   0  0  0  0  0  0  0  0  0  0  0  0
    1.3905    0.8256   -2.5565 H   0  0  0  0  0  0  0  0  0  0  0  0
   -0.1016    2.1137   -1.7444 C   0  0  0  0  0  0  0  0  0  0  0  0
   -1.3016    1.9569   -1.5853 O   0  0  0  0  0  0  0  0  0  0  0  0
    0.3660    3.3232   -2.1052 O   0  0  0  0  0  0  0  0  0  0  0  0
   -0.4104    3.8811   -2.1780 H   0  0  0  0  0  0  0  0  0  0  0  0
   -0.4860    1.3537    0.7622 C   0  0  0  0  0  0  0  0  0  0  0  0
   -1.3956    2.0096    0.2582 O   0  0  0  0  0  0  0  0  0  0  0  0
    0.3741    1.8728    1.6466 N   0  0  0  0  0  0  0  0  0  0  0  0
    1.0814    1.2667    2.0345 H   0  0  0  0  0  0  0  0  0  0  0  0
    0.3380    3.2610    2.1024 C   0  0  0  0  0  0  0  0  0  0  0  0
   -0.6389    3.4820    2.5363 H   0  0  0  0  0  0  0  0  0  0  0  0
    1.1108    3.4337    2.8528 H   0  0  0  0  0  0  0  0  0  0  0  0
    0.5009    3.9312    1.2562 H   0  0  0  0  0  0  0  0  0  0  0  0
  5  6  2  0  0  0  0
  5  7  1  0  0  0  0
  2  3  1  0  0  0  0
  2  4  1  0  0  0  0
  2  5  1  0  0  0  0
  1  2  1  0  0  0  0
 21 22  2  0  0  0  0
 21 23  1  0  0  0  0
 19 20  1  0  0  0  0
 17 18  2  0  0  0  0
 17 19  1  0  0  0  0
 14 15  1  0  0  0  0
 14 16  1  0  0  0  0
 14 17  1  0  0  0  0
 11 12  1  0  0  0  0
 11 13  1  0  0  0  0
 11 14  1  0  0  0  0
  9 10  1  0  0  0  0
  9 11  1  0  0  0  0
  9 21  1  0  0  0  0
  7  8  1  0  0  0  0
  7  9  1  0  0  0  0
 25 26  1  0  0  0  0
 25 27  1  0  0  0  0
 25 28  1  0  0  0  0
 23 24  1  0  0  0  0
 23 25  1  0  0  0  0
M  END
$$$$
default_name
  -OEChem-02102213163D

 28 27  0     1  0  0  0  0  0999 V2000
   -3.2133   -3.5565    1.2809 H   0  0  0  0  0  0  0  0  0  0  0  0
   -3.1873   -2.5755    0.8089 C   0  0  0  0  0  0  0  0  0  0  0  0
   -3.8793   -1.9065    1.3169 H   0  0  0  0  0  0  0  0  0  0  0  0
   -3.4623   -2.6685   -0.2401 H   0  0  0  0  0  0  0  0  0  0  0  0
   -1.7863   -2.0195    0.9119 C   0  0  0  0  0  0  0  0  0  0  0  0
   -0.9073   -2.6615    1.4699 O   0  0  0  0  0  0  0  0  0  0  0  0
   -1.5803   -0.8195    0.3749 N   0  0  0  0  0  0  0  0  0  0  0  0
   -2.3603   -0.3345   -0.0451 H   0  0  0  0  0  0  0  0  0  0  0  0
   -0.2933   -0.1205    0.3719 C   0  0  1  0  0  0  0  0  0  0  0  0
    0.3577   -0.5843    1.1143 H   0  0  0  0  0  0  0  0  0  0  0  0
    0.3613   -0.2794   -1.0156 C   0  0  0  0  0  0  0  0  0  0  0  0
    1.1586   -1.0198   -0.9315 H   0  0  0  0  0  0  0  0  0  0  0  0
   -0.3795   -0.6572   -1.7218 H   0  0  0  0  0  0  0  0  0  0  0  0
    0.9530    1.0243   -1.5788 C   0  0  0  0  0  0  0  0  0  0  0  0
    1.8888    1.2572   -1.0706 H   0  0  0  0  0  0  0  0  0  0  0  0
    1.1470    0.8986   -2.6433 H   0  0  0  0  0  0  0  0  0  0  0  0
    0.0088    2.2097   -1.4062 C   0  0  0  0  0  0  0  0  0  0  0  0
   -1.1388    2.1372   -0.9968 O   0  0  0  0  0  0  0  0  0  0  0  0
    0.5134    3.4082   -1.7535 O   0  0  0  0  0  0  0  0  0  0  0  0
   -0.1969    4.0337   -1.6006 H   0  0  0  0  0  0  0  0  0  0  0  0
   -0.4860    1.3537    0.7622 C   0  0  0  0  0  0  0  0  0  0  0  0
   -1.3956    2.0096    0.2582 O   0  0  0  0  0  0  0  0  0  0  0  0
    0.3741    1.8728    1.6466 N   0  0  0  0  0  0  0  0  0  0  0  0
    1.0814    1.2667    2.0345 H   0  0  0  0  0  0  0  0  0  0  0  0
    0.3380    3.2610    2.1024 C   0  0  0  0  0  0  0  0  0  0  0  0
   -0.6389    3.4820    2.5363 H   0  0  0  0  0  0  0  0  0  0  0  0
    1.1108    3.4337    2.8528 H   0  0  0  0  0  0  0  0  0  0  0  0
    0.5009    3.9312    1.2562 H   0  0  0  0  0  0  0  0  0  0  0  0
  5  6  2  0  0  0  0
  5  7  1  0  0  0  0
  2  3  1  0  0  0  0
  2  4  1  0  0  0  0
  2  5  1  0  0  0  0
  1  2  1  0  0  0  0
 21 22  2  0  0  0  0
 21 23  1  0  0  0  0
 19 20  1  0  0  0  0
 17 18  2  0  0  0  0
 17 19  1  0  0  0  0
 14 15  1  0  0  0  0
 14 16  1  0  0  0  0
 14 17  1  0  0  0  0
 11 12  1  0  0  0  0
 11 13  1  0  0  0  0
 11 14  1  0  0  0  0
  9 10  1  0  0  0  0
  9 11  1  0  0  0  0
  9 21  1  0  0  0  0
  7  8  1  0  0  0  0
  7  9  1  0  0  0  0
 25 26  1  0  0  0  0
 25 27  1  0  0  0  0
 25 28  1  0  0  0  0
 23 24  1  0  0  0  0
 23 25  1  0  0  0  0
M  END
$$$$
default_name
  -OEChem-02102213163D

 28 27  0     1  0  0  0  0  0999 V2000
   -3.2133   -3.5565    1.2809 H   0  0  0  0  0  0  0  0  0  0  0  0
   -3.1873   -2.5755    0.8089 C   0  0  0  0  0  0  0  0  0  0  0  0
   -3.8793   -1.9065    1.3169 H   0  0  0  0  0  0  0  0  0  0  0  0
   -3.4623   -2.6685   -0.2401 H   0  0  0  0  0  0  0  0  0  0  0  0
   -1.7863   -2.0195    0.9119 C   0  0  0  0  0  0  0  0  0  0  0  0
   -0.9073   -2.6615    1.4699 O   0  0  0  0  0  0  0  0  0  0  0  0
   -1.5803   -0.8195    0.3749 N   0  0  0  0  0  0  0  0  0  0  0  0
   -2.3603   -0.3345   -0.0451 H   0  0  0  0  0  0  0  0  0  0  0  0
   -0.2933   -0.1205    0.3719 C   0  0  1  0  0  0  0  0  0  0  0  0
    0.3577   -0.5843    1.1143 H   0  0  0  0  0  0  0  0  0  0  0  0
    0.3613   -0.2794   -1.0156 C   0  0  0  0  0  0  0  0  0  0  0  0
    1.1586   -1.0198   -0.9315 H   0  0  0  0  0  0  0  0  0  0  0  0
   -0.3795   -0.6572   -1.7218 H   0  0  0  0  0  0  0  0  0  0  0  0
    0.9530    1.0243   -1.5788 C   0  0  0  0  0  0  0  0  0  0  0  0
    1.9953    1.1207   -1.2746 H   0  0  0  0  0  0  0  0  0  0  0  0
    0.8997    1.0008   -2.6666 H   0  0  0  0  0  0  0  0  0  0  0  0
    0.1988    2.2583   -1.0942 C   0  0  0  0  0  0  0  0  0  0  0  0
   -0.8354    2.2374   -0.4462 O   0  0  0  0  0  0  0  0  0  0  0  0
    0.7411    3.4413   -1.4377 O   0  0  0  0  0  0  0  0  0  0  0  0
    0.1503    4.1034   -1.0745 H   0  0  0  0  0  0  0  0  0  0  0  0
   -0.4860    1.3537    0.7622 C   0  0  0  0  0  0  0  0  0  0  0  0
   -1.3956    2.0096    0.2582 O   0  0  0  0  0  0  0  0  0  0  0  0
    0.3741    1.8728    1.6466 N   0  0  0  0  0  0  0  0  0  0  0  0
    1.0814    1.2667    2.0345 H   0  0  0  0  0  0  0  0  0  0  0  0
    0.3380    3.2610    2.1024 C   0  0  0  0  0  0  0  0  0  0  0  0
   -0.6389    3.4820    2.5363 H   0  0  0  0  0  0  0  0  0  0  0  0
    1.1108    3.4337    2.8528 H   0  0  0  0  0  0  0  0  0  0  0  0
    0.5009    3.9312    1.2562 H   0  0  0  0  0  0  0  0  0  0  0  0
  5  6  2  0  0  0  0
  5  7  1  0  0  0  0
  2  3  1  0  0  0  0
  2  4  1  0  0  0  0
  2  5  1  0  0  0  0
  1  2  1  0  0  0  0
 21 22  2  0  0  0  0
 21 23  1  0  0  0  0
 19 20  1  0  0  0  0
 17 18  2  0  0  0  0
 17 19  1  0  0  0  0
 14 15  1  0  0  0  0
 14 16  1  0  0  0  0
 14 17  1  0  0  0  0
 11 12  1  0  0  0  0
 11 13  1  0  0  0  0
 11 14  1  0  0  0  0
  9 10  1  0  0  0  0
  9 11  1  0  0  0  0
  9 21  1  0  0  0  0
  7  8  1  0  0  0  0
  7  9  1  0  0  0  0
 25 26  1  0  0  0  0
 25 27  1  0  0  0  0
 25 28  1  0  0  0  0
 23 24  1  0  0  0  0
 23 25  1  0  0  0  0
M  END
$$$$
default_name
  -OEChem-02102213163D

 28 27  0     1  0  0  0  0  0999 V2000
   -3.2133   -3.5565    1.2809 H   0  0  0  0  0  0  0  0  0  0  0  0
   -3.1873   -2.5755    0.8089 C   0  0  0  0  0  0  0  0  0  0  0  0
   -3.8793   -1.9065    1.3169 H   0  0  0  0  0  0  0  0  0  0  0  0
   -3.4623   -2.6685   -0.2401 H   0  0  0  0  0  0  0  0  0  0  0  0
   -1.7863   -2.0195    0.9119 C   0  0  0  0  0  0  0  0  0  0  0  0
   -0.9073   -2.6615    1.4699 O   0  0  0  0  0  0  0  0  0  0  0  0
   -1.5803   -0.8195    0.3749 N   0  0  0  0  0  0  0  0  0  0  0  0
   -2.3603   -0.3345   -0.0451 H   0  0  0  0  0  0  0  0  0  0  0  0
   -0.2933   -0.1205    0.3719 C   0  0  1  0  0  0  0  0  0  0  0  0
    0.3577   -0.5843    1.1143 H   0  0  0  0  0  0  0  0  0  0  0  0
    0.3613   -0.2794   -1.0156 C   0  0  0  0  0  0  0  0  0  0  0  0
    1.1586   -1.0198   -0.9315 H   0  0  0  0  0  0  0  0  0  0  0  0
   -0.3795   -0.6572   -1.7218 H   0  0  0  0  0  0  0  0  0  0  0  0
    0.9530    1.0243   -1.5788 C   0  0  0  0  0  0  0  0  0  0  0  0
    2.0405    0.9991   -1.5086 H   0  0  0  0  0  0  0  0  0  0  0  0
    0.6654    1.1253   -2.6246 H   0  0  0  0  0  0  0  0  0  0  0  0
    0.4552    2.2562   -0.8297 C   0  0  0  0  0  0  0  0  0  0  0  0
   -0.4121    2.2506    0.0291 O   0  0  0  0  0  0  0  0  0  0  0  0
    1.0333    3.4203   -1.1793 O   0  0  0  0  0  0  0  0  0  0  0  0
    0.6078    4.0854   -0.6355 H   0  0  0  0  0  0  0  0  0  0  0  0
   -0.4860    1.3537    0.7622 C   0  0  0  0  0  0  0  0  0  0  0  0
   -1.3956    2.0096    0.2582 O   0  0  0  0  0  0  0  0  0  0  0  0
    0.3741    1.8728    1.6466 N   0  0  0  0  0  0  0  0  0  0  0  0
    1.0814    1.2667    2.0345 H   0  0  0  0  0  0  0  0  0  0  0  0
    0.3380    3.2610    2.1024 C   0  0  0  0  0  0  0  0  0  0  0  0
   -0.6389    3.4820    2.5363 H   0  0  0  0  0  0  0  0  0  0  0  0
    1.1108    3.4337    2.8528 H   0  0  0  0  0  0  0  0  0  0  0  0
    0.5009    3.9312    1.2562 H   0  0  0  0  0  0  0  0  0  0  0  0
  5  6  2  0  0  0  0
  5  7  1  0  0  0  0
  2  3  1  0  0  0  0
  2  4  1  0  0  0  0
  2  5  1  0  0  0  0
  1  2  1  0  0  0  0
 21 22  2  0  0  0  0
 21 23  1  0  0  0  0
 19 20  1  0  0  0  0
 17 18  2  0  0  0  0
 17 19  1  0  0  0  0
 14 15  1  0  0  0  0
 14 16  1  0  0  0  0
 14 17  1  0  0  0  0
 11 12  1  0  0  0  0
 11 13  1  0  0  0  0
 11 14  1  0  0  0  0
  9 10  1  0  0  0  0
  9 11  1  0  0  0  0
  9 21  1  0  0  0  0
  7  8  1  0  0  0  0
  7  9  1  0  0  0  0
 25 26  1  0  0  0  0
 25 27  1  0  0  0  0
 25 28  1  0  0  0  0
 23 24  1  0  0  0  0
 23 25  1  0  0  0  0
M  END
$$$$
default_name
  -OEChem-02102213163D

 28 27  0     1  0  0  0  0  0999 V2000
   -3.2133   -3.5565    1.2809 H   0  0  0  0  0  0  0  0  0  0  0  0
   -3.1873   -2.5755    0.8089 C   0  0  0  0  0  0  0  0  0  0  0  0
   -3.8793   -1.9065    1.3169 H   0  0  0  0  0  0  0  0  0  0  0  0
   -3.4623   -2.6685   -0.2401 H   0  0  0  0  0  0  0  0  0  0  0  0
   -1.7863   -2.0195    0.9119 C   0  0  0  0  0  0  0  0  0  0  0  0
   -0.9073   -2.6615    1.4699 O   0  0  0  0  0  0  0  0  0  0  0  0
   -1.5803   -0.8195    0.3749 N   0  0  0  0  0  0  0  0  0  0  0  0
   -2.3603   -0.3345   -0.0451 H   0  0  0  0  0  0  0  0  0  0  0  0
   -0.2933   -0.1205    0.3719 C   0  0  1  0  0  0  0  0  0  0  0  0
    0.3577   -0.5843    1.1143 H   0  0  0  0  0  0  0  0  0  0  0  0
    0.3613   -0.2794   -1.0156 C   0  0  0  0  0  0  0  0  0  0  0  0
    1.1586   -1.0198   -0.9315 H   0  0  0  0  0  0  0  0  0  0  0  0
   -0.3795   -0.6572   -1.7218 H   0  0  0  0  0  0  0  0  0  0  0  0
    0.9530    1.0243   -1.5788 C   0  0  0  0  0  0  0  0  0  0  0  0
    2.0213    0.9007   -1.7567 H   0  0  0  0  0  0  0  0  0  0  0  0
    0.4601    1.2635   -2.5203 H   0  0  0  0  0  0  0  0  0  0  0  0
    0.7608    2.2035   -0.6306 C   0  0  0  0  0  0  0  0  0  0  0  0
    0.1023    2.1760    0.3968 O   0  0  0  0  0  0  0  0  0  0  0  0
    1.3703    3.3466   -0.9959 O   0  0  0  0  0  0  0  0  0  0  0  0
    1.1442    3.9810   -0.3136 H   0  0  0  0  0  0  0  0  0  0  0  0
   -0.4860    1.3537    0.7622 C   0  0  0  0  0  0  0  0  0  0  0  0
   -1.3956    2.0096    0.2582 O   0  0  0  0  0  0  0  0  0  0  0  0
    0.3741    1.8728    1.6466 N   0  0  0  0  0  0  0  0  0  0  0  0
    1.0814    1.2667    2.0345 H   0  0  0  0  0  0  0  0  0  0  0  0
    0.3380    3.2610    2.1024 C   0  0  0  0  0  0  0  0  0  0  0  0
   -0.6389    3.4820    2.5363 H   0  0  0  0  0  0  0  0  0  0  0  0
    1.1108    3.4337    2.8528 H   0  0  0  0  0  0  0  0  0  0  0  0
    0.5009    3.9312    1.2562 H   0  0  0  0  0  0  0  0  0  0  0  0
  5  6  2  0  0  0  0
  5  7  1  0  0  0  0
  2  3  1  0  0  0  0
  2  4  1  0  0  0  0
  2  5  1  0  0  0  0
  1  2  1  0  0  0  0
 21 22  2  0  0  0  0
 21 23  1  0  0  0  0
 19 20  1  0  0  0  0
 17 18  2  0  0  0  0
 17 19  1  0  0  0  0
 14 15  1  0  0  0  0
 14 16  1  0  0  0  0
 14 17  1  0  0  0  0
 11 12  1  0  0  0  0
 11 13  1  0  0  0  0
 11 14  1  0  0  0  0
  9 10  1  0  0  0  0
  9 11  1  0  0  0  0
  9 21  1  0  0  0  0
  7  8  1  0  0  0  0
  7  9  1  0  0  0  0
 25 26  1  0  0  0  0
 25 27  1  0  0  0  0
 25 28  1  0  0  0  0
 23 24  1  0  0  0  0
 23 25  1  0  0  0  0
M  END
$$$$
default_name
  -OEChem-02102213163D

 28 27  0     1  0  0  0  0  0999 V2000
   -3.2133   -3.5565    1.2809 H   0  0  0  0  0  0  0  0  0  0  0  0
   -3.1873   -2.5755    0.8089 C   0  0  0  0  0  0  0  0  0  0  0  0
   -3.8793   -1.9065    1.3169 H   0  0  0  0  0  0  0  0  0  0  0  0
   -3.4623   -2.6685   -0.2401 H   0  0  0  0  0  0  0  0  0  0  0  0
   -1.7863   -2.0195    0.9119 C   0  0  0  0  0  0  0  0  0  0  0  0
   -0.9073   -2.6615    1.4699 O   0  0  0  0  0  0  0  0  0  0  0  0
   -1.5803   -0.8195    0.3749 N   0  0  0  0  0  0  0  0  0  0  0  0
   -2.3603   -0.3345   -0.0451 H   0  0  0  0  0  0  0  0  0  0  0  0
   -0.2933   -0.1205    0.3719 C   0  0  1  0  0  0  0  0  0  0  0  0
    0.3577   -0.5843    1.1143 H   0  0  0  0  0  0  0  0  0  0  0  0
    0.3613   -0.2794   -1.0156 C   0  0  0  0  0  0  0  0  0  0  0  0
    1.1586   -1.0198   -0.9315 H   0  0  0  0  0  0  0  0  0  0  0  0
   -0.3795   -0.6572   -1.7218 H   0  0  0  0  0  0  0  0  0  0  0  0
    0.9530    1.0243   -1.5788 C   0  0  0  0  0  0  0  0  0  0  0  0
    1.9391    0.8321   -2.0019 H   0  0  0  0  0  0  0  0  0  0  0  0
    0.2978    1.4061   -2.3608 H   0  0  0  0  0  0  0  0  0  0  0  0
    1.0946    2.1038   -0.5106 C   0  0  0  0  0  0  0  0  0  0  0  0
    0.6727    2.0185    0.6316 O   0  0  0  0  0  0  0  0  0  0  0  0
    1.7291    3.2252   -0.9000 O   0  0  0  0  0  0  0  0  0  0  0  0
    1.7230    3.7973   -0.1307 H   0  0  0  0  0  0  0  0  0  0  0  0
   -0.4860    1.3537    0.7622 C   0  0  0  0  0  0  0  0  0  0  0  0
   -1.3956    2.0096    0.2582 O   0  0  0  0  0  0  0  0  0  0  0  0
    0.3741    1.8728    1.6466 N   0  0  0  0  0  0  0  0  0  0  0  0
    1.0814    1.2667    2.0345 H   0  0  0  0  0  0  0  0  0  0  0  0
    0.3380    3.2610    2.1024 C   0  0  0  0  0  0  0  0  0  0  0  0
   -0.6389    3.4820    2.5363 H   0  0  0  0  0  0  0  0  0  0  0  0
    1.1108    3.4337    2.8528 H   0  0  0  0  0  0  0  0  0  0  0  0
    0.5009    3.9312    1.2562 H   0  0  0  0  0  0  0  0  0  0  0  0
  5  6  2  0  0  0  0
  5  7  1  0  0  0  0
  2  3  1  0  0  0  0
  2  4  1  0  0  0  0
  2  5  1  0  0  0  0
  1  2  1  0  0  0  0
 21 22  2  0  0  0  0
 21 23  1  0  0  0  0
 19 20  1  0  0  0  0
 17 18  2  0  0  0  0
 17 19  1  0  0  0  0
 14 15  1  0  0  0  0
 14 16  1  0  0  0  0
 14 17  1  0  0  0  0
 11 12  1  0  0  0  0
 11 13  1  0  0  0  0
 11 14  1  0  0  0  0
  9 10  1  0  0  0  0
  9 11  1  0  0  0  0
  9 21  1  0  0  0  0
  7  8  1  0  0  0  0
  7  9  1  0  0  0  0
 25 26  1  0  0  0  0
 25 27  1  0  0  0  0
 25 28  1  0  0  0  0
 23 24  1  0  0  0  0
 23 25  1  0  0  0  0
M  END
$$$$
default_name
  -OEChem-02102213163D

 28 27  0     1  0  0  0  0  0999 V2000
   -3.2133   -3.5565    1.2809 H   0  0  0  0  0  0  0  0  0  0  0  0
   -3.1873   -2.5755    0.8089 C   0  0  0  0  0  0  0  0  0  0  0  0
   -3.8793   -1.9065    1.3169 H   0  0  0  0  0  0  0  0  0  0  0  0
   -3.4623   -2.6685   -0.2401 H   0  0  0  0  0  0  0  0  0  0  0  0
   -1.7863   -2.0195    0.9119 C   0  0  0  0  0  0  0  0  0  0  0  0
   -0.9073   -2.6615    1.4699 O   0  0  0  0  0  0  0  0  0  0  0  0
   -1.5803   -0.8195    0.3749 N   0  0  0  0  0  0  0  0  0  0  0  0
   -2.3603   -0.3345   -0.0451 H   0  0  0  0  0  0  0  0  0  0  0  0
   -0.2933   -0.1205    0.3719 C   0  0  1  0  0  0  0  0  0  0  0  0
    0.3577   -0.5843    1.1143 H   0  0  0  0  0  0  0  0  0  0  0  0
    0.3613   -0.2794   -1.0156 C   0  0  0  0  0  0  0  0  0  0  0  0
    1.1586   -1.0198   -0.9315 H   0  0  0  0  0  0  0  0  0  0  0  0
   -0.3795   -0.6572   -1.7218 H   0  0  0  0  0  0  0  0  0  0  0  0
    0.9530    1.0243   -1.5788 C   0  0  0  0  0  0  0  0  0  0  0  0
    1.7993    0.7980   -2.2275 H   0  0  0  0  0  0  0  0  0  0  0  0
    0.1894    1.5434   -2.1569 H   0  0  0  0  0  0  0  0  0  0  0  0
    1.4339    1.9640   -0.4778 C   0  0  0  0  0  0  0  0  0  0  0  0
    1.2603    1.7890    0.7177 O   0  0  0  0  0  0  0  0  0  0  0  0
    2.0851    3.0644   -0.8982 O   0  0  0  0  0  0  0  0  0  0  0  0
    2.3048    3.5468   -0.0993 H   0  0  0  0  0  0  0  0  0  0  0  0
   -0.4860    1.3537    0.7622 C   0  0  0  0  0  0  0  0  0  0  0  0
   -1.3956    2.0096    0.2582 O   0  0  0  0  0  0  0  0  0  0  0  0
    0.3741    1.8728    1.6466 N   0  0  0  0  0  0  0  0  0  0  0  0
    1.0814    1.2667    2.0345 H   0  0  0  0  0  0  0  0  0  0  0  0
    0.3380    3.2610    2.1024 C   0  0  0  0  0  0  0  0  0  0  0  0
   -0.6389    3.4820    2.5363 H   0  0  0  0  0  0  0  0  0  0  0  0
    1.1108    3.4337    2.8528 H   0  0  0  0  0  0  0  0  0  0  0  0
    0.5009    3.9312    1.2562 H   0  0  0  0  0  0  0  0  0  0  0  0
  5  6  2  0  0  0  0
  5  7  1  0  0  0  0
  2  3  1  0  0  0  0
  2  4  1  0  0  0  0
  2  5  1  0  0  0  0
  1  2  1  0  0  0  0
 21 22  2  0  0  0  0
 21 23  1  0  0  0  0
 19 20  1  0  0  0  0
 17 18  2  0  0  0  0
 17 19  1  0  0  0  0
 14 15  1  0  0  0  0
 14 16  1  0  0  0  0
 14 17  1  0  0  0  0
 11 12  1  0  0  0  0
 11 13  1  0  0  0  0
 11 14  1  0  0  0  0
  9 10  1  0  0  0  0
  9 11  1  0  0  0  0
  9 21  1  0  0  0  0
  7  8  1  0  0  0  0
  7  9  1  0  0  0  0
 25 26  1  0  0  0  0
 25 27  1  0  0  0  0
 25 28  1  0  0  0  0
 23 24  1  0  0  0  0
 23 25  1  0  0  0  0
M  END
$$$$
default_name
  -OEChem-02102213163D

 28 27  0     1  0  0  0  0  0999 V2000
   -3.2133   -3.5565    1.2809 H   0  0  0  0  0  0  0  0  0  0  0  0
   -3.1873   -2.5755    0.8089 C   0  0  0  0  0  0  0  0  0  0  0  0
   -3.8793   -1.9065    1.3169 H   0  0  0  0  0  0  0  0  0  0  0  0
   -3.4623   -2.6685   -0.2401 H   0  0  0  0  0  0  0  0  0  0  0  0
   -1.7863   -2.0195    0.9119 C   0  0  0  0  0  0  0  0  0  0  0  0
   -0.9073   -2.6615    1.4699 O   0  0  0  0  0  0  0  0  0  0  0  0
   -1.5803   -0.8195    0.3749 N   0  0  0  0  0  0  0  0  0  0  0  0
   -2.3603   -0.3345   -0.0451 H   0  0  0  0  0  0  0  0  0  0  0  0
   -0.2933   -0.1205    0.3719 C   0  0  1  0  0  0  0  0  0  0  0  0
    0.3577   -0.5843    1.1143 H   0  0  0  0  0  0  0  0  0  0  0  0
    0.3613   -0.2794   -1.0156 C   0  0  0  0  0  0  0  0  0  0  0  0
    1.1586   -1.0198   -0.9315 H   0  0  0  0  0  0  0  0  0  0  0  0
   -0.3795   -0.6572   -1.7218 H   0  0  0  0  0  0  0  0  0  0  0  0
    0.9530    1.0243   -1.5788 C   0  0  0  0  0  0  0  0  0  0  0  0
    1.6117    0.8009   -2.4181 H   0  0  0  0  0  0  0  0  0  0  0  0
    0.1425    1.6659   -1.9225 H   0  0  0  0  0  0  0  0  0  0  0  0
    1.7556    1.7935   -0.5344 C   0  0  0  0  0  0  0  0  0  0  0  0
    1.8249    1.5031    0.6491 O   0  0  0  0  0  0  0  0  0  0  0  0
    2.4142    2.8751   -0.9904 O   0  0  0  0  0  0  0  0  0  0  0  0
    2.8500    3.2466   -0.2214 H   0  0  0  0  0  0  0  0  0  0  0  0
   -0.4860    1.3537    0.7622 C   0  0  0  0  0  0  0  0  0  0  0  0
   -1.3956    2.0096    0.2582 O   0  0  0  0  0  0  0  0  0  0  0  0
    0.3741    1.8728    1.6466 N   0  0  0  0  0  0  0  0  0  0  0  0
    1.0814    1.2667    2.0345 H   0  0  0  0  0  0  0  0  0  0  0  0
    0.3380    3.2610    2.1024 C   0  0  0  0  0  0  0  0  0  0  0  0
   -0.6389    3.4820    2.5363 H   0  0  0  0  0  0  0  0  0  0  0  0
    1.1108    3.4337    2.8528 H   0  0  0  0  0  0  0  0  0  0  0  0
    0.5009    3.9312    1.2562 H   0  0  0  0  0  0  0  0  0  0  0  0
  5  6  2  0  0  0  0
  5  7  1  0  0  0  0
  2  3  1  0  0  0  0
  2  4  1  0  0  0  0
  2  5  1  0  0  0  0
  1  2  1  0  0  0  0
 21 22  2  0  0  0  0
 21 23  1  0  0  0  0
 19 20  1  0  0  0  0
 17 18  2  0  0  0  0
 17 19  1  0  0  0  0
 14 15  1  0  0  0  0
 14 16  1  0  0  0  0
 14 17  1  0  0  0  0
 11 12  1  0  0  0  0
 11 13  1  0  0  0  0
 11 14  1  0  0  0  0
  9 10  1  0  0  0  0
  9 11  1  0  0  0  0
  9 21  1  0  0  0  0
  7  8  1  0  0  0  0
  7  9  1  0  0  0  0
 25 26  1  0  0  0  0
 25 27  1  0  0  0  0
 25 28  1  0  0  0  0
 23 24  1  0  0  0  0
 23 25  1  0  0  0  0
M  END
$$$$
default_name
  -OEChem-02102213163D

 28 27  0     1  0  0  0  0  0999 V2000
   -3.2133   -3.5565    1.2809 H   0  0  0  0  0  0  0  0  0  0  0  0
   -3.1873   -2.5755    0.8089 C   0  0  0  0  0  0  0  0  0  0  0  0
   -3.8793   -1.9065    1.3169 H   0  0  0  0  0  0  0  0  0  0  0  0
   -3.4623   -2.6685   -0.2401 H   0  0  0  0  0  0  0  0  0  0  0  0
   -1.7863   -2.0195    0.9119 C   0  0  0  0  0  0  0  0  0  0  0  0
   -0.9073   -2.6615    1.4699 O   0  0  0  0  0  0  0  0  0  0  0  0
   -1.5803   -0.8195    0.3749 N   0  0  0  0  0  0  0  0  0  0  0  0
   -2.3603   -0.3345   -0.0451 H   0  0  0  0  0  0  0  0  0  0  0  0
   -0.2933   -0.1205    0.3719 C   0  0  1  0  0  0  0  0  0  0  0  0
    0.3577   -0.5843    1.1143 H   0  0  0  0  0  0  0  0  0  0  0  0
    0.3613   -0.2794   -1.0156 C   0  0  0  0  0  0  0  0  0  0  0  0
    1.1586   -1.0198   -0.9315 H   0  0  0  0  0  0  0  0  0  0  0  0
   -0.3795   -0.6572   -1.7218 H   0  0  0  0  0  0  0  0  0  0  0  0
    0.9530    1.0243   -1.5788 C   0  0  0  0  0  0  0  0  0  0  0  0
    1.3888    0.8403   -2.5609 H   0  0  0  0  0  0  0  0  0  0  0  0
    0.1603    1.7654   -1.6736 H   0  0  0  0  0  0  0  0  0  0  0  0
    2.0378    1.6040   -0.6767 C   0  0  0  0  0  0  0  0  0  0  0  0
    2.3282    1.1803    0.4305 O   0  0  0  0  0  0  0  0  0  0  0  0
    2.6939    2.6704   -1.1706 O   0  0  0  0  0  0  0  0  0  0  0  0
    3.3213    2.9171   -0.4889 H   0  0  0  0  0  0  0  0  0  0  0  0
   -0.4860    1.3537    0.7622 C   0  0  0  0  0  0  0  0  0  0  0  0
   -1.3956    2.0096    0.2582 O   0  0  0  0  0  0  0  0  0  0  0  0
    0.3741    1.8728    1.6466 N   0  0  0  0  0  0  0  0  0  0  0  0
    1.0814    1.2667    2.0345 H   0  0  0  0  0  0  0  0  0  0  0  0
    0.3380    3.2610    2.1024 C   0  0  0  0  0  0  0  0  0  0  0  0
   -0.6389    3.4820    2.5363 H   0  0  0  0  0  0  0  0  0  0  0  0
    1.1108    3.4337    2.8528 H   0  0  0  0  0  0  0  0  0  0  0  0
    0.5009    3.9312    1.2562 H   0  0  0  0  0  0  0  0  0  0  0  0
  5  6  2  0  0  0  0
  5  7  1  0  0  0  0
  2  3  1  0  0  0  0
  2  4  1  0  0  0  0
  2  5  1  0  0  0  0
  1  2  1  0  0  0  0
 21 22  2  0  0  0  0
 21 23  1  0  0  0  0
 19 20  1  0  0  0  0
 17 18  2  0  0  0  0
 17 19  1  0  0  0  0
 14 15  1  0  0  0  0
 14 16  1  0  0  0  0
 14 17  1  0  0  0  0
 11 12  1  0  0  0  0
 11 13  1  0  0  0  0
 11 14  1  0  0  0  0
  9 10  1  0  0  0  0
  9 11  1  0  0  0  0
  9 21  1  0  0  0  0
  7  8  1  0  0  0  0
  7  9  1  0  0  0  0
 25 26  1  0  0  0  0
 25 27  1  0  0  0  0
 25 28  1  0  0  0  0
 23 24  1  0  0  0  0
 23 25  1  0  0  0  0
M  END
$$$$
default_name
  -OEChem-02102213163D

 28 27  0     1  0  0  0  0  0999 V2000
   -3.2133   -3.5565    1.2809 H   0  0  0  0  0  0  0  0  0  0  0  0
   -3.1873   -2.5755    0.8089 C   0  0  0  0  0  0  0  0  0  0  0  0
   -3.8793   -1.9065    1.3169 H   0  0  0  0  0  0  0  0  0  0  0  0
   -3.4623   -2.6685   -0.2401 H   0  0  0  0  0  0  0  0  0  0  0  0
   -1.7863   -2.0195    0.9119 C   0  0  0  0  0  0  0  0  0  0  0  0
   -0.9073   -2.6615    1.4699 O   0  0  0  0  0  0  0  0  0  0  0  0
   -1.5803   -0.8195    0.3749 N   0  0  0  0  0  0  0  0  0  0  0  0
   -2.3603   -0.3345   -0.0451 H   0  0  0  0  0  0  0  0  0  0  0  0
   -0.2933   -0.1205    0.3719 C   0  0  1  0  0  0  0  0  0  0  0  0
    0.3577   -0.5843    1.1143 H   0  0  0  0  0  0  0  0  0  0  0  0
    0.3613   -0.2794   -1.0156 C   0  0  0  0  0  0  0  0  0  0  0  0
    1.1586   -1.0198   -0.9315 H   0  0  0  0  0  0  0  0  0  0  0  0
   -0.3795   -0.6572   -1.7218 H   0  0  0  0  0  0  0  0  0  0  0  0
    0.9530    1.0243   -1.5788 C   0  0  0  0  0  0  0  0  0  0  0  0
    1.1460    0.9138   -2.6459 H   0  0  0  0  0  0  0  0  0  0  0  0
    0.2414    1.8350   -1.4272 H   0  0  0  0  0  0  0  0  0  0  0  0
    2.2611    1.4083   -0.8948 C   0  0  0  0  0  0  0  0  0  0  0  0
    2.7358    0.8425    0.0769 O   0  0  0  0  0  0  0  0  0  0  0  0
    2.9052    2.4640   -1.4264 O   0  0  0  0  0  0  0  0  0  0  0  0
    3.6867    2.5808   -0.8834 H   0  0  0  0  0  0  0  0  0  0  0  0
   -0.4860    1.3537    0.7622 C   0  0  0  0  0  0  0  0  0  0  0  0
   -1.3956    2.0096    0.2582 O   0  0  0  0  0  0  0  0  0  0  0  0
    0.3741    1.8728    1.6466 N   0  0  0  0  0  0  0  0  0  0  0  0
    1.0814    1.2667    2.0345 H   0  0  0  0  0  0  0  0  0  0  0  0
    0.3380    3.2610    2.1024 C   0  0  0  0  0  0  0  0  0  0  0  0
   -0.6389    3.4820    2.5363 H   0  0  0  0  0  0  0  0  0  0  0  0
    1.1108    3.4337    2.8528 H   0  0  0  0  0  0  0  0  0  0  0  0
    0.5009    3.9312    1.2562 H   0  0  0  0  0  0  0  0  0  0  0  0
  5  6  2  0  0  0  0
  5  7  1  0  0  0  0
  2  3  1  0  0  0  0
  2  4  1  0  0  0  0
  2  5  1  0  0  0  0
  1  2  1  0  0  0  0
 21 22  2  0  0  0  0
 21 23  1  0  0  0  0
 19 20  1  0  0  0  0
 17 18  2  0  0  0  0
 17 19  1  0  0  0  0
 14 15  1  0  0  0  0
 14 16  1  0  0  0  0
 14 17  1  0  0  0  0
 11 12  1  0  0  0  0
 11 13  1  0  0  0  0
 11 14  1  0  0  0  0
  9 10  1  0  0  0  0
  9 11  1  0  0  0  0
  9 21  1  0  0  0  0
  7  8  1  0  0  0  0
  7  9  1  0  0  0  0
 25 26  1  0  0  0  0
 25 27  1  0  0  0  0
 25 28  1  0  0  0  0
 23 24  1  0  0  0  0
 23 25  1  0  0  0  0
M  END
$$$$
default_name
  -OEChem-02102213163D

 28 27  0     1  0  0  0  0  0999 V2000
   -3.2133   -3.5565    1.2809 H   0  0  0  0  0  0  0  0  0  0  0  0
   -3.1873   -2.5755    0.8089 C   0  0  0  0  0  0  0  0  0  0  0  0
   -3.8793   -1.9065    1.3169 H   0  0  0  0  0  0  0  0  0  0  0  0
   -3.4623   -2.6685   -0.2401 H   0  0  0  0  0  0  0  0  0  0  0  0
   -1.7863   -2.0195    0.9119 C   0  0  0  0  0  0  0  0  0  0  0  0
   -0.9073   -2.6615    1.4699 O   0  0  0  0  0  0  0  0  0  0  0  0
   -1.5803   -0.8195    0.3749 N   0  0  0  0  0  0  0  0  0  0  0  0
   -2.3603   -0.3345   -0.0451 H   0  0  0  0  0  0  0  0  0  0  0  0
   -0.2933   -0.1205    0.3719 C   0  0  1  0  0  0  0  0  0  0  0  0
    0.3577   -0.5843    1.1143 H   0  0  0  0  0  0  0  0  0  0  0  0
    0.3613   -0.2794   -1.0156 C   0  0  0  0  0  0  0  0  0  0  0  0
    1.1586   -1.0198   -0.9315 H   0  0  0  0  0  0  0  0  0  0  0  0
   -0.3795   -0.6572   -1.7218 H   0  0  0  0  0  0  0  0  0  0  0  0
    0.9530    1.0243   -1.5788 C   0  0  0  0  0  0  0  0  0  0  0  0
    0.8998    1.0162   -2.6675 H   0  0  0  0  0  0  0  0  0  0  0  0
    0.3804    1.8701   -1.2001 H   0  0  0  0  0  0  0  0  0  0  0  0
    2.4105    1.2199   -1.1740 C   0  0  0  0  0  0  0  0  0  0  0  0
    3.0200    0.5128   -0.3877 O   0  0  0  0  0  0  0  0  0  0  0  0
    3.0336    2.2701   -1.7403 O   0  0  0  0  0  0  0  0  0  0  0  0
    3.9213    2.2606   -1.3781 H   0  0  0  0  0  0  0  0  0  0  0  0
   -0.4860    1.3537    0.7622 C   0  0  0  0  0  0  0  0  0  0  0  0
   -1.3956    2.0096    0.2582 O   0  0  0  0  0  0  0  0  0  0  0  0
    0.3741    1.8728    1.6466 N   0  0  0  0  0  0  0  0  0  0  0  0
    1.0814    1.2667    2.0345 H   0  0  0  0  0  0  0  0  0  0  0  0
    0.3380    3.2610    2.1024 C   0  0  0  0  0  0  0  0  0  0  0  0
   -0.6389    3.4820    2.5363 H   0  0  0  0  0  0  0  0  0  0  0  0
    1.1108    3.4337    2.8528 H   0  0  0  0  0  0  0  0  0  0  0  0
    0.5009    3.9312    1.2562 H   0  0  0  0  0  0  0  0  0  0  0  0
  5  6  2  0  0  0  0
  5  7  1  0  0  0  0
  2  3  1  0  0  0  0
  2  4  1  0  0  0  0
  2  5  1  0  0  0  0
  1  2  1  0  0  0  0
 21 22  2  0  0  0  0
 21 23  1  0  0  0  0
 19 20  1  0  0  0  0
 17 18  2  0  0  0  0
 17 19  1  0  0  0  0
 14 15  1  0  0  0  0
 14 16  1  0  0  0  0
 14 17  1  0  0  0  0
 11 12  1  0  0  0  0
 11 13  1  0  0  0  0
 11 14  1  0  0  0  0
  9 10  1  0  0  0  0
  9 11  1  0  0  0  0
  9 21  1  0  0  0  0
  7  8  1  0  0  0  0
  7  9  1  0  0  0  0
 25 26  1  0  0  0  0
 25 27  1  0  0  0  0
 25 28  1  0  0  0  0
 23 24  1  0  0  0  0
 23 25  1  0  0  0  0
M  END
$$$$
default_name
  -OEChem-02102213163D

 28 27  0     1  0  0  0  0  0999 V2000
   -3.2133   -3.5565    1.2809 H   0  0  0  0  0  0  0  0  0  0  0  0
   -3.1873   -2.5755    0.8089 C   0  0  0  0  0  0  0  0  0  0  0  0
   -3.8793   -1.9065    1.3169 H   0  0  0  0  0  0  0  0  0  0  0  0
   -3.4623   -2.6685   -0.2401 H   0  0  0  0  0  0  0  0  0  0  0  0
   -1.7863   -2.0195    0.9119 C   0  0  0  0  0  0  0  0  0  0  0  0
   -0.9073   -2.6615    1.4699 O   0  0  0  0  0  0  0  0  0  0  0  0
   -1.5803   -0.8195    0.3749 N   0  0  0  0  0  0  0  0  0  0  0  0
   -2.3603   -0.3345   -0.0451 H   0  0  0  0  0  0  0  0  0  0  0  0
   -0.2933   -0.1205    0.3719 C   0  0  1  0  0  0  0  0  0  0  0  0
    0.3577   -0.5843    1.1143 H   0  0  0  0  0  0  0  0  0  0  0  0
    0.3613   -0.2794   -1.0156 C   0  0  0  0  0  0  0  0  0  0  0  0
    1.1586   -1.0198   -0.9315 H   0  0  0  0  0  0  0  0  0  0  0  0
   -0.3795   -0.6572   -1.7218 H   0  0  0  0  0  0  0  0  0  0  0  0
    0.9530    1.0243   -1.5788 C   0  0  0  0  0  0  0  0  0  0  0  0
    0.6669    1.1406   -2.6242 H   0  0  0  0  0  0  0  0  0  0  0  0
    0.5678    1.8682   -1.0077 H   0  0  0  0  0  0  0  0  0  0  0  0
    2.4758    1.0516   -1.4952 C   0  0  0  0  0  0  0  0  0  0  0  0
    3.1614    0.2136   -0.9316 O   0  0  0  0  0  0  0  0  0  0  0  0
    3.0704    2.1019   -2.0909 O   0  0  0  0  0  0  0  0  0  0  0  0
    4.0090    1.9784   -1.9393 H   0  0  0  0  0  0  0  0  0  0  0  0
   -0.4860    1.3537    0.7622 C   0  0  0  0  0  0  0  0  0  0  0  0
   -1.3956    2.0096    0.2582 O   0  0  0  0  0  0  0  0  0  0  0  0
    0.3741    1.8728    1.6466 N   0  0  0  0  0  0  0  0  0  0  0  0
    1.0814    1.2667    2.0345 H   0  0  0  0  0  0  0  0  0  0  0  0
    0.3380    3.2610    2.1024 C   0  0  0  0  0  0  0  0  0  0  0  0
   -0.6389    3.4820    2.5363 H   0  0  0  0  0  0  0  0  0  0  0  0
    1.1108    3.4337    2.8528 H   0  0  0  0  0  0  0  0  0  0  0  0
    0.5009    3.9312    1.2562 H   0  0  0  0  0  0  0  0  0  0  0  0
  5  6  2  0  0  0  0
  5  7  1  0  0  0  0
  2  3  1  0  0  0  0
  2  4  1  0  0  0  0
  2  5  1  0  0  0  0
  1  2  1  0  0  0  0
 21 22  2  0  0  0  0
 21 23  1  0  0  0  0
 19 20  1  0  0  0  0
 17 18  2  0  0  0  0
 17 19  1  0  0  0  0
 14 15  1  0  0  0  0
 14 16  1  0  0  0  0
 14 17  1  0  0  0  0
 11 12  1  0  0  0  0
 11 13  1  0  0  0  0
 11 14  1  0  0  0  0
  9 10  1  0  0  0  0
  9 11  1  0  0  0  0
  9 21  1  0  0  0  0
  7  8  1  0  0  0  0
  7  9  1  0  0  0  0
 25 26  1  0  0  0  0
 25 27  1  0  0  0  0
 25 28  1  0  0  0  0
 23 24  1  0  0  0  0
 23 25  1  0  0  0  0
M  END
$$$$
default_name
  -OEChem-02102213163D

 28 27  0     1  0  0  0  0  0999 V2000
   -3.2133   -3.5565    1.2809 H   0  0  0  0  0  0  0  0  0  0  0  0
   -3.1873   -2.5755    0.8089 C   0  0  0  0  0  0  0  0  0  0  0  0
   -3.8793   -1.9065    1.3169 H   0  0  0  0  0  0  0  0  0  0  0  0
   -3.4623   -2.6685   -0.2401 H   0  0  0  0  0  0  0  0  0  0  0  0
   -1.7863   -2.0195    0.9119 C   0  0  0  0  0  0  0  0  0  0  0  0
   -0.9073   -2.6615    1.4699 O   0  0  0  0  0  0  0  0  0  0  0  0
   -1.5803   -0.8195    0.3749 N   0  0  0  0  0  0  0  0  0  0  0  0
   -2.3603   -0.3345   -0.0451 H   0  0  0  0  0  0  0  0  0  0  0  0
   -0.2933   -0.1205    0.3719 C   0  0  1  0  0  0  0  0  0  0  0  0
    0.3577   -0.5843    1.1143 H   0  0  0  0  0  0  0  0  0  0  0  0
    0.3613   -0.2794   -1.0156 C   0  0  0  0  0  0  0  0  0  0  0  0
    1.1586   -1.0198   -0.9315 H   0  0  0  0  0  0  0  0  0  0  0  0
   -0.3795   -0.6572   -1.7218 H   0  0  0  0  0  0  0  0  0  0  0  0
    0.9530    1.0243   -1.5788 C   0  0  0  0  0  0  0  0  0  0  0  0
    0.4633    1.2786   -2.5189 H   0  0  0  0  0  0  0  0  0  0  0  0
    0.7908    1.8294   -0.8631 H   0  0  0  0  0  0  0  0  0  0  0  0
    2.4524    0.9147   -1.8365 C   0  0  0  0  0  0  0  0  0  0  0  0
    3.1503   -0.0345   -1.5177 O   0  0  0  0  0  0  0  0  0  0  0  0
    3.0131    1.9708   -2.4545 O   0  0  0  0  0  0  0  0  0  0  0  0
    3.9440    1.7533   -2.5287 H   0  0  0  0  0  0  0  0  0  0  0  0
   -0.4860    1.3537    0.7622 C   0  0  0  0  0  0  0  0  0  0  0  0
   -1.3956    2.0096    0.2582 O   0  0  0  0  0  0  0  0  0  0  0  0
    0.3741    1.8728    1.6466 N   0  0  0  0  0  0  0  0  0  0  0  0
    1.0814    1.2667    2.0345 H   0  0  0  0  0  0  0  0  0  0  0  0
    0.3380    3.2610    2.1024 C   0  0  0  0  0  0  0  0  0  0  0  0
   -0.6389    3.4820    2.5363 H   0  0  0  0  0  0  0  0  0  0  0  0
    1.1108    3.4337    2.8528 H   0  0  0  0  0  0  0  0  0  0  0  0
    0.5009    3.9312    1.2562 H   0  0  0  0  0  0  0  0  0  0  0  0
  5  6  2  0  0  0  0
  5  7  1  0  0  0  0
  2  3  1  0  0  0  0
  2  4  1  0  0  0  0
  2  5  1  0  0  0  0
  1  2  1  0  0  0  0
 21 22  2  0  0  0  0
 21 23  1  0  0  0  0
 19 20  1  0  0  0  0
 17 18  2  0  0  0  0
 17 19  1  0  0  0  0
 14 15  1  0  0  0  0
 14 16  1  0  0  0  0
 14 17  1  0  0  0  0
 11 12  1  0  0  0  0
 11 13  1  0  0  0  0
 11 14  1  0  0  0  0
  9 10  1  0  0  0  0
  9 11  1  0  0  0  0
  9 21  1  0  0  0  0
  7  8  1  0  0  0  0
  7  9  1  0  0  0  0
 25 26  1  0  0  0  0
 25 27  1  0  0  0  0
 25 28  1  0  0  0  0
 23 24  1  0  0  0  0
 23 25  1  0  0  0  0
M  END
$$$$
default_name
  -OEChem-02102213163D

 28 27  0     1  0  0  0  0  0999 V2000
   -3.2133   -3.5565    1.2809 H   0  0  0  0  0  0  0  0  0  0  0  0
   -3.1873   -2.5755    0.8089 C   0  0  0  0  0  0  0  0  0  0  0  0
   -3.8793   -1.9065    1.3169 H   0  0  0  0  0  0  0  0  0  0  0  0
   -3.4623   -2.6685   -0.2401 H   0  0  0  0  0  0  0  0  0  0  0  0
   -1.7863   -2.0195    0.9119 C   0  0  0  0  0  0  0  0  0  0  0  0
   -0.9073   -2.6615    1.4699 O   0  0  0  0  0  0  0  0  0  0  0  0
   -1.5803   -0.8195    0.3749 N   0  0  0  0  0  0  0  0  0  0  0  0
   -2.3603   -0.3345   -0.0451 H   0  0  0  0  0  0  0  0  0  0  0  0
   -0.2933   -0.1205    0.3719 C   0  0  1  0  0  0  0  0  0  0  0  0
    0.3577   -0.5843    1.1143 H   0  0  0  0  0  0  0  0  0  0  0  0
    0.3613   -0.2794   -1.0156 C   0  0  0  0  0  0  0  0  0  0  0  0
    1.1586   -1.0198   -0.9315 H   0  0  0  0  0  0  0  0  0  0  0  0
   -0.3795   -0.6572   -1.7218 H   0  0  0  0  0  0  0  0  0  0  0  0
    0.9530    1.0243   -1.5788 C   0  0  0  0  0  0  0  0  0  0  0  0
    0.3028    1.4206   -2.3588 H   0  0  0  0  0  0  0  0  0  0  0  0
    1.0343    1.7564   -0.7762 H   0  0  0  0  0  0  0  0  0  0  0  0
    2.3419    0.8187   -2.1747 C   0  0  0  0  0  0  0  0  0  0  0  0
    2.9875   -0.2149   -2.1062 O   0  0  0  0  0  0  0  0  0  0  0  0
    2.8656    1.8858   -2.8061 O   0  0  0  0  0  0  0  0  0  0  0  0
    3.7305    1.6007   -3.1061 H   0  0  0  0  0  0  0  0  0  0  0  0
   -0.4860    1.3537    0.7622 C   0  0  0  0  0  0  0  0  0  0  0  0
   -1.3956    2.0096    0.2582 O   0  0  0  0  0  0  0  0  0  0  0  0
    0.3741    1.8728    1.6466 N   0  0  0  0  0  0  0  0  0  0  0  0
    1.0814    1.2667    2.0345 H   0  0  0  0  0  0  0  0  0  0  0  0
    0.3380    3.2610    2.1024 C   0  0  0  0  0  0  0  0  0  0  0  0
   -0.6389    3.4820    2.5363 H   0  0  0  0  0  0  0  0  0  0  0  0
    1.1108    3.4337    2.8528 H   0  0  0  0  0  0  0  0  0  0  0  0
    0.5009    3.9312    1.2562 H   0  0  0  0  0  0  0  0  0  0  0  0
  5  6  2  0  0  0  0
  5  7  1  0  0  0  0
  2  3  1  0  0  0  0
  2  4  1  0  0  0  0
  2  5  1  0  0  0  0
  1  2  1  0  0  0  0
 21 22  2  0  0  0  0
 21 23  1  0  0  0  0
 19 20  1  0  0  0  0
 17 18  2  0  0  0  0
 17 19  1  0  0  0  0
 14 15  1  0  0  0  0
 14 16  1  0  0  0  0
 14 17  1  0  0  0  0
 11 12  1  0  0  0  0
 11 13  1  0  0  0  0
 11 14  1  0  0  0  0
  9 10  1  0  0  0  0
  9 11  1  0  0  0  0
  9 21  1  0  0  0  0
  7  8  1  0  0  0  0
  7  9  1  0  0  0  0
 25 26  1  0  0  0  0
 25 27  1  0  0  0  0
 25 28  1  0  0  0  0
 23 24  1  0  0  0  0
 23 25  1  0  0  0  0
M  END
$$$$
default_name
  -OEChem-02102213163D

 28 27  0     1  0  0  0  0  0999 V2000
   -3.2133   -3.5565    1.2809 H   0  0  0  0  0  0  0  0  0  0  0  0
   -3.1873   -2.5755    0.8089 C   0  0  0  0  0  0  0  0  0  0  0  0
   -3.8793   -1.9065    1.3169 H   0  0  0  0  0  0  0  0  0  0  0  0
   -3.4623   -2.6685   -0.2401 H   0  0  0  0  0  0  0  0  0  0  0  0
   -1.7863   -2.0195    0.9119 C   0  0  0  0  0  0  0  0  0  0  0  0
   -0.9073   -2.6615    1.4699 O   0  0  0  0  0  0  0  0  0  0  0  0
   -1.5803   -0.8195    0.3749 N   0  0  0  0  0  0  0  0  0  0  0  0
   -2.3603   -0.3345   -0.0451 H   0  0  0  0  0  0  0  0  0  0  0  0
   -0.2933   -0.1205    0.3719 C   0  0  1  0  0  0  0  0  0  0  0  0
    0.3577   -0.5843    1.1143 H   0  0  0  0  0  0  0  0  0  0  0  0
    0.3613   -0.2794   -1.0156 C   0  0  0  0  0  0  0  0  0  0  0  0
    1.1586   -1.0198   -0.9315 H   0  0  0  0  0  0  0  0  0  0  0  0
   -0.3795   -0.6572   -1.7218 H   0  0  0  0  0  0  0  0  0  0  0  0
    0.9530    1.0243   -1.5788 C   0  0  0  0  0  0  0  0  0  0  0  0
    0.1963    1.5571   -2.1547 H   0  0  0  0  0  0  0  0  0  0  0  0
    1.2816    1.6542   -0.7530 H   0  0  0  0  0  0  0  0  0  0  0  0
    2.1520    0.7702   -2.4867 C   0  0  0  0  0  0  0  0  0  0  0  0
    2.6841   -0.3151   -2.6568 O   0  0  0  0  0  0  0  0  0  0  0  0
    2.6380    1.8527   -3.1219 O   0  0  0  0  0  0  0  0  0  0  0  0
    3.3833    1.5310   -3.6322 H   0  0  0  0  0  0  0  0  0  0  0  0
   -0.4860    1.3537    0.7622 C   0  0  0  0  0  0  0  0  0  0  0  0
   -1.3956    2.0096    0.2582 O   0  0  0  0  0  0  0  0  0  0  0  0
    0.3741    1.8728    1.6466 N   0  0  0  0  0  0  0  0  0  0  0  0
    1.0814    1.2667    2.0345 H   0  0  0  0  0  0  0  0  0  0  0  0
    0.3380    3.2610    2.1024 C   0  0  0  0  0  0  0  0  0  0  0  0
   -0.6389    3.4820    2.5363 H   0  0  0  0  0  0  0  0  0  0  0  0
    1.1108    3.4337    2.8528 H   0  0  0  0  0  0  0  0  0  0  0  0
    0.5009    3.9312    1.2562 H   0  0  0  0  0  0  0  0  0  0  0  0
  5  6  2  0  0  0  0
  5  7  1  0  0  0  0
  2  3  1  0  0  0  0
  2  4  1  0  0  0  0
  2  5  1  0  0  0  0
  1  2  1  0  0  0  0
 21 22  2  0  0  0  0
 21 23  1  0  0  0  0
 19 20  1  0  0  0  0
 17 18  2  0  0  0  0
 17 19  1  0  0  0  0
 14 15  1  0  0  0  0
 14 16  1  0  0  0  0
 14 17  1  0  0  0  0
 11 12  1  0  0  0  0
 11 13  1  0  0  0  0
 11 14  1  0  0  0  0
  9 10  1  0  0  0  0
  9 11  1  0  0  0  0
  9 21  1  0  0  0  0
  7  8  1  0  0  0  0
  7  9  1  0  0  0  0
 25 26  1  0  0  0  0
 25 27  1  0  0  0  0
 25 28  1  0  0  0  0
 23 24  1  0  0  0  0
 23 25  1  0  0  0  0
M  END
$$$$
default_name
  -OEChem-02102213163D

 28 27  0     1  0  0  0  0  0999 V2000
   -3.2133   -3.5565    1.2809 H   0  0  0  0  0  0  0  0  0  0  0  0
   -3.1873   -2.5755    0.8089 C   0  0  0  0  0  0  0  0  0  0  0  0
   -3.8793   -1.9065    1.3169 H   0  0  0  0  0  0  0  0  0  0  0  0
   -3.4623   -2.6685   -0.2401 H   0  0  0  0  0  0  0  0  0  0  0  0
   -1.7863   -2.0195    0.9119 C   0  0  0  0  0  0  0  0  0  0  0  0
   -0.9073   -2.6615    1.4699 O   0  0  0  0  0  0  0  0  0  0  0  0
   -1.5803   -0.8195    0.3749 N   0  0  0  0  0  0  0  0  0  0  0  0
   -2.3603   -0.3345   -0.0451 H   0  0  0  0  0  0  0  0  0  0  0  0
   -0.2933   -0.1205    0.3719 C   0  0  1  0  0  0  0  0  0  0  0  0
    0.3577   -0.5843    1.1143 H   0  0  0  0  0  0  0  0  0  0  0  0
    0.3613   -0.2794   -1.0156 C   0  0  0  0  0  0  0  0  0  0  0  0
    1.1586   -1.0198   -0.9315 H   0  0  0  0  0  0  0  0  0  0  0  0
   -0.3795   -0.6572   -1.7218 H   0  0  0  0  0  0  0  0  0  0  0  0
    0.9530    1.0243   -1.5788 C   0  0  0  0  0  0  0  0  0  0  0  0
    0.1511    1.6787   -1.9207 H   0  0  0  0  0  0  0  0  0  0  0  0
    1.5159    1.5297   -0.7949 H   0  0  0  0  0  0  0  0  0  0  0  0
    1.8955    0.7723   -2.7512 C   0  0  0  0  0  0  0  0  0  0  0  0
    2.2608   -0.3283   -3.1322 O   0  0  0  0  0  0  0  0  0  0  0  0
    2.3458    1.8737   -3.3803 O   0  0  0  0  0  0  0  0  0  0  0  0
    2.9258    1.5490   -4.0712 H   0  0  0  0  0  0  0  0  0  0  0  0
   -0.4860    1.3537    0.7622 C   0  0  0  0  0  0  0  0  0  0  0  0
   -1.3956    2.0096    0.2582 O   0  0  0  0  0  0  0  0  0  0  0  0
    0.3741    1.8728    1.6466 N   0  0  0  0  0  0  0  0  0  0  0  0
    1.0814    1.2667    2.0345 H   0  0  0  0  0  0  0  0  0  0  0  0
    0.3380    3.2610    2.1024 C   0  0  0  0  0  0  0  0  0  0  0  0
   -0.6389    3.4820    2.5363 H   0  0  0  0  0  0  0  0  0  0  0  0
    1.1108    3.4337    2.8528 H   0  0  0  0  0  0  0  0  0  0  0  0
    0.5009    3.9312    1.2562 H   0  0  0  0  0  0  0  0  0  0  0  0
  5  6  2  0  0  0  0
  5  7  1  0  0  0  0
  2  3  1  0  0  0  0
  2  4  1  0  0  0  0
  2  5  1  0  0  0  0
  1  2  1  0  0  0  0
 21 22  2  0  0  0  0
 21 23  1  0  0  0  0
 19 20  1  0  0  0  0
 17 18  2  0  0  0  0
 17 19  1  0  0  0  0
 14 15  1  0  0  0  0
 14 16  1  0  0  0  0
 14 17  1  0  0  0  0
 11 12  1  0  0  0  0
 11 13  1  0  0  0  0
 11 14  1  0  0  0  0
  9 10  1  0  0  0  0
  9 11  1  0  0  0  0
  9 21  1  0  0  0  0
  7  8  1  0  0  0  0
  7  9  1  0  0  0  0
 25 26  1  0  0  0  0
 25 27  1  0  0  0  0
 25 28  1  0  0  0  0
 23 24  1  0  0  0  0
 23 25  1  0  0  0  0
M  END
$$$$
default_name
  -OEChem-02102213163D

 28 27  0     1  0  0  0  0  0999 V2000
   -3.2133   -3.5565    1.2809 H   0  0  0  0  0  0  0  0  0  0  0  0
   -3.1873   -2.5755    0.8089 C   0  0  0  0  0  0  0  0  0  0  0  0
   -3.8793   -1.9065    1.3169 H   0  0  0  0  0  0  0  0  0  0  0  0
   -3.4623   -2.6685   -0.2401 H   0  0  0  0  0  0  0  0  0  0  0  0
   -1.7863   -2.0195    0.9119 C   0  0  0  0  0  0  0  0  0  0  0  0
   -0.9073   -2.6615    1.4699 O   0  0  0  0  0  0  0  0  0  0  0  0
   -1.5803   -0.8195    0.3749 N   0  0  0  0  0  0  0  0  0  0  0  0
   -2.3603   -0.3345   -0.0451 H   0  0  0  0  0  0  0  0  0  0  0  0
   -0.2933   -0.1205    0.3719 C   0  0  1  0  0  0  0  0  0  0  0  0
    0.3577   -0.5843    1.1143 H   0  0  0  0  0  0  0  0  0  0  0  0
    0.3613   -0.2794   -1.0156 C   0  0  0  0  0  0  0  0  0  0  0  0
    0.9617   -1.1907   -1.0048 H   0  0  0  0  0  0  0  0  0  0  0  0
   -0.4182   -0.3956   -1.7700 H   0  0  0  0  0  0  0  0  0  0  0  0
    1.2604    0.9018   -1.4197 C   0  0  0  0  0  0  0  0  0  0  0  0
    0.6775    1.8226   -1.4387 H   0  0  0  0  0  0  0  0  0  0  0  0
    2.0651    1.0041   -0.6926 H   0  0  0  0  0  0  0  0  0  0  0  0
    1.8879    0.7062   -2.7961 C   0  0  0  0  0  0  0  0  0  0  0  0
    1.8123   -0.3141   -3.4618 O   0  0  0  0  0  0  0  0  0  0  0  0
    2.5790    1.7582   -3.2730 O   0  0  0  0  0  0  0  0  0  0  0  0
    2.9139    1.4733   -4.1250 H   0  0  0  0  0  0  0  0  0  0  0  0
   -0.4860    1.3537    0.7622 C   0  0  0  0  0  0  0  0  0  0  0  0
   -1.3956    2.0096    0.2582 O   0  0  0  0  0  0  0  0  0  0  0  0
    0.3741    1.8728    1.6466 N   0  0  0  0  0  0  0  0  0  0  0  0
    1.0814    1.2667    2.0345 H   0  0  0  0  0  0  0  0  0  0  0  0
    0.3380    3.2610    2.1024 C   0  0  0  0  0  0  0  0  0  0  0  0
   -0.6389    3.4820    2.5363 H   0  0  0  0  0  0  0  0  0  0  0  0
    1.1108    3.4337    2.8528 H   0  0  0  0  0  0  0  0  0  0  0  0
    0.5009    3.9312    1.2562 H   0  0  0  0  0  0  0  0  0  0  0  0
  5  6  2  0  0  0  0
  5  7  1  0  0  0  0
  2  3  1  0  0  0  0
  2  4  1  0  0  0  0
  2  5  1  0  0  0  0
  1  2  1  0  0  0  0
 21 22  2  0  0  0  0
 21 23  1  0  0  0  0
 19 20  1  0  0  0  0
 17 18  2  0  0  0  0
 17 19  1  0  0  0  0
 14 15  1  0  0  0  0
 14 16  1  0  0  0  0
 14 17  1  0  0  0  0
 11 12  1  0  0  0  0
 11 13  1  0  0  0  0
 11 14  1  0  0  0  0
  9 10  1  0  0  0  0
  9 11  1  0  0  0  0
  9 21  1  0  0  0  0
  7  8  1  0  0  0  0
  7  9  1  0  0  0  0
 25 26  1  0  0  0  0
 25 27  1  0  0  0  0
 25 28  1  0  0  0  0
 23 24  1  0  0  0  0
 23 25  1  0  0  0  0
M  END
$$$$
default_name
  -OEChem-02102213163D

 28 27  0     1  0  0  0  0  0999 V2000
   -3.2133   -3.5565    1.2809 H   0  0  0  0  0  0  0  0  0  0  0  0
   -3.1873   -2.5755    0.8089 C   0  0  0  0  0  0  0  0  0  0  0  0
   -3.8793   -1.9065    1.3169 H   0  0  0  0  0  0  0  0  0  0  0  0
   -3.4623   -2.6685   -0.2401 H   0  0  0  0  0  0  0  0  0  0  0  0
   -1.7863   -2.0195    0.9119 C   0  0  0  0  0  0  0  0  0  0  0  0
   -0.9073   -2.6615    1.4699 O   0  0  0  0  0  0  0  0  0  0  0  0
   -1.5803   -0.8195    0.3749 N   0  0  0  0  0  0  0  0  0  0  0  0
   -2.3603   -0.3345   -0.0451 H   0  0  0  0  0  0  0  0  0  0  0  0
   -0.2933   -0.1205    0.3719 C   0  0  1  0  0  0  0  0  0  0  0  0
    0.3577   -0.5843    1.1143 H   0  0  0  0  0  0  0  0  0  0  0  0
    0.3613   -0.2794   -1.0156 C   0  0  0  0  0  0  0  0  0  0  0  0
    0.9617   -1.1907   -1.0048 H   0  0  0  0  0  0  0  0  0  0  0  0
   -0.4182   -0.3956   -1.7700 H   0  0  0  0  0  0  0  0  0  0  0  0
    1.2604    0.9018   -1.4197 C   0  0  0  0  0  0  0  0  0  0  0  0
    0.7636    1.8435   -1.1862 H   0  0  0  0  0  0  0  0  0  0  0  0
    2.1963    0.8453   -0.8650 H   0  0  0  0  0  0  0  0  0  0  0  0
    1.5913    0.8936   -2.9087 C   0  0  0  0  0  0  0  0  0  0  0  0
    1.3036   -0.0032   -3.6851 O   0  0  0  0  0  0  0  0  0  0  0  0
    2.2622    1.9698   -3.3595 O   0  0  0  0  0  0  0  0  0  0  0  0
    2.4010    1.8060   -4.2939 H   0  0  0  0  0  0  0  0  0  0  0  0
   -0.4860    1.3537    0.7622 C   0  0  0  0  0  0  0  0  0  0  0  0
   -1.3956    2.0096    0.2582 O   0  0  0  0  0  0  0  0  0  0  0  0
    0.3741    1.8728    1.6466 N   0  0  0  0  0  0  0  0  0  0  0  0
    1.0814    1.2667    2.0345 H   0  0  0  0  0  0  0  0  0  0  0  0
    0.3380    3.2610    2.1024 C   0  0  0  0  0  0  0  0  0  0  0  0
   -0.6389    3.4820    2.5363 H   0  0  0  0  0  0  0  0  0  0  0  0
    1.1108    3.4337    2.8528 H   0  0  0  0  0  0  0  0  0  0  0  0
    0.5009    3.9312    1.2562 H   0  0  0  0  0  0  0  0  0  0  0  0
  5  6  2  0  0  0  0
  5  7  1  0  0  0  0
  2  3  1  0  0  0  0
  2  4  1  0  0  0  0
  2  5  1  0  0  0  0
  1  2  1  0  0  0  0
 21 22  2  0  0  0  0
 21 23  1  0  0  0  0
 19 20  1  0  0  0  0
 17 18  2  0  0  0  0
 17 19  1  0  0  0  0
 14 15  1  0  0  0  0
 14 16  1  0  0  0  0
 14 17  1  0  0  0  0
 11 12  1  0  0  0  0
 11 13  1  0  0  0  0
 11 14  1  0  0  0  0
  9 10  1  0  0  0  0
  9 11  1  0  0  0  0
  9 21  1  0  0  0  0
  7  8  1  0  0  0  0
  7  9  1  0  0  0  0
 25 26  1  0  0  0  0
 25 27  1  0  0  0  0
 25 28  1  0  0  0  0
 23 24  1  0  0  0  0
 23 25  1  0  0  0  0
M  END
$$$$
default_name
  -OEChem-02102213163D

 28 27  0     1  0  0  0  0  0999 V2000
   -3.2133   -3.5565    1.2809 H   0  0  0  0  0  0  0  0  0  0  0  0
   -3.1873   -2.5755    0.8089 C   0  0  0  0  0  0  0  0  0  0  0  0
   -3.8793   -1.9065    1.3169 H   0  0  0  0  0  0  0  0  0  0  0  0
   -3.4623   -2.6685   -0.2401 H   0  0  0  0  0  0  0  0  0  0  0  0
   -1.7863   -2.0195    0.9119 C   0  0  0  0  0  0  0  0  0  0  0  0
   -0.9073   -2.6615    1.4699 O   0  0  0  0  0  0  0  0  0  0  0  0
   -1.5803   -0.8195    0.3749 N   0  0  0  0  0  0  0  0  0  0  0  0
   -2.3603   -0.3345   -0.0451 H   0  0  0  0  0  0  0  0  0  0  0  0
   -0.2933   -0.1205    0.3719 C   0  0  1  0  0  0  0  0  0  0  0  0
    0.3577   -0.5843    1.1143 H   0  0  0  0  0  0  0  0  0  0  0  0
    0.3613   -0.2794   -1.0156 C   0  0  0  0  0  0  0  0  0  0  0  0
    0.9617   -1.1907   -1.0048 H   0  0  0  0  0  0  0  0  0  0  0  0
   -0.4182   -0.3956   -1.7700 H   0  0  0  0  0  0  0  0  0  0  0  0
    1.2604    0.9018   -1.4197 C   0  0  0  0  0  0  0  0  0  0  0  0
    0.8983    1.8196   -0.9563 H   0  0  0  0  0  0  0  0  0  0  0  0
    2.2779    0.7090   -1.0816 H   0  0  0  0  0  0  0  0  0  0  0  0
    1.2951    1.1117   -2.9301 C   0  0  0  0  0  0  0  0  0  0  0  0
    0.7889    0.3654   -3.7527 O   0  0  0  0  0  0  0  0  0  0  0  0
    1.9534    2.2088   -3.3480 O   0  0  0  0  0  0  0  0  0  0  0  0
    1.8947    2.1878   -4.3048 H   0  0  0  0  0  0  0  0  0  0  0  0
   -0.4860    1.3537    0.7622 C   0  0  0  0  0  0  0  0  0  0  0  0
   -1.3956    2.0096    0.2582 O   0  0  0  0  0  0  0  0  0  0  0  0
    0.3741    1.8728    1.6466 N   0  0  0  0  0  0  0  0  0  0  0  0
    1.0814    1.2667    2.0345 H   0  0  0  0  0  0  0  0  0  0  0  0
    0.3380    3.2610    2.1024 C   0  0  0  0  0  0  0  0  0  0  0  0
   -0.6389    3.4820    2.5363 H   0  0  0  0  0  0  0  0  0  0  0  0
    1.1108    3.4337    2.8528 H   0  0  0  0  0  0  0  0  0  0  0  0
    0.5009    3.9312    1.2562 H   0  0  0  0  0  0  0  0  0  0  0  0
  5  6  2  0  0  0  0
  5  7  1  0  0  0  0
  2  3  1  0  0  0  0
  2  4  1  0  0  0  0
  2  5  1  0  0  0  0
  1  2  1  0  0  0  0
 21 22  2  0  0  0  0
 21 23  1  0  0  0  0
 19 20  1  0  0  0  0
 17 18  2  0  0  0  0
 17 19  1  0  0  0  0
 14 15  1  0  0  0  0
 14 16  1  0  0  0  0
 14 17  1  0  0  0  0
 11 12  1  0  0  0  0
 11 13  1  0  0  0  0
 11 14  1  0  0  0  0
  9 10  1  0  0  0  0
  9 11  1  0  0  0  0
  9 21  1  0  0  0  0
  7  8  1  0  0  0  0
  7  9  1  0  0  0  0
 25 26  1  0  0  0  0
 25 27  1  0  0  0  0
 25 28  1  0  0  0  0
 23 24  1  0  0  0  0
 23 25  1  0  0  0  0
M  END
$$$$
default_name
  -OEChem-02102213163D

 28 27  0     1  0  0  0  0  0999 V2000
   -3.2133   -3.5565    1.2809 H   0  0  0  0  0  0  0  0  0  0  0  0
   -3.1873   -2.5755    0.8089 C   0  0  0  0  0  0  0  0  0  0  0  0
   -3.8793   -1.9065    1.3169 H   0  0  0  0  0  0  0  0  0  0  0  0
   -3.4623   -2.6685   -0.2401 H   0  0  0  0  0  0  0  0  0  0  0  0
   -1.7863   -2.0195    0.9119 C   0  0  0  0  0  0  0  0  0  0  0  0
   -0.9073   -2.6615    1.4699 O   0  0  0  0  0  0  0  0  0  0  0  0
   -1.5803   -0.8195    0.3749 N   0  0  0  0  0  0  0  0  0  0  0  0
   -2.3603   -0.3345   -0.0451 H   0  0  0  0  0  0  0  0  0  0  0  0
   -0.2933   -0.1205    0.3719 C   0  0  1  0  0  0  0  0  0  0  0  0
    0.3577   -0.5843    1.1143 H   0  0  0  0  0  0  0  0  0  0  0  0
    0.3613   -0.2794   -1.0156 C   0  0  0  0  0  0  0  0  0  0  0  0
    0.9617   -1.1907   -1.0048 H   0  0  0  0  0  0  0  0  0  0  0  0
   -0.4182   -0.3956   -1.7700 H   0  0  0  0  0  0  0  0  0  0  0  0
    1.2604    0.9018   -1.4197 C   0  0  0  0  0  0  0  0  0  0  0  0
    1.0725    1.7525   -0.7646 H   0  0  0  0  0  0  0  0  0  0  0  0
    2.3044    0.6046   -1.3276 H   0  0  0  0  0  0  0  0  0  0  0  0
    1.0196    1.3458   -2.8589 C   0  0  0  0  0  0  0  0  0  0  0  0
    0.3035    0.7667   -3.6600 O   0  0  0  0  0  0  0  0  0  0  0  0
    1.6736    2.4589   -3.2394 O   0  0  0  0  0  0  0  0  0  0  0  0
    1.4293    2.5926   -4.1569 H   0  0  0  0  0  0  0  0  0  0  0  0
   -0.4860    1.3537    0.7622 C   0  0  0  0  0  0  0  0  0  0  0  0
   -1.3956    2.0096    0.2582 O   0  0  0  0  0  0  0  0  0  0  0  0
    0.3741    1.8728    1.6466 N   0  0  0  0  0  0  0  0  0  0  0  0
    1.0814    1.2667    2.0345 H   0  0  0  0  0  0  0  0  0  0  0  0
    0.3380    3.2610    2.1024 C   0  0  0  0  0  0  0  0  0  0  0  0
   -0.6389    3.4820    2.5363 H   0  0  0  0  0  0  0  0  0  0  0  0
    1.1108    3.4337    2.8528 H   0  0  0  0  0  0  0  0  0  0  0  0
    0.5009    3.9312    1.2562 H   0  0  0  0  0  0  0  0  0  0  0  0
  5  6  2  0  0  0  0
  5  7  1  0  0  0  0
  2  3  1  0  0  0  0
  2  4  1  0  0  0  0
  2  5  1  0  0  0  0
  1  2  1  0  0  0  0
 21 22  2  0  0  0  0
 21 23  1  0  0  0  0
 19 20  1  0  0  0  0
 17 18  2  0  0  0  0
 17 19  1  0  0  0  0
 14 15  1  0  0  0  0
 14 16  1  0  0  0  0
 14 17  1  0  0  0  0
 11 12  1  0  0  0  0
 11 13  1  0  0  0  0
 11 14  1  0  0  0  0
  9 10  1  0  0  0  0
  9 11  1  0  0  0  0
  9 21  1  0  0  0  0
  7  8  1  0  0  0  0
  7  9  1  0  0  0  0
 25 26  1  0  0  0  0
 25 27  1  0  0  0  0
 25 28  1  0  0  0  0
 23 24  1  0  0  0  0
 23 25  1  0  0  0  0
M  END
$$$$
default_name
  -OEChem-02102213163D

 28 27  0     1  0  0  0  0  0999 V2000
   -3.2133   -3.5565    1.2809 H   0  0  0  0  0  0  0  0  0  0  0  0
   -3.1873   -2.5755    0.8089 C   0  0  0  0  0  0  0  0  0  0  0  0
   -3.8793   -1.9065    1.3169 H   0  0  0  0  0  0  0  0  0  0  0  0
   -3.4623   -2.6685   -0.2401 H   0  0  0  0  0  0  0  0  0  0  0  0
   -1.7863   -2.0195    0.9119 C   0  0  0  0  0  0  0  0  0  0  0  0
   -0.9073   -2.6615    1.4699 O   0  0  0  0  0  0  0  0  0  0  0  0
   -1.5803   -0.8195    0.3749 N   0  0  0  0  0  0  0  0  0  0  0  0
   -2.3603   -0.3345   -0.0451 H   0  0  0  0  0  0  0  0  0  0  0  0
   -0.2933   -0.1205    0.3719 C   0  0  1  0  0  0  0  0  0  0  0  0
    0.3577   -0.5843    1.1143 H   0  0  0  0  0  0  0  0  0  0  0  0
    0.3613   -0.2794   -1.0156 C   0  0  0  0  0  0  0  0  0  0  0  0
    0.9617   -1.1907   -1.0048 H   0  0  0  0  0  0  0  0  0  0  0  0
   -0.4182   -0.3956   -1.7700 H   0  0  0  0  0  0  0  0  0  0  0  0
    1.2604    0.9018   -1.4197 C   0  0  0  0  0  0  0  0  0  0  0  0
    1.2743    1.6469   -0.6242 H   0  0  0  0  0  0  0  0  0  0  0  0
    2.2741    0.5392   -1.5864 H   0  0  0  0  0  0  0  0  0  0  0  0
    0.7835    1.5798   -2.7000 C   0  0  0  0  0  0  0  0  0  0  0  0
   -0.1198    1.1733   -3.4132 O   0  0  0  0  0  0  0  0  0  0  0  0
    1.4419    2.7031   -3.0411 O   0  0  0  0  0  0  0  0  0  0  0  0
    1.0368    2.9929   -3.8604 H   0  0  0  0  0  0  0  0  0  0  0  0
   -0.4860    1.3537    0.7622 C   0  0  0  0  0  0  0  0  0  0  0  0
   -1.3956    2.0096    0.2582 O   0  0  0  0  0  0  0  0  0  0  0  0
    0.3741    1.8728    1.6466 N   0  0  0  0  0  0  0  0  0  0  0  0
    1.0814    1.2667    2.0345 H   0  0  0  0  0  0  0  0  0  0  0  0
    0.3380    3.2610    2.1024 C   0  0  0  0  0  0  0  0  0  0  0  0
   -0.6389    3.4820    2.5363 H   0  0  0  0  0  0  0  0  0  0  0  0
    1.1108    3.4337    2.8528 H   0  0  0  0  0  0  0  0  0  0  0  0
    0.5009    3.9312    1.2562 H   0  0  0  0  0  0  0  0  0  0  0  0
  5  6  2  0  0  0  0
  5  7  1  0  0  0  0
  2  3  1  0  0  0  0
  2  4  1  0  0  0  0
  2  5  1  0  0  0  0
  1  2  1  0  0  0  0
 21 22  2  0  0  0  0
 21 23  1  0  0  0  0
 19 20  1  0  0  0  0
 17 18  2  0  0  0  0
 17 19  1  0  0  0  0
 14 15  1  0  0  0  0
 14 16  1  0  0  0  0
 14 17  1  0  0  0  0
 11 12  1  0  0  0  0
 11 13  1  0  0  0  0
 11 14  1  0  0  0  0
  9 10  1  0  0  0  0
  9 11  1  0  0  0  0
  9 21  1  0  0  0  0
  7  8  1  0  0  0  0
  7  9  1  0  0  0  0
 25 26  1  0  0  0  0
 25 27  1  0  0  0  0
 25 28  1  0  0  0  0
 23 24  1  0  0  0  0
 23 25  1  0  0  0  0
M  END
$$$$
default_name
  -OEChem-02102213163D

 28 27  0     1  0  0  0  0  0999 V2000
   -3.2133   -3.5565    1.2809 H   0  0  0  0  0  0  0  0  0  0  0  0
   -3.1873   -2.5755    0.8089 C   0  0  0  0  0  0  0  0  0  0  0  0
   -3.8793   -1.9065    1.3169 H   0  0  0  0  0  0  0  0  0  0  0  0
   -3.4623   -2.6685   -0.2401 H   0  0  0  0  0  0  0  0  0  0  0  0
   -1.7863   -2.0195    0.9119 C   0  0  0  0  0  0  0  0  0  0  0  0
   -0.9073   -2.6615    1.4699 O   0  0  0  0  0  0  0  0  0  0  0  0
   -1.5803   -0.8195    0.3749 N   0  0  0  0  0  0  0  0  0  0  0  0
   -2.3603   -0.3345   -0.0451 H   0  0  0  0  0  0  0  0  0  0  0  0
   -0.2933   -0.1205    0.3719 C   0  0  1  0  0  0  0  0  0  0  0  0
    0.3577   -0.5843    1.1143 H   0  0  0  0  0  0  0  0  0  0  0  0
    0.3613   -0.2794   -1.0156 C   0  0  0  0  0  0  0  0  0  0  0  0
    0.9617   -1.1907   -1.0048 H   0  0  0  0  0  0  0  0  0  0  0  0
   -0.4182   -0.3956   -1.7700 H   0  0  0  0  0  0  0  0  0  0  0  0
    1.2604    0.9018   -1.4197 C   0  0  0  0  0  0  0  0  0  0  0  0
    1.4900    1.5100   -0.5447 H   0  0  0  0  0  0  0  0  0  0  0  0
    2.1889    0.5172   -1.8402 H   0  0  0  0  0  0  0  0  0  0  0  0
    0.6030    1.7979   -2.4642 C   0  0  0  0  0  0  0  0  0  0  0  0
   -0.4519    1.5575   -3.0293 O   0  0  0  0  0  0  0  0  0  0  0  0
    1.2742    2.9248   -2.7666 O   0  0  0  0  0  0  0  0  0  0  0  0
    0.7437    3.3613   -3.4354 H   0  0  0  0  0  0  0  0  0  0  0  0
   -0.4860    1.3537    0.7622 C   0  0  0  0  0  0  0  0  0  0  0  0
   -1.3956    2.0096    0.2582 O   0  0  0  0  0  0  0  0  0  0  0  0
    0.3741    1.8728    1.6466 N   0  0  0  0  0  0  0  0  0  0  0  0
    1.0814    1.2667    2.0345 H   0  0  0  0  0  0  0  0  0  0  0  0
    0.3380    3.2610    2.1024 C   0  0  0  0  0  0  0  0  0  0  0  0
   -0.6389    3.4820    2.5363 H   0  0  0  0  0  0  0  0  0  0  0  0
    1.1108    3.4337    2.8528 H   0  0  0  0  0  0  0  0  0  0  0  0
    0.5009    3.9312    1.2562 H   0  0  0  0  0  0  0  0  0  0  0  0
  5  6  2  0  0  0  0
  5  7  1  0  0  0  0
  2  3  1  0  0  0  0
  2  4  1  0  0  0  0
  2  5  1  0  0  0  0
  1  2  1  0  0  0  0
 21 22  2  0  0  0  0
 21 23  1  0  0  0  0
 19 20  1  0  0  0  0
 17 18  2  0  0  0  0
 17 19  1  0  0  0  0
 14 15  1  0  0  0  0
 14 16  1  0  0  0  0
 14 17  1  0  0  0  0
 11 12  1  0  0  0  0
 11 13  1  0  0  0  0
 11 14  1  0  0  0  0
  9 10  1  0  0  0  0
  9 11  1  0  0  0  0
  9 21  1  0  0  0  0
  7  8  1  0  0  0  0
  7  9  1  0  0  0  0
 25 26  1  0  0  0  0
 25 27  1  0  0  0  0
 25 28  1  0  0  0  0
 23 24  1  0  0  0  0
 23 25  1  0  0  0  0
M  END
$$$$
default_name
  -OEChem-02102213163D

 28 27  0     1  0  0  0  0  0999 V2000
   -3.2133   -3.5565    1.2809 H   0  0  0  0  0  0  0  0  0  0  0  0
   -3.1873   -2.5755    0.8089 C   0  0  0  0  0  0  0  0  0  0  0  0
   -3.8793   -1.9065    1.3169 H   0  0  0  0  0  0  0  0  0  0  0  0
   -3.4623   -2.6685   -0.2401 H   0  0  0  0  0  0  0  0  0  0  0  0
   -1.7863   -2.0195    0.9119 C   0  0  0  0  0  0  0  0  0  0  0  0
   -0.9073   -2.6615    1.4699 O   0  0  0  0  0  0  0  0  0  0  0  0
   -1.5803   -0.8195    0.3749 N   0  0  0  0  0  0  0  0  0  0  0  0
   -2.3603   -0.3345   -0.0451 H   0  0  0  0  0  0  0  0  0  0  0  0
   -0.2933   -0.1205    0.3719 C   0  0  1  0  0  0  0  0  0  0  0  0
    0.3577   -0.5843    1.1143 H   0  0  0  0  0  0  0  0  0  0  0  0
    0.3613   -0.2794   -1.0156 C   0  0  0  0  0  0  0  0  0  0  0  0
    0.9617   -1.1907   -1.0048 H   0  0  0  0  0  0  0  0  0  0  0  0
   -0.4182   -0.3956   -1.7700 H   0  0  0  0  0  0  0  0  0  0  0  0
    1.2604    0.9018   -1.4197 C   0  0  0  0  0  0  0  0  0  0  0  0
    1.7048    1.3510   -0.5315 H   0  0  0  0  0  0  0  0  0  0  0  0
    2.0547    0.5401   -2.0717 H   0  0  0  0  0  0  0  0  0  0  0  0
    0.4902    1.9852   -2.1676 C   0  0  0  0  0  0  0  0  0  0  0  0
   -0.6703    1.8931   -2.5344 O   0  0  0  0  0  0  0  0  0  0  0  0
    1.1817    3.1087   -2.4346 O   0  0  0  0  0  0  0  0  0  0  0  0
    0.5701    3.6729   -2.9110 H   0  0  0  0  0  0  0  0  0  0  0  0
   -0.4860    1.3537    0.7622 C   0  0  0  0  0  0  0  0  0  0  0  0
   -1.3956    2.0096    0.2582 O   0  0  0  0  0  0  0  0  0  0  0  0
    0.3741    1.8728    1.6466 N   0  0  0  0  0  0  0  0  0  0  0  0
    1.0814    1.2667    2.0345 H   0  0  0  0  0  0  0  0  0  0  0  0
    0.3380    3.2610    2.1024 C   0  0  0  0  0  0  0  0  0  0  0  0
   -0.6389    3.4820    2.5363 H   0  0  0  0  0  0  0  0  0  0  0  0
    1.1108    3.4337    2.8528 H   0  0  0  0  0  0  0  0  0  0  0  0
    0.5009    3.9312    1.2562 H   0  0  0  0  0  0  0  0  0  0  0  0
  5  6  2  0  0  0  0
  5  7  1  0  0  0  0
  2  3  1  0  0  0  0
  2  4  1  0  0  0  0
  2  5  1  0  0  0  0
  1  2  1  0  0  0  0
 21 22  2  0  0  0  0
 21 23  1  0  0  0  0
 19 20  1  0  0  0  0
 17 18  2  0  0  0  0
 17 19  1  0  0  0  0
 14 15  1  0  0  0  0
 14 16  1  0  0  0  0
 14 17  1  0  0  0  0
 11 12  1  0  0  0  0
 11 13  1  0  0  0  0
 11 14  1  0  0  0  0
  9 10  1  0  0  0  0
  9 11  1  0  0  0  0
  9 21  1  0  0  0  0
  7  8  1  0  0  0  0
  7  9  1  0  0  0  0
 25 26  1  0  0  0  0
 25 27  1  0  0  0  0
 25 28  1  0  0  0  0
 23 24  1  0  0  0  0
 23 25  1  0  0  0  0
M  END
$$$$
default_name
  -OEChem-02102213163D

 28 27  0     1  0  0  0  0  0999 V2000
   -3.2133   -3.5565    1.2809 H   0  0  0  0  0  0  0  0  0  0  0  0
   -3.1873   -2.5755    0.8089 C   0  0  0  0  0  0  0  0  0  0  0  0
   -3.8793   -1.9065    1.3169 H   0  0  0  0  0  0  0  0  0  0  0  0
   -3.4623   -2.6685   -0.2401 H   0  0  0  0  0  0  0  0  0  0  0  0
   -1.7863   -2.0195    0.9119 C   0  0  0  0  0  0  0  0  0  0  0  0
   -0.9073   -2.6615    1.4699 O   0  0  0  0  0  0  0  0  0  0  0  0
   -1.5803   -0.8195    0.3749 N   0  0  0  0  0  0  0  0  0  0  0  0
   -2.3603   -0.3345   -0.0451 H   0  0  0  0  0  0  0  0  0  0  0  0
   -0.2933   -0.1205    0.3719 C   0  0  1  0  0  0  0  0  0  0  0  0
    0.3577   -0.5843    1.1143 H   0  0  0  0  0  0  0  0  0  0  0  0
    0.3613   -0.2794   -1.0156 C   0  0  0  0  0  0  0  0  0  0  0  0
    0.9617   -1.1907   -1.0048 H   0  0  0  0  0  0  0  0  0  0  0  0
   -0.4182   -0.3956   -1.7700 H   0  0  0  0  0  0  0  0  0  0  0  0
    1.2604    0.9018   -1.4197 C   0  0  0  0  0  0  0  0  0  0  0  0
    1.9041    1.1809   -0.5854 H   0  0  0  0  0  0  0  0  0  0  0  0
    1.8806    0.6064   -2.2652 H   0  0  0  0  0  0  0  0  0  0  0  0
    0.4531    2.1289   -1.8304 C   0  0  0  0  0  0  0  0  0  0  0  0
   -0.7601    2.1572   -1.9621 O   0  0  0  0  0  0  0  0  0  0  0  0
    1.1709    3.2425   -2.0677 O   0  0  0  0  0  0  0  0  0  0  0  0
    0.5279    3.9063   -2.3227 H   0  0  0  0  0  0  0  0  0  0  0  0
   -0.4860    1.3537    0.7622 C   0  0  0  0  0  0  0  0  0  0  0  0
   -1.3956    2.0096    0.2582 O   0  0  0  0  0  0  0  0  0  0  0  0
    0.3741    1.8728    1.6466 N   0  0  0  0  0  0  0  0  0  0  0  0
    1.0814    1.2667    2.0345 H   0  0  0  0  0  0  0  0  0  0  0  0
    0.3380    3.2610    2.1024 C   0  0  0  0  0  0  0  0  0  0  0  0
   -0.6389    3.4820    2.5363 H   0  0  0  0  0  0  0  0  0  0  0  0
    1.1108    3.4337    2.8528 H   0  0  0  0  0  0  0  0  0  0  0  0
    0.5009    3.9312    1.2562 H   0  0  0  0  0  0  0  0  0  0  0  0
  5  6  2  0  0  0  0
  5  7  1  0  0  0  0
  2  3  1  0  0  0  0
  2  4  1  0  0  0  0
  2  5  1  0  0  0  0
  1  2  1  0  0  0  0
 21 22  2  0  0  0  0
 21 23  1  0  0  0  0
 19 20  1  0  0  0  0
 17 18  2  0  0  0  0
 17 19  1  0  0  0  0
 14 15  1  0  0  0  0
 14 16  1  0  0  0  0
 14 17  1  0  0  0  0
 11 12  1  0  0  0  0
 11 13  1  0  0  0  0
 11 14  1  0  0  0  0
  9 10  1  0  0  0  0
  9 11  1  0  0  0  0
  9 21  1  0  0  0  0
  7  8  1  0  0  0  0
  7  9  1  0  0  0  0
 25 26  1  0  0  0  0
 25 27  1  0  0  0  0
 25 28  1  0  0  0  0
 23 24  1  0  0  0  0
 23 25  1  0  0  0  0
M  END
$$$$
default_name
  -OEChem-02102213163D

 28 27  0     1  0  0  0  0  0999 V2000
   -3.2133   -3.5565    1.2809 H   0  0  0  0  0  0  0  0  0  0  0  0
   -3.1873   -2.5755    0.8089 C   0  0  0  0  0  0  0  0  0  0  0  0
   -3.8793   -1.9065    1.3169 H   0  0  0  0  0  0  0  0  0  0  0  0
   -3.4623   -2.6685   -0.2401 H   0  0  0  0  0  0  0  0  0  0  0  0
   -1.7863   -2.0195    0.9119 C   0  0  0  0  0  0  0  0  0  0  0  0
   -0.9073   -2.6615    1.4699 O   0  0  0  0  0  0  0  0  0  0  0  0
   -1.5803   -0.8195    0.3749 N   0  0  0  0  0  0  0  0  0  0  0  0
   -2.3603   -0.3345   -0.0451 H   0  0  0  0  0  0  0  0  0  0  0  0
   -0.2933   -0.1205    0.3719 C   0  0  1  0  0  0  0  0  0  0  0  0
    0.3577   -0.5843    1.1143 H   0  0  0  0  0  0  0  0  0  0  0  0
    0.3613   -0.2794   -1.0156 C   0  0  0  0  0  0  0  0  0  0  0  0
    0.9617   -1.1907   -1.0048 H   0  0  0  0  0  0  0  0  0  0  0  0
   -0.4182   -0.3956   -1.7700 H   0  0  0  0  0  0  0  0  0  0  0  0
    1.2604    0.9018   -1.4197 C   0  0  0  0  0  0  0  0  0  0  0  0
    2.0743    1.0111   -0.7028 H   0  0  0  0  0  0  0  0  0  0  0  0
    1.6785    0.7116   -2.4075 H   0  0  0  0  0  0  0  0  0  0  0  0
    0.4939    2.2193   -1.4755 C   0  0  0  0  0  0  0  0  0  0  0  0
   -0.7151    2.3319   -1.3516 O   0  0  0  0  0  0  0  0  0  0  0  0
    1.2425    3.3169   -1.6909 O   0  0  0  0  0  0  0  0  0  0  0  0
    0.6198    4.0457   -1.7109 H   0  0  0  0  0  0  0  0  0  0  0  0
   -0.4860    1.3537    0.7622 C   0  0  0  0  0  0  0  0  0  0  0  0
   -1.3956    2.0096    0.2582 O   0  0  0  0  0  0  0  0  0  0  0  0
    0.3741    1.8728    1.6466 N   0  0  0  0  0  0  0  0  0  0  0  0
    1.0814    1.2667    2.0345 H   0  0  0  0  0  0  0  0  0  0  0  0
    0.3380    3.2610    2.1024 C   0  0  0  0  0  0  0  0  0  0  0  0
   -0.6389    3.4820    2.5363 H   0  0  0  0  0  0  0  0  0  0  0  0
    1.1108    3.4337    2.8528 H   0  0  0  0  0  0  0  0  0  0  0  0
    0.5009    3.9312    1.2562 H   0  0  0  0  0  0  0  0  0  0  0  0
  5  6  2  0  0  0  0
  5  7  1  0  0  0  0
  2  3  1  0  0  0  0
  2  4  1  0  0  0  0
  2  5  1  0  0  0  0
  1  2  1  0  0  0  0
 21 22  2  0  0  0  0
 21 23  1  0  0  0  0
 19 20  1  0  0  0  0
 17 18  2  0  0  0  0
 17 19  1  0  0  0  0
 14 15  1  0  0  0  0
 14 16  1  0  0  0  0
 14 17  1  0  0  0  0
 11 12  1  0  0  0  0
 11 13  1  0  0  0  0
 11 14  1  0  0  0  0
  9 10  1  0  0  0  0
  9 11  1  0  0  0  0
  9 21  1  0  0  0  0
  7  8  1  0  0  0  0
  7  9  1  0  0  0  0
 25 26  1  0  0  0  0
 25 27  1  0  0  0  0
 25 28  1  0  0  0  0
 23 24  1  0  0  0  0
 23 25  1  0  0  0  0
M  END
$$$$
default_name
  -OEChem-02102213163D

 28 27  0     1  0  0  0  0  0999 V2000
   -3.2133   -3.5565    1.2809 H   0  0  0  0  0  0  0  0  0  0  0  0
   -3.1873   -2.5755    0.8089 C   0  0  0  0  0  0  0  0  0  0  0  0
   -3.8793   -1.9065    1.3169 H   0  0  0  0  0  0  0  0  0  0  0  0
   -3.4623   -2.6685   -0.2401 H   0  0  0  0  0  0  0  0  0  0  0  0
   -1.7863   -2.0195    0.9119 C   0  0  0  0  0  0  0  0  0  0  0  0
   -0.9073   -2.6615    1.4699 O   0  0  0  0  0  0  0  0  0  0  0  0
   -1.5803   -0.8195    0.3749 N   0  0  0  0  0  0  0  0  0  0  0  0
   -2.3603   -0.3345   -0.0451 H   0  0  0  0  0  0  0  0  0  0  0  0
   -0.2933   -0.1205    0.3719 C   0  0  1  0  0  0  0  0  0  0  0  0
    0.3577   -0.5843    1.1143 H   0  0  0  0  0  0  0  0  0  0  0  0
    0.3613   -0.2794   -1.0156 C   0  0  0  0  0  0  0  0  0  0  0  0
    0.9617   -1.1907   -1.0048 H   0  0  0  0  0  0  0  0  0  0  0  0
   -0.4182   -0.3956   -1.7700 H   0  0  0  0  0  0  0  0  0  0  0  0
    1.2604    0.9018   -1.4197 C   0  0  0  0  0  0  0  0  0  0  0  0
    2.2038    0.8533   -0.8758 H   0  0  0  0  0  0  0  0  0  0  0  0
    1.4622    0.8484   -2.4889 H   0  0  0  0  0  0  0  0  0  0  0  0
    0.6100    2.2501   -1.1272 C   0  0  0  0  0  0  0  0  0  0  0  0
   -0.5385    2.4052   -0.7444 O   0  0  0  0  0  0  0  0  0  0  0  0
    1.3916    3.3270   -1.3299 O   0  0  0  0  0  0  0  0  0  0  0  0
    0.8397    4.0815   -1.1170 H   0  0  0  0  0  0  0  0  0  0  0  0
   -0.4860    1.3537    0.7622 C   0  0  0  0  0  0  0  0  0  0  0  0
   -1.3956    2.0096    0.2582 O   0  0  0  0  0  0  0  0  0  0  0  0
    0.3741    1.8728    1.6466 N   0  0  0  0  0  0  0  0  0  0  0  0
    1.0814    1.2667    2.0345 H   0  0  0  0  0  0  0  0  0  0  0  0
    0.3380    3.2610    2.1024 C   0  0  0  0  0  0  0  0  0  0  0  0
   -0.6389    3.4820    2.5363 H   0  0  0  0  0  0  0  0  0  0  0  0
    1.1108    3.4337    2.8528 H   0  0  0  0  0  0  0  0  0  0  0  0
    0.5009    3.9312    1.2562 H   0  0  0  0  0  0  0  0  0  0  0  0
  5  6  2  0  0  0  0
  5  7  1  0  0  0  0
  2  3  1  0  0  0  0
  2  4  1  0  0  0  0
  2  5  1  0  0  0  0
  1  2  1  0  0  0  0
 21 22  2  0  0  0  0
 21 23  1  0  0  0  0
 19 20  1  0  0  0  0
 17 18  2  0  0  0  0
 17 19  1  0  0  0  0
 14 15  1  0  0  0  0
 14 16  1  0  0  0  0
 14 17  1  0  0  0  0
 11 12  1  0  0  0  0
 11 13  1  0  0  0  0
 11 14  1  0  0  0  0
  9 10  1  0  0  0  0
  9 11  1  0  0  0  0
  9 21  1  0  0  0  0
  7  8  1  0  0  0  0
  7  9  1  0  0  0  0
 25 26  1  0  0  0  0
 25 27  1  0  0  0  0
 25 28  1  0  0  0  0
 23 24  1  0  0  0  0
 23 25  1  0  0  0  0
M  END
$$$$
default_name
  -OEChem-02102213163D

 28 27  0     1  0  0  0  0  0999 V2000
   -3.2133   -3.5565    1.2809 H   0  0  0  0  0  0  0  0  0  0  0  0
   -3.1873   -2.5755    0.8089 C   0  0  0  0  0  0  0  0  0  0  0  0
   -3.8793   -1.9065    1.3169 H   0  0  0  0  0  0  0  0  0  0  0  0
   -3.4623   -2.6685   -0.2401 H   0  0  0  0  0  0  0  0  0  0  0  0
   -1.7863   -2.0195    0.9119 C   0  0  0  0  0  0  0  0  0  0  0  0
   -0.9073   -2.6615    1.4699 O   0  0  0  0  0  0  0  0  0  0  0  0
   -1.5803   -0.8195    0.3749 N   0  0  0  0  0  0  0  0  0  0  0  0
   -2.3603   -0.3345   -0.0451 H   0  0  0  0  0  0  0  0  0  0  0  0
   -0.2933   -0.1205    0.3719 C   0  0  1  0  0  0  0  0  0  0  0  0
    0.3577   -0.5843    1.1143 H   0  0  0  0  0  0  0  0  0  0  0  0
    0.3613   -0.2794   -1.0156 C   0  0  0  0  0  0  0  0  0  0  0  0
    0.9617   -1.1907   -1.0048 H   0  0  0  0  0  0  0  0  0  0  0  0
   -0.4182   -0.3956   -1.7700 H   0  0  0  0  0  0  0  0  0  0  0  0
    1.2604    0.9018   -1.4197 C   0  0  0  0  0  0  0  0  0  0  0  0
    2.2839    0.7183   -1.0924 H   0  0  0  0  0  0  0  0  0  0  0  0
    1.2464    1.0076   -2.5038 H   0  0  0  0  0  0  0  0  0  0  0  0
    0.7935    2.2192   -0.8091 C   0  0  0  0  0  0  0  0  0  0  0  0
   -0.2423    2.3722   -0.1818 O   0  0  0  0  0  0  0  0  0  0  0  0
    1.6080    3.2719   -1.0093 O   0  0  0  0  0  0  0  0  0  0  0  0
    1.1725    4.0114   -0.5817 H   0  0  0  0  0  0  0  0  0  0  0  0
   -0.4860    1.3537    0.7622 C   0  0  0  0  0  0  0  0  0  0  0  0
   -1.3956    2.0096    0.2582 O   0  0  0  0  0  0  0  0  0  0  0  0
    0.3741    1.8728    1.6466 N   0  0  0  0  0  0  0  0  0  0  0  0
    1.0814    1.2667    2.0345 H   0  0  0  0  0  0  0  0  0  0  0  0
    0.3380    3.2610    2.1024 C   0  0  0  0  0  0  0  0  0  0  0  0
   -0.6389    3.4820    2.5363 H   0  0  0  0  0  0  0  0  0  0  0  0
    1.1108    3.4337    2.8528 H   0  0  0  0  0  0  0  0  0  0  0  0
    0.5009    3.9312    1.2562 H   0  0  0  0  0  0  0  0  0  0  0  0
  5  6  2  0  0  0  0
  5  7  1  0  0  0  0
  2  3  1  0  0  0  0
  2  4  1  0  0  0  0
  2  5  1  0  0  0  0
  1  2  1  0  0  0  0
 21 22  2  0  0  0  0
 21 23  1  0  0  0  0
 19 20  1  0  0  0  0
 17 18  2  0  0  0  0
 17 19  1  0  0  0  0
 14 15  1  0  0  0  0
 14 16  1  0  0  0  0
 14 17  1  0  0  0  0
 11 12  1  0  0  0  0
 11 13  1  0  0  0  0
 11 14  1  0  0  0  0
  9 10  1  0  0  0  0
  9 11  1  0  0  0  0
  9 21  1  0  0  0  0
  7  8  1  0  0  0  0
  7  9  1  0  0  0  0
 25 26  1  0  0  0  0
 25 27  1  0  0  0  0
 25 28  1  0  0  0  0
 23 24  1  0  0  0  0
 23 25  1  0  0  0  0
M  END
$$$$
default_name
  -OEChem-02102213163D

 28 27  0     1  0  0  0  0  0999 V2000
   -3.2133   -3.5565    1.2809 H   0  0  0  0  0  0  0  0  0  0  0  0
   -3.1873   -2.5755    0.8089 C   0  0  0  0  0  0  0  0  0  0  0  0
   -3.8793   -1.9065    1.3169 H   0  0  0  0  0  0  0  0  0  0  0  0
   -3.4623   -2.6685   -0.2401 H   0  0  0  0  0  0  0  0  0  0  0  0
   -1.7863   -2.0195    0.9119 C   0  0  0  0  0  0  0  0  0  0  0  0
   -0.9073   -2.6615    1.4699 O   0  0  0  0  0  0  0  0  0  0  0  0
   -1.5803   -0.8195    0.3749 N   0  0  0  0  0  0  0  0  0  0  0  0
   -2.3603   -0.3345   -0.0451 H   0  0  0  0  0  0  0  0  0  0  0  0
   -0.2933   -0.1205    0.3719 C   0  0  1  0  0  0  0  0  0  0  0  0
    0.3577   -0.5843    1.1143 H   0  0  0  0  0  0  0  0  0  0  0  0
    0.3613   -0.2794   -1.0156 C   0  0  0  0  0  0  0  0  0  0  0  0
    0.9617   -1.1907   -1.0048 H   0  0  0  0  0  0  0  0  0  0  0  0
   -0.4182   -0.3956   -1.7700 H   0  0  0  0  0  0  0  0  0  0  0  0
    1.2604    0.9018   -1.4197 C   0  0  0  0  0  0  0  0  0  0  0  0
    2.3090    0.6151   -1.3380 H   0  0  0  0  0  0  0  0  0  0  0  0
    1.0457    1.1783   -2.4513 H   0  0  0  0  0  0  0  0  0  0  0  0
    1.0318    2.1288   -0.5431 C   0  0  0  0  0  0  0  0  0  0  0  0
    0.1534    2.2351    0.2977 O   0  0  0  0  0  0  0  0  0  0  0  0
    1.8770    3.1556   -0.7510 O   0  0  0  0  0  0  0  0  0  0  0  0
    1.5956    3.8400   -0.1414 H   0  0  0  0  0  0  0  0  0  0  0  0
   -0.4860    1.3537    0.7622 C   0  0  0  0  0  0  0  0  0  0  0  0
   -1.3956    2.0096    0.2582 O   0  0  0  0  0  0  0  0  0  0  0  0
    0.3741    1.8728    1.6466 N   0  0  0  0  0  0  0  0  0  0  0  0
    1.0814    1.2667    2.0345 H   0  0  0  0  0  0  0  0  0  0  0  0
    0.3380    3.2610    2.1024 C   0  0  0  0  0  0  0  0  0  0  0  0
   -0.6389    3.4820    2.5363 H   0  0  0  0  0  0  0  0  0  0  0  0
    1.1108    3.4337    2.8528 H   0  0  0  0  0  0  0  0  0  0  0  0
    0.5009    3.9312    1.2562 H   0  0  0  0  0  0  0  0  0  0  0  0
  5  6  2  0  0  0  0
  5  7  1  0  0  0  0
  2  3  1  0  0  0  0
  2  4  1  0  0  0  0
  2  5  1  0  0  0  0
  1  2  1  0  0  0  0
 21 22  2  0  0  0  0
 21 23  1  0  0  0  0
 19 20  1  0  0  0  0
 17 18  2  0  0  0  0
 17 19  1  0  0  0  0
 14 15  1  0  0  0  0
 14 16  1  0  0  0  0
 14 17  1  0  0  0  0
 11 12  1  0  0  0  0
 11 13  1  0  0  0  0
 11 14  1  0  0  0  0
  9 10  1  0  0  0  0
  9 11  1  0  0  0  0
  9 21  1  0  0  0  0
  7  8  1  0  0  0  0
  7  9  1  0  0  0  0
 25 26  1  0  0  0  0
 25 27  1  0  0  0  0
 25 28  1  0  0  0  0
 23 24  1  0  0  0  0
 23 25  1  0  0  0  0
M  END
$$$$
default_name
  -OEChem-02102213163D

 28 27  0     1  0  0  0  0  0999 V2000
   -3.2133   -3.5565    1.2809 H   0  0  0  0  0  0  0  0  0  0  0  0
   -3.1873   -2.5755    0.8089 C   0  0  0  0  0  0  0  0  0  0  0  0
   -3.8793   -1.9065    1.3169 H   0  0  0  0  0  0  0  0  0  0  0  0
   -3.4623   -2.6685   -0.2401 H   0  0  0  0  0  0  0  0  0  0  0  0
   -1.7863   -2.0195    0.9119 C   0  0  0  0  0  0  0  0  0  0  0  0
   -0.9073   -2.6615    1.4699 O   0  0  0  0  0  0  0  0  0  0  0  0
   -1.5803   -0.8195    0.3749 N   0  0  0  0  0  0  0  0  0  0  0  0
   -2.3603   -0.3345   -0.0451 H   0  0  0  0  0  0  0  0  0  0  0  0
   -0.2933   -0.1205    0.3719 C   0  0  1  0  0  0  0  0  0  0  0  0
    0.3577   -0.5843    1.1143 H   0  0  0  0  0  0  0  0  0  0  0  0
    0.3613   -0.2794   -1.0156 C   0  0  0  0  0  0  0  0  0  0  0  0
    0.9617   -1.1907   -1.0048 H   0  0  0  0  0  0  0  0  0  0  0  0
   -0.4182   -0.3956   -1.7700 H   0  0  0  0  0  0  0  0  0  0  0  0
    1.2604    0.9018   -1.4197 C   0  0  0  0  0  0  0  0  0  0  0  0
    2.2774    0.5510   -1.5958 H   0  0  0  0  0  0  0  0  0  0  0  0
    0.8740    1.3489   -2.3348 H   0  0  0  0  0  0  0  0  0  0  0  0
    1.3087    1.9851   -0.3471 C   0  0  0  0  0  0  0  0  0  0  0  0
    0.6215    2.0032    0.6615 O   0  0  0  0  0  0  0  0  0  0  0  0
    2.1802    2.9858   -0.5725 O   0  0  0  0  0  0  0  0  0  0  0  0
    2.0801    3.5791    0.1740 H   0  0  0  0  0  0  0  0  0  0  0  0
   -0.4860    1.3537    0.7622 C   0  0  0  0  0  0  0  0  0  0  0  0
   -1.3956    2.0096    0.2582 O   0  0  0  0  0  0  0  0  0  0  0  0
    0.3741    1.8728    1.6466 N   0  0  0  0  0  0  0  0  0  0  0  0
    1.0814    1.2667    2.0345 H   0  0  0  0  0  0  0  0  0  0  0  0
    0.3380    3.2610    2.1024 C   0  0  0  0  0  0  0  0  0  0  0  0
   -0.6389    3.4820    2.5363 H   0  0  0  0  0  0  0  0  0  0  0  0
    1.1108    3.4337    2.8528 H   0  0  0  0  0  0  0  0  0  0  0  0
    0.5009    3.9312    1.2562 H   0  0  0  0  0  0  0  0  0  0  0  0
  5  6  2  0  0  0  0
  5  7  1  0  0  0  0
  2  3  1  0  0  0  0
  2  4  1  0  0  0  0
  2  5  1  0  0  0  0
  1  2  1  0  0  0  0
 21 22  2  0  0  0  0
 21 23  1  0  0  0  0
 19 20  1  0  0  0  0
 17 18  2  0  0  0  0
 17 19  1  0  0  0  0
 14 15  1  0  0  0  0
 14 16  1  0  0  0  0
 14 17  1  0  0  0  0
 11 12  1  0  0  0  0
 11 13  1  0  0  0  0
 11 14  1  0  0  0  0
  9 10  1  0  0  0  0
  9 11  1  0  0  0  0
  9 21  1  0  0  0  0
  7  8  1  0  0  0  0
  7  9  1  0  0  0  0
 25 26  1  0  0  0  0
 25 27  1  0  0  0  0
 25 28  1  0  0  0  0
 23 24  1  0  0  0  0
 23 25  1  0  0  0  0
M  END
$$$$
default_name
  -OEChem-02102213163D

 28 27  0     1  0  0  0  0  0999 V2000
   -3.2133   -3.5565    1.2809 H   0  0  0  0  0  0  0  0  0  0  0  0
   -3.1873   -2.5755    0.8089 C   0  0  0  0  0  0  0  0  0  0  0  0
   -3.8793   -1.9065    1.3169 H   0  0  0  0  0  0  0  0  0  0  0  0
   -3.4623   -2.6685   -0.2401 H   0  0  0  0  0  0  0  0  0  0  0  0
   -1.7863   -2.0195    0.9119 C   0  0  0  0  0  0  0  0  0  0  0  0
   -0.9073   -2.6615    1.4699 O   0  0  0  0  0  0  0  0  0  0  0  0
   -1.5803   -0.8195    0.3749 N   0  0  0  0  0  0  0  0  0  0  0  0
   -2.3603   -0.3345   -0.0451 H   0  0  0  0  0  0  0  0  0  0  0  0
   -0.2933   -0.1205    0.3719 C   0  0  1  0  0  0  0  0  0  0  0  0
    0.3577   -0.5843    1.1143 H   0  0  0  0  0  0  0  0  0  0  0  0
    0.3613   -0.2794   -1.0156 C   0  0  0  0  0  0  0  0  0  0  0  0
    0.9617   -1.1907   -1.0048 H   0  0  0  0  0  0  0  0  0  0  0  0
   -0.4182   -0.3956   -1.7700 H   0  0  0  0  0  0  0  0  0  0  0  0
    1.2604    0.9018   -1.4197 C   0  0  0  0  0  0  0  0  0  0  0  0
    2.1913    0.5301   -1.8483 H   0  0  0  0  0  0  0  0  0  0  0  0
    0.7429    1.5077   -2.1624 H   0  0  0  0  0  0  0  0  0  0  0  0
    1.6054    1.7978   -0.2345 C   0  0  0  0  0  0  0  0  0  0  0  0
    1.1302    1.6924    0.8848 O   0  0  0  0  0  0  0  0  0  0  0  0
    2.4970    2.7742   -0.4861 O   0  0  0  0  0  0  0  0  0  0  0  0
    2.5930    3.2464    0.3428 H   0  0  0  0  0  0  0  0  0  0  0  0
   -0.4860    1.3537    0.7622 C   0  0  0  0  0  0  0  0  0  0  0  0
   -1.3956    2.0096    0.2582 O   0  0  0  0  0  0  0  0  0  0  0  0
    0.3741    1.8728    1.6466 N   0  0  0  0  0  0  0  0  0  0  0  0
    1.0814    1.2667    2.0345 H   0  0  0  0  0  0  0  0  0  0  0  0
    0.3380    3.2610    2.1024 C   0  0  0  0  0  0  0  0  0  0  0  0
   -0.6389    3.4820    2.5363 H   0  0  0  0  0  0  0  0  0  0  0  0
    1.1108    3.4337    2.8528 H   0  0  0  0  0  0  0  0  0  0  0  0
    0.5009    3.9312    1.2562 H   0  0  0  0  0  0  0  0  0  0  0  0
  5  6  2  0  0  0  0
  5  7  1  0  0  0  0
  2  3  1  0  0  0  0
  2  4  1  0  0  0  0
  2  5  1  0  0  0  0
  1  2  1  0  0  0  0
 21 22  2  0  0  0  0
 21 23  1  0  0  0  0
 19 20  1  0  0  0  0
 17 18  2  0  0  0  0
 17 19  1  0  0  0  0
 14 15  1  0  0  0  0
 14 16  1  0  0  0  0
 14 17  1  0  0  0  0
 11 12  1  0  0  0  0
 11 13  1  0  0  0  0
 11 14  1  0  0  0  0
  9 10  1  0  0  0  0
  9 11  1  0  0  0  0
  9 21  1  0  0  0  0
  7  8  1  0  0  0  0
  7  9  1  0  0  0  0
 25 26  1  0  0  0  0
 25 27  1  0  0  0  0
 25 28  1  0  0  0  0
 23 24  1  0  0  0  0
 23 25  1  0  0  0  0
M  END
$$$$
default_name
  -OEChem-02102213163D

 28 27  0     1  0  0  0  0  0999 V2000
   -3.2133   -3.5565    1.2809 H   0  0  0  0  0  0  0  0  0  0  0  0
   -3.1873   -2.5755    0.8089 C   0  0  0  0  0  0  0  0  0  0  0  0
   -3.8793   -1.9065    1.3169 H   0  0  0  0  0  0  0  0  0  0  0  0
   -3.4623   -2.6685   -0.2401 H   0  0  0  0  0  0  0  0  0  0  0  0
   -1.7863   -2.0195    0.9119 C   0  0  0  0  0  0  0  0  0  0  0  0
   -0.9073   -2.6615    1.4699 O   0  0  0  0  0  0  0  0  0  0  0  0
   -1.5803   -0.8195    0.3749 N   0  0  0  0  0  0  0  0  0  0  0  0
   -2.3603   -0.3345   -0.0451 H   0  0  0  0  0  0  0  0  0  0  0  0
   -0.2933   -0.1205    0.3719 C   0  0  1  0  0  0  0  0  0  0  0  0
    0.3577   -0.5843    1.1143 H   0  0  0  0  0  0  0  0  0  0  0  0
    0.3613   -0.2794   -1.0156 C   0  0  0  0  0  0  0  0  0  0  0  0
    0.9617   -1.1907   -1.0048 H   0  0  0  0  0  0  0  0  0  0  0  0
   -0.4182   -0.3956   -1.7700 H   0  0  0  0  0  0  0  0  0  0  0  0
    1.2604    0.9018   -1.4197 C   0  0  0  0  0  0  0  0  0  0  0  0
    2.0565    0.5540   -2.0782 H   0  0  0  0  0  0  0  0  0  0  0  0
    0.6612    1.6440   -1.9458 H   0  0  0  0  0  0  0  0  0  0  0  0
    1.9016    1.5796   -0.2131 C   0  0  0  0  0  0  0  0  0  0  0  0
    1.6449    1.3237    0.9524 O   0  0  0  0  0  0  0  0  0  0  0  0
    2.8058    2.5352   -0.4975 O   0  0  0  0  0  0  0  0  0  0  0  0
    3.0994    2.8647    0.3537 H   0  0  0  0  0  0  0  0  0  0  0  0
   -0.4860    1.3537    0.7622 C   0  0  0  0  0  0  0  0  0  0  0  0
   -1.3956    2.0096    0.2582 O   0  0  0  0  0  0  0  0  0  0  0  0
    0.3741    1.8728    1.6466 N   0  0  0  0  0  0  0  0  0  0  0  0
    1.0814    1.2667    2.0345 H   0  0  0  0  0  0  0  0  0  0  0  0
    0.3380    3.2610    2.1024 C   0  0  0  0  0  0  0  0  0  0  0  0
   -0.6389    3.4820    2.5363 H   0  0  0  0  0  0  0  0  0  0  0  0
    1.1108    3.4337    2.8528 H   0  0  0  0  0  0  0  0  0  0  0  0
    0.5009    3.9312    1.2562 H   0  0  0  0  0  0  0  0  0  0  0  0
  5  6  2  0  0  0  0
  5  7  1  0  0  0  0
  2  3  1  0  0  0  0
  2  4  1  0  0  0  0
  2  5  1  0  0  0  0
  1  2  1  0  0  0  0
 21 22  2  0  0  0  0
 21 23  1  0  0  0  0
 19 20  1  0  0  0  0
 17 18  2  0  0  0  0
 17 19  1  0  0  0  0
 14 15  1  0  0  0  0
 14 16  1  0  0  0  0
 14 17  1  0  0  0  0
 11 12  1  0  0  0  0
 11 13  1  0  0  0  0
 11 14  1  0  0  0  0
  9 10  1  0  0  0  0
  9 11  1  0  0  0  0
  9 21  1  0  0  0  0
  7  8  1  0  0  0  0
  7  9  1  0  0  0  0
 25 26  1  0  0  0  0
 25 27  1  0  0  0  0
 25 28  1  0  0  0  0
 23 24  1  0  0  0  0
 23 25  1  0  0  0  0
M  END
$$$$
default_name
  -OEChem-02102213163D

 28 27  0     1  0  0  0  0  0999 V2000
   -3.2133   -3.5565    1.2809 H   0  0  0  0  0  0  0  0  0  0  0  0
   -3.1873   -2.5755    0.8089 C   0  0  0  0  0  0  0  0  0  0  0  0
   -3.8793   -1.9065    1.3169 H   0  0  0  0  0  0  0  0  0  0  0  0
   -3.4623   -2.6685   -0.2401 H   0  0  0  0  0  0  0  0  0  0  0  0
   -1.7863   -2.0195    0.9119 C   0  0  0  0  0  0  0  0  0  0  0  0
   -0.9073   -2.6615    1.4699 O   0  0  0  0  0  0  0  0  0  0  0  0
   -1.5803   -0.8195    0.3749 N   0  0  0  0  0  0  0  0  0  0  0  0
   -2.3603   -0.3345   -0.0451 H   0  0  0  0  0  0  0  0  0  0  0  0
   -0.2933   -0.1205    0.3719 C   0  0  1  0  0  0  0  0  0  0  0  0
    0.3577   -0.5843    1.1143 H   0  0  0  0  0  0  0  0  0  0  0  0
    0.3613   -0.2794   -1.0156 C   0  0  0  0  0  0  0  0  0  0  0  0
    0.9617   -1.1907   -1.0048 H   0  0  0  0  0  0  0  0  0  0  0  0
   -0.4182   -0.3956   -1.7700 H   0  0  0  0  0  0  0  0  0  0  0  0
    1.2604    0.9018   -1.4197 C   0  0  0  0  0  0  0  0  0  0  0  0
    1.8823    0.6211   -2.2699 H   0  0  0  0  0  0  0  0  0  0  0  0
    0.6347    1.7484   -1.6998 H   0  0  0  0  0  0  0  0  0  0  0  0
    2.1771    1.3456   -0.2843 C   0  0  0  0  0  0  0  0  0  0  0  0
    2.1303    0.9225    0.8597 O   0  0  0  0  0  0  0  0  0  0  0  0
    3.0856    2.2851   -0.6061 O   0  0  0  0  0  0  0  0  0  0  0  0
    3.5647    2.4598    0.2058 H   0  0  0  0  0  0  0  0  0  0  0  0
   -0.4860    1.3537    0.7622 C   0  0  0  0  0  0  0  0  0  0  0  0
   -1.3956    2.0096    0.2582 O   0  0  0  0  0  0  0  0  0  0  0  0
    0.3741    1.8728    1.6466 N   0  0  0  0  0  0  0  0  0  0  0  0
    1.0814    1.2667    2.0345 H   0  0  0  0  0  0  0  0  0  0  0  0
    0.3380    3.2610    2.1024 C   0  0  0  0  0  0  0  0  0  0  0  0
   -0.6389    3.4820    2.5363 H   0  0  0  0  0  0  0  0  0  0  0  0
    1.1108    3.4337    2.8528 H   0  0  0  0  0  0  0  0  0  0  0  0
    0.5009    3.9312    1.2562 H   0  0  0  0  0  0  0  0  0  0  0  0
  5  6  2  0  0  0  0
  5  7  1  0  0  0  0
  2  3  1  0  0  0  0
  2  4  1  0  0  0  0
  2  5  1  0  0  0  0
  1  2  1  0  0  0  0
 21 22  2  0  0  0  0
 21 23  1  0  0  0  0
 19 20  1  0  0  0  0
 17 18  2  0  0  0  0
 17 19  1  0  0  0  0
 14 15  1  0  0  0  0
 14 16  1  0  0  0  0
 14 17  1  0  0  0  0
 11 12  1  0  0  0  0
 11 13  1  0  0  0  0
 11 14  1  0  0  0  0
  9 10  1  0  0  0  0
  9 11  1  0  0  0  0
  9 21  1  0  0  0  0
  7  8  1  0  0  0  0
  7  9  1  0  0  0  0
 25 26  1  0  0  0  0
 25 27  1  0  0  0  0
 25 28  1  0  0  0  0
 23 24  1  0  0  0  0
 23 25  1  0  0  0  0
M  END
$$$$
default_name
  -OEChem-02102213163D

 28 27  0     1  0  0  0  0  0999 V2000
   -3.2133   -3.5565    1.2809 H   0  0  0  0  0  0  0  0  0  0  0  0
   -3.1873   -2.5755    0.8089 C   0  0  0  0  0  0  0  0  0  0  0  0
   -3.8793   -1.9065    1.3169 H   0  0  0  0  0  0  0  0  0  0  0  0
   -3.4623   -2.6685   -0.2401 H   0  0  0  0  0  0  0  0  0  0  0  0
   -1.7863   -2.0195    0.9119 C   0  0  0  0  0  0  0  0  0  0  0  0
   -0.9073   -2.6615    1.4699 O   0  0  0  0  0  0  0  0  0  0  0  0
   -1.5803   -0.8195    0.3749 N   0  0  0  0  0  0  0  0  0  0  0  0
   -2.3603   -0.3345   -0.0451 H   0  0  0  0  0  0  0  0  0  0  0  0
   -0.2933   -0.1205    0.3719 C   0  0  1  0  0  0  0  0  0  0  0  0
    0.3577   -0.5843    1.1143 H   0  0  0  0  0  0  0  0  0  0  0  0
    0.3613   -0.2794   -1.0156 C   0  0  0  0  0  0  0  0  0  0  0  0
    0.9617   -1.1907   -1.0048 H   0  0  0  0  0  0  0  0  0  0  0  0
   -0.4182   -0.3956   -1.7700 H   0  0  0  0  0  0  0  0  0  0  0  0
    1.2604    0.9018   -1.4197 C   0  0  0  0  0  0  0  0  0  0  0  0
    1.6805    0.7267   -2.4102 H   0  0  0  0  0  0  0  0  0  0  0  0
    0.6650    1.8138   -1.4410 H   0  0  0  0  0  0  0  0  0  0  0  0
    2.4132    1.1115   -0.4432 C   0  0  0  0  0  0  0  0  0  0  0  0
    2.5536    0.5159    0.6130 O   0  0  0  0  0  0  0  0  0  0  0  0
    3.3173    2.0409   -0.8044 O   0  0  0  0  0  0  0  0  0  0  0  0
    3.9572    2.0596   -0.0907 H   0  0  0  0  0  0  0  0  0  0  0  0
   -0.4860    1.3537    0.7622 C   0  0  0  0  0  0  0  0  0  0  0  0
   -1.3956    2.0096    0.2582 O   0  0  0  0  0  0  0  0  0  0  0  0
    0.3741    1.8728    1.6466 N   0  0  0  0  0  0  0  0  0  0  0  0
    1.0814    1.2667    2.0345 H   0  0  0  0  0  0  0  0  0  0  0  0
    0.3380    3.2610    2.1024 C   0  0  0  0  0  0  0  0  0  0  0  0
   -0.6389    3.4820    2.5363 H   0  0  0  0  0  0  0  0  0  0  0  0
    1.1108    3.4337    2.8528 H   0  0  0  0  0  0  0  0  0  0  0  0
    0.5009    3.9312    1.2562 H   0  0  0  0  0  0  0  0  0  0  0  0
  5  6  2  0  0  0  0
  5  7  1  0  0  0  0
  2  3  1  0  0  0  0
  2  4  1  0  0  0  0
  2  5  1  0  0  0  0
  1  2  1  0  0  0  0
 21 22  2  0  0  0  0
 21 23  1  0  0  0  0
 19 20  1  0  0  0  0
 17 18  2  0  0  0  0
 17 19  1  0  0  0  0
 14 15  1  0  0  0  0
 14 16  1  0  0  0  0
 14 17  1  0  0  0  0
 11 12  1  0  0  0  0
 11 13  1  0  0  0  0
 11 14  1  0  0  0  0
  9 10  1  0  0  0  0
  9 11  1  0  0  0  0
  9 21  1  0  0  0  0
  7  8  1  0  0  0  0
  7  9  1  0  0  0  0
 25 26  1  0  0  0  0
 25 27  1  0  0  0  0
 25 28  1  0  0  0  0
 23 24  1  0  0  0  0
 23 25  1  0  0  0  0
M  END
$$$$
default_name
  -OEChem-02102213163D

 28 27  0     1  0  0  0  0  0999 V2000
   -3.2133   -3.5565    1.2809 H   0  0  0  0  0  0  0  0  0  0  0  0
   -3.1873   -2.5755    0.8089 C   0  0  0  0  0  0  0  0  0  0  0  0
   -3.8793   -1.9065    1.3169 H   0  0  0  0  0  0  0  0  0  0  0  0
   -3.4623   -2.6685   -0.2401 H   0  0  0  0  0  0  0  0  0  0  0  0
   -1.7863   -2.0195    0.9119 C   0  0  0  0  0  0  0  0  0  0  0  0
   -0.9073   -2.6615    1.4699 O   0  0  0  0  0  0  0  0  0  0  0  0
   -1.5803   -0.8195    0.3749 N   0  0  0  0  0  0  0  0  0  0  0  0
   -2.3603   -0.3345   -0.0451 H   0  0  0  0  0  0  0  0  0  0  0  0
   -0.2933   -0.1205    0.3719 C   0  0  1  0  0  0  0  0  0  0  0  0
    0.3577   -0.5843    1.1143 H   0  0  0  0  0  0  0  0  0  0  0  0
    0.3613   -0.2794   -1.0156 C   0  0  0  0  0  0  0  0  0  0  0  0
    0.9617   -1.1907   -1.0048 H   0  0  0  0  0  0  0  0  0  0  0  0
   -0.4182   -0.3956   -1.7700 H   0  0  0  0  0  0  0  0  0  0  0  0
    1.2604    0.9018   -1.4197 C   0  0  0  0  0  0  0  0  0  0  0  0
    1.4648    0.8636   -2.4898 H   0  0  0  0  0  0  0  0  0  0  0  0
    0.7502    1.8358   -1.1873 H   0  0  0  0  0  0  0  0  0  0  0  0
    2.5937    0.8934   -0.6789 C   0  0  0  0  0  0  0  0  0  0  0  0
    2.8857    0.1317    0.2290 O   0  0  0  0  0  0  0  0  0  0  0  0
    3.4851    1.8192   -1.0789 O   0  0  0  0  0  0  0  0  0  0  0  0
    4.2503    1.6911   -0.5156 H   0  0  0  0  0  0  0  0  0  0  0  0
   -0.4860    1.3537    0.7622 C   0  0  0  0  0  0  0  0  0  0  0  0
   -1.3956    2.0096    0.2582 O   0  0  0  0  0  0  0  0  0  0  0  0
    0.3741    1.8728    1.6466 N   0  0  0  0  0  0  0  0  0  0  0  0
    1.0814    1.2667    2.0345 H   0  0  0  0  0  0  0  0  0  0  0  0
    0.3380    3.2610    2.1024 C   0  0  0  0  0  0  0  0  0  0  0  0
   -0.6389    3.4820    2.5363 H   0  0  0  0  0  0  0  0  0  0  0  0
    1.1108    3.4337    2.8528 H   0  0  0  0  0  0  0  0  0  0  0  0
    0.5009    3.9312    1.2562 H   0  0  0  0  0  0  0  0  0  0  0  0
  5  6  2  0  0  0  0
  5  7  1  0  0  0  0
  2  3  1  0  0  0  0
  2  4  1  0  0  0  0
  2  5  1  0  0  0  0
  1  2  1  0  0  0  0
 21 22  2  0  0  0  0
 21 23  1  0  0  0  0
 19 20  1  0  0  0  0
 17 18  2  0  0  0  0
 17 19  1  0  0  0  0
 14 15  1  0  0  0  0
 14 16  1  0  0  0  0
 14 17  1  0  0  0  0
 11 12  1  0  0  0  0
 11 13  1  0  0  0  0
 11 14  1  0  0  0  0
  9 10  1  0  0  0  0
  9 11  1  0  0  0  0
  9 21  1  0  0  0  0
  7  8  1  0  0  0  0
  7  9  1  0  0  0  0
 25 26  1  0  0  0  0
 25 27  1  0  0  0  0
 25 28  1  0  0  0  0
 23 24  1  0  0  0  0
 23 25  1  0  0  0  0
M  END
$$$$
default_name
  -OEChem-02102213163D

 28 27  0     1  0  0  0  0  0999 V2000
   -3.2133   -3.5565    1.2809 H   0  0  0  0  0  0  0  0  0  0  0  0
   -3.1873   -2.5755    0.8089 C   0  0  0  0  0  0  0  0  0  0  0  0
   -3.8793   -1.9065    1.3169 H   0  0  0  0  0  0  0  0  0  0  0  0
   -3.4623   -2.6685   -0.2401 H   0  0  0  0  0  0  0  0  0  0  0  0
   -1.7863   -2.0195    0.9119 C   0  0  0  0  0  0  0  0  0  0  0  0
   -0.9073   -2.6615    1.4699 O   0  0  0  0  0  0  0  0  0  0  0  0
   -1.5803   -0.8195    0.3749 N   0  0  0  0  0  0  0  0  0  0  0  0
   -2.3603   -0.3345   -0.0451 H   0  0  0  0  0  0  0  0  0  0  0  0
   -0.2933   -0.1205    0.3719 C   0  0  1  0  0  0  0  0  0  0  0  0
    0.3577   -0.5843    1.1143 H   0  0  0  0  0  0  0  0  0  0  0  0
    0.3613   -0.2794   -1.0156 C   0  0  0  0  0  0  0  0  0  0  0  0
    0.9617   -1.1907   -1.0048 H   0  0  0  0  0  0  0  0  0  0  0  0
   -0.4182   -0.3956   -1.7700 H   0  0  0  0  0  0  0  0  0  0  0  0
    1.2604    0.9018   -1.4197 C   0  0  0  0  0  0  0  0  0  0  0  0
    1.2500    1.0226   -2.5030 H   0  0  0  0  0  0  0  0  0  0  0  0
    0.8844    1.8128   -0.9557 H   0  0  0  0  0  0  0  0  0  0  0  0
    2.7064    0.7061   -0.9756 C   0  0  0  0  0  0  0  0  0  0  0  0
    3.1041   -0.2039   -0.2659 O   0  0  0  0  0  0  0  0  0  0  0  0
    3.5775    1.6353   -1.4109 O   0  0  0  0  0  0  0  0  0  0  0  0
    4.4239    1.3795   -1.0401 H   0  0  0  0  0  0  0  0  0  0  0  0
   -0.4860    1.3537    0.7622 C   0  0  0  0  0  0  0  0  0  0  0  0
   -1.3956    2.0096    0.2582 O   0  0  0  0  0  0  0  0  0  0  0  0
    0.3741    1.8728    1.6466 N   0  0  0  0  0  0  0  0  0  0  0  0
    1.0814    1.2667    2.0345 H   0  0  0  0  0  0  0  0  0  0  0  0
    0.3380    3.2610    2.1024 C   0  0  0  0  0  0  0  0  0  0  0  0
   -0.6389    3.4820    2.5363 H   0  0  0  0  0  0  0  0  0  0  0  0
    1.1108    3.4337    2.8528 H   0  0  0  0  0  0  0  0  0  0  0  0
    0.5009    3.9312    1.2562 H   0  0  0  0  0  0  0  0  0  0  0  0
  5  6  2  0  0  0  0
  5  7  1  0  0  0  0
  2  3  1  0  0  0  0
  2  4  1  0  0  0  0
  2  5  1  0  0  0  0
  1  2  1  0  0  0  0
 21 22  2  0  0  0  0
 21 23  1  0  0  0  0
 19 20  1  0  0  0  0
 17 18  2  0  0  0  0
 17 19  1  0  0  0  0
 14 15  1  0  0  0  0
 14 16  1  0  0  0  0
 14 17  1  0  0  0  0
 11 12  1  0  0  0  0
 11 13  1  0  0  0  0
 11 14  1  0  0  0  0
  9 10  1  0  0  0  0
  9 11  1  0  0  0  0
  9 21  1  0  0  0  0
  7  8  1  0  0  0  0
  7  9  1  0  0  0  0
 25 26  1  0  0  0  0
 25 27  1  0  0  0  0
 25 28  1  0  0  0  0
 23 24  1  0  0  0  0
 23 25  1  0  0  0  0
M  END
$$$$
default_name
  -OEChem-02102213163D

 28 27  0     1  0  0  0  0  0999 V2000
   -3.2133   -3.5565    1.2809 H   0  0  0  0  0  0  0  0  0  0  0  0
   -3.1873   -2.5755    0.8089 C   0  0  0  0  0  0  0  0  0  0  0  0
   -3.8793   -1.9065    1.3169 H   0  0  0  0  0  0  0  0  0  0  0  0
   -3.4623   -2.6685   -0.2401 H   0  0  0  0  0  0  0  0  0  0  0  0
   -1.7863   -2.0195    0.9119 C   0  0  0  0  0  0  0  0  0  0  0  0
   -0.9073   -2.6615    1.4699 O   0  0  0  0  0  0  0  0  0  0  0  0
   -1.5803   -0.8195    0.3749 N   0  0  0  0  0  0  0  0  0  0  0  0
   -2.3603   -0.3345   -0.0451 H   0  0  0  0  0  0  0  0  0  0  0  0
   -0.2933   -0.1205    0.3719 C   0  0  1  0  0  0  0  0  0  0  0  0
    0.3577   -0.5843    1.1143 H   0  0  0  0  0  0  0  0  0  0  0  0
    0.3613   -0.2794   -1.0156 C   0  0  0  0  0  0  0  0  0  0  0  0
    0.9617   -1.1907   -1.0048 H   0  0  0  0  0  0  0  0  0  0  0  0
   -0.4182   -0.3956   -1.7700 H   0  0  0  0  0  0  0  0  0  0  0  0
    1.2604    0.9018   -1.4197 C   0  0  0  0  0  0  0  0  0  0  0  0
    1.0508    1.1927   -2.4491 H   0  0  0  0  0  0  0  0  0  0  0  0
    1.0585    1.7465   -0.7622 H   0  0  0  0  0  0  0  0  0  0  0  0
    2.7436    0.5624   -1.3128 C   0  0  0  0  0  0  0  0  0  0  0  0
    3.1939   -0.4681   -0.8381 O   0  0  0  0  0  0  0  0  0  0  0  0
    3.5883    1.5015   -1.7778 O   0  0  0  0  0  0  0  0  0  0  0  0
    4.4661    1.1461   -1.6283 H   0  0  0  0  0  0  0  0  0  0  0  0
   -0.4860    1.3537    0.7622 C   0  0  0  0  0  0  0  0  0  0  0  0
   -1.3956    2.0096    0.2582 O   0  0  0  0  0  0  0  0  0  0  0  0
    0.3741    1.8728    1.6466 N   0  0  0  0  0  0  0  0  0  0  0  0
    1.0814    1.2667    2.0345 H   0  0  0  0  0  0  0  0  0  0  0  0
    0.3380    3.2610    2.1024 C   0  0  0  0  0  0  0  0  0  0  0  0
   -0.6389    3.4820    2.5363 H   0  0  0  0  0  0  0  0  0  0  0  0
    1.1108    3.4337    2.8528 H   0  0  0  0  0  0  0  0  0  0  0  0
    0.5009    3.9312    1.2562 H   0  0  0  0  0  0  0  0  0  0  0  0
  5  6  2  0  0  0  0
  5  7  1  0  0  0  0
  2  3  1  0  0  0  0
  2  4  1  0  0  0  0
  2  5  1  0  0  0  0
  1  2  1  0  0  0  0
 21 22  2  0  0  0  0
 21 23  1  0  0  0  0
 19 20  1  0  0  0  0
 17 18  2  0  0  0  0
 17 19  1  0  0  0  0
 14 15  1  0  0  0  0
 14 16  1  0  0  0  0
 14 17  1  0  0  0  0
 11 12  1  0  0  0  0
 11 13  1  0  0  0  0
 11 14  1  0  0  0  0
  9 10  1  0  0  0  0
  9 11  1  0  0  0  0
  9 21  1  0  0  0  0
  7  8  1  0  0  0  0
  7  9  1  0  0  0  0
 25 26  1  0  0  0  0
 25 27  1  0  0  0  0
 25 28  1  0  0  0  0
 23 24  1  0  0  0  0
 23 25  1  0  0  0  0
M  END
$$$$
default_name
  -OEChem-02102213163D

 28 27  0     1  0  0  0  0  0999 V2000
   -3.2133   -3.5565    1.2809 H   0  0  0  0  0  0  0  0  0  0  0  0
   -3.1873   -2.5755    0.8089 C   0  0  0  0  0  0  0  0  0  0  0  0
   -3.8793   -1.9065    1.3169 H   0  0  0  0  0  0  0  0  0  0  0  0
   -3.4623   -2.6685   -0.2401 H   0  0  0  0  0  0  0  0  0  0  0  0
   -1.7863   -2.0195    0.9119 C   0  0  0  0  0  0  0  0  0  0  0  0
   -0.9073   -2.6615    1.4699 O   0  0  0  0  0  0  0  0  0  0  0  0
   -1.5803   -0.8195    0.3749 N   0  0  0  0  0  0  0  0  0  0  0  0
   -2.3603   -0.3345   -0.0451 H   0  0  0  0  0  0  0  0  0  0  0  0
   -0.2933   -0.1205    0.3719 C   0  0  1  0  0  0  0  0  0  0  0  0
    0.3577   -0.5843    1.1143 H   0  0  0  0  0  0  0  0  0  0  0  0
    0.3613   -0.2794   -1.0156 C   0  0  0  0  0  0  0  0  0  0  0  0
    0.9617   -1.1907   -1.0048 H   0  0  0  0  0  0  0  0  0  0  0  0
   -0.4182   -0.3956   -1.7700 H   0  0  0  0  0  0  0  0  0  0  0  0
    1.2604    0.9018   -1.4197 C   0  0  0  0  0  0  0  0  0  0  0  0
    0.8805    1.3625   -2.3316 H   0  0  0  0  0  0  0  0  0  0  0  0
    1.2606    1.6414   -0.6199 H   0  0  0  0  0  0  0  0  0  0  0  0
    2.7028    0.4721   -1.6677 C   0  0  0  0  0  0  0  0  0  0  0  0
    3.1489   -0.6428   -1.4487 O   0  0  0  0  0  0  0  0  0  0  0  0
    3.5167    1.4271   -2.1546 O   0  0  0  0  0  0  0  0  0  0  0  0
    4.3742    1.0067   -2.2402 H   0  0  0  0  0  0  0  0  0  0  0  0
   -0.4860    1.3537    0.7622 C   0  0  0  0  0  0  0  0  0  0  0  0
   -1.3956    2.0096    0.2582 O   0  0  0  0  0  0  0  0  0  0  0  0
    0.3741    1.8728    1.6466 N   0  0  0  0  0  0  0  0  0  0  0  0
    1.0814    1.2667    2.0345 H   0  0  0  0  0  0  0  0  0  0  0  0
    0.3380    3.2610    2.1024 C   0  0  0  0  0  0  0  0  0  0  0  0
   -0.6389    3.4820    2.5363 H   0  0  0  0  0  0  0  0  0  0  0  0
    1.1108    3.4337    2.8528 H   0  0  0  0  0  0  0  0  0  0  0  0
    0.5009    3.9312    1.2562 H   0  0  0  0  0  0  0  0  0  0  0  0
  5  6  2  0  0  0  0
  5  7  1  0  0  0  0
  2  3  1  0  0  0  0
  2  4  1  0  0  0  0
  2  5  1  0  0  0  0
  1  2  1  0  0  0  0
 21 22  2  0  0  0  0
 21 23  1  0  0  0  0
 19 20  1  0  0  0  0
 17 18  2  0  0  0  0
 17 19  1  0  0  0  0
 14 15  1  0  0  0  0
 14 16  1  0  0  0  0
 14 17  1  0  0  0  0
 11 12  1  0  0  0  0
 11 13  1  0  0  0  0
 11 14  1  0  0  0  0
  9 10  1  0  0  0  0
  9 11  1  0  0  0  0
  9 21  1  0  0  0  0
  7  8  1  0  0  0  0
  7  9  1  0  0  0  0
 25 26  1  0  0  0  0
 25 27  1  0  0  0  0
 25 28  1  0  0  0  0
 23 24  1  0  0  0  0
 23 25  1  0  0  0  0
M  END
$$$$
default_name
  -OEChem-02102213163D

 28 27  0     1  0  0  0  0  0999 V2000
   -3.2133   -3.5565    1.2809 H   0  0  0  0  0  0  0  0  0  0  0  0
   -3.1873   -2.5755    0.8089 C   0  0  0  0  0  0  0  0  0  0  0  0
   -3.8793   -1.9065    1.3169 H   0  0  0  0  0  0  0  0  0  0  0  0
   -3.4623   -2.6685   -0.2401 H   0  0  0  0  0  0  0  0  0  0  0  0
   -1.7863   -2.0195    0.9119 C   0  0  0  0  0  0  0  0  0  0  0  0
   -0.9073   -2.6615    1.4699 O   0  0  0  0  0  0  0  0  0  0  0  0
   -1.5803   -0.8195    0.3749 N   0  0  0  0  0  0  0  0  0  0  0  0
   -2.3603   -0.3345   -0.0451 H   0  0  0  0  0  0  0  0  0  0  0  0
   -0.2933   -0.1205    0.3719 C   0  0  1  0  0  0  0  0  0  0  0  0
    0.3577   -0.5843    1.1143 H   0  0  0  0  0  0  0  0  0  0  0  0
    0.3613   -0.2794   -1.0156 C   0  0  0  0  0  0  0  0  0  0  0  0
    0.9617   -1.1907   -1.0048 H   0  0  0  0  0  0  0  0  0  0  0  0
   -0.4182   -0.3956   -1.7700 H   0  0  0  0  0  0  0  0  0  0  0  0
    1.2604    0.9018   -1.4197 C   0  0  0  0  0  0  0  0  0  0  0  0
    0.7510    1.5203   -2.1587 H   0  0  0  0  0  0  0  0  0  0  0  0
    1.4769    1.5046   -0.5385 H   0  0  0  0  0  0  0  0  0  0  0  0
    2.5867    0.4413   -2.0160 C   0  0  0  0  0  0  0  0  0  0  0  0
    2.9723   -0.7161   -2.0559 O   0  0  0  0  0  0  0  0  0  0  0  0
    3.3676    1.4170   -2.5156 O   0  0  0  0  0  0  0  0  0  0  0  0
    4.1543    0.9709   -2.8340 H   0  0  0  0  0  0  0  0  0  0  0  0
   -0.4860    1.3537    0.7622 C   0  0  0  0  0  0  0  0  0  0  0  0
   -1.3956    2.0096    0.2582 O   0  0  0  0  0  0  0  0  0  0  0  0
    0.3741    1.8728    1.6466 N   0  0  0  0  0  0  0  0  0  0  0  0
    1.0814    1.2667    2.0345 H   0  0  0  0  0  0  0  0  0  0  0  0
    0.3380    3.2610    2.1024 C   0  0  0  0  0  0  0  0  0  0  0  0
   -0.6389    3.4820    2.5363 H   0  0  0  0  0  0  0  0  0  0  0  0
    1.1108    3.4337    2.8528 H   0  0  0  0  0  0  0  0  0  0  0  0
    0.5009    3.9312    1.2562 H   0  0  0  0  0  0  0  0  0  0  0  0
  5  6  2  0  0  0  0
  5  7  1  0  0  0  0
  2  3  1  0  0  0  0
  2  4  1  0  0  0  0
  2  5  1  0  0  0  0
  1  2  1  0  0  0  0
 21 22  2  0  0  0  0
 21 23  1  0  0  0  0
 19 20  1  0  0  0  0
 17 18  2  0  0  0  0
 17 19  1  0  0  0  0
 14 15  1  0  0  0  0
 14 16  1  0  0  0  0
 14 17  1  0  0  0  0
 11 12  1  0  0  0  0
 11 13  1  0  0  0  0
 11 14  1  0  0  0  0
  9 10  1  0  0  0  0
  9 11  1  0  0  0  0
  9 21  1  0  0  0  0
  7  8  1  0  0  0  0
  7  9  1  0  0  0  0
 25 26  1  0  0  0  0
 25 27  1  0  0  0  0
 25 28  1  0  0  0  0
 23 24  1  0  0  0  0
 23 25  1  0  0  0  0
M  END
$$$$
default_name
  -OEChem-02102213163D

 28 27  0     1  0  0  0  0  0999 V2000
   -3.2133   -3.5565    1.2809 H   0  0  0  0  0  0  0  0  0  0  0  0
   -3.1873   -2.5755    0.8089 C   0  0  0  0  0  0  0  0  0  0  0  0
   -3.8793   -1.9065    1.3169 H   0  0  0  0  0  0  0  0  0  0  0  0
   -3.4623   -2.6685   -0.2401 H   0  0  0  0  0  0  0  0  0  0  0  0
   -1.7863   -2.0195    0.9119 C   0  0  0  0  0  0  0  0  0  0  0  0
   -0.9073   -2.6615    1.4699 O   0  0  0  0  0  0  0  0  0  0  0  0
   -1.5803   -0.8195    0.3749 N   0  0  0  0  0  0  0  0  0  0  0  0
   -2.3603   -0.3345   -0.0451 H   0  0  0  0  0  0  0  0  0  0  0  0
   -0.2933   -0.1205    0.3719 C   0  0  1  0  0  0  0  0  0  0  0  0
    0.3577   -0.5843    1.1143 H   0  0  0  0  0  0  0  0  0  0  0  0
    0.3613   -0.2794   -1.0156 C   0  0  0  0  0  0  0  0  0  0  0  0
    0.9617   -1.1907   -1.0048 H   0  0  0  0  0  0  0  0  0  0  0  0
   -0.4182   -0.3956   -1.7700 H   0  0  0  0  0  0  0  0  0  0  0  0
    1.2604    0.9018   -1.4197 C   0  0  0  0  0  0  0  0  0  0  0  0
    0.6709    1.6553   -1.9421 H   0  0  0  0  0  0  0  0  0  0  0  0
    1.6928    1.3454   -0.5236 H   0  0  0  0  0  0  0  0  0  0  0  0
    2.4032    0.4721   -2.3340 C   0  0  0  0  0  0  0  0  0  0  0  0
    2.6761   -0.6831   -2.6185 O   0  0  0  0  0  0  0  0  0  0  0  0
    3.1513    1.4721   -2.8362 O   0  0  0  0  0  0  0  0  0  0  0  0
    3.8215    1.0410   -3.3693 H   0  0  0  0  0  0  0  0  0  0  0  0
   -0.4860    1.3537    0.7622 C   0  0  0  0  0  0  0  0  0  0  0  0
   -1.3956    2.0096    0.2582 O   0  0  0  0  0  0  0  0  0  0  0  0
    0.3741    1.8728    1.6466 N   0  0  0  0  0  0  0  0  0  0  0  0
    1.0814    1.2667    2.0345 H   0  0  0  0  0  0  0  0  0  0  0  0
    0.3380    3.2610    2.1024 C   0  0  0  0  0  0  0  0  0  0  0  0
   -0.6389    3.4820    2.5363 H   0  0  0  0  0  0  0  0  0  0  0  0
    1.1108    3.4337    2.8528 H   0  0  0  0  0  0  0  0  0  0  0  0
    0.5009    3.9312    1.2562 H   0  0  0  0  0  0  0  0  0  0  0  0
  5  6  2  0  0  0  0
  5  7  1  0  0  0  0
  2  3  1  0  0  0  0
  2  4  1  0  0  0  0
  2  5  1  0  0  0  0
  1  2  1  0  0  0  0
 21 22  2  0  0  0  0
 21 23  1  0  0  0  0
 19 20  1  0  0  0  0
 17 18  2  0  0  0  0
 17 19  1  0  0  0  0
 14 15  1  0  0  0  0
 14 16  1  0  0  0  0
 14 17  1  0  0  0  0
 11 12  1  0  0  0  0
 11 13  1  0  0  0  0
 11 14  1  0  0  0  0
  9 10  1  0  0  0  0
  9 11  1  0  0  0  0
  9 21  1  0  0  0  0
  7  8  1  0  0  0  0
  7  9  1  0  0  0  0
 25 26  1  0  0  0  0
 25 27  1  0  0  0  0
 25 28  1  0  0  0  0
 23 24  1  0  0  0  0
 23 25  1  0  0  0  0
M  END
$$$$
default_name
  -OEChem-02102213163D

 28 27  0     1  0  0  0  0  0999 V2000
   -3.2133   -3.5565    1.2809 H   0  0  0  0  0  0  0  0  0  0  0  0
   -3.1873   -2.5755    0.8089 C   0  0  0  0  0  0  0  0  0  0  0  0
   -3.8793   -1.9065    1.3169 H   0  0  0  0  0  0  0  0  0  0  0  0
   -3.4623   -2.6685   -0.2401 H   0  0  0  0  0  0  0  0  0  0  0  0
   -1.7863   -2.0195    0.9119 C   0  0  0  0  0  0  0  0  0  0  0  0
   -0.9073   -2.6615    1.4699 O   0  0  0  0  0  0  0  0  0  0  0  0
   -1.5803   -0.8195    0.3749 N   0  0  0  0  0  0  0  0  0  0  0  0
   -2.3603   -0.3345   -0.0451 H   0  0  0  0  0  0  0  0  0  0  0  0
   -0.2933   -0.1205    0.3719 C   0  0  1  0  0  0  0  0  0  0  0  0
    0.3577   -0.5843    1.1143 H   0  0  0  0  0  0  0  0  0  0  0  0
    0.3613   -0.2794   -1.0156 C   0  0  0  0  0  0  0  0  0  0  0  0
    0.9617   -1.1907   -1.0048 H   0  0  0  0  0  0  0  0  0  0  0  0
   -0.4182   -0.3956   -1.7700 H   0  0  0  0  0  0  0  0  0  0  0  0
    1.2604    0.9018   -1.4197 C   0  0  0  0  0  0  0  0  0  0  0  0
    0.6459    1.7585   -1.6965 H   0  0  0  0  0  0  0  0  0  0  0  0
    1.8934    1.1747   -0.5761 H   0  0  0  0  0  0  0  0  0  0  0  0
    2.1649    0.5625   -2.6001 C   0  0  0  0  0  0  0  0  0  0  0  0
    2.2804   -0.5459   -3.0980 O   0  0  0  0  0  0  0  0  0  0  0  0
    2.8823    1.5884   -3.0945 O   0  0  0  0  0  0  0  0  0  0  0  0
    3.3984    1.2124   -3.8097 H   0  0  0  0  0  0  0  0  0  0  0  0
   -0.4860    1.3537    0.7622 C   0  0  0  0  0  0  0  0  0  0  0  0
   -1.3956    2.0096    0.2582 O   0  0  0  0  0  0  0  0  0  0  0  0
    0.3741    1.8728    1.6466 N   0  0  0  0  0  0  0  0  0  0  0  0
    1.0814    1.2667    2.0345 H   0  0  0  0  0  0  0  0  0  0  0  0
    0.3380    3.2610    2.1024 C   0  0  0  0  0  0  0  0  0  0  0  0
   -0.6389    3.4820    2.5363 H   0  0  0  0  0  0  0  0  0  0  0  0
    1.1108    3.4337    2.8528 H   0  0  0  0  0  0  0  0  0  0  0  0
    0.5009    3.9312    1.2562 H   0  0  0  0  0  0  0  0  0  0  0  0
  5  6  2  0  0  0  0
  5  7  1  0  0  0  0
  2  3  1  0  0  0  0
  2  4  1  0  0  0  0
  2  5  1  0  0  0  0
  1  2  1  0  0  0  0
 21 22  2  0  0  0  0
 21 23  1  0  0  0  0
 19 20  1  0  0  0  0
 17 18  2  0  0  0  0
 17 19  1  0  0  0  0
 14 15  1  0  0  0  0
 14 16  1  0  0  0  0
 14 17  1  0  0  0  0
 11 12  1  0  0  0  0
 11 13  1  0  0  0  0
 11 14  1  0  0  0  0
  9 10  1  0  0  0  0
  9 11  1  0  0  0  0
  9 21  1  0  0  0  0
  7  8  1  0  0  0  0
  7  9  1  0  0  0  0
 25 26  1  0  0  0  0
 25 27  1  0  0  0  0
 25 28  1  0  0  0  0
 23 24  1  0  0  0  0
 23 25  1  0  0  0  0
M  END
$$$$
default_name
  -OEChem-02102213163D

 28 27  0     1  0  0  0  0  0999 V2000
   -3.2133   -3.5565    1.2809 H   0  0  0  0  0  0  0  0  0  0  0  0
   -3.1873   -2.5755    0.8089 C   0  0  0  0  0  0  0  0  0  0  0  0
   -3.8793   -1.9065    1.3169 H   0  0  0  0  0  0  0  0  0  0  0  0
   -3.4623   -2.6685   -0.2401 H   0  0  0  0  0  0  0  0  0  0  0  0
   -1.7863   -2.0195    0.9119 C   0  0  0  0  0  0  0  0  0  0  0  0
   -0.9073   -2.6615    1.4699 O   0  0  0  0  0  0  0  0  0  0  0  0
   -1.5803   -0.8195    0.3749 N   0  0  0  0  0  0  0  0  0  0  0  0
   -2.3603   -0.3345   -0.0451 H   0  0  0  0  0  0  0  0  0  0  0  0
   -0.2933   -0.1205    0.3719 C   0  0  1  0  0  0  0  0  0  0  0  0
    0.3577   -0.5843    1.1143 H   0  0  0  0  0  0  0  0  0  0  0  0
    0.3613   -0.2794   -1.0156 C   0  0  0  0  0  0  0  0  0  0  0  0
    0.7337   -1.3018   -1.0996 H   0  0  0  0  0  0  0  0  0  0  0  0
   -0.3933   -0.1285   -1.7889 H   0  0  0  0  0  0  0  0  0  0  0  0
    1.5246    0.6944   -1.2713 C   0  0  0  0  0  0  0  0  0  0  0  0
    1.1717    1.7228   -1.1940 H   0  0  0  0  0  0  0  0  0  0  0  0
    2.3016    0.5271   -0.5264 H   0  0  0  0  0  0  0  0  0  0  0  0
    2.1440    0.5052   -2.6523 C   0  0  0  0  0  0  0  0  0  0  0  0
    1.8608   -0.3919   -3.4300 O   0  0  0  0  0  0  0  0  0  0  0  0
    3.0780    1.4107   -2.9978 O   0  0  0  0  0  0  0  0  0  0  0  0
    3.3715    1.1478   -3.8719 H   0  0  0  0  0  0  0  0  0  0  0  0
   -0.4860    1.3537    0.7622 C   0  0  0  0  0  0  0  0  0  0  0  0
   -1.3956    2.0096    0.2582 O   0  0  0  0  0  0  0  0  0  0  0  0
    0.3741    1.8728    1.6466 N   0  0  0  0  0  0  0  0  0  0  0  0
    1.0814    1.2667    2.0345 H   0  0  0  0  0  0  0  0  0  0  0  0
    0.3380    3.2610    2.1024 C   0  0  0  0  0  0  0  0  0  0  0  0
   -0.6389    3.4820    2.5363 H   0  0  0  0  0  0  0  0  0  0  0  0
    1.1108    3.4337    2.8528 H   0  0  0  0  0  0  0  0  0  0  0  0
    0.5009    3.9312    1.2562 H   0  0  0  0  0  0  0  0  0  0  0  0
  5  6  2  0  0  0  0
  5  7  1  0  0  0  0
  2  3  1  0  0  0  0
  2  4  1  0  0  0  0
  2  5  1  0  0  0  0
  1  2  1  0  0  0  0
 21 22  2  0  0  0  0
 21 23  1  0  0  0  0
 19 20  1  0  0  0  0
 17 18  2  0  0  0  0
 17 19  1  0  0  0  0
 14 15  1  0  0  0  0
 14 16  1  0  0  0  0
 14 17  1  0  0  0  0
 11 12  1  0  0  0  0
 11 13  1  0  0  0  0
 11 14  1  0  0  0  0
  9 10  1  0  0  0  0
  9 11  1  0  0  0  0
  9 21  1  0  0  0  0
  7  8  1  0  0  0  0
  7  9  1  0  0  0  0
 25 26  1  0  0  0  0
 25 27  1  0  0  0  0
 25 28  1  0  0  0  0
 23 24  1  0  0  0  0
 23 25  1  0  0  0  0
M  END
$$$$
default_name
  -OEChem-02102213163D

 28 27  0     1  0  0  0  0  0999 V2000
   -3.2133   -3.5565    1.2809 H   0  0  0  0  0  0  0  0  0  0  0  0
   -3.1873   -2.5755    0.8089 C   0  0  0  0  0  0  0  0  0  0  0  0
   -3.8793   -1.9065    1.3169 H   0  0  0  0  0  0  0  0  0  0  0  0
   -3.4623   -2.6685   -0.2401 H   0  0  0  0  0  0  0  0  0  0  0  0
   -1.7863   -2.0195    0.9119 C   0  0  0  0  0  0  0  0  0  0  0  0
   -0.9073   -2.6615    1.4699 O   0  0  0  0  0  0  0  0  0  0  0  0
   -1.5803   -0.8195    0.3749 N   0  0  0  0  0  0  0  0  0  0  0  0
   -2.3603   -0.3345   -0.0451 H   0  0  0  0  0  0  0  0  0  0  0  0
   -0.2933   -0.1205    0.3719 C   0  0  1  0  0  0  0  0  0  0  0  0
    0.3577   -0.5843    1.1143 H   0  0  0  0  0  0  0  0  0  0  0  0
    0.3613   -0.2794   -1.0156 C   0  0  0  0  0  0  0  0  0  0  0  0
    0.7337   -1.3018   -1.0996 H   0  0  0  0  0  0  0  0  0  0  0  0
   -0.3933   -0.1285   -1.7889 H   0  0  0  0  0  0  0  0  0  0  0  0
    1.5246    0.6944   -1.2713 C   0  0  0  0  0  0  0  0  0  0  0  0
    1.2502    1.6959   -0.9397 H   0  0  0  0  0  0  0  0  0  0  0  0
    2.3992    0.3613   -0.7138 H   0  0  0  0  0  0  0  0  0  0  0  0
    1.9034    0.7678   -2.7470 C   0  0  0  0  0  0  0  0  0  0  0  0
    1.4471    0.0515   -3.6237 O   0  0  0  0  0  0  0  0  0  0  0  0
    2.8224    1.6986   -3.0641 O   0  0  0  0  0  0  0  0  0  0  0  0
    2.9566    1.6075   -4.0091 H   0  0  0  0  0  0  0  0  0  0  0  0
   -0.4860    1.3537    0.7622 C   0  0  0  0  0  0  0  0  0  0  0  0
   -1.3956    2.0096    0.2582 O   0  0  0  0  0  0  0  0  0  0  0  0
    0.3741    1.8728    1.6466 N   0  0  0  0  0  0  0  0  0  0  0  0
    1.0814    1.2667    2.0345 H   0  0  0  0  0  0  0  0  0  0  0  0
    0.3380    3.2610    2.1024 C   0  0  0  0  0  0  0  0  0  0  0  0
   -0.6389    3.4820    2.5363 H   0  0  0  0  0  0  0  0  0  0  0  0
    1.1108    3.4337    2.8528 H   0  0  0  0  0  0  0  0  0  0  0  0
    0.5009    3.9312    1.2562 H   0  0  0  0  0  0  0  0  0  0  0  0
  5  6  2  0  0  0  0
  5  7  1  0  0  0  0
  2  3  1  0  0  0  0
  2  4  1  0  0  0  0
  2  5  1  0  0  0  0
  1  2  1  0  0  0  0
 21 22  2  0  0  0  0
 21 23  1  0  0  0  0
 19 20  1  0  0  0  0
 17 18  2  0  0  0  0
 17 19  1  0  0  0  0
 14 15  1  0  0  0  0
 14 16  1  0  0  0  0
 14 17  1  0  0  0  0
 11 12  1  0  0  0  0
 11 13  1  0  0  0  0
 11 14  1  0  0  0  0
  9 10  1  0  0  0  0
  9 11  1  0  0  0  0
  9 21  1  0  0  0  0
  7  8  1  0  0  0  0
  7  9  1  0  0  0  0
 25 26  1  0  0  0  0
 25 27  1  0  0  0  0
 25 28  1  0  0  0  0
 23 24  1  0  0  0  0
 23 25  1  0  0  0  0
M  END
$$$$
default_name
  -OEChem-02102213163D

 28 27  0     1  0  0  0  0  0999 V2000
   -3.2133   -3.5565    1.2809 H   0  0  0  0  0  0  0  0  0  0  0  0
   -3.1873   -2.5755    0.8089 C   0  0  0  0  0  0  0  0  0  0  0  0
   -3.8793   -1.9065    1.3169 H   0  0  0  0  0  0  0  0  0  0  0  0
   -3.4623   -2.6685   -0.2401 H   0  0  0  0  0  0  0  0  0  0  0  0
   -1.7863   -2.0195    0.9119 C   0  0  0  0  0  0  0  0  0  0  0  0
   -0.9073   -2.6615    1.4699 O   0  0  0  0  0  0  0  0  0  0  0  0
   -1.5803   -0.8195    0.3749 N   0  0  0  0  0  0  0  0  0  0  0  0
   -2.3603   -0.3345   -0.0451 H   0  0  0  0  0  0  0  0  0  0  0  0
   -0.2933   -0.1205    0.3719 C   0  0  1  0  0  0  0  0  0  0  0  0
    0.3577   -0.5843    1.1143 H   0  0  0  0  0  0  0  0  0  0  0  0
    0.3613   -0.2794   -1.0156 C   0  0  0  0  0  0  0  0  0  0  0  0
    0.7337   -1.3018   -1.0996 H   0  0  0  0  0  0  0  0  0  0  0  0
   -0.3933   -0.1285   -1.7889 H   0  0  0  0  0  0  0  0  0  0  0  0
    1.5246    0.6944   -1.2713 C   0  0  0  0  0  0  0  0  0  0  0  0
    1.3665    1.6166   -0.7122 H   0  0  0  0  0  0  0  0  0  0  0  0
    2.4556    0.2336   -0.9433 H   0  0  0  0  0  0  0  0  0  0  0  0
    1.6668    1.0502   -2.7477 C   0  0  0  0  0  0  0  0  0  0  0  0
    1.0348    0.5355   -3.6562 O   0  0  0  0  0  0  0  0  0  0  0  0
    2.5771    2.0007   -3.0299 O   0  0  0  0  0  0  0  0  0  0  0  0
    2.5531    2.0962   -3.9836 H   0  0  0  0  0  0  0  0  0  0  0  0
   -0.4860    1.3537    0.7622 C   0  0  0  0  0  0  0  0  0  0  0  0
   -1.3956    2.0096    0.2582 O   0  0  0  0  0  0  0  0  0  0  0  0
    0.3741    1.8728    1.6466 N   0  0  0  0  0  0  0  0  0  0  0  0
    1.0814    1.2667    2.0345 H   0  0  0  0  0  0  0  0  0  0  0  0
    0.3380    3.2610    2.1024 C   0  0  0  0  0  0  0  0  0  0  0  0
   -0.6389    3.4820    2.5363 H   0  0  0  0  0  0  0  0  0  0  0  0
    1.1108    3.4337    2.8528 H   0  0  0  0  0  0  0  0  0  0  0  0
    0.5009    3.9312    1.2562 H   0  0  0  0  0  0  0  0  0  0  0  0
  5  6  2  0  0  0  0
  5  7  1  0  0  0  0
  2  3  1  0  0  0  0
  2  4  1  0  0  0  0
  2  5  1  0  0  0  0
  1  2  1  0  0  0  0
 21 22  2  0  0  0  0
 21 23  1  0  0  0  0
 19 20  1  0  0  0  0
 17 18  2  0  0  0  0
 17 19  1  0  0  0  0
 14 15  1  0  0  0  0
 14 16  1  0  0  0  0
 14 17  1  0  0  0  0
 11 12  1  0  0  0  0
 11 13  1  0  0  0  0
 11 14  1  0  0  0  0
  9 10  1  0  0  0  0
  9 11  1  0  0  0  0
  9 21  1  0  0  0  0
  7  8  1  0  0  0  0
  7  9  1  0  0  0  0
 25 26  1  0  0  0  0
 25 27  1  0  0  0  0
 25 28  1  0  0  0  0
 23 24  1  0  0  0  0
 23 25  1  0  0  0  0
M  END
$$$$
default_name
  -OEChem-02102213163D

 28 27  0     1  0  0  0  0  0999 V2000
   -3.2133   -3.5565    1.2809 H   0  0  0  0  0  0  0  0  0  0  0  0
   -3.1873   -2.5755    0.8089 C   0  0  0  0  0  0  0  0  0  0  0  0
   -3.8793   -1.9065    1.3169 H   0  0  0  0  0  0  0  0  0  0  0  0
   -3.4623   -2.6685   -0.2401 H   0  0  0  0  0  0  0  0  0  0  0  0
   -1.7863   -2.0195    0.9119 C   0  0  0  0  0  0  0  0  0  0  0  0
   -0.9073   -2.6615    1.4699 O   0  0  0  0  0  0  0  0  0  0  0  0
   -1.5803   -0.8195    0.3749 N   0  0  0  0  0  0  0  0  0  0  0  0
   -2.3603   -0.3345   -0.0451 H   0  0  0  0  0  0  0  0  0  0  0  0
   -0.2933   -0.1205    0.3719 C   0  0  1  0  0  0  0  0  0  0  0  0
    0.3577   -0.5843    1.1143 H   0  0  0  0  0  0  0  0  0  0  0  0
    0.3613   -0.2794   -1.0156 C   0  0  0  0  0  0  0  0  0  0  0  0
    0.7337   -1.3018   -1.0996 H   0  0  0  0  0  0  0  0  0  0  0  0
   -0.3933   -0.1285   -1.7889 H   0  0  0  0  0  0  0  0  0  0  0  0
    1.5246    0.6944   -1.2713 C   0  0  0  0  0  0  0  0  0  0  0  0
    1.5128    1.4906   -0.5269 H   0  0  0  0  0  0  0  0  0  0  0  0
    2.4671    0.1528   -1.1992 H   0  0  0  0  0  0  0  0  0  0  0  0
    1.4503    1.3334   -2.6543 C   0  0  0  0  0  0  0  0  0  0  0  0
    0.6520    1.0271   -3.5254 O   0  0  0  0  0  0  0  0  0  0  0  0
    2.3587    2.2963   -2.8976 O   0  0  0  0  0  0  0  0  0  0  0  0
    2.1886    2.5806   -3.7974 H   0  0  0  0  0  0  0  0  0  0  0  0
   -0.4860    1.3537    0.7622 C   0  0  0  0  0  0  0  0  0  0  0  0
   -1.3956    2.0096    0.2582 O   0  0  0  0  0  0  0  0  0  0  0  0
    0.3741    1.8728    1.6466 N   0  0  0  0  0  0  0  0  0  0  0  0
    1.0814    1.2667    2.0345 H   0  0  0  0  0  0  0  0  0  0  0  0
    0.3380    3.2610    2.1024 C   0  0  0  0  0  0  0  0  0  0  0  0
   -0.6389    3.4820    2.5363 H   0  0  0  0  0  0  0  0  0  0  0  0
    1.1108    3.4337    2.8528 H   0  0  0  0  0  0  0  0  0  0  0  0
    0.5009    3.9312    1.2562 H   0  0  0  0  0  0  0  0  0  0  0  0
  5  6  2  0  0  0  0
  5  7  1  0  0  0  0
  2  3  1  0  0  0  0
  2  4  1  0  0  0  0
  2  5  1  0  0  0  0
  1  2  1  0  0  0  0
 21 22  2  0  0  0  0
 21 23  1  0  0  0  0
 19 20  1  0  0  0  0
 17 18  2  0  0  0  0
 17 19  1  0  0  0  0
 14 15  1  0  0  0  0
 14 16  1  0  0  0  0
 14 17  1  0  0  0  0
 11 12  1  0  0  0  0
 11 13  1  0  0  0  0
 11 14  1  0  0  0  0
  9 10  1  0  0  0  0
  9 11  1  0  0  0  0
  9 21  1  0  0  0  0
  7  8  1  0  0  0  0
  7  9  1  0  0  0  0
 25 26  1  0  0  0  0
 25 27  1  0  0  0  0
 25 28  1  0  0  0  0
 23 24  1  0  0  0  0
 23 25  1  0  0  0  0
M  END
$$$$
default_name
  -OEChem-02102213163D

 28 27  0     1  0  0  0  0  0999 V2000
   -3.2133   -3.5565    1.2809 H   0  0  0  0  0  0  0  0  0  0  0  0
   -3.1873   -2.5755    0.8089 C   0  0  0  0  0  0  0  0  0  0  0  0
   -3.8793   -1.9065    1.3169 H   0  0  0  0  0  0  0  0  0  0  0  0
   -3.4623   -2.6685   -0.2401 H   0  0  0  0  0  0  0  0  0  0  0  0
   -1.7863   -2.0195    0.9119 C   0  0  0  0  0  0  0  0  0  0  0  0
   -0.9073   -2.6615    1.4699 O   0  0  0  0  0  0  0  0  0  0  0  0
   -1.5803   -0.8195    0.3749 N   0  0  0  0  0  0  0  0  0  0  0  0
   -2.3603   -0.3345   -0.0451 H   0  0  0  0  0  0  0  0  0  0  0  0
   -0.2933   -0.1205    0.3719 C   0  0  1  0  0  0  0  0  0  0  0  0
    0.3577   -0.5843    1.1143 H   0  0  0  0  0  0  0  0  0  0  0  0
    0.3613   -0.2794   -1.0156 C   0  0  0  0  0  0  0  0  0  0  0  0
    0.7337   -1.3018   -1.0996 H   0  0  0  0  0  0  0  0  0  0  0  0
   -0.3933   -0.1285   -1.7889 H   0  0  0  0  0  0  0  0  0  0  0  0
    1.5246    0.6944   -1.2713 C   0  0  0  0  0  0  0  0  0  0  0  0
    1.6789    1.3263   -0.3966 H   0  0  0  0  0  0  0  0  0  0  0  0
    2.4327    0.1243   -1.4640 H   0  0  0  0  0  0  0  0  0  0  0  0
    1.2687    1.5979   -2.4732 C   0  0  0  0  0  0  0  0  0  0  0  0
    0.3249    1.4928   -3.2401 O   0  0  0  0  0  0  0  0  0  0  0  0
    2.1821    2.5654   -2.6762 O   0  0  0  0  0  0  0  0  0  0  0  0
    1.8878    3.0277   -3.4629 H   0  0  0  0  0  0  0  0  0  0  0  0
   -0.4860    1.3537    0.7622 C   0  0  0  0  0  0  0  0  0  0  0  0
   -1.3956    2.0096    0.2582 O   0  0  0  0  0  0  0  0  0  0  0  0
    0.3741    1.8728    1.6466 N   0  0  0  0  0  0  0  0  0  0  0  0
    1.0814    1.2667    2.0345 H   0  0  0  0  0  0  0  0  0  0  0  0
    0.3380    3.2610    2.1024 C   0  0  0  0  0  0  0  0  0  0  0  0
   -0.6389    3.4820    2.5363 H   0  0  0  0  0  0  0  0  0  0  0  0
    1.1108    3.4337    2.8528 H   0  0  0  0  0  0  0  0  0  0  0  0
    0.5009    3.9312    1.2562 H   0  0  0  0  0  0  0  0  0  0  0  0
  5  6  2  0  0  0  0
  5  7  1  0  0  0  0
  2  3  1  0  0  0  0
  2  4  1  0  0  0  0
  2  5  1  0  0  0  0
  1  2  1  0  0  0  0
 21 22  2  0  0  0  0
 21 23  1  0  0  0  0
 19 20  1  0  0  0  0
 17 18  2  0  0  0  0
 17 19  1  0  0  0  0
 14 15  1  0  0  0  0
 14 16  1  0  0  0  0
 14 17  1  0  0  0  0
 11 12  1  0  0  0  0
 11 13  1  0  0  0  0
 11 14  1  0  0  0  0
  9 10  1  0  0  0  0
  9 11  1  0  0  0  0
  9 21  1  0  0  0  0
  7  8  1  0  0  0  0
  7  9  1  0  0  0  0
 25 26  1  0  0  0  0
 25 27  1  0  0  0  0
 25 28  1  0  0  0  0
 23 24  1  0  0  0  0
 23 25  1  0  0  0  0
M  END
$$$$
default_name
  -OEChem-02102213163D

 28 27  0     1  0  0  0  0  0999 V2000
   -3.2133   -3.5565    1.2809 H   0  0  0  0  0  0  0  0  0  0  0  0
   -3.1873   -2.5755    0.8089 C   0  0  0  0  0  0  0  0  0  0  0  0
   -3.8793   -1.9065    1.3169 H   0  0  0  0  0  0  0  0  0  0  0  0
   -3.4623   -2.6685   -0.2401 H   0  0  0  0  0  0  0  0  0  0  0  0
   -1.7863   -2.0195    0.9119 C   0  0  0  0  0  0  0  0  0  0  0  0
   -0.9073   -2.6615    1.4699 O   0  0  0  0  0  0  0  0  0  0  0  0
   -1.5803   -0.8195    0.3749 N   0  0  0  0  0  0  0  0  0  0  0  0
   -2.3603   -0.3345   -0.0451 H   0  0  0  0  0  0  0  0  0  0  0  0
   -0.2933   -0.1205    0.3719 C   0  0  1  0  0  0  0  0  0  0  0  0
    0.3577   -0.5843    1.1143 H   0  0  0  0  0  0  0  0  0  0  0  0
    0.3613   -0.2794   -1.0156 C   0  0  0  0  0  0  0  0  0  0  0  0
    0.7337   -1.3018   -1.0996 H   0  0  0  0  0  0  0  0  0  0  0  0
   -0.3933   -0.1285   -1.7889 H   0  0  0  0  0  0  0  0  0  0  0  0
    1.5246    0.6944   -1.2713 C   0  0  0  0  0  0  0  0  0  0  0  0
    1.8537    1.1350   -0.3301 H   0  0  0  0  0  0  0  0  0  0  0  0
    2.3549    0.1501   -1.7198 H   0  0  0  0  0  0  0  0  0  0  0  0
    1.1343    1.8258   -2.2168 C   0  0  0  0  0  0  0  0  0  0  0  0
    0.0757    1.9009   -2.8198 O   0  0  0  0  0  0  0  0  0  0  0  0
    2.0594    2.7896   -2.3807 O   0  0  0  0  0  0  0  0  0  0  0  0
    1.6713    3.4071   -3.0031 H   0  0  0  0  0  0  0  0  0  0  0  0
   -0.4860    1.3537    0.7622 C   0  0  0  0  0  0  0  0  0  0  0  0
   -1.3956    2.0096    0.2582 O   0  0  0  0  0  0  0  0  0  0  0  0
    0.3741    1.8728    1.6466 N   0  0  0  0  0  0  0  0  0  0  0  0
    1.0814    1.2667    2.0345 H   0  0  0  0  0  0  0  0  0  0  0  0
    0.3380    3.2610    2.1024 C   0  0  0  0  0  0  0  0  0  0  0  0
   -0.6389    3.4820    2.5363 H   0  0  0  0  0  0  0  0  0  0  0  0
    1.1108    3.4337    2.8528 H   0  0  0  0  0  0  0  0  0  0  0  0
    0.5009    3.9312    1.2562 H   0  0  0  0  0  0  0  0  0  0  0  0
  5  6  2  0  0  0  0
  5  7  1  0  0  0  0
  2  3  1  0  0  0  0
  2  4  1  0  0  0  0
  2  5  1  0  0  0  0
  1  2  1  0  0  0  0
 21 22  2  0  0  0  0
 21 23  1  0  0  0  0
 19 20  1  0  0  0  0
 17 18  2  0  0  0  0
 17 19  1  0  0  0  0
 14 15  1  0  0  0  0
 14 16  1  0  0  0  0
 14 17  1  0  0  0  0
 11 12  1  0  0  0  0
 11 13  1  0  0  0  0
 11 14  1  0  0  0  0
  9 10  1  0  0  0  0
  9 11  1  0  0  0  0
  9 21  1  0  0  0  0
  7  8  1  0  0  0  0
  7  9  1  0  0  0  0
 25 26  1  0  0  0  0
 25 27  1  0  0  0  0
 25 28  1  0  0  0  0
 23 24  1  0  0  0  0
 23 25  1  0  0  0  0
M  END
$$$$
default_name
  -OEChem-02102213163D

 28 27  0     1  0  0  0  0  0999 V2000
   -3.2133   -3.5565    1.2809 H   0  0  0  0  0  0  0  0  0  0  0  0
   -3.1873   -2.5755    0.8089 C   0  0  0  0  0  0  0  0  0  0  0  0
   -3.8793   -1.9065    1.3169 H   0  0  0  0  0  0  0  0  0  0  0  0
   -3.4623   -2.6685   -0.2401 H   0  0  0  0  0  0  0  0  0  0  0  0
   -1.7863   -2.0195    0.9119 C   0  0  0  0  0  0  0  0  0  0  0  0
   -0.9073   -2.6615    1.4699 O   0  0  0  0  0  0  0  0  0  0  0  0
   -1.5803   -0.8195    0.3749 N   0  0  0  0  0  0  0  0  0  0  0  0
   -2.3603   -0.3345   -0.0451 H   0  0  0  0  0  0  0  0  0  0  0  0
   -0.2933   -0.1205    0.3719 C   0  0  1  0  0  0  0  0  0  0  0  0
    0.3577   -0.5843    1.1143 H   0  0  0  0  0  0  0  0  0  0  0  0
    0.3613   -0.2794   -1.0156 C   0  0  0  0  0  0  0  0  0  0  0  0
    0.7337   -1.3018   -1.0996 H   0  0  0  0  0  0  0  0  0  0  0  0
   -0.3933   -0.1285   -1.7889 H   0  0  0  0  0  0  0  0  0  0  0  0
    1.5246    0.6944   -1.2713 C   0  0  0  0  0  0  0  0  0  0  0  0
    2.0252    0.9296   -0.3320 H   0  0  0  0  0  0  0  0  0  0  0  0
    2.2389    0.2284   -1.9491 H   0  0  0  0  0  0  0  0  0  0  0  0
    1.0563    2.0016   -1.9025 C   0  0  0  0  0  0  0  0  0  0  0  0
   -0.0786    2.2236   -2.2931 O   0  0  0  0  0  0  0  0  0  0  0  0
    1.9989    2.9536   -2.0313 O   0  0  0  0  0  0  0  0  0  0  0  0
    1.5539    3.6929   -2.4492 H   0  0  0  0  0  0  0  0  0  0  0  0
   -0.4860    1.3537    0.7622 C   0  0  0  0  0  0  0  0  0  0  0  0
   -1.3956    2.0096    0.2582 O   0  0  0  0  0  0  0  0  0  0  0  0
    0.3741    1.8728    1.6466 N   0  0  0  0  0  0  0  0  0  0  0  0
    1.0814    1.2667    2.0345 H   0  0  0  0  0  0  0  0  0  0  0  0
    0.3380    3.2610    2.1024 C   0  0  0  0  0  0  0  0  0  0  0  0
   -0.6389    3.4820    2.5363 H   0  0  0  0  0  0  0  0  0  0  0  0
    1.1108    3.4337    2.8528 H   0  0  0  0  0  0  0  0  0  0  0  0
    0.5009    3.9312    1.2562 H   0  0  0  0  0  0  0  0  0  0  0  0
  5  6  2  0  0  0  0
  5  7  1  0  0  0  0
  2  3  1  0  0  0  0
  2  4  1  0  0  0  0
  2  5  1  0  0  0  0
  1  2  1  0  0  0  0
 21 22  2  0  0  0  0
 21 23  1  0  0  0  0
 19 20  1  0  0  0  0
 17 18  2  0  0  0  0
 17 19  1  0  0  0  0
 14 15  1  0  0  0  0
 14 16  1  0  0  0  0
 14 17  1  0  0  0  0
 11 12  1  0  0  0  0
 11 13  1  0  0  0  0
 11 14  1  0  0  0  0
  9 10  1  0  0  0  0
  9 11  1  0  0  0  0
  9 21  1  0  0  0  0
  7  8  1  0  0  0  0
  7  9  1  0  0  0  0
 25 26  1  0  0  0  0
 25 27  1  0  0  0  0
 25 28  1  0  0  0  0
 23 24  1  0  0  0  0
 23 25  1  0  0  0  0
M  END
$$$$
default_name
  -OEChem-02102213163D

 28 27  0     1  0  0  0  0  0999 V2000
   -3.2133   -3.5565    1.2809 H   0  0  0  0  0  0  0  0  0  0  0  0
   -3.1873   -2.5755    0.8089 C   0  0  0  0  0  0  0  0  0  0  0  0
   -3.8793   -1.9065    1.3169 H   0  0  0  0  0  0  0  0  0  0  0  0
   -3.4623   -2.6685   -0.2401 H   0  0  0  0  0  0  0  0  0  0  0  0
   -1.7863   -2.0195    0.9119 C   0  0  0  0  0  0  0  0  0  0  0  0
   -0.9073   -2.6615    1.4699 O   0  0  0  0  0  0  0  0  0  0  0  0
   -1.5803   -0.8195    0.3749 N   0  0  0  0  0  0  0  0  0  0  0  0
   -2.3603   -0.3345   -0.0451 H   0  0  0  0  0  0  0  0  0  0  0  0
   -0.2933   -0.1205    0.3719 C   0  0  1  0  0  0  0  0  0  0  0  0
    0.3577   -0.5843    1.1143 H   0  0  0  0  0  0  0  0  0  0  0  0
    0.3613   -0.2794   -1.0156 C   0  0  0  0  0  0  0  0  0  0  0  0
    0.7337   -1.3018   -1.0996 H   0  0  0  0  0  0  0  0  0  0  0  0
   -0.3933   -0.1285   -1.7889 H   0  0  0  0  0  0  0  0  0  0  0  0
    1.5246    0.6944   -1.2713 C   0  0  0  0  0  0  0  0  0  0  0  0
    2.1817    0.7242   -0.4021 H   0  0  0  0  0  0  0  0  0  0  0  0
    2.0927    0.3539   -2.1362 H   0  0  0  0  0  0  0  0  0  0  0  0
    1.0400    2.1132   -1.5517 C   0  0  0  0  0  0  0  0  0  0  0  0
   -0.1275    2.4388   -1.6960 O   0  0  0  0  0  0  0  0  0  0  0  0
    2.0048    3.0463   -1.6518 O   0  0  0  0  0  0  0  0  0  0  0  0
    1.5435    3.8656   -1.8390 H   0  0  0  0  0  0  0  0  0  0  0  0
   -0.4860    1.3537    0.7622 C   0  0  0  0  0  0  0  0  0  0  0  0
   -1.3956    2.0096    0.2582 O   0  0  0  0  0  0  0  0  0  0  0  0
    0.3741    1.8728    1.6466 N   0  0  0  0  0  0  0  0  0  0  0  0
    1.0814    1.2667    2.0345 H   0  0  0  0  0  0  0  0  0  0  0  0
    0.3380    3.2610    2.1024 C   0  0  0  0  0  0  0  0  0  0  0  0
   -0.6389    3.4820    2.5363 H   0  0  0  0  0  0  0  0  0  0  0  0
    1.1108    3.4337    2.8528 H   0  0  0  0  0  0  0  0  0  0  0  0
    0.5009    3.9312    1.2562 H   0  0  0  0  0  0  0  0  0  0  0  0
  5  6  2  0  0  0  0
  5  7  1  0  0  0  0
  2  3  1  0  0  0  0
  2  4  1  0  0  0  0
  2  5  1  0  0  0  0
  1  2  1  0  0  0  0
 21 22  2  0  0  0  0
 21 23  1  0  0  0  0
 19 20  1  0  0  0  0
 17 18  2  0  0  0  0
 17 19  1  0  0  0  0
 14 15  1  0  0  0  0
 14 16  1  0  0  0  0
 14 17  1  0  0  0  0
 11 12  1  0  0  0  0
 11 13  1  0  0  0  0
 11 14  1  0  0  0  0
  9 10  1  0  0  0  0
  9 11  1  0  0  0  0
  9 21  1  0  0  0  0
  7  8  1  0  0  0  0
  7  9  1  0  0  0  0
 25 26  1  0  0  0  0
 25 27  1  0  0  0  0
 25 28  1  0  0  0  0
 23 24  1  0  0  0  0
 23 25  1  0  0  0  0
M  END
$$$$
default_name
  -OEChem-02102213163D

 28 27  0     1  0  0  0  0  0999 V2000
   -3.2133   -3.5565    1.2809 H   0  0  0  0  0  0  0  0  0  0  0  0
   -3.1873   -2.5755    0.8089 C   0  0  0  0  0  0  0  0  0  0  0  0
   -3.8793   -1.9065    1.3169 H   0  0  0  0  0  0  0  0  0  0  0  0
   -3.4623   -2.6685   -0.2401 H   0  0  0  0  0  0  0  0  0  0  0  0
   -1.7863   -2.0195    0.9119 C   0  0  0  0  0  0  0  0  0  0  0  0
   -0.9073   -2.6615    1.4699 O   0  0  0  0  0  0  0  0  0  0  0  0
   -1.5803   -0.8195    0.3749 N   0  0  0  0  0  0  0  0  0  0  0  0
   -2.3603   -0.3345   -0.0451 H   0  0  0  0  0  0  0  0  0  0  0  0
   -0.2933   -0.1205    0.3719 C   0  0  1  0  0  0  0  0  0  0  0  0
    0.3577   -0.5843    1.1143 H   0  0  0  0  0  0  0  0  0  0  0  0
    0.3613   -0.2794   -1.0156 C   0  0  0  0  0  0  0  0  0  0  0  0
    0.7337   -1.3018   -1.0996 H   0  0  0  0  0  0  0  0  0  0  0  0
   -0.3933   -0.1285   -1.7889 H   0  0  0  0  0  0  0  0  0  0  0  0
    1.5246    0.6944   -1.2713 C   0  0  0  0  0  0  0  0  0  0  0  0
    2.3126    0.5328   -0.5356 H   0  0  0  0  0  0  0  0  0  0  0  0
    1.9262    0.5180   -2.2685 H   0  0  0  0  0  0  0  0  0  0  0  0
    1.0865    2.1530   -1.1884 C   0  0  0  0  0  0  0  0  0  0  0  0
   -0.0676    2.5320   -1.0690 O   0  0  0  0  0  0  0  0  0  0  0  0
    2.0767    3.0612   -1.2681 O   0  0  0  0  0  0  0  0  0  0  0  0
    1.6408    3.9135   -1.2141 H   0  0  0  0  0  0  0  0  0  0  0  0
   -0.4860    1.3537    0.7622 C   0  0  0  0  0  0  0  0  0  0  0  0
   -1.3956    2.0096    0.2582 O   0  0  0  0  0  0  0  0  0  0  0  0
    0.3741    1.8728    1.6466 N   0  0  0  0  0  0  0  0  0  0  0  0
    1.0814    1.2667    2.0345 H   0  0  0  0  0  0  0  0  0  0  0  0
    0.3380    3.2610    2.1024 C   0  0  0  0  0  0  0  0  0  0  0  0
   -0.6389    3.4820    2.5363 H   0  0  0  0  0  0  0  0  0  0  0  0
    1.1108    3.4337    2.8528 H   0  0  0  0  0  0  0  0  0  0  0  0
    0.5009    3.9312    1.2562 H   0  0  0  0  0  0  0  0  0  0  0  0
  5  6  2  0  0  0  0
  5  7  1  0  0  0  0
  2  3  1  0  0  0  0
  2  4  1  0  0  0  0
  2  5  1  0  0  0  0
  1  2  1  0  0  0  0
 21 22  2  0  0  0  0
 21 23  1  0  0  0  0
 19 20  1  0  0  0  0
 17 18  2  0  0  0  0
 17 19  1  0  0  0  0
 14 15  1  0  0  0  0
 14 16  1  0  0  0  0
 14 17  1  0  0  0  0
 11 12  1  0  0  0  0
 11 13  1  0  0  0  0
 11 14  1  0  0  0  0
  9 10  1  0  0  0  0
  9 11  1  0  0  0  0
  9 21  1  0  0  0  0
  7  8  1  0  0  0  0
  7  9  1  0  0  0  0
 25 26  1  0  0  0  0
 25 27  1  0  0  0  0
 25 28  1  0  0  0  0
 23 24  1  0  0  0  0
 23 25  1  0  0  0  0
M  END
$$$$
default_name
  -OEChem-02102213163D

 28 27  0     1  0  0  0  0  0999 V2000
   -3.2133   -3.5565    1.2809 H   0  0  0  0  0  0  0  0  0  0  0  0
   -3.1873   -2.5755    0.8089 C   0  0  0  0  0  0  0  0  0  0  0  0
   -3.8793   -1.9065    1.3169 H   0  0  0  0  0  0  0  0  0  0  0  0
   -3.4623   -2.6685   -0.2401 H   0  0  0  0  0  0  0  0  0  0  0  0
   -1.7863   -2.0195    0.9119 C   0  0  0  0  0  0  0  0  0  0  0  0
   -0.9073   -2.6615    1.4699 O   0  0  0  0  0  0  0  0  0  0  0  0
   -1.5803   -0.8195    0.3749 N   0  0  0  0  0  0  0  0  0  0  0  0
   -2.3603   -0.3345   -0.0451 H   0  0  0  0  0  0  0  0  0  0  0  0
   -0.2933   -0.1205    0.3719 C   0  0  1  0  0  0  0  0  0  0  0  0
    0.3577   -0.5843    1.1143 H   0  0  0  0  0  0  0  0  0  0  0  0
    0.3613   -0.2794   -1.0156 C   0  0  0  0  0  0  0  0  0  0  0  0
    0.7337   -1.3018   -1.0996 H   0  0  0  0  0  0  0  0  0  0  0  0
   -0.3933   -0.1285   -1.7889 H   0  0  0  0  0  0  0  0  0  0  0  0
    1.5246    0.6944   -1.2713 C   0  0  0  0  0  0  0  0  0  0  0  0
    2.4089    0.3685   -0.7235 H   0  0  0  0  0  0  0  0  0  0  0  0
    1.7508    0.7096   -2.3368 H   0  0  0  0  0  0  0  0  0  0  0  0
    1.1927    2.1184   -0.8372 C   0  0  0  0  0  0  0  0  0  0  0  0
    0.0969    2.4967   -0.4551 O   0  0  0  0  0  0  0  0  0  0  0  0
    2.2096    2.9975   -0.9063 O   0  0  0  0  0  0  0  0  0  0  0  0
    1.8392    3.8332   -0.6171 H   0  0  0  0  0  0  0  0  0  0  0  0
   -0.4860    1.3537    0.7622 C   0  0  0  0  0  0  0  0  0  0  0  0
   -1.3956    2.0096    0.2582 O   0  0  0  0  0  0  0  0  0  0  0  0
    0.3741    1.8728    1.6466 N   0  0  0  0  0  0  0  0  0  0  0  0
    1.0814    1.2667    2.0345 H   0  0  0  0  0  0  0  0  0  0  0  0
    0.3380    3.2610    2.1024 C   0  0  0  0  0  0  0  0  0  0  0  0
   -0.6389    3.4820    2.5363 H   0  0  0  0  0  0  0  0  0  0  0  0
    1.1108    3.4337    2.8528 H   0  0  0  0  0  0  0  0  0  0  0  0
    0.5009    3.9312    1.2562 H   0  0  0  0  0  0  0  0  0  0  0  0
  5  6  2  0  0  0  0
  5  7  1  0  0  0  0
  2  3  1  0  0  0  0
  2  4  1  0  0  0  0
  2  5  1  0  0  0  0
  1  2  1  0  0  0  0
 21 22  2  0  0  0  0
 21 23  1  0  0  0  0
 19 20  1  0  0  0  0
 17 18  2  0  0  0  0
 17 19  1  0  0  0  0
 14 15  1  0  0  0  0
 14 16  1  0  0  0  0
 14 17  1  0  0  0  0
 11 12  1  0  0  0  0
 11 13  1  0  0  0  0
 11 14  1  0  0  0  0
  9 10  1  0  0  0  0
  9 11  1  0  0  0  0
  9 21  1  0  0  0  0
  7  8  1  0  0  0  0
  7  9  1  0  0  0  0
 25 26  1  0  0  0  0
 25 27  1  0  0  0  0
 25 28  1  0  0  0  0
 23 24  1  0  0  0  0
 23 25  1  0  0  0  0
M  END
$$$$
default_name
  -OEChem-02102213163D

 28 27  0     1  0  0  0  0  0999 V2000
   -3.2133   -3.5565    1.2809 H   0  0  0  0  0  0  0  0  0  0  0  0
   -3.1873   -2.5755    0.8089 C   0  0  0  0  0  0  0  0  0  0  0  0
   -3.8793   -1.9065    1.3169 H   0  0  0  0  0  0  0  0  0  0  0  0
   -3.4623   -2.6685   -0.2401 H   0  0  0  0  0  0  0  0  0  0  0  0
   -1.7863   -2.0195    0.9119 C   0  0  0  0  0  0  0  0  0  0  0  0
   -0.9073   -2.6615    1.4699 O   0  0  0  0  0  0  0  0  0  0  0  0
   -1.5803   -0.8195    0.3749 N   0  0  0  0  0  0  0  0  0  0  0  0
   -2.3603   -0.3345   -0.0451 H   0  0  0  0  0  0  0  0  0  0  0  0
   -0.2933   -0.1205    0.3719 C   0  0  1  0  0  0  0  0  0  0  0  0
    0.3577   -0.5843    1.1143 H   0  0  0  0  0  0  0  0  0  0  0  0
    0.3613   -0.2794   -1.0156 C   0  0  0  0  0  0  0  0  0  0  0  0
    0.7337   -1.3018   -1.0996 H   0  0  0  0  0  0  0  0  0  0  0  0
   -0.3933   -0.1285   -1.7889 H   0  0  0  0  0  0  0  0  0  0  0  0
    1.5246    0.6944   -1.2713 C   0  0  0  0  0  0  0  0  0  0  0  0
    2.4640    0.2423   -0.9529 H   0  0  0  0  0  0  0  0  0  0  0  0
    1.5784    0.9156   -2.3366 H   0  0  0  0  0  0  0  0  0  0  0  0
    1.3513    2.0117   -0.5222 C   0  0  0  0  0  0  0  0  0  0  0  0
    0.3549    2.3353    0.1041 O   0  0  0  0  0  0  0  0  0  0  0  0
    2.3945    2.8594   -0.5910 O   0  0  0  0  0  0  0  0  0  0  0  0
    2.1253    3.6303   -0.0886 H   0  0  0  0  0  0  0  0  0  0  0  0
   -0.4860    1.3537    0.7622 C   0  0  0  0  0  0  0  0  0  0  0  0
   -1.3956    2.0096    0.2582 O   0  0  0  0  0  0  0  0  0  0  0  0
    0.3741    1.8728    1.6466 N   0  0  0  0  0  0  0  0  0  0  0  0
    1.0814    1.2667    2.0345 H   0  0  0  0  0  0  0  0  0  0  0  0
    0.3380    3.2610    2.1024 C   0  0  0  0  0  0  0  0  0  0  0  0
   -0.6389    3.4820    2.5363 H   0  0  0  0  0  0  0  0  0  0  0  0
    1.1108    3.4337    2.8528 H   0  0  0  0  0  0  0  0  0  0  0  0
    0.5009    3.9312    1.2562 H   0  0  0  0  0  0  0  0  0  0  0  0
  5  6  2  0  0  0  0
  5  7  1  0  0  0  0
  2  3  1  0  0  0  0
  2  4  1  0  0  0  0
  2  5  1  0  0  0  0
  1  2  1  0  0  0  0
 21 22  2  0  0  0  0
 21 23  1  0  0  0  0
 19 20  1  0  0  0  0
 17 18  2  0  0  0  0
 17 19  1  0  0  0  0
 14 15  1  0  0  0  0
 14 16  1  0  0  0  0
 14 17  1  0  0  0  0
 11 12  1  0  0  0  0
 11 13  1  0  0  0  0
 11 14  1  0  0  0  0
  9 10  1  0  0  0  0
  9 11  1  0  0  0  0
  9 21  1  0  0  0  0
  7  8  1  0  0  0  0
  7  9  1  0  0  0  0
 25 26  1  0  0  0  0
 25 27  1  0  0  0  0
 25 28  1  0  0  0  0
 23 24  1  0  0  0  0
 23 25  1  0  0  0  0
M  END
$$$$
default_name
  -OEChem-02102213163D

 28 27  0     1  0  0  0  0  0999 V2000
   -3.2133   -3.5565    1.2809 H   0  0  0  0  0  0  0  0  0  0  0  0
   -3.1873   -2.5755    0.8089 C   0  0  0  0  0  0  0  0  0  0  0  0
   -3.8793   -1.9065    1.3169 H   0  0  0  0  0  0  0  0  0  0  0  0
   -3.4623   -2.6685   -0.2401 H   0  0  0  0  0  0  0  0  0  0  0  0
   -1.7863   -2.0195    0.9119 C   0  0  0  0  0  0  0  0  0  0  0  0
   -0.9073   -2.6615    1.4699 O   0  0  0  0  0  0  0  0  0  0  0  0
   -1.5803   -0.8195    0.3749 N   0  0  0  0  0  0  0  0  0  0  0  0
   -2.3603   -0.3345   -0.0451 H   0  0  0  0  0  0  0  0  0  0  0  0
   -0.2933   -0.1205    0.3719 C   0  0  1  0  0  0  0  0  0  0  0  0
    0.3577   -0.5843    1.1143 H   0  0  0  0  0  0  0  0  0  0  0  0
    0.3613   -0.2794   -1.0156 C   0  0  0  0  0  0  0  0  0  0  0  0
    0.7337   -1.3018   -1.0996 H   0  0  0  0  0  0  0  0  0  0  0  0
   -0.3933   -0.1285   -1.7889 H   0  0  0  0  0  0  0  0  0  0  0  0
    1.5246    0.6944   -1.2713 C   0  0  0  0  0  0  0  0  0  0  0  0
    2.4743    0.1630   -1.2082 H   0  0  0  0  0  0  0  0  0  0  0  0
    1.4208    1.1220   -2.2679 H   0  0  0  0  0  0  0  0  0  0  0  0
    1.5515    1.8401   -0.2648 C   0  0  0  0  0  0  0  0  0  0  0  0
    0.6888    2.0589    0.5705 O   0  0  0  0  0  0  0  0  0  0  0  0
    2.6188    2.6564   -0.3439 O   0  0  0  0  0  0  0  0  0  0  0  0
    2.4794    3.3186    0.3353 H   0  0  0  0  0  0  0  0  0  0  0  0
   -0.4860    1.3537    0.7622 C   0  0  0  0  0  0  0  0  0  0  0  0
   -1.3956    2.0096    0.2582 O   0  0  0  0  0  0  0  0  0  0  0  0
    0.3741    1.8728    1.6466 N   0  0  0  0  0  0  0  0  0  0  0  0
    1.0814    1.2667    2.0345 H   0  0  0  0  0  0  0  0  0  0  0  0
    0.3380    3.2610    2.1024 C   0  0  0  0  0  0  0  0  0  0  0  0
   -0.6389    3.4820    2.5363 H   0  0  0  0  0  0  0  0  0  0  0  0
    1.1108    3.4337    2.8528 H   0  0  0  0  0  0  0  0  0  0  0  0
    0.5009    3.9312    1.2562 H   0  0  0  0  0  0  0  0  0  0  0  0
  5  6  2  0  0  0  0
  5  7  1  0  0  0  0
  2  3  1  0  0  0  0
  2  4  1  0  0  0  0
  2  5  1  0  0  0  0
  1  2  1  0  0  0  0
 21 22  2  0  0  0  0
 21 23  1  0  0  0  0
 19 20  1  0  0  0  0
 17 18  2  0  0  0  0
 17 19  1  0  0  0  0
 14 15  1  0  0  0  0
 14 16  1  0  0  0  0
 14 17  1  0  0  0  0
 11 12  1  0  0  0  0
 11 13  1  0  0  0  0
 11 14  1  0  0  0  0
  9 10  1  0  0  0  0
  9 11  1  0  0  0  0
  9 21  1  0  0  0  0
  7  8  1  0  0  0  0
  7  9  1  0  0  0  0
 25 26  1  0  0  0  0
 25 27  1  0  0  0  0
 25 28  1  0  0  0  0
 23 24  1  0  0  0  0
 23 25  1  0  0  0  0
M  END
$$$$
default_name
  -OEChem-02102213163D

 28 27  0     1  0  0  0  0  0999 V2000
   -3.2133   -3.5565    1.2809 H   0  0  0  0  0  0  0  0  0  0  0  0
   -3.1873   -2.5755    0.8089 C   0  0  0  0  0  0  0  0  0  0  0  0
   -3.8793   -1.9065    1.3169 H   0  0  0  0  0  0  0  0  0  0  0  0
   -3.4623   -2.6685   -0.2401 H   0  0  0  0  0  0  0  0  0  0  0  0
   -1.7863   -2.0195    0.9119 C   0  0  0  0  0  0  0  0  0  0  0  0
   -0.9073   -2.6615    1.4699 O   0  0  0  0  0  0  0  0  0  0  0  0
   -1.5803   -0.8195    0.3749 N   0  0  0  0  0  0  0  0  0  0  0  0
   -2.3603   -0.3345   -0.0451 H   0  0  0  0  0  0  0  0  0  0  0  0
   -0.2933   -0.1205    0.3719 C   0  0  1  0  0  0  0  0  0  0  0  0
    0.3577   -0.5843    1.1143 H   0  0  0  0  0  0  0  0  0  0  0  0
    0.3613   -0.2794   -1.0156 C   0  0  0  0  0  0  0  0  0  0  0  0
    0.7337   -1.3018   -1.0996 H   0  0  0  0  0  0  0  0  0  0  0  0
   -0.3933   -0.1285   -1.7889 H   0  0  0  0  0  0  0  0  0  0  0  0
    1.5246    0.6944   -1.2713 C   0  0  0  0  0  0  0  0  0  0  0  0
    2.4390    0.1359   -1.4720 H   0  0  0  0  0  0  0  0  0  0  0  0
    1.2887    1.3146   -2.1353 H   0  0  0  0  0  0  0  0  0  0  0  0
    1.7796    1.6154   -0.0826 C   0  0  0  0  0  0  0  0  0  0  0  0
    1.0758    1.6864    0.9121 O   0  0  0  0  0  0  0  0  0  0  0  0
    2.8672    2.4022   -0.1816 O   0  0  0  0  0  0  0  0  0  0  0  0
    2.8775    2.9193    0.6257 H   0  0  0  0  0  0  0  0  0  0  0  0
   -0.4860    1.3537    0.7622 C   0  0  0  0  0  0  0  0  0  0  0  0
   -1.3956    2.0096    0.2582 O   0  0  0  0  0  0  0  0  0  0  0  0
    0.3741    1.8728    1.6466 N   0  0  0  0  0  0  0  0  0  0  0  0
    1.0814    1.2667    2.0345 H   0  0  0  0  0  0  0  0  0  0  0  0
    0.3380    3.2610    2.1024 C   0  0  0  0  0  0  0  0  0  0  0  0
   -0.6389    3.4820    2.5363 H   0  0  0  0  0  0  0  0  0  0  0  0
    1.1108    3.4337    2.8528 H   0  0  0  0  0  0  0  0  0  0  0  0
    0.5009    3.9312    1.2562 H   0  0  0  0  0  0  0  0  0  0  0  0
  5  6  2  0  0  0  0
  5  7  1  0  0  0  0
  2  3  1  0  0  0  0
  2  4  1  0  0  0  0
  2  5  1  0  0  0  0
  1  2  1  0  0  0  0
 21 22  2  0  0  0  0
 21 23  1  0  0  0  0
 19 20  1  0  0  0  0
 17 18  2  0  0  0  0
 17 19  1  0  0  0  0
 14 15  1  0  0  0  0
 14 16  1  0  0  0  0
 14 17  1  0  0  0  0
 11 12  1  0  0  0  0
 11 13  1  0  0  0  0
 11 14  1  0  0  0  0
  9 10  1  0  0  0  0
  9 11  1  0  0  0  0
  9 21  1  0  0  0  0
  7  8  1  0  0  0  0
  7  9  1  0  0  0  0
 25 26  1  0  0  0  0
 25 27  1  0  0  0  0
 25 28  1  0  0  0  0
 23 24  1  0  0  0  0
 23 25  1  0  0  0  0
M  END
$$$$
default_name
  -OEChem-02102213163D

 28 27  0     1  0  0  0  0  0999 V2000
   -3.2133   -3.5565    1.2809 H   0  0  0  0  0  0  0  0  0  0  0  0
   -3.1873   -2.5755    0.8089 C   0  0  0  0  0  0  0  0  0  0  0  0
   -3.8793   -1.9065    1.3169 H   0  0  0  0  0  0  0  0  0  0  0  0
   -3.4623   -2.6685   -0.2401 H   0  0  0  0  0  0  0  0  0  0  0  0
   -1.7863   -2.0195    0.9119 C   0  0  0  0  0  0  0  0  0  0  0  0
   -0.9073   -2.6615    1.4699 O   0  0  0  0  0  0  0  0  0  0  0  0
   -1.5803   -0.8195    0.3749 N   0  0  0  0  0  0  0  0  0  0  0  0
   -2.3603   -0.3345   -0.0451 H   0  0  0  0  0  0  0  0  0  0  0  0
   -0.2933   -0.1205    0.3719 C   0  0  1  0  0  0  0  0  0  0  0  0
    0.3577   -0.5843    1.1143 H   0  0  0  0  0  0  0  0  0  0  0  0
    0.3613   -0.2794   -1.0156 C   0  0  0  0  0  0  0  0  0  0  0  0
    0.7337   -1.3018   -1.0996 H   0  0  0  0  0  0  0  0  0  0  0  0
   -0.3933   -0.1285   -1.7889 H   0  0  0  0  0  0  0  0  0  0  0  0
    1.5246    0.6944   -1.2713 C   0  0  0  0  0  0  0  0  0  0  0  0
    2.3605    0.1629   -1.7264 H   0  0  0  0  0  0  0  0  0  0  0  0
    1.1911    1.4804   -1.9478 H   0  0  0  0  0  0  0  0  0  0  0  0
    2.0202    1.3529    0.0121 C   0  0  0  0  0  0  0  0  0  0  0  0
    1.4895    1.2430    1.1058 O   0  0  0  0  0  0  0  0  0  0  0  0
    3.1228    2.1143   -0.1153 O   0  0  0  0  0  0  0  0  0  0  0  0
    3.2924    2.4597    0.7629 H   0  0  0  0  0  0  0  0  0  0  0  0
   -0.4860    1.3537    0.7622 C   0  0  0  0  0  0  0  0  0  0  0  0
   -1.3956    2.0096    0.2582 O   0  0  0  0  0  0  0  0  0  0  0  0
    0.3741    1.8728    1.6466 N   0  0  0  0  0  0  0  0  0  0  0  0
    1.0814    1.2667    2.0345 H   0  0  0  0  0  0  0  0  0  0  0  0
    0.3380    3.2610    2.1024 C   0  0  0  0  0  0  0  0  0  0  0  0
   -0.6389    3.4820    2.5363 H   0  0  0  0  0  0  0  0  0  0  0  0
    1.1108    3.4337    2.8528 H   0  0  0  0  0  0  0  0  0  0  0  0
    0.5009    3.9312    1.2562 H   0  0  0  0  0  0  0  0  0  0  0  0
  5  6  2  0  0  0  0
  5  7  1  0  0  0  0
  2  3  1  0  0  0  0
  2  4  1  0  0  0  0
  2  5  1  0  0  0  0
  1  2  1  0  0  0  0
 21 22  2  0  0  0  0
 21 23  1  0  0  0  0
 19 20  1  0  0  0  0
 17 18  2  0  0  0  0
 17 19  1  0  0  0  0
 14 15  1  0  0  0  0
 14 16  1  0  0  0  0
 14 17  1  0  0  0  0
 11 12  1  0  0  0  0
 11 13  1  0  0  0  0
 11 14  1  0  0  0  0
  9 10  1  0  0  0  0
  9 11  1  0  0  0  0
  9 21  1  0  0  0  0
  7  8  1  0  0  0  0
  7  9  1  0  0  0  0
 25 26  1  0  0  0  0
 25 27  1  0  0  0  0
 25 28  1  0  0  0  0
 23 24  1  0  0  0  0
 23 25  1  0  0  0  0
M  END
$$$$
default_name
  -OEChem-02102213163D

 28 27  0     1  0  0  0  0  0999 V2000
   -3.2133   -3.5565    1.2809 H   0  0  0  0  0  0  0  0  0  0  0  0
   -3.1873   -2.5755    0.8089 C   0  0  0  0  0  0  0  0  0  0  0  0
   -3.8793   -1.9065    1.3169 H   0  0  0  0  0  0  0  0  0  0  0  0
   -3.4623   -2.6685   -0.2401 H   0  0  0  0  0  0  0  0  0  0  0  0
   -1.7863   -2.0195    0.9119 C   0  0  0  0  0  0  0  0  0  0  0  0
   -0.9073   -2.6615    1.4699 O   0  0  0  0  0  0  0  0  0  0  0  0
   -1.5803   -0.8195    0.3749 N   0  0  0  0  0  0  0  0  0  0  0  0
   -2.3603   -0.3345   -0.0451 H   0  0  0  0  0  0  0  0  0  0  0  0
   -0.2933   -0.1205    0.3719 C   0  0  1  0  0  0  0  0  0  0  0  0
    0.3577   -0.5843    1.1143 H   0  0  0  0  0  0  0  0  0  0  0  0
    0.3613   -0.2794   -1.0156 C   0  0  0  0  0  0  0  0  0  0  0  0
    0.7337   -1.3018   -1.0996 H   0  0  0  0  0  0  0  0  0  0  0  0
   -0.3933   -0.1285   -1.7889 H   0  0  0  0  0  0  0  0  0  0  0  0
    1.5246    0.6944   -1.2713 C   0  0  0  0  0  0  0  0  0  0  0  0
    2.2441    0.2421   -1.9539 H   0  0  0  0  0  0  0  0  0  0  0  0
    1.1347    1.6081   -1.7184 H   0  0  0  0  0  0  0  0  0  0  0  0
    2.2568    1.0704    0.0128 C   0  0  0  0  0  0  0  0  0  0  0  0
    1.9018    0.7590    1.1383 O   0  0  0  0  0  0  0  0  0  0  0  0
    3.3681    1.8122   -0.1494 O   0  0  0  0  0  0  0  0  0  0  0  0
    3.6959    1.9710    0.7375 H   0  0  0  0  0  0  0  0  0  0  0  0
   -0.4860    1.3537    0.7622 C   0  0  0  0  0  0  0  0  0  0  0  0
   -1.3956    2.0096    0.2582 O   0  0  0  0  0  0  0  0  0  0  0  0
    0.3741    1.8728    1.6466 N   0  0  0  0  0  0  0  0  0  0  0  0
    1.0814    1.2667    2.0345 H   0  0  0  0  0  0  0  0  0  0  0  0
    0.3380    3.2610    2.1024 C   0  0  0  0  0  0  0  0  0  0  0  0
   -0.6389    3.4820    2.5363 H   0  0  0  0  0  0  0  0  0  0  0  0
    1.1108    3.4337    2.8528 H   0  0  0  0  0  0  0  0  0  0  0  0
    0.5009    3.9312    1.2562 H   0  0  0  0  0  0  0  0  0  0  0  0
  5  6  2  0  0  0  0
  5  7  1  0  0  0  0
  2  3  1  0  0  0  0
  2  4  1  0  0  0  0
  2  5  1  0  0  0  0
  1  2  1  0  0  0  0
 21 22  2  0  0  0  0
 21 23  1  0  0  0  0
 19 20  1  0  0  0  0
 17 18  2  0  0  0  0
 17 19  1  0  0  0  0
 14 15  1  0  0  0  0
 14 16  1  0  0  0  0
 14 17  1  0  0  0  0
 11 12  1  0  0  0  0
 11 13  1  0  0  0  0
 11 14  1  0  0  0  0
  9 10  1  0  0  0  0
  9 11  1  0  0  0  0
  9 21  1  0  0  0  0
  7  8  1  0  0  0  0
  7  9  1  0  0  0  0
 25 26  1  0  0  0  0
 25 27  1  0  0  0  0
 25 28  1  0  0  0  0
 23 24  1  0  0  0  0
 23 25  1  0  0  0  0
M  END
$$$$
default_name
  -OEChem-02102213163D

 28 27  0     1  0  0  0  0  0999 V2000
   -3.2133   -3.5565    1.2809 H   0  0  0  0  0  0  0  0  0  0  0  0
   -3.1873   -2.5755    0.8089 C   0  0  0  0  0  0  0  0  0  0  0  0
   -3.8793   -1.9065    1.3169 H   0  0  0  0  0  0  0  0  0  0  0  0
   -3.4623   -2.6685   -0.2401 H   0  0  0  0  0  0  0  0  0  0  0  0
   -1.7863   -2.0195    0.9119 C   0  0  0  0  0  0  0  0  0  0  0  0
   -0.9073   -2.6615    1.4699 O   0  0  0  0  0  0  0  0  0  0  0  0
   -1.5803   -0.8195    0.3749 N   0  0  0  0  0  0  0  0  0  0  0  0
   -2.3603   -0.3345   -0.0451 H   0  0  0  0  0  0  0  0  0  0  0  0
   -0.2933   -0.1205    0.3719 C   0  0  1  0  0  0  0  0  0  0  0  0
    0.3577   -0.5843    1.1143 H   0  0  0  0  0  0  0  0  0  0  0  0
    0.3613   -0.2794   -1.0156 C   0  0  0  0  0  0  0  0  0  0  0  0
    0.7337   -1.3018   -1.0996 H   0  0  0  0  0  0  0  0  0  0  0  0
   -0.3933   -0.1285   -1.7889 H   0  0  0  0  0  0  0  0  0  0  0  0
    1.5246    0.6944   -1.2713 C   0  0  0  0  0  0  0  0  0  0  0  0
    2.0979    0.3681   -2.1392 H   0  0  0  0  0  0  0  0  0  0  0  0
    1.1233    1.6889   -1.4625 H   0  0  0  0  0  0  0  0  0  0  0  0
    2.4733    0.7873   -0.0806 C   0  0  0  0  0  0  0  0  0  0  0  0
    2.2846    0.2674    1.0075 O   0  0  0  0  0  0  0  0  0  0  0  0
    3.5865    1.5166   -0.2817 O   0  0  0  0  0  0  0  0  0  0  0  0
    4.0604    1.4866    0.5512 H   0  0  0  0  0  0  0  0  0  0  0  0
   -0.4860    1.3537    0.7622 C   0  0  0  0  0  0  0  0  0  0  0  0
   -1.3956    2.0096    0.2582 O   0  0  0  0  0  0  0  0  0  0  0  0
    0.3741    1.8728    1.6466 N   0  0  0  0  0  0  0  0  0  0  0  0
    1.0814    1.2667    2.0345 H   0  0  0  0  0  0  0  0  0  0  0  0
    0.3380    3.2610    2.1024 C   0  0  0  0  0  0  0  0  0  0  0  0
   -0.6389    3.4820    2.5363 H   0  0  0  0  0  0  0  0  0  0  0  0
    1.1108    3.4337    2.8528 H   0  0  0  0  0  0  0  0  0  0  0  0
    0.5009    3.9312    1.2562 H   0  0  0  0  0  0  0  0  0  0  0  0
  5  6  2  0  0  0  0
  5  7  1  0  0  0  0
  2  3  1  0  0  0  0
  2  4  1  0  0  0  0
  2  5  1  0  0  0  0
  1  2  1  0  0  0  0
 21 22  2  0  0  0  0
 21 23  1  0  0  0  0
 19 20  1  0  0  0  0
 17 18  2  0  0  0  0
 17 19  1  0  0  0  0
 14 15  1  0  0  0  0
 14 16  1  0  0  0  0
 14 17  1  0  0  0  0
 11 12  1  0  0  0  0
 11 13  1  0  0  0  0
 11 14  1  0  0  0  0
  9 10  1  0  0  0  0
  9 11  1  0  0  0  0
  9 21  1  0  0  0  0
  7  8  1  0  0  0  0
  7  9  1  0  0  0  0
 25 26  1  0  0  0  0
 25 27  1  0  0  0  0
 25 28  1  0  0  0  0
 23 24  1  0  0  0  0
 23 25  1  0  0  0  0
M  END
$$$$
default_name
  -OEChem-02102213163D

 28 27  0     1  0  0  0  0  0999 V2000
   -3.2133   -3.5565    1.2809 H   0  0  0  0  0  0  0  0  0  0  0  0
   -3.1873   -2.5755    0.8089 C   0  0  0  0  0  0  0  0  0  0  0  0
   -3.8793   -1.9065    1.3169 H   0  0  0  0  0  0  0  0  0  0  0  0
   -3.4623   -2.6685   -0.2401 H   0  0  0  0  0  0  0  0  0  0  0  0
   -1.7863   -2.0195    0.9119 C   0  0  0  0  0  0  0  0  0  0  0  0
   -0.9073   -2.6615    1.4699 O   0  0  0  0  0  0  0  0  0  0  0  0
   -1.5803   -0.8195    0.3749 N   0  0  0  0  0  0  0  0  0  0  0  0
   -2.3603   -0.3345   -0.0451 H   0  0  0  0  0  0  0  0  0  0  0  0
   -0.2933   -0.1205    0.3719 C   0  0  1  0  0  0  0  0  0  0  0  0
    0.3577   -0.5843    1.1143 H   0  0  0  0  0  0  0  0  0  0  0  0
    0.3613   -0.2794   -1.0156 C   0  0  0  0  0  0  0  0  0  0  0  0
    0.7337   -1.3018   -1.0996 H   0  0  0  0  0  0  0  0  0  0  0  0
   -0.3933   -0.1285   -1.7889 H   0  0  0  0  0  0  0  0  0  0  0  0
    1.5246    0.6944   -1.2713 C   0  0  0  0  0  0  0  0  0  0  0  0
    1.9317    0.5324   -2.2695 H   0  0  0  0  0  0  0  0  0  0  0  0
    1.1577    1.7174   -1.1976 H   0  0  0  0  0  0  0  0  0  0  0  0
    2.6549    0.5227   -0.2617 C   0  0  0  0  0  0  0  0  0  0  0  0
    2.6117   -0.1984    0.7222 O   0  0  0  0  0  0  0  0  0  0  0  0
    3.7631    1.2475   -0.5032 O   0  0  0  0  0  0  0  0  0  0  0  0
    4.3612    1.0394    0.2168 H   0  0  0  0  0  0  0  0  0  0  0  0
   -0.4860    1.3537    0.7622 C   0  0  0  0  0  0  0  0  0  0  0  0
   -1.3956    2.0096    0.2582 O   0  0  0  0  0  0  0  0  0  0  0  0
    0.3741    1.8728    1.6466 N   0  0  0  0  0  0  0  0  0  0  0  0
    1.0814    1.2667    2.0345 H   0  0  0  0  0  0  0  0  0  0  0  0
    0.3380    3.2610    2.1024 C   0  0  0  0  0  0  0  0  0  0  0  0
   -0.6389    3.4820    2.5363 H   0  0  0  0  0  0  0  0  0  0  0  0
    1.1108    3.4337    2.8528 H   0  0  0  0  0  0  0  0  0  0  0  0
    0.5009    3.9312    1.2562 H   0  0  0  0  0  0  0  0  0  0  0  0
  5  6  2  0  0  0  0
  5  7  1  0  0  0  0
  2  3  1  0  0  0  0
  2  4  1  0  0  0  0
  2  5  1  0  0  0  0
  1  2  1  0  0  0  0
 21 22  2  0  0  0  0
 21 23  1  0  0  0  0
 19 20  1  0  0  0  0
 17 18  2  0  0  0  0
 17 19  1  0  0  0  0
 14 15  1  0  0  0  0
 14 16  1  0  0  0  0
 14 17  1  0  0  0  0
 11 12  1  0  0  0  0
 11 13  1  0  0  0  0
 11 14  1  0  0  0  0
  9 10  1  0  0  0  0
  9 11  1  0  0  0  0
  9 21  1  0  0  0  0
  7  8  1  0  0  0  0
  7  9  1  0  0  0  0
 25 26  1  0  0  0  0
 25 27  1  0  0  0  0
 25 28  1  0  0  0  0
 23 24  1  0  0  0  0
 23 25  1  0  0  0  0
M  END
$$$$
default_name
  -OEChem-02102213163D

 28 27  0     1  0  0  0  0  0999 V2000
   -3.2133   -3.5565    1.2809 H   0  0  0  0  0  0  0  0  0  0  0  0
   -3.1873   -2.5755    0.8089 C   0  0  0  0  0  0  0  0  0  0  0  0
   -3.8793   -1.9065    1.3169 H   0  0  0  0  0  0  0  0  0  0  0  0
   -3.4623   -2.6685   -0.2401 H   0  0  0  0  0  0  0  0  0  0  0  0
   -1.7863   -2.0195    0.9119 C   0  0  0  0  0  0  0  0  0  0  0  0
   -0.9073   -2.6615    1.4699 O   0  0  0  0  0  0  0  0  0  0  0  0
   -1.5803   -0.8195    0.3749 N   0  0  0  0  0  0  0  0  0  0  0  0
   -2.3603   -0.3345   -0.0451 H   0  0  0  0  0  0  0  0  0  0  0  0
   -0.2933   -0.1205    0.3719 C   0  0  1  0  0  0  0  0  0  0  0  0
    0.3577   -0.5843    1.1143 H   0  0  0  0  0  0  0  0  0  0  0  0
    0.3613   -0.2794   -1.0156 C   0  0  0  0  0  0  0  0  0  0  0  0
    0.7337   -1.3018   -1.0996 H   0  0  0  0  0  0  0  0  0  0  0  0
   -0.3933   -0.1285   -1.7889 H   0  0  0  0  0  0  0  0  0  0  0  0
    1.5246    0.6944   -1.2713 C   0  0  0  0  0  0  0  0  0  0  0  0
    1.7569    0.7238   -2.3359 H   0  0  0  0  0  0  0  0  0  0  0  0
    1.2355    1.6916   -0.9418 H   0  0  0  0  0  0  0  0  0  0  0  0
    2.7893    0.2948   -0.5181 C   0  0  0  0  0  0  0  0  0  0  0  0
    2.8609   -0.6065    0.3019 O   0  0  0  0  0  0  0  0  0  0  0  0
    3.8858    1.0233   -0.7987 O   0  0  0  0  0  0  0  0  0  0  0  0
    4.5777    0.6600   -0.2431 H   0  0  0  0  0  0  0  0  0  0  0  0
   -0.4860    1.3537    0.7622 C   0  0  0  0  0  0  0  0  0  0  0  0
   -1.3956    2.0096    0.2582 O   0  0  0  0  0  0  0  0  0  0  0  0
    0.3741    1.8728    1.6466 N   0  0  0  0  0  0  0  0  0  0  0  0
    1.0814    1.2667    2.0345 H   0  0  0  0  0  0  0  0  0  0  0  0
    0.3380    3.2610    2.1024 C   0  0  0  0  0  0  0  0  0  0  0  0
   -0.6389    3.4820    2.5363 H   0  0  0  0  0  0  0  0  0  0  0  0
    1.1108    3.4337    2.8528 H   0  0  0  0  0  0  0  0  0  0  0  0
    0.5009    3.9312    1.2562 H   0  0  0  0  0  0  0  0  0  0  0  0
  5  6  2  0  0  0  0
  5  7  1  0  0  0  0
  2  3  1  0  0  0  0
  2  4  1  0  0  0  0
  2  5  1  0  0  0  0
  1  2  1  0  0  0  0
 21 22  2  0  0  0  0
 21 23  1  0  0  0  0
 19 20  1  0  0  0  0
 17 18  2  0  0  0  0
 17 19  1  0  0  0  0
 14 15  1  0  0  0  0
 14 16  1  0  0  0  0
 14 17  1  0  0  0  0
 11 12  1  0  0  0  0
 11 13  1  0  0  0  0
 11 14  1  0  0  0  0
  9 10  1  0  0  0  0
  9 11  1  0  0  0  0
  9 21  1  0  0  0  0
  7  8  1  0  0  0  0
  7  9  1  0  0  0  0
 25 26  1  0  0  0  0
 25 27  1  0  0  0  0
 25 28  1  0  0  0  0
 23 24  1  0  0  0  0
 23 25  1  0  0  0  0
M  END
$$$$
default_name
  -OEChem-02102213163D

 28 27  0     1  0  0  0  0  0999 V2000
   -3.2133   -3.5565    1.2809 H   0  0  0  0  0  0  0  0  0  0  0  0
   -3.1873   -2.5755    0.8089 C   0  0  0  0  0  0  0  0  0  0  0  0
   -3.8793   -1.9065    1.3169 H   0  0  0  0  0  0  0  0  0  0  0  0
   -3.4623   -2.6685   -0.2401 H   0  0  0  0  0  0  0  0  0  0  0  0
   -1.7863   -2.0195    0.9119 C   0  0  0  0  0  0  0  0  0  0  0  0
   -0.9073   -2.6615    1.4699 O   0  0  0  0  0  0  0  0  0  0  0  0
   -1.5803   -0.8195    0.3749 N   0  0  0  0  0  0  0  0  0  0  0  0
   -2.3603   -0.3345   -0.0451 H   0  0  0  0  0  0  0  0  0  0  0  0
   -0.2933   -0.1205    0.3719 C   0  0  1  0  0  0  0  0  0  0  0  0
    0.3577   -0.5843    1.1143 H   0  0  0  0  0  0  0  0  0  0  0  0
    0.3613   -0.2794   -1.0156 C   0  0  0  0  0  0  0  0  0  0  0  0
    0.7337   -1.3018   -1.0996 H   0  0  0  0  0  0  0  0  0  0  0  0
   -0.3933   -0.1285   -1.7889 H   0  0  0  0  0  0  0  0  0  0  0  0
    1.5246    0.6944   -1.2713 C   0  0  0  0  0  0  0  0  0  0  0  0
    1.5855    0.9291   -2.3341 H   0  0  0  0  0  0  0  0  0  0  0  0
    1.3515    1.6133   -0.7125 H   0  0  0  0  0  0  0  0  0  0  0  0
    2.8673    0.1191   -0.8324 C   0  0  0  0  0  0  0  0  0  0  0  0
    3.0152   -0.9291   -0.2248 O   0  0  0  0  0  0  0  0  0  0  0  0
    3.9463    0.8593   -1.1481 O   0  0  0  0  0  0  0  0  0  0  0  0
    4.6951    0.3742   -0.7970 H   0  0  0  0  0  0  0  0  0  0  0  0
   -0.4860    1.3537    0.7622 C   0  0  0  0  0  0  0  0  0  0  0  0
   -1.3956    2.0096    0.2582 O   0  0  0  0  0  0  0  0  0  0  0  0
    0.3741    1.8728    1.6466 N   0  0  0  0  0  0  0  0  0  0  0  0
    1.0814    1.2667    2.0345 H   0  0  0  0  0  0  0  0  0  0  0  0
    0.3380    3.2610    2.1024 C   0  0  0  0  0  0  0  0  0  0  0  0
   -0.6389    3.4820    2.5363 H   0  0  0  0  0  0  0  0  0  0  0  0
    1.1108    3.4337    2.8528 H   0  0  0  0  0  0  0  0  0  0  0  0
    0.5009    3.9312    1.2562 H   0  0  0  0  0  0  0  0  0  0  0  0
  5  6  2  0  0  0  0
  5  7  1  0  0  0  0
  2  3  1  0  0  0  0
  2  4  1  0  0  0  0
  2  5  1  0  0  0  0
  1  2  1  0  0  0  0
 21 22  2  0  0  0  0
 21 23  1  0  0  0  0
 19 20  1  0  0  0  0
 17 18  2  0  0  0  0
 17 19  1  0  0  0  0
 14 15  1  0  0  0  0
 14 16  1  0  0  0  0
 14 17  1  0  0  0  0
 11 12  1  0  0  0  0
 11 13  1  0  0  0  0
 11 14  1  0  0  0  0
  9 10  1  0  0  0  0
  9 11  1  0  0  0  0
  9 21  1  0  0  0  0
  7  8  1  0  0  0  0
  7  9  1  0  0  0  0
 25 26  1  0  0  0  0
 25 27  1  0  0  0  0
 25 28  1  0  0  0  0
 23 24  1  0  0  0  0
 23 25  1  0  0  0  0
M  END
$$$$
default_name
  -OEChem-02102213163D

 28 27  0     1  0  0  0  0  0999 V2000
   -3.2133   -3.5565    1.2809 H   0  0  0  0  0  0  0  0  0  0  0  0
   -3.1873   -2.5755    0.8089 C   0  0  0  0  0  0  0  0  0  0  0  0
   -3.8793   -1.9065    1.3169 H   0  0  0  0  0  0  0  0  0  0  0  0
   -3.4623   -2.6685   -0.2401 H   0  0  0  0  0  0  0  0  0  0  0  0
   -1.7863   -2.0195    0.9119 C   0  0  0  0  0  0  0  0  0  0  0  0
   -0.9073   -2.6615    1.4699 O   0  0  0  0  0  0  0  0  0  0  0  0
   -1.5803   -0.8195    0.3749 N   0  0  0  0  0  0  0  0  0  0  0  0
   -2.3603   -0.3345   -0.0451 H   0  0  0  0  0  0  0  0  0  0  0  0
   -0.2933   -0.1205    0.3719 C   0  0  1  0  0  0  0  0  0  0  0  0
    0.3577   -0.5843    1.1143 H   0  0  0  0  0  0  0  0  0  0  0  0
    0.3613   -0.2794   -1.0156 C   0  0  0  0  0  0  0  0  0  0  0  0
    0.7337   -1.3018   -1.0996 H   0  0  0  0  0  0  0  0  0  0  0  0
   -0.3933   -0.1285   -1.7889 H   0  0  0  0  0  0  0  0  0  0  0  0
    1.5246    0.6944   -1.2713 C   0  0  0  0  0  0  0  0  0  0  0  0
    1.4290    1.1345   -2.2640 H   0  0  0  0  0  0  0  0  0  0  0  0
    1.4977    1.4878   -0.5254 H   0  0  0  0  0  0  0  0  0  0  0  0
    2.8836    0.0075   -1.1832 C   0  0  0  0  0  0  0  0  0  0  0  0
    3.0641   -1.1444   -0.8219 O   0  0  0  0  0  0  0  0  0  0  0  0
    3.9404    0.7666   -1.5275 O   0  0  0  0  0  0  0  0  0  0  0  0
    4.7055    0.2015   -1.4071 H   0  0  0  0  0  0  0  0  0  0  0  0
   -0.4860    1.3537    0.7622 C   0  0  0  0  0  0  0  0  0  0  0  0
   -1.3956    2.0096    0.2582 O   0  0  0  0  0  0  0  0  0  0  0  0
    0.3741    1.8728    1.6466 N   0  0  0  0  0  0  0  0  0  0  0  0
    1.0814    1.2667    2.0345 H   0  0  0  0  0  0  0  0  0  0  0  0
    0.3380    3.2610    2.1024 C   0  0  0  0  0  0  0  0  0  0  0  0
   -0.6389    3.4820    2.5363 H   0  0  0  0  0  0  0  0  0  0  0  0
    1.1108    3.4337    2.8528 H   0  0  0  0  0  0  0  0  0  0  0  0
    0.5009    3.9312    1.2562 H   0  0  0  0  0  0  0  0  0  0  0  0
  5  6  2  0  0  0  0
  5  7  1  0  0  0  0
  2  3  1  0  0  0  0
  2  4  1  0  0  0  0
  2  5  1  0  0  0  0
  1  2  1  0  0  0  0
 21 22  2  0  0  0  0
 21 23  1  0  0  0  0
 19 20  1  0  0  0  0
 17 18  2  0  0  0  0
 17 19  1  0  0  0  0
 14 15  1  0  0  0  0
 14 16  1  0  0  0  0
 14 17  1  0  0  0  0
 11 12  1  0  0  0  0
 11 13  1  0  0  0  0
 11 14  1  0  0  0  0
  9 10  1  0  0  0  0
  9 11  1  0  0  0  0
  9 21  1  0  0  0  0
  7  8  1  0  0  0  0
  7  9  1  0  0  0  0
 25 26  1  0  0  0  0
 25 27  1  0  0  0  0
 25 28  1  0  0  0  0
 23 24  1  0  0  0  0
 23 25  1  0  0  0  0
M  END
$$$$
default_name
  -OEChem-02102213163D

 28 27  0     1  0  0  0  0  0999 V2000
   -3.2133   -3.5565    1.2809 H   0  0  0  0  0  0  0  0  0  0  0  0
   -3.1873   -2.5755    0.8089 C   0  0  0  0  0  0  0  0  0  0  0  0
   -3.8793   -1.9065    1.3169 H   0  0  0  0  0  0  0  0  0  0  0  0
   -3.4623   -2.6685   -0.2401 H   0  0  0  0  0  0  0  0  0  0  0  0
   -1.7863   -2.0195    0.9119 C   0  0  0  0  0  0  0  0  0  0  0  0
   -0.9073   -2.6615    1.4699 O   0  0  0  0  0  0  0  0  0  0  0  0
   -1.5803   -0.8195    0.3749 N   0  0  0  0  0  0  0  0  0  0  0  0
   -2.3603   -0.3345   -0.0451 H   0  0  0  0  0  0  0  0  0  0  0  0
   -0.2933   -0.1205    0.3719 C   0  0  1  0  0  0  0  0  0  0  0  0
    0.3577   -0.5843    1.1143 H   0  0  0  0  0  0  0  0  0  0  0  0
    0.3613   -0.2794   -1.0156 C   0  0  0  0  0  0  0  0  0  0  0  0
    0.7337   -1.3018   -1.0996 H   0  0  0  0  0  0  0  0  0  0  0  0
   -0.3933   -0.1285   -1.7889 H   0  0  0  0  0  0  0  0  0  0  0  0
    1.5246    0.6944   -1.2713 C   0  0  0  0  0  0  0  0  0  0  0  0
    1.2981    1.3259   -2.1305 H   0  0  0  0  0  0  0  0  0  0  0  0
    1.6641    1.3237   -0.3931 H   0  0  0  0  0  0  0  0  0  0  0  0
    2.8371   -0.0324   -1.5465 C   0  0  0  0  0  0  0  0  0  0  0  0
    3.0042   -1.2375   -1.4488 O   0  0  0  0  0  0  0  0  0  0  0  0
    3.8685    0.7517   -1.9113 O   0  0  0  0  0  0  0  0  0  0  0  0
    4.6082    0.1537   -2.0320 H   0  0  0  0  0  0  0  0  0  0  0  0
   -0.4860    1.3537    0.7622 C   0  0  0  0  0  0  0  0  0  0  0  0
   -1.3956    2.0096    0.2582 O   0  0  0  0  0  0  0  0  0  0  0  0
    0.3741    1.8728    1.6466 N   0  0  0  0  0  0  0  0  0  0  0  0
    1.0814    1.2667    2.0345 H   0  0  0  0  0  0  0  0  0  0  0  0
    0.3380    3.2610    2.1024 C   0  0  0  0  0  0  0  0  0  0  0  0
   -0.6389    3.4820    2.5363 H   0  0  0  0  0  0  0  0  0  0  0  0
    1.1108    3.4337    2.8528 H   0  0  0  0  0  0  0  0  0  0  0  0
    0.5009    3.9312    1.2562 H   0  0  0  0  0  0  0  0  0  0  0  0
  5  6  2  0  0  0  0
  5  7  1  0  0  0  0
  2  3  1  0  0  0  0
  2  4  1  0  0  0  0
  2  5  1  0  0  0  0
  1  2  1  0  0  0  0
 21 22  2  0  0  0  0
 21 23  1  0  0  0  0
 19 20  1  0  0  0  0
 17 18  2  0  0  0  0
 17 19  1  0  0  0  0
 14 15  1  0  0  0  0
 14 16  1  0  0  0  0
 14 17  1  0  0  0  0
 11 12  1  0  0  0  0
 11 13  1  0  0  0  0
 11 14  1  0  0  0  0
  9 10  1  0  0  0  0
  9 11  1  0  0  0  0
  9 21  1  0  0  0  0
  7  8  1  0  0  0  0
  7  9  1  0  0  0  0
 25 26  1  0  0  0  0
 25 27  1  0  0  0  0
 25 28  1  0  0  0  0
 23 24  1  0  0  0  0
 23 25  1  0  0  0  0
M  END
$$$$
default_name
  -OEChem-02102213163D

 28 27  0     1  0  0  0  0  0999 V2000
   -3.2133   -3.5565    1.2809 H   0  0  0  0  0  0  0  0  0  0  0  0
   -3.1873   -2.5755    0.8089 C   0  0  0  0  0  0  0  0  0  0  0  0
   -3.8793   -1.9065    1.3169 H   0  0  0  0  0  0  0  0  0  0  0  0
   -3.4623   -2.6685   -0.2401 H   0  0  0  0  0  0  0  0  0  0  0  0
   -1.7863   -2.0195    0.9119 C   0  0  0  0  0  0  0  0  0  0  0  0
   -0.9073   -2.6615    1.4699 O   0  0  0  0  0  0  0  0  0  0  0  0
   -1.5803   -0.8195    0.3749 N   0  0  0  0  0  0  0  0  0  0  0  0
   -2.3603   -0.3345   -0.0451 H   0  0  0  0  0  0  0  0  0  0  0  0
   -0.2933   -0.1205    0.3719 C   0  0  1  0  0  0  0  0  0  0  0  0
    0.3577   -0.5843    1.1143 H   0  0  0  0  0  0  0  0  0  0  0  0
    0.3613   -0.2794   -1.0156 C   0  0  0  0  0  0  0  0  0  0  0  0
    0.7337   -1.3018   -1.0996 H   0  0  0  0  0  0  0  0  0  0  0  0
   -0.3933   -0.1285   -1.7889 H   0  0  0  0  0  0  0  0  0  0  0  0
    1.5246    0.6944   -1.2713 C   0  0  0  0  0  0  0  0  0  0  0  0
    1.2018    1.4903   -1.9426 H   0  0  0  0  0  0  0  0  0  0  0  0
    1.8395    1.1321   -0.3248 H   0  0  0  0  0  0  0  0  0  0  0  0
    2.7309    0.0022   -1.8976 C   0  0  0  0  0  0  0  0  0  0  0  0
    2.8397   -1.2022   -2.0628 O   0  0  0  0  0  0  0  0  0  0  0  0
    3.7356    0.8154   -2.2731 O   0  0  0  0  0  0  0  0  0  0  0  0
    4.4098    0.2339   -2.6291 H   0  0  0  0  0  0  0  0  0  0  0  0
   -0.4860    1.3537    0.7622 C   0  0  0  0  0  0  0  0  0  0  0  0
   -1.3956    2.0096    0.2582 O   0  0  0  0  0  0  0  0  0  0  0  0
    0.3741    1.8728    1.6466 N   0  0  0  0  0  0  0  0  0  0  0  0
    1.0814    1.2667    2.0345 H   0  0  0  0  0  0  0  0  0  0  0  0
    0.3380    3.2610    2.1024 C   0  0  0  0  0  0  0  0  0  0  0  0
   -0.6389    3.4820    2.5363 H   0  0  0  0  0  0  0  0  0  0  0  0
    1.1108    3.4337    2.8528 H   0  0  0  0  0  0  0  0  0  0  0  0
    0.5009    3.9312    1.2562 H   0  0  0  0  0  0  0  0  0  0  0  0
  5  6  2  0  0  0  0
  5  7  1  0  0  0  0
  2  3  1  0  0  0  0
  2  4  1  0  0  0  0
  2  5  1  0  0  0  0
  1  2  1  0  0  0  0
 21 22  2  0  0  0  0
 21 23  1  0  0  0  0
 19 20  1  0  0  0  0
 17 18  2  0  0  0  0
 17 19  1  0  0  0  0
 14 15  1  0  0  0  0
 14 16  1  0  0  0  0
 14 17  1  0  0  0  0
 11 12  1  0  0  0  0
 11 13  1  0  0  0  0
 11 14  1  0  0  0  0
  9 10  1  0  0  0  0
  9 11  1  0  0  0  0
  9 21  1  0  0  0  0
  7  8  1  0  0  0  0
  7  9  1  0  0  0  0
 25 26  1  0  0  0  0
 25 27  1  0  0  0  0
 25 28  1  0  0  0  0
 23 24  1  0  0  0  0
 23 25  1  0  0  0  0
M  END
$$$$
default_name
  -OEChem-02102213163D

 28 27  0     1  0  0  0  0  0999 V2000
   -3.2133   -3.5565    1.2809 H   0  0  0  0  0  0  0  0  0  0  0  0
   -3.1873   -2.5755    0.8089 C   0  0  0  0  0  0  0  0  0  0  0  0
   -3.8793   -1.9065    1.3169 H   0  0  0  0  0  0  0  0  0  0  0  0
   -3.4623   -2.6685   -0.2401 H   0  0  0  0  0  0  0  0  0  0  0  0
   -1.7863   -2.0195    0.9119 C   0  0  0  0  0  0  0  0  0  0  0  0
   -0.9073   -2.6615    1.4699 O   0  0  0  0  0  0  0  0  0  0  0  0
   -1.5803   -0.8195    0.3749 N   0  0  0  0  0  0  0  0  0  0  0  0
   -2.3603   -0.3345   -0.0451 H   0  0  0  0  0  0  0  0  0  0  0  0
   -0.2933   -0.1205    0.3719 C   0  0  1  0  0  0  0  0  0  0  0  0
    0.3577   -0.5843    1.1143 H   0  0  0  0  0  0  0  0  0  0  0  0
    0.3613   -0.2794   -1.0156 C   0  0  0  0  0  0  0  0  0  0  0  0
    0.7337   -1.3018   -1.0996 H   0  0  0  0  0  0  0  0  0  0  0  0
   -0.3933   -0.1285   -1.7889 H   0  0  0  0  0  0  0  0  0  0  0  0
    1.5246    0.6944   -1.2713 C   0  0  0  0  0  0  0  0  0  0  0  0
    1.1467    1.6164   -1.7132 H   0  0  0  0  0  0  0  0  0  0  0  0
    2.0119    0.9261   -0.3250 H   0  0  0  0  0  0  0  0  0  0  0  0
    2.5723    0.1090   -2.2126 C   0  0  0  0  0  0  0  0  0  0  0  0
    2.5817   -1.0409   -2.6220 O   0  0  0  0  0  0  0  0  0  0  0  0
    3.5507    0.9535   -2.5883 O   0  0  0  0  0  0  0  0  0  0  0  0
    4.1237    0.4368   -3.1575 H   0  0  0  0  0  0  0  0  0  0  0  0
   -0.4860    1.3537    0.7622 C   0  0  0  0  0  0  0  0  0  0  0  0
   -1.3956    2.0096    0.2582 O   0  0  0  0  0  0  0  0  0  0  0  0
    0.3741    1.8728    1.6466 N   0  0  0  0  0  0  0  0  0  0  0  0
    1.0814    1.2667    2.0345 H   0  0  0  0  0  0  0  0  0  0  0  0
    0.3380    3.2610    2.1024 C   0  0  0  0  0  0  0  0  0  0  0  0
   -0.6389    3.4820    2.5363 H   0  0  0  0  0  0  0  0  0  0  0  0
    1.1108    3.4337    2.8528 H   0  0  0  0  0  0  0  0  0  0  0  0
    0.5009    3.9312    1.2562 H   0  0  0  0  0  0  0  0  0  0  0  0
  5  6  2  0  0  0  0
  5  7  1  0  0  0  0
  2  3  1  0  0  0  0
  2  4  1  0  0  0  0
  2  5  1  0  0  0  0
  1  2  1  0  0  0  0
 21 22  2  0  0  0  0
 21 23  1  0  0  0  0
 19 20  1  0  0  0  0
 17 18  2  0  0  0  0
 17 19  1  0  0  0  0
 14 15  1  0  0  0  0
 14 16  1  0  0  0  0
 14 17  1  0  0  0  0
 11 12  1  0  0  0  0
 11 13  1  0  0  0  0
 11 14  1  0  0  0  0
  9 10  1  0  0  0  0
  9 11  1  0  0  0  0
  9 21  1  0  0  0  0
  7  8  1  0  0  0  0
  7  9  1  0  0  0  0
 25 26  1  0  0  0  0
 25 27  1  0  0  0  0
 25 28  1  0  0  0  0
 23 24  1  0  0  0  0
 23 25  1  0  0  0  0
M  END
$$$$
default_name
  -OEChem-02102213163D

 28 27  0     1  0  0  0  0  0999 V2000
   -3.2133   -3.5565    1.2809 H   0  0  0  0  0  0  0  0  0  0  0  0
   -3.1873   -2.5755    0.8089 C   0  0  0  0  0  0  0  0  0  0  0  0
   -3.8793   -1.9065    1.3169 H   0  0  0  0  0  0  0  0  0  0  0  0
   -3.4623   -2.6685   -0.2401 H   0  0  0  0  0  0  0  0  0  0  0  0
   -1.7863   -2.0195    0.9119 C   0  0  0  0  0  0  0  0  0  0  0  0
   -0.9073   -2.6615    1.4699 O   0  0  0  0  0  0  0  0  0  0  0  0
   -1.5803   -0.8195    0.3749 N   0  0  0  0  0  0  0  0  0  0  0  0
   -2.3603   -0.3345   -0.0451 H   0  0  0  0  0  0  0  0  0  0  0  0
   -0.2933   -0.1205    0.3719 C   0  0  1  0  0  0  0  0  0  0  0  0
    0.3577   -0.5843    1.1143 H   0  0  0  0  0  0  0  0  0  0  0  0
    0.3613   -0.2794   -1.0156 C   0  0  0  0  0  0  0  0  0  0  0  0
    0.7337   -1.3018   -1.0996 H   0  0  0  0  0  0  0  0  0  0  0  0
   -0.3933   -0.1285   -1.7889 H   0  0  0  0  0  0  0  0  0  0  0  0
    1.5246    0.6944   -1.2713 C   0  0  0  0  0  0  0  0  0  0  0  0
    1.1364    1.6957   -1.4579 H   0  0  0  0  0  0  0  0  0  0  0  0
    2.1695    0.7198   -0.3937 H   0  0  0  0  0  0  0  0  0  0  0  0
    2.3721    0.2805   -2.4700 C   0  0  0  0  0  0  0  0  0  0  0  0
    2.2478   -0.7645   -3.0883 O   0  0  0  0  0  0  0  0  0  0  0  0
    3.3265    1.1565   -2.8355 O   0  0  0  0  0  0  0  0  0  0  0  0
    3.7696    0.7485   -3.5814 H   0  0  0  0  0  0  0  0  0  0  0  0
   -0.4860    1.3537    0.7622 C   0  0  0  0  0  0  0  0  0  0  0  0
   -1.3956    2.0096    0.2582 O   0  0  0  0  0  0  0  0  0  0  0  0
    0.3741    1.8728    1.6466 N   0  0  0  0  0  0  0  0  0  0  0  0
    1.0814    1.2667    2.0345 H   0  0  0  0  0  0  0  0  0  0  0  0
    0.3380    3.2610    2.1024 C   0  0  0  0  0  0  0  0  0  0  0  0
   -0.6389    3.4820    2.5363 H   0  0  0  0  0  0  0  0  0  0  0  0
    1.1108    3.4337    2.8528 H   0  0  0  0  0  0  0  0  0  0  0  0
    0.5009    3.9312    1.2562 H   0  0  0  0  0  0  0  0  0  0  0  0
  5  6  2  0  0  0  0
  5  7  1  0  0  0  0
  2  3  1  0  0  0  0
  2  4  1  0  0  0  0
  2  5  1  0  0  0  0
  1  2  1  0  0  0  0
 21 22  2  0  0  0  0
 21 23  1  0  0  0  0
 19 20  1  0  0  0  0
 17 18  2  0  0  0  0
 17 19  1  0  0  0  0
 14 15  1  0  0  0  0
 14 16  1  0  0  0  0
 14 17  1  0  0  0  0
 11 12  1  0  0  0  0
 11 13  1  0  0  0  0
 11 14  1  0  0  0  0
  9 10  1  0  0  0  0
  9 11  1  0  0  0  0
  9 21  1  0  0  0  0
  7  8  1  0  0  0  0
  7  9  1  0  0  0  0
 25 26  1  0  0  0  0
 25 27  1  0  0  0  0
 25 28  1  0  0  0  0
 23 24  1  0  0  0  0
 23 25  1  0  0  0  0
M  END
$$$$
