default_name
  -OEChem-02102213163D

 28 27  0     1  0  0  0  0  0999 V2000
   -3.2133   -3.5565    1.2809 H   0  0  0  0  0  0  0  0  0  0  0  0
   -3.1873   -2.5755    0.8089 C   0  0  0  0  0  0  0  0  0  0  0  0
   -3.8793   -1.9065    1.3169 H   0  0  0  0  0  0  0  0  0  0  0  0
   -3.4623   -2.6685   -0.2401 H   0  0  0  0  0  0  0  0  0  0  0  0
   -1.7863   -2.0195    0.9119 C   0  0  0  0  0  0  0  0  0  0  0  0
   -0.9073   -2.6615    1.4699 O   0  0  0  0  0  0  0  0  0  0  0  0
   -1.5803   -0.8195    0.3749 N   0  0  0  0  0  0  0  0  0  0  0  0
   -2.3603   -0.3345   -0.0451 H   0  0  0  0  0  0  0  0  0  0  0  0
   -0.2933   -0.1205    0.3719 C   0  0  1  0  0  0  0  0  0  0  0  0
    0.4439   -0.7485   -0.1303 H   0  0  0  0  0  0  0  0  0  0  0  0
   -0.4368    1.1924   -0.4246 C   0  0  0  0  0  0  0  0  0  0  0  0
   -0.7524    0.9411   -1.4387 H   0  0  0  0  0  0  0  0  0  0  0  0
   -1.2152    1.8064    0.0306 H   0  0  0  0  0  0  0  0  0  0  0  0
    0.8575    2.0208   -0.4995 C   0  0  0  0  0  0  0  0  0  0  0  0
    1.1883    2.2844    0.5052 H   0  0  0  0  0  0  0  0  0  0  0  0
    1.6326    1.4304   -0.9866 H   0  0  0  0  0  0  0  0  0  0  0  0
    0.6740    3.3095   -1.2946 C   0  0  0  0  0  0  0  0  0  0  0  0
   -0.3296    3.6088   -1.9214 O   0  0  0  0  0  0  0  0  0  0  0  0
    1.7261    4.1490   -1.2890 O   0  0  0  0  0  0  0  0  0  0  0  0
    1.4587    4.8905   -1.8348 H   0  0  0  0  0  0  0  0  0  0  0  0
    0.1871    0.1189    1.8122 C   0  0  0  0  0  0  0  0  0  0  0  0
    1.3541   -0.1171    2.1187 O   0  0  0  0  0  0  0  0  0  0  0  0
   -0.7126    0.5740    2.6926 N   0  0  0  0  0  0  0  0  0  0  0  0
   -1.6464    0.7663    2.3621 H   0  0  0  0  0  0  0  0  0  0  0  0
   -0.4191    0.8310    4.1010 C   0  0  0  0  0  0  0  0  0  0  0  0
    0.4022    1.5452    4.1828 H   0  0  0  0  0  0  0  0  0  0  0  0
   -1.2983    1.2366    4.6035 H   0  0  0  0  0  0  0  0  0  0  0  0
   -0.1204   -0.0980    4.5907 H   0  0  0  0  0  0  0  0  0  0  0  0
  5  6  2  0  0  0  0
  5  7  1  0  0  0  0
  2  3  1  0  0  0  0
  2  4  1  0  0  0  0
  2  5  1  0  0  0  0
  1  2  1  0  0  0  0
 21 22  2  0  0  0  0
 21 23  1  0  0  0  0
 19 20  1  0  0  0  0
 17 18  2  0  0  0  0
 17 19  1  0  0  0  0
 14 15  1  0  0  0  0
 14 16  1  0  0  0  0
 14 17  1  0  0  0  0
 11 12  1  0  0  0  0
 11 13  1  0  0  0  0
 11 14  1  0  0  0  0
  9 10  1  0  0  0  0
  9 11  1  0  0  0  0
  9 21  1  0  0  0  0
  7  8  1  0  0  0  0
  7  9  1  0  0  0  0
 25 26  1  0  0  0  0
 25 27  1  0  0  0  0
 25 28  1  0  0  0  0
 23 24  1  0  0  0  0
 23 25  1  0  0  0  0
M  END
$$$$
default_name
  -OEChem-02102213163D

 28 27  0     1  0  0  0  0  0999 V2000
   -3.2133   -3.5565    1.2809 H   0  0  0  0  0  0  0  0  0  0  0  0
   -3.1873   -2.5755    0.8089 C   0  0  0  0  0  0  0  0  0  0  0  0
   -3.8793   -1.9065    1.3169 H   0  0  0  0  0  0  0  0  0  0  0  0
   -3.4623   -2.6685   -0.2401 H   0  0  0  0  0  0  0  0  0  0  0  0
   -1.7863   -2.0195    0.9119 C   0  0  0  0  0  0  0  0  0  0  0  0
   -0.9073   -2.6615    1.4699 O   0  0  0  0  0  0  0  0  0  0  0  0
   -1.5803   -0.8195    0.3749 N   0  0  0  0  0  0  0  0  0  0  0  0
   -2.3603   -0.3345   -0.0451 H   0  0  0  0  0  0  0  0  0  0  0  0
   -0.2933   -0.1205    0.3719 C   0  0  1  0  0  0  0  0  0  0  0  0
    0.4439   -0.7485   -0.1303 H   0  0  0  0  0  0  0  0  0  0  0  0
   -0.4368    1.1924   -0.4246 C   0  0  0  0  0  0  0  0  0  0  0  0
   -0.7524    0.9411   -1.4387 H   0  0  0  0  0  0  0  0  0  0  0  0
   -1.2152    1.8064    0.0306 H   0  0  0  0  0  0  0  0  0  0  0  0
    0.8575    2.0208   -0.4995 C   0  0  0  0  0  0  0  0  0  0  0  0
    1.3310    2.0593    0.4816 H   0  0  0  0  0  0  0  0  0  0  0  0
    1.5412    1.5533   -1.2072 H   0  0  0  0  0  0  0  0  0  0  0  0
    0.6023    3.4516   -0.9623 C   0  0  0  0  0  0  0  0  0  0  0  0
   -0.4694    3.8779   -1.3616 O   0  0  0  0  0  0  0  0  0  0  0  0
    1.6682    4.2726   -0.9229 O   0  0  0  0  0  0  0  0  0  0  0  0
    1.3489    5.1147   -1.2518 H   0  0  0  0  0  0  0  0  0  0  0  0
    0.1871    0.1189    1.8122 C   0  0  0  0  0  0  0  0  0  0  0  0
    1.3541   -0.1171    2.1187 O   0  0  0  0  0  0  0  0  0  0  0  0
   -0.7126    0.5740    2.6926 N   0  0  0  0  0  0  0  0  0  0  0  0
   -1.6464    0.7663    2.3621 H   0  0  0  0  0  0  0  0  0  0  0  0
   -0.4191    0.8310    4.1010 C   0  0  0  0  0  0  0  0  0  0  0  0
    0.4022    1.5452    4.1828 H   0  0  0  0  0  0  0  0  0  0  0  0
   -1.2983    1.2366    4.6035 H   0  0  0  0  0  0  0  0  0  0  0  0
   -0.1204   -0.0980    4.5907 H   0  0  0  0  0  0  0  0  0  0  0  0
  5  6  2  0  0  0  0
  5  7  1  0  0  0  0
  2  3  1  0  0  0  0
  2  4  1  0  0  0  0
  2  5  1  0  0  0  0
  1  2  1  0  0  0  0
 21 22  2  0  0  0  0
 21 23  1  0  0  0  0
 19 20  1  0  0  0  0
 17 18  2  0  0  0  0
 17 19  1  0  0  0  0
 14 15  1  0  0  0  0
 14 16  1  0  0  0  0
 14 17  1  0  0  0  0
 11 12  1  0  0  0  0
 11 13  1  0  0  0  0
 11 14  1  0  0  0  0
  9 10  1  0  0  0  0
  9 11  1  0  0  0  0
  9 21  1  0  0  0  0
  7  8  1  0  0  0  0
  7  9  1  0  0  0  0
 25 26  1  0  0  0  0
 25 27  1  0  0  0  0
 25 28  1  0  0  0  0
 23 24  1  0  0  0  0
 23 25  1  0  0  0  0
M  END
$$$$
default_name
  -OEChem-02102213163D

 28 27  0     1  0  0  0  0  0999 V2000
   -3.2133   -3.5565    1.2809 H   0  0  0  0  0  0  0  0  0  0  0  0
   -3.1873   -2.5755    0.8089 C   0  0  0  0  0  0  0  0  0  0  0  0
   -3.8793   -1.9065    1.3169 H   0  0  0  0  0  0  0  0  0  0  0  0
   -3.4623   -2.6685   -0.2401 H   0  0  0  0  0  0  0  0  0  0  0  0
   -1.7863   -2.0195    0.9119 C   0  0  0  0  0  0  0  0  0  0  0  0
   -0.9073   -2.6615    1.4699 O   0  0  0  0  0  0  0  0  0  0  0  0
   -1.5803   -0.8195    0.3749 N   0  0  0  0  0  0  0  0  0  0  0  0
   -2.3603   -0.3345   -0.0451 H   0  0  0  0  0  0  0  0  0  0  0  0
   -0.2933   -0.1205    0.3719 C   0  0  1  0  0  0  0  0  0  0  0  0
    0.4439   -0.7485   -0.1303 H   0  0  0  0  0  0  0  0  0  0  0  0
   -0.4368    1.1924   -0.4246 C   0  0  0  0  0  0  0  0  0  0  0  0
   -0.7524    0.9411   -1.4387 H   0  0  0  0  0  0  0  0  0  0  0  0
   -1.2152    1.8064    0.0306 H   0  0  0  0  0  0  0  0  0  0  0  0
    0.8575    2.0208   -0.4995 C   0  0  0  0  0  0  0  0  0  0  0  0
    1.4627    1.8452    0.3900 H   0  0  0  0  0  0  0  0  0  0  0  0
    1.4236    1.7213   -1.3807 H   0  0  0  0  0  0  0  0  0  0  0  0
    0.5811    3.5175   -0.6003 C   0  0  0  0  0  0  0  0  0  0  0  0
   -0.5231    4.0177   -0.7428 O   0  0  0  0  0  0  0  0  0  0  0  0
    1.6648    4.3130   -0.5343 O   0  0  0  0  0  0  0  0  0  0  0  0
    1.3270    5.2057   -0.6245 H   0  0  0  0  0  0  0  0  0  0  0  0
    0.1871    0.1189    1.8122 C   0  0  0  0  0  0  0  0  0  0  0  0
    1.3541   -0.1171    2.1187 O   0  0  0  0  0  0  0  0  0  0  0  0
   -0.7126    0.5740    2.6926 N   0  0  0  0  0  0  0  0  0  0  0  0
   -1.6464    0.7663    2.3621 H   0  0  0  0  0  0  0  0  0  0  0  0
   -0.4191    0.8310    4.1010 C   0  0  0  0  0  0  0  0  0  0  0  0
    0.4022    1.5452    4.1828 H   0  0  0  0  0  0  0  0  0  0  0  0
   -1.2983    1.2366    4.6035 H   0  0  0  0  0  0  0  0  0  0  0  0
   -0.1204   -0.0980    4.5907 H   0  0  0  0  0  0  0  0  0  0  0  0
  5  6  2  0  0  0  0
  5  7  1  0  0  0  0
  2  3  1  0  0  0  0
  2  4  1  0  0  0  0
  2  5  1  0  0  0  0
  1  2  1  0  0  0  0
 21 22  2  0  0  0  0
 21 23  1  0  0  0  0
 19 20  1  0  0  0  0
 17 18  2  0  0  0  0
 17 19  1  0  0  0  0
 14 15  1  0  0  0  0
 14 16  1  0  0  0  0
 14 17  1  0  0  0  0
 11 12  1  0  0  0  0
 11 13  1  0  0  0  0
 11 14  1  0  0  0  0
  9 10  1  0  0  0  0
  9 11  1  0  0  0  0
  9 21  1  0  0  0  0
  7  8  1  0  0  0  0
  7  9  1  0  0  0  0
 25 26  1  0  0  0  0
 25 27  1  0  0  0  0
 25 28  1  0  0  0  0
 23 24  1  0  0  0  0
 23 25  1  0  0  0  0
M  END
$$$$
default_name
  -OEChem-02102213163D

 28 27  0     1  0  0  0  0  0999 V2000
   -3.2133   -3.5565    1.2809 H   0  0  0  0  0  0  0  0  0  0  0  0
   -3.1873   -2.5755    0.8089 C   0  0  0  0  0  0  0  0  0  0  0  0
   -3.8793   -1.9065    1.3169 H   0  0  0  0  0  0  0  0  0  0  0  0
   -3.4623   -2.6685   -0.2401 H   0  0  0  0  0  0  0  0  0  0  0  0
   -1.7863   -2.0195    0.9119 C   0  0  0  0  0  0  0  0  0  0  0  0
   -0.9073   -2.6615    1.4699 O   0  0  0  0  0  0  0  0  0  0  0  0
   -1.5803   -0.8195    0.3749 N   0  0  0  0  0  0  0  0  0  0  0  0
   -2.3603   -0.3345   -0.0451 H   0  0  0  0  0  0  0  0  0  0  0  0
   -0.2933   -0.1205    0.3719 C   0  0  1  0  0  0  0  0  0  0  0  0
    0.4439   -0.7485   -0.1303 H   0  0  0  0  0  0  0  0  0  0  0  0
   -0.4368    1.1924   -0.4246 C   0  0  0  0  0  0  0  0  0  0  0  0
   -0.7524    0.9411   -1.4387 H   0  0  0  0  0  0  0  0  0  0  0  0
   -1.2152    1.8064    0.0306 H   0  0  0  0  0  0  0  0  0  0  0  0
    0.8575    2.0208   -0.4995 C   0  0  0  0  0  0  0  0  0  0  0  0
    1.5745    1.6567    0.2365 H   0  0  0  0  0  0  0  0  0  0  0  0
    1.2880    1.9228   -1.4954 H   0  0  0  0  0  0  0  0  0  0  0  0
    0.6119    3.5025   -0.2335 C   0  0  0  0  0  0  0  0  0  0  0  0
   -0.4870    4.0186   -0.1072 O   0  0  0  0  0  0  0  0  0  0  0  0
    1.7162    4.2674   -0.1497 O   0  0  0  0  0  0  0  0  0  0  0  0
    1.3943    5.1573    0.0043 H   0  0  0  0  0  0  0  0  0  0  0  0
    0.1871    0.1189    1.8122 C   0  0  0  0  0  0  0  0  0  0  0  0
    1.3541   -0.1171    2.1187 O   0  0  0  0  0  0  0  0  0  0  0  0
   -0.7126    0.5740    2.6926 N   0  0  0  0  0  0  0  0  0  0  0  0
   -1.6464    0.7663    2.3621 H   0  0  0  0  0  0  0  0  0  0  0  0
   -0.4191    0.8310    4.1010 C   0  0  0  0  0  0  0  0  0  0  0  0
    0.4022    1.5452    4.1828 H   0  0  0  0  0  0  0  0  0  0  0  0
   -1.2983    1.2366    4.6035 H   0  0  0  0  0  0  0  0  0  0  0  0
   -0.1204   -0.0980    4.5907 H   0  0  0  0  0  0  0  0  0  0  0  0
  5  6  2  0  0  0  0
  5  7  1  0  0  0  0
  2  3  1  0  0  0  0
  2  4  1  0  0  0  0
  2  5  1  0  0  0  0
  1  2  1  0  0  0  0
 21 22  2  0  0  0  0
 21 23  1  0  0  0  0
 19 20  1  0  0  0  0
 17 18  2  0  0  0  0
 17 19  1  0  0  0  0
 14 15  1  0  0  0  0
 14 16  1  0  0  0  0
 14 17  1  0  0  0  0
 11 12  1  0  0  0  0
 11 13  1  0  0  0  0
 11 14  1  0  0  0  0
  9 10  1  0  0  0  0
  9 11  1  0  0  0  0
  9 21  1  0  0  0  0
  7  8  1  0  0  0  0
  7  9  1  0  0  0  0
 25 26  1  0  0  0  0
 25 27  1  0  0  0  0
 25 28  1  0  0  0  0
 23 24  1  0  0  0  0
 23 25  1  0  0  0  0
M  END
$$$$
default_name
  -OEChem-02102213163D

 28 27  0     1  0  0  0  0  0999 V2000
   -3.2133   -3.5565    1.2809 H   0  0  0  0  0  0  0  0  0  0  0  0
   -3.1873   -2.5755    0.8089 C   0  0  0  0  0  0  0  0  0  0  0  0
   -3.8793   -1.9065    1.3169 H   0  0  0  0  0  0  0  0  0  0  0  0
   -3.4623   -2.6685   -0.2401 H   0  0  0  0  0  0  0  0  0  0  0  0
   -1.7863   -2.0195    0.9119 C   0  0  0  0  0  0  0  0  0  0  0  0
   -0.9073   -2.6615    1.4699 O   0  0  0  0  0  0  0  0  0  0  0  0
   -1.5803   -0.8195    0.3749 N   0  0  0  0  0  0  0  0  0  0  0  0
   -2.3603   -0.3345   -0.0451 H   0  0  0  0  0  0  0  0  0  0  0  0
   -0.2933   -0.1205    0.3719 C   0  0  1  0  0  0  0  0  0  0  0  0
    0.4439   -0.7485   -0.1303 H   0  0  0  0  0  0  0  0  0  0  0  0
   -0.4368    1.1924   -0.4246 C   0  0  0  0  0  0  0  0  0  0  0  0
   -0.7524    0.9411   -1.4387 H   0  0  0  0  0  0  0  0  0  0  0  0
   -1.2152    1.8064    0.0306 H   0  0  0  0  0  0  0  0  0  0  0  0
    0.8575    2.0208   -0.4995 C   0  0  0  0  0  0  0  0  0  0  0  0
    1.6587    1.5067    0.0316 H   0  0  0  0  0  0  0  0  0  0  0  0
    1.1436    2.1442   -1.5434 H   0  0  0  0  0  0  0  0  0  0  0  0
    0.6926    3.4078    0.1133 C   0  0  0  0  0  0  0  0  0  0  0  0
   -0.3635    3.8807    0.5019 O   0  0  0  0  0  0  0  0  0  0  0  0
    1.8189    4.1390    0.2047 O   0  0  0  0  0  0  0  0  0  0  0  0
    1.5464    4.9728    0.5918 H   0  0  0  0  0  0  0  0  0  0  0  0
    0.1871    0.1189    1.8122 C   0  0  0  0  0  0  0  0  0  0  0  0
    1.3541   -0.1171    2.1187 O   0  0  0  0  0  0  0  0  0  0  0  0
   -0.7126    0.5740    2.6926 N   0  0  0  0  0  0  0  0  0  0  0  0
   -1.6464    0.7663    2.3621 H   0  0  0  0  0  0  0  0  0  0  0  0
   -0.4191    0.8310    4.1010 C   0  0  0  0  0  0  0  0  0  0  0  0
    0.4022    1.5452    4.1828 H   0  0  0  0  0  0  0  0  0  0  0  0
   -1.2983    1.2366    4.6035 H   0  0  0  0  0  0  0  0  0  0  0  0
   -0.1204   -0.0980    4.5907 H   0  0  0  0  0  0  0  0  0  0  0  0
  5  6  2  0  0  0  0
  5  7  1  0  0  0  0
  2  3  1  0  0  0  0
  2  4  1  0  0  0  0
  2  5  1  0  0  0  0
  1  2  1  0  0  0  0
 21 22  2  0  0  0  0
 21 23  1  0  0  0  0
 19 20  1  0  0  0  0
 17 18  2  0  0  0  0
 17 19  1  0  0  0  0
 14 15  1  0  0  0  0
 14 16  1  0  0  0  0
 14 17  1  0  0  0  0
 11 12  1  0  0  0  0
 11 13  1  0  0  0  0
 11 14  1  0  0  0  0
  9 10  1  0  0  0  0
  9 11  1  0  0  0  0
  9 21  1  0  0  0  0
  7  8  1  0  0  0  0
  7  9  1  0  0  0  0
 25 26  1  0  0  0  0
 25 27  1  0  0  0  0
 25 28  1  0  0  0  0
 23 24  1  0  0  0  0
 23 25  1  0  0  0  0
M  END
$$$$
default_name
  -OEChem-02102213163D

 28 27  0     1  0  0  0  0  0999 V2000
   -3.2133   -3.5565    1.2809 H   0  0  0  0  0  0  0  0  0  0  0  0
   -3.1873   -2.5755    0.8089 C   0  0  0  0  0  0  0  0  0  0  0  0
   -3.8793   -1.9065    1.3169 H   0  0  0  0  0  0  0  0  0  0  0  0
   -3.4623   -2.6685   -0.2401 H   0  0  0  0  0  0  0  0  0  0  0  0
   -1.7863   -2.0195    0.9119 C   0  0  0  0  0  0  0  0  0  0  0  0
   -0.9073   -2.6615    1.4699 O   0  0  0  0  0  0  0  0  0  0  0  0
   -1.5803   -0.8195    0.3749 N   0  0  0  0  0  0  0  0  0  0  0  0
   -2.3603   -0.3345   -0.0451 H   0  0  0  0  0  0  0  0  0  0  0  0
   -0.2933   -0.1205    0.3719 C   0  0  1  0  0  0  0  0  0  0  0  0
    0.4439   -0.7485   -0.1303 H   0  0  0  0  0  0  0  0  0  0  0  0
   -0.4368    1.1924   -0.4246 C   0  0  0  0  0  0  0  0  0  0  0  0
   -0.7524    0.9411   -1.4387 H   0  0  0  0  0  0  0  0  0  0  0  0
   -1.2152    1.8064    0.0306 H   0  0  0  0  0  0  0  0  0  0  0  0
    0.8575    2.0208   -0.4995 C   0  0  0  0  0  0  0  0  0  0  0  0
    1.7095    1.4053   -0.2107 H   0  0  0  0  0  0  0  0  0  0  0  0
    1.0002    2.3702   -1.5214 H   0  0  0  0  0  0  0  0  0  0  0  0
    0.8176    3.2398    0.4165 C   0  0  0  0  0  0  0  0  0  0  0  0
   -0.1610    3.6133    1.0430 O   0  0  0  0  0  0  0  0  0  0  0  0
    1.9659    3.9366    0.5047 O   0  0  0  0  0  0  0  0  0  0  0  0
    1.7729    4.6648    1.0978 H   0  0  0  0  0  0  0  0  0  0  0  0
    0.1871    0.1189    1.8122 C   0  0  0  0  0  0  0  0  0  0  0  0
    1.3541   -0.1171    2.1187 O   0  0  0  0  0  0  0  0  0  0  0  0
   -0.7126    0.5740    2.6926 N   0  0  0  0  0  0  0  0  0  0  0  0
   -1.6464    0.7663    2.3621 H   0  0  0  0  0  0  0  0  0  0  0  0
   -0.4191    0.8310    4.1010 C   0  0  0  0  0  0  0  0  0  0  0  0
    0.4022    1.5452    4.1828 H   0  0  0  0  0  0  0  0  0  0  0  0
   -1.2983    1.2366    4.6035 H   0  0  0  0  0  0  0  0  0  0  0  0
   -0.1204   -0.0980    4.5907 H   0  0  0  0  0  0  0  0  0  0  0  0
  5  6  2  0  0  0  0
  5  7  1  0  0  0  0
  2  3  1  0  0  0  0
  2  4  1  0  0  0  0
  2  5  1  0  0  0  0
  1  2  1  0  0  0  0
 21 22  2  0  0  0  0
 21 23  1  0  0  0  0
 19 20  1  0  0  0  0
 17 18  2  0  0  0  0
 17 19  1  0  0  0  0
 14 15  1  0  0  0  0
 14 16  1  0  0  0  0
 14 17  1  0  0  0  0
 11 12  1  0  0  0  0
 11 13  1  0  0  0  0
 11 14  1  0  0  0  0
  9 10  1  0  0  0  0
  9 11  1  0  0  0  0
  9 21  1  0  0  0  0
  7  8  1  0  0  0  0
  7  9  1  0  0  0  0
 25 26  1  0  0  0  0
 25 27  1  0  0  0  0
 25 28  1  0  0  0  0
 23 24  1  0  0  0  0
 23 25  1  0  0  0  0
M  END
$$$$
default_name
  -OEChem-02102213163D

 28 27  0     1  0  0  0  0  0999 V2000
   -3.2133   -3.5565    1.2809 H   0  0  0  0  0  0  0  0  0  0  0  0
   -3.1873   -2.5755    0.8089 C   0  0  0  0  0  0  0  0  0  0  0  0
   -3.8793   -1.9065    1.3169 H   0  0  0  0  0  0  0  0  0  0  0  0
   -3.4623   -2.6685   -0.2401 H   0  0  0  0  0  0  0  0  0  0  0  0
   -1.7863   -2.0195    0.9119 C   0  0  0  0  0  0  0  0  0  0  0  0
   -0.9073   -2.6615    1.4699 O   0  0  0  0  0  0  0  0  0  0  0  0
   -1.5803   -0.8195    0.3749 N   0  0  0  0  0  0  0  0  0  0  0  0
   -2.3603   -0.3345   -0.0451 H   0  0  0  0  0  0  0  0  0  0  0  0
   -0.2933   -0.1205    0.3719 C   0  0  1  0  0  0  0  0  0  0  0  0
    0.4439   -0.7485   -0.1303 H   0  0  0  0  0  0  0  0  0  0  0  0
   -0.4368    1.1924   -0.4246 C   0  0  0  0  0  0  0  0  0  0  0  0
   -0.7524    0.9411   -1.4387 H   0  0  0  0  0  0  0  0  0  0  0  0
   -1.2152    1.8064    0.0306 H   0  0  0  0  0  0  0  0  0  0  0  0
    0.8575    2.0208   -0.4995 C   0  0  0  0  0  0  0  0  0  0  0  0
    1.7236    1.3594   -0.4739 H   0  0  0  0  0  0  0  0  0  0  0  0
    0.8676    2.5856   -1.4310 H   0  0  0  0  0  0  0  0  0  0  0  0
    0.9786    3.0099    0.6553 C   0  0  0  0  0  0  0  0  0  0  0  0
    0.1066    3.2347    1.4792 O   0  0  0  0  0  0  0  0  0  0  0  0
    2.1471    3.6738    0.7300 O   0  0  0  0  0  0  0  0  0  0  0  0
    2.0582    4.2542    1.4880 H   0  0  0  0  0  0  0  0  0  0  0  0
    0.1871    0.1189    1.8122 C   0  0  0  0  0  0  0  0  0  0  0  0
    1.3541   -0.1171    2.1187 O   0  0  0  0  0  0  0  0  0  0  0  0
   -0.7126    0.5740    2.6926 N   0  0  0  0  0  0  0  0  0  0  0  0
   -1.6464    0.7663    2.3621 H   0  0  0  0  0  0  0  0  0  0  0  0
   -0.4191    0.8310    4.1010 C   0  0  0  0  0  0  0  0  0  0  0  0
    0.4022    1.5452    4.1828 H   0  0  0  0  0  0  0  0  0  0  0  0
   -1.2983    1.2366    4.6035 H   0  0  0  0  0  0  0  0  0  0  0  0
   -0.1204   -0.0980    4.5907 H   0  0  0  0  0  0  0  0  0  0  0  0
  5  6  2  0  0  0  0
  5  7  1  0  0  0  0
  2  3  1  0  0  0  0
  2  4  1  0  0  0  0
  2  5  1  0  0  0  0
  1  2  1  0  0  0  0
 21 22  2  0  0  0  0
 21 23  1  0  0  0  0
 19 20  1  0  0  0  0
 17 18  2  0  0  0  0
 17 19  1  0  0  0  0
 14 15  1  0  0  0  0
 14 16  1  0  0  0  0
 14 17  1  0  0  0  0
 11 12  1  0  0  0  0
 11 13  1  0  0  0  0
 11 14  1  0  0  0  0
  9 10  1  0  0  0  0
  9 11  1  0  0  0  0
  9 21  1  0  0  0  0
  7  8  1  0  0  0  0
  7  9  1  0  0  0  0
 25 26  1  0  0  0  0
 25 27  1  0  0  0  0
 25 28  1  0  0  0  0
 23 24  1  0  0  0  0
 23 25  1  0  0  0  0
M  END
$$$$
default_name
  -OEChem-02102213163D

 28 27  0     1  0  0  0  0  0999 V2000
   -3.2133   -3.5565    1.2809 H   0  0  0  0  0  0  0  0  0  0  0  0
   -3.1873   -2.5755    0.8089 C   0  0  0  0  0  0  0  0  0  0  0  0
   -3.8793   -1.9065    1.3169 H   0  0  0  0  0  0  0  0  0  0  0  0
   -3.4623   -2.6685   -0.2401 H   0  0  0  0  0  0  0  0  0  0  0  0
   -1.7863   -2.0195    0.9119 C   0  0  0  0  0  0  0  0  0  0  0  0
   -0.9073   -2.6615    1.4699 O   0  0  0  0  0  0  0  0  0  0  0  0
   -1.5803   -0.8195    0.3749 N   0  0  0  0  0  0  0  0  0  0  0  0
   -2.3603   -0.3345   -0.0451 H   0  0  0  0  0  0  0  0  0  0  0  0
   -0.2933   -0.1205    0.3719 C   0  0  1  0  0  0  0  0  0  0  0  0
    0.4439   -0.7485   -0.1303 H   0  0  0  0  0  0  0  0  0  0  0  0
   -0.4368    1.1924   -0.4246 C   0  0  0  0  0  0  0  0  0  0  0  0
   -0.7524    0.9411   -1.4387 H   0  0  0  0  0  0  0  0  0  0  0  0
   -1.2152    1.8064    0.0306 H   0  0  0  0  0  0  0  0  0  0  0  0
    0.8575    2.0208   -0.4995 C   0  0  0  0  0  0  0  0  0  0  0  0
    1.7000    1.3723   -0.7401 H   0  0  0  0  0  0  0  0  0  0  0  0
    0.7548    2.7756   -1.2783 H   0  0  0  0  0  0  0  0  0  0  0  0
    1.1644    2.7339    0.8135 C   0  0  0  0  0  0  0  0  0  0  0  0
    0.4211    2.7706    1.7809 O   0  0  0  0  0  0  0  0  0  0  0  0
    2.3502    3.3686    0.8651 O   0  0  0  0  0  0  0  0  0  0  0  0
    2.3831    3.7690    1.7357 H   0  0  0  0  0  0  0  0  0  0  0  0
    0.1871    0.1189    1.8122 C   0  0  0  0  0  0  0  0  0  0  0  0
    1.3541   -0.1171    2.1187 O   0  0  0  0  0  0  0  0  0  0  0  0
   -0.7126    0.5740    2.6926 N   0  0  0  0  0  0  0  0  0  0  0  0
   -1.6464    0.7663    2.3621 H   0  0  0  0  0  0  0  0  0  0  0  0
   -0.4191    0.8310    4.1010 C   0  0  0  0  0  0  0  0  0  0  0  0
    0.4022    1.5452    4.1828 H   0  0  0  0  0  0  0  0  0  0  0  0
   -1.2983    1.2366    4.6035 H   0  0  0  0  0  0  0  0  0  0  0  0
   -0.1204   -0.0980    4.5907 H   0  0  0  0  0  0  0  0  0  0  0  0
  5  6  2  0  0  0  0
  5  7  1  0  0  0  0
  2  3  1  0  0  0  0
  2  4  1  0  0  0  0
  2  5  1  0  0  0  0
  1  2  1  0  0  0  0
 21 22  2  0  0  0  0
 21 23  1  0  0  0  0
 19 20  1  0  0  0  0
 17 18  2  0  0  0  0
 17 19  1  0  0  0  0
 14 15  1  0  0  0  0
 14 16  1  0  0  0  0
 14 17  1  0  0  0  0
 11 12  1  0  0  0  0
 11 13  1  0  0  0  0
 11 14  1  0  0  0  0
  9 10  1  0  0  0  0
  9 11  1  0  0  0  0
  9 21  1  0  0  0  0
  7  8  1  0  0  0  0
  7  9  1  0  0  0  0
 25 26  1  0  0  0  0
 25 27  1  0  0  0  0
 25 28  1  0  0  0  0
 23 24  1  0  0  0  0
 23 25  1  0  0  0  0
M  END
$$$$
default_name
  -OEChem-02102213163D

 28 27  0     1  0  0  0  0  0999 V2000
   -3.2133   -3.5565    1.2809 H   0  0  0  0  0  0  0  0  0  0  0  0
   -3.1873   -2.5755    0.8089 C   0  0  0  0  0  0  0  0  0  0  0  0
   -3.8793   -1.9065    1.3169 H   0  0  0  0  0  0  0  0  0  0  0  0
   -3.4623   -2.6685   -0.2401 H   0  0  0  0  0  0  0  0  0  0  0  0
   -1.7863   -2.0195    0.9119 C   0  0  0  0  0  0  0  0  0  0  0  0
   -0.9073   -2.6615    1.4699 O   0  0  0  0  0  0  0  0  0  0  0  0
   -1.5803   -0.8195    0.3749 N   0  0  0  0  0  0  0  0  0  0  0  0
   -2.3603   -0.3345   -0.0451 H   0  0  0  0  0  0  0  0  0  0  0  0
   -0.2933   -0.1205    0.3719 C   0  0  1  0  0  0  0  0  0  0  0  0
    0.4439   -0.7485   -0.1303 H   0  0  0  0  0  0  0  0  0  0  0  0
   -0.4368    1.1924   -0.4246 C   0  0  0  0  0  0  0  0  0  0  0  0
   -0.7524    0.9411   -1.4387 H   0  0  0  0  0  0  0  0  0  0  0  0
   -1.2152    1.8064    0.0306 H   0  0  0  0  0  0  0  0  0  0  0  0
    0.8575    2.0208   -0.4995 C   0  0  0  0  0  0  0  0  0  0  0  0
    1.6402    1.4430   -0.9912 H   0  0  0  0  0  0  0  0  0  0  0  0
    0.6695    2.9273   -1.0737 H   0  0  0  0  0  0  0  0  0  0  0  0
    1.3625    2.4304    0.8803 C   0  0  0  0  0  0  0  0  0  0  0  0
    0.7610    2.2526    1.9274 O   0  0  0  0  0  0  0  0  0  0  0  0
    2.5614    3.0419    0.9009 O   0  0  0  0  0  0  0  0  0  0  0  0
    2.7253    3.2424    1.8241 H   0  0  0  0  0  0  0  0  0  0  0  0
    0.1871    0.1189    1.8122 C   0  0  0  0  0  0  0  0  0  0  0  0
    1.3541   -0.1171    2.1187 O   0  0  0  0  0  0  0  0  0  0  0  0
   -0.7126    0.5740    2.6926 N   0  0  0  0  0  0  0  0  0  0  0  0
   -1.6464    0.7663    2.3621 H   0  0  0  0  0  0  0  0  0  0  0  0
   -0.4191    0.8310    4.1010 C   0  0  0  0  0  0  0  0  0  0  0  0
    0.4022    1.5452    4.1828 H   0  0  0  0  0  0  0  0  0  0  0  0
   -1.2983    1.2366    4.6035 H   0  0  0  0  0  0  0  0  0  0  0  0
   -0.1204   -0.0980    4.5907 H   0  0  0  0  0  0  0  0  0  0  0  0
  5  6  2  0  0  0  0
  5  7  1  0  0  0  0
  2  3  1  0  0  0  0
  2  4  1  0  0  0  0
  2  5  1  0  0  0  0
  1  2  1  0  0  0  0
 21 22  2  0  0  0  0
 21 23  1  0  0  0  0
 19 20  1  0  0  0  0
 17 18  2  0  0  0  0
 17 19  1  0  0  0  0
 14 15  1  0  0  0  0
 14 16  1  0  0  0  0
 14 17  1  0  0  0  0
 11 12  1  0  0  0  0
 11 13  1  0  0  0  0
 11 14  1  0  0  0  0
  9 10  1  0  0  0  0
  9 11  1  0  0  0  0
  9 21  1  0  0  0  0
  7  8  1  0  0  0  0
  7  9  1  0  0  0  0
 25 26  1  0  0  0  0
 25 27  1  0  0  0  0
 25 28  1  0  0  0  0
 23 24  1  0  0  0  0
 23 25  1  0  0  0  0
M  END
$$$$
default_name
  -OEChem-02102213163D

 28 27  0     1  0  0  0  0  0999 V2000
   -3.2133   -3.5565    1.2809 H   0  0  0  0  0  0  0  0  0  0  0  0
   -3.1873   -2.5755    0.8089 C   0  0  0  0  0  0  0  0  0  0  0  0
   -3.8793   -1.9065    1.3169 H   0  0  0  0  0  0  0  0  0  0  0  0
   -3.4623   -2.6685   -0.2401 H   0  0  0  0  0  0  0  0  0  0  0  0
   -1.7863   -2.0195    0.9119 C   0  0  0  0  0  0  0  0  0  0  0  0
   -0.9073   -2.6615    1.4699 O   0  0  0  0  0  0  0  0  0  0  0  0
   -1.5803   -0.8195    0.3749 N   0  0  0  0  0  0  0  0  0  0  0  0
   -2.3603   -0.3345   -0.0451 H   0  0  0  0  0  0  0  0  0  0  0  0
   -0.2933   -0.1205    0.3719 C   0  0  1  0  0  0  0  0  0  0  0  0
    0.4439   -0.7485   -0.1303 H   0  0  0  0  0  0  0  0  0  0  0  0
   -0.4368    1.1924   -0.4246 C   0  0  0  0  0  0  0  0  0  0  0  0
   -0.7524    0.9411   -1.4387 H   0  0  0  0  0  0  0  0  0  0  0  0
   -1.2152    1.8064    0.0306 H   0  0  0  0  0  0  0  0  0  0  0  0
    0.8575    2.0208   -0.4995 C   0  0  0  0  0  0  0  0  0  0  0  0
    1.5484    1.5667   -1.2099 H   0  0  0  0  0  0  0  0  0  0  0  0
    0.6176    3.0304   -0.8311 H   0  0  0  0  0  0  0  0  0  0  0  0
    1.5593    2.1203    0.8511 C   0  0  0  0  0  0  0  0  0  0  0  0
    1.1033    1.7162    1.9087 O   0  0  0  0  0  0  0  0  0  0  0  0
    2.7662    2.7159    0.8349 O   0  0  0  0  0  0  0  0  0  0  0  0
    3.0615    2.7101    1.7471 H   0  0  0  0  0  0  0  0  0  0  0  0
    0.1871    0.1189    1.8122 C   0  0  0  0  0  0  0  0  0  0  0  0
    1.3541   -0.1171    2.1187 O   0  0  0  0  0  0  0  0  0  0  0  0
   -0.7126    0.5740    2.6926 N   0  0  0  0  0  0  0  0  0  0  0  0
   -1.6464    0.7663    2.3621 H   0  0  0  0  0  0  0  0  0  0  0  0
   -0.4191    0.8310    4.1010 C   0  0  0  0  0  0  0  0  0  0  0  0
    0.4022    1.5452    4.1828 H   0  0  0  0  0  0  0  0  0  0  0  0
   -1.2983    1.2366    4.6035 H   0  0  0  0  0  0  0  0  0  0  0  0
   -0.1204   -0.0980    4.5907 H   0  0  0  0  0  0  0  0  0  0  0  0
  5  6  2  0  0  0  0
  5  7  1  0  0  0  0
  2  3  1  0  0  0  0
  2  4  1  0  0  0  0
  2  5  1  0  0  0  0
  1  2  1  0  0  0  0
 21 22  2  0  0  0  0
 21 23  1  0  0  0  0
 19 20  1  0  0  0  0
 17 18  2  0  0  0  0
 17 19  1  0  0  0  0
 14 15  1  0  0  0  0
 14 16  1  0  0  0  0
 14 17  1  0  0  0  0
 11 12  1  0  0  0  0
 11 13  1  0  0  0  0
 11 14  1  0  0  0  0
  9 10  1  0  0  0  0
  9 11  1  0  0  0  0
  9 21  1  0  0  0  0
  7  8  1  0  0  0  0
  7  9  1  0  0  0  0
 25 26  1  0  0  0  0
 25 27  1  0  0  0  0
 25 28  1  0  0  0  0
 23 24  1  0  0  0  0
 23 25  1  0  0  0  0
M  END
$$$$
default_name
  -OEChem-02102213163D

 28 27  0     1  0  0  0  0  0999 V2000
   -3.2133   -3.5565    1.2809 H   0  0  0  0  0  0  0  0  0  0  0  0
   -3.1873   -2.5755    0.8089 C   0  0  0  0  0  0  0  0  0  0  0  0
   -3.8793   -1.9065    1.3169 H   0  0  0  0  0  0  0  0  0  0  0  0
   -3.4623   -2.6685   -0.2401 H   0  0  0  0  0  0  0  0  0  0  0  0
   -1.7863   -2.0195    0.9119 C   0  0  0  0  0  0  0  0  0  0  0  0
   -0.9073   -2.6615    1.4699 O   0  0  0  0  0  0  0  0  0  0  0  0
   -1.5803   -0.8195    0.3749 N   0  0  0  0  0  0  0  0  0  0  0  0
   -2.3603   -0.3345   -0.0451 H   0  0  0  0  0  0  0  0  0  0  0  0
   -0.2933   -0.1205    0.3719 C   0  0  1  0  0  0  0  0  0  0  0  0
    0.4439   -0.7485   -0.1303 H   0  0  0  0  0  0  0  0  0  0  0  0
   -0.4368    1.1924   -0.4246 C   0  0  0  0  0  0  0  0  0  0  0  0
   -0.7524    0.9411   -1.4387 H   0  0  0  0  0  0  0  0  0  0  0  0
   -1.2152    1.8064    0.0306 H   0  0  0  0  0  0  0  0  0  0  0  0
    0.8575    2.0208   -0.4995 C   0  0  0  0  0  0  0  0  0  0  0  0
    1.4308    1.7350   -1.3815 H   0  0  0  0  0  0  0  0  0  0  0  0
    0.6025    3.0778   -0.5672 H   0  0  0  0  0  0  0  0  0  0  0  0
    1.7414    1.8246    0.7280 C   0  0  0  0  0  0  0  0  0  0  0  0
    1.4246    1.1977    1.7262 O   0  0  0  0  0  0  0  0  0  0  0  0
    2.9508    2.4127    0.6716 O   0  0  0  0  0  0  0  0  0  0  0  0
    3.3688    2.2085    1.5100 H   0  0  0  0  0  0  0  0  0  0  0  0
    0.1871    0.1189    1.8122 C   0  0  0  0  0  0  0  0  0  0  0  0
    1.3541   -0.1171    2.1187 O   0  0  0  0  0  0  0  0  0  0  0  0
   -0.7126    0.5740    2.6926 N   0  0  0  0  0  0  0  0  0  0  0  0
   -1.6464    0.7663    2.3621 H   0  0  0  0  0  0  0  0  0  0  0  0
   -0.4191    0.8310    4.1010 C   0  0  0  0  0  0  0  0  0  0  0  0
    0.4022    1.5452    4.1828 H   0  0  0  0  0  0  0  0  0  0  0  0
   -1.2983    1.2366    4.6035 H   0  0  0  0  0  0  0  0  0  0  0  0
   -0.1204   -0.0980    4.5907 H   0  0  0  0  0  0  0  0  0  0  0  0
  5  6  2  0  0  0  0
  5  7  1  0  0  0  0
  2  3  1  0  0  0  0
  2  4  1  0  0  0  0
  2  5  1  0  0  0  0
  1  2  1  0  0  0  0
 21 22  2  0  0  0  0
 21 23  1  0  0  0  0
 19 20  1  0  0  0  0
 17 18  2  0  0  0  0
 17 19  1  0  0  0  0
 14 15  1  0  0  0  0
 14 16  1  0  0  0  0
 14 17  1  0  0  0  0
 11 12  1  0  0  0  0
 11 13  1  0  0  0  0
 11 14  1  0  0  0  0
  9 10  1  0  0  0  0
  9 11  1  0  0  0  0
  9 21  1  0  0  0  0
  7  8  1  0  0  0  0
  7  9  1  0  0  0  0
 25 26  1  0  0  0  0
 25 27  1  0  0  0  0
 25 28  1  0  0  0  0
 23 24  1  0  0  0  0
 23 25  1  0  0  0  0
M  END
$$$$
default_name
  -OEChem-02102213163D

 28 27  0     1  0  0  0  0  0999 V2000
   -3.2133   -3.5565    1.2809 H   0  0  0  0  0  0  0  0  0  0  0  0
   -3.1873   -2.5755    0.8089 C   0  0  0  0  0  0  0  0  0  0  0  0
   -3.8793   -1.9065    1.3169 H   0  0  0  0  0  0  0  0  0  0  0  0
   -3.4623   -2.6685   -0.2401 H   0  0  0  0  0  0  0  0  0  0  0  0
   -1.7863   -2.0195    0.9119 C   0  0  0  0  0  0  0  0  0  0  0  0
   -0.9073   -2.6615    1.4699 O   0  0  0  0  0  0  0  0  0  0  0  0
   -1.5803   -0.8195    0.3749 N   0  0  0  0  0  0  0  0  0  0  0  0
   -2.3603   -0.3345   -0.0451 H   0  0  0  0  0  0  0  0  0  0  0  0
   -0.2933   -0.1205    0.3719 C   0  0  1  0  0  0  0  0  0  0  0  0
    0.4439   -0.7485   -0.1303 H   0  0  0  0  0  0  0  0  0  0  0  0
   -0.4368    1.1924   -0.4246 C   0  0  0  0  0  0  0  0  0  0  0  0
   -0.7524    0.9411   -1.4387 H   0  0  0  0  0  0  0  0  0  0  0  0
   -1.2152    1.8064    0.0306 H   0  0  0  0  0  0  0  0  0  0  0  0
    0.8575    2.0208   -0.4995 C   0  0  0  0  0  0  0  0  0  0  0  0
    1.2954    1.9363   -1.4942 H   0  0  0  0  0  0  0  0  0  0  0  0
    0.6253    3.0663   -0.2998 H   0  0  0  0  0  0  0  0  0  0  0  0
    1.8965    1.5635    0.5193 C   0  0  0  0  0  0  0  0  0  0  0  0
    1.7029    0.7327    1.3923 O   0  0  0  0  0  0  0  0  0  0  0  0
    3.1025    2.1531    0.4222 O   0  0  0  0  0  0  0  0  0  0  0  0
    3.6263    1.7718    1.1289 H   0  0  0  0  0  0  0  0  0  0  0  0
    0.1871    0.1189    1.8122 C   0  0  0  0  0  0  0  0  0  0  0  0
    1.3541   -0.1171    2.1187 O   0  0  0  0  0  0  0  0  0  0  0  0
   -0.7126    0.5740    2.6926 N   0  0  0  0  0  0  0  0  0  0  0  0
   -1.6464    0.7663    2.3621 H   0  0  0  0  0  0  0  0  0  0  0  0
   -0.4191    0.8310    4.1010 C   0  0  0  0  0  0  0  0  0  0  0  0
    0.4022    1.5452    4.1828 H   0  0  0  0  0  0  0  0  0  0  0  0
   -1.2983    1.2366    4.6035 H   0  0  0  0  0  0  0  0  0  0  0  0
   -0.1204   -0.0980    4.5907 H   0  0  0  0  0  0  0  0  0  0  0  0
  5  6  2  0  0  0  0
  5  7  1  0  0  0  0
  2  3  1  0  0  0  0
  2  4  1  0  0  0  0
  2  5  1  0  0  0  0
  1  2  1  0  0  0  0
 21 22  2  0  0  0  0
 21 23  1  0  0  0  0
 19 20  1  0  0  0  0
 17 18  2  0  0  0  0
 17 19  1  0  0  0  0
 14 15  1  0  0  0  0
 14 16  1  0  0  0  0
 14 17  1  0  0  0  0
 11 12  1  0  0  0  0
 11 13  1  0  0  0  0
 11 14  1  0  0  0  0
  9 10  1  0  0  0  0
  9 11  1  0  0  0  0
  9 21  1  0  0  0  0
  7  8  1  0  0  0  0
  7  9  1  0  0  0  0
 25 26  1  0  0  0  0
 25 27  1  0  0  0  0
 25 28  1  0  0  0  0
 23 24  1  0  0  0  0
 23 25  1  0  0  0  0
M  END
$$$$
default_name
  -OEChem-02102213163D

 28 27  0     1  0  0  0  0  0999 V2000
   -3.2133   -3.5565    1.2809 H   0  0  0  0  0  0  0  0  0  0  0  0
   -3.1873   -2.5755    0.8089 C   0  0  0  0  0  0  0  0  0  0  0  0
   -3.8793   -1.9065    1.3169 H   0  0  0  0  0  0  0  0  0  0  0  0
   -3.4623   -2.6685   -0.2401 H   0  0  0  0  0  0  0  0  0  0  0  0
   -1.7863   -2.0195    0.9119 C   0  0  0  0  0  0  0  0  0  0  0  0
   -0.9073   -2.6615    1.4699 O   0  0  0  0  0  0  0  0  0  0  0  0
   -1.5803   -0.8195    0.3749 N   0  0  0  0  0  0  0  0  0  0  0  0
   -2.3603   -0.3345   -0.0451 H   0  0  0  0  0  0  0  0  0  0  0  0
   -0.2933   -0.1205    0.3719 C   0  0  1  0  0  0  0  0  0  0  0  0
    0.4439   -0.7485   -0.1303 H   0  0  0  0  0  0  0  0  0  0  0  0
   -0.4368    1.1924   -0.4246 C   0  0  0  0  0  0  0  0  0  0  0  0
   -0.7524    0.9411   -1.4387 H   0  0  0  0  0  0  0  0  0  0  0  0
   -1.2152    1.8064    0.0306 H   0  0  0  0  0  0  0  0  0  0  0  0
    0.8575    2.0208   -0.4995 C   0  0  0  0  0  0  0  0  0  0  0  0
    1.1515    2.1571   -1.5403 H   0  0  0  0  0  0  0  0  0  0  0  0
    0.6845    2.9966   -0.0472 H   0  0  0  0  0  0  0  0  0  0  0  0
    2.0139    1.3548    0.2393 C   0  0  0  0  0  0  0  0  0  0  0  0
    1.9194    0.3526    0.9296 O   0  0  0  0  0  0  0  0  0  0  0  0
    3.2110    1.9548    0.1035 O   0  0  0  0  0  0  0  0  0  0  0  0
    3.8164    1.4296    0.6298 H   0  0  0  0  0  0  0  0  0  0  0  0
    0.1871    0.1189    1.8122 C   0  0  0  0  0  0  0  0  0  0  0  0
    1.3541   -0.1171    2.1187 O   0  0  0  0  0  0  0  0  0  0  0  0
   -0.7126    0.5740    2.6926 N   0  0  0  0  0  0  0  0  0  0  0  0
   -1.6464    0.7663    2.3621 H   0  0  0  0  0  0  0  0  0  0  0  0
   -0.4191    0.8310    4.1010 C   0  0  0  0  0  0  0  0  0  0  0  0
    0.4022    1.5452    4.1828 H   0  0  0  0  0  0  0  0  0  0  0  0
   -1.2983    1.2366    4.6035 H   0  0  0  0  0  0  0  0  0  0  0  0
   -0.1204   -0.0980    4.5907 H   0  0  0  0  0  0  0  0  0  0  0  0
  5  6  2  0  0  0  0
  5  7  1  0  0  0  0
  2  3  1  0  0  0  0
  2  4  1  0  0  0  0
  2  5  1  0  0  0  0
  1  2  1  0  0  0  0
 21 22  2  0  0  0  0
 21 23  1  0  0  0  0
 19 20  1  0  0  0  0
 17 18  2  0  0  0  0
 17 19  1  0  0  0  0
 14 15  1  0  0  0  0
 14 16  1  0  0  0  0
 14 17  1  0  0  0  0
 11 12  1  0  0  0  0
 11 13  1  0  0  0  0
 11 14  1  0  0  0  0
  9 10  1  0  0  0  0
  9 11  1  0  0  0  0
  9 21  1  0  0  0  0
  7  8  1  0  0  0  0
  7  9  1  0  0  0  0
 25 26  1  0  0  0  0
 25 27  1  0  0  0  0
 25 28  1  0  0  0  0
 23 24  1  0  0  0  0
 23 25  1  0  0  0  0
M  END
$$$$
default_name
  -OEChem-02102213163D

 28 27  0     1  0  0  0  0  0999 V2000
   -3.2133   -3.5565    1.2809 H   0  0  0  0  0  0  0  0  0  0  0  0
   -3.1873   -2.5755    0.8089 C   0  0  0  0  0  0  0  0  0  0  0  0
   -3.8793   -1.9065    1.3169 H   0  0  0  0  0  0  0  0  0  0  0  0
   -3.4623   -2.6685   -0.2401 H   0  0  0  0  0  0  0  0  0  0  0  0
   -1.7863   -2.0195    0.9119 C   0  0  0  0  0  0  0  0  0  0  0  0
   -0.9073   -2.6615    1.4699 O   0  0  0  0  0  0  0  0  0  0  0  0
   -1.5803   -0.8195    0.3749 N   0  0  0  0  0  0  0  0  0  0  0  0
   -2.3603   -0.3345   -0.0451 H   0  0  0  0  0  0  0  0  0  0  0  0
   -0.2933   -0.1205    0.3719 C   0  0  1  0  0  0  0  0  0  0  0  0
    0.4439   -0.7485   -0.1303 H   0  0  0  0  0  0  0  0  0  0  0  0
   -0.4368    1.1924   -0.4246 C   0  0  0  0  0  0  0  0  0  0  0  0
   -0.7524    0.9411   -1.4387 H   0  0  0  0  0  0  0  0  0  0  0  0
   -1.2152    1.8064    0.0306 H   0  0  0  0  0  0  0  0  0  0  0  0
    0.8575    2.0208   -0.4995 C   0  0  0  0  0  0  0  0  0  0  0  0
    1.0087    2.3822   -1.5168 H   0  0  0  0  0  0  0  0  0  0  0  0
    0.7760    2.8737    0.1734 H   0  0  0  0  0  0  0  0  0  0  0  0
    2.0856    1.2127   -0.0930 C   0  0  0  0  0  0  0  0  0  0  0  0
    2.0592    0.0836    0.3699 O   0  0  0  0  0  0  0  0  0  0  0  0
    3.2689    1.8312   -0.2625 O   0  0  0  0  0  0  0  0  0  0  0  0
    3.9261    1.2054    0.0468 H   0  0  0  0  0  0  0  0  0  0  0  0
    0.1871    0.1189    1.8122 C   0  0  0  0  0  0  0  0  0  0  0  0
    1.3541   -0.1171    2.1187 O   0  0  0  0  0  0  0  0  0  0  0  0
   -0.7126    0.5740    2.6926 N   0  0  0  0  0  0  0  0  0  0  0  0
   -1.6464    0.7663    2.3621 H   0  0  0  0  0  0  0  0  0  0  0  0
   -0.4191    0.8310    4.1010 C   0  0  0  0  0  0  0  0  0  0  0  0
    0.4022    1.5452    4.1828 H   0  0  0  0  0  0  0  0  0  0  0  0
   -1.2983    1.2366    4.6035 H   0  0  0  0  0  0  0  0  0  0  0  0
   -0.1204   -0.0980    4.5907 H   0  0  0  0  0  0  0  0  0  0  0  0
  5  6  2  0  0  0  0
  5  7  1  0  0  0  0
  2  3  1  0  0  0  0
  2  4  1  0  0  0  0
  2  5  1  0  0  0  0
  1  2  1  0  0  0  0
 21 22  2  0  0  0  0
 21 23  1  0  0  0  0
 19 20  1  0  0  0  0
 17 18  2  0  0  0  0
 17 19  1  0  0  0  0
 14 15  1  0  0  0  0
 14 16  1  0  0  0  0
 14 17  1  0  0  0  0
 11 12  1  0  0  0  0
 11 13  1  0  0  0  0
 11 14  1  0  0  0  0
  9 10  1  0  0  0  0
  9 11  1  0  0  0  0
  9 21  1  0  0  0  0
  7  8  1  0  0  0  0
  7  9  1  0  0  0  0
 25 26  1  0  0  0  0
 25 27  1  0  0  0  0
 25 28  1  0  0  0  0
 23 24  1  0  0  0  0
 23 25  1  0  0  0  0
M  END
$$$$
default_name
  -OEChem-02102213163D

 28 27  0     1  0  0  0  0  0999 V2000
   -3.2133   -3.5565    1.2809 H   0  0  0  0  0  0  0  0  0  0  0  0
   -3.1873   -2.5755    0.8089 C   0  0  0  0  0  0  0  0  0  0  0  0
   -3.8793   -1.9065    1.3169 H   0  0  0  0  0  0  0  0  0  0  0  0
   -3.4623   -2.6685   -0.2401 H   0  0  0  0  0  0  0  0  0  0  0  0
   -1.7863   -2.0195    0.9119 C   0  0  0  0  0  0  0  0  0  0  0  0
   -0.9073   -2.6615    1.4699 O   0  0  0  0  0  0  0  0  0  0  0  0
   -1.5803   -0.8195    0.3749 N   0  0  0  0  0  0  0  0  0  0  0  0
   -2.3603   -0.3345   -0.0451 H   0  0  0  0  0  0  0  0  0  0  0  0
   -0.2933   -0.1205    0.3719 C   0  0  1  0  0  0  0  0  0  0  0  0
    0.4439   -0.7485   -0.1303 H   0  0  0  0  0  0  0  0  0  0  0  0
   -0.4368    1.1924   -0.4246 C   0  0  0  0  0  0  0  0  0  0  0  0
   -0.7524    0.9411   -1.4387 H   0  0  0  0  0  0  0  0  0  0  0  0
   -1.2152    1.8064    0.0306 H   0  0  0  0  0  0  0  0  0  0  0  0
    0.8575    2.0208   -0.4995 C   0  0  0  0  0  0  0  0  0  0  0  0
    0.8770    2.5962   -1.4251 H   0  0  0  0  0  0  0  0  0  0  0  0
    0.8935    2.7057    0.3469 H   0  0  0  0  0  0  0  0  0  0  0  0
    2.1068    1.1468   -0.4550 C   0  0  0  0  0  0  0  0  0  0  0  0
    2.1129   -0.0562   -0.2489 O   0  0  0  0  0  0  0  0  0  0  0  0
    3.2723    1.7909   -0.6511 O   0  0  0  0  0  0  0  0  0  0  0  0
    3.9481    1.1144   -0.5805 H   0  0  0  0  0  0  0  0  0  0  0  0
    0.1871    0.1189    1.8122 C   0  0  0  0  0  0  0  0  0  0  0  0
    1.3541   -0.1171    2.1187 O   0  0  0  0  0  0  0  0  0  0  0  0
   -0.7126    0.5740    2.6926 N   0  0  0  0  0  0  0  0  0  0  0  0
   -1.6464    0.7663    2.3621 H   0  0  0  0  0  0  0  0  0  0  0  0
   -0.4191    0.8310    4.1010 C   0  0  0  0  0  0  0  0  0  0  0  0
    0.4022    1.5452    4.1828 H   0  0  0  0  0  0  0  0  0  0  0  0
   -1.2983    1.2366    4.6035 H   0  0  0  0  0  0  0  0  0  0  0  0
   -0.1204   -0.0980    4.5907 H   0  0  0  0  0  0  0  0  0  0  0  0
  5  6  2  0  0  0  0
  5  7  1  0  0  0  0
  2  3  1  0  0  0  0
  2  4  1  0  0  0  0
  2  5  1  0  0  0  0
  1  2  1  0  0  0  0
 21 22  2  0  0  0  0
 21 23  1  0  0  0  0
 19 20  1  0  0  0  0
 17 18  2  0  0  0  0
 17 19  1  0  0  0  0
 14 15  1  0  0  0  0
 14 16  1  0  0  0  0
 14 17  1  0  0  0  0
 11 12  1  0  0  0  0
 11 13  1  0  0  0  0
 11 14  1  0  0  0  0
  9 10  1  0  0  0  0
  9 11  1  0  0  0  0
  9 21  1  0  0  0  0
  7  8  1  0  0  0  0
  7  9  1  0  0  0  0
 25 26  1  0  0  0  0
 25 27  1  0  0  0  0
 25 28  1  0  0  0  0
 23 24  1  0  0  0  0
 23 25  1  0  0  0  0
M  END
$$$$
default_name
  -OEChem-02102213163D

 28 27  0     1  0  0  0  0  0999 V2000
   -3.2133   -3.5565    1.2809 H   0  0  0  0  0  0  0  0  0  0  0  0
   -3.1873   -2.5755    0.8089 C   0  0  0  0  0  0  0  0  0  0  0  0
   -3.8793   -1.9065    1.3169 H   0  0  0  0  0  0  0  0  0  0  0  0
   -3.4623   -2.6685   -0.2401 H   0  0  0  0  0  0  0  0  0  0  0  0
   -1.7863   -2.0195    0.9119 C   0  0  0  0  0  0  0  0  0  0  0  0
   -0.9073   -2.6615    1.4699 O   0  0  0  0  0  0  0  0  0  0  0  0
   -1.5803   -0.8195    0.3749 N   0  0  0  0  0  0  0  0  0  0  0  0
   -2.3603   -0.3345   -0.0451 H   0  0  0  0  0  0  0  0  0  0  0  0
   -0.2933   -0.1205    0.3719 C   0  0  1  0  0  0  0  0  0  0  0  0
    0.4439   -0.7485   -0.1303 H   0  0  0  0  0  0  0  0  0  0  0  0
   -0.4368    1.1924   -0.4246 C   0  0  0  0  0  0  0  0  0  0  0  0
   -0.7524    0.9411   -1.4387 H   0  0  0  0  0  0  0  0  0  0  0  0
   -1.2152    1.8064    0.0306 H   0  0  0  0  0  0  0  0  0  0  0  0
    0.8575    2.0208   -0.4995 C   0  0  0  0  0  0  0  0  0  0  0  0
    0.7653    2.7847   -1.2716 H   0  0  0  0  0  0  0  0  0  0  0  0
    1.0291    2.5042    0.4616 H   0  0  0  0  0  0  0  0  0  0  0  0
    2.0760    1.1618   -0.8218 C   0  0  0  0  0  0  0  0  0  0  0  0
    2.0767   -0.0572   -0.8845 O   0  0  0  0  0  0  0  0  0  0  0  0
    3.2209    1.8364   -1.0357 O   0  0  0  0  0  0  0  0  0  0  0  0
    3.8807    1.1628   -1.2093 H   0  0  0  0  0  0  0  0  0  0  0  0
    0.1871    0.1189    1.8122 C   0  0  0  0  0  0  0  0  0  0  0  0
    1.3541   -0.1171    2.1187 O   0  0  0  0  0  0  0  0  0  0  0  0
   -0.7126    0.5740    2.6926 N   0  0  0  0  0  0  0  0  0  0  0  0
   -1.6464    0.7663    2.3621 H   0  0  0  0  0  0  0  0  0  0  0  0
   -0.4191    0.8310    4.1010 C   0  0  0  0  0  0  0  0  0  0  0  0
    0.4022    1.5452    4.1828 H   0  0  0  0  0  0  0  0  0  0  0  0
   -1.2983    1.2366    4.6035 H   0  0  0  0  0  0  0  0  0  0  0  0
   -0.1204   -0.0980    4.5907 H   0  0  0  0  0  0  0  0  0  0  0  0
  5  6  2  0  0  0  0
  5  7  1  0  0  0  0
  2  3  1  0  0  0  0
  2  4  1  0  0  0  0
  2  5  1  0  0  0  0
  1  2  1  0  0  0  0
 21 22  2  0  0  0  0
 21 23  1  0  0  0  0
 19 20  1  0  0  0  0
 17 18  2  0  0  0  0
 17 19  1  0  0  0  0
 14 15  1  0  0  0  0
 14 16  1  0  0  0  0
 14 17  1  0  0  0  0
 11 12  1  0  0  0  0
 11 13  1  0  0  0  0
 11 14  1  0  0  0  0
  9 10  1  0  0  0  0
  9 11  1  0  0  0  0
  9 21  1  0  0  0  0
  7  8  1  0  0  0  0
  7  9  1  0  0  0  0
 25 26  1  0  0  0  0
 25 27  1  0  0  0  0
 25 28  1  0  0  0  0
 23 24  1  0  0  0  0
 23 25  1  0  0  0  0
M  END
$$$$
default_name
  -OEChem-02102213163D

 28 27  0     1  0  0  0  0  0999 V2000
   -3.2133   -3.5565    1.2809 H   0  0  0  0  0  0  0  0  0  0  0  0
   -3.1873   -2.5755    0.8089 C   0  0  0  0  0  0  0  0  0  0  0  0
   -3.8793   -1.9065    1.3169 H   0  0  0  0  0  0  0  0  0  0  0  0
   -3.4623   -2.6685   -0.2401 H   0  0  0  0  0  0  0  0  0  0  0  0
   -1.7863   -2.0195    0.9119 C   0  0  0  0  0  0  0  0  0  0  0  0
   -0.9073   -2.6615    1.4699 O   0  0  0  0  0  0  0  0  0  0  0  0
   -1.5803   -0.8195    0.3749 N   0  0  0  0  0  0  0  0  0  0  0  0
   -2.3603   -0.3345   -0.0451 H   0  0  0  0  0  0  0  0  0  0  0  0
   -0.2933   -0.1205    0.3719 C   0  0  1  0  0  0  0  0  0  0  0  0
    0.4439   -0.7485   -0.1303 H   0  0  0  0  0  0  0  0  0  0  0  0
   -0.4368    1.1924   -0.4246 C   0  0  0  0  0  0  0  0  0  0  0  0
   -0.7524    0.9411   -1.4387 H   0  0  0  0  0  0  0  0  0  0  0  0
   -1.2152    1.8064    0.0306 H   0  0  0  0  0  0  0  0  0  0  0  0
    0.8575    2.0208   -0.4995 C   0  0  0  0  0  0  0  0  0  0  0  0
    0.6811    2.9348   -1.0667 H   0  0  0  0  0  0  0  0  0  0  0  0
    1.1736    2.2829    0.5095 H   0  0  0  0  0  0  0  0  0  0  0  0
    1.9953    1.2565   -1.1686 C   0  0  0  0  0  0  0  0  0  0  0  0
    1.9532    0.0807   -1.4936 O   0  0  0  0  0  0  0  0  0  0  0  0
    3.1182    1.9648   -1.3901 O   0  0  0  0  0  0  0  0  0  0  0  0
    3.7286    1.3473   -1.7967 H   0  0  0  0  0  0  0  0  0  0  0  0
    0.1871    0.1189    1.8122 C   0  0  0  0  0  0  0  0  0  0  0  0
    1.3541   -0.1171    2.1187 O   0  0  0  0  0  0  0  0  0  0  0  0
   -0.7126    0.5740    2.6926 N   0  0  0  0  0  0  0  0  0  0  0  0
   -1.6464    0.7663    2.3621 H   0  0  0  0  0  0  0  0  0  0  0  0
   -0.4191    0.8310    4.1010 C   0  0  0  0  0  0  0  0  0  0  0  0
    0.4022    1.5452    4.1828 H   0  0  0  0  0  0  0  0  0  0  0  0
   -1.2983    1.2366    4.6035 H   0  0  0  0  0  0  0  0  0  0  0  0
   -0.1204   -0.0980    4.5907 H   0  0  0  0  0  0  0  0  0  0  0  0
  5  6  2  0  0  0  0
  5  7  1  0  0  0  0
  2  3  1  0  0  0  0
  2  4  1  0  0  0  0
  2  5  1  0  0  0  0
  1  2  1  0  0  0  0
 21 22  2  0  0  0  0
 21 23  1  0  0  0  0
 19 20  1  0  0  0  0
 17 18  2  0  0  0  0
 17 19  1  0  0  0  0
 14 15  1  0  0  0  0
 14 16  1  0  0  0  0
 14 17  1  0  0  0  0
 11 12  1  0  0  0  0
 11 13  1  0  0  0  0
 11 14  1  0  0  0  0
  9 10  1  0  0  0  0
  9 11  1  0  0  0  0
  9 21  1  0  0  0  0
  7  8  1  0  0  0  0
  7  9  1  0  0  0  0
 25 26  1  0  0  0  0
 25 27  1  0  0  0  0
 25 28  1  0  0  0  0
 23 24  1  0  0  0  0
 23 25  1  0  0  0  0
M  END
$$$$
default_name
  -OEChem-02102213163D

 28 27  0     1  0  0  0  0  0999 V2000
   -3.2133   -3.5565    1.2809 H   0  0  0  0  0  0  0  0  0  0  0  0
   -3.1873   -2.5755    0.8089 C   0  0  0  0  0  0  0  0  0  0  0  0
   -3.8793   -1.9065    1.3169 H   0  0  0  0  0  0  0  0  0  0  0  0
   -3.4623   -2.6685   -0.2401 H   0  0  0  0  0  0  0  0  0  0  0  0
   -1.7863   -2.0195    0.9119 C   0  0  0  0  0  0  0  0  0  0  0  0
   -0.9073   -2.6615    1.4699 O   0  0  0  0  0  0  0  0  0  0  0  0
   -1.5803   -0.8195    0.3749 N   0  0  0  0  0  0  0  0  0  0  0  0
   -2.3603   -0.3345   -0.0451 H   0  0  0  0  0  0  0  0  0  0  0  0
   -0.2933   -0.1205    0.3719 C   0  0  1  0  0  0  0  0  0  0  0  0
    0.4439   -0.7485   -0.1303 H   0  0  0  0  0  0  0  0  0  0  0  0
   -0.4368    1.1924   -0.4246 C   0  0  0  0  0  0  0  0  0  0  0  0
   -0.7524    0.9411   -1.4387 H   0  0  0  0  0  0  0  0  0  0  0  0
   -1.2152    1.8064    0.0306 H   0  0  0  0  0  0  0  0  0  0  0  0
    0.8575    2.0208   -0.4995 C   0  0  0  0  0  0  0  0  0  0  0  0
    0.6302    3.0362   -0.8244 H   0  0  0  0  0  0  0  0  0  0  0  0
    1.3170    2.0568    0.4876 H   0  0  0  0  0  0  0  0  0  0  0  0
    1.8702    1.4245   -1.4718 C   0  0  0  0  0  0  0  0  0  0  0  0
    1.7508    0.3481   -2.0348 O   0  0  0  0  0  0  0  0  0  0  0  0
    2.9712    2.1673   -1.6902 O   0  0  0  0  0  0  0  0  0  0  0  0
    3.5022    1.6554   -2.3028 H   0  0  0  0  0  0  0  0  0  0  0  0
    0.1871    0.1189    1.8122 C   0  0  0  0  0  0  0  0  0  0  0  0
    1.3541   -0.1171    2.1187 O   0  0  0  0  0  0  0  0  0  0  0  0
   -0.7126    0.5740    2.6926 N   0  0  0  0  0  0  0  0  0  0  0  0
   -1.6464    0.7663    2.3621 H   0  0  0  0  0  0  0  0  0  0  0  0
   -0.4191    0.8310    4.1010 C   0  0  0  0  0  0  0  0  0  0  0  0
    0.4022    1.5452    4.1828 H   0  0  0  0  0  0  0  0  0  0  0  0
   -1.2983    1.2366    4.6035 H   0  0  0  0  0  0  0  0  0  0  0  0
   -0.1204   -0.0980    4.5907 H   0  0  0  0  0  0  0  0  0  0  0  0
  5  6  2  0  0  0  0
  5  7  1  0  0  0  0
  2  3  1  0  0  0  0
  2  4  1  0  0  0  0
  2  5  1  0  0  0  0
  1  2  1  0  0  0  0
 21 22  2  0  0  0  0
 21 23  1  0  0  0  0
 19 20  1  0  0  0  0
 17 18  2  0  0  0  0
 17 19  1  0  0  0  0
 14 15  1  0  0  0  0
 14 16  1  0  0  0  0
 14 17  1  0  0  0  0
 11 12  1  0  0  0  0
 11 13  1  0  0  0  0
 11 14  1  0  0  0  0
  9 10  1  0  0  0  0
  9 11  1  0  0  0  0
  9 21  1  0  0  0  0
  7  8  1  0  0  0  0
  7  9  1  0  0  0  0
 25 26  1  0  0  0  0
 25 27  1  0  0  0  0
 25 28  1  0  0  0  0
 23 24  1  0  0  0  0
 23 25  1  0  0  0  0
M  END
$$$$
default_name
  -OEChem-02102213163D

 28 27  0     1  0  0  0  0  0999 V2000
   -3.2133   -3.5565    1.2809 H   0  0  0  0  0  0  0  0  0  0  0  0
   -3.1873   -2.5755    0.8089 C   0  0  0  0  0  0  0  0  0  0  0  0
   -3.8793   -1.9065    1.3169 H   0  0  0  0  0  0  0  0  0  0  0  0
   -3.4623   -2.6685   -0.2401 H   0  0  0  0  0  0  0  0  0  0  0  0
   -1.7863   -2.0195    0.9119 C   0  0  0  0  0  0  0  0  0  0  0  0
   -0.9073   -2.6615    1.4699 O   0  0  0  0  0  0  0  0  0  0  0  0
   -1.5803   -0.8195    0.3749 N   0  0  0  0  0  0  0  0  0  0  0  0
   -2.3603   -0.3345   -0.0451 H   0  0  0  0  0  0  0  0  0  0  0  0
   -0.2933   -0.1205    0.3719 C   0  0  1  0  0  0  0  0  0  0  0  0
    0.4439   -0.7485   -0.1303 H   0  0  0  0  0  0  0  0  0  0  0  0
   -0.4368    1.1924   -0.4246 C   0  0  0  0  0  0  0  0  0  0  0  0
   -0.7524    0.9411   -1.4387 H   0  0  0  0  0  0  0  0  0  0  0  0
   -1.2152    1.8064    0.0306 H   0  0  0  0  0  0  0  0  0  0  0  0
    0.8575    2.0208   -0.4995 C   0  0  0  0  0  0  0  0  0  0  0  0
    0.6161    3.0820   -0.5612 H   0  0  0  0  0  0  0  0  0  0  0  0
    1.4496    1.8414    0.3972 H   0  0  0  0  0  0  0  0  0  0  0  0
    1.7093    1.6544   -1.7106 C   0  0  0  0  0  0  0  0  0  0  0  0
    1.4832    0.7268   -2.4710 O   0  0  0  0  0  0  0  0  0  0  0  0
    2.7900    2.4301   -1.9154 O   0  0  0  0  0  0  0  0  0  0  0  0
    3.2168    2.0660   -2.6930 H   0  0  0  0  0  0  0  0  0  0  0  0
    0.1871    0.1189    1.8122 C   0  0  0  0  0  0  0  0  0  0  0  0
    1.3541   -0.1171    2.1187 O   0  0  0  0  0  0  0  0  0  0  0  0
   -0.7126    0.5740    2.6926 N   0  0  0  0  0  0  0  0  0  0  0  0
   -1.6464    0.7663    2.3621 H   0  0  0  0  0  0  0  0  0  0  0  0
   -0.4191    0.8310    4.1010 C   0  0  0  0  0  0  0  0  0  0  0  0
    0.4022    1.5452    4.1828 H   0  0  0  0  0  0  0  0  0  0  0  0
   -1.2983    1.2366    4.6035 H   0  0  0  0  0  0  0  0  0  0  0  0
   -0.1204   -0.0980    4.5907 H   0  0  0  0  0  0  0  0  0  0  0  0
  5  6  2  0  0  0  0
  5  7  1  0  0  0  0
  2  3  1  0  0  0  0
  2  4  1  0  0  0  0
  2  5  1  0  0  0  0
  1  2  1  0  0  0  0
 21 22  2  0  0  0  0
 21 23  1  0  0  0  0
 19 20  1  0  0  0  0
 17 18  2  0  0  0  0
 17 19  1  0  0  0  0
 14 15  1  0  0  0  0
 14 16  1  0  0  0  0
 14 17  1  0  0  0  0
 11 12  1  0  0  0  0
 11 13  1  0  0  0  0
 11 14  1  0  0  0  0
  9 10  1  0  0  0  0
  9 11  1  0  0  0  0
  9 21  1  0  0  0  0
  7  8  1  0  0  0  0
  7  9  1  0  0  0  0
 25 26  1  0  0  0  0
 25 27  1  0  0  0  0
 25 28  1  0  0  0  0
 23 24  1  0  0  0  0
 23 25  1  0  0  0  0
M  END
$$$$
default_name
  -OEChem-02102213163D

 28 27  0     1  0  0  0  0  0999 V2000
   -3.2133   -3.5565    1.2809 H   0  0  0  0  0  0  0  0  0  0  0  0
   -3.1873   -2.5755    0.8089 C   0  0  0  0  0  0  0  0  0  0  0  0
   -3.8793   -1.9065    1.3169 H   0  0  0  0  0  0  0  0  0  0  0  0
   -3.4623   -2.6685   -0.2401 H   0  0  0  0  0  0  0  0  0  0  0  0
   -1.7863   -2.0195    0.9119 C   0  0  0  0  0  0  0  0  0  0  0  0
   -0.9073   -2.6615    1.4699 O   0  0  0  0  0  0  0  0  0  0  0  0
   -1.5803   -0.8195    0.3749 N   0  0  0  0  0  0  0  0  0  0  0  0
   -2.3603   -0.3345   -0.0451 H   0  0  0  0  0  0  0  0  0  0  0  0
   -0.2933   -0.1205    0.3719 C   0  0  1  0  0  0  0  0  0  0  0  0
    0.4439   -0.7485   -0.1303 H   0  0  0  0  0  0  0  0  0  0  0  0
   -0.4368    1.1924   -0.4246 C   0  0  0  0  0  0  0  0  0  0  0  0
   -0.7524    0.9411   -1.4387 H   0  0  0  0  0  0  0  0  0  0  0  0
   -1.2152    1.8064    0.0306 H   0  0  0  0  0  0  0  0  0  0  0  0
    0.8575    2.0208   -0.4995 C   0  0  0  0  0  0  0  0  0  0  0  0
    0.6397    3.0692   -0.2950 H   0  0  0  0  0  0  0  0  0  0  0  0
    1.5624    1.6514    0.2444 H   0  0  0  0  0  0  0  0  0  0  0  0
    1.5235    1.9304   -1.8688 C   0  0  0  0  0  0  0  0  0  0  0  0
    1.1687    1.1909   -2.7727 O   0  0  0  0  0  0  0  0  0  0  0  0
    2.5869    2.7352   -2.0506 O   0  0  0  0  0  0  0  0  0  0  0  0
    2.8920    2.5512   -2.9407 H   0  0  0  0  0  0  0  0  0  0  0  0
    0.1871    0.1189    1.8122 C   0  0  0  0  0  0  0  0  0  0  0  0
    1.3541   -0.1171    2.1187 O   0  0  0  0  0  0  0  0  0  0  0  0
   -0.7126    0.5740    2.6926 N   0  0  0  0  0  0  0  0  0  0  0  0
   -1.6464    0.7663    2.3621 H   0  0  0  0  0  0  0  0  0  0  0  0
   -0.4191    0.8310    4.1010 C   0  0  0  0  0  0  0  0  0  0  0  0
    0.4022    1.5452    4.1828 H   0  0  0  0  0  0  0  0  0  0  0  0
   -1.2983    1.2366    4.6035 H   0  0  0  0  0  0  0  0  0  0  0  0
   -0.1204   -0.0980    4.5907 H   0  0  0  0  0  0  0  0  0  0  0  0
  5  6  2  0  0  0  0
  5  7  1  0  0  0  0
  2  3  1  0  0  0  0
  2  4  1  0  0  0  0
  2  5  1  0  0  0  0
  1  2  1  0  0  0  0
 21 22  2  0  0  0  0
 21 23  1  0  0  0  0
 19 20  1  0  0  0  0
 17 18  2  0  0  0  0
 17 19  1  0  0  0  0
 14 15  1  0  0  0  0
 14 16  1  0  0  0  0
 14 17  1  0  0  0  0
 11 12  1  0  0  0  0
 11 13  1  0  0  0  0
 11 14  1  0  0  0  0
  9 10  1  0  0  0  0
  9 11  1  0  0  0  0
  9 21  1  0  0  0  0
  7  8  1  0  0  0  0
  7  9  1  0  0  0  0
 25 26  1  0  0  0  0
 25 27  1  0  0  0  0
 25 28  1  0  0  0  0
 23 24  1  0  0  0  0
 23 25  1  0  0  0  0
M  END
$$$$
default_name
  -OEChem-02102213163D

 28 27  0     1  0  0  0  0  0999 V2000
   -3.2133   -3.5565    1.2809 H   0  0  0  0  0  0  0  0  0  0  0  0
   -3.1873   -2.5755    0.8089 C   0  0  0  0  0  0  0  0  0  0  0  0
   -3.8793   -1.9065    1.3169 H   0  0  0  0  0  0  0  0  0  0  0  0
   -3.4623   -2.6685   -0.2401 H   0  0  0  0  0  0  0  0  0  0  0  0
   -1.7863   -2.0195    0.9119 C   0  0  0  0  0  0  0  0  0  0  0  0
   -0.9073   -2.6615    1.4699 O   0  0  0  0  0  0  0  0  0  0  0  0
   -1.5803   -0.8195    0.3749 N   0  0  0  0  0  0  0  0  0  0  0  0
   -2.3603   -0.3345   -0.0451 H   0  0  0  0  0  0  0  0  0  0  0  0
   -0.2933   -0.1205    0.3719 C   0  0  1  0  0  0  0  0  0  0  0  0
    0.4439   -0.7485   -0.1303 H   0  0  0  0  0  0  0  0  0  0  0  0
   -0.4368    1.1924   -0.4246 C   0  0  0  0  0  0  0  0  0  0  0  0
   -0.7524    0.9411   -1.4387 H   0  0  0  0  0  0  0  0  0  0  0  0
   -1.2152    1.8064    0.0306 H   0  0  0  0  0  0  0  0  0  0  0  0
    0.8575    2.0208   -0.4995 C   0  0  0  0  0  0  0  0  0  0  0  0
    0.6995    2.9985   -0.0440 H   0  0  0  0  0  0  0  0  0  0  0  0
    1.6476    1.4997    0.0398 H   0  0  0  0  0  0  0  0  0  0  0  0
    1.3254    2.2339   -1.9355 C   0  0  0  0  0  0  0  0  0  0  0  0
    0.8287    1.7088   -2.9191 O   0  0  0  0  0  0  0  0  0  0  0  0
    2.3757    3.0619   -2.0863 O   0  0  0  0  0  0  0  0  0  0  0  0
    2.5498    3.0778   -3.0291 H   0  0  0  0  0  0  0  0  0  0  0  0
    0.1871    0.1189    1.8122 C   0  0  0  0  0  0  0  0  0  0  0  0
    1.3541   -0.1171    2.1187 O   0  0  0  0  0  0  0  0  0  0  0  0
   -0.7126    0.5740    2.6926 N   0  0  0  0  0  0  0  0  0  0  0  0
   -1.6464    0.7663    2.3621 H   0  0  0  0  0  0  0  0  0  0  0  0
   -0.4191    0.8310    4.1010 C   0  0  0  0  0  0  0  0  0  0  0  0
    0.4022    1.5452    4.1828 H   0  0  0  0  0  0  0  0  0  0  0  0
   -1.2983    1.2366    4.6035 H   0  0  0  0  0  0  0  0  0  0  0  0
   -0.1204   -0.0980    4.5907 H   0  0  0  0  0  0  0  0  0  0  0  0
  5  6  2  0  0  0  0
  5  7  1  0  0  0  0
  2  3  1  0  0  0  0
  2  4  1  0  0  0  0
  2  5  1  0  0  0  0
  1  2  1  0  0  0  0
 21 22  2  0  0  0  0
 21 23  1  0  0  0  0
 19 20  1  0  0  0  0
 17 18  2  0  0  0  0
 17 19  1  0  0  0  0
 14 15  1  0  0  0  0
 14 16  1  0  0  0  0
 14 17  1  0  0  0  0
 11 12  1  0  0  0  0
 11 13  1  0  0  0  0
 11 14  1  0  0  0  0
  9 10  1  0  0  0  0
  9 11  1  0  0  0  0
  9 21  1  0  0  0  0
  7  8  1  0  0  0  0
  7  9  1  0  0  0  0
 25 26  1  0  0  0  0
 25 27  1  0  0  0  0
 25 28  1  0  0  0  0
 23 24  1  0  0  0  0
 23 25  1  0  0  0  0
M  END
$$$$
default_name
  -OEChem-02102213163D

 28 27  0     1  0  0  0  0  0999 V2000
   -3.2133   -3.5565    1.2809 H   0  0  0  0  0  0  0  0  0  0  0  0
   -3.1873   -2.5755    0.8089 C   0  0  0  0  0  0  0  0  0  0  0  0
   -3.8793   -1.9065    1.3169 H   0  0  0  0  0  0  0  0  0  0  0  0
   -3.4623   -2.6685   -0.2401 H   0  0  0  0  0  0  0  0  0  0  0  0
   -1.7863   -2.0195    0.9119 C   0  0  0  0  0  0  0  0  0  0  0  0
   -0.9073   -2.6615    1.4699 O   0  0  0  0  0  0  0  0  0  0  0  0
   -1.5803   -0.8195    0.3749 N   0  0  0  0  0  0  0  0  0  0  0  0
   -2.3603   -0.3345   -0.0451 H   0  0  0  0  0  0  0  0  0  0  0  0
   -0.2933   -0.1205    0.3719 C   0  0  1  0  0  0  0  0  0  0  0  0
    0.4439   -0.7485   -0.1303 H   0  0  0  0  0  0  0  0  0  0  0  0
   -0.4368    1.1924   -0.4246 C   0  0  0  0  0  0  0  0  0  0  0  0
   -0.7524    0.9411   -1.4387 H   0  0  0  0  0  0  0  0  0  0  0  0
   -1.2152    1.8064    0.0306 H   0  0  0  0  0  0  0  0  0  0  0  0
    0.8575    2.0208   -0.4995 C   0  0  0  0  0  0  0  0  0  0  0  0
    0.7913    2.8748    0.1748 H   0  0  0  0  0  0  0  0  0  0  0  0
    1.6996    1.3966   -0.2027 H   0  0  0  0  0  0  0  0  0  0  0  0
    1.1286    2.5440   -1.9064 C   0  0  0  0  0  0  0  0  0  0  0  0
    0.4864    2.2453   -2.9005 O   0  0  0  0  0  0  0  0  0  0  0  0
    2.1709    3.3880   -2.0203 O   0  0  0  0  0  0  0  0  0  0  0  0
    2.2136    3.6101   -2.9521 H   0  0  0  0  0  0  0  0  0  0  0  0
    0.1871    0.1189    1.8122 C   0  0  0  0  0  0  0  0  0  0  0  0
    1.3541   -0.1171    2.1187 O   0  0  0  0  0  0  0  0  0  0  0  0
   -0.7126    0.5740    2.6926 N   0  0  0  0  0  0  0  0  0  0  0  0
   -1.6464    0.7663    2.3621 H   0  0  0  0  0  0  0  0  0  0  0  0
   -0.4191    0.8310    4.1010 C   0  0  0  0  0  0  0  0  0  0  0  0
    0.4022    1.5452    4.1828 H   0  0  0  0  0  0  0  0  0  0  0  0
   -1.2983    1.2366    4.6035 H   0  0  0  0  0  0  0  0  0  0  0  0
   -0.1204   -0.0980    4.5907 H   0  0  0  0  0  0  0  0  0  0  0  0
  5  6  2  0  0  0  0
  5  7  1  0  0  0  0
  2  3  1  0  0  0  0
  2  4  1  0  0  0  0
  2  5  1  0  0  0  0
  1  2  1  0  0  0  0
 21 22  2  0  0  0  0
 21 23  1  0  0  0  0
 19 20  1  0  0  0  0
 17 18  2  0  0  0  0
 17 19  1  0  0  0  0
 14 15  1  0  0  0  0
 14 16  1  0  0  0  0
 14 17  1  0  0  0  0
 11 12  1  0  0  0  0
 11 13  1  0  0  0  0
 11 14  1  0  0  0  0
  9 10  1  0  0  0  0
  9 11  1  0  0  0  0
  9 21  1  0  0  0  0
  7  8  1  0  0  0  0
  7  9  1  0  0  0  0
 25 26  1  0  0  0  0
 25 27  1  0  0  0  0
 25 28  1  0  0  0  0
 23 24  1  0  0  0  0
 23 25  1  0  0  0  0
M  END
$$$$
default_name
  -OEChem-02102213163D

 28 27  0     1  0  0  0  0  0999 V2000
   -3.2133   -3.5565    1.2809 H   0  0  0  0  0  0  0  0  0  0  0  0
   -3.1873   -2.5755    0.8089 C   0  0  0  0  0  0  0  0  0  0  0  0
   -3.8793   -1.9065    1.3169 H   0  0  0  0  0  0  0  0  0  0  0  0
   -3.4623   -2.6685   -0.2401 H   0  0  0  0  0  0  0  0  0  0  0  0
   -1.7863   -2.0195    0.9119 C   0  0  0  0  0  0  0  0  0  0  0  0
   -0.9073   -2.6615    1.4699 O   0  0  0  0  0  0  0  0  0  0  0  0
   -1.5803   -0.8195    0.3749 N   0  0  0  0  0  0  0  0  0  0  0  0
   -2.3603   -0.3345   -0.0451 H   0  0  0  0  0  0  0  0  0  0  0  0
   -0.2933   -0.1205    0.3719 C   0  0  1  0  0  0  0  0  0  0  0  0
    0.4439   -0.7485   -0.1303 H   0  0  0  0  0  0  0  0  0  0  0  0
   -0.4368    1.1924   -0.4246 C   0  0  0  0  0  0  0  0  0  0  0  0
   -0.7524    0.9411   -1.4387 H   0  0  0  0  0  0  0  0  0  0  0  0
   -1.2152    1.8064    0.0306 H   0  0  0  0  0  0  0  0  0  0  0  0
    0.8575    2.0208   -0.4995 C   0  0  0  0  0  0  0  0  0  0  0  0
    0.9089    2.7065    0.3463 H   0  0  0  0  0  0  0  0  0  0  0  0
    1.7146    1.3492   -0.4667 H   0  0  0  0  0  0  0  0  0  0  0  0
    0.9465    2.8397   -1.7833 C   0  0  0  0  0  0  0  0  0  0  0  0
    0.1652    2.7637   -2.7180 O   0  0  0  0  0  0  0  0  0  0  0  0
    1.9863    3.6911   -1.8570 O   0  0  0  0  0  0  0  0  0  0  0  0
    1.9063    4.1117   -2.7150 H   0  0  0  0  0  0  0  0  0  0  0  0
    0.1871    0.1189    1.8122 C   0  0  0  0  0  0  0  0  0  0  0  0
    1.3541   -0.1171    2.1187 O   0  0  0  0  0  0  0  0  0  0  0  0
   -0.7126    0.5740    2.6926 N   0  0  0  0  0  0  0  0  0  0  0  0
   -1.6464    0.7663    2.3621 H   0  0  0  0  0  0  0  0  0  0  0  0
   -0.4191    0.8310    4.1010 C   0  0  0  0  0  0  0  0  0  0  0  0
    0.4022    1.5452    4.1828 H   0  0  0  0  0  0  0  0  0  0  0  0
   -1.2983    1.2366    4.6035 H   0  0  0  0  0  0  0  0  0  0  0  0
   -0.1204   -0.0980    4.5907 H   0  0  0  0  0  0  0  0  0  0  0  0
  5  6  2  0  0  0  0
  5  7  1  0  0  0  0
  2  3  1  0  0  0  0
  2  4  1  0  0  0  0
  2  5  1  0  0  0  0
  1  2  1  0  0  0  0
 21 22  2  0  0  0  0
 21 23  1  0  0  0  0
 19 20  1  0  0  0  0
 17 18  2  0  0  0  0
 17 19  1  0  0  0  0
 14 15  1  0  0  0  0
 14 16  1  0  0  0  0
 14 17  1  0  0  0  0
 11 12  1  0  0  0  0
 11 13  1  0  0  0  0
 11 14  1  0  0  0  0
  9 10  1  0  0  0  0
  9 11  1  0  0  0  0
  9 21  1  0  0  0  0
  7  8  1  0  0  0  0
  7  9  1  0  0  0  0
 25 26  1  0  0  0  0
 25 27  1  0  0  0  0
 25 28  1  0  0  0  0
 23 24  1  0  0  0  0
 23 25  1  0  0  0  0
M  END
$$$$
default_name
  -OEChem-02102213163D

 28 27  0     1  0  0  0  0  0999 V2000
   -3.2133   -3.5565    1.2809 H   0  0  0  0  0  0  0  0  0  0  0  0
   -3.1873   -2.5755    0.8089 C   0  0  0  0  0  0  0  0  0  0  0  0
   -3.8793   -1.9065    1.3169 H   0  0  0  0  0  0  0  0  0  0  0  0
   -3.4623   -2.6685   -0.2401 H   0  0  0  0  0  0  0  0  0  0  0  0
   -1.7863   -2.0195    0.9119 C   0  0  0  0  0  0  0  0  0  0  0  0
   -0.9073   -2.6615    1.4699 O   0  0  0  0  0  0  0  0  0  0  0  0
   -1.5803   -0.8195    0.3749 N   0  0  0  0  0  0  0  0  0  0  0  0
   -2.3603   -0.3345   -0.0451 H   0  0  0  0  0  0  0  0  0  0  0  0
   -0.2933   -0.1205    0.3719 C   0  0  1  0  0  0  0  0  0  0  0  0
    0.4439   -0.7485   -0.1303 H   0  0  0  0  0  0  0  0  0  0  0  0
   -0.4368    1.1924   -0.4246 C   0  0  0  0  0  0  0  0  0  0  0  0
   -0.7524    0.9411   -1.4387 H   0  0  0  0  0  0  0  0  0  0  0  0
   -1.2152    1.8064    0.0306 H   0  0  0  0  0  0  0  0  0  0  0  0
    0.8575    2.0208   -0.4995 C   0  0  0  0  0  0  0  0  0  0  0  0
    1.0443    2.5051    0.4590 H   0  0  0  0  0  0  0  0  0  0  0  0
    1.6918    1.3607   -0.7340 H   0  0  0  0  0  0  0  0  0  0  0  0
    0.7914    3.1008   -1.5746 C   0  0  0  0  0  0  0  0  0  0  0  0
   -0.1132    3.2288   -2.3840 O   0  0  0  0  0  0  0  0  0  0  0  0
    1.8346    3.9507   -1.6076 O   0  0  0  0  0  0  0  0  0  0  0  0
    1.6488    4.5484   -2.3339 H   0  0  0  0  0  0  0  0  0  0  0  0
    0.1871    0.1189    1.8122 C   0  0  0  0  0  0  0  0  0  0  0  0
    1.3541   -0.1171    2.1187 O   0  0  0  0  0  0  0  0  0  0  0  0
   -0.7126    0.5740    2.6926 N   0  0  0  0  0  0  0  0  0  0  0  0
   -1.6464    0.7663    2.3621 H   0  0  0  0  0  0  0  0  0  0  0  0
   -0.4191    0.8310    4.1010 C   0  0  0  0  0  0  0  0  0  0  0  0
    0.4022    1.5452    4.1828 H   0  0  0  0  0  0  0  0  0  0  0  0
   -1.2983    1.2366    4.6035 H   0  0  0  0  0  0  0  0  0  0  0  0
   -0.1204   -0.0980    4.5907 H   0  0  0  0  0  0  0  0  0  0  0  0
  5  6  2  0  0  0  0
  5  7  1  0  0  0  0
  2  3  1  0  0  0  0
  2  4  1  0  0  0  0
  2  5  1  0  0  0  0
  1  2  1  0  0  0  0
 21 22  2  0  0  0  0
 21 23  1  0  0  0  0
 19 20  1  0  0  0  0
 17 18  2  0  0  0  0
 17 19  1  0  0  0  0
 14 15  1  0  0  0  0
 14 16  1  0  0  0  0
 14 17  1  0  0  0  0
 11 12  1  0  0  0  0
 11 13  1  0  0  0  0
 11 14  1  0  0  0  0
  9 10  1  0  0  0  0
  9 11  1  0  0  0  0
  9 21  1  0  0  0  0
  7  8  1  0  0  0  0
  7  9  1  0  0  0  0
 25 26  1  0  0  0  0
 25 27  1  0  0  0  0
 25 28  1  0  0  0  0
 23 24  1  0  0  0  0
 23 25  1  0  0  0  0
M  END
$$$$
default_name
  -OEChem-02102213163D

 28 27  0     1  0  0  0  0  0999 V2000
   -3.2133   -3.5565    1.2809 H   0  0  0  0  0  0  0  0  0  0  0  0
   -3.1873   -2.5755    0.8089 C   0  0  0  0  0  0  0  0  0  0  0  0
   -3.8793   -1.9065    1.3169 H   0  0  0  0  0  0  0  0  0  0  0  0
   -3.4623   -2.6685   -0.2401 H   0  0  0  0  0  0  0  0  0  0  0  0
   -1.7863   -2.0195    0.9119 C   0  0  0  0  0  0  0  0  0  0  0  0
   -0.9073   -2.6615    1.4699 O   0  0  0  0  0  0  0  0  0  0  0  0
   -1.5803   -0.8195    0.3749 N   0  0  0  0  0  0  0  0  0  0  0  0
   -2.3603   -0.3345   -0.0451 H   0  0  0  0  0  0  0  0  0  0  0  0
   -0.2933   -0.1205    0.3719 C   0  0  1  0  0  0  0  0  0  0  0  0
    0.4439   -0.7485   -0.1303 H   0  0  0  0  0  0  0  0  0  0  0  0
   -0.4368    1.1924   -0.4246 C   0  0  0  0  0  0  0  0  0  0  0  0
   -0.9997    0.9772   -1.3345 H   0  0  0  0  0  0  0  0  0  0  0  0
   -1.0075    1.9109    0.1655 H   0  0  0  0  0  0  0  0  0  0  0  0
    0.9057    1.8359   -0.8130 C   0  0  0  0  0  0  0  0  0  0  0  0
    1.4828    2.0610    0.0839 H   0  0  0  0  0  0  0  0  0  0  0  0
    1.4692    1.1408   -1.4344 H   0  0  0  0  0  0  0  0  0  0  0  0
    0.7207    3.1303   -1.5984 C   0  0  0  0  0  0  0  0  0  0  0  0
   -0.3490    3.5579   -2.0018 O   0  0  0  0  0  0  0  0  0  0  0  0
    1.8484    3.8185   -1.8558 O   0  0  0  0  0  0  0  0  0  0  0  0
    1.5660    4.5845   -2.3585 H   0  0  0  0  0  0  0  0  0  0  0  0
    0.1871    0.1189    1.8122 C   0  0  0  0  0  0  0  0  0  0  0  0
    1.3541   -0.1171    2.1187 O   0  0  0  0  0  0  0  0  0  0  0  0
   -0.7126    0.5740    2.6926 N   0  0  0  0  0  0  0  0  0  0  0  0
   -1.6464    0.7663    2.3621 H   0  0  0  0  0  0  0  0  0  0  0  0
   -0.4191    0.8310    4.1010 C   0  0  0  0  0  0  0  0  0  0  0  0
    0.4022    1.5452    4.1828 H   0  0  0  0  0  0  0  0  0  0  0  0
   -1.2983    1.2366    4.6035 H   0  0  0  0  0  0  0  0  0  0  0  0
   -0.1204   -0.0980    4.5907 H   0  0  0  0  0  0  0  0  0  0  0  0
  5  6  2  0  0  0  0
  5  7  1  0  0  0  0
  2  3  1  0  0  0  0
  2  4  1  0  0  0  0
  2  5  1  0  0  0  0
  1  2  1  0  0  0  0
 21 22  2  0  0  0  0
 21 23  1  0  0  0  0
 19 20  1  0  0  0  0
 17 18  2  0  0  0  0
 17 19  1  0  0  0  0
 14 15  1  0  0  0  0
 14 16  1  0  0  0  0
 14 17  1  0  0  0  0
 11 12  1  0  0  0  0
 11 13  1  0  0  0  0
 11 14  1  0  0  0  0
  9 10  1  0  0  0  0
  9 11  1  0  0  0  0
  9 21  1  0  0  0  0
  7  8  1  0  0  0  0
  7  9  1  0  0  0  0
 25 26  1  0  0  0  0
 25 27  1  0  0  0  0
 25 28  1  0  0  0  0
 23 24  1  0  0  0  0
 23 25  1  0  0  0  0
M  END
$$$$
default_name
  -OEChem-02102213163D

 28 27  0     1  0  0  0  0  0999 V2000
   -3.2133   -3.5565    1.2809 H   0  0  0  0  0  0  0  0  0  0  0  0
   -3.1873   -2.5755    0.8089 C   0  0  0  0  0  0  0  0  0  0  0  0
   -3.8793   -1.9065    1.3169 H   0  0  0  0  0  0  0  0  0  0  0  0
   -3.4623   -2.6685   -0.2401 H   0  0  0  0  0  0  0  0  0  0  0  0
   -1.7863   -2.0195    0.9119 C   0  0  0  0  0  0  0  0  0  0  0  0
   -0.9073   -2.6615    1.4699 O   0  0  0  0  0  0  0  0  0  0  0  0
   -1.5803   -0.8195    0.3749 N   0  0  0  0  0  0  0  0  0  0  0  0
   -2.3603   -0.3345   -0.0451 H   0  0  0  0  0  0  0  0  0  0  0  0
   -0.2933   -0.1205    0.3719 C   0  0  1  0  0  0  0  0  0  0  0  0
    0.4439   -0.7485   -0.1303 H   0  0  0  0  0  0  0  0  0  0  0  0
   -0.4368    1.1924   -0.4246 C   0  0  0  0  0  0  0  0  0  0  0  0
   -0.9997    0.9772   -1.3345 H   0  0  0  0  0  0  0  0  0  0  0  0
   -1.0075    1.9109    0.1655 H   0  0  0  0  0  0  0  0  0  0  0  0
    0.9057    1.8359   -0.8130 C   0  0  0  0  0  0  0  0  0  0  0  0
    1.5860    1.8184    0.0385 H   0  0  0  0  0  0  0  0  0  0  0  0
    1.3479    1.2731   -1.6343 H   0  0  0  0  0  0  0  0  0  0  0  0
    0.7438    3.2839   -1.2643 C   0  0  0  0  0  0  0  0  0  0  0  0
   -0.3246    3.8486   -1.4359 O   0  0  0  0  0  0  0  0  0  0  0  0
    1.8899    3.9521   -1.4910 O   0  0  0  0  0  0  0  0  0  0  0  0
    1.6187    4.8269   -1.7748 H   0  0  0  0  0  0  0  0  0  0  0  0
    0.1871    0.1189    1.8122 C   0  0  0  0  0  0  0  0  0  0  0  0
    1.3541   -0.1171    2.1187 O   0  0  0  0  0  0  0  0  0  0  0  0
   -0.7126    0.5740    2.6926 N   0  0  0  0  0  0  0  0  0  0  0  0
   -1.6464    0.7663    2.3621 H   0  0  0  0  0  0  0  0  0  0  0  0
   -0.4191    0.8310    4.1010 C   0  0  0  0  0  0  0  0  0  0  0  0
    0.4022    1.5452    4.1828 H   0  0  0  0  0  0  0  0  0  0  0  0
   -1.2983    1.2366    4.6035 H   0  0  0  0  0  0  0  0  0  0  0  0
   -0.1204   -0.0980    4.5907 H   0  0  0  0  0  0  0  0  0  0  0  0
  5  6  2  0  0  0  0
  5  7  1  0  0  0  0
  2  3  1  0  0  0  0
  2  4  1  0  0  0  0
  2  5  1  0  0  0  0
  1  2  1  0  0  0  0
 21 22  2  0  0  0  0
 21 23  1  0  0  0  0
 19 20  1  0  0  0  0
 17 18  2  0  0  0  0
 17 19  1  0  0  0  0
 14 15  1  0  0  0  0
 14 16  1  0  0  0  0
 14 17  1  0  0  0  0
 11 12  1  0  0  0  0
 11 13  1  0  0  0  0
 11 14  1  0  0  0  0
  9 10  1  0  0  0  0
  9 11  1  0  0  0  0
  9 21  1  0  0  0  0
  7  8  1  0  0  0  0
  7  9  1  0  0  0  0
 25 26  1  0  0  0  0
 25 27  1  0  0  0  0
 25 28  1  0  0  0  0
 23 24  1  0  0  0  0
 23 25  1  0  0  0  0
M  END
$$$$
default_name
  -OEChem-02102213163D

 28 27  0     1  0  0  0  0  0999 V2000
   -3.2133   -3.5565    1.2809 H   0  0  0  0  0  0  0  0  0  0  0  0
   -3.1873   -2.5755    0.8089 C   0  0  0  0  0  0  0  0  0  0  0  0
   -3.8793   -1.9065    1.3169 H   0  0  0  0  0  0  0  0  0  0  0  0
   -3.4623   -2.6685   -0.2401 H   0  0  0  0  0  0  0  0  0  0  0  0
   -1.7863   -2.0195    0.9119 C   0  0  0  0  0  0  0  0  0  0  0  0
   -0.9073   -2.6615    1.4699 O   0  0  0  0  0  0  0  0  0  0  0  0
   -1.5803   -0.8195    0.3749 N   0  0  0  0  0  0  0  0  0  0  0  0
   -2.3603   -0.3345   -0.0451 H   0  0  0  0  0  0  0  0  0  0  0  0
   -0.2933   -0.1205    0.3719 C   0  0  1  0  0  0  0  0  0  0  0  0
    0.4439   -0.7485   -0.1303 H   0  0  0  0  0  0  0  0  0  0  0  0
   -0.4368    1.1924   -0.4246 C   0  0  0  0  0  0  0  0  0  0  0  0
   -0.9997    0.9772   -1.3345 H   0  0  0  0  0  0  0  0  0  0  0  0
   -1.0075    1.9109    0.1655 H   0  0  0  0  0  0  0  0  0  0  0  0
    0.9057    1.8359   -0.8130 C   0  0  0  0  0  0  0  0  0  0  0  0
    1.6649    1.5875   -0.0713 H   0  0  0  0  0  0  0  0  0  0  0  0
    1.2178    1.4540   -1.7843 H   0  0  0  0  0  0  0  0  0  0  0  0
    0.8122    3.3552   -0.9093 C   0  0  0  0  0  0  0  0  0  0  0  0
   -0.2208    4.0001   -0.8264 O   0  0  0  0  0  0  0  0  0  0  0  0
    1.9782    3.9961   -1.1130 O   0  0  0  0  0  0  0  0  0  0  0  0
    1.7487    4.9257   -1.1619 H   0  0  0  0  0  0  0  0  0  0  0  0
    0.1871    0.1189    1.8122 C   0  0  0  0  0  0  0  0  0  0  0  0
    1.3541   -0.1171    2.1187 O   0  0  0  0  0  0  0  0  0  0  0  0
   -0.7126    0.5740    2.6926 N   0  0  0  0  0  0  0  0  0  0  0  0
   -1.6464    0.7663    2.3621 H   0  0  0  0  0  0  0  0  0  0  0  0
   -0.4191    0.8310    4.1010 C   0  0  0  0  0  0  0  0  0  0  0  0
    0.4022    1.5452    4.1828 H   0  0  0  0  0  0  0  0  0  0  0  0
   -1.2983    1.2366    4.6035 H   0  0  0  0  0  0  0  0  0  0  0  0
   -0.1204   -0.0980    4.5907 H   0  0  0  0  0  0  0  0  0  0  0  0
  5  6  2  0  0  0  0
  5  7  1  0  0  0  0
  2  3  1  0  0  0  0
  2  4  1  0  0  0  0
  2  5  1  0  0  0  0
  1  2  1  0  0  0  0
 21 22  2  0  0  0  0
 21 23  1  0  0  0  0
 19 20  1  0  0  0  0
 17 18  2  0  0  0  0
 17 19  1  0  0  0  0
 14 15  1  0  0  0  0
 14 16  1  0  0  0  0
 14 17  1  0  0  0  0
 11 12  1  0  0  0  0
 11 13  1  0  0  0  0
 11 14  1  0  0  0  0
  9 10  1  0  0  0  0
  9 11  1  0  0  0  0
  9 21  1  0  0  0  0
  7  8  1  0  0  0  0
  7  9  1  0  0  0  0
 25 26  1  0  0  0  0
 25 27  1  0  0  0  0
 25 28  1  0  0  0  0
 23 24  1  0  0  0  0
 23 25  1  0  0  0  0
M  END
$$$$
default_name
  -OEChem-02102213163D

 28 27  0     1  0  0  0  0  0999 V2000
   -3.2133   -3.5565    1.2809 H   0  0  0  0  0  0  0  0  0  0  0  0
   -3.1873   -2.5755    0.8089 C   0  0  0  0  0  0  0  0  0  0  0  0
   -3.8793   -1.9065    1.3169 H   0  0  0  0  0  0  0  0  0  0  0  0
   -3.4623   -2.6685   -0.2401 H   0  0  0  0  0  0  0  0  0  0  0  0
   -1.7863   -2.0195    0.9119 C   0  0  0  0  0  0  0  0  0  0  0  0
   -0.9073   -2.6615    1.4699 O   0  0  0  0  0  0  0  0  0  0  0  0
   -1.5803   -0.8195    0.3749 N   0  0  0  0  0  0  0  0  0  0  0  0
   -2.3603   -0.3345   -0.0451 H   0  0  0  0  0  0  0  0  0  0  0  0
   -0.2933   -0.1205    0.3719 C   0  0  1  0  0  0  0  0  0  0  0  0
    0.4439   -0.7485   -0.1303 H   0  0  0  0  0  0  0  0  0  0  0  0
   -0.4368    1.1924   -0.4246 C   0  0  0  0  0  0  0  0  0  0  0  0
   -0.9997    0.9772   -1.3345 H   0  0  0  0  0  0  0  0  0  0  0  0
   -1.0075    1.9109    0.1655 H   0  0  0  0  0  0  0  0  0  0  0  0
    0.9057    1.8359   -0.8130 C   0  0  0  0  0  0  0  0  0  0  0  0
    1.7141    1.3841   -0.2380 H   0  0  0  0  0  0  0  0  0  0  0  0
    1.0877    1.6710   -1.8743 H   0  0  0  0  0  0  0  0  0  0  0  0
    0.9215    3.3396   -0.5578 C   0  0  0  0  0  0  0  0  0  0  0  0
   -0.0447    4.0019   -0.2146 O   0  0  0  0  0  0  0  0  0  0  0  0
    2.1072    3.9475   -0.7475 O   0  0  0  0  0  0  0  0  0  0  0  0
    1.9470    4.8743   -0.5617 H   0  0  0  0  0  0  0  0  0  0  0  0
    0.1871    0.1189    1.8122 C   0  0  0  0  0  0  0  0  0  0  0  0
    1.3541   -0.1171    2.1187 O   0  0  0  0  0  0  0  0  0  0  0  0
   -0.7126    0.5740    2.6926 N   0  0  0  0  0  0  0  0  0  0  0  0
   -1.6464    0.7663    2.3621 H   0  0  0  0  0  0  0  0  0  0  0  0
   -0.4191    0.8310    4.1010 C   0  0  0  0  0  0  0  0  0  0  0  0
    0.4022    1.5452    4.1828 H   0  0  0  0  0  0  0  0  0  0  0  0
   -1.2983    1.2366    4.6035 H   0  0  0  0  0  0  0  0  0  0  0  0
   -0.1204   -0.0980    4.5907 H   0  0  0  0  0  0  0  0  0  0  0  0
  5  6  2  0  0  0  0
  5  7  1  0  0  0  0
  2  3  1  0  0  0  0
  2  4  1  0  0  0  0
  2  5  1  0  0  0  0
  1  2  1  0  0  0  0
 21 22  2  0  0  0  0
 21 23  1  0  0  0  0
 19 20  1  0  0  0  0
 17 18  2  0  0  0  0
 17 19  1  0  0  0  0
 14 15  1  0  0  0  0
 14 16  1  0  0  0  0
 14 17  1  0  0  0  0
 11 12  1  0  0  0  0
 11 13  1  0  0  0  0
 11 14  1  0  0  0  0
  9 10  1  0  0  0  0
  9 11  1  0  0  0  0
  9 21  1  0  0  0  0
  7  8  1  0  0  0  0
  7  9  1  0  0  0  0
 25 26  1  0  0  0  0
 25 27  1  0  0  0  0
 25 28  1  0  0  0  0
 23 24  1  0  0  0  0
 23 25  1  0  0  0  0
M  END
$$$$
default_name
  -OEChem-02102213163D

 28 27  0     1  0  0  0  0  0999 V2000
   -3.2133   -3.5565    1.2809 H   0  0  0  0  0  0  0  0  0  0  0  0
   -3.1873   -2.5755    0.8089 C   0  0  0  0  0  0  0  0  0  0  0  0
   -3.8793   -1.9065    1.3169 H   0  0  0  0  0  0  0  0  0  0  0  0
   -3.4623   -2.6685   -0.2401 H   0  0  0  0  0  0  0  0  0  0  0  0
   -1.7863   -2.0195    0.9119 C   0  0  0  0  0  0  0  0  0  0  0  0
   -0.9073   -2.6615    1.4699 O   0  0  0  0  0  0  0  0  0  0  0  0
   -1.5803   -0.8195    0.3749 N   0  0  0  0  0  0  0  0  0  0  0  0
   -2.3603   -0.3345   -0.0451 H   0  0  0  0  0  0  0  0  0  0  0  0
   -0.2933   -0.1205    0.3719 C   0  0  1  0  0  0  0  0  0  0  0  0
    0.4439   -0.7485   -0.1303 H   0  0  0  0  0  0  0  0  0  0  0  0
   -0.4368    1.1924   -0.4246 C   0  0  0  0  0  0  0  0  0  0  0  0
   -0.9997    0.9772   -1.3345 H   0  0  0  0  0  0  0  0  0  0  0  0
   -1.0075    1.9109    0.1655 H   0  0  0  0  0  0  0  0  0  0  0  0
    0.9057    1.8359   -0.8130 C   0  0  0  0  0  0  0  0  0  0  0  0
    1.7303    1.2221   -0.4503 H   0  0  0  0  0  0  0  0  0  0  0  0
    0.9665    1.9095   -1.8982 H   0  0  0  0  0  0  0  0  0  0  0  0
    1.0640    3.2379   -0.2336 C   0  0  0  0  0  0  0  0  0  0  0  0
    0.1918    3.8539    0.3577 O   0  0  0  0  0  0  0  0  0  0  0  0
    2.2683    3.8095   -0.4194 O   0  0  0  0  0  0  0  0  0  0  0  0
    2.2001    4.6761   -0.0150 H   0  0  0  0  0  0  0  0  0  0  0  0
    0.1871    0.1189    1.8122 C   0  0  0  0  0  0  0  0  0  0  0  0
    1.3541   -0.1171    2.1187 O   0  0  0  0  0  0  0  0  0  0  0  0
   -0.7126    0.5740    2.6926 N   0  0  0  0  0  0  0  0  0  0  0  0
   -1.6464    0.7663    2.3621 H   0  0  0  0  0  0  0  0  0  0  0  0
   -0.4191    0.8310    4.1010 C   0  0  0  0  0  0  0  0  0  0  0  0
    0.4022    1.5452    4.1828 H   0  0  0  0  0  0  0  0  0  0  0  0
   -1.2983    1.2366    4.6035 H   0  0  0  0  0  0  0  0  0  0  0  0
   -0.1204   -0.0980    4.5907 H   0  0  0  0  0  0  0  0  0  0  0  0
  5  6  2  0  0  0  0
  5  7  1  0  0  0  0
  2  3  1  0  0  0  0
  2  4  1  0  0  0  0
  2  5  1  0  0  0  0
  1  2  1  0  0  0  0
 21 22  2  0  0  0  0
 21 23  1  0  0  0  0
 19 20  1  0  0  0  0
 17 18  2  0  0  0  0
 17 19  1  0  0  0  0
 14 15  1  0  0  0  0
 14 16  1  0  0  0  0
 14 17  1  0  0  0  0
 11 12  1  0  0  0  0
 11 13  1  0  0  0  0
 11 14  1  0  0  0  0
  9 10  1  0  0  0  0
  9 11  1  0  0  0  0
  9 21  1  0  0  0  0
  7  8  1  0  0  0  0
  7  9  1  0  0  0  0
 25 26  1  0  0  0  0
 25 27  1  0  0  0  0
 25 28  1  0  0  0  0
 23 24  1  0  0  0  0
 23 25  1  0  0  0  0
M  END
$$$$
default_name
  -OEChem-02102213163D

 28 27  0     1  0  0  0  0  0999 V2000
   -3.2133   -3.5565    1.2809 H   0  0  0  0  0  0  0  0  0  0  0  0
   -3.1873   -2.5755    0.8089 C   0  0  0  0  0  0  0  0  0  0  0  0
   -3.8793   -1.9065    1.3169 H   0  0  0  0  0  0  0  0  0  0  0  0
   -3.4623   -2.6685   -0.2401 H   0  0  0  0  0  0  0  0  0  0  0  0
   -1.7863   -2.0195    0.9119 C   0  0  0  0  0  0  0  0  0  0  0  0
   -0.9073   -2.6615    1.4699 O   0  0  0  0  0  0  0  0  0  0  0  0
   -1.5803   -0.8195    0.3749 N   0  0  0  0  0  0  0  0  0  0  0  0
   -2.3603   -0.3345   -0.0451 H   0  0  0  0  0  0  0  0  0  0  0  0
   -0.2933   -0.1205    0.3719 C   0  0  1  0  0  0  0  0  0  0  0  0
    0.4439   -0.7485   -0.1303 H   0  0  0  0  0  0  0  0  0  0  0  0
   -0.4368    1.1924   -0.4246 C   0  0  0  0  0  0  0  0  0  0  0  0
   -0.9997    0.9772   -1.3345 H   0  0  0  0  0  0  0  0  0  0  0  0
   -1.0075    1.9109    0.1655 H   0  0  0  0  0  0  0  0  0  0  0  0
    0.9057    1.8359   -0.8130 C   0  0  0  0  0  0  0  0  0  0  0  0
    1.7124    1.1125   -0.6937 H   0  0  0  0  0  0  0  0  0  0  0  0
    0.8624    2.1532   -1.8542 H   0  0  0  0  0  0  0  0  0  0  0  0
    1.2301    3.0572    0.0412 C   0  0  0  0  0  0  0  0  0  0  0  0
    0.4725    3.5664    0.8515 O   0  0  0  0  0  0  0  0  0  0  0  0
    2.4504    3.5916   -0.1511 O   0  0  0  0  0  0  0  0  0  0  0  0
    2.4909    4.3447    0.4410 H   0  0  0  0  0  0  0  0  0  0  0  0
    0.1871    0.1189    1.8122 C   0  0  0  0  0  0  0  0  0  0  0  0
    1.3541   -0.1171    2.1187 O   0  0  0  0  0  0  0  0  0  0  0  0
   -0.7126    0.5740    2.6926 N   0  0  0  0  0  0  0  0  0  0  0  0
   -1.6464    0.7663    2.3621 H   0  0  0  0  0  0  0  0  0  0  0  0
   -0.4191    0.8310    4.1010 C   0  0  0  0  0  0  0  0  0  0  0  0
    0.4022    1.5452    4.1828 H   0  0  0  0  0  0  0  0  0  0  0  0
   -1.2983    1.2366    4.6035 H   0  0  0  0  0  0  0  0  0  0  0  0
   -0.1204   -0.0980    4.5907 H   0  0  0  0  0  0  0  0  0  0  0  0
  5  6  2  0  0  0  0
  5  7  1  0  0  0  0
  2  3  1  0  0  0  0
  2  4  1  0  0  0  0
  2  5  1  0  0  0  0
  1  2  1  0  0  0  0
 21 22  2  0  0  0  0
 21 23  1  0  0  0  0
 19 20  1  0  0  0  0
 17 18  2  0  0  0  0
 17 19  1  0  0  0  0
 14 15  1  0  0  0  0
 14 16  1  0  0  0  0
 14 17  1  0  0  0  0
 11 12  1  0  0  0  0
 11 13  1  0  0  0  0
 11 14  1  0  0  0  0
  9 10  1  0  0  0  0
  9 11  1  0  0  0  0
  9 21  1  0  0  0  0
  7  8  1  0  0  0  0
  7  9  1  0  0  0  0
 25 26  1  0  0  0  0
 25 27  1  0  0  0  0
 25 28  1  0  0  0  0
 23 24  1  0  0  0  0
 23 25  1  0  0  0  0
M  END
$$$$
default_name
  -OEChem-02102213163D

 28 27  0     1  0  0  0  0  0999 V2000
   -3.2133   -3.5565    1.2809 H   0  0  0  0  0  0  0  0  0  0  0  0
   -3.1873   -2.5755    0.8089 C   0  0  0  0  0  0  0  0  0  0  0  0
   -3.8793   -1.9065    1.3169 H   0  0  0  0  0  0  0  0  0  0  0  0
   -3.4623   -2.6685   -0.2401 H   0  0  0  0  0  0  0  0  0  0  0  0
   -1.7863   -2.0195    0.9119 C   0  0  0  0  0  0  0  0  0  0  0  0
   -0.9073   -2.6615    1.4699 O   0  0  0  0  0  0  0  0  0  0  0  0
   -1.5803   -0.8195    0.3749 N   0  0  0  0  0  0  0  0  0  0  0  0
   -2.3603   -0.3345   -0.0451 H   0  0  0  0  0  0  0  0  0  0  0  0
   -0.2933   -0.1205    0.3719 C   0  0  1  0  0  0  0  0  0  0  0  0
    0.4439   -0.7485   -0.1303 H   0  0  0  0  0  0  0  0  0  0  0  0
   -0.4368    1.1924   -0.4246 C   0  0  0  0  0  0  0  0  0  0  0  0
   -0.9997    0.9772   -1.3345 H   0  0  0  0  0  0  0  0  0  0  0  0
   -1.0075    1.9109    0.1655 H   0  0  0  0  0  0  0  0  0  0  0  0
    0.9057    1.8359   -0.8130 C   0  0  0  0  0  0  0  0  0  0  0  0
    1.6616    1.0628   -0.9517 H   0  0  0  0  0  0  0  0  0  0  0  0
    0.7826    2.3855   -1.7455 H   0  0  0  0  0  0  0  0  0  0  0  0
    1.4085    2.8097    0.2478 C   0  0  0  0  0  0  0  0  0  0  0  0
    0.7783    3.1587    1.2331 O   0  0  0  0  0  0  0  0  0  0  0  0
    2.6410    3.3087    0.0392 O   0  0  0  0  0  0  0  0  0  0  0  0
    2.7995    3.9026    0.7750 H   0  0  0  0  0  0  0  0  0  0  0  0
    0.1871    0.1189    1.8122 C   0  0  0  0  0  0  0  0  0  0  0  0
    1.3541   -0.1171    2.1187 O   0  0  0  0  0  0  0  0  0  0  0  0
   -0.7126    0.5740    2.6926 N   0  0  0  0  0  0  0  0  0  0  0  0
   -1.6464    0.7663    2.3621 H   0  0  0  0  0  0  0  0  0  0  0  0
   -0.4191    0.8310    4.1010 C   0  0  0  0  0  0  0  0  0  0  0  0
    0.4022    1.5452    4.1828 H   0  0  0  0  0  0  0  0  0  0  0  0
   -1.2983    1.2366    4.6035 H   0  0  0  0  0  0  0  0  0  0  0  0
   -0.1204   -0.0980    4.5907 H   0  0  0  0  0  0  0  0  0  0  0  0
  5  6  2  0  0  0  0
  5  7  1  0  0  0  0
  2  3  1  0  0  0  0
  2  4  1  0  0  0  0
  2  5  1  0  0  0  0
  1  2  1  0  0  0  0
 21 22  2  0  0  0  0
 21 23  1  0  0  0  0
 19 20  1  0  0  0  0
 17 18  2  0  0  0  0
 17 19  1  0  0  0  0
 14 15  1  0  0  0  0
 14 16  1  0  0  0  0
 14 17  1  0  0  0  0
 11 12  1  0  0  0  0
 11 13  1  0  0  0  0
 11 14  1  0  0  0  0
  9 10  1  0  0  0  0
  9 11  1  0  0  0  0
  9 21  1  0  0  0  0
  7  8  1  0  0  0  0
  7  9  1  0  0  0  0
 25 26  1  0  0  0  0
 25 27  1  0  0  0  0
 25 28  1  0  0  0  0
 23 24  1  0  0  0  0
 23 25  1  0  0  0  0
M  END
$$$$
default_name
  -OEChem-02102213163D

 28 27  0     1  0  0  0  0  0999 V2000
   -3.2133   -3.5565    1.2809 H   0  0  0  0  0  0  0  0  0  0  0  0
   -3.1873   -2.5755    0.8089 C   0  0  0  0  0  0  0  0  0  0  0  0
   -3.8793   -1.9065    1.3169 H   0  0  0  0  0  0  0  0  0  0  0  0
   -3.4623   -2.6685   -0.2401 H   0  0  0  0  0  0  0  0  0  0  0  0
   -1.7863   -2.0195    0.9119 C   0  0  0  0  0  0  0  0  0  0  0  0
   -0.9073   -2.6615    1.4699 O   0  0  0  0  0  0  0  0  0  0  0  0
   -1.5803   -0.8195    0.3749 N   0  0  0  0  0  0  0  0  0  0  0  0
   -2.3603   -0.3345   -0.0451 H   0  0  0  0  0  0  0  0  0  0  0  0
   -0.2933   -0.1205    0.3719 C   0  0  1  0  0  0  0  0  0  0  0  0
    0.4439   -0.7485   -0.1303 H   0  0  0  0  0  0  0  0  0  0  0  0
   -0.4368    1.1924   -0.4246 C   0  0  0  0  0  0  0  0  0  0  0  0
   -0.9997    0.9772   -1.3345 H   0  0  0  0  0  0  0  0  0  0  0  0
   -1.0075    1.9109    0.1655 H   0  0  0  0  0  0  0  0  0  0  0  0
    0.9057    1.8359   -0.8130 C   0  0  0  0  0  0  0  0  0  0  0  0
    1.5814    1.0764   -1.2065 H   0  0  0  0  0  0  0  0  0  0  0  0
    0.7324    2.5905   -1.5794 H   0  0  0  0  0  0  0  0  0  0  0  0
    1.5870    2.5123    0.3722 C   0  0  0  0  0  0  0  0  0  0  0  0
    1.0883    2.6588    1.4766 O   0  0  0  0  0  0  0  0  0  0  0  0
    2.8273    2.9799    0.1385 O   0  0  0  0  0  0  0  0  0  0  0  0
    3.1048    3.3799    0.9645 H   0  0  0  0  0  0  0  0  0  0  0  0
    0.1871    0.1189    1.8122 C   0  0  0  0  0  0  0  0  0  0  0  0
    1.3541   -0.1171    2.1187 O   0  0  0  0  0  0  0  0  0  0  0  0
   -0.7126    0.5740    2.6926 N   0  0  0  0  0  0  0  0  0  0  0  0
   -1.6464    0.7663    2.3621 H   0  0  0  0  0  0  0  0  0  0  0  0
   -0.4191    0.8310    4.1010 C   0  0  0  0  0  0  0  0  0  0  0  0
    0.4022    1.5452    4.1828 H   0  0  0  0  0  0  0  0  0  0  0  0
   -1.2983    1.2366    4.6035 H   0  0  0  0  0  0  0  0  0  0  0  0
   -0.1204   -0.0980    4.5907 H   0  0  0  0  0  0  0  0  0  0  0  0
  5  6  2  0  0  0  0
  5  7  1  0  0  0  0
  2  3  1  0  0  0  0
  2  4  1  0  0  0  0
  2  5  1  0  0  0  0
  1  2  1  0  0  0  0
 21 22  2  0  0  0  0
 21 23  1  0  0  0  0
 19 20  1  0  0  0  0
 17 18  2  0  0  0  0
 17 19  1  0  0  0  0
 14 15  1  0  0  0  0
 14 16  1  0  0  0  0
 14 17  1  0  0  0  0
 11 12  1  0  0  0  0
 11 13  1  0  0  0  0
 11 14  1  0  0  0  0
  9 10  1  0  0  0  0
  9 11  1  0  0  0  0
  9 21  1  0  0  0  0
  7  8  1  0  0  0  0
  7  9  1  0  0  0  0
 25 26  1  0  0  0  0
 25 27  1  0  0  0  0
 25 28  1  0  0  0  0
 23 24  1  0  0  0  0
 23 25  1  0  0  0  0
M  END
$$$$
default_name
  -OEChem-02102213163D

 28 27  0     1  0  0  0  0  0999 V2000
   -3.2133   -3.5565    1.2809 H   0  0  0  0  0  0  0  0  0  0  0  0
   -3.1873   -2.5755    0.8089 C   0  0  0  0  0  0  0  0  0  0  0  0
   -3.8793   -1.9065    1.3169 H   0  0  0  0  0  0  0  0  0  0  0  0
   -3.4623   -2.6685   -0.2401 H   0  0  0  0  0  0  0  0  0  0  0  0
   -1.7863   -2.0195    0.9119 C   0  0  0  0  0  0  0  0  0  0  0  0
   -0.9073   -2.6615    1.4699 O   0  0  0  0  0  0  0  0  0  0  0  0
   -1.5803   -0.8195    0.3749 N   0  0  0  0  0  0  0  0  0  0  0  0
   -2.3603   -0.3345   -0.0451 H   0  0  0  0  0  0  0  0  0  0  0  0
   -0.2933   -0.1205    0.3719 C   0  0  1  0  0  0  0  0  0  0  0  0
    0.4439   -0.7485   -0.1303 H   0  0  0  0  0  0  0  0  0  0  0  0
   -0.4368    1.1924   -0.4246 C   0  0  0  0  0  0  0  0  0  0  0  0
   -0.9997    0.9772   -1.3345 H   0  0  0  0  0  0  0  0  0  0  0  0
   -1.0075    1.9109    0.1655 H   0  0  0  0  0  0  0  0  0  0  0  0
    0.9057    1.8359   -0.8130 C   0  0  0  0  0  0  0  0  0  0  0  0
    1.4772    1.1523   -1.4410 H   0  0  0  0  0  0  0  0  0  0  0  0
    0.7153    2.7543   -1.3672 H   0  0  0  0  0  0  0  0  0  0  0  0
    1.7535    2.1853    0.4058 C   0  0  0  0  0  0  0  0  0  0  0  0
    1.3815    2.1007    1.5653 O   0  0  0  0  0  0  0  0  0  0  0  0
    2.9965    2.6278    0.1399 O   0  0  0  0  0  0  0  0  0  0  0  0
    3.3860    2.8124    0.9964 H   0  0  0  0  0  0  0  0  0  0  0  0
    0.1871    0.1189    1.8122 C   0  0  0  0  0  0  0  0  0  0  0  0
    1.3541   -0.1171    2.1187 O   0  0  0  0  0  0  0  0  0  0  0  0
   -0.7126    0.5740    2.6926 N   0  0  0  0  0  0  0  0  0  0  0  0
   -1.6464    0.7663    2.3621 H   0  0  0  0  0  0  0  0  0  0  0  0
   -0.4191    0.8310    4.1010 C   0  0  0  0  0  0  0  0  0  0  0  0
    0.4022    1.5452    4.1828 H   0  0  0  0  0  0  0  0  0  0  0  0
   -1.2983    1.2366    4.6035 H   0  0  0  0  0  0  0  0  0  0  0  0
   -0.1204   -0.0980    4.5907 H   0  0  0  0  0  0  0  0  0  0  0  0
  5  6  2  0  0  0  0
  5  7  1  0  0  0  0
  2  3  1  0  0  0  0
  2  4  1  0  0  0  0
  2  5  1  0  0  0  0
  1  2  1  0  0  0  0
 21 22  2  0  0  0  0
 21 23  1  0  0  0  0
 19 20  1  0  0  0  0
 17 18  2  0  0  0  0
 17 19  1  0  0  0  0
 14 15  1  0  0  0  0
 14 16  1  0  0  0  0
 14 17  1  0  0  0  0
 11 12  1  0  0  0  0
 11 13  1  0  0  0  0
 11 14  1  0  0  0  0
  9 10  1  0  0  0  0
  9 11  1  0  0  0  0
  9 21  1  0  0  0  0
  7  8  1  0  0  0  0
  7  9  1  0  0  0  0
 25 26  1  0  0  0  0
 25 27  1  0  0  0  0
 25 28  1  0  0  0  0
 23 24  1  0  0  0  0
 23 25  1  0  0  0  0
M  END
$$$$
default_name
  -OEChem-02102213163D

 28 27  0     1  0  0  0  0  0999 V2000
   -3.2133   -3.5565    1.2809 H   0  0  0  0  0  0  0  0  0  0  0  0
   -3.1873   -2.5755    0.8089 C   0  0  0  0  0  0  0  0  0  0  0  0
   -3.8793   -1.9065    1.3169 H   0  0  0  0  0  0  0  0  0  0  0  0
   -3.4623   -2.6685   -0.2401 H   0  0  0  0  0  0  0  0  0  0  0  0
   -1.7863   -2.0195    0.9119 C   0  0  0  0  0  0  0  0  0  0  0  0
   -0.9073   -2.6615    1.4699 O   0  0  0  0  0  0  0  0  0  0  0  0
   -1.5803   -0.8195    0.3749 N   0  0  0  0  0  0  0  0  0  0  0  0
   -2.3603   -0.3345   -0.0451 H   0  0  0  0  0  0  0  0  0  0  0  0
   -0.2933   -0.1205    0.3719 C   0  0  1  0  0  0  0  0  0  0  0  0
    0.4439   -0.7485   -0.1303 H   0  0  0  0  0  0  0  0  0  0  0  0
   -0.4368    1.1924   -0.4246 C   0  0  0  0  0  0  0  0  0  0  0  0
   -0.9997    0.9772   -1.3345 H   0  0  0  0  0  0  0  0  0  0  0  0
   -1.0075    1.9109    0.1655 H   0  0  0  0  0  0  0  0  0  0  0  0
    0.9057    1.8359   -0.8130 C   0  0  0  0  0  0  0  0  0  0  0  0
    1.3561    1.2853   -1.6390 H   0  0  0  0  0  0  0  0  0  0  0  0
    0.7324    2.8656   -1.1233 H   0  0  0  0  0  0  0  0  0  0  0  0
    1.8965    1.8510    0.3465 C   0  0  0  0  0  0  0  0  0  0  0  0
    1.6378    1.5225    1.4932 O   0  0  0  0  0  0  0  0  0  0  0  0
    3.1371    2.2763    0.0435 O   0  0  0  0  0  0  0  0  0  0  0  0
    3.6241    2.2386    0.8686 H   0  0  0  0  0  0  0  0  0  0  0  0
    0.1871    0.1189    1.8122 C   0  0  0  0  0  0  0  0  0  0  0  0
    1.3541   -0.1171    2.1187 O   0  0  0  0  0  0  0  0  0  0  0  0
   -0.7126    0.5740    2.6926 N   0  0  0  0  0  0  0  0  0  0  0  0
   -1.6464    0.7663    2.3621 H   0  0  0  0  0  0  0  0  0  0  0  0
   -0.4191    0.8310    4.1010 C   0  0  0  0  0  0  0  0  0  0  0  0
    0.4022    1.5452    4.1828 H   0  0  0  0  0  0  0  0  0  0  0  0
   -1.2983    1.2366    4.6035 H   0  0  0  0  0  0  0  0  0  0  0  0
   -0.1204   -0.0980    4.5907 H   0  0  0  0  0  0  0  0  0  0  0  0
  5  6  2  0  0  0  0
  5  7  1  0  0  0  0
  2  3  1  0  0  0  0
  2  4  1  0  0  0  0
  2  5  1  0  0  0  0
  1  2  1  0  0  0  0
 21 22  2  0  0  0  0
 21 23  1  0  0  0  0
 19 20  1  0  0  0  0
 17 18  2  0  0  0  0
 17 19  1  0  0  0  0
 14 15  1  0  0  0  0
 14 16  1  0  0  0  0
 14 17  1  0  0  0  0
 11 12  1  0  0  0  0
 11 13  1  0  0  0  0
 11 14  1  0  0  0  0
  9 10  1  0  0  0  0
  9 11  1  0  0  0  0
  9 21  1  0  0  0  0
  7  8  1  0  0  0  0
  7  9  1  0  0  0  0
 25 26  1  0  0  0  0
 25 27  1  0  0  0  0
 25 28  1  0  0  0  0
 23 24  1  0  0  0  0
 23 25  1  0  0  0  0
M  END
$$$$
default_name
  -OEChem-02102213163D

 28 27  0     1  0  0  0  0  0999 V2000
   -3.2133   -3.5565    1.2809 H   0  0  0  0  0  0  0  0  0  0  0  0
   -3.1873   -2.5755    0.8089 C   0  0  0  0  0  0  0  0  0  0  0  0
   -3.8793   -1.9065    1.3169 H   0  0  0  0  0  0  0  0  0  0  0  0
   -3.4623   -2.6685   -0.2401 H   0  0  0  0  0  0  0  0  0  0  0  0
   -1.7863   -2.0195    0.9119 C   0  0  0  0  0  0  0  0  0  0  0  0
   -0.9073   -2.6615    1.4699 O   0  0  0  0  0  0  0  0  0  0  0  0
   -1.5803   -0.8195    0.3749 N   0  0  0  0  0  0  0  0  0  0  0  0
   -2.3603   -0.3345   -0.0451 H   0  0  0  0  0  0  0  0  0  0  0  0
   -0.2933   -0.1205    0.3719 C   0  0  1  0  0  0  0  0  0  0  0  0
    0.4439   -0.7485   -0.1303 H   0  0  0  0  0  0  0  0  0  0  0  0
   -0.4368    1.1924   -0.4246 C   0  0  0  0  0  0  0  0  0  0  0  0
   -0.9997    0.9772   -1.3345 H   0  0  0  0  0  0  0  0  0  0  0  0
   -1.0075    1.9109    0.1655 H   0  0  0  0  0  0  0  0  0  0  0  0
    0.9057    1.8359   -0.8130 C   0  0  0  0  0  0  0  0  0  0  0  0
    1.2264    1.4665   -1.7872 H   0  0  0  0  0  0  0  0  0  0  0  0
    0.7827    2.9171   -0.8645 H   0  0  0  0  0  0  0  0  0  0  0  0
    2.0065    1.5321    0.1982 C   0  0  0  0  0  0  0  0  0  0  0  0
    1.8398    0.9634    1.2652 O   0  0  0  0  0  0  0  0  0  0  0  0
    3.2395    1.9493   -0.1442 O   0  0  0  0  0  0  0  0  0  0  0  0
    3.8027    1.6976    0.5898 H   0  0  0  0  0  0  0  0  0  0  0  0
    0.1871    0.1189    1.8122 C   0  0  0  0  0  0  0  0  0  0  0  0
    1.3541   -0.1171    2.1187 O   0  0  0  0  0  0  0  0  0  0  0  0
   -0.7126    0.5740    2.6926 N   0  0  0  0  0  0  0  0  0  0  0  0
   -1.6464    0.7663    2.3621 H   0  0  0  0  0  0  0  0  0  0  0  0
   -0.4191    0.8310    4.1010 C   0  0  0  0  0  0  0  0  0  0  0  0
    0.4022    1.5452    4.1828 H   0  0  0  0  0  0  0  0  0  0  0  0
   -1.2983    1.2366    4.6035 H   0  0  0  0  0  0  0  0  0  0  0  0
   -0.1204   -0.0980    4.5907 H   0  0  0  0  0  0  0  0  0  0  0  0
  5  6  2  0  0  0  0
  5  7  1  0  0  0  0
  2  3  1  0  0  0  0
  2  4  1  0  0  0  0
  2  5  1  0  0  0  0
  1  2  1  0  0  0  0
 21 22  2  0  0  0  0
 21 23  1  0  0  0  0
 19 20  1  0  0  0  0
 17 18  2  0  0  0  0
 17 19  1  0  0  0  0
 14 15  1  0  0  0  0
 14 16  1  0  0  0  0
 14 17  1  0  0  0  0
 11 12  1  0  0  0  0
 11 13  1  0  0  0  0
 11 14  1  0  0  0  0
  9 10  1  0  0  0  0
  9 11  1  0  0  0  0
  9 21  1  0  0  0  0
  7  8  1  0  0  0  0
  7  9  1  0  0  0  0
 25 26  1  0  0  0  0
 25 27  1  0  0  0  0
 25 28  1  0  0  0  0
 23 24  1  0  0  0  0
 23 25  1  0  0  0  0
M  END
$$$$
default_name
  -OEChem-02102213163D

 28 27  0     1  0  0  0  0  0999 V2000
   -3.2133   -3.5565    1.2809 H   0  0  0  0  0  0  0  0  0  0  0  0
   -3.1873   -2.5755    0.8089 C   0  0  0  0  0  0  0  0  0  0  0  0
   -3.8793   -1.9065    1.3169 H   0  0  0  0  0  0  0  0  0  0  0  0
   -3.4623   -2.6685   -0.2401 H   0  0  0  0  0  0  0  0  0  0  0  0
   -1.7863   -2.0195    0.9119 C   0  0  0  0  0  0  0  0  0  0  0  0
   -0.9073   -2.6615    1.4699 O   0  0  0  0  0  0  0  0  0  0  0  0
   -1.5803   -0.8195    0.3749 N   0  0  0  0  0  0  0  0  0  0  0  0
   -2.3603   -0.3345   -0.0451 H   0  0  0  0  0  0  0  0  0  0  0  0
   -0.2933   -0.1205    0.3719 C   0  0  1  0  0  0  0  0  0  0  0  0
    0.4439   -0.7485   -0.1303 H   0  0  0  0  0  0  0  0  0  0  0  0
   -0.4368    1.1924   -0.4246 C   0  0  0  0  0  0  0  0  0  0  0  0
   -0.9997    0.9772   -1.3345 H   0  0  0  0  0  0  0  0  0  0  0  0
   -1.0075    1.9109    0.1655 H   0  0  0  0  0  0  0  0  0  0  0  0
    0.9057    1.8359   -0.8130 C   0  0  0  0  0  0  0  0  0  0  0  0
    1.0969    1.6834   -1.8753 H   0  0  0  0  0  0  0  0  0  0  0  0
    0.8626    2.9050   -0.6084 H   0  0  0  0  0  0  0  0  0  0  0  0
    2.0758    1.2504   -0.0290 C   0  0  0  0  0  0  0  0  0  0  0  0
    1.9737    0.4617    0.8969 O   0  0  0  0  0  0  0  0  0  0  0  0
    3.2967    1.6692   -0.4105 O   0  0  0  0  0  0  0  0  0  0  0  0
    3.9097    1.2264    0.1790 H   0  0  0  0  0  0  0  0  0  0  0  0
    0.1871    0.1189    1.8122 C   0  0  0  0  0  0  0  0  0  0  0  0
    1.3541   -0.1171    2.1187 O   0  0  0  0  0  0  0  0  0  0  0  0
   -0.7126    0.5740    2.6926 N   0  0  0  0  0  0  0  0  0  0  0  0
   -1.6464    0.7663    2.3621 H   0  0  0  0  0  0  0  0  0  0  0  0
   -0.4191    0.8310    4.1010 C   0  0  0  0  0  0  0  0  0  0  0  0
    0.4022    1.5452    4.1828 H   0  0  0  0  0  0  0  0  0  0  0  0
   -1.2983    1.2366    4.6035 H   0  0  0  0  0  0  0  0  0  0  0  0
   -0.1204   -0.0980    4.5907 H   0  0  0  0  0  0  0  0  0  0  0  0
  5  6  2  0  0  0  0
  5  7  1  0  0  0  0
  2  3  1  0  0  0  0
  2  4  1  0  0  0  0
  2  5  1  0  0  0  0
  1  2  1  0  0  0  0
 21 22  2  0  0  0  0
 21 23  1  0  0  0  0
 19 20  1  0  0  0  0
 17 18  2  0  0  0  0
 17 19  1  0  0  0  0
 14 15  1  0  0  0  0
 14 16  1  0  0  0  0
 14 17  1  0  0  0  0
 11 12  1  0  0  0  0
 11 13  1  0  0  0  0
 11 14  1  0  0  0  0
  9 10  1  0  0  0  0
  9 11  1  0  0  0  0
  9 21  1  0  0  0  0
  7  8  1  0  0  0  0
  7  9  1  0  0  0  0
 25 26  1  0  0  0  0
 25 27  1  0  0  0  0
 25 28  1  0  0  0  0
 23 24  1  0  0  0  0
 23 25  1  0  0  0  0
M  END
$$$$
default_name
  -OEChem-02102213163D

 28 27  0     1  0  0  0  0  0999 V2000
   -3.2133   -3.5565    1.2809 H   0  0  0  0  0  0  0  0  0  0  0  0
   -3.1873   -2.5755    0.8089 C   0  0  0  0  0  0  0  0  0  0  0  0
   -3.8793   -1.9065    1.3169 H   0  0  0  0  0  0  0  0  0  0  0  0
   -3.4623   -2.6685   -0.2401 H   0  0  0  0  0  0  0  0  0  0  0  0
   -1.7863   -2.0195    0.9119 C   0  0  0  0  0  0  0  0  0  0  0  0
   -0.9073   -2.6615    1.4699 O   0  0  0  0  0  0  0  0  0  0  0  0
   -1.5803   -0.8195    0.3749 N   0  0  0  0  0  0  0  0  0  0  0  0
   -2.3603   -0.3345   -0.0451 H   0  0  0  0  0  0  0  0  0  0  0  0
   -0.2933   -0.1205    0.3719 C   0  0  1  0  0  0  0  0  0  0  0  0
    0.4439   -0.7485   -0.1303 H   0  0  0  0  0  0  0  0  0  0  0  0
   -0.4368    1.1924   -0.4246 C   0  0  0  0  0  0  0  0  0  0  0  0
   -0.9997    0.9772   -1.3345 H   0  0  0  0  0  0  0  0  0  0  0  0
   -1.0075    1.9109    0.1655 H   0  0  0  0  0  0  0  0  0  0  0  0
    0.9057    1.8359   -0.8130 C   0  0  0  0  0  0  0  0  0  0  0  0
    0.9765    1.9213   -1.8974 H   0  0  0  0  0  0  0  0  0  0  0  0
    0.9667    2.8302   -0.3723 H   0  0  0  0  0  0  0  0  0  0  0  0
    2.0997    1.0251   -0.3196 C   0  0  0  0  0  0  0  0  0  0  0  0
    2.0304    0.0515    0.4133 O   0  0  0  0  0  0  0  0  0  0  0  0
    3.3049    1.4550   -0.7371 O   0  0  0  0  0  0  0  0  0  0  0  0
    3.9378    0.8570   -0.3358 H   0  0  0  0  0  0  0  0  0  0  0  0
    0.1871    0.1189    1.8122 C   0  0  0  0  0  0  0  0  0  0  0  0
    1.3541   -0.1171    2.1187 O   0  0  0  0  0  0  0  0  0  0  0  0
   -0.7126    0.5740    2.6926 N   0  0  0  0  0  0  0  0  0  0  0  0
   -1.6464    0.7663    2.3621 H   0  0  0  0  0  0  0  0  0  0  0  0
   -0.4191    0.8310    4.1010 C   0  0  0  0  0  0  0  0  0  0  0  0
    0.4022    1.5452    4.1828 H   0  0  0  0  0  0  0  0  0  0  0  0
   -1.2983    1.2366    4.6035 H   0  0  0  0  0  0  0  0  0  0  0  0
   -0.1204   -0.0980    4.5907 H   0  0  0  0  0  0  0  0  0  0  0  0
  5  6  2  0  0  0  0
  5  7  1  0  0  0  0
  2  3  1  0  0  0  0
  2  4  1  0  0  0  0
  2  5  1  0  0  0  0
  1  2  1  0  0  0  0
 21 22  2  0  0  0  0
 21 23  1  0  0  0  0
 19 20  1  0  0  0  0
 17 18  2  0  0  0  0
 17 19  1  0  0  0  0
 14 15  1  0  0  0  0
 14 16  1  0  0  0  0
 14 17  1  0  0  0  0
 11 12  1  0  0  0  0
 11 13  1  0  0  0  0
 11 14  1  0  0  0  0
  9 10  1  0  0  0  0
  9 11  1  0  0  0  0
  9 21  1  0  0  0  0
  7  8  1  0  0  0  0
  7  9  1  0  0  0  0
 25 26  1  0  0  0  0
 25 27  1  0  0  0  0
 25 28  1  0  0  0  0
 23 24  1  0  0  0  0
 23 25  1  0  0  0  0
M  END
$$$$
default_name
  -OEChem-02102213163D

 28 27  0     1  0  0  0  0  0999 V2000
   -3.2133   -3.5565    1.2809 H   0  0  0  0  0  0  0  0  0  0  0  0
   -3.1873   -2.5755    0.8089 C   0  0  0  0  0  0  0  0  0  0  0  0
   -3.8793   -1.9065    1.3169 H   0  0  0  0  0  0  0  0  0  0  0  0
   -3.4623   -2.6685   -0.2401 H   0  0  0  0  0  0  0  0  0  0  0  0
   -1.7863   -2.0195    0.9119 C   0  0  0  0  0  0  0  0  0  0  0  0
   -0.9073   -2.6615    1.4699 O   0  0  0  0  0  0  0  0  0  0  0  0
   -1.5803   -0.8195    0.3749 N   0  0  0  0  0  0  0  0  0  0  0  0
   -2.3603   -0.3345   -0.0451 H   0  0  0  0  0  0  0  0  0  0  0  0
   -0.2933   -0.1205    0.3719 C   0  0  1  0  0  0  0  0  0  0  0  0
    0.4439   -0.7485   -0.1303 H   0  0  0  0  0  0  0  0  0  0  0  0
   -0.4368    1.1924   -0.4246 C   0  0  0  0  0  0  0  0  0  0  0  0
   -0.9997    0.9772   -1.3345 H   0  0  0  0  0  0  0  0  0  0  0  0
   -1.0075    1.9109    0.1655 H   0  0  0  0  0  0  0  0  0  0  0  0
    0.9057    1.8359   -0.8130 C   0  0  0  0  0  0  0  0  0  0  0  0
    0.8733    2.1639   -1.8521 H   0  0  0  0  0  0  0  0  0  0  0  0
    1.0879    2.6980   -0.1725 H   0  0  0  0  0  0  0  0  0  0  0  0
    2.0766    0.8715   -0.6537 C   0  0  0  0  0  0  0  0  0  0  0  0
    2.0060   -0.2392   -0.1525 O   0  0  0  0  0  0  0  0  0  0  0  0
    3.2634    1.3214   -1.1019 O   0  0  0  0  0  0  0  0  0  0  0  0
    3.8851    0.6146   -0.9196 H   0  0  0  0  0  0  0  0  0  0  0  0
    0.1871    0.1189    1.8122 C   0  0  0  0  0  0  0  0  0  0  0  0
    1.3541   -0.1171    2.1187 O   0  0  0  0  0  0  0  0  0  0  0  0
   -0.7126    0.5740    2.6926 N   0  0  0  0  0  0  0  0  0  0  0  0
   -1.6464    0.7663    2.3621 H   0  0  0  0  0  0  0  0  0  0  0  0
   -0.4191    0.8310    4.1010 C   0  0  0  0  0  0  0  0  0  0  0  0
    0.4022    1.5452    4.1828 H   0  0  0  0  0  0  0  0  0  0  0  0
   -1.2983    1.2366    4.6035 H   0  0  0  0  0  0  0  0  0  0  0  0
   -0.1204   -0.0980    4.5907 H   0  0  0  0  0  0  0  0  0  0  0  0
  5  6  2  0  0  0  0
  5  7  1  0  0  0  0
  2  3  1  0  0  0  0
  2  4  1  0  0  0  0
  2  5  1  0  0  0  0
  1  2  1  0  0  0  0
 21 22  2  0  0  0  0
 21 23  1  0  0  0  0
 19 20  1  0  0  0  0
 17 18  2  0  0  0  0
 17 19  1  0  0  0  0
 14 15  1  0  0  0  0
 14 16  1  0  0  0  0
 14 17  1  0  0  0  0
 11 12  1  0  0  0  0
 11 13  1  0  0  0  0
 11 14  1  0  0  0  0
  9 10  1  0  0  0  0
  9 11  1  0  0  0  0
  9 21  1  0  0  0  0
  7  8  1  0  0  0  0
  7  9  1  0  0  0  0
 25 26  1  0  0  0  0
 25 27  1  0  0  0  0
 25 28  1  0  0  0  0
 23 24  1  0  0  0  0
 23 25  1  0  0  0  0
M  END
$$$$
default_name
  -OEChem-02102213163D

 28 27  0     1  0  0  0  0  0999 V2000
   -3.2133   -3.5565    1.2809 H   0  0  0  0  0  0  0  0  0  0  0  0
   -3.1873   -2.5755    0.8089 C   0  0  0  0  0  0  0  0  0  0  0  0
   -3.8793   -1.9065    1.3169 H   0  0  0  0  0  0  0  0  0  0  0  0
   -3.4623   -2.6685   -0.2401 H   0  0  0  0  0  0  0  0  0  0  0  0
   -1.7863   -2.0195    0.9119 C   0  0  0  0  0  0  0  0  0  0  0  0
   -0.9073   -2.6615    1.4699 O   0  0  0  0  0  0  0  0  0  0  0  0
   -1.5803   -0.8195    0.3749 N   0  0  0  0  0  0  0  0  0  0  0  0
   -2.3603   -0.3345   -0.0451 H   0  0  0  0  0  0  0  0  0  0  0  0
   -0.2933   -0.1205    0.3719 C   0  0  1  0  0  0  0  0  0  0  0  0
    0.4439   -0.7485   -0.1303 H   0  0  0  0  0  0  0  0  0  0  0  0
   -0.4368    1.1924   -0.4246 C   0  0  0  0  0  0  0  0  0  0  0  0
   -0.9997    0.9772   -1.3345 H   0  0  0  0  0  0  0  0  0  0  0  0
   -1.0075    1.9109    0.1655 H   0  0  0  0  0  0  0  0  0  0  0  0
    0.9057    1.8359   -0.8130 C   0  0  0  0  0  0  0  0  0  0  0  0
    0.7944    2.3948   -1.7422 H   0  0  0  0  0  0  0  0  0  0  0  0
    1.2180    2.5171   -0.0224 H   0  0  0  0  0  0  0  0  0  0  0  0
    2.0082    0.8001   -1.0086 C   0  0  0  0  0  0  0  0  0  0  0  0
    1.9022   -0.3906   -0.7621 O   0  0  0  0  0  0  0  0  0  0  0  0
    3.1751    1.2774   -1.4799 O   0  0  0  0  0  0  0  0  0  0  0  0
    3.7551    0.5158   -1.5324 H   0  0  0  0  0  0  0  0  0  0  0  0
    0.1871    0.1189    1.8122 C   0  0  0  0  0  0  0  0  0  0  0  0
    1.3541   -0.1171    2.1187 O   0  0  0  0  0  0  0  0  0  0  0  0
   -0.7126    0.5740    2.6926 N   0  0  0  0  0  0  0  0  0  0  0  0
   -1.6464    0.7663    2.3621 H   0  0  0  0  0  0  0  0  0  0  0  0
   -0.4191    0.8310    4.1010 C   0  0  0  0  0  0  0  0  0  0  0  0
    0.4022    1.5452    4.1828 H   0  0  0  0  0  0  0  0  0  0  0  0
   -1.2983    1.2366    4.6035 H   0  0  0  0  0  0  0  0  0  0  0  0
   -0.1204   -0.0980    4.5907 H   0  0  0  0  0  0  0  0  0  0  0  0
  5  6  2  0  0  0  0
  5  7  1  0  0  0  0
  2  3  1  0  0  0  0
  2  4  1  0  0  0  0
  2  5  1  0  0  0  0
  1  2  1  0  0  0  0
 21 22  2  0  0  0  0
 21 23  1  0  0  0  0
 19 20  1  0  0  0  0
 17 18  2  0  0  0  0
 17 19  1  0  0  0  0
 14 15  1  0  0  0  0
 14 16  1  0  0  0  0
 14 17  1  0  0  0  0
 11 12  1  0  0  0  0
 11 13  1  0  0  0  0
 11 14  1  0  0  0  0
  9 10  1  0  0  0  0
  9 11  1  0  0  0  0
  9 21  1  0  0  0  0
  7  8  1  0  0  0  0
  7  9  1  0  0  0  0
 25 26  1  0  0  0  0
 25 27  1  0  0  0  0
 25 28  1  0  0  0  0
 23 24  1  0  0  0  0
 23 25  1  0  0  0  0
M  END
$$$$
default_name
  -OEChem-02102213163D

 28 27  0     1  0  0  0  0  0999 V2000
   -3.2133   -3.5565    1.2809 H   0  0  0  0  0  0  0  0  0  0  0  0
   -3.1873   -2.5755    0.8089 C   0  0  0  0  0  0  0  0  0  0  0  0
   -3.8793   -1.9065    1.3169 H   0  0  0  0  0  0  0  0  0  0  0  0
   -3.4623   -2.6685   -0.2401 H   0  0  0  0  0  0  0  0  0  0  0  0
   -1.7863   -2.0195    0.9119 C   0  0  0  0  0  0  0  0  0  0  0  0
   -0.9073   -2.6615    1.4699 O   0  0  0  0  0  0  0  0  0  0  0  0
   -1.5803   -0.8195    0.3749 N   0  0  0  0  0  0  0  0  0  0  0  0
   -2.3603   -0.3345   -0.0451 H   0  0  0  0  0  0  0  0  0  0  0  0
   -0.2933   -0.1205    0.3719 C   0  0  1  0  0  0  0  0  0  0  0  0
    0.4439   -0.7485   -0.1303 H   0  0  0  0  0  0  0  0  0  0  0  0
   -0.4368    1.1924   -0.4246 C   0  0  0  0  0  0  0  0  0  0  0  0
   -0.9997    0.9772   -1.3345 H   0  0  0  0  0  0  0  0  0  0  0  0
   -1.0075    1.9109    0.1655 H   0  0  0  0  0  0  0  0  0  0  0  0
    0.9057    1.8359   -0.8130 C   0  0  0  0  0  0  0  0  0  0  0  0
    0.7452    2.5982   -1.5755 H   0  0  0  0  0  0  0  0  0  0  0  0
    1.3481    2.3000    0.0676 H   0  0  0  0  0  0  0  0  0  0  0  0
    1.8989    0.8158   -1.3602 C   0  0  0  0  0  0  0  0  0  0  0  0
    1.7261   -0.3924   -1.3739 O   0  0  0  0  0  0  0  0  0  0  0  0
    3.0460    1.3260   -1.8454 O   0  0  0  0  0  0  0  0  0  0  0  0
    3.5568    0.5672   -2.1327 H   0  0  0  0  0  0  0  0  0  0  0  0
    0.1871    0.1189    1.8122 C   0  0  0  0  0  0  0  0  0  0  0  0
    1.3541   -0.1171    2.1187 O   0  0  0  0  0  0  0  0  0  0  0  0
   -0.7126    0.5740    2.6926 N   0  0  0  0  0  0  0  0  0  0  0  0
   -1.6464    0.7663    2.3621 H   0  0  0  0  0  0  0  0  0  0  0  0
   -0.4191    0.8310    4.1010 C   0  0  0  0  0  0  0  0  0  0  0  0
    0.4022    1.5452    4.1828 H   0  0  0  0  0  0  0  0  0  0  0  0
   -1.2983    1.2366    4.6035 H   0  0  0  0  0  0  0  0  0  0  0  0
   -0.1204   -0.0980    4.5907 H   0  0  0  0  0  0  0  0  0  0  0  0
  5  6  2  0  0  0  0
  5  7  1  0  0  0  0
  2  3  1  0  0  0  0
  2  4  1  0  0  0  0
  2  5  1  0  0  0  0
  1  2  1  0  0  0  0
 21 22  2  0  0  0  0
 21 23  1  0  0  0  0
 19 20  1  0  0  0  0
 17 18  2  0  0  0  0
 17 19  1  0  0  0  0
 14 15  1  0  0  0  0
 14 16  1  0  0  0  0
 14 17  1  0  0  0  0
 11 12  1  0  0  0  0
 11 13  1  0  0  0  0
 11 14  1  0  0  0  0
  9 10  1  0  0  0  0
  9 11  1  0  0  0  0
  9 21  1  0  0  0  0
  7  8  1  0  0  0  0
  7  9  1  0  0  0  0
 25 26  1  0  0  0  0
 25 27  1  0  0  0  0
 25 28  1  0  0  0  0
 23 24  1  0  0  0  0
 23 25  1  0  0  0  0
M  END
$$$$
default_name
  -OEChem-02102213163D

 28 27  0     1  0  0  0  0  0999 V2000
   -3.2133   -3.5565    1.2809 H   0  0  0  0  0  0  0  0  0  0  0  0
   -3.1873   -2.5755    0.8089 C   0  0  0  0  0  0  0  0  0  0  0  0
   -3.8793   -1.9065    1.3169 H   0  0  0  0  0  0  0  0  0  0  0  0
   -3.4623   -2.6685   -0.2401 H   0  0  0  0  0  0  0  0  0  0  0  0
   -1.7863   -2.0195    0.9119 C   0  0  0  0  0  0  0  0  0  0  0  0
   -0.9073   -2.6615    1.4699 O   0  0  0  0  0  0  0  0  0  0  0  0
   -1.5803   -0.8195    0.3749 N   0  0  0  0  0  0  0  0  0  0  0  0
   -2.3603   -0.3345   -0.0451 H   0  0  0  0  0  0  0  0  0  0  0  0
   -0.2933   -0.1205    0.3719 C   0  0  1  0  0  0  0  0  0  0  0  0
    0.4439   -0.7485   -0.1303 H   0  0  0  0  0  0  0  0  0  0  0  0
   -0.4368    1.1924   -0.4246 C   0  0  0  0  0  0  0  0  0  0  0  0
   -0.9997    0.9772   -1.3345 H   0  0  0  0  0  0  0  0  0  0  0  0
   -1.0075    1.9109    0.1655 H   0  0  0  0  0  0  0  0  0  0  0  0
    0.9057    1.8359   -0.8130 C   0  0  0  0  0  0  0  0  0  0  0  0
    0.7290    2.7602   -1.3632 H   0  0  0  0  0  0  0  0  0  0  0  0
    1.4693    2.0615    0.0915 H   0  0  0  0  0  0  0  0  0  0  0  0
    1.7564    0.9175   -1.6844 C   0  0  0  0  0  0  0  0  0  0  0  0
    1.4896   -0.2445   -1.9462 O   0  0  0  0  0  0  0  0  0  0  0  0
    2.8850    1.4640   -2.1735 O   0  0  0  0  0  0  0  0  0  0  0  0
    3.3037    0.7654   -2.6794 H   0  0  0  0  0  0  0  0  0  0  0  0
    0.1871    0.1189    1.8122 C   0  0  0  0  0  0  0  0  0  0  0  0
    1.3541   -0.1171    2.1187 O   0  0  0  0  0  0  0  0  0  0  0  0
   -0.7126    0.5740    2.6926 N   0  0  0  0  0  0  0  0  0  0  0  0
   -1.6464    0.7663    2.3621 H   0  0  0  0  0  0  0  0  0  0  0  0
   -0.4191    0.8310    4.1010 C   0  0  0  0  0  0  0  0  0  0  0  0
    0.4022    1.5452    4.1828 H   0  0  0  0  0  0  0  0  0  0  0  0
   -1.2983    1.2366    4.6035 H   0  0  0  0  0  0  0  0  0  0  0  0
   -0.1204   -0.0980    4.5907 H   0  0  0  0  0  0  0  0  0  0  0  0
  5  6  2  0  0  0  0
  5  7  1  0  0  0  0
  2  3  1  0  0  0  0
  2  4  1  0  0  0  0
  2  5  1  0  0  0  0
  1  2  1  0  0  0  0
 21 22  2  0  0  0  0
 21 23  1  0  0  0  0
 19 20  1  0  0  0  0
 17 18  2  0  0  0  0
 17 19  1  0  0  0  0
 14 15  1  0  0  0  0
 14 16  1  0  0  0  0
 14 17  1  0  0  0  0
 11 12  1  0  0  0  0
 11 13  1  0  0  0  0
 11 14  1  0  0  0  0
  9 10  1  0  0  0  0
  9 11  1  0  0  0  0
  9 21  1  0  0  0  0
  7  8  1  0  0  0  0
  7  9  1  0  0  0  0
 25 26  1  0  0  0  0
 25 27  1  0  0  0  0
 25 28  1  0  0  0  0
 23 24  1  0  0  0  0
 23 25  1  0  0  0  0
M  END
$$$$
default_name
  -OEChem-02102213163D

 28 27  0     1  0  0  0  0  0999 V2000
   -3.2133   -3.5565    1.2809 H   0  0  0  0  0  0  0  0  0  0  0  0
   -3.1873   -2.5755    0.8089 C   0  0  0  0  0  0  0  0  0  0  0  0
   -3.8793   -1.9065    1.3169 H   0  0  0  0  0  0  0  0  0  0  0  0
   -3.4623   -2.6685   -0.2401 H   0  0  0  0  0  0  0  0  0  0  0  0
   -1.7863   -2.0195    0.9119 C   0  0  0  0  0  0  0  0  0  0  0  0
   -0.9073   -2.6615    1.4699 O   0  0  0  0  0  0  0  0  0  0  0  0
   -1.5803   -0.8195    0.3749 N   0  0  0  0  0  0  0  0  0  0  0  0
   -2.3603   -0.3345   -0.0451 H   0  0  0  0  0  0  0  0  0  0  0  0
   -0.2933   -0.1205    0.3719 C   0  0  1  0  0  0  0  0  0  0  0  0
    0.4439   -0.7485   -0.1303 H   0  0  0  0  0  0  0  0  0  0  0  0
   -0.4368    1.1924   -0.4246 C   0  0  0  0  0  0  0  0  0  0  0  0
   -0.9997    0.9772   -1.3345 H   0  0  0  0  0  0  0  0  0  0  0  0
   -1.0075    1.9109    0.1655 H   0  0  0  0  0  0  0  0  0  0  0  0
    0.9057    1.8359   -0.8130 C   0  0  0  0  0  0  0  0  0  0  0  0
    0.7469    2.8698   -1.1198 H   0  0  0  0  0  0  0  0  0  0  0  0
    1.5734    1.8178    0.0475 H   0  0  0  0  0  0  0  0  0  0  0  0
    1.5903    1.0982   -1.9592 C   0  0  0  0  0  0  0  0  0  0  0  0
    1.2089    0.0431   -2.4399 O   0  0  0  0  0  0  0  0  0  0  0  0
    2.7029    1.6819   -2.4419 O   0  0  0  0  0  0  0  0  0  0  0  0
    3.0129    1.0968   -3.1353 H   0  0  0  0  0  0  0  0  0  0  0  0
    0.1871    0.1189    1.8122 C   0  0  0  0  0  0  0  0  0  0  0  0
    1.3541   -0.1171    2.1187 O   0  0  0  0  0  0  0  0  0  0  0  0
   -0.7126    0.5740    2.6926 N   0  0  0  0  0  0  0  0  0  0  0  0
   -1.6464    0.7663    2.3621 H   0  0  0  0  0  0  0  0  0  0  0  0
   -0.4191    0.8310    4.1010 C   0  0  0  0  0  0  0  0  0  0  0  0
    0.4022    1.5452    4.1828 H   0  0  0  0  0  0  0  0  0  0  0  0
   -1.2983    1.2366    4.6035 H   0  0  0  0  0  0  0  0  0  0  0  0
   -0.1204   -0.0980    4.5907 H   0  0  0  0  0  0  0  0  0  0  0  0
  5  6  2  0  0  0  0
  5  7  1  0  0  0  0
  2  3  1  0  0  0  0
  2  4  1  0  0  0  0
  2  5  1  0  0  0  0
  1  2  1  0  0  0  0
 21 22  2  0  0  0  0
 21 23  1  0  0  0  0
 19 20  1  0  0  0  0
 17 18  2  0  0  0  0
 17 19  1  0  0  0  0
 14 15  1  0  0  0  0
 14 16  1  0  0  0  0
 14 17  1  0  0  0  0
 11 12  1  0  0  0  0
 11 13  1  0  0  0  0
 11 14  1  0  0  0  0
  9 10  1  0  0  0  0
  9 11  1  0  0  0  0
  9 21  1  0  0  0  0
  7  8  1  0  0  0  0
  7  9  1  0  0  0  0
 25 26  1  0  0  0  0
 25 27  1  0  0  0  0
 25 28  1  0  0  0  0
 23 24  1  0  0  0  0
 23 25  1  0  0  0  0
M  END
$$$$
default_name
  -OEChem-02102213163D

 28 27  0     1  0  0  0  0  0999 V2000
   -3.2133   -3.5565    1.2809 H   0  0  0  0  0  0  0  0  0  0  0  0
   -3.1873   -2.5755    0.8089 C   0  0  0  0  0  0  0  0  0  0  0  0
   -3.8793   -1.9065    1.3169 H   0  0  0  0  0  0  0  0  0  0  0  0
   -3.4623   -2.6685   -0.2401 H   0  0  0  0  0  0  0  0  0  0  0  0
   -1.7863   -2.0195    0.9119 C   0  0  0  0  0  0  0  0  0  0  0  0
   -0.9073   -2.6615    1.4699 O   0  0  0  0  0  0  0  0  0  0  0  0
   -1.5803   -0.8195    0.3749 N   0  0  0  0  0  0  0  0  0  0  0  0
   -2.3603   -0.3345   -0.0451 H   0  0  0  0  0  0  0  0  0  0  0  0
   -0.2933   -0.1205    0.3719 C   0  0  1  0  0  0  0  0  0  0  0  0
    0.4439   -0.7485   -0.1303 H   0  0  0  0  0  0  0  0  0  0  0  0
   -0.4368    1.1924   -0.4246 C   0  0  0  0  0  0  0  0  0  0  0  0
   -0.9997    0.9772   -1.3345 H   0  0  0  0  0  0  0  0  0  0  0  0
   -1.0075    1.9109    0.1655 H   0  0  0  0  0  0  0  0  0  0  0  0
    0.9057    1.8359   -0.8130 C   0  0  0  0  0  0  0  0  0  0  0  0
    0.7977    2.9195   -0.8618 H   0  0  0  0  0  0  0  0  0  0  0  0
    1.6533    1.5856   -0.0612 H   0  0  0  0  0  0  0  0  0  0  0  0
    1.4119    1.3457   -2.1658 C   0  0  0  0  0  0  0  0  0  0  0  0
    0.9031    0.4507   -2.8215 O   0  0  0  0  0  0  0  0  0  0  0  0
    2.5122    1.9649   -2.6322 O   0  0  0  0  0  0  0  0  0  0  0  0
    2.7044    1.5389   -3.4694 H   0  0  0  0  0  0  0  0  0  0  0  0
    0.1871    0.1189    1.8122 C   0  0  0  0  0  0  0  0  0  0  0  0
    1.3541   -0.1171    2.1187 O   0  0  0  0  0  0  0  0  0  0  0  0
   -0.7126    0.5740    2.6926 N   0  0  0  0  0  0  0  0  0  0  0  0
   -1.6464    0.7663    2.3621 H   0  0  0  0  0  0  0  0  0  0  0  0
   -0.4191    0.8310    4.1010 C   0  0  0  0  0  0  0  0  0  0  0  0
    0.4022    1.5452    4.1828 H   0  0  0  0  0  0  0  0  0  0  0  0
   -1.2983    1.2366    4.6035 H   0  0  0  0  0  0  0  0  0  0  0  0
   -0.1204   -0.0980    4.5907 H   0  0  0  0  0  0  0  0  0  0  0  0
  5  6  2  0  0  0  0
  5  7  1  0  0  0  0
  2  3  1  0  0  0  0
  2  4  1  0  0  0  0
  2  5  1  0  0  0  0
  1  2  1  0  0  0  0
 21 22  2  0  0  0  0
 21 23  1  0  0  0  0
 19 20  1  0  0  0  0
 17 18  2  0  0  0  0
 17 19  1  0  0  0  0
 14 15  1  0  0  0  0
 14 16  1  0  0  0  0
 14 17  1  0  0  0  0
 11 12  1  0  0  0  0
 11 13  1  0  0  0  0
 11 14  1  0  0  0  0
  9 10  1  0  0  0  0
  9 11  1  0  0  0  0
  9 21  1  0  0  0  0
  7  8  1  0  0  0  0
  7  9  1  0  0  0  0
 25 26  1  0  0  0  0
 25 27  1  0  0  0  0
 25 28  1  0  0  0  0
 23 24  1  0  0  0  0
 23 25  1  0  0  0  0
M  END
$$$$
default_name
  -OEChem-02102213163D

 28 27  0     1  0  0  0  0  0999 V2000
   -3.2133   -3.5565    1.2809 H   0  0  0  0  0  0  0  0  0  0  0  0
   -3.1873   -2.5755    0.8089 C   0  0  0  0  0  0  0  0  0  0  0  0
   -3.8793   -1.9065    1.3169 H   0  0  0  0  0  0  0  0  0  0  0  0
   -3.4623   -2.6685   -0.2401 H   0  0  0  0  0  0  0  0  0  0  0  0
   -1.7863   -2.0195    0.9119 C   0  0  0  0  0  0  0  0  0  0  0  0
   -0.9073   -2.6615    1.4699 O   0  0  0  0  0  0  0  0  0  0  0  0
   -1.5803   -0.8195    0.3749 N   0  0  0  0  0  0  0  0  0  0  0  0
   -2.3603   -0.3345   -0.0451 H   0  0  0  0  0  0  0  0  0  0  0  0
   -0.2933   -0.1205    0.3719 C   0  0  1  0  0  0  0  0  0  0  0  0
    0.4439   -0.7485   -0.1303 H   0  0  0  0  0  0  0  0  0  0  0  0
   -0.4368    1.1924   -0.4246 C   0  0  0  0  0  0  0  0  0  0  0  0
   -0.9997    0.9772   -1.3345 H   0  0  0  0  0  0  0  0  0  0  0  0
   -1.0075    1.9109    0.1655 H   0  0  0  0  0  0  0  0  0  0  0  0
    0.9057    1.8359   -0.8130 C   0  0  0  0  0  0  0  0  0  0  0  0
    0.8779    2.9059   -0.6070 H   0  0  0  0  0  0  0  0  0  0  0  0
    1.7035    1.3806   -0.2274 H   0  0  0  0  0  0  0  0  0  0  0  0
    1.2334    1.6431   -2.2902 C   0  0  0  0  0  0  0  0  0  0  0  0
    0.5931    0.9506   -3.0650 O   0  0  0  0  0  0  0  0  0  0  0  0
    2.3260    2.2936   -2.7314 O   0  0  0  0  0  0  0  0  0  0  0  0
    2.3990    2.0616   -3.6588 H   0  0  0  0  0  0  0  0  0  0  0  0
    0.1871    0.1189    1.8122 C   0  0  0  0  0  0  0  0  0  0  0  0
    1.3541   -0.1171    2.1187 O   0  0  0  0  0  0  0  0  0  0  0  0
   -0.7126    0.5740    2.6926 N   0  0  0  0  0  0  0  0  0  0  0  0
   -1.6464    0.7663    2.3621 H   0  0  0  0  0  0  0  0  0  0  0  0
   -0.4191    0.8310    4.1010 C   0  0  0  0  0  0  0  0  0  0  0  0
    0.4022    1.5452    4.1828 H   0  0  0  0  0  0  0  0  0  0  0  0
   -1.2983    1.2366    4.6035 H   0  0  0  0  0  0  0  0  0  0  0  0
   -0.1204   -0.0980    4.5907 H   0  0  0  0  0  0  0  0  0  0  0  0
  5  6  2  0  0  0  0
  5  7  1  0  0  0  0
  2  3  1  0  0  0  0
  2  4  1  0  0  0  0
  2  5  1  0  0  0  0
  1  2  1  0  0  0  0
 21 22  2  0  0  0  0
 21 23  1  0  0  0  0
 19 20  1  0  0  0  0
 17 18  2  0  0  0  0
 17 19  1  0  0  0  0
 14 15  1  0  0  0  0
 14 16  1  0  0  0  0
 14 17  1  0  0  0  0
 11 12  1  0  0  0  0
 11 13  1  0  0  0  0
 11 14  1  0  0  0  0
  9 10  1  0  0  0  0
  9 11  1  0  0  0  0
  9 21  1  0  0  0  0
  7  8  1  0  0  0  0
  7  9  1  0  0  0  0
 25 26  1  0  0  0  0
 25 27  1  0  0  0  0
 25 28  1  0  0  0  0
 23 24  1  0  0  0  0
 23 25  1  0  0  0  0
M  END
$$$$
default_name
  -OEChem-02102213163D

 28 27  0     1  0  0  0  0  0999 V2000
   -3.2133   -3.5565    1.2809 H   0  0  0  0  0  0  0  0  0  0  0  0
   -3.1873   -2.5755    0.8089 C   0  0  0  0  0  0  0  0  0  0  0  0
   -3.8793   -1.9065    1.3169 H   0  0  0  0  0  0  0  0  0  0  0  0
   -3.4623   -2.6685   -0.2401 H   0  0  0  0  0  0  0  0  0  0  0  0
   -1.7863   -2.0195    0.9119 C   0  0  0  0  0  0  0  0  0  0  0  0
   -0.9073   -2.6615    1.4699 O   0  0  0  0  0  0  0  0  0  0  0  0
   -1.5803   -0.8195    0.3749 N   0  0  0  0  0  0  0  0  0  0  0  0
   -2.3603   -0.3345   -0.0451 H   0  0  0  0  0  0  0  0  0  0  0  0
   -0.2933   -0.1205    0.3719 C   0  0  1  0  0  0  0  0  0  0  0  0
    0.4439   -0.7485   -0.1303 H   0  0  0  0  0  0  0  0  0  0  0  0
   -0.4368    1.1924   -0.4246 C   0  0  0  0  0  0  0  0  0  0  0  0
   -0.9997    0.9772   -1.3345 H   0  0  0  0  0  0  0  0  0  0  0  0
   -1.0075    1.9109    0.1655 H   0  0  0  0  0  0  0  0  0  0  0  0
    0.9057    1.8359   -0.8130 C   0  0  0  0  0  0  0  0  0  0  0  0
    0.9821    2.8300   -0.3725 H   0  0  0  0  0  0  0  0  0  0  0  0
    1.7206    1.2168   -0.4396 H   0  0  0  0  0  0  0  0  0  0  0  0
    1.0669    1.9701   -2.3238 C   0  0  0  0  0  0  0  0  0  0  0  0
    0.2999    1.5087   -3.1537 O   0  0  0  0  0  0  0  0  0  0  0  0
    2.1568    2.6457   -2.7329 O   0  0  0  0  0  0  0  0  0  0  0  0
    2.1178    2.6292   -3.6907 H   0  0  0  0  0  0  0  0  0  0  0  0
    0.1871    0.1189    1.8122 C   0  0  0  0  0  0  0  0  0  0  0  0
    1.3541   -0.1171    2.1187 O   0  0  0  0  0  0  0  0  0  0  0  0
   -0.7126    0.5740    2.6926 N   0  0  0  0  0  0  0  0  0  0  0  0
   -1.6464    0.7663    2.3621 H   0  0  0  0  0  0  0  0  0  0  0  0
   -0.4191    0.8310    4.1010 C   0  0  0  0  0  0  0  0  0  0  0  0
    0.4022    1.5452    4.1828 H   0  0  0  0  0  0  0  0  0  0  0  0
   -1.2983    1.2366    4.6035 H   0  0  0  0  0  0  0  0  0  0  0  0
   -0.1204   -0.0980    4.5907 H   0  0  0  0  0  0  0  0  0  0  0  0
  5  6  2  0  0  0  0
  5  7  1  0  0  0  0
  2  3  1  0  0  0  0
  2  4  1  0  0  0  0
  2  5  1  0  0  0  0
  1  2  1  0  0  0  0
 21 22  2  0  0  0  0
 21 23  1  0  0  0  0
 19 20  1  0  0  0  0
 17 18  2  0  0  0  0
 17 19  1  0  0  0  0
 14 15  1  0  0  0  0
 14 16  1  0  0  0  0
 14 17  1  0  0  0  0
 11 12  1  0  0  0  0
 11 13  1  0  0  0  0
 11 14  1  0  0  0  0
  9 10  1  0  0  0  0
  9 11  1  0  0  0  0
  9 21  1  0  0  0  0
  7  8  1  0  0  0  0
  7  9  1  0  0  0  0
 25 26  1  0  0  0  0
 25 27  1  0  0  0  0
 25 28  1  0  0  0  0
 23 24  1  0  0  0  0
 23 25  1  0  0  0  0
M  END
$$$$
default_name
  -OEChem-02102213163D

 28 27  0     1  0  0  0  0  0999 V2000
   -3.2133   -3.5565    1.2809 H   0  0  0  0  0  0  0  0  0  0  0  0
   -3.1873   -2.5755    0.8089 C   0  0  0  0  0  0  0  0  0  0  0  0
   -3.8793   -1.9065    1.3169 H   0  0  0  0  0  0  0  0  0  0  0  0
   -3.4623   -2.6685   -0.2401 H   0  0  0  0  0  0  0  0  0  0  0  0
   -1.7863   -2.0195    0.9119 C   0  0  0  0  0  0  0  0  0  0  0  0
   -0.9073   -2.6615    1.4699 O   0  0  0  0  0  0  0  0  0  0  0  0
   -1.5803   -0.8195    0.3749 N   0  0  0  0  0  0  0  0  0  0  0  0
   -2.3603   -0.3345   -0.0451 H   0  0  0  0  0  0  0  0  0  0  0  0
   -0.2933   -0.1205    0.3719 C   0  0  1  0  0  0  0  0  0  0  0  0
    0.4439   -0.7485   -0.1303 H   0  0  0  0  0  0  0  0  0  0  0  0
   -0.4368    1.1924   -0.4246 C   0  0  0  0  0  0  0  0  0  0  0  0
   -0.9997    0.9772   -1.3345 H   0  0  0  0  0  0  0  0  0  0  0  0
   -1.0075    1.9109    0.1655 H   0  0  0  0  0  0  0  0  0  0  0  0
    0.9057    1.8359   -0.8130 C   0  0  0  0  0  0  0  0  0  0  0  0
    1.1032    2.6970   -0.1745 H   0  0  0  0  0  0  0  0  0  0  0  0
    1.7034    1.1054   -0.6834 H   0  0  0  0  0  0  0  0  0  0  0  0
    0.9238    2.3044   -2.2645 C   0  0  0  0  0  0  0  0  0  0  0  0
    0.0436    2.0870   -3.0816 O   0  0  0  0  0  0  0  0  0  0  0  0
    2.0162    2.9973   -2.6365 O   0  0  0  0  0  0  0  0  0  0  0  0
    1.8797    3.2030   -3.5629 H   0  0  0  0  0  0  0  0  0  0  0  0
    0.1871    0.1189    1.8122 C   0  0  0  0  0  0  0  0  0  0  0  0
    1.3541   -0.1171    2.1187 O   0  0  0  0  0  0  0  0  0  0  0  0
   -0.7126    0.5740    2.6926 N   0  0  0  0  0  0  0  0  0  0  0  0
   -1.6464    0.7663    2.3621 H   0  0  0  0  0  0  0  0  0  0  0  0
   -0.4191    0.8310    4.1010 C   0  0  0  0  0  0  0  0  0  0  0  0
    0.4022    1.5452    4.1828 H   0  0  0  0  0  0  0  0  0  0  0  0
   -1.2983    1.2366    4.6035 H   0  0  0  0  0  0  0  0  0  0  0  0
   -0.1204   -0.0980    4.5907 H   0  0  0  0  0  0  0  0  0  0  0  0
  5  6  2  0  0  0  0
  5  7  1  0  0  0  0
  2  3  1  0  0  0  0
  2  4  1  0  0  0  0
  2  5  1  0  0  0  0
  1  2  1  0  0  0  0
 21 22  2  0  0  0  0
 21 23  1  0  0  0  0
 19 20  1  0  0  0  0
 17 18  2  0  0  0  0
 17 19  1  0  0  0  0
 14 15  1  0  0  0  0
 14 16  1  0  0  0  0
 14 17  1  0  0  0  0
 11 12  1  0  0  0  0
 11 13  1  0  0  0  0
 11 14  1  0  0  0  0
  9 10  1  0  0  0  0
  9 11  1  0  0  0  0
  9 21  1  0  0  0  0
  7  8  1  0  0  0  0
  7  9  1  0  0  0  0
 25 26  1  0  0  0  0
 25 27  1  0  0  0  0
 25 28  1  0  0  0  0
 23 24  1  0  0  0  0
 23 25  1  0  0  0  0
M  END
$$$$
default_name
  -OEChem-02102213163D

 28 27  0     1  0  0  0  0  0999 V2000
   -3.2133   -3.5565    1.2809 H   0  0  0  0  0  0  0  0  0  0  0  0
   -3.1873   -2.5755    0.8089 C   0  0  0  0  0  0  0  0  0  0  0  0
   -3.8793   -1.9065    1.3169 H   0  0  0  0  0  0  0  0  0  0  0  0
   -3.4623   -2.6685   -0.2401 H   0  0  0  0  0  0  0  0  0  0  0  0
   -1.7863   -2.0195    0.9119 C   0  0  0  0  0  0  0  0  0  0  0  0
   -0.9073   -2.6615    1.4699 O   0  0  0  0  0  0  0  0  0  0  0  0
   -1.5803   -0.8195    0.3749 N   0  0  0  0  0  0  0  0  0  0  0  0
   -2.3603   -0.3345   -0.0451 H   0  0  0  0  0  0  0  0  0  0  0  0
   -0.2933   -0.1205    0.3719 C   0  0  1  0  0  0  0  0  0  0  0  0
    0.4439   -0.7485   -0.1303 H   0  0  0  0  0  0  0  0  0  0  0  0
   -0.4368    1.1924   -0.4246 C   0  0  0  0  0  0  0  0  0  0  0  0
   -0.9997    0.9772   -1.3345 H   0  0  0  0  0  0  0  0  0  0  0  0
   -1.0075    1.9109    0.1655 H   0  0  0  0  0  0  0  0  0  0  0  0
    0.9057    1.8359   -0.8130 C   0  0  0  0  0  0  0  0  0  0  0  0
    1.2329    2.5158   -0.0263 H   0  0  0  0  0  0  0  0  0  0  0  0
    1.6532    1.0540   -0.9422 H   0  0  0  0  0  0  0  0  0  0  0  0
    0.8139    2.6232   -2.1161 C   0  0  0  0  0  0  0  0  0  0  0  0
   -0.1584    2.6460   -2.8537 O   0  0  0  0  0  0  0  0  0  0  0  0
    1.9138    3.3242   -2.4487 O   0  0  0  0  0  0  0  0  0  0  0  0
    1.7011    3.7439   -3.2841 H   0  0  0  0  0  0  0  0  0  0  0  0
    0.1871    0.1189    1.8122 C   0  0  0  0  0  0  0  0  0  0  0  0
    1.3541   -0.1171    2.1187 O   0  0  0  0  0  0  0  0  0  0  0  0
   -0.7126    0.5740    2.6926 N   0  0  0  0  0  0  0  0  0  0  0  0
   -1.6464    0.7663    2.3621 H   0  0  0  0  0  0  0  0  0  0  0  0
   -0.4191    0.8310    4.1010 C   0  0  0  0  0  0  0  0  0  0  0  0
    0.4022    1.5452    4.1828 H   0  0  0  0  0  0  0  0  0  0  0  0
   -1.2983    1.2366    4.6035 H   0  0  0  0  0  0  0  0  0  0  0  0
   -0.1204   -0.0980    4.5907 H   0  0  0  0  0  0  0  0  0  0  0  0
  5  6  2  0  0  0  0
  5  7  1  0  0  0  0
  2  3  1  0  0  0  0
  2  4  1  0  0  0  0
  2  5  1  0  0  0  0
  1  2  1  0  0  0  0
 21 22  2  0  0  0  0
 21 23  1  0  0  0  0
 19 20  1  0  0  0  0
 17 18  2  0  0  0  0
 17 19  1  0  0  0  0
 14 15  1  0  0  0  0
 14 16  1  0  0  0  0
 14 17  1  0  0  0  0
 11 12  1  0  0  0  0
 11 13  1  0  0  0  0
 11 14  1  0  0  0  0
  9 10  1  0  0  0  0
  9 11  1  0  0  0  0
  9 21  1  0  0  0  0
  7  8  1  0  0  0  0
  7  9  1  0  0  0  0
 25 26  1  0  0  0  0
 25 27  1  0  0  0  0
 25 28  1  0  0  0  0
 23 24  1  0  0  0  0
 23 25  1  0  0  0  0
M  END
$$$$
default_name
  -OEChem-02102213163D

 28 27  0     1  0  0  0  0  0999 V2000
   -3.2133   -3.5565    1.2809 H   0  0  0  0  0  0  0  0  0  0  0  0
   -3.1873   -2.5755    0.8089 C   0  0  0  0  0  0  0  0  0  0  0  0
   -3.8793   -1.9065    1.3169 H   0  0  0  0  0  0  0  0  0  0  0  0
   -3.4623   -2.6685   -0.2401 H   0  0  0  0  0  0  0  0  0  0  0  0
   -1.7863   -2.0195    0.9119 C   0  0  0  0  0  0  0  0  0  0  0  0
   -0.9073   -2.6615    1.4699 O   0  0  0  0  0  0  0  0  0  0  0  0
   -1.5803   -0.8195    0.3749 N   0  0  0  0  0  0  0  0  0  0  0  0
   -2.3603   -0.3345   -0.0451 H   0  0  0  0  0  0  0  0  0  0  0  0
   -0.2933   -0.1205    0.3719 C   0  0  1  0  0  0  0  0  0  0  0  0
    0.4439   -0.7485   -0.1303 H   0  0  0  0  0  0  0  0  0  0  0  0
   -0.4368    1.1924   -0.4246 C   0  0  0  0  0  0  0  0  0  0  0  0
   -0.9997    0.9772   -1.3345 H   0  0  0  0  0  0  0  0  0  0  0  0
   -1.0075    1.9109    0.1655 H   0  0  0  0  0  0  0  0  0  0  0  0
    0.9057    1.8359   -0.8130 C   0  0  0  0  0  0  0  0  0  0  0  0
    1.3624    2.2989    0.0618 H   0  0  0  0  0  0  0  0  0  0  0  0
    1.5733    1.0661   -1.1984 H   0  0  0  0  0  0  0  0  0  0  0  0
    0.7446    2.9049   -1.8890 C   0  0  0  0  0  0  0  0  0  0  0  0
   -0.2923    3.1477   -2.4854 O   0  0  0  0  0  0  0  0  0  0  0  0
    1.8566    3.6043   -2.1824 O   0  0  0  0  0  0  0  0  0  0  0  0
    1.5941    4.2151   -2.8733 H   0  0  0  0  0  0  0  0  0  0  0  0
    0.1871    0.1189    1.8122 C   0  0  0  0  0  0  0  0  0  0  0  0
    1.3541   -0.1171    2.1187 O   0  0  0  0  0  0  0  0  0  0  0  0
   -0.7126    0.5740    2.6926 N   0  0  0  0  0  0  0  0  0  0  0  0
   -1.6464    0.7663    2.3621 H   0  0  0  0  0  0  0  0  0  0  0  0
   -0.4191    0.8310    4.1010 C   0  0  0  0  0  0  0  0  0  0  0  0
    0.4022    1.5452    4.1828 H   0  0  0  0  0  0  0  0  0  0  0  0
   -1.2983    1.2366    4.6035 H   0  0  0  0  0  0  0  0  0  0  0  0
   -0.1204   -0.0980    4.5907 H   0  0  0  0  0  0  0  0  0  0  0  0
  5  6  2  0  0  0  0
  5  7  1  0  0  0  0
  2  3  1  0  0  0  0
  2  4  1  0  0  0  0
  2  5  1  0  0  0  0
  1  2  1  0  0  0  0
 21 22  2  0  0  0  0
 21 23  1  0  0  0  0
 19 20  1  0  0  0  0
 17 18  2  0  0  0  0
 17 19  1  0  0  0  0
 14 15  1  0  0  0  0
 14 16  1  0  0  0  0
 14 17  1  0  0  0  0
 11 12  1  0  0  0  0
 11 13  1  0  0  0  0
 11 14  1  0  0  0  0
  9 10  1  0  0  0  0
  9 11  1  0  0  0  0
  9 21  1  0  0  0  0
  7  8  1  0  0  0  0
  7  9  1  0  0  0  0
 25 26  1  0  0  0  0
 25 27  1  0  0  0  0
 25 28  1  0  0  0  0
 23 24  1  0  0  0  0
 23 25  1  0  0  0  0
M  END
$$$$
default_name
  -OEChem-02102213163D

 28 27  0     1  0  0  0  0  0999 V2000
   -3.2133   -3.5565    1.2809 H   0  0  0  0  0  0  0  0  0  0  0  0
   -3.1873   -2.5755    0.8089 C   0  0  0  0  0  0  0  0  0  0  0  0
   -3.8793   -1.9065    1.3169 H   0  0  0  0  0  0  0  0  0  0  0  0
   -3.4623   -2.6685   -0.2401 H   0  0  0  0  0  0  0  0  0  0  0  0
   -1.7863   -2.0195    0.9119 C   0  0  0  0  0  0  0  0  0  0  0  0
   -0.9073   -2.6615    1.4699 O   0  0  0  0  0  0  0  0  0  0  0  0
   -1.5803   -0.8195    0.3749 N   0  0  0  0  0  0  0  0  0  0  0  0
   -2.3603   -0.3345   -0.0451 H   0  0  0  0  0  0  0  0  0  0  0  0
   -0.2933   -0.1205    0.3719 C   0  0  1  0  0  0  0  0  0  0  0  0
    0.4439   -0.7485   -0.1303 H   0  0  0  0  0  0  0  0  0  0  0  0
   -0.4368    1.1924   -0.4246 C   0  0  0  0  0  0  0  0  0  0  0  0
   -1.2108    1.0478   -1.1802 H   0  0  0  0  0  0  0  0  0  0  0  0
   -0.7631    1.9874    0.2475 H   0  0  0  0  0  0  0  0  0  0  0  0
    0.8584    1.6432   -1.1220 C   0  0  0  0  0  0  0  0  0  0  0  0
    1.6446    1.7957   -0.3825 H   0  0  0  0  0  0  0  0  0  0  0  0
    1.1739    0.8722   -1.8239 H   0  0  0  0  0  0  0  0  0  0  0  0
    0.6749    2.9436   -1.8979 C   0  0  0  0  0  0  0  0  0  0  0  0
   -0.3922    3.5094   -2.0740 O   0  0  0  0  0  0  0  0  0  0  0  0
    1.7975    3.4692   -2.4223 O   0  0  0  0  0  0  0  0  0  0  0  0
    1.5134    4.2620   -2.8806 H   0  0  0  0  0  0  0  0  0  0  0  0
    0.1871    0.1189    1.8122 C   0  0  0  0  0  0  0  0  0  0  0  0
    1.3541   -0.1171    2.1187 O   0  0  0  0  0  0  0  0  0  0  0  0
   -0.7126    0.5740    2.6926 N   0  0  0  0  0  0  0  0  0  0  0  0
   -1.6464    0.7663    2.3621 H   0  0  0  0  0  0  0  0  0  0  0  0
   -0.4191    0.8310    4.1010 C   0  0  0  0  0  0  0  0  0  0  0  0
    0.4022    1.5452    4.1828 H   0  0  0  0  0  0  0  0  0  0  0  0
   -1.2983    1.2366    4.6035 H   0  0  0  0  0  0  0  0  0  0  0  0
   -0.1204   -0.0980    4.5907 H   0  0  0  0  0  0  0  0  0  0  0  0
  5  6  2  0  0  0  0
  5  7  1  0  0  0  0
  2  3  1  0  0  0  0
  2  4  1  0  0  0  0
  2  5  1  0  0  0  0
  1  2  1  0  0  0  0
 21 22  2  0  0  0  0
 21 23  1  0  0  0  0
 19 20  1  0  0  0  0
 17 18  2  0  0  0  0
 17 19  1  0  0  0  0
 14 15  1  0  0  0  0
 14 16  1  0  0  0  0
 14 17  1  0  0  0  0
 11 12  1  0  0  0  0
 11 13  1  0  0  0  0
 11 14  1  0  0  0  0
  9 10  1  0  0  0  0
  9 11  1  0  0  0  0
  9 21  1  0  0  0  0
  7  8  1  0  0  0  0
  7  9  1  0  0  0  0
 25 26  1  0  0  0  0
 25 27  1  0  0  0  0
 25 28  1  0  0  0  0
 23 24  1  0  0  0  0
 23 25  1  0  0  0  0
M  END
$$$$
default_name
  -OEChem-02102213163D

 28 27  0     1  0  0  0  0  0999 V2000
   -3.2133   -3.5565    1.2809 H   0  0  0  0  0  0  0  0  0  0  0  0
   -3.1873   -2.5755    0.8089 C   0  0  0  0  0  0  0  0  0  0  0  0
   -3.8793   -1.9065    1.3169 H   0  0  0  0  0  0  0  0  0  0  0  0
   -3.4623   -2.6685   -0.2401 H   0  0  0  0  0  0  0  0  0  0  0  0
   -1.7863   -2.0195    0.9119 C   0  0  0  0  0  0  0  0  0  0  0  0
   -0.9073   -2.6615    1.4699 O   0  0  0  0  0  0  0  0  0  0  0  0
   -1.5803   -0.8195    0.3749 N   0  0  0  0  0  0  0  0  0  0  0  0
   -2.3603   -0.3345   -0.0451 H   0  0  0  0  0  0  0  0  0  0  0  0
   -0.2933   -0.1205    0.3719 C   0  0  1  0  0  0  0  0  0  0  0  0
    0.4439   -0.7485   -0.1303 H   0  0  0  0  0  0  0  0  0  0  0  0
   -0.4368    1.1924   -0.4246 C   0  0  0  0  0  0  0  0  0  0  0  0
   -1.2108    1.0478   -1.1802 H   0  0  0  0  0  0  0  0  0  0  0  0
   -0.7631    1.9874    0.2475 H   0  0  0  0  0  0  0  0  0  0  0  0
    0.8584    1.6432   -1.1220 C   0  0  0  0  0  0  0  0  0  0  0  0
    1.7024    1.5409   -0.4398 H   0  0  0  0  0  0  0  0  0  0  0  0
    1.0297    1.0180   -1.9975 H   0  0  0  0  0  0  0  0  0  0  0  0
    0.7914    3.0956   -1.5831 C   0  0  0  0  0  0  0  0  0  0  0  0
   -0.2050    3.7992   -1.5389 O   0  0  0  0  0  0  0  0  0  0  0  0
    1.9360    3.5992   -2.0810 O   0  0  0  0  0  0  0  0  0  0  0  0
    1.7256    4.5002   -2.3325 H   0  0  0  0  0  0  0  0  0  0  0  0
    0.1871    0.1189    1.8122 C   0  0  0  0  0  0  0  0  0  0  0  0
    1.3541   -0.1171    2.1187 O   0  0  0  0  0  0  0  0  0  0  0  0
   -0.7126    0.5740    2.6926 N   0  0  0  0  0  0  0  0  0  0  0  0
   -1.6464    0.7663    2.3621 H   0  0  0  0  0  0  0  0  0  0  0  0
   -0.4191    0.8310    4.1010 C   0  0  0  0  0  0  0  0  0  0  0  0
    0.4022    1.5452    4.1828 H   0  0  0  0  0  0  0  0  0  0  0  0
   -1.2983    1.2366    4.6035 H   0  0  0  0  0  0  0  0  0  0  0  0
   -0.1204   -0.0980    4.5907 H   0  0  0  0  0  0  0  0  0  0  0  0
  5  6  2  0  0  0  0
  5  7  1  0  0  0  0
  2  3  1  0  0  0  0
  2  4  1  0  0  0  0
  2  5  1  0  0  0  0
  1  2  1  0  0  0  0
 21 22  2  0  0  0  0
 21 23  1  0  0  0  0
 19 20  1  0  0  0  0
 17 18  2  0  0  0  0
 17 19  1  0  0  0  0
 14 15  1  0  0  0  0
 14 16  1  0  0  0  0
 14 17  1  0  0  0  0
 11 12  1  0  0  0  0
 11 13  1  0  0  0  0
 11 14  1  0  0  0  0
  9 10  1  0  0  0  0
  9 11  1  0  0  0  0
  9 21  1  0  0  0  0
  7  8  1  0  0  0  0
  7  9  1  0  0  0  0
 25 26  1  0  0  0  0
 25 27  1  0  0  0  0
 25 28  1  0  0  0  0
 23 24  1  0  0  0  0
 23 25  1  0  0  0  0
M  END
$$$$
default_name
  -OEChem-02102213163D

 28 27  0     1  0  0  0  0  0999 V2000
   -3.2133   -3.5565    1.2809 H   0  0  0  0  0  0  0  0  0  0  0  0
   -3.1873   -2.5755    0.8089 C   0  0  0  0  0  0  0  0  0  0  0  0
   -3.8793   -1.9065    1.3169 H   0  0  0  0  0  0  0  0  0  0  0  0
   -3.4623   -2.6685   -0.2401 H   0  0  0  0  0  0  0  0  0  0  0  0
   -1.7863   -2.0195    0.9119 C   0  0  0  0  0  0  0  0  0  0  0  0
   -0.9073   -2.6615    1.4699 O   0  0  0  0  0  0  0  0  0  0  0  0
   -1.5803   -0.8195    0.3749 N   0  0  0  0  0  0  0  0  0  0  0  0
   -2.3603   -0.3345   -0.0451 H   0  0  0  0  0  0  0  0  0  0  0  0
   -0.2933   -0.1205    0.3719 C   0  0  1  0  0  0  0  0  0  0  0  0
    0.4439   -0.7485   -0.1303 H   0  0  0  0  0  0  0  0  0  0  0  0
   -0.4368    1.1924   -0.4246 C   0  0  0  0  0  0  0  0  0  0  0  0
   -1.2108    1.0478   -1.1802 H   0  0  0  0  0  0  0  0  0  0  0  0
   -0.7631    1.9874    0.2475 H   0  0  0  0  0  0  0  0  0  0  0  0
    0.8584    1.6432   -1.1220 C   0  0  0  0  0  0  0  0  0  0  0  0
    1.7240    1.3004   -0.5551 H   0  0  0  0  0  0  0  0  0  0  0  0
    0.8944    1.2135   -2.1224 H   0  0  0  0  0  0  0  0  0  0  0  0
    0.9457    3.1602   -1.2548 C   0  0  0  0  0  0  0  0  0  0  0  0
    0.0505    3.9406   -0.9732 O   0  0  0  0  0  0  0  0  0  0  0  0
    2.1110    3.6342   -1.7334 O   0  0  0  0  0  0  0  0  0  0  0  0
    2.0002    4.5860   -1.7672 H   0  0  0  0  0  0  0  0  0  0  0  0
    0.1871    0.1189    1.8122 C   0  0  0  0  0  0  0  0  0  0  0  0
    1.3541   -0.1171    2.1187 O   0  0  0  0  0  0  0  0  0  0  0  0
   -0.7126    0.5740    2.6926 N   0  0  0  0  0  0  0  0  0  0  0  0
   -1.6464    0.7663    2.3621 H   0  0  0  0  0  0  0  0  0  0  0  0
   -0.4191    0.8310    4.1010 C   0  0  0  0  0  0  0  0  0  0  0  0
    0.4022    1.5452    4.1828 H   0  0  0  0  0  0  0  0  0  0  0  0
   -1.2983    1.2366    4.6035 H   0  0  0  0  0  0  0  0  0  0  0  0
   -0.1204   -0.0980    4.5907 H   0  0  0  0  0  0  0  0  0  0  0  0
  5  6  2  0  0  0  0
  5  7  1  0  0  0  0
  2  3  1  0  0  0  0
  2  4  1  0  0  0  0
  2  5  1  0  0  0  0
  1  2  1  0  0  0  0
 21 22  2  0  0  0  0
 21 23  1  0  0  0  0
 19 20  1  0  0  0  0
 17 18  2  0  0  0  0
 17 19  1  0  0  0  0
 14 15  1  0  0  0  0
 14 16  1  0  0  0  0
 14 17  1  0  0  0  0
 11 12  1  0  0  0  0
 11 13  1  0  0  0  0
 11 14  1  0  0  0  0
  9 10  1  0  0  0  0
  9 11  1  0  0  0  0
  9 21  1  0  0  0  0
  7  8  1  0  0  0  0
  7  9  1  0  0  0  0
 25 26  1  0  0  0  0
 25 27  1  0  0  0  0
 25 28  1  0  0  0  0
 23 24  1  0  0  0  0
 23 25  1  0  0  0  0
M  END
$$$$
default_name
  -OEChem-02102213163D

 28 27  0     1  0  0  0  0  0999 V2000
   -3.2133   -3.5565    1.2809 H   0  0  0  0  0  0  0  0  0  0  0  0
   -3.1873   -2.5755    0.8089 C   0  0  0  0  0  0  0  0  0  0  0  0
   -3.8793   -1.9065    1.3169 H   0  0  0  0  0  0  0  0  0  0  0  0
   -3.4623   -2.6685   -0.2401 H   0  0  0  0  0  0  0  0  0  0  0  0
   -1.7863   -2.0195    0.9119 C   0  0  0  0  0  0  0  0  0  0  0  0
   -0.9073   -2.6615    1.4699 O   0  0  0  0  0  0  0  0  0  0  0  0
   -1.5803   -0.8195    0.3749 N   0  0  0  0  0  0  0  0  0  0  0  0
   -2.3603   -0.3345   -0.0451 H   0  0  0  0  0  0  0  0  0  0  0  0
   -0.2933   -0.1205    0.3719 C   0  0  1  0  0  0  0  0  0  0  0  0
    0.4439   -0.7485   -0.1303 H   0  0  0  0  0  0  0  0  0  0  0  0
   -0.4368    1.1924   -0.4246 C   0  0  0  0  0  0  0  0  0  0  0  0
   -1.2108    1.0478   -1.1802 H   0  0  0  0  0  0  0  0  0  0  0  0
   -0.7631    1.9874    0.2475 H   0  0  0  0  0  0  0  0  0  0  0  0
    0.8584    1.6432   -1.1220 C   0  0  0  0  0  0  0  0  0  0  0  0
    1.7080    1.0907   -0.7205 H   0  0  0  0  0  0  0  0  0  0  0  0
    0.7771    1.4455   -2.1902 H   0  0  0  0  0  0  0  0  0  0  0  0
    1.1272    3.1330   -0.9353 C   0  0  0  0  0  0  0  0  0  0  0  0
    0.3567    3.9239   -0.4153 O   0  0  0  0  0  0  0  0  0  0  0  0
    2.3105    3.5718   -1.4034 O   0  0  0  0  0  0  0  0  0  0  0  0
    2.3183    4.5135   -1.2233 H   0  0  0  0  0  0  0  0  0  0  0  0
    0.1871    0.1189    1.8122 C   0  0  0  0  0  0  0  0  0  0  0  0
    1.3541   -0.1171    2.1187 O   0  0  0  0  0  0  0  0  0  0  0  0
   -0.7126    0.5740    2.6926 N   0  0  0  0  0  0  0  0  0  0  0  0
   -1.6464    0.7663    2.3621 H   0  0  0  0  0  0  0  0  0  0  0  0
   -0.4191    0.8310    4.1010 C   0  0  0  0  0  0  0  0  0  0  0  0
    0.4022    1.5452    4.1828 H   0  0  0  0  0  0  0  0  0  0  0  0
   -1.2983    1.2366    4.6035 H   0  0  0  0  0  0  0  0  0  0  0  0
   -0.1204   -0.0980    4.5907 H   0  0  0  0  0  0  0  0  0  0  0  0
  5  6  2  0  0  0  0
  5  7  1  0  0  0  0
  2  3  1  0  0  0  0
  2  4  1  0  0  0  0
  2  5  1  0  0  0  0
  1  2  1  0  0  0  0
 21 22  2  0  0  0  0
 21 23  1  0  0  0  0
 19 20  1  0  0  0  0
 17 18  2  0  0  0  0
 17 19  1  0  0  0  0
 14 15  1  0  0  0  0
 14 16  1  0  0  0  0
 14 17  1  0  0  0  0
 11 12  1  0  0  0  0
 11 13  1  0  0  0  0
 11 14  1  0  0  0  0
  9 10  1  0  0  0  0
  9 11  1  0  0  0  0
  9 21  1  0  0  0  0
  7  8  1  0  0  0  0
  7  9  1  0  0  0  0
 25 26  1  0  0  0  0
 25 27  1  0  0  0  0
 25 28  1  0  0  0  0
 23 24  1  0  0  0  0
 23 25  1  0  0  0  0
M  END
$$$$
default_name
  -OEChem-02102213163D

 28 27  0     1  0  0  0  0  0999 V2000
   -3.2133   -3.5565    1.2809 H   0  0  0  0  0  0  0  0  0  0  0  0
   -3.1873   -2.5755    0.8089 C   0  0  0  0  0  0  0  0  0  0  0  0
   -3.8793   -1.9065    1.3169 H   0  0  0  0  0  0  0  0  0  0  0  0
   -3.4623   -2.6685   -0.2401 H   0  0  0  0  0  0  0  0  0  0  0  0
   -1.7863   -2.0195    0.9119 C   0  0  0  0  0  0  0  0  0  0  0  0
   -0.9073   -2.6615    1.4699 O   0  0  0  0  0  0  0  0  0  0  0  0
   -1.5803   -0.8195    0.3749 N   0  0  0  0  0  0  0  0  0  0  0  0
   -2.3603   -0.3345   -0.0451 H   0  0  0  0  0  0  0  0  0  0  0  0
   -0.2933   -0.1205    0.3719 C   0  0  1  0  0  0  0  0  0  0  0  0
    0.4439   -0.7485   -0.1303 H   0  0  0  0  0  0  0  0  0  0  0  0
   -0.4368    1.1924   -0.4246 C   0  0  0  0  0  0  0  0  0  0  0  0
   -1.2108    1.0478   -1.1802 H   0  0  0  0  0  0  0  0  0  0  0  0
   -0.7631    1.9874    0.2475 H   0  0  0  0  0  0  0  0  0  0  0  0
    0.8584    1.6432   -1.1220 C   0  0  0  0  0  0  0  0  0  0  0  0
    1.6553    0.9261   -0.9247 H   0  0  0  0  0  0  0  0  0  0  0  0
    0.6860    1.6980   -2.1963 H   0  0  0  0  0  0  0  0  0  0  0  0
    1.3236    3.0158   -0.6464 C   0  0  0  0  0  0  0  0  0  0  0  0
    0.6928    3.7504    0.0968 O   0  0  0  0  0  0  0  0  0  0  0  0
    2.5209    3.4161   -1.1133 O   0  0  0  0  0  0  0  0  0  0  0  0
    2.6583    4.2876   -0.7379 H   0  0  0  0  0  0  0  0  0  0  0  0
    0.1871    0.1189    1.8122 C   0  0  0  0  0  0  0  0  0  0  0  0
    1.3541   -0.1171    2.1187 O   0  0  0  0  0  0  0  0  0  0  0  0
   -0.7126    0.5740    2.6926 N   0  0  0  0  0  0  0  0  0  0  0  0
   -1.6464    0.7663    2.3621 H   0  0  0  0  0  0  0  0  0  0  0  0
   -0.4191    0.8310    4.1010 C   0  0  0  0  0  0  0  0  0  0  0  0
    0.4022    1.5452    4.1828 H   0  0  0  0  0  0  0  0  0  0  0  0
   -1.2983    1.2366    4.6035 H   0  0  0  0  0  0  0  0  0  0  0  0
   -0.1204   -0.0980    4.5907 H   0  0  0  0  0  0  0  0  0  0  0  0
  5  6  2  0  0  0  0
  5  7  1  0  0  0  0
  2  3  1  0  0  0  0
  2  4  1  0  0  0  0
  2  5  1  0  0  0  0
  1  2  1  0  0  0  0
 21 22  2  0  0  0  0
 21 23  1  0  0  0  0
 19 20  1  0  0  0  0
 17 18  2  0  0  0  0
 17 19  1  0  0  0  0
 14 15  1  0  0  0  0
 14 16  1  0  0  0  0
 14 17  1  0  0  0  0
 11 12  1  0  0  0  0
 11 13  1  0  0  0  0
 11 14  1  0  0  0  0
  9 10  1  0  0  0  0
  9 11  1  0  0  0  0
  9 21  1  0  0  0  0
  7  8  1  0  0  0  0
  7  9  1  0  0  0  0
 25 26  1  0  0  0  0
 25 27  1  0  0  0  0
 25 28  1  0  0  0  0
 23 24  1  0  0  0  0
 23 25  1  0  0  0  0
M  END
$$$$
default_name
  -OEChem-02102213163D

 28 27  0     1  0  0  0  0  0999 V2000
   -3.2133   -3.5565    1.2809 H   0  0  0  0  0  0  0  0  0  0  0  0
   -3.1873   -2.5755    0.8089 C   0  0  0  0  0  0  0  0  0  0  0  0
   -3.8793   -1.9065    1.3169 H   0  0  0  0  0  0  0  0  0  0  0  0
   -3.4623   -2.6685   -0.2401 H   0  0  0  0  0  0  0  0  0  0  0  0
   -1.7863   -2.0195    0.9119 C   0  0  0  0  0  0  0  0  0  0  0  0
   -0.9073   -2.6615    1.4699 O   0  0  0  0  0  0  0  0  0  0  0  0
   -1.5803   -0.8195    0.3749 N   0  0  0  0  0  0  0  0  0  0  0  0
   -2.3603   -0.3345   -0.0451 H   0  0  0  0  0  0  0  0  0  0  0  0
   -0.2933   -0.1205    0.3719 C   0  0  1  0  0  0  0  0  0  0  0  0
    0.4439   -0.7485   -0.1303 H   0  0  0  0  0  0  0  0  0  0  0  0
   -0.4368    1.1924   -0.4246 C   0  0  0  0  0  0  0  0  0  0  0  0
   -1.2108    1.0478   -1.1802 H   0  0  0  0  0  0  0  0  0  0  0  0
   -0.7631    1.9874    0.2475 H   0  0  0  0  0  0  0  0  0  0  0  0
    0.8584    1.6432   -1.1220 C   0  0  0  0  0  0  0  0  0  0  0  0
    1.5696    0.8178   -1.1539 H   0  0  0  0  0  0  0  0  0  0  0  0
    0.6271    1.9540   -2.1402 H   0  0  0  0  0  0  0  0  0  0  0  0
    1.5214    2.8166   -0.4078 C   0  0  0  0  0  0  0  0  0  0  0  0
    1.0359    3.4317    0.5280 O   0  0  0  0  0  0  0  0  0  0  0  0
    2.7278    3.1779   -0.8830 O   0  0  0  0  0  0  0  0  0  0  0  0
    2.9970    3.9238   -0.3440 H   0  0  0  0  0  0  0  0  0  0  0  0
    0.1871    0.1189    1.8122 C   0  0  0  0  0  0  0  0  0  0  0  0
    1.3541   -0.1171    2.1187 O   0  0  0  0  0  0  0  0  0  0  0  0
   -0.7126    0.5740    2.6926 N   0  0  0  0  0  0  0  0  0  0  0  0
   -1.6464    0.7663    2.3621 H   0  0  0  0  0  0  0  0  0  0  0  0
   -0.4191    0.8310    4.1010 C   0  0  0  0  0  0  0  0  0  0  0  0
    0.4022    1.5452    4.1828 H   0  0  0  0  0  0  0  0  0  0  0  0
   -1.2983    1.2366    4.6035 H   0  0  0  0  0  0  0  0  0  0  0  0
   -0.1204   -0.0980    4.5907 H   0  0  0  0  0  0  0  0  0  0  0  0
  5  6  2  0  0  0  0
  5  7  1  0  0  0  0
  2  3  1  0  0  0  0
  2  4  1  0  0  0  0
  2  5  1  0  0  0  0
  1  2  1  0  0  0  0
 21 22  2  0  0  0  0
 21 23  1  0  0  0  0
 19 20  1  0  0  0  0
 17 18  2  0  0  0  0
 17 19  1  0  0  0  0
 14 15  1  0  0  0  0
 14 16  1  0  0  0  0
 14 17  1  0  0  0  0
 11 12  1  0  0  0  0
 11 13  1  0  0  0  0
 11 14  1  0  0  0  0
  9 10  1  0  0  0  0
  9 11  1  0  0  0  0
  9 21  1  0  0  0  0
  7  8  1  0  0  0  0
  7  9  1  0  0  0  0
 25 26  1  0  0  0  0
 25 27  1  0  0  0  0
 25 28  1  0  0  0  0
 23 24  1  0  0  0  0
 23 25  1  0  0  0  0
M  END
$$$$
default_name
  -OEChem-02102213163D

 28 27  0     1  0  0  0  0  0999 V2000
   -3.2133   -3.5565    1.2809 H   0  0  0  0  0  0  0  0  0  0  0  0
   -3.1873   -2.5755    0.8089 C   0  0  0  0  0  0  0  0  0  0  0  0
   -3.8793   -1.9065    1.3169 H   0  0  0  0  0  0  0  0  0  0  0  0
   -3.4623   -2.6685   -0.2401 H   0  0  0  0  0  0  0  0  0  0  0  0
   -1.7863   -2.0195    0.9119 C   0  0  0  0  0  0  0  0  0  0  0  0
   -0.9073   -2.6615    1.4699 O   0  0  0  0  0  0  0  0  0  0  0  0
   -1.5803   -0.8195    0.3749 N   0  0  0  0  0  0  0  0  0  0  0  0
   -2.3603   -0.3345   -0.0451 H   0  0  0  0  0  0  0  0  0  0  0  0
   -0.2933   -0.1205    0.3719 C   0  0  1  0  0  0  0  0  0  0  0  0
    0.4439   -0.7485   -0.1303 H   0  0  0  0  0  0  0  0  0  0  0  0
   -0.4368    1.1924   -0.4246 C   0  0  0  0  0  0  0  0  0  0  0  0
   -1.2108    1.0478   -1.1802 H   0  0  0  0  0  0  0  0  0  0  0  0
   -0.7631    1.9874    0.2475 H   0  0  0  0  0  0  0  0  0  0  0  0
    0.8584    1.6432   -1.1220 C   0  0  0  0  0  0  0  0  0  0  0  0
    1.4568    0.7731   -1.3923 H   0  0  0  0  0  0  0  0  0  0  0  0
    0.6045    2.1960   -2.0257 H   0  0  0  0  0  0  0  0  0  0  0  0
    1.7072    2.5490   -0.2357 C   0  0  0  0  0  0  0  0  0  0  0  0
    1.3627    2.9897    0.8492 O   0  0  0  0  0  0  0  0  0  0  0  0
    2.9172    2.8733   -0.7281 O   0  0  0  0  0  0  0  0  0  0  0  0
    3.3114    3.4468   -0.0685 H   0  0  0  0  0  0  0  0  0  0  0  0
    0.1871    0.1189    1.8122 C   0  0  0  0  0  0  0  0  0  0  0  0
    1.3541   -0.1171    2.1187 O   0  0  0  0  0  0  0  0  0  0  0  0
   -0.7126    0.5740    2.6926 N   0  0  0  0  0  0  0  0  0  0  0  0
   -1.6464    0.7663    2.3621 H   0  0  0  0  0  0  0  0  0  0  0  0
   -0.4191    0.8310    4.1010 C   0  0  0  0  0  0  0  0  0  0  0  0
    0.4022    1.5452    4.1828 H   0  0  0  0  0  0  0  0  0  0  0  0
   -1.2983    1.2366    4.6035 H   0  0  0  0  0  0  0  0  0  0  0  0
   -0.1204   -0.0980    4.5907 H   0  0  0  0  0  0  0  0  0  0  0  0
  5  6  2  0  0  0  0
  5  7  1  0  0  0  0
  2  3  1  0  0  0  0
  2  4  1  0  0  0  0
  2  5  1  0  0  0  0
  1  2  1  0  0  0  0
 21 22  2  0  0  0  0
 21 23  1  0  0  0  0
 19 20  1  0  0  0  0
 17 18  2  0  0  0  0
 17 19  1  0  0  0  0
 14 15  1  0  0  0  0
 14 16  1  0  0  0  0
 14 17  1  0  0  0  0
 11 12  1  0  0  0  0
 11 13  1  0  0  0  0
 11 14  1  0  0  0  0
  9 10  1  0  0  0  0
  9 11  1  0  0  0  0
  9 21  1  0  0  0  0
  7  8  1  0  0  0  0
  7  9  1  0  0  0  0
 25 26  1  0  0  0  0
 25 27  1  0  0  0  0
 25 28  1  0  0  0  0
 23 24  1  0  0  0  0
 23 25  1  0  0  0  0
M  END
$$$$
default_name
  -OEChem-02102213163D

 28 27  0     1  0  0  0  0  0999 V2000
   -3.2133   -3.5565    1.2809 H   0  0  0  0  0  0  0  0  0  0  0  0
   -3.1873   -2.5755    0.8089 C   0  0  0  0  0  0  0  0  0  0  0  0
   -3.8793   -1.9065    1.3169 H   0  0  0  0  0  0  0  0  0  0  0  0
   -3.4623   -2.6685   -0.2401 H   0  0  0  0  0  0  0  0  0  0  0  0
   -1.7863   -2.0195    0.9119 C   0  0  0  0  0  0  0  0  0  0  0  0
   -0.9073   -2.6615    1.4699 O   0  0  0  0  0  0  0  0  0  0  0  0
   -1.5803   -0.8195    0.3749 N   0  0  0  0  0  0  0  0  0  0  0  0
   -2.3603   -0.3345   -0.0451 H   0  0  0  0  0  0  0  0  0  0  0  0
   -0.2933   -0.1205    0.3719 C   0  0  1  0  0  0  0  0  0  0  0  0
    0.4439   -0.7485   -0.1303 H   0  0  0  0  0  0  0  0  0  0  0  0
   -0.4368    1.1924   -0.4246 C   0  0  0  0  0  0  0  0  0  0  0  0
   -1.2108    1.0478   -1.1802 H   0  0  0  0  0  0  0  0  0  0  0  0
   -0.7631    1.9874    0.2475 H   0  0  0  0  0  0  0  0  0  0  0  0
    0.8584    1.6432   -1.1220 C   0  0  0  0  0  0  0  0  0  0  0  0
    1.3244    0.7951   -1.6238 H   0  0  0  0  0  0  0  0  0  0  0  0
    0.6197    2.4074   -1.8608 H   0  0  0  0  0  0  0  0  0  0  0  0
    1.8684    2.2312   -0.1418 C   0  0  0  0  0  0  0  0  0  0  0  0
    1.6508    2.4544    1.0383 O   0  0  0  0  0  0  0  0  0  0  0  0
    3.0762    2.5231   -0.6592 O   0  0  0  0  0  0  0  0  0  0  0  0
    3.5800    2.8891    0.0699 H   0  0  0  0  0  0  0  0  0  0  0  0
    0.1871    0.1189    1.8122 C   0  0  0  0  0  0  0  0  0  0  0  0
    1.3541   -0.1171    2.1187 O   0  0  0  0  0  0  0  0  0  0  0  0
   -0.7126    0.5740    2.6926 N   0  0  0  0  0  0  0  0  0  0  0  0
   -1.6464    0.7663    2.3621 H   0  0  0  0  0  0  0  0  0  0  0  0
   -0.4191    0.8310    4.1010 C   0  0  0  0  0  0  0  0  0  0  0  0
    0.4022    1.5452    4.1828 H   0  0  0  0  0  0  0  0  0  0  0  0
   -1.2983    1.2366    4.6035 H   0  0  0  0  0  0  0  0  0  0  0  0
   -0.1204   -0.0980    4.5907 H   0  0  0  0  0  0  0  0  0  0  0  0
  5  6  2  0  0  0  0
  5  7  1  0  0  0  0
  2  3  1  0  0  0  0
  2  4  1  0  0  0  0
  2  5  1  0  0  0  0
  1  2  1  0  0  0  0
 21 22  2  0  0  0  0
 21 23  1  0  0  0  0
 19 20  1  0  0  0  0
 17 18  2  0  0  0  0
 17 19  1  0  0  0  0
 14 15  1  0  0  0  0
 14 16  1  0  0  0  0
 14 17  1  0  0  0  0
 11 12  1  0  0  0  0
 11 13  1  0  0  0  0
 11 14  1  0  0  0  0
  9 10  1  0  0  0  0
  9 11  1  0  0  0  0
  9 21  1  0  0  0  0
  7  8  1  0  0  0  0
  7  9  1  0  0  0  0
 25 26  1  0  0  0  0
 25 27  1  0  0  0  0
 25 28  1  0  0  0  0
 23 24  1  0  0  0  0
 23 25  1  0  0  0  0
M  END
$$$$
default_name
  -OEChem-02102213163D

 28 27  0     1  0  0  0  0  0999 V2000
   -3.2133   -3.5565    1.2809 H   0  0  0  0  0  0  0  0  0  0  0  0
   -3.1873   -2.5755    0.8089 C   0  0  0  0  0  0  0  0  0  0  0  0
   -3.8793   -1.9065    1.3169 H   0  0  0  0  0  0  0  0  0  0  0  0
   -3.4623   -2.6685   -0.2401 H   0  0  0  0  0  0  0  0  0  0  0  0
   -1.7863   -2.0195    0.9119 C   0  0  0  0  0  0  0  0  0  0  0  0
   -0.9073   -2.6615    1.4699 O   0  0  0  0  0  0  0  0  0  0  0  0
   -1.5803   -0.8195    0.3749 N   0  0  0  0  0  0  0  0  0  0  0  0
   -2.3603   -0.3345   -0.0451 H   0  0  0  0  0  0  0  0  0  0  0  0
   -0.2933   -0.1205    0.3719 C   0  0  1  0  0  0  0  0  0  0  0  0
    0.4439   -0.7485   -0.1303 H   0  0  0  0  0  0  0  0  0  0  0  0
   -0.4368    1.1924   -0.4246 C   0  0  0  0  0  0  0  0  0  0  0  0
   -1.2108    1.0478   -1.1802 H   0  0  0  0  0  0  0  0  0  0  0  0
   -0.7631    1.9874    0.2475 H   0  0  0  0  0  0  0  0  0  0  0  0
    0.8584    1.6432   -1.1220 C   0  0  0  0  0  0  0  0  0  0  0  0
    1.1817    0.8824   -1.8326 H   0  0  0  0  0  0  0  0  0  0  0  0
    0.6717    2.5739   -1.6565 H   0  0  0  0  0  0  0  0  0  0  0  0
    1.9939    1.8849   -0.1327 C   0  0  0  0  0  0  0  0  0  0  0  0
    1.8807    1.8624    1.0825 O   0  0  0  0  0  0  0  0  0  0  0  0
    3.1939    2.1513   -0.6810 O   0  0  0  0  0  0  0  0  0  0  0  0
    3.7845    2.2888    0.0616 H   0  0  0  0  0  0  0  0  0  0  0  0
    0.1871    0.1189    1.8122 C   0  0  0  0  0  0  0  0  0  0  0  0
    1.3541   -0.1171    2.1187 O   0  0  0  0  0  0  0  0  0  0  0  0
   -0.7126    0.5740    2.6926 N   0  0  0  0  0  0  0  0  0  0  0  0
   -1.6464    0.7663    2.3621 H   0  0  0  0  0  0  0  0  0  0  0  0
   -0.4191    0.8310    4.1010 C   0  0  0  0  0  0  0  0  0  0  0  0
    0.4022    1.5452    4.1828 H   0  0  0  0  0  0  0  0  0  0  0  0
   -1.2983    1.2366    4.6035 H   0  0  0  0  0  0  0  0  0  0  0  0
   -0.1204   -0.0980    4.5907 H   0  0  0  0  0  0  0  0  0  0  0  0
  5  6  2  0  0  0  0
  5  7  1  0  0  0  0
  2  3  1  0  0  0  0
  2  4  1  0  0  0  0
  2  5  1  0  0  0  0
  1  2  1  0  0  0  0
 21 22  2  0  0  0  0
 21 23  1  0  0  0  0
 19 20  1  0  0  0  0
 17 18  2  0  0  0  0
 17 19  1  0  0  0  0
 14 15  1  0  0  0  0
 14 16  1  0  0  0  0
 14 17  1  0  0  0  0
 11 12  1  0  0  0  0
 11 13  1  0  0  0  0
 11 14  1  0  0  0  0
  9 10  1  0  0  0  0
  9 11  1  0  0  0  0
  9 21  1  0  0  0  0
  7  8  1  0  0  0  0
  7  9  1  0  0  0  0
 25 26  1  0  0  0  0
 25 27  1  0  0  0  0
 25 28  1  0  0  0  0
 23 24  1  0  0  0  0
 23 25  1  0  0  0  0
M  END
$$$$
default_name
  -OEChem-02102213163D

 28 27  0     1  0  0  0  0  0999 V2000
   -3.2133   -3.5565    1.2809 H   0  0  0  0  0  0  0  0  0  0  0  0
   -3.1873   -2.5755    0.8089 C   0  0  0  0  0  0  0  0  0  0  0  0
   -3.8793   -1.9065    1.3169 H   0  0  0  0  0  0  0  0  0  0  0  0
   -3.4623   -2.6685   -0.2401 H   0  0  0  0  0  0  0  0  0  0  0  0
   -1.7863   -2.0195    0.9119 C   0  0  0  0  0  0  0  0  0  0  0  0
   -0.9073   -2.6615    1.4699 O   0  0  0  0  0  0  0  0  0  0  0  0
   -1.5803   -0.8195    0.3749 N   0  0  0  0  0  0  0  0  0  0  0  0
   -2.3603   -0.3345   -0.0451 H   0  0  0  0  0  0  0  0  0  0  0  0
   -0.2933   -0.1205    0.3719 C   0  0  1  0  0  0  0  0  0  0  0  0
    0.4439   -0.7485   -0.1303 H   0  0  0  0  0  0  0  0  0  0  0  0
   -0.4368    1.1924   -0.4246 C   0  0  0  0  0  0  0  0  0  0  0  0
   -1.2108    1.0478   -1.1802 H   0  0  0  0  0  0  0  0  0  0  0  0
   -0.7631    1.9874    0.2475 H   0  0  0  0  0  0  0  0  0  0  0  0
    0.8584    1.6432   -1.1220 C   0  0  0  0  0  0  0  0  0  0  0  0
    1.0381    1.0289   -2.0044 H   0  0  0  0  0  0  0  0  0  0  0  0
    0.7570    2.6841   -1.4269 H   0  0  0  0  0  0  0  0  0  0  0  0
    2.0751    1.5336   -0.2088 C   0  0  0  0  0  0  0  0  0  0  0  0
    2.0366    1.2539    0.9787 O   0  0  0  0  0  0  0  0  0  0  0  0
    3.2622    1.7830   -0.7920 O   0  0  0  0  0  0  0  0  0  0  0  0
    3.9110    1.6867   -0.0926 H   0  0  0  0  0  0  0  0  0  0  0  0
    0.1871    0.1189    1.8122 C   0  0  0  0  0  0  0  0  0  0  0  0
    1.3541   -0.1171    2.1187 O   0  0  0  0  0  0  0  0  0  0  0  0
   -0.7126    0.5740    2.6926 N   0  0  0  0  0  0  0  0  0  0  0  0
   -1.6464    0.7663    2.3621 H   0  0  0  0  0  0  0  0  0  0  0  0
   -0.4191    0.8310    4.1010 C   0  0  0  0  0  0  0  0  0  0  0  0
    0.4022    1.5452    4.1828 H   0  0  0  0  0  0  0  0  0  0  0  0
   -1.2983    1.2366    4.6035 H   0  0  0  0  0  0  0  0  0  0  0  0
   -0.1204   -0.0980    4.5907 H   0  0  0  0  0  0  0  0  0  0  0  0
  5  6  2  0  0  0  0
  5  7  1  0  0  0  0
  2  3  1  0  0  0  0
  2  4  1  0  0  0  0
  2  5  1  0  0  0  0
  1  2  1  0  0  0  0
 21 22  2  0  0  0  0
 21 23  1  0  0  0  0
 19 20  1  0  0  0  0
 17 18  2  0  0  0  0
 17 19  1  0  0  0  0
 14 15  1  0  0  0  0
 14 16  1  0  0  0  0
 14 17  1  0  0  0  0
 11 12  1  0  0  0  0
 11 13  1  0  0  0  0
 11 14  1  0  0  0  0
  9 10  1  0  0  0  0
  9 11  1  0  0  0  0
  9 21  1  0  0  0  0
  7  8  1  0  0  0  0
  7  9  1  0  0  0  0
 25 26  1  0  0  0  0
 25 27  1  0  0  0  0
 25 28  1  0  0  0  0
 23 24  1  0  0  0  0
 23 25  1  0  0  0  0
M  END
$$$$
default_name
  -OEChem-02102213163D

 28 27  0     1  0  0  0  0  0999 V2000
   -3.2133   -3.5565    1.2809 H   0  0  0  0  0  0  0  0  0  0  0  0
   -3.1873   -2.5755    0.8089 C   0  0  0  0  0  0  0  0  0  0  0  0
   -3.8793   -1.9065    1.3169 H   0  0  0  0  0  0  0  0  0  0  0  0
   -3.4623   -2.6685   -0.2401 H   0  0  0  0  0  0  0  0  0  0  0  0
   -1.7863   -2.0195    0.9119 C   0  0  0  0  0  0  0  0  0  0  0  0
   -0.9073   -2.6615    1.4699 O   0  0  0  0  0  0  0  0  0  0  0  0
   -1.5803   -0.8195    0.3749 N   0  0  0  0  0  0  0  0  0  0  0  0
   -2.3603   -0.3345   -0.0451 H   0  0  0  0  0  0  0  0  0  0  0  0
   -0.2933   -0.1205    0.3719 C   0  0  1  0  0  0  0  0  0  0  0  0
    0.4439   -0.7485   -0.1303 H   0  0  0  0  0  0  0  0  0  0  0  0
   -0.4368    1.1924   -0.4246 C   0  0  0  0  0  0  0  0  0  0  0  0
   -1.2108    1.0478   -1.1802 H   0  0  0  0  0  0  0  0  0  0  0  0
   -0.7631    1.9874    0.2475 H   0  0  0  0  0  0  0  0  0  0  0  0
    0.8584    1.6432   -1.1220 C   0  0  0  0  0  0  0  0  0  0  0  0
    0.9037    1.2247   -2.1275 H   0  0  0  0  0  0  0  0  0  0  0  0
    0.8697    2.7306   -1.1876 H   0  0  0  0  0  0  0  0  0  0  0  0
    2.1067    1.2014   -0.3650 C   0  0  0  0  0  0  0  0  0  0  0  0
    2.1080    0.6705    0.7341 O   0  0  0  0  0  0  0  0  0  0  0  0
    3.2767    1.4434   -0.9847 O   0  0  0  0  0  0  0  0  0  0  0  0
    3.9508    1.1240   -0.3824 H   0  0  0  0  0  0  0  0  0  0  0  0
    0.1871    0.1189    1.8122 C   0  0  0  0  0  0  0  0  0  0  0  0
    1.3541   -0.1171    2.1187 O   0  0  0  0  0  0  0  0  0  0  0  0
   -0.7126    0.5740    2.6926 N   0  0  0  0  0  0  0  0  0  0  0  0
   -1.6464    0.7663    2.3621 H   0  0  0  0  0  0  0  0  0  0  0  0
   -0.4191    0.8310    4.1010 C   0  0  0  0  0  0  0  0  0  0  0  0
    0.4022    1.5452    4.1828 H   0  0  0  0  0  0  0  0  0  0  0  0
   -1.2983    1.2366    4.6035 H   0  0  0  0  0  0  0  0  0  0  0  0
   -0.1204   -0.0980    4.5907 H   0  0  0  0  0  0  0  0  0  0  0  0
  5  6  2  0  0  0  0
  5  7  1  0  0  0  0
  2  3  1  0  0  0  0
  2  4  1  0  0  0  0
  2  5  1  0  0  0  0
  1  2  1  0  0  0  0
 21 22  2  0  0  0  0
 21 23  1  0  0  0  0
 19 20  1  0  0  0  0
 17 18  2  0  0  0  0
 17 19  1  0  0  0  0
 14 15  1  0  0  0  0
 14 16  1  0  0  0  0
 14 17  1  0  0  0  0
 11 12  1  0  0  0  0
 11 13  1  0  0  0  0
 11 14  1  0  0  0  0
  9 10  1  0  0  0  0
  9 11  1  0  0  0  0
  9 21  1  0  0  0  0
  7  8  1  0  0  0  0
  7  9  1  0  0  0  0
 25 26  1  0  0  0  0
 25 27  1  0  0  0  0
 25 28  1  0  0  0  0
 23 24  1  0  0  0  0
 23 25  1  0  0  0  0
M  END
$$$$
default_name
  -OEChem-02102213163D

 28 27  0     1  0  0  0  0  0999 V2000
   -3.2133   -3.5565    1.2809 H   0  0  0  0  0  0  0  0  0  0  0  0
   -3.1873   -2.5755    0.8089 C   0  0  0  0  0  0  0  0  0  0  0  0
   -3.8793   -1.9065    1.3169 H   0  0  0  0  0  0  0  0  0  0  0  0
   -3.4623   -2.6685   -0.2401 H   0  0  0  0  0  0  0  0  0  0  0  0
   -1.7863   -2.0195    0.9119 C   0  0  0  0  0  0  0  0  0  0  0  0
   -0.9073   -2.6615    1.4699 O   0  0  0  0  0  0  0  0  0  0  0  0
   -1.5803   -0.8195    0.3749 N   0  0  0  0  0  0  0  0  0  0  0  0
   -2.3603   -0.3345   -0.0451 H   0  0  0  0  0  0  0  0  0  0  0  0
   -0.2933   -0.1205    0.3719 C   0  0  1  0  0  0  0  0  0  0  0  0
    0.4439   -0.7485   -0.1303 H   0  0  0  0  0  0  0  0  0  0  0  0
   -0.4368    1.1924   -0.4246 C   0  0  0  0  0  0  0  0  0  0  0  0
   -1.2108    1.0478   -1.1802 H   0  0  0  0  0  0  0  0  0  0  0  0
   -0.7631    1.9874    0.2475 H   0  0  0  0  0  0  0  0  0  0  0  0
    0.8584    1.6432   -1.1220 C   0  0  0  0  0  0  0  0  0  0  0  0
    0.7874    1.4565   -2.1936 H   0  0  0  0  0  0  0  0  0  0  0  0
    1.0022    2.7101   -0.9548 H   0  0  0  0  0  0  0  0  0  0  0  0
    2.0863    0.9109   -0.5906 C   0  0  0  0  0  0  0  0  0  0  0  0
    2.0899    0.1519    0.3653 O   0  0  0  0  0  0  0  0  0  0  0  0
    3.2362    1.1557   -1.2459 O   0  0  0  0  0  0  0  0  0  0  0  0
    3.9013    0.6388   -0.7879 H   0  0  0  0  0  0  0  0  0  0  0  0
    0.1871    0.1189    1.8122 C   0  0  0  0  0  0  0  0  0  0  0  0
    1.3541   -0.1171    2.1187 O   0  0  0  0  0  0  0  0  0  0  0  0
   -0.7126    0.5740    2.6926 N   0  0  0  0  0  0  0  0  0  0  0  0
   -1.6464    0.7663    2.3621 H   0  0  0  0  0  0  0  0  0  0  0  0
   -0.4191    0.8310    4.1010 C   0  0  0  0  0  0  0  0  0  0  0  0
    0.4022    1.5452    4.1828 H   0  0  0  0  0  0  0  0  0  0  0  0
   -1.2983    1.2366    4.6035 H   0  0  0  0  0  0  0  0  0  0  0  0
   -0.1204   -0.0980    4.5907 H   0  0  0  0  0  0  0  0  0  0  0  0
  5  6  2  0  0  0  0
  5  7  1  0  0  0  0
  2  3  1  0  0  0  0
  2  4  1  0  0  0  0
  2  5  1  0  0  0  0
  1  2  1  0  0  0  0
 21 22  2  0  0  0  0
 21 23  1  0  0  0  0
 19 20  1  0  0  0  0
 17 18  2  0  0  0  0
 17 19  1  0  0  0  0
 14 15  1  0  0  0  0
 14 16  1  0  0  0  0
 14 17  1  0  0  0  0
 11 12  1  0  0  0  0
 11 13  1  0  0  0  0
 11 14  1  0  0  0  0
  9 10  1  0  0  0  0
  9 11  1  0  0  0  0
  9 21  1  0  0  0  0
  7  8  1  0  0  0  0
  7  9  1  0  0  0  0
 25 26  1  0  0  0  0
 25 27  1  0  0  0  0
 25 28  1  0  0  0  0
 23 24  1  0  0  0  0
 23 25  1  0  0  0  0
M  END
$$$$
default_name
  -OEChem-02102213163D

 28 27  0     1  0  0  0  0  0999 V2000
   -3.2133   -3.5565    1.2809 H   0  0  0  0  0  0  0  0  0  0  0  0
   -3.1873   -2.5755    0.8089 C   0  0  0  0  0  0  0  0  0  0  0  0
   -3.8793   -1.9065    1.3169 H   0  0  0  0  0  0  0  0  0  0  0  0
   -3.4623   -2.6685   -0.2401 H   0  0  0  0  0  0  0  0  0  0  0  0
   -1.7863   -2.0195    0.9119 C   0  0  0  0  0  0  0  0  0  0  0  0
   -0.9073   -2.6615    1.4699 O   0  0  0  0  0  0  0  0  0  0  0  0
   -1.5803   -0.8195    0.3749 N   0  0  0  0  0  0  0  0  0  0  0  0
   -2.3603   -0.3345   -0.0451 H   0  0  0  0  0  0  0  0  0  0  0  0
   -0.2933   -0.1205    0.3719 C   0  0  1  0  0  0  0  0  0  0  0  0
    0.4439   -0.7485   -0.1303 H   0  0  0  0  0  0  0  0  0  0  0  0
   -0.4368    1.1924   -0.4246 C   0  0  0  0  0  0  0  0  0  0  0  0
   -1.2108    1.0478   -1.1802 H   0  0  0  0  0  0  0  0  0  0  0  0
   -0.7631    1.9874    0.2475 H   0  0  0  0  0  0  0  0  0  0  0  0
    0.8584    1.6432   -1.1220 C   0  0  0  0  0  0  0  0  0  0  0  0
    0.6973    1.7083   -2.1982 H   0  0  0  0  0  0  0  0  0  0  0  0
    1.1454    2.6240   -0.7445 H   0  0  0  0  0  0  0  0  0  0  0  0
    2.0154    0.6817   -0.8703 C   0  0  0  0  0  0  0  0  0  0  0  0
    1.9836   -0.2666   -0.1025 O   0  0  0  0  0  0  0  0  0  0  0  0
    3.1435    0.9395   -1.5578 O   0  0  0  0  0  0  0  0  0  0  0  0
    3.7658    0.2644   -1.2816 H   0  0  0  0  0  0  0  0  0  0  0  0
    0.1871    0.1189    1.8122 C   0  0  0  0  0  0  0  0  0  0  0  0
    1.3541   -0.1171    2.1187 O   0  0  0  0  0  0  0  0  0  0  0  0
   -0.7126    0.5740    2.6926 N   0  0  0  0  0  0  0  0  0  0  0  0
   -1.6464    0.7663    2.3621 H   0  0  0  0  0  0  0  0  0  0  0  0
   -0.4191    0.8310    4.1010 C   0  0  0  0  0  0  0  0  0  0  0  0
    0.4022    1.5452    4.1828 H   0  0  0  0  0  0  0  0  0  0  0  0
   -1.2983    1.2366    4.6035 H   0  0  0  0  0  0  0  0  0  0  0  0
   -0.1204   -0.0980    4.5907 H   0  0  0  0  0  0  0  0  0  0  0  0
  5  6  2  0  0  0  0
  5  7  1  0  0  0  0
  2  3  1  0  0  0  0
  2  4  1  0  0  0  0
  2  5  1  0  0  0  0
  1  2  1  0  0  0  0
 21 22  2  0  0  0  0
 21 23  1  0  0  0  0
 19 20  1  0  0  0  0
 17 18  2  0  0  0  0
 17 19  1  0  0  0  0
 14 15  1  0  0  0  0
 14 16  1  0  0  0  0
 14 17  1  0  0  0  0
 11 12  1  0  0  0  0
 11 13  1  0  0  0  0
 11 14  1  0  0  0  0
  9 10  1  0  0  0  0
  9 11  1  0  0  0  0
  9 21  1  0  0  0  0
  7  8  1  0  0  0  0
  7  9  1  0  0  0  0
 25 26  1  0  0  0  0
 25 27  1  0  0  0  0
 25 28  1  0  0  0  0
 23 24  1  0  0  0  0
 23 25  1  0  0  0  0
M  END
$$$$
default_name
  -OEChem-02102213163D

 28 27  0     1  0  0  0  0  0999 V2000
   -3.2133   -3.5565    1.2809 H   0  0  0  0  0  0  0  0  0  0  0  0
   -3.1873   -2.5755    0.8089 C   0  0  0  0  0  0  0  0  0  0  0  0
   -3.8793   -1.9065    1.3169 H   0  0  0  0  0  0  0  0  0  0  0  0
   -3.4623   -2.6685   -0.2401 H   0  0  0  0  0  0  0  0  0  0  0  0
   -1.7863   -2.0195    0.9119 C   0  0  0  0  0  0  0  0  0  0  0  0
   -0.9073   -2.6615    1.4699 O   0  0  0  0  0  0  0  0  0  0  0  0
   -1.5803   -0.8195    0.3749 N   0  0  0  0  0  0  0  0  0  0  0  0
   -2.3603   -0.3345   -0.0451 H   0  0  0  0  0  0  0  0  0  0  0  0
   -0.2933   -0.1205    0.3719 C   0  0  1  0  0  0  0  0  0  0  0  0
    0.4439   -0.7485   -0.1303 H   0  0  0  0  0  0  0  0  0  0  0  0
   -0.4368    1.1924   -0.4246 C   0  0  0  0  0  0  0  0  0  0  0  0
   -1.2108    1.0478   -1.1802 H   0  0  0  0  0  0  0  0  0  0  0  0
   -0.7631    1.9874    0.2475 H   0  0  0  0  0  0  0  0  0  0  0  0
    0.8584    1.6432   -1.1220 C   0  0  0  0  0  0  0  0  0  0  0  0
    0.6395    1.9632   -2.1408 H   0  0  0  0  0  0  0  0  0  0  0  0
    1.2896    2.4782   -0.5710 H   0  0  0  0  0  0  0  0  0  0  0  0
    1.8989    0.5297   -1.1851 C   0  0  0  0  0  0  0  0  0  0  0  0
    1.7964   -0.5564   -0.6376 O   0  0  0  0  0  0  0  0  0  0  0  0
    3.0050    0.8094   -1.8992 O   0  0  0  0  0  0  0  0  0  0  0  0
    3.5536    0.0262   -1.8297 H   0  0  0  0  0  0  0  0  0  0  0  0
    0.1871    0.1189    1.8122 C   0  0  0  0  0  0  0  0  0  0  0  0
    1.3541   -0.1171    2.1187 O   0  0  0  0  0  0  0  0  0  0  0  0
   -0.7126    0.5740    2.6926 N   0  0  0  0  0  0  0  0  0  0  0  0
   -1.6464    0.7663    2.3621 H   0  0  0  0  0  0  0  0  0  0  0  0
   -0.4191    0.8310    4.1010 C   0  0  0  0  0  0  0  0  0  0  0  0
    0.4022    1.5452    4.1828 H   0  0  0  0  0  0  0  0  0  0  0  0
   -1.2983    1.2366    4.6035 H   0  0  0  0  0  0  0  0  0  0  0  0
   -0.1204   -0.0980    4.5907 H   0  0  0  0  0  0  0  0  0  0  0  0
  5  6  2  0  0  0  0
  5  7  1  0  0  0  0
  2  3  1  0  0  0  0
  2  4  1  0  0  0  0
  2  5  1  0  0  0  0
  1  2  1  0  0  0  0
 21 22  2  0  0  0  0
 21 23  1  0  0  0  0
 19 20  1  0  0  0  0
 17 18  2  0  0  0  0
 17 19  1  0  0  0  0
 14 15  1  0  0  0  0
 14 16  1  0  0  0  0
 14 17  1  0  0  0  0
 11 12  1  0  0  0  0
 11 13  1  0  0  0  0
 11 14  1  0  0  0  0
  9 10  1  0  0  0  0
  9 11  1  0  0  0  0
  9 21  1  0  0  0  0
  7  8  1  0  0  0  0
  7  9  1  0  0  0  0
 25 26  1  0  0  0  0
 25 27  1  0  0  0  0
 25 28  1  0  0  0  0
 23 24  1  0  0  0  0
 23 25  1  0  0  0  0
M  END
$$$$
default_name
  -OEChem-02102213163D

 28 27  0     1  0  0  0  0  0999 V2000
   -3.2133   -3.5565    1.2809 H   0  0  0  0  0  0  0  0  0  0  0  0
   -3.1873   -2.5755    0.8089 C   0  0  0  0  0  0  0  0  0  0  0  0
   -3.8793   -1.9065    1.3169 H   0  0  0  0  0  0  0  0  0  0  0  0
   -3.4623   -2.6685   -0.2401 H   0  0  0  0  0  0  0  0  0  0  0  0
   -1.7863   -2.0195    0.9119 C   0  0  0  0  0  0  0  0  0  0  0  0
   -0.9073   -2.6615    1.4699 O   0  0  0  0  0  0  0  0  0  0  0  0
   -1.5803   -0.8195    0.3749 N   0  0  0  0  0  0  0  0  0  0  0  0
   -2.3603   -0.3345   -0.0451 H   0  0  0  0  0  0  0  0  0  0  0  0
   -0.2933   -0.1205    0.3719 C   0  0  1  0  0  0  0  0  0  0  0  0
    0.4439   -0.7485   -0.1303 H   0  0  0  0  0  0  0  0  0  0  0  0
   -0.4368    1.1924   -0.4246 C   0  0  0  0  0  0  0  0  0  0  0  0
   -1.2108    1.0478   -1.1802 H   0  0  0  0  0  0  0  0  0  0  0  0
   -0.7631    1.9874    0.2475 H   0  0  0  0  0  0  0  0  0  0  0  0
    0.8584    1.6432   -1.1220 C   0  0  0  0  0  0  0  0  0  0  0  0
    0.6179    2.2037   -2.0255 H   0  0  0  0  0  0  0  0  0  0  0  0
    1.4249    2.2827   -0.4461 H   0  0  0  0  0  0  0  0  0  0  0  0
    1.7446    0.4651   -1.5134 C   0  0  0  0  0  0  0  0  0  0  0  0
    1.5410   -0.6978   -1.2033 O   0  0  0  0  0  0  0  0  0  0  0  0
    2.8300    0.7745   -2.2467 O   0  0  0  0  0  0  0  0  0  0  0  0
    3.2790   -0.0596   -2.3950 H   0  0  0  0  0  0  0  0  0  0  0  0
    0.1871    0.1189    1.8122 C   0  0  0  0  0  0  0  0  0  0  0  0
    1.3541   -0.1171    2.1187 O   0  0  0  0  0  0  0  0  0  0  0  0
   -0.7126    0.5740    2.6926 N   0  0  0  0  0  0  0  0  0  0  0  0
   -1.6464    0.7663    2.3621 H   0  0  0  0  0  0  0  0  0  0  0  0
   -0.4191    0.8310    4.1010 C   0  0  0  0  0  0  0  0  0  0  0  0
    0.4022    1.5452    4.1828 H   0  0  0  0  0  0  0  0  0  0  0  0
   -1.2983    1.2366    4.6035 H   0  0  0  0  0  0  0  0  0  0  0  0
   -0.1204   -0.0980    4.5907 H   0  0  0  0  0  0  0  0  0  0  0  0
  5  6  2  0  0  0  0
  5  7  1  0  0  0  0
  2  3  1  0  0  0  0
  2  4  1  0  0  0  0
  2  5  1  0  0  0  0
  1  2  1  0  0  0  0
 21 22  2  0  0  0  0
 21 23  1  0  0  0  0
 19 20  1  0  0  0  0
 17 18  2  0  0  0  0
 17 19  1  0  0  0  0
 14 15  1  0  0  0  0
 14 16  1  0  0  0  0
 14 17  1  0  0  0  0
 11 12  1  0  0  0  0
 11 13  1  0  0  0  0
 11 14  1  0  0  0  0
  9 10  1  0  0  0  0
  9 11  1  0  0  0  0
  9 21  1  0  0  0  0
  7  8  1  0  0  0  0
  7  9  1  0  0  0  0
 25 26  1  0  0  0  0
 25 27  1  0  0  0  0
 25 28  1  0  0  0  0
 23 24  1  0  0  0  0
 23 25  1  0  0  0  0
M  END
$$$$
default_name
  -OEChem-02102213163D

 28 27  0     1  0  0  0  0  0999 V2000
   -3.2133   -3.5565    1.2809 H   0  0  0  0  0  0  0  0  0  0  0  0
   -3.1873   -2.5755    0.8089 C   0  0  0  0  0  0  0  0  0  0  0  0
   -3.8793   -1.9065    1.3169 H   0  0  0  0  0  0  0  0  0  0  0  0
   -3.4623   -2.6685   -0.2401 H   0  0  0  0  0  0  0  0  0  0  0  0
   -1.7863   -2.0195    0.9119 C   0  0  0  0  0  0  0  0  0  0  0  0
   -0.9073   -2.6615    1.4699 O   0  0  0  0  0  0  0  0  0  0  0  0
   -1.5803   -0.8195    0.3749 N   0  0  0  0  0  0  0  0  0  0  0  0
   -2.3603   -0.3345   -0.0451 H   0  0  0  0  0  0  0  0  0  0  0  0
   -0.2933   -0.1205    0.3719 C   0  0  1  0  0  0  0  0  0  0  0  0
    0.4439   -0.7485   -0.1303 H   0  0  0  0  0  0  0  0  0  0  0  0
   -0.4368    1.1924   -0.4246 C   0  0  0  0  0  0  0  0  0  0  0  0
   -1.2108    1.0478   -1.1802 H   0  0  0  0  0  0  0  0  0  0  0  0
   -0.7631    1.9874    0.2475 H   0  0  0  0  0  0  0  0  0  0  0  0
    0.8584    1.6432   -1.1220 C   0  0  0  0  0  0  0  0  0  0  0  0
    0.6340    2.4133   -1.8601 H   0  0  0  0  0  0  0  0  0  0  0  0
    1.5421    2.0507   -0.3783 H   0  0  0  0  0  0  0  0  0  0  0  0
    1.5631    0.4923   -1.8329 C   0  0  0  0  0  0  0  0  0  0  0  0
    1.2348   -0.6811   -1.7612 O   0  0  0  0  0  0  0  0  0  0  0  0
    2.6305    0.8369   -2.5768 O   0  0  0  0  0  0  0  0  0  0  0  0
    2.9609    0.0129   -2.9389 H   0  0  0  0  0  0  0  0  0  0  0  0
    0.1871    0.1189    1.8122 C   0  0  0  0  0  0  0  0  0  0  0  0
    1.3541   -0.1171    2.1187 O   0  0  0  0  0  0  0  0  0  0  0  0
   -0.7126    0.5740    2.6926 N   0  0  0  0  0  0  0  0  0  0  0  0
   -1.6464    0.7663    2.3621 H   0  0  0  0  0  0  0  0  0  0  0  0
   -0.4191    0.8310    4.1010 C   0  0  0  0  0  0  0  0  0  0  0  0
    0.4022    1.5452    4.1828 H   0  0  0  0  0  0  0  0  0  0  0  0
   -1.2983    1.2366    4.6035 H   0  0  0  0  0  0  0  0  0  0  0  0
   -0.1204   -0.0980    4.5907 H   0  0  0  0  0  0  0  0  0  0  0  0
  5  6  2  0  0  0  0
  5  7  1  0  0  0  0
  2  3  1  0  0  0  0
  2  4  1  0  0  0  0
  2  5  1  0  0  0  0
  1  2  1  0  0  0  0
 21 22  2  0  0  0  0
 21 23  1  0  0  0  0
 19 20  1  0  0  0  0
 17 18  2  0  0  0  0
 17 19  1  0  0  0  0
 14 15  1  0  0  0  0
 14 16  1  0  0  0  0
 14 17  1  0  0  0  0
 11 12  1  0  0  0  0
 11 13  1  0  0  0  0
 11 14  1  0  0  0  0
  9 10  1  0  0  0  0
  9 11  1  0  0  0  0
  9 21  1  0  0  0  0
  7  8  1  0  0  0  0
  7  9  1  0  0  0  0
 25 26  1  0  0  0  0
 25 27  1  0  0  0  0
 25 28  1  0  0  0  0
 23 24  1  0  0  0  0
 23 25  1  0  0  0  0
M  END
$$$$
default_name
  -OEChem-02102213163D

 28 27  0     1  0  0  0  0  0999 V2000
   -3.2133   -3.5565    1.2809 H   0  0  0  0  0  0  0  0  0  0  0  0
   -3.1873   -2.5755    0.8089 C   0  0  0  0  0  0  0  0  0  0  0  0
   -3.8793   -1.9065    1.3169 H   0  0  0  0  0  0  0  0  0  0  0  0
   -3.4623   -2.6685   -0.2401 H   0  0  0  0  0  0  0  0  0  0  0  0
   -1.7863   -2.0195    0.9119 C   0  0  0  0  0  0  0  0  0  0  0  0
   -0.9073   -2.6615    1.4699 O   0  0  0  0  0  0  0  0  0  0  0  0
   -1.5803   -0.8195    0.3749 N   0  0  0  0  0  0  0  0  0  0  0  0
   -2.3603   -0.3345   -0.0451 H   0  0  0  0  0  0  0  0  0  0  0  0
   -0.2933   -0.1205    0.3719 C   0  0  1  0  0  0  0  0  0  0  0  0
    0.4439   -0.7485   -0.1303 H   0  0  0  0  0  0  0  0  0  0  0  0
   -0.4368    1.1924   -0.4246 C   0  0  0  0  0  0  0  0  0  0  0  0
   -1.2108    1.0478   -1.1802 H   0  0  0  0  0  0  0  0  0  0  0  0
   -0.7631    1.9874    0.2475 H   0  0  0  0  0  0  0  0  0  0  0  0
    0.8584    1.6432   -1.1220 C   0  0  0  0  0  0  0  0  0  0  0  0
    0.6866    2.5780   -1.6559 H   0  0  0  0  0  0  0  0  0  0  0  0
    1.6333    1.7981   -0.3722 H   0  0  0  0  0  0  0  0  0  0  0  0
    1.3667    0.6095   -2.1218 C   0  0  0  0  0  0  0  0  0  0  0  0
    0.8986   -0.5075   -2.2733 O   0  0  0  0  0  0  0  0  0  0  0  0
    2.4202    0.9926   -2.8669 O   0  0  0  0  0  0  0  0  0  0  0  0
    2.6209    0.2388   -3.4243 H   0  0  0  0  0  0  0  0  0  0  0  0
    0.1871    0.1189    1.8122 C   0  0  0  0  0  0  0  0  0  0  0  0
    1.3541   -0.1171    2.1187 O   0  0  0  0  0  0  0  0  0  0  0  0
   -0.7126    0.5740    2.6926 N   0  0  0  0  0  0  0  0  0  0  0  0
   -1.6464    0.7663    2.3621 H   0  0  0  0  0  0  0  0  0  0  0  0
   -0.4191    0.8310    4.1010 C   0  0  0  0  0  0  0  0  0  0  0  0
    0.4022    1.5452    4.1828 H   0  0  0  0  0  0  0  0  0  0  0  0
   -1.2983    1.2366    4.6035 H   0  0  0  0  0  0  0  0  0  0  0  0
   -0.1204   -0.0980    4.5907 H   0  0  0  0  0  0  0  0  0  0  0  0
  5  6  2  0  0  0  0
  5  7  1  0  0  0  0
  2  3  1  0  0  0  0
  2  4  1  0  0  0  0
  2  5  1  0  0  0  0
  1  2  1  0  0  0  0
 21 22  2  0  0  0  0
 21 23  1  0  0  0  0
 19 20  1  0  0  0  0
 17 18  2  0  0  0  0
 17 19  1  0  0  0  0
 14 15  1  0  0  0  0
 14 16  1  0  0  0  0
 14 17  1  0  0  0  0
 11 12  1  0  0  0  0
 11 13  1  0  0  0  0
 11 14  1  0  0  0  0
  9 10  1  0  0  0  0
  9 11  1  0  0  0  0
  9 21  1  0  0  0  0
  7  8  1  0  0  0  0
  7  9  1  0  0  0  0
 25 26  1  0  0  0  0
 25 27  1  0  0  0  0
 25 28  1  0  0  0  0
 23 24  1  0  0  0  0
 23 25  1  0  0  0  0
M  END
$$$$
default_name
  -OEChem-02102213163D

 28 27  0     1  0  0  0  0  0999 V2000
   -3.2133   -3.5565    1.2809 H   0  0  0  0  0  0  0  0  0  0  0  0
   -3.1873   -2.5755    0.8089 C   0  0  0  0  0  0  0  0  0  0  0  0
   -3.8793   -1.9065    1.3169 H   0  0  0  0  0  0  0  0  0  0  0  0
   -3.4623   -2.6685   -0.2401 H   0  0  0  0  0  0  0  0  0  0  0  0
   -1.7863   -2.0195    0.9119 C   0  0  0  0  0  0  0  0  0  0  0  0
   -0.9073   -2.6615    1.4699 O   0  0  0  0  0  0  0  0  0  0  0  0
   -1.5803   -0.8195    0.3749 N   0  0  0  0  0  0  0  0  0  0  0  0
   -2.3603   -0.3345   -0.0451 H   0  0  0  0  0  0  0  0  0  0  0  0
   -0.2933   -0.1205    0.3719 C   0  0  1  0  0  0  0  0  0  0  0  0
    0.4439   -0.7485   -0.1303 H   0  0  0  0  0  0  0  0  0  0  0  0
   -0.4368    1.1924   -0.4246 C   0  0  0  0  0  0  0  0  0  0  0  0
   -1.2108    1.0478   -1.1802 H   0  0  0  0  0  0  0  0  0  0  0  0
   -0.7631    1.9874    0.2475 H   0  0  0  0  0  0  0  0  0  0  0  0
    0.8584    1.6432   -1.1220 C   0  0  0  0  0  0  0  0  0  0  0  0
    0.7723    2.6863   -1.4268 H   0  0  0  0  0  0  0  0  0  0  0  0
    1.6922    1.5421   -0.4283 H   0  0  0  0  0  0  0  0  0  0  0  0
    1.1689    0.8087   -2.3604 C   0  0  0  0  0  0  0  0  0  0  0  0
    0.5555   -0.1889   -2.7046 O   0  0  0  0  0  0  0  0  0  0  0  0
    2.2132    1.2308   -3.0972 O   0  0  0  0  0  0  0  0  0  0  0  0
    2.2822    0.6026   -3.8182 H   0  0  0  0  0  0  0  0  0  0  0  0
    0.1871    0.1189    1.8122 C   0  0  0  0  0  0  0  0  0  0  0  0
    1.3541   -0.1171    2.1187 O   0  0  0  0  0  0  0  0  0  0  0  0
   -0.7126    0.5740    2.6926 N   0  0  0  0  0  0  0  0  0  0  0  0
   -1.6464    0.7663    2.3621 H   0  0  0  0  0  0  0  0  0  0  0  0
   -0.4191    0.8310    4.1010 C   0  0  0  0  0  0  0  0  0  0  0  0
    0.4022    1.5452    4.1828 H   0  0  0  0  0  0  0  0  0  0  0  0
   -1.2983    1.2366    4.6035 H   0  0  0  0  0  0  0  0  0  0  0  0
   -0.1204   -0.0980    4.5907 H   0  0  0  0  0  0  0  0  0  0  0  0
  5  6  2  0  0  0  0
  5  7  1  0  0  0  0
  2  3  1  0  0  0  0
  2  4  1  0  0  0  0
  2  5  1  0  0  0  0
  1  2  1  0  0  0  0
 21 22  2  0  0  0  0
 21 23  1  0  0  0  0
 19 20  1  0  0  0  0
 17 18  2  0  0  0  0
 17 19  1  0  0  0  0
 14 15  1  0  0  0  0
 14 16  1  0  0  0  0
 14 17  1  0  0  0  0
 11 12  1  0  0  0  0
 11 13  1  0  0  0  0
 11 14  1  0  0  0  0
  9 10  1  0  0  0  0
  9 11  1  0  0  0  0
  9 21  1  0  0  0  0
  7  8  1  0  0  0  0
  7  9  1  0  0  0  0
 25 26  1  0  0  0  0
 25 27  1  0  0  0  0
 25 28  1  0  0  0  0
 23 24  1  0  0  0  0
 23 25  1  0  0  0  0
M  END
$$$$
default_name
  -OEChem-02102213163D

 28 27  0     1  0  0  0  0  0999 V2000
   -3.2133   -3.5565    1.2809 H   0  0  0  0  0  0  0  0  0  0  0  0
   -3.1873   -2.5755    0.8089 C   0  0  0  0  0  0  0  0  0  0  0  0
   -3.8793   -1.9065    1.3169 H   0  0  0  0  0  0  0  0  0  0  0  0
   -3.4623   -2.6685   -0.2401 H   0  0  0  0  0  0  0  0  0  0  0  0
   -1.7863   -2.0195    0.9119 C   0  0  0  0  0  0  0  0  0  0  0  0
   -0.9073   -2.6615    1.4699 O   0  0  0  0  0  0  0  0  0  0  0  0
   -1.5803   -0.8195    0.3749 N   0  0  0  0  0  0  0  0  0  0  0  0
   -2.3603   -0.3345   -0.0451 H   0  0  0  0  0  0  0  0  0  0  0  0
   -0.2933   -0.1205    0.3719 C   0  0  1  0  0  0  0  0  0  0  0  0
    0.4439   -0.7485   -0.1303 H   0  0  0  0  0  0  0  0  0  0  0  0
   -0.4368    1.1924   -0.4246 C   0  0  0  0  0  0  0  0  0  0  0  0
   -1.2108    1.0478   -1.1802 H   0  0  0  0  0  0  0  0  0  0  0  0
   -0.7631    1.9874    0.2475 H   0  0  0  0  0  0  0  0  0  0  0  0
    0.8584    1.6432   -1.1220 C   0  0  0  0  0  0  0  0  0  0  0  0
    0.8851    2.7310   -1.1883 H   0  0  0  0  0  0  0  0  0  0  0  0
    1.7148    1.3002   -0.5427 H   0  0  0  0  0  0  0  0  0  0  0  0
    0.9830    1.0763   -2.5325 C   0  0  0  0  0  0  0  0  0  0  0  0
    0.2287    0.2532   -3.0257 O   0  0  0  0  0  0  0  0  0  0  0  0
    2.0238    1.5354   -3.2521 O   0  0  0  0  0  0  0  0  0  0  0  0
    1.9678    1.0796   -4.0937 H   0  0  0  0  0  0  0  0  0  0  0  0
    0.1871    0.1189    1.8122 C   0  0  0  0  0  0  0  0  0  0  0  0
    1.3541   -0.1171    2.1187 O   0  0  0  0  0  0  0  0  0  0  0  0
   -0.7126    0.5740    2.6926 N   0  0  0  0  0  0  0  0  0  0  0  0
   -1.6464    0.7663    2.3621 H   0  0  0  0  0  0  0  0  0  0  0  0
   -0.4191    0.8310    4.1010 C   0  0  0  0  0  0  0  0  0  0  0  0
    0.4022    1.5452    4.1828 H   0  0  0  0  0  0  0  0  0  0  0  0
   -1.2983    1.2366    4.6035 H   0  0  0  0  0  0  0  0  0  0  0  0
   -0.1204   -0.0980    4.5907 H   0  0  0  0  0  0  0  0  0  0  0  0
  5  6  2  0  0  0  0
  5  7  1  0  0  0  0
  2  3  1  0  0  0  0
  2  4  1  0  0  0  0
  2  5  1  0  0  0  0
  1  2  1  0  0  0  0
 21 22  2  0  0  0  0
 21 23  1  0  0  0  0
 19 20  1  0  0  0  0
 17 18  2  0  0  0  0
 17 19  1  0  0  0  0
 14 15  1  0  0  0  0
 14 16  1  0  0  0  0
 14 17  1  0  0  0  0
 11 12  1  0  0  0  0
 11 13  1  0  0  0  0
 11 14  1  0  0  0  0
  9 10  1  0  0  0  0
  9 11  1  0  0  0  0
  9 21  1  0  0  0  0
  7  8  1  0  0  0  0
  7  9  1  0  0  0  0
 25 26  1  0  0  0  0
 25 27  1  0  0  0  0
 25 28  1  0  0  0  0
 23 24  1  0  0  0  0
 23 25  1  0  0  0  0
M  END
$$$$
default_name
  -OEChem-02102213163D

 28 27  0     1  0  0  0  0  0999 V2000
   -3.2133   -3.5565    1.2809 H   0  0  0  0  0  0  0  0  0  0  0  0
   -3.1873   -2.5755    0.8089 C   0  0  0  0  0  0  0  0  0  0  0  0
   -3.8793   -1.9065    1.3169 H   0  0  0  0  0  0  0  0  0  0  0  0
   -3.4623   -2.6685   -0.2401 H   0  0  0  0  0  0  0  0  0  0  0  0
   -1.7863   -2.0195    0.9119 C   0  0  0  0  0  0  0  0  0  0  0  0
   -0.9073   -2.6615    1.4699 O   0  0  0  0  0  0  0  0  0  0  0  0
   -1.5803   -0.8195    0.3749 N   0  0  0  0  0  0  0  0  0  0  0  0
   -2.3603   -0.3345   -0.0451 H   0  0  0  0  0  0  0  0  0  0  0  0
   -0.2933   -0.1205    0.3719 C   0  0  1  0  0  0  0  0  0  0  0  0
    0.4439   -0.7485   -0.1303 H   0  0  0  0  0  0  0  0  0  0  0  0
   -0.4368    1.1924   -0.4246 C   0  0  0  0  0  0  0  0  0  0  0  0
   -1.2108    1.0478   -1.1802 H   0  0  0  0  0  0  0  0  0  0  0  0
   -0.7631    1.9874    0.2475 H   0  0  0  0  0  0  0  0  0  0  0  0
    0.8584    1.6432   -1.1220 C   0  0  0  0  0  0  0  0  0  0  0  0
    1.0175    2.7089   -0.9568 H   0  0  0  0  0  0  0  0  0  0  0  0
    1.6996    1.0888   -0.7077 H   0  0  0  0  0  0  0  0  0  0  0  0
    0.8219    1.3941   -2.6264 C   0  0  0  0  0  0  0  0  0  0  0  0
   -0.0594    0.7884   -3.2148 O   0  0  0  0  0  0  0  0  0  0  0  0
    1.8648    1.8856   -3.3209 O   0  0  0  0  0  0  0  0  0  0  0  0
    1.6992    1.6373   -4.2321 H   0  0  0  0  0  0  0  0  0  0  0  0
    0.1871    0.1189    1.8122 C   0  0  0  0  0  0  0  0  0  0  0  0
    1.3541   -0.1171    2.1187 O   0  0  0  0  0  0  0  0  0  0  0  0
   -0.7126    0.5740    2.6926 N   0  0  0  0  0  0  0  0  0  0  0  0
   -1.6464    0.7663    2.3621 H   0  0  0  0  0  0  0  0  0  0  0  0
   -0.4191    0.8310    4.1010 C   0  0  0  0  0  0  0  0  0  0  0  0
    0.4022    1.5452    4.1828 H   0  0  0  0  0  0  0  0  0  0  0  0
   -1.2983    1.2366    4.6035 H   0  0  0  0  0  0  0  0  0  0  0  0
   -0.1204   -0.0980    4.5907 H   0  0  0  0  0  0  0  0  0  0  0  0
  5  6  2  0  0  0  0
  5  7  1  0  0  0  0
  2  3  1  0  0  0  0
  2  4  1  0  0  0  0
  2  5  1  0  0  0  0
  1  2  1  0  0  0  0
 21 22  2  0  0  0  0
 21 23  1  0  0  0  0
 19 20  1  0  0  0  0
 17 18  2  0  0  0  0
 17 19  1  0  0  0  0
 14 15  1  0  0  0  0
 14 16  1  0  0  0  0
 14 17  1  0  0  0  0
 11 12  1  0  0  0  0
 11 13  1  0  0  0  0
 11 14  1  0  0  0  0
  9 10  1  0  0  0  0
  9 11  1  0  0  0  0
  9 21  1  0  0  0  0
  7  8  1  0  0  0  0
  7  9  1  0  0  0  0
 25 26  1  0  0  0  0
 25 27  1  0  0  0  0
 25 28  1  0  0  0  0
 23 24  1  0  0  0  0
 23 25  1  0  0  0  0
M  END
$$$$
default_name
  -OEChem-02102213163D

 28 27  0     1  0  0  0  0  0999 V2000
   -3.2133   -3.5565    1.2809 H   0  0  0  0  0  0  0  0  0  0  0  0
   -3.1873   -2.5755    0.8089 C   0  0  0  0  0  0  0  0  0  0  0  0
   -3.8793   -1.9065    1.3169 H   0  0  0  0  0  0  0  0  0  0  0  0
   -3.4623   -2.6685   -0.2401 H   0  0  0  0  0  0  0  0  0  0  0  0
   -1.7863   -2.0195    0.9119 C   0  0  0  0  0  0  0  0  0  0  0  0
   -0.9073   -2.6615    1.4699 O   0  0  0  0  0  0  0  0  0  0  0  0
   -1.5803   -0.8195    0.3749 N   0  0  0  0  0  0  0  0  0  0  0  0
   -2.3603   -0.3345   -0.0451 H   0  0  0  0  0  0  0  0  0  0  0  0
   -0.2933   -0.1205    0.3719 C   0  0  1  0  0  0  0  0  0  0  0  0
    0.4439   -0.7485   -0.1303 H   0  0  0  0  0  0  0  0  0  0  0  0
   -0.4368    1.1924   -0.4246 C   0  0  0  0  0  0  0  0  0  0  0  0
   -1.2108    1.0478   -1.1802 H   0  0  0  0  0  0  0  0  0  0  0  0
   -0.7631    1.9874    0.2475 H   0  0  0  0  0  0  0  0  0  0  0  0
    0.8584    1.6432   -1.1220 C   0  0  0  0  0  0  0  0  0  0  0  0
    1.1603    2.6217   -0.7481 H   0  0  0  0  0  0  0  0  0  0  0  0
    1.6476    0.9223   -0.9119 H   0  0  0  0  0  0  0  0  0  0  0  0
    0.6964    1.7404   -2.6356 C   0  0  0  0  0  0  0  0  0  0  0  0
   -0.2893    1.3805   -3.2590 O   0  0  0  0  0  0  0  0  0  0  0  0
    1.7472    2.2574   -3.2991 O   0  0  0  0  0  0  0  0  0  0  0  0
    1.4947    2.2376   -4.2239 H   0  0  0  0  0  0  0  0  0  0  0  0
    0.1871    0.1189    1.8122 C   0  0  0  0  0  0  0  0  0  0  0  0
    1.3541   -0.1171    2.1187 O   0  0  0  0  0  0  0  0  0  0  0  0
   -0.7126    0.5740    2.6926 N   0  0  0  0  0  0  0  0  0  0  0  0
   -1.6464    0.7663    2.3621 H   0  0  0  0  0  0  0  0  0  0  0  0
   -0.4191    0.8310    4.1010 C   0  0  0  0  0  0  0  0  0  0  0  0
    0.4022    1.5452    4.1828 H   0  0  0  0  0  0  0  0  0  0  0  0
   -1.2983    1.2366    4.6035 H   0  0  0  0  0  0  0  0  0  0  0  0
   -0.1204   -0.0980    4.5907 H   0  0  0  0  0  0  0  0  0  0  0  0
  5  6  2  0  0  0  0
  5  7  1  0  0  0  0
  2  3  1  0  0  0  0
  2  4  1  0  0  0  0
  2  5  1  0  0  0  0
  1  2  1  0  0  0  0
 21 22  2  0  0  0  0
 21 23  1  0  0  0  0
 19 20  1  0  0  0  0
 17 18  2  0  0  0  0
 17 19  1  0  0  0  0
 14 15  1  0  0  0  0
 14 16  1  0  0  0  0
 14 17  1  0  0  0  0
 11 12  1  0  0  0  0
 11 13  1  0  0  0  0
 11 14  1  0  0  0  0
  9 10  1  0  0  0  0
  9 11  1  0  0  0  0
  9 21  1  0  0  0  0
  7  8  1  0  0  0  0
  7  9  1  0  0  0  0
 25 26  1  0  0  0  0
 25 27  1  0  0  0  0
 25 28  1  0  0  0  0
 23 24  1  0  0  0  0
 23 25  1  0  0  0  0
M  END
$$$$
default_name
  -OEChem-02102213163D

 28 27  0     1  0  0  0  0  0999 V2000
   -3.2133   -3.5565    1.2809 H   0  0  0  0  0  0  0  0  0  0  0  0
   -3.1873   -2.5755    0.8089 C   0  0  0  0  0  0  0  0  0  0  0  0
   -3.8793   -1.9065    1.3169 H   0  0  0  0  0  0  0  0  0  0  0  0
   -3.4623   -2.6685   -0.2401 H   0  0  0  0  0  0  0  0  0  0  0  0
   -1.7863   -2.0195    0.9119 C   0  0  0  0  0  0  0  0  0  0  0  0
   -0.9073   -2.6615    1.4699 O   0  0  0  0  0  0  0  0  0  0  0  0
   -1.5803   -0.8195    0.3749 N   0  0  0  0  0  0  0  0  0  0  0  0
   -2.3603   -0.3345   -0.0451 H   0  0  0  0  0  0  0  0  0  0  0  0
   -0.2933   -0.1205    0.3719 C   0  0  1  0  0  0  0  0  0  0  0  0
    0.4439   -0.7485   -0.1303 H   0  0  0  0  0  0  0  0  0  0  0  0
   -0.4368    1.1924   -0.4246 C   0  0  0  0  0  0  0  0  0  0  0  0
   -1.2108    1.0478   -1.1802 H   0  0  0  0  0  0  0  0  0  0  0  0
   -0.7631    1.9874    0.2475 H   0  0  0  0  0  0  0  0  0  0  0  0
    0.8584    1.6432   -1.1220 C   0  0  0  0  0  0  0  0  0  0  0  0
    1.3038    2.4751   -0.5763 H   0  0  0  0  0  0  0  0  0  0  0  0
    1.5623    0.8120   -1.1415 H   0  0  0  0  0  0  0  0  0  0  0  0
    0.6152    2.0917   -2.5595 C   0  0  0  0  0  0  0  0  0  0  0  0
   -0.4452    1.9889   -3.1552 O   0  0  0  0  0  0  0  0  0  0  0  0
    1.6788    2.6257   -3.1881 O   0  0  0  0  0  0  0  0  0  0  0  0
    1.3682    2.8397   -4.0696 H   0  0  0  0  0  0  0  0  0  0  0  0
    0.1871    0.1189    1.8122 C   0  0  0  0  0  0  0  0  0  0  0  0
    1.3541   -0.1171    2.1187 O   0  0  0  0  0  0  0  0  0  0  0  0
   -0.7126    0.5740    2.6926 N   0  0  0  0  0  0  0  0  0  0  0  0
   -1.6464    0.7663    2.3621 H   0  0  0  0  0  0  0  0  0  0  0  0
   -0.4191    0.8310    4.1010 C   0  0  0  0  0  0  0  0  0  0  0  0
    0.4022    1.5452    4.1828 H   0  0  0  0  0  0  0  0  0  0  0  0
   -1.2983    1.2366    4.6035 H   0  0  0  0  0  0  0  0  0  0  0  0
   -0.1204   -0.0980    4.5907 H   0  0  0  0  0  0  0  0  0  0  0  0
  5  6  2  0  0  0  0
  5  7  1  0  0  0  0
  2  3  1  0  0  0  0
  2  4  1  0  0  0  0
  2  5  1  0  0  0  0
  1  2  1  0  0  0  0
 21 22  2  0  0  0  0
 21 23  1  0  0  0  0
 19 20  1  0  0  0  0
 17 18  2  0  0  0  0
 17 19  1  0  0  0  0
 14 15  1  0  0  0  0
 14 16  1  0  0  0  0
 14 17  1  0  0  0  0
 11 12  1  0  0  0  0
 11 13  1  0  0  0  0
 11 14  1  0  0  0  0
  9 10  1  0  0  0  0
  9 11  1  0  0  0  0
  9 21  1  0  0  0  0
  7  8  1  0  0  0  0
  7  9  1  0  0  0  0
 25 26  1  0  0  0  0
 25 27  1  0  0  0  0
 25 28  1  0  0  0  0
 23 24  1  0  0  0  0
 23 25  1  0  0  0  0
M  END
$$$$
default_name
  -OEChem-02102213163D

 28 27  0     1  0  0  0  0  0999 V2000
   -3.2133   -3.5565    1.2809 H   0  0  0  0  0  0  0  0  0  0  0  0
   -3.1873   -2.5755    0.8089 C   0  0  0  0  0  0  0  0  0  0  0  0
   -3.8793   -1.9065    1.3169 H   0  0  0  0  0  0  0  0  0  0  0  0
   -3.4623   -2.6685   -0.2401 H   0  0  0  0  0  0  0  0  0  0  0  0
   -1.7863   -2.0195    0.9119 C   0  0  0  0  0  0  0  0  0  0  0  0
   -0.9073   -2.6615    1.4699 O   0  0  0  0  0  0  0  0  0  0  0  0
   -1.5803   -0.8195    0.3749 N   0  0  0  0  0  0  0  0  0  0  0  0
   -2.3603   -0.3345   -0.0451 H   0  0  0  0  0  0  0  0  0  0  0  0
   -0.2933   -0.1205    0.3719 C   0  0  1  0  0  0  0  0  0  0  0  0
    0.4439   -0.7485   -0.1303 H   0  0  0  0  0  0  0  0  0  0  0  0
   -0.4368    1.1924   -0.4246 C   0  0  0  0  0  0  0  0  0  0  0  0
   -1.2108    1.0478   -1.1802 H   0  0  0  0  0  0  0  0  0  0  0  0
   -0.7631    1.9874    0.2475 H   0  0  0  0  0  0  0  0  0  0  0  0
    0.8584    1.6432   -1.1220 C   0  0  0  0  0  0  0  0  0  0  0  0
    1.4382    2.2793   -0.4531 H   0  0  0  0  0  0  0  0  0  0  0  0
    1.4496    0.7656   -1.3809 H   0  0  0  0  0  0  0  0  0  0  0  0
    0.5836    2.4239   -2.4033 C   0  0  0  0  0  0  0  0  0  0  0  0
   -0.5165    2.5723   -2.9106 O   0  0  0  0  0  0  0  0  0  0  0  0
    1.6643    2.9653   -2.9954 O   0  0  0  0  0  0  0  0  0  0  0  0
    1.3284    3.4024   -3.7798 H   0  0  0  0  0  0  0  0  0  0  0  0
    0.1871    0.1189    1.8122 C   0  0  0  0  0  0  0  0  0  0  0  0
    1.3541   -0.1171    2.1187 O   0  0  0  0  0  0  0  0  0  0  0  0
   -0.7126    0.5740    2.6926 N   0  0  0  0  0  0  0  0  0  0  0  0
   -1.6464    0.7663    2.3621 H   0  0  0  0  0  0  0  0  0  0  0  0
   -0.4191    0.8310    4.1010 C   0  0  0  0  0  0  0  0  0  0  0  0
    0.4022    1.5452    4.1828 H   0  0  0  0  0  0  0  0  0  0  0  0
   -1.2983    1.2366    4.6035 H   0  0  0  0  0  0  0  0  0  0  0  0
   -0.1204   -0.0980    4.5907 H   0  0  0  0  0  0  0  0  0  0  0  0
  5  6  2  0  0  0  0
  5  7  1  0  0  0  0
  2  3  1  0  0  0  0
  2  4  1  0  0  0  0
  2  5  1  0  0  0  0
  1  2  1  0  0  0  0
 21 22  2  0  0  0  0
 21 23  1  0  0  0  0
 19 20  1  0  0  0  0
 17 18  2  0  0  0  0
 17 19  1  0  0  0  0
 14 15  1  0  0  0  0
 14 16  1  0  0  0  0
 14 17  1  0  0  0  0
 11 12  1  0  0  0  0
 11 13  1  0  0  0  0
 11 14  1  0  0  0  0
  9 10  1  0  0  0  0
  9 11  1  0  0  0  0
  9 21  1  0  0  0  0
  7  8  1  0  0  0  0
  7  9  1  0  0  0  0
 25 26  1  0  0  0  0
 25 27  1  0  0  0  0
 25 28  1  0  0  0  0
 23 24  1  0  0  0  0
 23 25  1  0  0  0  0
M  END
$$$$
default_name
  -OEChem-02102213163D

 28 27  0     1  0  0  0  0  0999 V2000
   -3.2133   -3.5565    1.2809 H   0  0  0  0  0  0  0  0  0  0  0  0
   -3.1873   -2.5755    0.8089 C   0  0  0  0  0  0  0  0  0  0  0  0
   -3.8793   -1.9065    1.3169 H   0  0  0  0  0  0  0  0  0  0  0  0
   -3.4623   -2.6685   -0.2401 H   0  0  0  0  0  0  0  0  0  0  0  0
   -1.7863   -2.0195    0.9119 C   0  0  0  0  0  0  0  0  0  0  0  0
   -0.9073   -2.6615    1.4699 O   0  0  0  0  0  0  0  0  0  0  0  0
   -1.5803   -0.8195    0.3749 N   0  0  0  0  0  0  0  0  0  0  0  0
   -2.3603   -0.3345   -0.0451 H   0  0  0  0  0  0  0  0  0  0  0  0
   -0.2933   -0.1205    0.3719 C   0  0  1  0  0  0  0  0  0  0  0  0
    0.4439   -0.7485   -0.1303 H   0  0  0  0  0  0  0  0  0  0  0  0
   -0.4368    1.1924   -0.4246 C   0  0  0  0  0  0  0  0  0  0  0  0
   -1.2108    1.0478   -1.1802 H   0  0  0  0  0  0  0  0  0  0  0  0
   -0.7631    1.9874    0.2475 H   0  0  0  0  0  0  0  0  0  0  0  0
    0.8584    1.6432   -1.1220 C   0  0  0  0  0  0  0  0  0  0  0  0
    1.5545    2.0476   -0.3870 H   0  0  0  0  0  0  0  0  0  0  0  0
    1.3171    0.7861   -1.6136 H   0  0  0  0  0  0  0  0  0  0  0  0
    0.6040    2.7145   -2.1776 C   0  0  0  0  0  0  0  0  0  0  0  0
   -0.4985    3.0910   -2.5418 O   0  0  0  0  0  0  0  0  0  0  0  0
    1.7048    3.2530   -2.7342 O   0  0  0  0  0  0  0  0  0  0  0  0
    1.3779    3.8876   -3.3743 H   0  0  0  0  0  0  0  0  0  0  0  0
    0.1871    0.1189    1.8122 C   0  0  0  0  0  0  0  0  0  0  0  0
    1.3541   -0.1171    2.1187 O   0  0  0  0  0  0  0  0  0  0  0  0
   -0.7126    0.5740    2.6926 N   0  0  0  0  0  0  0  0  0  0  0  0
   -1.6464    0.7663    2.3621 H   0  0  0  0  0  0  0  0  0  0  0  0
   -0.4191    0.8310    4.1010 C   0  0  0  0  0  0  0  0  0  0  0  0
    0.4022    1.5452    4.1828 H   0  0  0  0  0  0  0  0  0  0  0  0
   -1.2983    1.2366    4.6035 H   0  0  0  0  0  0  0  0  0  0  0  0
   -0.1204   -0.0980    4.5907 H   0  0  0  0  0  0  0  0  0  0  0  0
  5  6  2  0  0  0  0
  5  7  1  0  0  0  0
  2  3  1  0  0  0  0
  2  4  1  0  0  0  0
  2  5  1  0  0  0  0
  1  2  1  0  0  0  0
 21 22  2  0  0  0  0
 21 23  1  0  0  0  0
 19 20  1  0  0  0  0
 17 18  2  0  0  0  0
 17 19  1  0  0  0  0
 14 15  1  0  0  0  0
 14 16  1  0  0  0  0
 14 17  1  0  0  0  0
 11 12  1  0  0  0  0
 11 13  1  0  0  0  0
 11 14  1  0  0  0  0
  9 10  1  0  0  0  0
  9 11  1  0  0  0  0
  9 21  1  0  0  0  0
  7  8  1  0  0  0  0
  7  9  1  0  0  0  0
 25 26  1  0  0  0  0
 25 27  1  0  0  0  0
 25 28  1  0  0  0  0
 23 24  1  0  0  0  0
 23 25  1  0  0  0  0
M  END
$$$$
default_name
  -OEChem-02102213163D

 28 27  0     1  0  0  0  0  0999 V2000
   -3.2133   -3.5565    1.2809 H   0  0  0  0  0  0  0  0  0  0  0  0
   -3.1873   -2.5755    0.8089 C   0  0  0  0  0  0  0  0  0  0  0  0
   -3.8793   -1.9065    1.3169 H   0  0  0  0  0  0  0  0  0  0  0  0
   -3.4623   -2.6685   -0.2401 H   0  0  0  0  0  0  0  0  0  0  0  0
   -1.7863   -2.0195    0.9119 C   0  0  0  0  0  0  0  0  0  0  0  0
   -0.9073   -2.6615    1.4699 O   0  0  0  0  0  0  0  0  0  0  0  0
   -1.5803   -0.8195    0.3749 N   0  0  0  0  0  0  0  0  0  0  0  0
   -2.3603   -0.3345   -0.0451 H   0  0  0  0  0  0  0  0  0  0  0  0
   -0.2933   -0.1205    0.3719 C   0  0  1  0  0  0  0  0  0  0  0  0
    0.4439   -0.7485   -0.1303 H   0  0  0  0  0  0  0  0  0  0  0  0
   -0.4368    1.1924   -0.4246 C   0  0  0  0  0  0  0  0  0  0  0  0
   -1.3713    1.1478   -0.9864 H   0  0  0  0  0  0  0  0  0  0  0  0
   -0.4988    2.0305    0.2711 H   0  0  0  0  0  0  0  0  0  0  0  0
    0.7189    1.4560   -1.4054 C   0  0  0  0  0  0  0  0  0  0  0  0
    1.6626    1.5066   -0.8622 H   0  0  0  0  0  0  0  0  0  0  0  0
    0.7669    0.6428   -2.1287 H   0  0  0  0  0  0  0  0  0  0  0  0
    0.5397    2.7621   -2.1725 C   0  0  0  0  0  0  0  0  0  0  0  0
   -0.4563    3.4666   -2.1330 O   0  0  0  0  0  0  0  0  0  0  0  0
    1.5768    3.1250   -2.9499 O   0  0  0  0  0  0  0  0  0  0  0  0
    1.3044    3.9449   -3.3656 H   0  0  0  0  0  0  0  0  0  0  0  0
    0.1871    0.1189    1.8122 C   0  0  0  0  0  0  0  0  0  0  0  0
    1.3541   -0.1171    2.1187 O   0  0  0  0  0  0  0  0  0  0  0  0
   -0.7126    0.5740    2.6926 N   0  0  0  0  0  0  0  0  0  0  0  0
   -1.6464    0.7663    2.3621 H   0  0  0  0  0  0  0  0  0  0  0  0
   -0.4191    0.8310    4.1010 C   0  0  0  0  0  0  0  0  0  0  0  0
    0.4022    1.5452    4.1828 H   0  0  0  0  0  0  0  0  0  0  0  0
   -1.2983    1.2366    4.6035 H   0  0  0  0  0  0  0  0  0  0  0  0
   -0.1204   -0.0980    4.5907 H   0  0  0  0  0  0  0  0  0  0  0  0
  5  6  2  0  0  0  0
  5  7  1  0  0  0  0
  2  3  1  0  0  0  0
  2  4  1  0  0  0  0
  2  5  1  0  0  0  0
  1  2  1  0  0  0  0
 21 22  2  0  0  0  0
 21 23  1  0  0  0  0
 19 20  1  0  0  0  0
 17 18  2  0  0  0  0
 17 19  1  0  0  0  0
 14 15  1  0  0  0  0
 14 16  1  0  0  0  0
 14 17  1  0  0  0  0
 11 12  1  0  0  0  0
 11 13  1  0  0  0  0
 11 14  1  0  0  0  0
  9 10  1  0  0  0  0
  9 11  1  0  0  0  0
  9 21  1  0  0  0  0
  7  8  1  0  0  0  0
  7  9  1  0  0  0  0
 25 26  1  0  0  0  0
 25 27  1  0  0  0  0
 25 28  1  0  0  0  0
 23 24  1  0  0  0  0
 23 25  1  0  0  0  0
M  END
$$$$
default_name
  -OEChem-02102213163D

 28 27  0     1  0  0  0  0  0999 V2000
   -3.2133   -3.5565    1.2809 H   0  0  0  0  0  0  0  0  0  0  0  0
   -3.1873   -2.5755    0.8089 C   0  0  0  0  0  0  0  0  0  0  0  0
   -3.8793   -1.9065    1.3169 H   0  0  0  0  0  0  0  0  0  0  0  0
   -3.4623   -2.6685   -0.2401 H   0  0  0  0  0  0  0  0  0  0  0  0
   -1.7863   -2.0195    0.9119 C   0  0  0  0  0  0  0  0  0  0  0  0
   -0.9073   -2.6615    1.4699 O   0  0  0  0  0  0  0  0  0  0  0  0
   -1.5803   -0.8195    0.3749 N   0  0  0  0  0  0  0  0  0  0  0  0
   -2.3603   -0.3345   -0.0451 H   0  0  0  0  0  0  0  0  0  0  0  0
   -0.2933   -0.1205    0.3719 C   0  0  1  0  0  0  0  0  0  0  0  0
    0.4439   -0.7485   -0.1303 H   0  0  0  0  0  0  0  0  0  0  0  0
   -0.4368    1.1924   -0.4246 C   0  0  0  0  0  0  0  0  0  0  0  0
   -1.3713    1.1478   -0.9864 H   0  0  0  0  0  0  0  0  0  0  0  0
   -0.4988    2.0305    0.2711 H   0  0  0  0  0  0  0  0  0  0  0  0
    0.7189    1.4560   -1.4054 C   0  0  0  0  0  0  0  0  0  0  0  0
    1.6724    1.2457   -0.9208 H   0  0  0  0  0  0  0  0  0  0  0  0
    0.6082    0.8053   -2.2721 H   0  0  0  0  0  0  0  0  0  0  0  0
    0.7421    2.8997   -1.8971 C   0  0  0  0  0  0  0  0  0  0  0  0
   -0.1187    3.7330   -1.6636 O   0  0  0  0  0  0  0  0  0  0  0  0
    1.8035    3.2380   -2.6525 O   0  0  0  0  0  0  0  0  0  0  0  0
    1.6624    4.1569   -2.8869 H   0  0  0  0  0  0  0  0  0  0  0  0
    0.1871    0.1189    1.8122 C   0  0  0  0  0  0  0  0  0  0  0  0
    1.3541   -0.1171    2.1187 O   0  0  0  0  0  0  0  0  0  0  0  0
   -0.7126    0.5740    2.6926 N   0  0  0  0  0  0  0  0  0  0  0  0
   -1.6464    0.7663    2.3621 H   0  0  0  0  0  0  0  0  0  0  0  0
   -0.4191    0.8310    4.1010 C   0  0  0  0  0  0  0  0  0  0  0  0
    0.4022    1.5452    4.1828 H   0  0  0  0  0  0  0  0  0  0  0  0
   -1.2983    1.2366    4.6035 H   0  0  0  0  0  0  0  0  0  0  0  0
   -0.1204   -0.0980    4.5907 H   0  0  0  0  0  0  0  0  0  0  0  0
  5  6  2  0  0  0  0
  5  7  1  0  0  0  0
  2  3  1  0  0  0  0
  2  4  1  0  0  0  0
  2  5  1  0  0  0  0
  1  2  1  0  0  0  0
 21 22  2  0  0  0  0
 21 23  1  0  0  0  0
 19 20  1  0  0  0  0
 17 18  2  0  0  0  0
 17 19  1  0  0  0  0
 14 15  1  0  0  0  0
 14 16  1  0  0  0  0
 14 17  1  0  0  0  0
 11 12  1  0  0  0  0
 11 13  1  0  0  0  0
 11 14  1  0  0  0  0
  9 10  1  0  0  0  0
  9 11  1  0  0  0  0
  9 21  1  0  0  0  0
  7  8  1  0  0  0  0
  7  9  1  0  0  0  0
 25 26  1  0  0  0  0
 25 27  1  0  0  0  0
 25 28  1  0  0  0  0
 23 24  1  0  0  0  0
 23 25  1  0  0  0  0
M  END
$$$$
default_name
  -OEChem-02102213163D

 28 27  0     1  0  0  0  0  0999 V2000
   -3.2133   -3.5565    1.2809 H   0  0  0  0  0  0  0  0  0  0  0  0
   -3.1873   -2.5755    0.8089 C   0  0  0  0  0  0  0  0  0  0  0  0
   -3.8793   -1.9065    1.3169 H   0  0  0  0  0  0  0  0  0  0  0  0
   -3.4623   -2.6685   -0.2401 H   0  0  0  0  0  0  0  0  0  0  0  0
   -1.7863   -2.0195    0.9119 C   0  0  0  0  0  0  0  0  0  0  0  0
   -0.9073   -2.6615    1.4699 O   0  0  0  0  0  0  0  0  0  0  0  0
   -1.5803   -0.8195    0.3749 N   0  0  0  0  0  0  0  0  0  0  0  0
   -2.3603   -0.3345   -0.0451 H   0  0  0  0  0  0  0  0  0  0  0  0
   -0.2933   -0.1205    0.3719 C   0  0  1  0  0  0  0  0  0  0  0  0
    0.4439   -0.7485   -0.1303 H   0  0  0  0  0  0  0  0  0  0  0  0
   -0.4368    1.1924   -0.4246 C   0  0  0  0  0  0  0  0  0  0  0  0
   -1.3713    1.1478   -0.9864 H   0  0  0  0  0  0  0  0  0  0  0  0
   -0.4988    2.0305    0.2711 H   0  0  0  0  0  0  0  0  0  0  0  0
    0.7189    1.4560   -1.4054 C   0  0  0  0  0  0  0  0  0  0  0  0
    1.6362    1.0035   -1.0286 H   0  0  0  0  0  0  0  0  0  0  0  0
    0.4754    1.0163   -2.3719 H   0  0  0  0  0  0  0  0  0  0  0  0
    0.9725    2.9457   -1.6133 C   0  0  0  0  0  0  0  0  0  0  0  0
    0.2722    3.8434   -1.1734 O   0  0  0  0  0  0  0  0  0  0  0  0
    2.0543    3.2520   -2.3532 O   0  0  0  0  0  0  0  0  0  0  0  0
    2.0643    4.2096   -2.3991 H   0  0  0  0  0  0  0  0  0  0  0  0
    0.1871    0.1189    1.8122 C   0  0  0  0  0  0  0  0  0  0  0  0
    1.3541   -0.1171    2.1187 O   0  0  0  0  0  0  0  0  0  0  0  0
   -0.7126    0.5740    2.6926 N   0  0  0  0  0  0  0  0  0  0  0  0
   -1.6464    0.7663    2.3621 H   0  0  0  0  0  0  0  0  0  0  0  0
   -0.4191    0.8310    4.1010 C   0  0  0  0  0  0  0  0  0  0  0  0
    0.4022    1.5452    4.1828 H   0  0  0  0  0  0  0  0  0  0  0  0
   -1.2983    1.2366    4.6035 H   0  0  0  0  0  0  0  0  0  0  0  0
   -0.1204   -0.0980    4.5907 H   0  0  0  0  0  0  0  0  0  0  0  0
  5  6  2  0  0  0  0
  5  7  1  0  0  0  0
  2  3  1  0  0  0  0
  2  4  1  0  0  0  0
  2  5  1  0  0  0  0
  1  2  1  0  0  0  0
 21 22  2  0  0  0  0
 21 23  1  0  0  0  0
 19 20  1  0  0  0  0
 17 18  2  0  0  0  0
 17 19  1  0  0  0  0
 14 15  1  0  0  0  0
 14 16  1  0  0  0  0
 14 17  1  0  0  0  0
 11 12  1  0  0  0  0
 11 13  1  0  0  0  0
 11 14  1  0  0  0  0
  9 10  1  0  0  0  0
  9 11  1  0  0  0  0
  9 21  1  0  0  0  0
  7  8  1  0  0  0  0
  7  9  1  0  0  0  0
 25 26  1  0  0  0  0
 25 27  1  0  0  0  0
 25 28  1  0  0  0  0
 23 24  1  0  0  0  0
 23 25  1  0  0  0  0
M  END
$$$$
default_name
  -OEChem-02102213163D

 28 27  0     1  0  0  0  0  0999 V2000
   -3.2133   -3.5565    1.2809 H   0  0  0  0  0  0  0  0  0  0  0  0
   -3.1873   -2.5755    0.8089 C   0  0  0  0  0  0  0  0  0  0  0  0
   -3.8793   -1.9065    1.3169 H   0  0  0  0  0  0  0  0  0  0  0  0
   -3.4623   -2.6685   -0.2401 H   0  0  0  0  0  0  0  0  0  0  0  0
   -1.7863   -2.0195    0.9119 C   0  0  0  0  0  0  0  0  0  0  0  0
   -0.9073   -2.6615    1.4699 O   0  0  0  0  0  0  0  0  0  0  0  0
   -1.5803   -0.8195    0.3749 N   0  0  0  0  0  0  0  0  0  0  0  0
   -2.3603   -0.3345   -0.0451 H   0  0  0  0  0  0  0  0  0  0  0  0
   -0.2933   -0.1205    0.3719 C   0  0  1  0  0  0  0  0  0  0  0  0
    0.4439   -0.7485   -0.1303 H   0  0  0  0  0  0  0  0  0  0  0  0
   -0.4368    1.1924   -0.4246 C   0  0  0  0  0  0  0  0  0  0  0  0
   -1.3713    1.1478   -0.9864 H   0  0  0  0  0  0  0  0  0  0  0  0
   -0.4988    2.0305    0.2711 H   0  0  0  0  0  0  0  0  0  0  0  0
    0.7189    1.4560   -1.4054 C   0  0  0  0  0  0  0  0  0  0  0  0
    1.5565    0.7965   -1.1781 H   0  0  0  0  0  0  0  0  0  0  0  0
    0.3774    1.2615   -2.4214 H   0  0  0  0  0  0  0  0  0  0  0  0
    1.2152    2.8969   -1.3404 C   0  0  0  0  0  0  0  0  0  0  0  0
    0.6897    3.7902   -0.6957 O   0  0  0  0  0  0  0  0  0  0  0  0
    2.3121    3.1659   -2.0726 O   0  0  0  0  0  0  0  0  0  0  0  0
    2.4829    4.0993   -1.9355 H   0  0  0  0  0  0  0  0  0  0  0  0
    0.1871    0.1189    1.8122 C   0  0  0  0  0  0  0  0  0  0  0  0
    1.3541   -0.1171    2.1187 O   0  0  0  0  0  0  0  0  0  0  0  0
   -0.7126    0.5740    2.6926 N   0  0  0  0  0  0  0  0  0  0  0  0
   -1.6464    0.7663    2.3621 H   0  0  0  0  0  0  0  0  0  0  0  0
   -0.4191    0.8310    4.1010 C   0  0  0  0  0  0  0  0  0  0  0  0
    0.4022    1.5452    4.1828 H   0  0  0  0  0  0  0  0  0  0  0  0
   -1.2983    1.2366    4.6035 H   0  0  0  0  0  0  0  0  0  0  0  0
   -0.1204   -0.0980    4.5907 H   0  0  0  0  0  0  0  0  0  0  0  0
  5  6  2  0  0  0  0
  5  7  1  0  0  0  0
  2  3  1  0  0  0  0
  2  4  1  0  0  0  0
  2  5  1  0  0  0  0
  1  2  1  0  0  0  0
 21 22  2  0  0  0  0
 21 23  1  0  0  0  0
 19 20  1  0  0  0  0
 17 18  2  0  0  0  0
 17 19  1  0  0  0  0
 14 15  1  0  0  0  0
 14 16  1  0  0  0  0
 14 17  1  0  0  0  0
 11 12  1  0  0  0  0
 11 13  1  0  0  0  0
 11 14  1  0  0  0  0
  9 10  1  0  0  0  0
  9 11  1  0  0  0  0
  9 21  1  0  0  0  0
  7  8  1  0  0  0  0
  7  9  1  0  0  0  0
 25 26  1  0  0  0  0
 25 27  1  0  0  0  0
 25 28  1  0  0  0  0
 23 24  1  0  0  0  0
 23 25  1  0  0  0  0
M  END
$$$$
default_name
  -OEChem-02102213163D

 28 27  0     1  0  0  0  0  0999 V2000
   -3.2133   -3.5565    1.2809 H   0  0  0  0  0  0  0  0  0  0  0  0
   -3.1873   -2.5755    0.8089 C   0  0  0  0  0  0  0  0  0  0  0  0
   -3.8793   -1.9065    1.3169 H   0  0  0  0  0  0  0  0  0  0  0  0
   -3.4623   -2.6685   -0.2401 H   0  0  0  0  0  0  0  0  0  0  0  0
   -1.7863   -2.0195    0.9119 C   0  0  0  0  0  0  0  0  0  0  0  0
   -0.9073   -2.6615    1.4699 O   0  0  0  0  0  0  0  0  0  0  0  0
   -1.5803   -0.8195    0.3749 N   0  0  0  0  0  0  0  0  0  0  0  0
   -2.3603   -0.3345   -0.0451 H   0  0  0  0  0  0  0  0  0  0  0  0
   -0.2933   -0.1205    0.3719 C   0  0  1  0  0  0  0  0  0  0  0  0
    0.4439   -0.7485   -0.1303 H   0  0  0  0  0  0  0  0  0  0  0  0
   -0.4368    1.1924   -0.4246 C   0  0  0  0  0  0  0  0  0  0  0  0
   -1.3713    1.1478   -0.9864 H   0  0  0  0  0  0  0  0  0  0  0  0
   -0.4988    2.0305    0.2711 H   0  0  0  0  0  0  0  0  0  0  0  0
    0.7189    1.4560   -1.4054 C   0  0  0  0  0  0  0  0  0  0  0  0
    1.4387    0.6388   -1.3593 H   0  0  0  0  0  0  0  0  0  0  0  0
    0.3210    1.5241   -2.4173 H   0  0  0  0  0  0  0  0  0  0  0  0
    1.4537    2.7566   -1.0970 C   0  0  0  0  0  0  0  0  0  0  0  0
    1.1054    3.5771   -0.2632 O   0  0  0  0  0  0  0  0  0  0  0  0
    2.5593    2.9857   -1.8297 O   0  0  0  0  0  0  0  0  0  0  0  0
    2.8896    3.8336   -1.5278 H   0  0  0  0  0  0  0  0  0  0  0  0
    0.1871    0.1189    1.8122 C   0  0  0  0  0  0  0  0  0  0  0  0
    1.3541   -0.1171    2.1187 O   0  0  0  0  0  0  0  0  0  0  0  0
   -0.7126    0.5740    2.6926 N   0  0  0  0  0  0  0  0  0  0  0  0
   -1.6464    0.7663    2.3621 H   0  0  0  0  0  0  0  0  0  0  0  0
   -0.4191    0.8310    4.1010 C   0  0  0  0  0  0  0  0  0  0  0  0
    0.4022    1.5452    4.1828 H   0  0  0  0  0  0  0  0  0  0  0  0
   -1.2983    1.2366    4.6035 H   0  0  0  0  0  0  0  0  0  0  0  0
   -0.1204   -0.0980    4.5907 H   0  0  0  0  0  0  0  0  0  0  0  0
  5  6  2  0  0  0  0
  5  7  1  0  0  0  0
  2  3  1  0  0  0  0
  2  4  1  0  0  0  0
  2  5  1  0  0  0  0
  1  2  1  0  0  0  0
 21 22  2  0  0  0  0
 21 23  1  0  0  0  0
 19 20  1  0  0  0  0
 17 18  2  0  0  0  0
 17 19  1  0  0  0  0
 14 15  1  0  0  0  0
 14 16  1  0  0  0  0
 14 17  1  0  0  0  0
 11 12  1  0  0  0  0
 11 13  1  0  0  0  0
 11 14  1  0  0  0  0
  9 10  1  0  0  0  0
  9 11  1  0  0  0  0
  9 21  1  0  0  0  0
  7  8  1  0  0  0  0
  7  9  1  0  0  0  0
 25 26  1  0  0  0  0
 25 27  1  0  0  0  0
 25 28  1  0  0  0  0
 23 24  1  0  0  0  0
 23 25  1  0  0  0  0
M  END
$$$$
default_name
  -OEChem-02102213163D

 28 27  0     1  0  0  0  0  0999 V2000
   -3.2133   -3.5565    1.2809 H   0  0  0  0  0  0  0  0  0  0  0  0
   -3.1873   -2.5755    0.8089 C   0  0  0  0  0  0  0  0  0  0  0  0
   -3.8793   -1.9065    1.3169 H   0  0  0  0  0  0  0  0  0  0  0  0
   -3.4623   -2.6685   -0.2401 H   0  0  0  0  0  0  0  0  0  0  0  0
   -1.7863   -2.0195    0.9119 C   0  0  0  0  0  0  0  0  0  0  0  0
   -0.9073   -2.6615    1.4699 O   0  0  0  0  0  0  0  0  0  0  0  0
   -1.5803   -0.8195    0.3749 N   0  0  0  0  0  0  0  0  0  0  0  0
   -2.3603   -0.3345   -0.0451 H   0  0  0  0  0  0  0  0  0  0  0  0
   -0.2933   -0.1205    0.3719 C   0  0  1  0  0  0  0  0  0  0  0  0
    0.4439   -0.7485   -0.1303 H   0  0  0  0  0  0  0  0  0  0  0  0
   -0.4368    1.1924   -0.4246 C   0  0  0  0  0  0  0  0  0  0  0  0
   -1.3713    1.1478   -0.9864 H   0  0  0  0  0  0  0  0  0  0  0  0
   -0.4988    2.0305    0.2711 H   0  0  0  0  0  0  0  0  0  0  0  0
    0.7189    1.4560   -1.4054 C   0  0  0  0  0  0  0  0  0  0  0  0
    1.2909    0.5410   -1.5598 H   0  0  0  0  0  0  0  0  0  0  0  0
    0.3101    1.7862   -2.3597 H   0  0  0  0  0  0  0  0  0  0  0  0
    1.6717    2.5345   -0.8999 C   0  0  0  0  0  0  0  0  0  0  0  0
    1.4909    3.2185    0.0947 O   0  0  0  0  0  0  0  0  0  0  0  0
    2.7792    2.7235   -1.6411 O   0  0  0  0  0  0  0  0  0  0  0  0
    3.2566    3.4306   -1.2036 H   0  0  0  0  0  0  0  0  0  0  0  0
    0.1871    0.1189    1.8122 C   0  0  0  0  0  0  0  0  0  0  0  0
    1.3541   -0.1171    2.1187 O   0  0  0  0  0  0  0  0  0  0  0  0
   -0.7126    0.5740    2.6926 N   0  0  0  0  0  0  0  0  0  0  0  0
   -1.6464    0.7663    2.3621 H   0  0  0  0  0  0  0  0  0  0  0  0
   -0.4191    0.8310    4.1010 C   0  0  0  0  0  0  0  0  0  0  0  0
    0.4022    1.5452    4.1828 H   0  0  0  0  0  0  0  0  0  0  0  0
   -1.2983    1.2366    4.6035 H   0  0  0  0  0  0  0  0  0  0  0  0
   -0.1204   -0.0980    4.5907 H   0  0  0  0  0  0  0  0  0  0  0  0
  5  6  2  0  0  0  0
  5  7  1  0  0  0  0
  2  3  1  0  0  0  0
  2  4  1  0  0  0  0
  2  5  1  0  0  0  0
  1  2  1  0  0  0  0
 21 22  2  0  0  0  0
 21 23  1  0  0  0  0
 19 20  1  0  0  0  0
 17 18  2  0  0  0  0
 17 19  1  0  0  0  0
 14 15  1  0  0  0  0
 14 16  1  0  0  0  0
 14 17  1  0  0  0  0
 11 12  1  0  0  0  0
 11 13  1  0  0  0  0
 11 14  1  0  0  0  0
  9 10  1  0  0  0  0
  9 11  1  0  0  0  0
  9 21  1  0  0  0  0
  7  8  1  0  0  0  0
  7  9  1  0  0  0  0
 25 26  1  0  0  0  0
 25 27  1  0  0  0  0
 25 28  1  0  0  0  0
 23 24  1  0  0  0  0
 23 25  1  0  0  0  0
M  END
$$$$
default_name
  -OEChem-02102213163D

 28 27  0     1  0  0  0  0  0999 V2000
   -3.2133   -3.5565    1.2809 H   0  0  0  0  0  0  0  0  0  0  0  0
   -3.1873   -2.5755    0.8089 C   0  0  0  0  0  0  0  0  0  0  0  0
   -3.8793   -1.9065    1.3169 H   0  0  0  0  0  0  0  0  0  0  0  0
   -3.4623   -2.6685   -0.2401 H   0  0  0  0  0  0  0  0  0  0  0  0
   -1.7863   -2.0195    0.9119 C   0  0  0  0  0  0  0  0  0  0  0  0
   -0.9073   -2.6615    1.4699 O   0  0  0  0  0  0  0  0  0  0  0  0
   -1.5803   -0.8195    0.3749 N   0  0  0  0  0  0  0  0  0  0  0  0
   -2.3603   -0.3345   -0.0451 H   0  0  0  0  0  0  0  0  0  0  0  0
   -0.2933   -0.1205    0.3719 C   0  0  1  0  0  0  0  0  0  0  0  0
    0.4439   -0.7485   -0.1303 H   0  0  0  0  0  0  0  0  0  0  0  0
   -0.4368    1.1924   -0.4246 C   0  0  0  0  0  0  0  0  0  0  0  0
   -1.3713    1.1478   -0.9864 H   0  0  0  0  0  0  0  0  0  0  0  0
   -0.4988    2.0305    0.2711 H   0  0  0  0  0  0  0  0  0  0  0  0
    0.7189    1.4560   -1.4054 C   0  0  0  0  0  0  0  0  0  0  0  0
    1.1231    0.5100   -1.7658 H   0  0  0  0  0  0  0  0  0  0  0  0
    0.3454    2.0300   -2.2526 H   0  0  0  0  0  0  0  0  0  0  0  0
    1.8544    2.2456   -0.7622 C   0  0  0  0  0  0  0  0  0  0  0  0
    1.8200    2.7390    0.3537 O   0  0  0  0  0  0  0  0  0  0  0  0
    2.9567    2.3974   -1.5196 O   0  0  0  0  0  0  0  0  0  0  0  0
    3.5591    2.9177   -0.9851 H   0  0  0  0  0  0  0  0  0  0  0  0
    0.1871    0.1189    1.8122 C   0  0  0  0  0  0  0  0  0  0  0  0
    1.3541   -0.1171    2.1187 O   0  0  0  0  0  0  0  0  0  0  0  0
   -0.7126    0.5740    2.6926 N   0  0  0  0  0  0  0  0  0  0  0  0
   -1.6464    0.7663    2.3621 H   0  0  0  0  0  0  0  0  0  0  0  0
   -0.4191    0.8310    4.1010 C   0  0  0  0  0  0  0  0  0  0  0  0
    0.4022    1.5452    4.1828 H   0  0  0  0  0  0  0  0  0  0  0  0
   -1.2983    1.2366    4.6035 H   0  0  0  0  0  0  0  0  0  0  0  0
   -0.1204   -0.0980    4.5907 H   0  0  0  0  0  0  0  0  0  0  0  0
  5  6  2  0  0  0  0
  5  7  1  0  0  0  0
  2  3  1  0  0  0  0
  2  4  1  0  0  0  0
  2  5  1  0  0  0  0
  1  2  1  0  0  0  0
 21 22  2  0  0  0  0
 21 23  1  0  0  0  0
 19 20  1  0  0  0  0
 17 18  2  0  0  0  0
 17 19  1  0  0  0  0
 14 15  1  0  0  0  0
 14 16  1  0  0  0  0
 14 17  1  0  0  0  0
 11 12  1  0  0  0  0
 11 13  1  0  0  0  0
 11 14  1  0  0  0  0
  9 10  1  0  0  0  0
  9 11  1  0  0  0  0
  9 21  1  0  0  0  0
  7  8  1  0  0  0  0
  7  9  1  0  0  0  0
 25 26  1  0  0  0  0
 25 27  1  0  0  0  0
 25 28  1  0  0  0  0
 23 24  1  0  0  0  0
 23 25  1  0  0  0  0
M  END
$$$$
default_name
  -OEChem-02102213163D

 28 27  0     1  0  0  0  0  0999 V2000
   -3.2133   -3.5565    1.2809 H   0  0  0  0  0  0  0  0  0  0  0  0
   -3.1873   -2.5755    0.8089 C   0  0  0  0  0  0  0  0  0  0  0  0
   -3.8793   -1.9065    1.3169 H   0  0  0  0  0  0  0  0  0  0  0  0
   -3.4623   -2.6685   -0.2401 H   0  0  0  0  0  0  0  0  0  0  0  0
   -1.7863   -2.0195    0.9119 C   0  0  0  0  0  0  0  0  0  0  0  0
   -0.9073   -2.6615    1.4699 O   0  0  0  0  0  0  0  0  0  0  0  0
   -1.5803   -0.8195    0.3749 N   0  0  0  0  0  0  0  0  0  0  0  0
   -2.3603   -0.3345   -0.0451 H   0  0  0  0  0  0  0  0  0  0  0  0
   -0.2933   -0.1205    0.3719 C   0  0  1  0  0  0  0  0  0  0  0  0
    0.4439   -0.7485   -0.1303 H   0  0  0  0  0  0  0  0  0  0  0  0
   -0.4368    1.1924   -0.4246 C   0  0  0  0  0  0  0  0  0  0  0  0
   -1.3713    1.1478   -0.9864 H   0  0  0  0  0  0  0  0  0  0  0  0
   -0.4988    2.0305    0.2711 H   0  0  0  0  0  0  0  0  0  0  0  0
    0.7189    1.4560   -1.4054 C   0  0  0  0  0  0  0  0  0  0  0  0
    0.9467    0.5478   -1.9635 H   0  0  0  0  0  0  0  0  0  0  0  0
    0.4244    2.2389   -2.1034 H   0  0  0  0  0  0  0  0  0  0  0  0
    1.9893    1.9097   -0.6936 C   0  0  0  0  0  0  0  0  0  0  0  0
    2.0703    2.1712    0.4959 O   0  0  0  0  0  0  0  0  0  0  0  0
    3.0797    2.0295   -1.4735 O   0  0  0  0  0  0  0  0  0  0  0  0
    3.7762    2.3299   -0.8871 H   0  0  0  0  0  0  0  0  0  0  0  0
    0.1871    0.1189    1.8122 C   0  0  0  0  0  0  0  0  0  0  0  0
    1.3541   -0.1171    2.1187 O   0  0  0  0  0  0  0  0  0  0  0  0
   -0.7126    0.5740    2.6926 N   0  0  0  0  0  0  0  0  0  0  0  0
   -1.6464    0.7663    2.3621 H   0  0  0  0  0  0  0  0  0  0  0  0
   -0.4191    0.8310    4.1010 C   0  0  0  0  0  0  0  0  0  0  0  0
    0.4022    1.5452    4.1828 H   0  0  0  0  0  0  0  0  0  0  0  0
   -1.2983    1.2366    4.6035 H   0  0  0  0  0  0  0  0  0  0  0  0
   -0.1204   -0.0980    4.5907 H   0  0  0  0  0  0  0  0  0  0  0  0
  5  6  2  0  0  0  0
  5  7  1  0  0  0  0
  2  3  1  0  0  0  0
  2  4  1  0  0  0  0
  2  5  1  0  0  0  0
  1  2  1  0  0  0  0
 21 22  2  0  0  0  0
 21 23  1  0  0  0  0
 19 20  1  0  0  0  0
 17 18  2  0  0  0  0
 17 19  1  0  0  0  0
 14 15  1  0  0  0  0
 14 16  1  0  0  0  0
 14 17  1  0  0  0  0
 11 12  1  0  0  0  0
 11 13  1  0  0  0  0
 11 14  1  0  0  0  0
  9 10  1  0  0  0  0
  9 11  1  0  0  0  0
  9 21  1  0  0  0  0
  7  8  1  0  0  0  0
  7  9  1  0  0  0  0
 25 26  1  0  0  0  0
 25 27  1  0  0  0  0
 25 28  1  0  0  0  0
 23 24  1  0  0  0  0
 23 25  1  0  0  0  0
M  END
$$$$
default_name
  -OEChem-02102213163D

 28 27  0     1  0  0  0  0  0999 V2000
   -3.2133   -3.5565    1.2809 H   0  0  0  0  0  0  0  0  0  0  0  0
   -3.1873   -2.5755    0.8089 C   0  0  0  0  0  0  0  0  0  0  0  0
   -3.8793   -1.9065    1.3169 H   0  0  0  0  0  0  0  0  0  0  0  0
   -3.4623   -2.6685   -0.2401 H   0  0  0  0  0  0  0  0  0  0  0  0
   -1.7863   -2.0195    0.9119 C   0  0  0  0  0  0  0  0  0  0  0  0
   -0.9073   -2.6615    1.4699 O   0  0  0  0  0  0  0  0  0  0  0  0
   -1.5803   -0.8195    0.3749 N   0  0  0  0  0  0  0  0  0  0  0  0
   -2.3603   -0.3345   -0.0451 H   0  0  0  0  0  0  0  0  0  0  0  0
   -0.2933   -0.1205    0.3719 C   0  0  1  0  0  0  0  0  0  0  0  0
    0.4439   -0.7485   -0.1303 H   0  0  0  0  0  0  0  0  0  0  0  0
   -0.4368    1.1924   -0.4246 C   0  0  0  0  0  0  0  0  0  0  0  0
   -1.3713    1.1478   -0.9864 H   0  0  0  0  0  0  0  0  0  0  0  0
   -0.4988    2.0305    0.2711 H   0  0  0  0  0  0  0  0  0  0  0  0
    0.7189    1.4560   -1.4054 C   0  0  0  0  0  0  0  0  0  0  0  0
    0.7739    0.6518   -2.1392 H   0  0  0  0  0  0  0  0  0  0  0  0
    0.5418    2.3986   -1.9221 H   0  0  0  0  0  0  0  0  0  0  0  0
    2.0672    1.5496   -0.6985 C   0  0  0  0  0  0  0  0  0  0  0  0
    2.2247    1.5538    0.5119 O   0  0  0  0  0  0  0  0  0  0  0  0
    3.1399    1.6448   -1.5060 O   0  0  0  0  0  0  0  0  0  0  0  0
    3.8934    1.7073   -0.9164 H   0  0  0  0  0  0  0  0  0  0  0  0
    0.1871    0.1189    1.8122 C   0  0  0  0  0  0  0  0  0  0  0  0
    1.3541   -0.1171    2.1187 O   0  0  0  0  0  0  0  0  0  0  0  0
   -0.7126    0.5740    2.6926 N   0  0  0  0  0  0  0  0  0  0  0  0
   -1.6464    0.7663    2.3621 H   0  0  0  0  0  0  0  0  0  0  0  0
   -0.4191    0.8310    4.1010 C   0  0  0  0  0  0  0  0  0  0  0  0
    0.4022    1.5452    4.1828 H   0  0  0  0  0  0  0  0  0  0  0  0
   -1.2983    1.2366    4.6035 H   0  0  0  0  0  0  0  0  0  0  0  0
   -0.1204   -0.0980    4.5907 H   0  0  0  0  0  0  0  0  0  0  0  0
  5  6  2  0  0  0  0
  5  7  1  0  0  0  0
  2  3  1  0  0  0  0
  2  4  1  0  0  0  0
  2  5  1  0  0  0  0
  1  2  1  0  0  0  0
 21 22  2  0  0  0  0
 21 23  1  0  0  0  0
 19 20  1  0  0  0  0
 17 18  2  0  0  0  0
 17 19  1  0  0  0  0
 14 15  1  0  0  0  0
 14 16  1  0  0  0  0
 14 17  1  0  0  0  0
 11 12  1  0  0  0  0
 11 13  1  0  0  0  0
 11 14  1  0  0  0  0
  9 10  1  0  0  0  0
  9 11  1  0  0  0  0
  9 21  1  0  0  0  0
  7  8  1  0  0  0  0
  7  9  1  0  0  0  0
 25 26  1  0  0  0  0
 25 27  1  0  0  0  0
 25 28  1  0  0  0  0
 23 24  1  0  0  0  0
 23 25  1  0  0  0  0
M  END
$$$$
default_name
  -OEChem-02102213163D

 28 27  0     1  0  0  0  0  0999 V2000
   -3.2133   -3.5565    1.2809 H   0  0  0  0  0  0  0  0  0  0  0  0
   -3.1873   -2.5755    0.8089 C   0  0  0  0  0  0  0  0  0  0  0  0
   -3.8793   -1.9065    1.3169 H   0  0  0  0  0  0  0  0  0  0  0  0
   -3.4623   -2.6685   -0.2401 H   0  0  0  0  0  0  0  0  0  0  0  0
   -1.7863   -2.0195    0.9119 C   0  0  0  0  0  0  0  0  0  0  0  0
   -0.9073   -2.6615    1.4699 O   0  0  0  0  0  0  0  0  0  0  0  0
   -1.5803   -0.8195    0.3749 N   0  0  0  0  0  0  0  0  0  0  0  0
   -2.3603   -0.3345   -0.0451 H   0  0  0  0  0  0  0  0  0  0  0  0
   -0.2933   -0.1205    0.3719 C   0  0  1  0  0  0  0  0  0  0  0  0
    0.4439   -0.7485   -0.1303 H   0  0  0  0  0  0  0  0  0  0  0  0
   -0.4368    1.1924   -0.4246 C   0  0  0  0  0  0  0  0  0  0  0  0
   -1.3713    1.1478   -0.9864 H   0  0  0  0  0  0  0  0  0  0  0  0
   -0.4988    2.0305    0.2711 H   0  0  0  0  0  0  0  0  0  0  0  0
    0.7189    1.4560   -1.4054 C   0  0  0  0  0  0  0  0  0  0  0  0
    0.6163    0.8150   -2.2810 H   0  0  0  0  0  0  0  0  0  0  0  0
    0.6896    2.4982   -1.7212 H   0  0  0  0  0  0  0  0  0  0  0  0
    2.0829    1.1899   -0.7768 C   0  0  0  0  0  0  0  0  0  0  0  0
    2.2726    0.9288    0.4004 O   0  0  0  0  0  0  0  0  0  0  0  0
    3.1331    1.2697   -1.6148 O   0  0  0  0  0  0  0  0  0  0  0  0
    3.9025    1.0922   -1.0710 H   0  0  0  0  0  0  0  0  0  0  0  0
    0.1871    0.1189    1.8122 C   0  0  0  0  0  0  0  0  0  0  0  0
    1.3541   -0.1171    2.1187 O   0  0  0  0  0  0  0  0  0  0  0  0
   -0.7126    0.5740    2.6926 N   0  0  0  0  0  0  0  0  0  0  0  0
   -1.6464    0.7663    2.3621 H   0  0  0  0  0  0  0  0  0  0  0  0
   -0.4191    0.8310    4.1010 C   0  0  0  0  0  0  0  0  0  0  0  0
    0.4022    1.5452    4.1828 H   0  0  0  0  0  0  0  0  0  0  0  0
   -1.2983    1.2366    4.6035 H   0  0  0  0  0  0  0  0  0  0  0  0
   -0.1204   -0.0980    4.5907 H   0  0  0  0  0  0  0  0  0  0  0  0
  5  6  2  0  0  0  0
  5  7  1  0  0  0  0
  2  3  1  0  0  0  0
  2  4  1  0  0  0  0
  2  5  1  0  0  0  0
  1  2  1  0  0  0  0
 21 22  2  0  0  0  0
 21 23  1  0  0  0  0
 19 20  1  0  0  0  0
 17 18  2  0  0  0  0
 17 19  1  0  0  0  0
 14 15  1  0  0  0  0
 14 16  1  0  0  0  0
 14 17  1  0  0  0  0
 11 12  1  0  0  0  0
 11 13  1  0  0  0  0
 11 14  1  0  0  0  0
  9 10  1  0  0  0  0
  9 11  1  0  0  0  0
  9 21  1  0  0  0  0
  7  8  1  0  0  0  0
  7  9  1  0  0  0  0
 25 26  1  0  0  0  0
 25 27  1  0  0  0  0
 25 28  1  0  0  0  0
 23 24  1  0  0  0  0
 23 25  1  0  0  0  0
M  END
$$$$
default_name
  -OEChem-02102213163D

 28 27  0     1  0  0  0  0  0999 V2000
   -3.2133   -3.5565    1.2809 H   0  0  0  0  0  0  0  0  0  0  0  0
   -3.1873   -2.5755    0.8089 C   0  0  0  0  0  0  0  0  0  0  0  0
   -3.8793   -1.9065    1.3169 H   0  0  0  0  0  0  0  0  0  0  0  0
   -3.4623   -2.6685   -0.2401 H   0  0  0  0  0  0  0  0  0  0  0  0
   -1.7863   -2.0195    0.9119 C   0  0  0  0  0  0  0  0  0  0  0  0
   -0.9073   -2.6615    1.4699 O   0  0  0  0  0  0  0  0  0  0  0  0
   -1.5803   -0.8195    0.3749 N   0  0  0  0  0  0  0  0  0  0  0  0
   -2.3603   -0.3345   -0.0451 H   0  0  0  0  0  0  0  0  0  0  0  0
   -0.2933   -0.1205    0.3719 C   0  0  1  0  0  0  0  0  0  0  0  0
    0.4439   -0.7485   -0.1303 H   0  0  0  0  0  0  0  0  0  0  0  0
   -0.4368    1.1924   -0.4246 C   0  0  0  0  0  0  0  0  0  0  0  0
   -1.3713    1.1478   -0.9864 H   0  0  0  0  0  0  0  0  0  0  0  0
   -0.4988    2.0305    0.2711 H   0  0  0  0  0  0  0  0  0  0  0  0
    0.7189    1.4560   -1.4054 C   0  0  0  0  0  0  0  0  0  0  0  0
    0.4847    1.0261   -2.3794 H   0  0  0  0  0  0  0  0  0  0  0  0
    0.8577    2.5310   -1.5143 H   0  0  0  0  0  0  0  0  0  0  0  0
    2.0352    0.8550   -0.9230 C   0  0  0  0  0  0  0  0  0  0  0  0
    2.2108    0.3389    0.1691 O   0  0  0  0  0  0  0  0  0  0  0  0
    3.0598    0.9296   -1.7926 O   0  0  0  0  0  0  0  0  0  0  0  0
    3.8030    0.5267   -1.3403 H   0  0  0  0  0  0  0  0  0  0  0  0
    0.1871    0.1189    1.8122 C   0  0  0  0  0  0  0  0  0  0  0  0
    1.3541   -0.1171    2.1187 O   0  0  0  0  0  0  0  0  0  0  0  0
   -0.7126    0.5740    2.6926 N   0  0  0  0  0  0  0  0  0  0  0  0
   -1.6464    0.7663    2.3621 H   0  0  0  0  0  0  0  0  0  0  0  0
   -0.4191    0.8310    4.1010 C   0  0  0  0  0  0  0  0  0  0  0  0
    0.4022    1.5452    4.1828 H   0  0  0  0  0  0  0  0  0  0  0  0
   -1.2983    1.2366    4.6035 H   0  0  0  0  0  0  0  0  0  0  0  0
   -0.1204   -0.0980    4.5907 H   0  0  0  0  0  0  0  0  0  0  0  0
  5  6  2  0  0  0  0
  5  7  1  0  0  0  0
  2  3  1  0  0  0  0
  2  4  1  0  0  0  0
  2  5  1  0  0  0  0
  1  2  1  0  0  0  0
 21 22  2  0  0  0  0
 21 23  1  0  0  0  0
 19 20  1  0  0  0  0
 17 18  2  0  0  0  0
 17 19  1  0  0  0  0
 14 15  1  0  0  0  0
 14 16  1  0  0  0  0
 14 17  1  0  0  0  0
 11 12  1  0  0  0  0
 11 13  1  0  0  0  0
 11 14  1  0  0  0  0
  9 10  1  0  0  0  0
  9 11  1  0  0  0  0
  9 21  1  0  0  0  0
  7  8  1  0  0  0  0
  7  9  1  0  0  0  0
 25 26  1  0  0  0  0
 25 27  1  0  0  0  0
 25 28  1  0  0  0  0
 23 24  1  0  0  0  0
 23 25  1  0  0  0  0
M  END
$$$$
default_name
  -OEChem-02102213163D

 28 27  0     1  0  0  0  0  0999 V2000
   -3.2133   -3.5565    1.2809 H   0  0  0  0  0  0  0  0  0  0  0  0
   -3.1873   -2.5755    0.8089 C   0  0  0  0  0  0  0  0  0  0  0  0
   -3.8793   -1.9065    1.3169 H   0  0  0  0  0  0  0  0  0  0  0  0
   -3.4623   -2.6685   -0.2401 H   0  0  0  0  0  0  0  0  0  0  0  0
   -1.7863   -2.0195    0.9119 C   0  0  0  0  0  0  0  0  0  0  0  0
   -0.9073   -2.6615    1.4699 O   0  0  0  0  0  0  0  0  0  0  0  0
   -1.5803   -0.8195    0.3749 N   0  0  0  0  0  0  0  0  0  0  0  0
   -2.3603   -0.3345   -0.0451 H   0  0  0  0  0  0  0  0  0  0  0  0
   -0.2933   -0.1205    0.3719 C   0  0  1  0  0  0  0  0  0  0  0  0
    0.4439   -0.7485   -0.1303 H   0  0  0  0  0  0  0  0  0  0  0  0
   -0.4368    1.1924   -0.4246 C   0  0  0  0  0  0  0  0  0  0  0  0
   -1.3713    1.1478   -0.9864 H   0  0  0  0  0  0  0  0  0  0  0  0
   -0.4988    2.0305    0.2711 H   0  0  0  0  0  0  0  0  0  0  0  0
    0.7189    1.4560   -1.4054 C   0  0  0  0  0  0  0  0  0  0  0  0
    0.3880    1.2709   -2.4274 H   0  0  0  0  0  0  0  0  0  0  0  0
    1.0347    2.4948   -1.3155 H   0  0  0  0  0  0  0  0  0  0  0  0
    1.9273    0.5679   -1.1272 C   0  0  0  0  0  0  0  0  0  0  0  0
    2.0436   -0.1757   -0.1663 O   0  0  0  0  0  0  0  0  0  0  0  0
    2.9250    0.6477   -2.0272 O   0  0  0  0  0  0  0  0  0  0  0  0
    3.6016    0.0492   -1.7059 H   0  0  0  0  0  0  0  0  0  0  0  0
    0.1871    0.1189    1.8122 C   0  0  0  0  0  0  0  0  0  0  0  0
    1.3541   -0.1171    2.1187 O   0  0  0  0  0  0  0  0  0  0  0  0
   -0.7126    0.5740    2.6926 N   0  0  0  0  0  0  0  0  0  0  0  0
   -1.6464    0.7663    2.3621 H   0  0  0  0  0  0  0  0  0  0  0  0
   -0.4191    0.8310    4.1010 C   0  0  0  0  0  0  0  0  0  0  0  0
    0.4022    1.5452    4.1828 H   0  0  0  0  0  0  0  0  0  0  0  0
   -1.2983    1.2366    4.6035 H   0  0  0  0  0  0  0  0  0  0  0  0
   -0.1204   -0.0980    4.5907 H   0  0  0  0  0  0  0  0  0  0  0  0
  5  6  2  0  0  0  0
  5  7  1  0  0  0  0
  2  3  1  0  0  0  0
  2  4  1  0  0  0  0
  2  5  1  0  0  0  0
  1  2  1  0  0  0  0
 21 22  2  0  0  0  0
 21 23  1  0  0  0  0
 19 20  1  0  0  0  0
 17 18  2  0  0  0  0
 17 19  1  0  0  0  0
 14 15  1  0  0  0  0
 14 16  1  0  0  0  0
 14 17  1  0  0  0  0
 11 12  1  0  0  0  0
 11 13  1  0  0  0  0
 11 14  1  0  0  0  0
  9 10  1  0  0  0  0
  9 11  1  0  0  0  0
  9 21  1  0  0  0  0
  7  8  1  0  0  0  0
  7  9  1  0  0  0  0
 25 26  1  0  0  0  0
 25 27  1  0  0  0  0
 25 28  1  0  0  0  0
 23 24  1  0  0  0  0
 23 25  1  0  0  0  0
M  END
$$$$
default_name
  -OEChem-02102213163D

 28 27  0     1  0  0  0  0  0999 V2000
   -3.2133   -3.5565    1.2809 H   0  0  0  0  0  0  0  0  0  0  0  0
   -3.1873   -2.5755    0.8089 C   0  0  0  0  0  0  0  0  0  0  0  0
   -3.8793   -1.9065    1.3169 H   0  0  0  0  0  0  0  0  0  0  0  0
   -3.4623   -2.6685   -0.2401 H   0  0  0  0  0  0  0  0  0  0  0  0
   -1.7863   -2.0195    0.9119 C   0  0  0  0  0  0  0  0  0  0  0  0
   -0.9073   -2.6615    1.4699 O   0  0  0  0  0  0  0  0  0  0  0  0
   -1.5803   -0.8195    0.3749 N   0  0  0  0  0  0  0  0  0  0  0  0
   -2.3603   -0.3345   -0.0451 H   0  0  0  0  0  0  0  0  0  0  0  0
   -0.2933   -0.1205    0.3719 C   0  0  1  0  0  0  0  0  0  0  0  0
    0.4439   -0.7485   -0.1303 H   0  0  0  0  0  0  0  0  0  0  0  0
   -0.4368    1.1924   -0.4246 C   0  0  0  0  0  0  0  0  0  0  0  0
   -1.3713    1.1478   -0.9864 H   0  0  0  0  0  0  0  0  0  0  0  0
   -0.4988    2.0305    0.2711 H   0  0  0  0  0  0  0  0  0  0  0  0
    0.7189    1.4560   -1.4054 C   0  0  0  0  0  0  0  0  0  0  0  0
    0.3329    1.5327   -2.4220 H   0  0  0  0  0  0  0  0  0  0  0  0
    1.2085    2.3919   -1.1384 H   0  0  0  0  0  0  0  0  0  0  0  0
    1.7668    0.3481   -1.3755 C   0  0  0  0  0  0  0  0  0  0  0  0
    1.7822   -0.5800   -0.5829 O   0  0  0  0  0  0  0  0  0  0  0  0
    2.7379    0.4433   -2.3025 O   0  0  0  0  0  0  0  0  0  0  0  0
    3.3121   -0.3078   -2.1430 H   0  0  0  0  0  0  0  0  0  0  0  0
    0.1871    0.1189    1.8122 C   0  0  0  0  0  0  0  0  0  0  0  0
    1.3541   -0.1171    2.1187 O   0  0  0  0  0  0  0  0  0  0  0  0
   -0.7126    0.5740    2.6926 N   0  0  0  0  0  0  0  0  0  0  0  0
   -1.6464    0.7663    2.3621 H   0  0  0  0  0  0  0  0  0  0  0  0
   -0.4191    0.8310    4.1010 C   0  0  0  0  0  0  0  0  0  0  0  0
    0.4022    1.5452    4.1828 H   0  0  0  0  0  0  0  0  0  0  0  0
   -1.2983    1.2366    4.6035 H   0  0  0  0  0  0  0  0  0  0  0  0
   -0.1204   -0.0980    4.5907 H   0  0  0  0  0  0  0  0  0  0  0  0
  5  6  2  0  0  0  0
  5  7  1  0  0  0  0
  2  3  1  0  0  0  0
  2  4  1  0  0  0  0
  2  5  1  0  0  0  0
  1  2  1  0  0  0  0
 21 22  2  0  0  0  0
 21 23  1  0  0  0  0
 19 20  1  0  0  0  0
 17 18  2  0  0  0  0
 17 19  1  0  0  0  0
 14 15  1  0  0  0  0
 14 16  1  0  0  0  0
 14 17  1  0  0  0  0
 11 12  1  0  0  0  0
 11 13  1  0  0  0  0
 11 14  1  0  0  0  0
  9 10  1  0  0  0  0
  9 11  1  0  0  0  0
  9 21  1  0  0  0  0
  7  8  1  0  0  0  0
  7  9  1  0  0  0  0
 25 26  1  0  0  0  0
 25 27  1  0  0  0  0
 25 28  1  0  0  0  0
 23 24  1  0  0  0  0
 23 25  1  0  0  0  0
M  END
$$$$
default_name
  -OEChem-02102213163D

 28 27  0     1  0  0  0  0  0999 V2000
   -3.2133   -3.5565    1.2809 H   0  0  0  0  0  0  0  0  0  0  0  0
   -3.1873   -2.5755    0.8089 C   0  0  0  0  0  0  0  0  0  0  0  0
   -3.8793   -1.9065    1.3169 H   0  0  0  0  0  0  0  0  0  0  0  0
   -3.4623   -2.6685   -0.2401 H   0  0  0  0  0  0  0  0  0  0  0  0
   -1.7863   -2.0195    0.9119 C   0  0  0  0  0  0  0  0  0  0  0  0
   -0.9073   -2.6615    1.4699 O   0  0  0  0  0  0  0  0  0  0  0  0
   -1.5803   -0.8195    0.3749 N   0  0  0  0  0  0  0  0  0  0  0  0
   -2.3603   -0.3345   -0.0451 H   0  0  0  0  0  0  0  0  0  0  0  0
   -0.2933   -0.1205    0.3719 C   0  0  1  0  0  0  0  0  0  0  0  0
    0.4439   -0.7485   -0.1303 H   0  0  0  0  0  0  0  0  0  0  0  0
   -0.4368    1.1924   -0.4246 C   0  0  0  0  0  0  0  0  0  0  0  0
   -1.3713    1.1478   -0.9864 H   0  0  0  0  0  0  0  0  0  0  0  0
   -0.4988    2.0305    0.2711 H   0  0  0  0  0  0  0  0  0  0  0  0
    0.7189    1.4560   -1.4054 C   0  0  0  0  0  0  0  0  0  0  0  0
    0.3232    1.7936   -2.3634 H   0  0  0  0  0  0  0  0  0  0  0  0
    1.3672    2.2294   -0.9950 H   0  0  0  0  0  0  0  0  0  0  0  0
    1.5644    0.2105   -1.6509 C   0  0  0  0  0  0  0  0  0  0  0  0
    1.4446   -0.8464   -1.0523 O   0  0  0  0  0  0  0  0  0  0  0  0
    2.5113    0.3303   -2.6000 O   0  0  0  0  0  0  0  0  0  0  0  0
    2.9542   -0.5198   -2.6217 H   0  0  0  0  0  0  0  0  0  0  0  0
    0.1871    0.1189    1.8122 C   0  0  0  0  0  0  0  0  0  0  0  0
    1.3541   -0.1171    2.1187 O   0  0  0  0  0  0  0  0  0  0  0  0
   -0.7126    0.5740    2.6926 N   0  0  0  0  0  0  0  0  0  0  0  0
   -1.6464    0.7663    2.3621 H   0  0  0  0  0  0  0  0  0  0  0  0
   -0.4191    0.8310    4.1010 C   0  0  0  0  0  0  0  0  0  0  0  0
    0.4022    1.5452    4.1828 H   0  0  0  0  0  0  0  0  0  0  0  0
   -1.2983    1.2366    4.6035 H   0  0  0  0  0  0  0  0  0  0  0  0
   -0.1204   -0.0980    4.5907 H   0  0  0  0  0  0  0  0  0  0  0  0
  5  6  2  0  0  0  0
  5  7  1  0  0  0  0
  2  3  1  0  0  0  0
  2  4  1  0  0  0  0
  2  5  1  0  0  0  0
  1  2  1  0  0  0  0
 21 22  2  0  0  0  0
 21 23  1  0  0  0  0
 19 20  1  0  0  0  0
 17 18  2  0  0  0  0
 17 19  1  0  0  0  0
 14 15  1  0  0  0  0
 14 16  1  0  0  0  0
 14 17  1  0  0  0  0
 11 12  1  0  0  0  0
 11 13  1  0  0  0  0
 11 14  1  0  0  0  0
  9 10  1  0  0  0  0
  9 11  1  0  0  0  0
  9 21  1  0  0  0  0
  7  8  1  0  0  0  0
  7  9  1  0  0  0  0
 25 26  1  0  0  0  0
 25 27  1  0  0  0  0
 25 28  1  0  0  0  0
 23 24  1  0  0  0  0
 23 25  1  0  0  0  0
M  END
$$$$
default_name
  -OEChem-02102213163D

 28 27  0     1  0  0  0  0  0999 V2000
   -3.2133   -3.5565    1.2809 H   0  0  0  0  0  0  0  0  0  0  0  0
   -3.1873   -2.5755    0.8089 C   0  0  0  0  0  0  0  0  0  0  0  0
   -3.8793   -1.9065    1.3169 H   0  0  0  0  0  0  0  0  0  0  0  0
   -3.4623   -2.6685   -0.2401 H   0  0  0  0  0  0  0  0  0  0  0  0
   -1.7863   -2.0195    0.9119 C   0  0  0  0  0  0  0  0  0  0  0  0
   -0.9073   -2.6615    1.4699 O   0  0  0  0  0  0  0  0  0  0  0  0
   -1.5803   -0.8195    0.3749 N   0  0  0  0  0  0  0  0  0  0  0  0
   -2.3603   -0.3345   -0.0451 H   0  0  0  0  0  0  0  0  0  0  0  0
   -0.2933   -0.1205    0.3719 C   0  0  1  0  0  0  0  0  0  0  0  0
    0.4439   -0.7485   -0.1303 H   0  0  0  0  0  0  0  0  0  0  0  0
   -0.4368    1.1924   -0.4246 C   0  0  0  0  0  0  0  0  0  0  0  0
   -1.3713    1.1478   -0.9864 H   0  0  0  0  0  0  0  0  0  0  0  0
   -0.4988    2.0305    0.2711 H   0  0  0  0  0  0  0  0  0  0  0  0
    0.7189    1.4560   -1.4054 C   0  0  0  0  0  0  0  0  0  0  0  0
    0.3594    2.0358   -2.2557 H   0  0  0  0  0  0  0  0  0  0  0  0
    1.5000    2.0184   -0.8952 H   0  0  0  0  0  0  0  0  0  0  0  0
    1.3340    0.1646   -1.9348 C   0  0  0  0  0  0  0  0  0  0  0  0
    1.0538   -0.9568   -1.5425 O   0  0  0  0  0  0  0  0  0  0  0  0
    2.2605    0.3163   -2.8992 O   0  0  0  0  0  0  0  0  0  0  0  0
    2.5522   -0.5725   -3.1095 H   0  0  0  0  0  0  0  0  0  0  0  0
    0.1871    0.1189    1.8122 C   0  0  0  0  0  0  0  0  0  0  0  0
    1.3541   -0.1171    2.1187 O   0  0  0  0  0  0  0  0  0  0  0  0
   -0.7126    0.5740    2.6926 N   0  0  0  0  0  0  0  0  0  0  0  0
   -1.6464    0.7663    2.3621 H   0  0  0  0  0  0  0  0  0  0  0  0
   -0.4191    0.8310    4.1010 C   0  0  0  0  0  0  0  0  0  0  0  0
    0.4022    1.5452    4.1828 H   0  0  0  0  0  0  0  0  0  0  0  0
   -1.2983    1.2366    4.6035 H   0  0  0  0  0  0  0  0  0  0  0  0
   -0.1204   -0.0980    4.5907 H   0  0  0  0  0  0  0  0  0  0  0  0
  5  6  2  0  0  0  0
  5  7  1  0  0  0  0
  2  3  1  0  0  0  0
  2  4  1  0  0  0  0
  2  5  1  0  0  0  0
  1  2  1  0  0  0  0
 21 22  2  0  0  0  0
 21 23  1  0  0  0  0
 19 20  1  0  0  0  0
 17 18  2  0  0  0  0
 17 19  1  0  0  0  0
 14 15  1  0  0  0  0
 14 16  1  0  0  0  0
 14 17  1  0  0  0  0
 11 12  1  0  0  0  0
 11 13  1  0  0  0  0
 11 14  1  0  0  0  0
  9 10  1  0  0  0  0
  9 11  1  0  0  0  0
  9 21  1  0  0  0  0
  7  8  1  0  0  0  0
  7  9  1  0  0  0  0
 25 26  1  0  0  0  0
 25 27  1  0  0  0  0
 25 28  1  0  0  0  0
 23 24  1  0  0  0  0
 23 25  1  0  0  0  0
M  END
$$$$
default_name
  -OEChem-02102213163D

 28 27  0     1  0  0  0  0  0999 V2000
   -3.2133   -3.5565    1.2809 H   0  0  0  0  0  0  0  0  0  0  0  0
   -3.1873   -2.5755    0.8089 C   0  0  0  0  0  0  0  0  0  0  0  0
   -3.8793   -1.9065    1.3169 H   0  0  0  0  0  0  0  0  0  0  0  0
   -3.4623   -2.6685   -0.2401 H   0  0  0  0  0  0  0  0  0  0  0  0
   -1.7863   -2.0195    0.9119 C   0  0  0  0  0  0  0  0  0  0  0  0
   -0.9073   -2.6615    1.4699 O   0  0  0  0  0  0  0  0  0  0  0  0
   -1.5803   -0.8195    0.3749 N   0  0  0  0  0  0  0  0  0  0  0  0
   -2.3603   -0.3345   -0.0451 H   0  0  0  0  0  0  0  0  0  0  0  0
   -0.2933   -0.1205    0.3719 C   0  0  1  0  0  0  0  0  0  0  0  0
    0.4439   -0.7485   -0.1303 H   0  0  0  0  0  0  0  0  0  0  0  0
   -0.4368    1.1924   -0.4246 C   0  0  0  0  0  0  0  0  0  0  0  0
   -1.3713    1.1478   -0.9864 H   0  0  0  0  0  0  0  0  0  0  0  0
   -0.4988    2.0305    0.2711 H   0  0  0  0  0  0  0  0  0  0  0  0
    0.7189    1.4560   -1.4054 C   0  0  0  0  0  0  0  0  0  0  0  0
    0.4391    2.2428   -2.1061 H   0  0  0  0  0  0  0  0  0  0  0  0
    1.5980    1.7732   -0.8457 H   0  0  0  0  0  0  0  0  0  0  0  0
    1.0912    0.2134   -2.2077 C   0  0  0  0  0  0  0  0  0  0  0  0
    0.6362   -0.9036   -2.0202 O   0  0  0  0  0  0  0  0  0  0  0  0
    2.0027    0.4024   -3.1799 O   0  0  0  0  0  0  0  0  0  0  0  0
    2.1336   -0.4622   -3.5730 H   0  0  0  0  0  0  0  0  0  0  0  0
    0.1871    0.1189    1.8122 C   0  0  0  0  0  0  0  0  0  0  0  0
    1.3541   -0.1171    2.1187 O   0  0  0  0  0  0  0  0  0  0  0  0
   -0.7126    0.5740    2.6926 N   0  0  0  0  0  0  0  0  0  0  0  0
   -1.6464    0.7663    2.3621 H   0  0  0  0  0  0  0  0  0  0  0  0
   -0.4191    0.8310    4.1010 C   0  0  0  0  0  0  0  0  0  0  0  0
    0.4022    1.5452    4.1828 H   0  0  0  0  0  0  0  0  0  0  0  0
   -1.2983    1.2366    4.6035 H   0  0  0  0  0  0  0  0  0  0  0  0
   -0.1204   -0.0980    4.5907 H   0  0  0  0  0  0  0  0  0  0  0  0
  5  6  2  0  0  0  0
  5  7  1  0  0  0  0
  2  3  1  0  0  0  0
  2  4  1  0  0  0  0
  2  5  1  0  0  0  0
  1  2  1  0  0  0  0
 21 22  2  0  0  0  0
 21 23  1  0  0  0  0
 19 20  1  0  0  0  0
 17 18  2  0  0  0  0
 17 19  1  0  0  0  0
 14 15  1  0  0  0  0
 14 16  1  0  0  0  0
 14 17  1  0  0  0  0
 11 12  1  0  0  0  0
 11 13  1  0  0  0  0
 11 14  1  0  0  0  0
  9 10  1  0  0  0  0
  9 11  1  0  0  0  0
  9 21  1  0  0  0  0
  7  8  1  0  0  0  0
  7  9  1  0  0  0  0
 25 26  1  0  0  0  0
 25 27  1  0  0  0  0
 25 28  1  0  0  0  0
 23 24  1  0  0  0  0
 23 25  1  0  0  0  0
M  END
$$$$
default_name
  -OEChem-02102213163D

 28 27  0     1  0  0  0  0  0999 V2000
   -3.2133   -3.5565    1.2809 H   0  0  0  0  0  0  0  0  0  0  0  0
   -3.1873   -2.5755    0.8089 C   0  0  0  0  0  0  0  0  0  0  0  0
   -3.8793   -1.9065    1.3169 H   0  0  0  0  0  0  0  0  0  0  0  0
   -3.4623   -2.6685   -0.2401 H   0  0  0  0  0  0  0  0  0  0  0  0
   -1.7863   -2.0195    0.9119 C   0  0  0  0  0  0  0  0  0  0  0  0
   -0.9073   -2.6615    1.4699 O   0  0  0  0  0  0  0  0  0  0  0  0
   -1.5803   -0.8195    0.3749 N   0  0  0  0  0  0  0  0  0  0  0  0
   -2.3603   -0.3345   -0.0451 H   0  0  0  0  0  0  0  0  0  0  0  0
   -0.2933   -0.1205    0.3719 C   0  0  1  0  0  0  0  0  0  0  0  0
    0.4439   -0.7485   -0.1303 H   0  0  0  0  0  0  0  0  0  0  0  0
   -0.4368    1.1924   -0.4246 C   0  0  0  0  0  0  0  0  0  0  0  0
   -1.3713    1.1478   -0.9864 H   0  0  0  0  0  0  0  0  0  0  0  0
   -0.4988    2.0305    0.2711 H   0  0  0  0  0  0  0  0  0  0  0  0
    0.7189    1.4560   -1.4054 C   0  0  0  0  0  0  0  0  0  0  0  0
    0.5569    2.4006   -1.9249 H   0  0  0  0  0  0  0  0  0  0  0  0
    1.6544    1.5106   -0.8498 H   0  0  0  0  0  0  0  0  0  0  0  0
    0.8527    0.3536   -2.4510 C   0  0  0  0  0  0  0  0  0  0  0  0
    0.2206   -0.6905   -2.4527 O   0  0  0  0  0  0  0  0  0  0  0  0
    1.7554    0.5827   -3.4228 O   0  0  0  0  0  0  0  0  0  0  0  0
    1.7269   -0.1965   -3.9808 H   0  0  0  0  0  0  0  0  0  0  0  0
    0.1871    0.1189    1.8122 C   0  0  0  0  0  0  0  0  0  0  0  0
    1.3541   -0.1171    2.1187 O   0  0  0  0  0  0  0  0  0  0  0  0
   -0.7126    0.5740    2.6926 N   0  0  0  0  0  0  0  0  0  0  0  0
   -1.6464    0.7663    2.3621 H   0  0  0  0  0  0  0  0  0  0  0  0
   -0.4191    0.8310    4.1010 C   0  0  0  0  0  0  0  0  0  0  0  0
    0.4022    1.5452    4.1828 H   0  0  0  0  0  0  0  0  0  0  0  0
   -1.2983    1.2366    4.6035 H   0  0  0  0  0  0  0  0  0  0  0  0
   -0.1204   -0.0980    4.5907 H   0  0  0  0  0  0  0  0  0  0  0  0
  5  6  2  0  0  0  0
  5  7  1  0  0  0  0
  2  3  1  0  0  0  0
  2  4  1  0  0  0  0
  2  5  1  0  0  0  0
  1  2  1  0  0  0  0
 21 22  2  0  0  0  0
 21 23  1  0  0  0  0
 19 20  1  0  0  0  0
 17 18  2  0  0  0  0
 17 19  1  0  0  0  0
 14 15  1  0  0  0  0
 14 16  1  0  0  0  0
 14 17  1  0  0  0  0
 11 12  1  0  0  0  0
 11 13  1  0  0  0  0
 11 14  1  0  0  0  0
  9 10  1  0  0  0  0
  9 11  1  0  0  0  0
  9 21  1  0  0  0  0
  7  8  1  0  0  0  0
  7  9  1  0  0  0  0
 25 26  1  0  0  0  0
 25 27  1  0  0  0  0
 25 28  1  0  0  0  0
 23 24  1  0  0  0  0
 23 25  1  0  0  0  0
M  END
$$$$
default_name
  -OEChem-02102213163D

 28 27  0     1  0  0  0  0  0999 V2000
   -3.2133   -3.5565    1.2809 H   0  0  0  0  0  0  0  0  0  0  0  0
   -3.1873   -2.5755    0.8089 C   0  0  0  0  0  0  0  0  0  0  0  0
   -3.8793   -1.9065    1.3169 H   0  0  0  0  0  0  0  0  0  0  0  0
   -3.4623   -2.6685   -0.2401 H   0  0  0  0  0  0  0  0  0  0  0  0
   -1.7863   -2.0195    0.9119 C   0  0  0  0  0  0  0  0  0  0  0  0
   -0.9073   -2.6615    1.4699 O   0  0  0  0  0  0  0  0  0  0  0  0
   -1.5803   -0.8195    0.3749 N   0  0  0  0  0  0  0  0  0  0  0  0
   -2.3603   -0.3345   -0.0451 H   0  0  0  0  0  0  0  0  0  0  0  0
   -0.2933   -0.1205    0.3719 C   0  0  1  0  0  0  0  0  0  0  0  0
    0.4439   -0.7485   -0.1303 H   0  0  0  0  0  0  0  0  0  0  0  0
   -0.4368    1.1924   -0.4246 C   0  0  0  0  0  0  0  0  0  0  0  0
   -1.3713    1.1478   -0.9864 H   0  0  0  0  0  0  0  0  0  0  0  0
   -0.4988    2.0305    0.2711 H   0  0  0  0  0  0  0  0  0  0  0  0
    0.7189    1.4560   -1.4054 C   0  0  0  0  0  0  0  0  0  0  0  0
    0.7047    2.4983   -1.7245 H   0  0  0  0  0  0  0  0  0  0  0  0
    1.6653    1.2485   -0.9074 H   0  0  0  0  0  0  0  0  0  0  0  0
    0.6347    0.5758   -2.6482 C   0  0  0  0  0  0  0  0  0  0  0  0
   -0.1650   -0.3320   -2.8106 O   0  0  0  0  0  0  0  0  0  0  0  0
    1.5355    0.8448   -3.6114 O   0  0  0  0  0  0  0  0  0  0  0  0
    1.3599    0.2065   -4.3050 H   0  0  0  0  0  0  0  0  0  0  0  0
    0.1871    0.1189    1.8122 C   0  0  0  0  0  0  0  0  0  0  0  0
    1.3541   -0.1171    2.1187 O   0  0  0  0  0  0  0  0  0  0  0  0
   -0.7126    0.5740    2.6926 N   0  0  0  0  0  0  0  0  0  0  0  0
   -1.6464    0.7663    2.3621 H   0  0  0  0  0  0  0  0  0  0  0  0
   -0.4191    0.8310    4.1010 C   0  0  0  0  0  0  0  0  0  0  0  0
    0.4022    1.5452    4.1828 H   0  0  0  0  0  0  0  0  0  0  0  0
   -1.2983    1.2366    4.6035 H   0  0  0  0  0  0  0  0  0  0  0  0
   -0.1204   -0.0980    4.5907 H   0  0  0  0  0  0  0  0  0  0  0  0
  5  6  2  0  0  0  0
  5  7  1  0  0  0  0
  2  3  1  0  0  0  0
  2  4  1  0  0  0  0
  2  5  1  0  0  0  0
  1  2  1  0  0  0  0
 21 22  2  0  0  0  0
 21 23  1  0  0  0  0
 19 20  1  0  0  0  0
 17 18  2  0  0  0  0
 17 19  1  0  0  0  0
 14 15  1  0  0  0  0
 14 16  1  0  0  0  0
 14 17  1  0  0  0  0
 11 12  1  0  0  0  0
 11 13  1  0  0  0  0
 11 14  1  0  0  0  0
  9 10  1  0  0  0  0
  9 11  1  0  0  0  0
  9 21  1  0  0  0  0
  7  8  1  0  0  0  0
  7  9  1  0  0  0  0
 25 26  1  0  0  0  0
 25 27  1  0  0  0  0
 25 28  1  0  0  0  0
 23 24  1  0  0  0  0
 23 25  1  0  0  0  0
M  END
$$$$
default_name
  -OEChem-02102213163D

 28 27  0     1  0  0  0  0  0999 V2000
   -3.2133   -3.5565    1.2809 H   0  0  0  0  0  0  0  0  0  0  0  0
   -3.1873   -2.5755    0.8089 C   0  0  0  0  0  0  0  0  0  0  0  0
   -3.8793   -1.9065    1.3169 H   0  0  0  0  0  0  0  0  0  0  0  0
   -3.4623   -2.6685   -0.2401 H   0  0  0  0  0  0  0  0  0  0  0  0
   -1.7863   -2.0195    0.9119 C   0  0  0  0  0  0  0  0  0  0  0  0
   -0.9073   -2.6615    1.4699 O   0  0  0  0  0  0  0  0  0  0  0  0
   -1.5803   -0.8195    0.3749 N   0  0  0  0  0  0  0  0  0  0  0  0
   -2.3603   -0.3345   -0.0451 H   0  0  0  0  0  0  0  0  0  0  0  0
   -0.2933   -0.1205    0.3719 C   0  0  1  0  0  0  0  0  0  0  0  0
    0.4439   -0.7485   -0.1303 H   0  0  0  0  0  0  0  0  0  0  0  0
   -0.4368    1.1924   -0.4246 C   0  0  0  0  0  0  0  0  0  0  0  0
   -1.3713    1.1478   -0.9864 H   0  0  0  0  0  0  0  0  0  0  0  0
   -0.4988    2.0305    0.2711 H   0  0  0  0  0  0  0  0  0  0  0  0
    0.7189    1.4560   -1.4054 C   0  0  0  0  0  0  0  0  0  0  0  0
    0.8725    2.5293   -1.5184 H   0  0  0  0  0  0  0  0  0  0  0  0
    1.6300    1.0047   -1.0145 H   0  0  0  0  0  0  0  0  0  0  0  0
    0.4520    0.8646   -2.7858 C   0  0  0  0  0  0  0  0  0  0  0  0
   -0.4941    0.1476   -3.0695 O   0  0  0  0  0  0  0  0  0  0  0  0
    1.3580    1.1709   -3.7329 O   0  0  0  0  0  0  0  0  0  0  0  0
    1.0575    0.7194   -4.5235 H   0  0  0  0  0  0  0  0  0  0  0  0
    0.1871    0.1189    1.8122 C   0  0  0  0  0  0  0  0  0  0  0  0
    1.3541   -0.1171    2.1187 O   0  0  0  0  0  0  0  0  0  0  0  0
   -0.7126    0.5740    2.6926 N   0  0  0  0  0  0  0  0  0  0  0  0
   -1.6464    0.7663    2.3621 H   0  0  0  0  0  0  0  0  0  0  0  0
   -0.4191    0.8310    4.1010 C   0  0  0  0  0  0  0  0  0  0  0  0
    0.4022    1.5452    4.1828 H   0  0  0  0  0  0  0  0  0  0  0  0
   -1.2983    1.2366    4.6035 H   0  0  0  0  0  0  0  0  0  0  0  0
   -0.1204   -0.0980    4.5907 H   0  0  0  0  0  0  0  0  0  0  0  0
  5  6  2  0  0  0  0
  5  7  1  0  0  0  0
  2  3  1  0  0  0  0
  2  4  1  0  0  0  0
  2  5  1  0  0  0  0
  1  2  1  0  0  0  0
 21 22  2  0  0  0  0
 21 23  1  0  0  0  0
 19 20  1  0  0  0  0
 17 18  2  0  0  0  0
 17 19  1  0  0  0  0
 14 15  1  0  0  0  0
 14 16  1  0  0  0  0
 14 17  1  0  0  0  0
 11 12  1  0  0  0  0
 11 13  1  0  0  0  0
 11 14  1  0  0  0  0
  9 10  1  0  0  0  0
  9 11  1  0  0  0  0
  9 21  1  0  0  0  0
  7  8  1  0  0  0  0
  7  9  1  0  0  0  0
 25 26  1  0  0  0  0
 25 27  1  0  0  0  0
 25 28  1  0  0  0  0
 23 24  1  0  0  0  0
 23 25  1  0  0  0  0
M  END
$$$$
default_name
  -OEChem-02102213163D

 28 27  0     1  0  0  0  0  0999 V2000
   -3.2133   -3.5565    1.2809 H   0  0  0  0  0  0  0  0  0  0  0  0
   -3.1873   -2.5755    0.8089 C   0  0  0  0  0  0  0  0  0  0  0  0
   -3.8793   -1.9065    1.3169 H   0  0  0  0  0  0  0  0  0  0  0  0
   -3.4623   -2.6685   -0.2401 H   0  0  0  0  0  0  0  0  0  0  0  0
   -1.7863   -2.0195    0.9119 C   0  0  0  0  0  0  0  0  0  0  0  0
   -0.9073   -2.6615    1.4699 O   0  0  0  0  0  0  0  0  0  0  0  0
   -1.5803   -0.8195    0.3749 N   0  0  0  0  0  0  0  0  0  0  0  0
   -2.3603   -0.3345   -0.0451 H   0  0  0  0  0  0  0  0  0  0  0  0
   -0.2933   -0.1205    0.3719 C   0  0  1  0  0  0  0  0  0  0  0  0
    0.4439   -0.7485   -0.1303 H   0  0  0  0  0  0  0  0  0  0  0  0
   -0.4368    1.1924   -0.4246 C   0  0  0  0  0  0  0  0  0  0  0  0
   -1.3713    1.1478   -0.9864 H   0  0  0  0  0  0  0  0  0  0  0  0
   -0.4988    2.0305    0.2711 H   0  0  0  0  0  0  0  0  0  0  0  0
    0.7189    1.4560   -1.4054 C   0  0  0  0  0  0  0  0  0  0  0  0
    1.0488    2.4915   -1.3208 H   0  0  0  0  0  0  0  0  0  0  0  0
    1.5510    0.7958   -1.1637 H   0  0  0  0  0  0  0  0  0  0  0  0
    0.3171    1.2006   -2.8545 C   0  0  0  0  0  0  0  0  0  0  0  0
   -0.7444    0.7154   -3.2118 O   0  0  0  0  0  0  0  0  0  0  0  0
    1.2350    1.5388   -3.7790 O   0  0  0  0  0  0  0  0  0  0  0  0
    0.8403    1.3072   -4.6214 H   0  0  0  0  0  0  0  0  0  0  0  0
    0.1871    0.1189    1.8122 C   0  0  0  0  0  0  0  0  0  0  0  0
    1.3541   -0.1171    2.1187 O   0  0  0  0  0  0  0  0  0  0  0  0
   -0.7126    0.5740    2.6926 N   0  0  0  0  0  0  0  0  0  0  0  0
   -1.6464    0.7663    2.3621 H   0  0  0  0  0  0  0  0  0  0  0  0
   -0.4191    0.8310    4.1010 C   0  0  0  0  0  0  0  0  0  0  0  0
    0.4022    1.5452    4.1828 H   0  0  0  0  0  0  0  0  0  0  0  0
   -1.2983    1.2366    4.6035 H   0  0  0  0  0  0  0  0  0  0  0  0
   -0.1204   -0.0980    4.5907 H   0  0  0  0  0  0  0  0  0  0  0  0
  5  6  2  0  0  0  0
  5  7  1  0  0  0  0
  2  3  1  0  0  0  0
  2  4  1  0  0  0  0
  2  5  1  0  0  0  0
  1  2  1  0  0  0  0
 21 22  2  0  0  0  0
 21 23  1  0  0  0  0
 19 20  1  0  0  0  0
 17 18  2  0  0  0  0
 17 19  1  0  0  0  0
 14 15  1  0  0  0  0
 14 16  1  0  0  0  0
 14 17  1  0  0  0  0
 11 12  1  0  0  0  0
 11 13  1  0  0  0  0
 11 14  1  0  0  0  0
  9 10  1  0  0  0  0
  9 11  1  0  0  0  0
  9 21  1  0  0  0  0
  7  8  1  0  0  0  0
  7  9  1  0  0  0  0
 25 26  1  0  0  0  0
 25 27  1  0  0  0  0
 25 28  1  0  0  0  0
 23 24  1  0  0  0  0
 23 25  1  0  0  0  0
M  END
$$$$
default_name
  -OEChem-02102213163D

 28 27  0     1  0  0  0  0  0999 V2000
   -3.2133   -3.5565    1.2809 H   0  0  0  0  0  0  0  0  0  0  0  0
   -3.1873   -2.5755    0.8089 C   0  0  0  0  0  0  0  0  0  0  0  0
   -3.8793   -1.9065    1.3169 H   0  0  0  0  0  0  0  0  0  0  0  0
   -3.4623   -2.6685   -0.2401 H   0  0  0  0  0  0  0  0  0  0  0  0
   -1.7863   -2.0195    0.9119 C   0  0  0  0  0  0  0  0  0  0  0  0
   -0.9073   -2.6615    1.4699 O   0  0  0  0  0  0  0  0  0  0  0  0
   -1.5803   -0.8195    0.3749 N   0  0  0  0  0  0  0  0  0  0  0  0
   -2.3603   -0.3345   -0.0451 H   0  0  0  0  0  0  0  0  0  0  0  0
   -0.2933   -0.1205    0.3719 C   0  0  1  0  0  0  0  0  0  0  0  0
    0.4439   -0.7485   -0.1303 H   0  0  0  0  0  0  0  0  0  0  0  0
   -0.4368    1.1924   -0.4246 C   0  0  0  0  0  0  0  0  0  0  0  0
   -1.3713    1.1478   -0.9864 H   0  0  0  0  0  0  0  0  0  0  0  0
   -0.4988    2.0305    0.2711 H   0  0  0  0  0  0  0  0  0  0  0  0
    0.7189    1.4560   -1.4054 C   0  0  0  0  0  0  0  0  0  0  0  0
    1.2217    2.3875   -1.1450 H   0  0  0  0  0  0  0  0  0  0  0  0
    1.4336    0.6361   -1.3450 H   0  0  0  0  0  0  0  0  0  0  0  0
    0.2392    1.5606   -2.8495 C   0  0  0  0  0  0  0  0  0  0  0  0
   -0.8987    1.3328   -3.2278 O   0  0  0  0  0  0  0  0  0  0  0  0
    1.1749    1.9235   -3.7465 O   0  0  0  0  0  0  0  0  0  0  0  0
    0.7231    1.9299   -4.5921 H   0  0  0  0  0  0  0  0  0  0  0  0
    0.1871    0.1189    1.8122 C   0  0  0  0  0  0  0  0  0  0  0  0
    1.3541   -0.1171    2.1187 O   0  0  0  0  0  0  0  0  0  0  0  0
   -0.7126    0.5740    2.6926 N   0  0  0  0  0  0  0  0  0  0  0  0
   -1.6464    0.7663    2.3621 H   0  0  0  0  0  0  0  0  0  0  0  0
   -0.4191    0.8310    4.1010 C   0  0  0  0  0  0  0  0  0  0  0  0
    0.4022    1.5452    4.1828 H   0  0  0  0  0  0  0  0  0  0  0  0
   -1.2983    1.2366    4.6035 H   0  0  0  0  0  0  0  0  0  0  0  0
   -0.1204   -0.0980    4.5907 H   0  0  0  0  0  0  0  0  0  0  0  0
  5  6  2  0  0  0  0
  5  7  1  0  0  0  0
  2  3  1  0  0  0  0
  2  4  1  0  0  0  0
  2  5  1  0  0  0  0
  1  2  1  0  0  0  0
 21 22  2  0  0  0  0
 21 23  1  0  0  0  0
 19 20  1  0  0  0  0
 17 18  2  0  0  0  0
 17 19  1  0  0  0  0
 14 15  1  0  0  0  0
 14 16  1  0  0  0  0
 14 17  1  0  0  0  0
 11 12  1  0  0  0  0
 11 13  1  0  0  0  0
 11 14  1  0  0  0  0
  9 10  1  0  0  0  0
  9 11  1  0  0  0  0
  9 21  1  0  0  0  0
  7  8  1  0  0  0  0
  7  9  1  0  0  0  0
 25 26  1  0  0  0  0
 25 27  1  0  0  0  0
 25 28  1  0  0  0  0
 23 24  1  0  0  0  0
 23 25  1  0  0  0  0
M  END
$$$$
default_name
  -OEChem-02102213163D

 28 27  0     1  0  0  0  0  0999 V2000
   -3.2133   -3.5565    1.2809 H   0  0  0  0  0  0  0  0  0  0  0  0
   -3.1873   -2.5755    0.8089 C   0  0  0  0  0  0  0  0  0  0  0  0
   -3.8793   -1.9065    1.3169 H   0  0  0  0  0  0  0  0  0  0  0  0
   -3.4623   -2.6685   -0.2401 H   0  0  0  0  0  0  0  0  0  0  0  0
   -1.7863   -2.0195    0.9119 C   0  0  0  0  0  0  0  0  0  0  0  0
   -0.9073   -2.6615    1.4699 O   0  0  0  0  0  0  0  0  0  0  0  0
   -1.5803   -0.8195    0.3749 N   0  0  0  0  0  0  0  0  0  0  0  0
   -2.3603   -0.3345   -0.0451 H   0  0  0  0  0  0  0  0  0  0  0  0
   -0.2933   -0.1205    0.3719 C   0  0  1  0  0  0  0  0  0  0  0  0
    0.4439   -0.7485   -0.1303 H   0  0  0  0  0  0  0  0  0  0  0  0
   -0.4368    1.1924   -0.4246 C   0  0  0  0  0  0  0  0  0  0  0  0
   -1.3713    1.1478   -0.9864 H   0  0  0  0  0  0  0  0  0  0  0  0
   -0.4988    2.0305    0.2711 H   0  0  0  0  0  0  0  0  0  0  0  0
    0.7189    1.4560   -1.4054 C   0  0  0  0  0  0  0  0  0  0  0  0
    1.3793    2.2244   -1.0032 H   0  0  0  0  0  0  0  0  0  0  0  0
    1.2858    0.5365   -1.5459 H   0  0  0  0  0  0  0  0  0  0  0  0
    0.2236    1.9204   -2.7713 C   0  0  0  0  0  0  0  0  0  0  0  0
   -0.9467    1.9578   -3.1163 O   0  0  0  0  0  0  0  0  0  0  0  0
    1.1817    2.2986   -3.6376 O   0  0  0  0  0  0  0  0  0  0  0  0
    0.7140    2.5449   -4.4376 H   0  0  0  0  0  0  0  0  0  0  0  0
    0.1871    0.1189    1.8122 C   0  0  0  0  0  0  0  0  0  0  0  0
    1.3541   -0.1171    2.1187 O   0  0  0  0  0  0  0  0  0  0  0  0
   -0.7126    0.5740    2.6926 N   0  0  0  0  0  0  0  0  0  0  0  0
   -1.6464    0.7663    2.3621 H   0  0  0  0  0  0  0  0  0  0  0  0
   -0.4191    0.8310    4.1010 C   0  0  0  0  0  0  0  0  0  0  0  0
    0.4022    1.5452    4.1828 H   0  0  0  0  0  0  0  0  0  0  0  0
   -1.2983    1.2366    4.6035 H   0  0  0  0  0  0  0  0  0  0  0  0
   -0.1204   -0.0980    4.5907 H   0  0  0  0  0  0  0  0  0  0  0  0
  5  6  2  0  0  0  0
  5  7  1  0  0  0  0
  2  3  1  0  0  0  0
  2  4  1  0  0  0  0
  2  5  1  0  0  0  0
  1  2  1  0  0  0  0
 21 22  2  0  0  0  0
 21 23  1  0  0  0  0
 19 20  1  0  0  0  0
 17 18  2  0  0  0  0
 17 19  1  0  0  0  0
 14 15  1  0  0  0  0
 14 16  1  0  0  0  0
 14 17  1  0  0  0  0
 11 12  1  0  0  0  0
 11 13  1  0  0  0  0
 11 14  1  0  0  0  0
  9 10  1  0  0  0  0
  9 11  1  0  0  0  0
  9 21  1  0  0  0  0
  7  8  1  0  0  0  0
  7  9  1  0  0  0  0
 25 26  1  0  0  0  0
 25 27  1  0  0  0  0
 25 28  1  0  0  0  0
 23 24  1  0  0  0  0
 23 25  1  0  0  0  0
M  END
$$$$
default_name
  -OEChem-02102213163D

 28 27  0     1  0  0  0  0  0999 V2000
   -3.2133   -3.5565    1.2809 H   0  0  0  0  0  0  0  0  0  0  0  0
   -3.1873   -2.5755    0.8089 C   0  0  0  0  0  0  0  0  0  0  0  0
   -3.8793   -1.9065    1.3169 H   0  0  0  0  0  0  0  0  0  0  0  0
   -3.4623   -2.6685   -0.2401 H   0  0  0  0  0  0  0  0  0  0  0  0
   -1.7863   -2.0195    0.9119 C   0  0  0  0  0  0  0  0  0  0  0  0
   -0.9073   -2.6615    1.4699 O   0  0  0  0  0  0  0  0  0  0  0  0
   -1.5803   -0.8195    0.3749 N   0  0  0  0  0  0  0  0  0  0  0  0
   -2.3603   -0.3345   -0.0451 H   0  0  0  0  0  0  0  0  0  0  0  0
   -0.2933   -0.1205    0.3719 C   0  0  1  0  0  0  0  0  0  0  0  0
    0.4439   -0.7485   -0.1303 H   0  0  0  0  0  0  0  0  0  0  0  0
   -0.4368    1.1924   -0.4246 C   0  0  0  0  0  0  0  0  0  0  0  0
   -1.3713    1.1478   -0.9864 H   0  0  0  0  0  0  0  0  0  0  0  0
   -0.4988    2.0305    0.2711 H   0  0  0  0  0  0  0  0  0  0  0  0
    0.7189    1.4560   -1.4054 C   0  0  0  0  0  0  0  0  0  0  0  0
    1.5109    2.0132   -0.9049 H   0  0  0  0  0  0  0  0  0  0  0  0
    1.1177    0.5037   -1.7528 H   0  0  0  0  0  0  0  0  0  0  0  0
    0.2713    2.2552   -2.6251 C   0  0  0  0  0  0  0  0  0  0  0  0
   -0.8849    2.5477   -2.8850 O   0  0  0  0  0  0  0  0  0  0  0  0
    1.2549    2.6387   -3.4599 O   0  0  0  0  0  0  0  0  0  0  0  0
    0.8135    3.1105   -4.1683 H   0  0  0  0  0  0  0  0  0  0  0  0
    0.1871    0.1189    1.8122 C   0  0  0  0  0  0  0  0  0  0  0  0
    1.3541   -0.1171    2.1187 O   0  0  0  0  0  0  0  0  0  0  0  0
   -0.7126    0.5740    2.6926 N   0  0  0  0  0  0  0  0  0  0  0  0
   -1.6464    0.7663    2.3621 H   0  0  0  0  0  0  0  0  0  0  0  0
   -0.4191    0.8310    4.1010 C   0  0  0  0  0  0  0  0  0  0  0  0
    0.4022    1.5452    4.1828 H   0  0  0  0  0  0  0  0  0  0  0  0
   -1.2983    1.2366    4.6035 H   0  0  0  0  0  0  0  0  0  0  0  0
   -0.1204   -0.0980    4.5907 H   0  0  0  0  0  0  0  0  0  0  0  0
  5  6  2  0  0  0  0
  5  7  1  0  0  0  0
  2  3  1  0  0  0  0
  2  4  1  0  0  0  0
  2  5  1  0  0  0  0
  1  2  1  0  0  0  0
 21 22  2  0  0  0  0
 21 23  1  0  0  0  0
 19 20  1  0  0  0  0
 17 18  2  0  0  0  0
 17 19  1  0  0  0  0
 14 15  1  0  0  0  0
 14 16  1  0  0  0  0
 14 17  1  0  0  0  0
 11 12  1  0  0  0  0
 11 13  1  0  0  0  0
 11 14  1  0  0  0  0
  9 10  1  0  0  0  0
  9 11  1  0  0  0  0
  9 21  1  0  0  0  0
  7  8  1  0  0  0  0
  7  9  1  0  0  0  0
 25 26  1  0  0  0  0
 25 27  1  0  0  0  0
 25 28  1  0  0  0  0
 23 24  1  0  0  0  0
 23 25  1  0  0  0  0
M  END
$$$$
default_name
  -OEChem-02102213163D

 28 27  0     1  0  0  0  0  0999 V2000
   -3.2133   -3.5565    1.2809 H   0  0  0  0  0  0  0  0  0  0  0  0
   -3.1873   -2.5755    0.8089 C   0  0  0  0  0  0  0  0  0  0  0  0
   -3.8793   -1.9065    1.3169 H   0  0  0  0  0  0  0  0  0  0  0  0
   -3.4623   -2.6685   -0.2401 H   0  0  0  0  0  0  0  0  0  0  0  0
   -1.7863   -2.0195    0.9119 C   0  0  0  0  0  0  0  0  0  0  0  0
   -0.9073   -2.6615    1.4699 O   0  0  0  0  0  0  0  0  0  0  0  0
   -1.5803   -0.8195    0.3749 N   0  0  0  0  0  0  0  0  0  0  0  0
   -2.3603   -0.3345   -0.0451 H   0  0  0  0  0  0  0  0  0  0  0  0
   -0.2933   -0.1205    0.3719 C   0  0  1  0  0  0  0  0  0  0  0  0
    0.4439   -0.7485   -0.1303 H   0  0  0  0  0  0  0  0  0  0  0  0
   -0.4368    1.1924   -0.4246 C   0  0  0  0  0  0  0  0  0  0  0  0
   -1.3713    1.1478   -0.9864 H   0  0  0  0  0  0  0  0  0  0  0  0
   -0.4988    2.0305    0.2711 H   0  0  0  0  0  0  0  0  0  0  0  0
    0.7189    1.4560   -1.4054 C   0  0  0  0  0  0  0  0  0  0  0  0
    1.6076    1.7684   -0.8568 H   0  0  0  0  0  0  0  0  0  0  0  0
    0.9407    0.5400   -1.9516 H   0  0  0  0  0  0  0  0  0  0  0  0
    0.3791    2.5423   -2.4208 C   0  0  0  0  0  0  0  0  0  0  0  0
   -0.7177    3.0623   -2.5496 O   0  0  0  0  0  0  0  0  0  0  0  0
    1.3897    2.9206   -3.2253 O   0  0  0  0  0  0  0  0  0  0  0  0
    1.0149    3.5880   -3.8027 H   0  0  0  0  0  0  0  0  0  0  0  0
    0.1871    0.1189    1.8122 C   0  0  0  0  0  0  0  0  0  0  0  0
    1.3541   -0.1171    2.1187 O   0  0  0  0  0  0  0  0  0  0  0  0
   -0.7126    0.5740    2.6926 N   0  0  0  0  0  0  0  0  0  0  0  0
   -1.6464    0.7663    2.3621 H   0  0  0  0  0  0  0  0  0  0  0  0
   -0.4191    0.8310    4.1010 C   0  0  0  0  0  0  0  0  0  0  0  0
    0.4022    1.5452    4.1828 H   0  0  0  0  0  0  0  0  0  0  0  0
   -1.2983    1.2366    4.6035 H   0  0  0  0  0  0  0  0  0  0  0  0
   -0.1204   -0.0980    4.5907 H   0  0  0  0  0  0  0  0  0  0  0  0
  5  6  2  0  0  0  0
  5  7  1  0  0  0  0
  2  3  1  0  0  0  0
  2  4  1  0  0  0  0
  2  5  1  0  0  0  0
  1  2  1  0  0  0  0
 21 22  2  0  0  0  0
 21 23  1  0  0  0  0
 19 20  1  0  0  0  0
 17 18  2  0  0  0  0
 17 19  1  0  0  0  0
 14 15  1  0  0  0  0
 14 16  1  0  0  0  0
 14 17  1  0  0  0  0
 11 12  1  0  0  0  0
 11 13  1  0  0  0  0
 11 14  1  0  0  0  0
  9 10  1  0  0  0  0
  9 11  1  0  0  0  0
  9 21  1  0  0  0  0
  7  8  1  0  0  0  0
  7  9  1  0  0  0  0
 25 26  1  0  0  0  0
 25 27  1  0  0  0  0
 25 28  1  0  0  0  0
 23 24  1  0  0  0  0
 23 25  1  0  0  0  0
M  END
$$$$
default_name
  -OEChem-02102213163D

 28 27  0     1  0  0  0  0  0999 V2000
   -3.2133   -3.5565    1.2809 H   0  0  0  0  0  0  0  0  0  0  0  0
   -3.1873   -2.5755    0.8089 C   0  0  0  0  0  0  0  0  0  0  0  0
   -3.8793   -1.9065    1.3169 H   0  0  0  0  0  0  0  0  0  0  0  0
   -3.4623   -2.6685   -0.2401 H   0  0  0  0  0  0  0  0  0  0  0  0
   -1.7863   -2.0195    0.9119 C   0  0  0  0  0  0  0  0  0  0  0  0
   -0.9073   -2.6615    1.4699 O   0  0  0  0  0  0  0  0  0  0  0  0
   -1.5803   -0.8195    0.3749 N   0  0  0  0  0  0  0  0  0  0  0  0
   -2.3603   -0.3345   -0.0451 H   0  0  0  0  0  0  0  0  0  0  0  0
   -0.2933   -0.1205    0.3719 C   0  0  1  0  0  0  0  0  0  0  0  0
    0.4439   -0.7485   -0.1303 H   0  0  0  0  0  0  0  0  0  0  0  0
   -0.4368    1.1924   -0.4246 C   0  0  0  0  0  0  0  0  0  0  0  0
   -1.4703    1.2706   -0.7663 H   0  0  0  0  0  0  0  0  0  0  0  0
   -0.2325    2.0374    0.2345 H   0  0  0  0  0  0  0  0  0  0  0  0
    0.4967    1.2871   -1.6439 C   0  0  0  0  0  0  0  0  0  0  0  0
    1.5357    1.2134   -1.3227 H   0  0  0  0  0  0  0  0  0  0  0  0
    0.2761    0.4684   -2.3279 H   0  0  0  0  0  0  0  0  0  0  0  0
    0.3243    2.5984   -2.4037 C   0  0  0  0  0  0  0  0  0  0  0  0
   -0.5370    3.4324   -2.1749 O   0  0  0  0  0  0  0  0  0  0  0  0
    1.2014    2.8093   -3.4026 O   0  0  0  0  0  0  0  0  0  0  0  0
    0.9533    3.6549   -3.7804 H   0  0  0  0  0  0  0  0  0  0  0  0
    0.1871    0.1189    1.8122 C   0  0  0  0  0  0  0  0  0  0  0  0
    1.3541   -0.1171    2.1187 O   0  0  0  0  0  0  0  0  0  0  0  0
   -0.7126    0.5740    2.6926 N   0  0  0  0  0  0  0  0  0  0  0  0
   -1.6464    0.7663    2.3621 H   0  0  0  0  0  0  0  0  0  0  0  0
   -0.4191    0.8310    4.1010 C   0  0  0  0  0  0  0  0  0  0  0  0
    0.4022    1.5452    4.1828 H   0  0  0  0  0  0  0  0  0  0  0  0
   -1.2983    1.2366    4.6035 H   0  0  0  0  0  0  0  0  0  0  0  0
   -0.1204   -0.0980    4.5907 H   0  0  0  0  0  0  0  0  0  0  0  0
  5  6  2  0  0  0  0
  5  7  1  0  0  0  0
  2  3  1  0  0  0  0
  2  4  1  0  0  0  0
  2  5  1  0  0  0  0
  1  2  1  0  0  0  0
 21 22  2  0  0  0  0
 21 23  1  0  0  0  0
 19 20  1  0  0  0  0
 17 18  2  0  0  0  0
 17 19  1  0  0  0  0
 14 15  1  0  0  0  0
 14 16  1  0  0  0  0
 14 17  1  0  0  0  0
 11 12  1  0  0  0  0
 11 13  1  0  0  0  0
 11 14  1  0  0  0  0
  9 10  1  0  0  0  0
  9 11  1  0  0  0  0
  9 21  1  0  0  0  0
  7  8  1  0  0  0  0
  7  9  1  0  0  0  0
 25 26  1  0  0  0  0
 25 27  1  0  0  0  0
 25 28  1  0  0  0  0
 23 24  1  0  0  0  0
 23 25  1  0  0  0  0
M  END
$$$$
default_name
  -OEChem-02102213163D

 28 27  0     1  0  0  0  0  0999 V2000
   -3.2133   -3.5565    1.2809 H   0  0  0  0  0  0  0  0  0  0  0  0
   -3.1873   -2.5755    0.8089 C   0  0  0  0  0  0  0  0  0  0  0  0
   -3.8793   -1.9065    1.3169 H   0  0  0  0  0  0  0  0  0  0  0  0
   -3.4623   -2.6685   -0.2401 H   0  0  0  0  0  0  0  0  0  0  0  0
   -1.7863   -2.0195    0.9119 C   0  0  0  0  0  0  0  0  0  0  0  0
   -0.9073   -2.6615    1.4699 O   0  0  0  0  0  0  0  0  0  0  0  0
   -1.5803   -0.8195    0.3749 N   0  0  0  0  0  0  0  0  0  0  0  0
   -2.3603   -0.3345   -0.0451 H   0  0  0  0  0  0  0  0  0  0  0  0
   -0.2933   -0.1205    0.3719 C   0  0  1  0  0  0  0  0  0  0  0  0
    0.4439   -0.7485   -0.1303 H   0  0  0  0  0  0  0  0  0  0  0  0
   -0.4368    1.1924   -0.4246 C   0  0  0  0  0  0  0  0  0  0  0  0
   -1.4703    1.2706   -0.7663 H   0  0  0  0  0  0  0  0  0  0  0  0
   -0.2325    2.0374    0.2345 H   0  0  0  0  0  0  0  0  0  0  0  0
    0.4967    1.2871   -1.6439 C   0  0  0  0  0  0  0  0  0  0  0  0
    1.4980    0.9531   -1.3718 H   0  0  0  0  0  0  0  0  0  0  0  0
    0.1122    0.6497   -2.4393 H   0  0  0  0  0  0  0  0  0  0  0  0
    0.5990    2.7096   -2.1848 C   0  0  0  0  0  0  0  0  0  0  0  0
   -0.0717    3.6545   -1.8014 O   0  0  0  0  0  0  0  0  0  0  0  0
    1.5012    2.8931   -3.1666 O   0  0  0  0  0  0  0  0  0  0  0  0
    1.4332    3.8205   -3.4002 H   0  0  0  0  0  0  0  0  0  0  0  0
    0.1871    0.1189    1.8122 C   0  0  0  0  0  0  0  0  0  0  0  0
    1.3541   -0.1171    2.1187 O   0  0  0  0  0  0  0  0  0  0  0  0
   -0.7126    0.5740    2.6926 N   0  0  0  0  0  0  0  0  0  0  0  0
   -1.6464    0.7663    2.3621 H   0  0  0  0  0  0  0  0  0  0  0  0
   -0.4191    0.8310    4.1010 C   0  0  0  0  0  0  0  0  0  0  0  0
    0.4022    1.5452    4.1828 H   0  0  0  0  0  0  0  0  0  0  0  0
   -1.2983    1.2366    4.6035 H   0  0  0  0  0  0  0  0  0  0  0  0
   -0.1204   -0.0980    4.5907 H   0  0  0  0  0  0  0  0  0  0  0  0
  5  6  2  0  0  0  0
  5  7  1  0  0  0  0
  2  3  1  0  0  0  0
  2  4  1  0  0  0  0
  2  5  1  0  0  0  0
  1  2  1  0  0  0  0
 21 22  2  0  0  0  0
 21 23  1  0  0  0  0
 19 20  1  0  0  0  0
 17 18  2  0  0  0  0
 17 19  1  0  0  0  0
 14 15  1  0  0  0  0
 14 16  1  0  0  0  0
 14 17  1  0  0  0  0
 11 12  1  0  0  0  0
 11 13  1  0  0  0  0
 11 14  1  0  0  0  0
  9 10  1  0  0  0  0
  9 11  1  0  0  0  0
  9 21  1  0  0  0  0
  7  8  1  0  0  0  0
  7  9  1  0  0  0  0
 25 26  1  0  0  0  0
 25 27  1  0  0  0  0
 25 28  1  0  0  0  0
 23 24  1  0  0  0  0
 23 25  1  0  0  0  0
M  END
$$$$
default_name
  -OEChem-02102213163D

 28 27  0     1  0  0  0  0  0999 V2000
   -3.2133   -3.5565    1.2809 H   0  0  0  0  0  0  0  0  0  0  0  0
   -3.1873   -2.5755    0.8089 C   0  0  0  0  0  0  0  0  0  0  0  0
   -3.8793   -1.9065    1.3169 H   0  0  0  0  0  0  0  0  0  0  0  0
   -3.4623   -2.6685   -0.2401 H   0  0  0  0  0  0  0  0  0  0  0  0
   -1.7863   -2.0195    0.9119 C   0  0  0  0  0  0  0  0  0  0  0  0
   -0.9073   -2.6615    1.4699 O   0  0  0  0  0  0  0  0  0  0  0  0
   -1.5803   -0.8195    0.3749 N   0  0  0  0  0  0  0  0  0  0  0  0
   -2.3603   -0.3345   -0.0451 H   0  0  0  0  0  0  0  0  0  0  0  0
   -0.2933   -0.1205    0.3719 C   0  0  1  0  0  0  0  0  0  0  0  0
    0.4439   -0.7485   -0.1303 H   0  0  0  0  0  0  0  0  0  0  0  0
   -0.4368    1.1924   -0.4246 C   0  0  0  0  0  0  0  0  0  0  0  0
   -1.4703    1.2706   -0.7663 H   0  0  0  0  0  0  0  0  0  0  0  0
   -0.2325    2.0374    0.2345 H   0  0  0  0  0  0  0  0  0  0  0  0
    0.4967    1.2871   -1.6439 C   0  0  0  0  0  0  0  0  0  0  0  0
    1.4074    0.7171   -1.4594 H   0  0  0  0  0  0  0  0  0  0  0  0
   -0.0107    0.8759   -2.5158 H   0  0  0  0  0  0  0  0  0  0  0  0
    0.8907    2.7262   -1.9602 C   0  0  0  0  0  0  0  0  0  0  0  0
    0.4292    3.7150   -1.4132 O   0  0  0  0  0  0  0  0  0  0  0  0
    1.8118    2.8754   -2.9302 O   0  0  0  0  0  0  0  0  0  0  0  0
    1.9367    3.8223   -3.0145 H   0  0  0  0  0  0  0  0  0  0  0  0
    0.1871    0.1189    1.8122 C   0  0  0  0  0  0  0  0  0  0  0  0
    1.3541   -0.1171    2.1187 O   0  0  0  0  0  0  0  0  0  0  0  0
   -0.7126    0.5740    2.6926 N   0  0  0  0  0  0  0  0  0  0  0  0
   -1.6464    0.7663    2.3621 H   0  0  0  0  0  0  0  0  0  0  0  0
   -0.4191    0.8310    4.1010 C   0  0  0  0  0  0  0  0  0  0  0  0
    0.4022    1.5452    4.1828 H   0  0  0  0  0  0  0  0  0  0  0  0
   -1.2983    1.2366    4.6035 H   0  0  0  0  0  0  0  0  0  0  0  0
   -0.1204   -0.0980    4.5907 H   0  0  0  0  0  0  0  0  0  0  0  0
  5  6  2  0  0  0  0
  5  7  1  0  0  0  0
  2  3  1  0  0  0  0
  2  4  1  0  0  0  0
  2  5  1  0  0  0  0
  1  2  1  0  0  0  0
 21 22  2  0  0  0  0
 21 23  1  0  0  0  0
 19 20  1  0  0  0  0
 17 18  2  0  0  0  0
 17 19  1  0  0  0  0
 14 15  1  0  0  0  0
 14 16  1  0  0  0  0
 14 17  1  0  0  0  0
 11 12  1  0  0  0  0
 11 13  1  0  0  0  0
 11 14  1  0  0  0  0
  9 10  1  0  0  0  0
  9 11  1  0  0  0  0
  9 21  1  0  0  0  0
  7  8  1  0  0  0  0
  7  9  1  0  0  0  0
 25 26  1  0  0  0  0
 25 27  1  0  0  0  0
 25 28  1  0  0  0  0
 23 24  1  0  0  0  0
 23 25  1  0  0  0  0
M  END
$$$$
default_name
  -OEChem-02102213163D

 28 27  0     1  0  0  0  0  0999 V2000
   -3.2133   -3.5565    1.2809 H   0  0  0  0  0  0  0  0  0  0  0  0
   -3.1873   -2.5755    0.8089 C   0  0  0  0  0  0  0  0  0  0  0  0
   -3.8793   -1.9065    1.3169 H   0  0  0  0  0  0  0  0  0  0  0  0
   -3.4623   -2.6685   -0.2401 H   0  0  0  0  0  0  0  0  0  0  0  0
   -1.7863   -2.0195    0.9119 C   0  0  0  0  0  0  0  0  0  0  0  0
   -0.9073   -2.6615    1.4699 O   0  0  0  0  0  0  0  0  0  0  0  0
   -1.5803   -0.8195    0.3749 N   0  0  0  0  0  0  0  0  0  0  0  0
   -2.3603   -0.3345   -0.0451 H   0  0  0  0  0  0  0  0  0  0  0  0
   -0.2933   -0.1205    0.3719 C   0  0  1  0  0  0  0  0  0  0  0  0
    0.4439   -0.7485   -0.1303 H   0  0  0  0  0  0  0  0  0  0  0  0
   -0.4368    1.1924   -0.4246 C   0  0  0  0  0  0  0  0  0  0  0  0
   -1.4703    1.2706   -0.7663 H   0  0  0  0  0  0  0  0  0  0  0  0
   -0.2325    2.0374    0.2345 H   0  0  0  0  0  0  0  0  0  0  0  0
    0.4967    1.2871   -1.6439 C   0  0  0  0  0  0  0  0  0  0  0  0
    1.2701    0.5215   -1.5797 H   0  0  0  0  0  0  0  0  0  0  0  0
   -0.0843    1.1317   -2.5523 H   0  0  0  0  0  0  0  0  0  0  0  0
    1.1794    2.6473   -1.7453 C   0  0  0  0  0  0  0  0  0  0  0  0
    0.9317    3.6098   -1.0367 O   0  0  0  0  0  0  0  0  0  0  0  0
    2.1119    2.7575   -2.7096 O   0  0  0  0  0  0  0  0  0  0  0  0
    2.4296    3.6602   -2.6498 H   0  0  0  0  0  0  0  0  0  0  0  0
    0.1871    0.1189    1.8122 C   0  0  0  0  0  0  0  0  0  0  0  0
    1.3541   -0.1171    2.1187 O   0  0  0  0  0  0  0  0  0  0  0  0
   -0.7126    0.5740    2.6926 N   0  0  0  0  0  0  0  0  0  0  0  0
   -1.6464    0.7663    2.3621 H   0  0  0  0  0  0  0  0  0  0  0  0
   -0.4191    0.8310    4.1010 C   0  0  0  0  0  0  0  0  0  0  0  0
    0.4022    1.5452    4.1828 H   0  0  0  0  0  0  0  0  0  0  0  0
   -1.2983    1.2366    4.6035 H   0  0  0  0  0  0  0  0  0  0  0  0
   -0.1204   -0.0980    4.5907 H   0  0  0  0  0  0  0  0  0  0  0  0
  5  6  2  0  0  0  0
  5  7  1  0  0  0  0
  2  3  1  0  0  0  0
  2  4  1  0  0  0  0
  2  5  1  0  0  0  0
  1  2  1  0  0  0  0
 21 22  2  0  0  0  0
 21 23  1  0  0  0  0
 19 20  1  0  0  0  0
 17 18  2  0  0  0  0
 17 19  1  0  0  0  0
 14 15  1  0  0  0  0
 14 16  1  0  0  0  0
 14 17  1  0  0  0  0
 11 12  1  0  0  0  0
 11 13  1  0  0  0  0
 11 14  1  0  0  0  0
  9 10  1  0  0  0  0
  9 11  1  0  0  0  0
  9 21  1  0  0  0  0
  7  8  1  0  0  0  0
  7  9  1  0  0  0  0
 25 26  1  0  0  0  0
 25 27  1  0  0  0  0
 25 28  1  0  0  0  0
 23 24  1  0  0  0  0
 23 25  1  0  0  0  0
M  END
$$$$
default_name
  -OEChem-02102213163D

 28 27  0     1  0  0  0  0  0999 V2000
   -3.2133   -3.5565    1.2809 H   0  0  0  0  0  0  0  0  0  0  0  0
   -3.1873   -2.5755    0.8089 C   0  0  0  0  0  0  0  0  0  0  0  0
   -3.8793   -1.9065    1.3169 H   0  0  0  0  0  0  0  0  0  0  0  0
   -3.4623   -2.6685   -0.2401 H   0  0  0  0  0  0  0  0  0  0  0  0
   -1.7863   -2.0195    0.9119 C   0  0  0  0  0  0  0  0  0  0  0  0
   -0.9073   -2.6615    1.4699 O   0  0  0  0  0  0  0  0  0  0  0  0
   -1.5803   -0.8195    0.3749 N   0  0  0  0  0  0  0  0  0  0  0  0
   -2.3603   -0.3345   -0.0451 H   0  0  0  0  0  0  0  0  0  0  0  0
   -0.2933   -0.1205    0.3719 C   0  0  1  0  0  0  0  0  0  0  0  0
    0.4439   -0.7485   -0.1303 H   0  0  0  0  0  0  0  0  0  0  0  0
   -0.4368    1.1924   -0.4246 C   0  0  0  0  0  0  0  0  0  0  0  0
   -1.4703    1.2706   -0.7663 H   0  0  0  0  0  0  0  0  0  0  0  0
   -0.2325    2.0374    0.2345 H   0  0  0  0  0  0  0  0  0  0  0  0
    0.4967    1.2871   -1.6439 C   0  0  0  0  0  0  0  0  0  0  0  0
    1.0954    0.3797   -1.7245 H   0  0  0  0  0  0  0  0  0  0  0  0
   -0.1034    1.3995   -2.5461 H   0  0  0  0  0  0  0  0  0  0  0  0
    1.4455    2.4780   -1.5547 C   0  0  0  0  0  0  0  0  0  0  0  0
    1.4014    3.3459   -0.6976 O   0  0  0  0  0  0  0  0  0  0  0  0
    2.3811    2.5475   -2.5198 O   0  0  0  0  0  0  0  0  0  0  0  0
    2.8783    3.3452   -2.3308 H   0  0  0  0  0  0  0  0  0  0  0  0
    0.1871    0.1189    1.8122 C   0  0  0  0  0  0  0  0  0  0  0  0
    1.3541   -0.1171    2.1187 O   0  0  0  0  0  0  0  0  0  0  0  0
   -0.7126    0.5740    2.6926 N   0  0  0  0  0  0  0  0  0  0  0  0
   -1.6464    0.7663    2.3621 H   0  0  0  0  0  0  0  0  0  0  0  0
   -0.4191    0.8310    4.1010 C   0  0  0  0  0  0  0  0  0  0  0  0
    0.4022    1.5452    4.1828 H   0  0  0  0  0  0  0  0  0  0  0  0
   -1.2983    1.2366    4.6035 H   0  0  0  0  0  0  0  0  0  0  0  0
   -0.1204   -0.0980    4.5907 H   0  0  0  0  0  0  0  0  0  0  0  0
  5  6  2  0  0  0  0
  5  7  1  0  0  0  0
  2  3  1  0  0  0  0
  2  4  1  0  0  0  0
  2  5  1  0  0  0  0
  1  2  1  0  0  0  0
 21 22  2  0  0  0  0
 21 23  1  0  0  0  0
 19 20  1  0  0  0  0
 17 18  2  0  0  0  0
 17 19  1  0  0  0  0
 14 15  1  0  0  0  0
 14 16  1  0  0  0  0
 14 17  1  0  0  0  0
 11 12  1  0  0  0  0
 11 13  1  0  0  0  0
 11 14  1  0  0  0  0
  9 10  1  0  0  0  0
  9 11  1  0  0  0  0
  9 21  1  0  0  0  0
  7  8  1  0  0  0  0
  7  9  1  0  0  0  0
 25 26  1  0  0  0  0
 25 27  1  0  0  0  0
 25 28  1  0  0  0  0
 23 24  1  0  0  0  0
 23 25  1  0  0  0  0
M  END
$$$$
default_name
  -OEChem-02102213163D

 28 27  0     1  0  0  0  0  0999 V2000
   -3.2133   -3.5565    1.2809 H   0  0  0  0  0  0  0  0  0  0  0  0
   -3.1873   -2.5755    0.8089 C   0  0  0  0  0  0  0  0  0  0  0  0
   -3.8793   -1.9065    1.3169 H   0  0  0  0  0  0  0  0  0  0  0  0
   -3.4623   -2.6685   -0.2401 H   0  0  0  0  0  0  0  0  0  0  0  0
   -1.7863   -2.0195    0.9119 C   0  0  0  0  0  0  0  0  0  0  0  0
   -0.9073   -2.6615    1.4699 O   0  0  0  0  0  0  0  0  0  0  0  0
   -1.5803   -0.8195    0.3749 N   0  0  0  0  0  0  0  0  0  0  0  0
   -2.3603   -0.3345   -0.0451 H   0  0  0  0  0  0  0  0  0  0  0  0
   -0.2933   -0.1205    0.3719 C   0  0  1  0  0  0  0  0  0  0  0  0
    0.4439   -0.7485   -0.1303 H   0  0  0  0  0  0  0  0  0  0  0  0
   -0.4368    1.1924   -0.4246 C   0  0  0  0  0  0  0  0  0  0  0  0
   -1.4703    1.2706   -0.7663 H   0  0  0  0  0  0  0  0  0  0  0  0
   -0.2325    2.0374    0.2345 H   0  0  0  0  0  0  0  0  0  0  0  0
    0.4967    1.2871   -1.6439 C   0  0  0  0  0  0  0  0  0  0  0  0
    0.8953    0.3012   -1.8838 H   0  0  0  0  0  0  0  0  0  0  0  0
   -0.0668    1.6612   -2.4979 H   0  0  0  0  0  0  0  0  0  0  0  0
    1.6708    2.2300   -1.4015 C   0  0  0  0  0  0  0  0  0  0  0  0
    1.8064    2.9414   -0.4189 O   0  0  0  0  0  0  0  0  0  0  0  0
    2.6011    2.2596   -2.3737 O   0  0  0  0  0  0  0  0  0  0  0  0
    3.2521    2.8989   -2.0792 H   0  0  0  0  0  0  0  0  0  0  0  0
    0.1871    0.1189    1.8122 C   0  0  0  0  0  0  0  0  0  0  0  0
    1.3541   -0.1171    2.1187 O   0  0  0  0  0  0  0  0  0  0  0  0
   -0.7126    0.5740    2.6926 N   0  0  0  0  0  0  0  0  0  0  0  0
   -1.6464    0.7663    2.3621 H   0  0  0  0  0  0  0  0  0  0  0  0
   -0.4191    0.8310    4.1010 C   0  0  0  0  0  0  0  0  0  0  0  0
    0.4022    1.5452    4.1828 H   0  0  0  0  0  0  0  0  0  0  0  0
   -1.2983    1.2366    4.6035 H   0  0  0  0  0  0  0  0  0  0  0  0
   -0.1204   -0.0980    4.5907 H   0  0  0  0  0  0  0  0  0  0  0  0
  5  6  2  0  0  0  0
  5  7  1  0  0  0  0
  2  3  1  0  0  0  0
  2  4  1  0  0  0  0
  2  5  1  0  0  0  0
  1  2  1  0  0  0  0
 21 22  2  0  0  0  0
 21 23  1  0  0  0  0
 19 20  1  0  0  0  0
 17 18  2  0  0  0  0
 17 19  1  0  0  0  0
 14 15  1  0  0  0  0
 14 16  1  0  0  0  0
 14 17  1  0  0  0  0
 11 12  1  0  0  0  0
 11 13  1  0  0  0  0
 11 14  1  0  0  0  0
  9 10  1  0  0  0  0
  9 11  1  0  0  0  0
  9 21  1  0  0  0  0
  7  8  1  0  0  0  0
  7  9  1  0  0  0  0
 25 26  1  0  0  0  0
 25 27  1  0  0  0  0
 25 28  1  0  0  0  0
 23 24  1  0  0  0  0
 23 25  1  0  0  0  0
M  END
$$$$
default_name
  -OEChem-02102213163D

 28 27  0     1  0  0  0  0  0999 V2000
   -3.2133   -3.5565    1.2809 H   0  0  0  0  0  0  0  0  0  0  0  0
   -3.1873   -2.5755    0.8089 C   0  0  0  0  0  0  0  0  0  0  0  0
   -3.8793   -1.9065    1.3169 H   0  0  0  0  0  0  0  0  0  0  0  0
   -3.4623   -2.6685   -0.2401 H   0  0  0  0  0  0  0  0  0  0  0  0
   -1.7863   -2.0195    0.9119 C   0  0  0  0  0  0  0  0  0  0  0  0
   -0.9073   -2.6615    1.4699 O   0  0  0  0  0  0  0  0  0  0  0  0
   -1.5803   -0.8195    0.3749 N   0  0  0  0  0  0  0  0  0  0  0  0
   -2.3603   -0.3345   -0.0451 H   0  0  0  0  0  0  0  0  0  0  0  0
   -0.2933   -0.1205    0.3719 C   0  0  1  0  0  0  0  0  0  0  0  0
    0.4439   -0.7485   -0.1303 H   0  0  0  0  0  0  0  0  0  0  0  0
   -0.4368    1.1924   -0.4246 C   0  0  0  0  0  0  0  0  0  0  0  0
   -1.4703    1.2706   -0.7663 H   0  0  0  0  0  0  0  0  0  0  0  0
   -0.2325    2.0374    0.2345 H   0  0  0  0  0  0  0  0  0  0  0  0
    0.4967    1.2871   -1.6439 C   0  0  0  0  0  0  0  0  0  0  0  0
    0.6833    0.2915   -2.0468 H   0  0  0  0  0  0  0  0  0  0  0  0
    0.0229    1.8989   -2.4107 H   0  0  0  0  0  0  0  0  0  0  0  0
    1.8400    1.9202   -1.2960 C   0  0  0  0  0  0  0  0  0  0  0  0
    2.1191    2.4238   -0.2197 O   0  0  0  0  0  0  0  0  0  0  0  0
    2.7568    1.9134   -2.2814 O   0  0  0  0  0  0  0  0  0  0  0  0
    3.5256    2.3515   -1.9123 H   0  0  0  0  0  0  0  0  0  0  0  0
    0.1871    0.1189    1.8122 C   0  0  0  0  0  0  0  0  0  0  0  0
    1.3541   -0.1171    2.1187 O   0  0  0  0  0  0  0  0  0  0  0  0
   -0.7126    0.5740    2.6926 N   0  0  0  0  0  0  0  0  0  0  0  0
   -1.6464    0.7663    2.3621 H   0  0  0  0  0  0  0  0  0  0  0  0
   -0.4191    0.8310    4.1010 C   0  0  0  0  0  0  0  0  0  0  0  0
    0.4022    1.5452    4.1828 H   0  0  0  0  0  0  0  0  0  0  0  0
   -1.2983    1.2366    4.6035 H   0  0  0  0  0  0  0  0  0  0  0  0
   -0.1204   -0.0980    4.5907 H   0  0  0  0  0  0  0  0  0  0  0  0
  5  6  2  0  0  0  0
  5  7  1  0  0  0  0
  2  3  1  0  0  0  0
  2  4  1  0  0  0  0
  2  5  1  0  0  0  0
  1  2  1  0  0  0  0
 21 22  2  0  0  0  0
 21 23  1  0  0  0  0
 19 20  1  0  0  0  0
 17 18  2  0  0  0  0
 17 19  1  0  0  0  0
 14 15  1  0  0  0  0
 14 16  1  0  0  0  0
 14 17  1  0  0  0  0
 11 12  1  0  0  0  0
 11 13  1  0  0  0  0
 11 14  1  0  0  0  0
  9 10  1  0  0  0  0
  9 11  1  0  0  0  0
  9 21  1  0  0  0  0
  7  8  1  0  0  0  0
  7  9  1  0  0  0  0
 25 26  1  0  0  0  0
 25 27  1  0  0  0  0
 25 28  1  0  0  0  0
 23 24  1  0  0  0  0
 23 25  1  0  0  0  0
M  END
$$$$
default_name
  -OEChem-02102213163D

 28 27  0     1  0  0  0  0  0999 V2000
   -3.2133   -3.5565    1.2809 H   0  0  0  0  0  0  0  0  0  0  0  0
   -3.1873   -2.5755    0.8089 C   0  0  0  0  0  0  0  0  0  0  0  0
   -3.8793   -1.9065    1.3169 H   0  0  0  0  0  0  0  0  0  0  0  0
   -3.4623   -2.6685   -0.2401 H   0  0  0  0  0  0  0  0  0  0  0  0
   -1.7863   -2.0195    0.9119 C   0  0  0  0  0  0  0  0  0  0  0  0
   -0.9073   -2.6615    1.4699 O   0  0  0  0  0  0  0  0  0  0  0  0
   -1.5803   -0.8195    0.3749 N   0  0  0  0  0  0  0  0  0  0  0  0
   -2.3603   -0.3345   -0.0451 H   0  0  0  0  0  0  0  0  0  0  0  0
   -0.2933   -0.1205    0.3719 C   0  0  1  0  0  0  0  0  0  0  0  0
    0.4439   -0.7485   -0.1303 H   0  0  0  0  0  0  0  0  0  0  0  0
   -0.4368    1.1924   -0.4246 C   0  0  0  0  0  0  0  0  0  0  0  0
   -1.4703    1.2706   -0.7663 H   0  0  0  0  0  0  0  0  0  0  0  0
   -0.2325    2.0374    0.2345 H   0  0  0  0  0  0  0  0  0  0  0  0
    0.4967    1.2871   -1.6439 C   0  0  0  0  0  0  0  0  0  0  0  0
    0.4740    0.3512   -2.2024 H   0  0  0  0  0  0  0  0  0  0  0  0
    0.1597    2.0964   -2.2906 H   0  0  0  0  0  0  0  0  0  0  0  0
    1.9416    1.5697   -1.2454 C   0  0  0  0  0  0  0  0  0  0  0  0
    2.3181    1.8285   -0.1135 O   0  0  0  0  0  0  0  0  0  0  0  0
    2.8378    1.5325   -2.2490 O   0  0  0  0  0  0  0  0  0  0  0  0
    3.6803    1.7405   -1.8413 H   0  0  0  0  0  0  0  0  0  0  0  0
    0.1871    0.1189    1.8122 C   0  0  0  0  0  0  0  0  0  0  0  0
    1.3541   -0.1171    2.1187 O   0  0  0  0  0  0  0  0  0  0  0  0
   -0.7126    0.5740    2.6926 N   0  0  0  0  0  0  0  0  0  0  0  0
   -1.6464    0.7663    2.3621 H   0  0  0  0  0  0  0  0  0  0  0  0
   -0.4191    0.8310    4.1010 C   0  0  0  0  0  0  0  0  0  0  0  0
    0.4022    1.5452    4.1828 H   0  0  0  0  0  0  0  0  0  0  0  0
   -1.2983    1.2366    4.6035 H   0  0  0  0  0  0  0  0  0  0  0  0
   -0.1204   -0.0980    4.5907 H   0  0  0  0  0  0  0  0  0  0  0  0
  5  6  2  0  0  0  0
  5  7  1  0  0  0  0
  2  3  1  0  0  0  0
  2  4  1  0  0  0  0
  2  5  1  0  0  0  0
  1  2  1  0  0  0  0
 21 22  2  0  0  0  0
 21 23  1  0  0  0  0
 19 20  1  0  0  0  0
 17 18  2  0  0  0  0
 17 19  1  0  0  0  0
 14 15  1  0  0  0  0
 14 16  1  0  0  0  0
 14 17  1  0  0  0  0
 11 12  1  0  0  0  0
 11 13  1  0  0  0  0
 11 14  1  0  0  0  0
  9 10  1  0  0  0  0
  9 11  1  0  0  0  0
  9 21  1  0  0  0  0
  7  8  1  0  0  0  0
  7  9  1  0  0  0  0
 25 26  1  0  0  0  0
 25 27  1  0  0  0  0
 25 28  1  0  0  0  0
 23 24  1  0  0  0  0
 23 25  1  0  0  0  0
M  END
$$$$
default_name
  -OEChem-02102213163D

 28 27  0     1  0  0  0  0  0999 V2000
   -3.2133   -3.5565    1.2809 H   0  0  0  0  0  0  0  0  0  0  0  0
   -3.1873   -2.5755    0.8089 C   0  0  0  0  0  0  0  0  0  0  0  0
   -3.8793   -1.9065    1.3169 H   0  0  0  0  0  0  0  0  0  0  0  0
   -3.4623   -2.6685   -0.2401 H   0  0  0  0  0  0  0  0  0  0  0  0
   -1.7863   -2.0195    0.9119 C   0  0  0  0  0  0  0  0  0  0  0  0
   -0.9073   -2.6615    1.4699 O   0  0  0  0  0  0  0  0  0  0  0  0
   -1.5803   -0.8195    0.3749 N   0  0  0  0  0  0  0  0  0  0  0  0
   -2.3603   -0.3345   -0.0451 H   0  0  0  0  0  0  0  0  0  0  0  0
   -0.2933   -0.1205    0.3719 C   0  0  1  0  0  0  0  0  0  0  0  0
    0.4439   -0.7485   -0.1303 H   0  0  0  0  0  0  0  0  0  0  0  0
   -0.4368    1.1924   -0.4246 C   0  0  0  0  0  0  0  0  0  0  0  0
   -1.4703    1.2706   -0.7663 H   0  0  0  0  0  0  0  0  0  0  0  0
   -0.2325    2.0374    0.2345 H   0  0  0  0  0  0  0  0  0  0  0  0
    0.4967    1.2871   -1.6439 C   0  0  0  0  0  0  0  0  0  0  0  0
    0.2816    0.4762   -2.3400 H   0  0  0  0  0  0  0  0  0  0  0  0
    0.3343    2.2402   -2.1458 H   0  0  0  0  0  0  0  0  0  0  0  0
    1.9686    1.2023   -1.2532 C   0  0  0  0  0  0  0  0  0  0  0  0
    2.3899    1.1960   -0.1076 O   0  0  0  0  0  0  0  0  0  0  0  0
    2.8383    1.1430   -2.2788 O   0  0  0  0  0  0  0  0  0  0  0  0
    3.7054    1.1075   -1.8712 H   0  0  0  0  0  0  0  0  0  0  0  0
    0.1871    0.1189    1.8122 C   0  0  0  0  0  0  0  0  0  0  0  0
    1.3541   -0.1171    2.1187 O   0  0  0  0  0  0  0  0  0  0  0  0
   -0.7126    0.5740    2.6926 N   0  0  0  0  0  0  0  0  0  0  0  0
   -1.6464    0.7663    2.3621 H   0  0  0  0  0  0  0  0  0  0  0  0
   -0.4191    0.8310    4.1010 C   0  0  0  0  0  0  0  0  0  0  0  0
    0.4022    1.5452    4.1828 H   0  0  0  0  0  0  0  0  0  0  0  0
   -1.2983    1.2366    4.6035 H   0  0  0  0  0  0  0  0  0  0  0  0
   -0.1204   -0.0980    4.5907 H   0  0  0  0  0  0  0  0  0  0  0  0
  5  6  2  0  0  0  0
  5  7  1  0  0  0  0
  2  3  1  0  0  0  0
  2  4  1  0  0  0  0
  2  5  1  0  0  0  0
  1  2  1  0  0  0  0
 21 22  2  0  0  0  0
 21 23  1  0  0  0  0
 19 20  1  0  0  0  0
 17 18  2  0  0  0  0
 17 19  1  0  0  0  0
 14 15  1  0  0  0  0
 14 16  1  0  0  0  0
 14 17  1  0  0  0  0
 11 12  1  0  0  0  0
 11 13  1  0  0  0  0
 11 14  1  0  0  0  0
  9 10  1  0  0  0  0
  9 11  1  0  0  0  0
  9 21  1  0  0  0  0
  7  8  1  0  0  0  0
  7  9  1  0  0  0  0
 25 26  1  0  0  0  0
 25 27  1  0  0  0  0
 25 28  1  0  0  0  0
 23 24  1  0  0  0  0
 23 25  1  0  0  0  0
M  END
$$$$
default_name
  -OEChem-02102213163D

 28 27  0     1  0  0  0  0  0999 V2000
   -3.2133   -3.5565    1.2809 H   0  0  0  0  0  0  0  0  0  0  0  0
   -3.1873   -2.5755    0.8089 C   0  0  0  0  0  0  0  0  0  0  0  0
   -3.8793   -1.9065    1.3169 H   0  0  0  0  0  0  0  0  0  0  0  0
   -3.4623   -2.6685   -0.2401 H   0  0  0  0  0  0  0  0  0  0  0  0
   -1.7863   -2.0195    0.9119 C   0  0  0  0  0  0  0  0  0  0  0  0
   -0.9073   -2.6615    1.4699 O   0  0  0  0  0  0  0  0  0  0  0  0
   -1.5803   -0.8195    0.3749 N   0  0  0  0  0  0  0  0  0  0  0  0
   -2.3603   -0.3345   -0.0451 H   0  0  0  0  0  0  0  0  0  0  0  0
   -0.2933   -0.1205    0.3719 C   0  0  1  0  0  0  0  0  0  0  0  0
    0.4439   -0.7485   -0.1303 H   0  0  0  0  0  0  0  0  0  0  0  0
   -0.4368    1.1924   -0.4246 C   0  0  0  0  0  0  0  0  0  0  0  0
   -1.4703    1.2706   -0.7663 H   0  0  0  0  0  0  0  0  0  0  0  0
   -0.2325    2.0374    0.2345 H   0  0  0  0  0  0  0  0  0  0  0  0
    0.4967    1.2871   -1.6439 C   0  0  0  0  0  0  0  0  0  0  0  0
    0.1192    0.6580   -2.4502 H   0  0  0  0  0  0  0  0  0  0  0  0
    0.5348    2.3206   -1.9861 H   0  0  0  0  0  0  0  0  0  0  0  0
    1.9193    0.8431   -1.3189 C   0  0  0  0  0  0  0  0  0  0  0  0
    2.3296    0.5693   -0.2024 O   0  0  0  0  0  0  0  0  0  0  0  0
    2.7584    0.7713   -2.3688 O   0  0  0  0  0  0  0  0  0  0  0  0
    3.5994    0.4956   -1.9998 H   0  0  0  0  0  0  0  0  0  0  0  0
    0.1871    0.1189    1.8122 C   0  0  0  0  0  0  0  0  0  0  0  0
    1.3541   -0.1171    2.1187 O   0  0  0  0  0  0  0  0  0  0  0  0
   -0.7126    0.5740    2.6926 N   0  0  0  0  0  0  0  0  0  0  0  0
   -1.6464    0.7663    2.3621 H   0  0  0  0  0  0  0  0  0  0  0  0
   -0.4191    0.8310    4.1010 C   0  0  0  0  0  0  0  0  0  0  0  0
    0.4022    1.5452    4.1828 H   0  0  0  0  0  0  0  0  0  0  0  0
   -1.2983    1.2366    4.6035 H   0  0  0  0  0  0  0  0  0  0  0  0
   -0.1204   -0.0980    4.5907 H   0  0  0  0  0  0  0  0  0  0  0  0
  5  6  2  0  0  0  0
  5  7  1  0  0  0  0
  2  3  1  0  0  0  0
  2  4  1  0  0  0  0
  2  5  1  0  0  0  0
  1  2  1  0  0  0  0
 21 22  2  0  0  0  0
 21 23  1  0  0  0  0
 19 20  1  0  0  0  0
 17 18  2  0  0  0  0
 17 19  1  0  0  0  0
 14 15  1  0  0  0  0
 14 16  1  0  0  0  0
 14 17  1  0  0  0  0
 11 12  1  0  0  0  0
 11 13  1  0  0  0  0
 11 14  1  0  0  0  0
  9 10  1  0  0  0  0
  9 11  1  0  0  0  0
  9 21  1  0  0  0  0
  7  8  1  0  0  0  0
  7  9  1  0  0  0  0
 25 26  1  0  0  0  0
 25 27  1  0  0  0  0
 25 28  1  0  0  0  0
 23 24  1  0  0  0  0
 23 25  1  0  0  0  0
M  END
$$$$
default_name
  -OEChem-02102213163D

 28 27  0     1  0  0  0  0  0999 V2000
   -3.2133   -3.5565    1.2809 H   0  0  0  0  0  0  0  0  0  0  0  0
   -3.1873   -2.5755    0.8089 C   0  0  0  0  0  0  0  0  0  0  0  0
   -3.8793   -1.9065    1.3169 H   0  0  0  0  0  0  0  0  0  0  0  0
   -3.4623   -2.6685   -0.2401 H   0  0  0  0  0  0  0  0  0  0  0  0
   -1.7863   -2.0195    0.9119 C   0  0  0  0  0  0  0  0  0  0  0  0
   -0.9073   -2.6615    1.4699 O   0  0  0  0  0  0  0  0  0  0  0  0
   -1.5803   -0.8195    0.3749 N   0  0  0  0  0  0  0  0  0  0  0  0
   -2.3603   -0.3345   -0.0451 H   0  0  0  0  0  0  0  0  0  0  0  0
   -0.2933   -0.1205    0.3719 C   0  0  1  0  0  0  0  0  0  0  0  0
    0.4439   -0.7485   -0.1303 H   0  0  0  0  0  0  0  0  0  0  0  0
   -0.4368    1.1924   -0.4246 C   0  0  0  0  0  0  0  0  0  0  0  0
   -1.4703    1.2706   -0.7663 H   0  0  0  0  0  0  0  0  0  0  0  0
   -0.2325    2.0374    0.2345 H   0  0  0  0  0  0  0  0  0  0  0  0
    0.4967    1.2871   -1.6439 C   0  0  0  0  0  0  0  0  0  0  0  0
   -0.0021    0.8843   -2.5255 H   0  0  0  0  0  0  0  0  0  0  0  0
    0.7474    2.3320   -1.8224 H   0  0  0  0  0  0  0  0  0  0  0  0
    1.7969    0.5166   -1.4379 C   0  0  0  0  0  0  0  0  0  0  0  0
    2.1414   -0.0087   -0.3914 O   0  0  0  0  0  0  0  0  0  0  0  0
    2.6036    0.4428   -2.5128 O   0  0  0  0  0  0  0  0  0  0  0  0
    3.3694   -0.0536   -2.2185 H   0  0  0  0  0  0  0  0  0  0  0  0
    0.1871    0.1189    1.8122 C   0  0  0  0  0  0  0  0  0  0  0  0
    1.3541   -0.1171    2.1187 O   0  0  0  0  0  0  0  0  0  0  0  0
   -0.7126    0.5740    2.6926 N   0  0  0  0  0  0  0  0  0  0  0  0
   -1.6464    0.7663    2.3621 H   0  0  0  0  0  0  0  0  0  0  0  0
   -0.4191    0.8310    4.1010 C   0  0  0  0  0  0  0  0  0  0  0  0
    0.4022    1.5452    4.1828 H   0  0  0  0  0  0  0  0  0  0  0  0
   -1.2983    1.2366    4.6035 H   0  0  0  0  0  0  0  0  0  0  0  0
   -0.1204   -0.0980    4.5907 H   0  0  0  0  0  0  0  0  0  0  0  0
  5  6  2  0  0  0  0
  5  7  1  0  0  0  0
  2  3  1  0  0  0  0
  2  4  1  0  0  0  0
  2  5  1  0  0  0  0
  1  2  1  0  0  0  0
 21 22  2  0  0  0  0
 21 23  1  0  0  0  0
 19 20  1  0  0  0  0
 17 18  2  0  0  0  0
 17 19  1  0  0  0  0
 14 15  1  0  0  0  0
 14 16  1  0  0  0  0
 14 17  1  0  0  0  0
 11 12  1  0  0  0  0
 11 13  1  0  0  0  0
 11 14  1  0  0  0  0
  9 10  1  0  0  0  0
  9 11  1  0  0  0  0
  9 21  1  0  0  0  0
  7  8  1  0  0  0  0
  7  9  1  0  0  0  0
 25 26  1  0  0  0  0
 25 27  1  0  0  0  0
 25 28  1  0  0  0  0
 23 24  1  0  0  0  0
 23 25  1  0  0  0  0
M  END
$$$$
default_name
  -OEChem-02102213163D

 28 27  0     1  0  0  0  0  0999 V2000
   -3.2133   -3.5565    1.2809 H   0  0  0  0  0  0  0  0  0  0  0  0
   -3.1873   -2.5755    0.8089 C   0  0  0  0  0  0  0  0  0  0  0  0
   -3.8793   -1.9065    1.3169 H   0  0  0  0  0  0  0  0  0  0  0  0
   -3.4623   -2.6685   -0.2401 H   0  0  0  0  0  0  0  0  0  0  0  0
   -1.7863   -2.0195    0.9119 C   0  0  0  0  0  0  0  0  0  0  0  0
   -0.9073   -2.6615    1.4699 O   0  0  0  0  0  0  0  0  0  0  0  0
   -1.5803   -0.8195    0.3749 N   0  0  0  0  0  0  0  0  0  0  0  0
   -2.3603   -0.3345   -0.0451 H   0  0  0  0  0  0  0  0  0  0  0  0
   -0.2933   -0.1205    0.3719 C   0  0  1  0  0  0  0  0  0  0  0  0
    0.4439   -0.7485   -0.1303 H   0  0  0  0  0  0  0  0  0  0  0  0
   -0.4368    1.1924   -0.4246 C   0  0  0  0  0  0  0  0  0  0  0  0
   -1.4703    1.2706   -0.7663 H   0  0  0  0  0  0  0  0  0  0  0  0
   -0.2325    2.0374    0.2345 H   0  0  0  0  0  0  0  0  0  0  0  0
    0.4967    1.2871   -1.6439 C   0  0  0  0  0  0  0  0  0  0  0  0
   -0.0741    1.1395   -2.5608 H   0  0  0  0  0  0  0  0  0  0  0  0
    0.9578    2.2738   -1.6659 H   0  0  0  0  0  0  0  0  0  0  0  0
    1.6097    0.2450   -1.6022 C   0  0  0  0  0  0  0  0  0  0  0  0
    1.8379   -0.4988   -0.6617 O   0  0  0  0  0  0  0  0  0  0  0  0
    2.3844    0.1798   -2.7010 O   0  0  0  0  0  0  0  0  0  0  0  0
    3.0311   -0.5025   -2.5123 H   0  0  0  0  0  0  0  0  0  0  0  0
    0.1871    0.1189    1.8122 C   0  0  0  0  0  0  0  0  0  0  0  0
    1.3541   -0.1171    2.1187 O   0  0  0  0  0  0  0  0  0  0  0  0
   -0.7126    0.5740    2.6926 N   0  0  0  0  0  0  0  0  0  0  0  0
   -1.6464    0.7663    2.3621 H   0  0  0  0  0  0  0  0  0  0  0  0
   -0.4191    0.8310    4.1010 C   0  0  0  0  0  0  0  0  0  0  0  0
    0.4022    1.5452    4.1828 H   0  0  0  0  0  0  0  0  0  0  0  0
   -1.2983    1.2366    4.6035 H   0  0  0  0  0  0  0  0  0  0  0  0
   -0.1204   -0.0980    4.5907 H   0  0  0  0  0  0  0  0  0  0  0  0
  5  6  2  0  0  0  0
  5  7  1  0  0  0  0
  2  3  1  0  0  0  0
  2  4  1  0  0  0  0
  2  5  1  0  0  0  0
  1  2  1  0  0  0  0
 21 22  2  0  0  0  0
 21 23  1  0  0  0  0
 19 20  1  0  0  0  0
 17 18  2  0  0  0  0
 17 19  1  0  0  0  0
 14 15  1  0  0  0  0
 14 16  1  0  0  0  0
 14 17  1  0  0  0  0
 11 12  1  0  0  0  0
 11 13  1  0  0  0  0
 11 14  1  0  0  0  0
  9 10  1  0  0  0  0
  9 11  1  0  0  0  0
  9 21  1  0  0  0  0
  7  8  1  0  0  0  0
  7  9  1  0  0  0  0
 25 26  1  0  0  0  0
 25 27  1  0  0  0  0
 25 28  1  0  0  0  0
 23 24  1  0  0  0  0
 23 25  1  0  0  0  0
M  END
$$$$
default_name
  -OEChem-02102213163D

 28 27  0     1  0  0  0  0  0999 V2000
   -3.2133   -3.5565    1.2809 H   0  0  0  0  0  0  0  0  0  0  0  0
   -3.1873   -2.5755    0.8089 C   0  0  0  0  0  0  0  0  0  0  0  0
   -3.8793   -1.9065    1.3169 H   0  0  0  0  0  0  0  0  0  0  0  0
   -3.4623   -2.6685   -0.2401 H   0  0  0  0  0  0  0  0  0  0  0  0
   -1.7863   -2.0195    0.9119 C   0  0  0  0  0  0  0  0  0  0  0  0
   -0.9073   -2.6615    1.4699 O   0  0  0  0  0  0  0  0  0  0  0  0
   -1.5803   -0.8195    0.3749 N   0  0  0  0  0  0  0  0  0  0  0  0
   -2.3603   -0.3345   -0.0451 H   0  0  0  0  0  0  0  0  0  0  0  0
   -0.2933   -0.1205    0.3719 C   0  0  1  0  0  0  0  0  0  0  0  0
    0.4439   -0.7485   -0.1303 H   0  0  0  0  0  0  0  0  0  0  0  0
   -0.4368    1.1924   -0.4246 C   0  0  0  0  0  0  0  0  0  0  0  0
   -1.4703    1.2706   -0.7663 H   0  0  0  0  0  0  0  0  0  0  0  0
   -0.2325    2.0374    0.2345 H   0  0  0  0  0  0  0  0  0  0  0  0
    0.4967    1.2871   -1.6439 C   0  0  0  0  0  0  0  0  0  0  0  0
   -0.0918    1.4064   -2.5537 H   0  0  0  0  0  0  0  0  0  0  0  0
    1.1515    2.1498   -1.5272 H   0  0  0  0  0  0  0  0  0  0  0  0
    1.3707    0.0469   -1.8006 C   0  0  0  0  0  0  0  0  0  0  0  0
    1.4400   -0.8674   -0.9950 O   0  0  0  0  0  0  0  0  0  0  0  0
    2.1158    0.0003   -2.9206 O   0  0  0  0  0  0  0  0  0  0  0  0
    2.6076   -0.8205   -2.8612 H   0  0  0  0  0  0  0  0  0  0  0  0
    0.1871    0.1189    1.8122 C   0  0  0  0  0  0  0  0  0  0  0  0
    1.3541   -0.1171    2.1187 O   0  0  0  0  0  0  0  0  0  0  0  0
   -0.7126    0.5740    2.6926 N   0  0  0  0  0  0  0  0  0  0  0  0
   -1.6464    0.7663    2.3621 H   0  0  0  0  0  0  0  0  0  0  0  0
   -0.4191    0.8310    4.1010 C   0  0  0  0  0  0  0  0  0  0  0  0
    0.4022    1.5452    4.1828 H   0  0  0  0  0  0  0  0  0  0  0  0
   -1.2983    1.2366    4.6035 H   0  0  0  0  0  0  0  0  0  0  0  0
   -0.1204   -0.0980    4.5907 H   0  0  0  0  0  0  0  0  0  0  0  0
  5  6  2  0  0  0  0
  5  7  1  0  0  0  0
  2  3  1  0  0  0  0
  2  4  1  0  0  0  0
  2  5  1  0  0  0  0
  1  2  1  0  0  0  0
 21 22  2  0  0  0  0
 21 23  1  0  0  0  0
 19 20  1  0  0  0  0
 17 18  2  0  0  0  0
 17 19  1  0  0  0  0
 14 15  1  0  0  0  0
 14 16  1  0  0  0  0
 14 17  1  0  0  0  0
 11 12  1  0  0  0  0
 11 13  1  0  0  0  0
 11 14  1  0  0  0  0
  9 10  1  0  0  0  0
  9 11  1  0  0  0  0
  9 21  1  0  0  0  0
  7  8  1  0  0  0  0
  7  9  1  0  0  0  0
 25 26  1  0  0  0  0
 25 27  1  0  0  0  0
 25 28  1  0  0  0  0
 23 24  1  0  0  0  0
 23 25  1  0  0  0  0
M  END
$$$$
default_name
  -OEChem-02102213163D

 28 27  0     1  0  0  0  0  0999 V2000
   -3.2133   -3.5565    1.2809 H   0  0  0  0  0  0  0  0  0  0  0  0
   -3.1873   -2.5755    0.8089 C   0  0  0  0  0  0  0  0  0  0  0  0
   -3.8793   -1.9065    1.3169 H   0  0  0  0  0  0  0  0  0  0  0  0
   -3.4623   -2.6685   -0.2401 H   0  0  0  0  0  0  0  0  0  0  0  0
   -1.7863   -2.0195    0.9119 C   0  0  0  0  0  0  0  0  0  0  0  0
   -0.9073   -2.6615    1.4699 O   0  0  0  0  0  0  0  0  0  0  0  0
   -1.5803   -0.8195    0.3749 N   0  0  0  0  0  0  0  0  0  0  0  0
   -2.3603   -0.3345   -0.0451 H   0  0  0  0  0  0  0  0  0  0  0  0
   -0.2933   -0.1205    0.3719 C   0  0  1  0  0  0  0  0  0  0  0  0
    0.4439   -0.7485   -0.1303 H   0  0  0  0  0  0  0  0  0  0  0  0
   -0.4368    1.1924   -0.4246 C   0  0  0  0  0  0  0  0  0  0  0  0
   -1.4703    1.2706   -0.7663 H   0  0  0  0  0  0  0  0  0  0  0  0
   -0.2325    2.0374    0.2345 H   0  0  0  0  0  0  0  0  0  0  0  0
    0.4967    1.2871   -1.6439 C   0  0  0  0  0  0  0  0  0  0  0  0
   -0.0541    1.6667   -2.5046 H   0  0  0  0  0  0  0  0  0  0  0  0
    1.3154    1.9685   -1.4158 H   0  0  0  0  0  0  0  0  0  0  0  0
    1.0960   -0.0643   -2.0196 C   0  0  0  0  0  0  0  0  0  0  0  0
    0.9747   -1.0896   -1.3684 O   0  0  0  0  0  0  0  0  0  0  0  0
    1.8159   -0.0834   -3.1566 O   0  0  0  0  0  0  0  0  0  0  0  0
    2.1277   -0.9861   -3.2415 H   0  0  0  0  0  0  0  0  0  0  0  0
    0.1871    0.1189    1.8122 C   0  0  0  0  0  0  0  0  0  0  0  0
    1.3541   -0.1171    2.1187 O   0  0  0  0  0  0  0  0  0  0  0  0
   -0.7126    0.5740    2.6926 N   0  0  0  0  0  0  0  0  0  0  0  0
   -1.6464    0.7663    2.3621 H   0  0  0  0  0  0  0  0  0  0  0  0
   -0.4191    0.8310    4.1010 C   0  0  0  0  0  0  0  0  0  0  0  0
    0.4022    1.5452    4.1828 H   0  0  0  0  0  0  0  0  0  0  0  0
   -1.2983    1.2366    4.6035 H   0  0  0  0  0  0  0  0  0  0  0  0
   -0.1204   -0.0980    4.5907 H   0  0  0  0  0  0  0  0  0  0  0  0
  5  6  2  0  0  0  0
  5  7  1  0  0  0  0
  2  3  1  0  0  0  0
  2  4  1  0  0  0  0
  2  5  1  0  0  0  0
  1  2  1  0  0  0  0
 21 22  2  0  0  0  0
 21 23  1  0  0  0  0
 19 20  1  0  0  0  0
 17 18  2  0  0  0  0
 17 19  1  0  0  0  0
 14 15  1  0  0  0  0
 14 16  1  0  0  0  0
 14 17  1  0  0  0  0
 11 12  1  0  0  0  0
 11 13  1  0  0  0  0
 11 14  1  0  0  0  0
  9 10  1  0  0  0  0
  9 11  1  0  0  0  0
  9 21  1  0  0  0  0
  7  8  1  0  0  0  0
  7  9  1  0  0  0  0
 25 26  1  0  0  0  0
 25 27  1  0  0  0  0
 25 28  1  0  0  0  0
 23 24  1  0  0  0  0
 23 25  1  0  0  0  0
M  END
$$$$
default_name
  -OEChem-02102213163D

 28 27  0     1  0  0  0  0  0999 V2000
   -3.2133   -3.5565    1.2809 H   0  0  0  0  0  0  0  0  0  0  0  0
   -3.1873   -2.5755    0.8089 C   0  0  0  0  0  0  0  0  0  0  0  0
   -3.8793   -1.9065    1.3169 H   0  0  0  0  0  0  0  0  0  0  0  0
   -3.4623   -2.6685   -0.2401 H   0  0  0  0  0  0  0  0  0  0  0  0
   -1.7863   -2.0195    0.9119 C   0  0  0  0  0  0  0  0  0  0  0  0
   -0.9073   -2.6615    1.4699 O   0  0  0  0  0  0  0  0  0  0  0  0
   -1.5803   -0.8195    0.3749 N   0  0  0  0  0  0  0  0  0  0  0  0
   -2.3603   -0.3345   -0.0451 H   0  0  0  0  0  0  0  0  0  0  0  0
   -0.2933   -0.1205    0.3719 C   0  0  1  0  0  0  0  0  0  0  0  0
    0.4439   -0.7485   -0.1303 H   0  0  0  0  0  0  0  0  0  0  0  0
   -0.4368    1.1924   -0.4246 C   0  0  0  0  0  0  0  0  0  0  0  0
   -1.4703    1.2706   -0.7663 H   0  0  0  0  0  0  0  0  0  0  0  0
   -0.2325    2.0374    0.2345 H   0  0  0  0  0  0  0  0  0  0  0  0
    0.4967    1.2871   -1.6439 C   0  0  0  0  0  0  0  0  0  0  0  0
    0.0365    1.9027   -2.4169 H   0  0  0  0  0  0  0  0  0  0  0  0
    1.4383    1.7422   -1.3392 H   0  0  0  0  0  0  0  0  0  0  0  0
    0.8043   -0.0810   -2.2441 C   0  0  0  0  0  0  0  0  0  0  0  0
    0.4738   -1.1501   -1.7566 O   0  0  0  0  0  0  0  0  0  0  0  0
    1.5054   -0.0658   -3.3930 O   0  0  0  0  0  0  0  0  0  0  0  0
    1.6242   -0.9879   -3.6271 H   0  0  0  0  0  0  0  0  0  0  0  0
    0.1871    0.1189    1.8122 C   0  0  0  0  0  0  0  0  0  0  0  0
    1.3541   -0.1171    2.1187 O   0  0  0  0  0  0  0  0  0  0  0  0
   -0.7126    0.5740    2.6926 N   0  0  0  0  0  0  0  0  0  0  0  0
   -1.6464    0.7663    2.3621 H   0  0  0  0  0  0  0  0  0  0  0  0
   -0.4191    0.8310    4.1010 C   0  0  0  0  0  0  0  0  0  0  0  0
    0.4022    1.5452    4.1828 H   0  0  0  0  0  0  0  0  0  0  0  0
   -1.2983    1.2366    4.6035 H   0  0  0  0  0  0  0  0  0  0  0  0
   -0.1204   -0.0980    4.5907 H   0  0  0  0  0  0  0  0  0  0  0  0
  5  6  2  0  0  0  0
  5  7  1  0  0  0  0
  2  3  1  0  0  0  0
  2  4  1  0  0  0  0
  2  5  1  0  0  0  0
  1  2  1  0  0  0  0
 21 22  2  0  0  0  0
 21 23  1  0  0  0  0
 19 20  1  0  0  0  0
 17 18  2  0  0  0  0
 17 19  1  0  0  0  0
 14 15  1  0  0  0  0
 14 16  1  0  0  0  0
 14 17  1  0  0  0  0
 11 12  1  0  0  0  0
 11 13  1  0  0  0  0
 11 14  1  0  0  0  0
  9 10  1  0  0  0  0
  9 11  1  0  0  0  0
  9 21  1  0  0  0  0
  7  8  1  0  0  0  0
  7  9  1  0  0  0  0
 25 26  1  0  0  0  0
 25 27  1  0  0  0  0
 25 28  1  0  0  0  0
 23 24  1  0  0  0  0
 23 25  1  0  0  0  0
M  END
$$$$
default_name
  -OEChem-02102213163D

 28 27  0     1  0  0  0  0  0999 V2000
   -3.2133   -3.5565    1.2809 H   0  0  0  0  0  0  0  0  0  0  0  0
   -3.1873   -2.5755    0.8089 C   0  0  0  0  0  0  0  0  0  0  0  0
   -3.8793   -1.9065    1.3169 H   0  0  0  0  0  0  0  0  0  0  0  0
   -3.4623   -2.6685   -0.2401 H   0  0  0  0  0  0  0  0  0  0  0  0
   -1.7863   -2.0195    0.9119 C   0  0  0  0  0  0  0  0  0  0  0  0
   -0.9073   -2.6615    1.4699 O   0  0  0  0  0  0  0  0  0  0  0  0
   -1.5803   -0.8195    0.3749 N   0  0  0  0  0  0  0  0  0  0  0  0
   -2.3603   -0.3345   -0.0451 H   0  0  0  0  0  0  0  0  0  0  0  0
   -0.2933   -0.1205    0.3719 C   0  0  1  0  0  0  0  0  0  0  0  0
    0.4439   -0.7485   -0.1303 H   0  0  0  0  0  0  0  0  0  0  0  0
   -0.4368    1.1924   -0.4246 C   0  0  0  0  0  0  0  0  0  0  0  0
   -1.4703    1.2706   -0.7663 H   0  0  0  0  0  0  0  0  0  0  0  0
   -0.2325    2.0374    0.2345 H   0  0  0  0  0  0  0  0  0  0  0  0
    0.4967    1.2871   -1.6439 C   0  0  0  0  0  0  0  0  0  0  0  0
    0.1738    2.0982   -2.2966 H   0  0  0  0  0  0  0  0  0  0  0  0
    1.5119    1.4865   -1.3028 H   0  0  0  0  0  0  0  0  0  0  0  0
    0.5156   -0.0020   -2.4590 C   0  0  0  0  0  0  0  0  0  0  0  0
   -0.0287   -1.0448   -2.1331 O   0  0  0  0  0  0  0  0  0  0  0  0
    1.2053    0.0521   -3.6136 O   0  0  0  0  0  0  0  0  0  0  0  0
    1.1313   -0.8258   -3.9918 H   0  0  0  0  0  0  0  0  0  0  0  0
    0.1871    0.1189    1.8122 C   0  0  0  0  0  0  0  0  0  0  0  0
    1.3541   -0.1171    2.1187 O   0  0  0  0  0  0  0  0  0  0  0  0
   -0.7126    0.5740    2.6926 N   0  0  0  0  0  0  0  0  0  0  0  0
   -1.6464    0.7663    2.3621 H   0  0  0  0  0  0  0  0  0  0  0  0
   -0.4191    0.8310    4.1010 C   0  0  0  0  0  0  0  0  0  0  0  0
    0.4022    1.5452    4.1828 H   0  0  0  0  0  0  0  0  0  0  0  0
   -1.2983    1.2366    4.6035 H   0  0  0  0  0  0  0  0  0  0  0  0
   -0.1204   -0.0980    4.5907 H   0  0  0  0  0  0  0  0  0  0  0  0
  5  6  2  0  0  0  0
  5  7  1  0  0  0  0
  2  3  1  0  0  0  0
  2  4  1  0  0  0  0
  2  5  1  0  0  0  0
  1  2  1  0  0  0  0
 21 22  2  0  0  0  0
 21 23  1  0  0  0  0
 19 20  1  0  0  0  0
 17 18  2  0  0  0  0
 17 19  1  0  0  0  0
 14 15  1  0  0  0  0
 14 16  1  0  0  0  0
 14 17  1  0  0  0  0
 11 12  1  0  0  0  0
 11 13  1  0  0  0  0
 11 14  1  0  0  0  0
  9 10  1  0  0  0  0
  9 11  1  0  0  0  0
  9 21  1  0  0  0  0
  7  8  1  0  0  0  0
  7  9  1  0  0  0  0
 25 26  1  0  0  0  0
 25 27  1  0  0  0  0
 25 28  1  0  0  0  0
 23 24  1  0  0  0  0
 23 25  1  0  0  0  0
M  END
$$$$
default_name
  -OEChem-02102213163D

 28 27  0     1  0  0  0  0  0999 V2000
   -3.2133   -3.5565    1.2809 H   0  0  0  0  0  0  0  0  0  0  0  0
   -3.1873   -2.5755    0.8089 C   0  0  0  0  0  0  0  0  0  0  0  0
   -3.8793   -1.9065    1.3169 H   0  0  0  0  0  0  0  0  0  0  0  0
   -3.4623   -2.6685   -0.2401 H   0  0  0  0  0  0  0  0  0  0  0  0
   -1.7863   -2.0195    0.9119 C   0  0  0  0  0  0  0  0  0  0  0  0
   -0.9073   -2.6615    1.4699 O   0  0  0  0  0  0  0  0  0  0  0  0
   -1.5803   -0.8195    0.3749 N   0  0  0  0  0  0  0  0  0  0  0  0
   -2.3603   -0.3345   -0.0451 H   0  0  0  0  0  0  0  0  0  0  0  0
   -0.2933   -0.1205    0.3719 C   0  0  1  0  0  0  0  0  0  0  0  0
    0.4439   -0.7485   -0.1303 H   0  0  0  0  0  0  0  0  0  0  0  0
   -0.4368    1.1924   -0.4246 C   0  0  0  0  0  0  0  0  0  0  0  0
   -1.4703    1.2706   -0.7663 H   0  0  0  0  0  0  0  0  0  0  0  0
   -0.2325    2.0374    0.2345 H   0  0  0  0  0  0  0  0  0  0  0  0
    0.4967    1.2871   -1.6439 C   0  0  0  0  0  0  0  0  0  0  0  0
    0.3485    2.2401   -2.1519 H   0  0  0  0  0  0  0  0  0  0  0  0
    1.5310    1.2186   -1.3089 H   0  0  0  0  0  0  0  0  0  0  0  0
    0.2495    0.1672   -2.6496 C   0  0  0  0  0  0  0  0  0  0  0  0
   -0.4984   -0.7809   -2.4722 O   0  0  0  0  0  0  0  0  0  0  0  0
    0.9360    0.2622   -3.8034 O   0  0  0  0  0  0  0  0  0  0  0  0
    0.6826   -0.5109   -4.3109 H   0  0  0  0  0  0  0  0  0  0  0  0
    0.1871    0.1189    1.8122 C   0  0  0  0  0  0  0  0  0  0  0  0
    1.3541   -0.1171    2.1187 O   0  0  0  0  0  0  0  0  0  0  0  0
   -0.7126    0.5740    2.6926 N   0  0  0  0  0  0  0  0  0  0  0  0
   -1.6464    0.7663    2.3621 H   0  0  0  0  0  0  0  0  0  0  0  0
   -0.4191    0.8310    4.1010 C   0  0  0  0  0  0  0  0  0  0  0  0
    0.4022    1.5452    4.1828 H   0  0  0  0  0  0  0  0  0  0  0  0
   -1.2983    1.2366    4.6035 H   0  0  0  0  0  0  0  0  0  0  0  0
   -0.1204   -0.0980    4.5907 H   0  0  0  0  0  0  0  0  0  0  0  0
  5  6  2  0  0  0  0
  5  7  1  0  0  0  0
  2  3  1  0  0  0  0
  2  4  1  0  0  0  0
  2  5  1  0  0  0  0
  1  2  1  0  0  0  0
 21 22  2  0  0  0  0
 21 23  1  0  0  0  0
 19 20  1  0  0  0  0
 17 18  2  0  0  0  0
 17 19  1  0  0  0  0
 14 15  1  0  0  0  0
 14 16  1  0  0  0  0
 14 17  1  0  0  0  0
 11 12  1  0  0  0  0
 11 13  1  0  0  0  0
 11 14  1  0  0  0  0
  9 10  1  0  0  0  0
  9 11  1  0  0  0  0
  9 21  1  0  0  0  0
  7  8  1  0  0  0  0
  7  9  1  0  0  0  0
 25 26  1  0  0  0  0
 25 27  1  0  0  0  0
 25 28  1  0  0  0  0
 23 24  1  0  0  0  0
 23 25  1  0  0  0  0
M  END
$$$$
default_name
  -OEChem-02102213163D

 28 27  0     1  0  0  0  0  0999 V2000
   -3.2133   -3.5565    1.2809 H   0  0  0  0  0  0  0  0  0  0  0  0
   -3.1873   -2.5755    0.8089 C   0  0  0  0  0  0  0  0  0  0  0  0
   -3.8793   -1.9065    1.3169 H   0  0  0  0  0  0  0  0  0  0  0  0
   -3.4623   -2.6685   -0.2401 H   0  0  0  0  0  0  0  0  0  0  0  0
   -1.7863   -2.0195    0.9119 C   0  0  0  0  0  0  0  0  0  0  0  0
   -0.9073   -2.6615    1.4699 O   0  0  0  0  0  0  0  0  0  0  0  0
   -1.5803   -0.8195    0.3749 N   0  0  0  0  0  0  0  0  0  0  0  0
   -2.3603   -0.3345   -0.0451 H   0  0  0  0  0  0  0  0  0  0  0  0
   -0.2933   -0.1205    0.3719 C   0  0  1  0  0  0  0  0  0  0  0  0
    0.4439   -0.7485   -0.1303 H   0  0  0  0  0  0  0  0  0  0  0  0
   -0.4368    1.1924   -0.4246 C   0  0  0  0  0  0  0  0  0  0  0  0
   -1.4703    1.2706   -0.7663 H   0  0  0  0  0  0  0  0  0  0  0  0
   -0.2325    2.0374    0.2345 H   0  0  0  0  0  0  0  0  0  0  0  0
    0.4967    1.2871   -1.6439 C   0  0  0  0  0  0  0  0  0  0  0  0
    0.5486    2.3186   -1.9926 H   0  0  0  0  0  0  0  0  0  0  0  0
    1.4945    0.9569   -1.3572 H   0  0  0  0  0  0  0  0  0  0  0  0
    0.0242    0.4152   -2.8029 C   0  0  0  0  0  0  0  0  0  0  0  0
   -0.9034   -0.3764   -2.7509 O   0  0  0  0  0  0  0  0  0  0  0  0
    0.7161    0.5501   -3.9495 O   0  0  0  0  0  0  0  0  0  0  0  0
    0.3088   -0.0645   -4.5624 H   0  0  0  0  0  0  0  0  0  0  0  0
    0.1871    0.1189    1.8122 C   0  0  0  0  0  0  0  0  0  0  0  0
    1.3541   -0.1171    2.1187 O   0  0  0  0  0  0  0  0  0  0  0  0
   -0.7126    0.5740    2.6926 N   0  0  0  0  0  0  0  0  0  0  0  0
   -1.6464    0.7663    2.3621 H   0  0  0  0  0  0  0  0  0  0  0  0
   -0.4191    0.8310    4.1010 C   0  0  0  0  0  0  0  0  0  0  0  0
    0.4022    1.5452    4.1828 H   0  0  0  0  0  0  0  0  0  0  0  0
   -1.2983    1.2366    4.6035 H   0  0  0  0  0  0  0  0  0  0  0  0
   -0.1204   -0.0980    4.5907 H   0  0  0  0  0  0  0  0  0  0  0  0
  5  6  2  0  0  0  0
  5  7  1  0  0  0  0
  2  3  1  0  0  0  0
  2  4  1  0  0  0  0
  2  5  1  0  0  0  0
  1  2  1  0  0  0  0
 21 22  2  0  0  0  0
 21 23  1  0  0  0  0
 19 20  1  0  0  0  0
 17 18  2  0  0  0  0
 17 19  1  0  0  0  0
 14 15  1  0  0  0  0
 14 16  1  0  0  0  0
 14 17  1  0  0  0  0
 11 12  1  0  0  0  0
 11 13  1  0  0  0  0
 11 14  1  0  0  0  0
  9 10  1  0  0  0  0
  9 11  1  0  0  0  0
  9 21  1  0  0  0  0
  7  8  1  0  0  0  0
  7  9  1  0  0  0  0
 25 26  1  0  0  0  0
 25 27  1  0  0  0  0
 25 28  1  0  0  0  0
 23 24  1  0  0  0  0
 23 25  1  0  0  0  0
M  END
$$$$
default_name
  -OEChem-02102213163D

 28 27  0     1  0  0  0  0  0999 V2000
   -3.2133   -3.5565    1.2809 H   0  0  0  0  0  0  0  0  0  0  0  0
   -3.1873   -2.5755    0.8089 C   0  0  0  0  0  0  0  0  0  0  0  0
   -3.8793   -1.9065    1.3169 H   0  0  0  0  0  0  0  0  0  0  0  0
   -3.4623   -2.6685   -0.2401 H   0  0  0  0  0  0  0  0  0  0  0  0
   -1.7863   -2.0195    0.9119 C   0  0  0  0  0  0  0  0  0  0  0  0
   -0.9073   -2.6615    1.4699 O   0  0  0  0  0  0  0  0  0  0  0  0
   -1.5803   -0.8195    0.3749 N   0  0  0  0  0  0  0  0  0  0  0  0
   -2.3603   -0.3345   -0.0451 H   0  0  0  0  0  0  0  0  0  0  0  0
   -0.2933   -0.1205    0.3719 C   0  0  1  0  0  0  0  0  0  0  0  0
    0.4439   -0.7485   -0.1303 H   0  0  0  0  0  0  0  0  0  0  0  0
   -0.4368    1.1924   -0.4246 C   0  0  0  0  0  0  0  0  0  0  0  0
   -1.4703    1.2706   -0.7663 H   0  0  0  0  0  0  0  0  0  0  0  0
   -0.2325    2.0374    0.2345 H   0  0  0  0  0  0  0  0  0  0  0  0
    0.4967    1.2871   -1.6439 C   0  0  0  0  0  0  0  0  0  0  0  0
    0.7606    2.3283   -1.8296 H   0  0  0  0  0  0  0  0  0  0  0  0
    1.4047    0.7193   -1.4444 H   0  0  0  0  0  0  0  0  0  0  0  0
   -0.1450    0.7250   -2.9084 C   0  0  0  0  0  0  0  0  0  0  0  0
   -1.2161    0.1411   -2.9501 O   0  0  0  0  0  0  0  0  0  0  0  0
    0.5603    0.8963   -4.0419 O   0  0  0  0  0  0  0  0  0  0  0  0
    0.0353    0.4828   -4.7294 H   0  0  0  0  0  0  0  0  0  0  0  0
    0.1871    0.1189    1.8122 C   0  0  0  0  0  0  0  0  0  0  0  0
    1.3541   -0.1171    2.1187 O   0  0  0  0  0  0  0  0  0  0  0  0
   -0.7126    0.5740    2.6926 N   0  0  0  0  0  0  0  0  0  0  0  0
   -1.6464    0.7663    2.3621 H   0  0  0  0  0  0  0  0  0  0  0  0
   -0.4191    0.8310    4.1010 C   0  0  0  0  0  0  0  0  0  0  0  0
    0.4022    1.5452    4.1828 H   0  0  0  0  0  0  0  0  0  0  0  0
   -1.2983    1.2366    4.6035 H   0  0  0  0  0  0  0  0  0  0  0  0
   -0.1204   -0.0980    4.5907 H   0  0  0  0  0  0  0  0  0  0  0  0
  5  6  2  0  0  0  0
  5  7  1  0  0  0  0
  2  3  1  0  0  0  0
  2  4  1  0  0  0  0
  2  5  1  0  0  0  0
  1  2  1  0  0  0  0
 21 22  2  0  0  0  0
 21 23  1  0  0  0  0
 19 20  1  0  0  0  0
 17 18  2  0  0  0  0
 17 19  1  0  0  0  0
 14 15  1  0  0  0  0
 14 16  1  0  0  0  0
 14 17  1  0  0  0  0
 11 12  1  0  0  0  0
 11 13  1  0  0  0  0
 11 14  1  0  0  0  0
  9 10  1  0  0  0  0
  9 11  1  0  0  0  0
  9 21  1  0  0  0  0
  7  8  1  0  0  0  0
  7  9  1  0  0  0  0
 25 26  1  0  0  0  0
 25 27  1  0  0  0  0
 25 28  1  0  0  0  0
 23 24  1  0  0  0  0
 23 25  1  0  0  0  0
M  END
$$$$
default_name
  -OEChem-02102213163D

 28 27  0     1  0  0  0  0  0999 V2000
   -3.2133   -3.5565    1.2809 H   0  0  0  0  0  0  0  0  0  0  0  0
   -3.1873   -2.5755    0.8089 C   0  0  0  0  0  0  0  0  0  0  0  0
   -3.8793   -1.9065    1.3169 H   0  0  0  0  0  0  0  0  0  0  0  0
   -3.4623   -2.6685   -0.2401 H   0  0  0  0  0  0  0  0  0  0  0  0
   -1.7863   -2.0195    0.9119 C   0  0  0  0  0  0  0  0  0  0  0  0
   -0.9073   -2.6615    1.4699 O   0  0  0  0  0  0  0  0  0  0  0  0
   -1.5803   -0.8195    0.3749 N   0  0  0  0  0  0  0  0  0  0  0  0
   -2.3603   -0.3345   -0.0451 H   0  0  0  0  0  0  0  0  0  0  0  0
   -0.2933   -0.1205    0.3719 C   0  0  1  0  0  0  0  0  0  0  0  0
    0.4439   -0.7485   -0.1303 H   0  0  0  0  0  0  0  0  0  0  0  0
   -0.4368    1.1924   -0.4246 C   0  0  0  0  0  0  0  0  0  0  0  0
   -1.4703    1.2706   -0.7663 H   0  0  0  0  0  0  0  0  0  0  0  0
   -0.2325    2.0374    0.2345 H   0  0  0  0  0  0  0  0  0  0  0  0
    0.4967    1.2871   -1.6439 C   0  0  0  0  0  0  0  0  0  0  0  0
    0.9699    2.2686   -1.6740 H   0  0  0  0  0  0  0  0  0  0  0  0
    1.2679    0.5218   -1.5645 H   0  0  0  0  0  0  0  0  0  0  0  0
   -0.2466    1.0756   -2.9589 C   0  0  0  0  0  0  0  0  0  0  0  0
   -1.4151    0.7365   -3.0563 O   0  0  0  0  0  0  0  0  0  0  0  0
    0.4794    1.2771   -4.0743 O   0  0  0  0  0  0  0  0  0  0  0  0
   -0.1193    1.0938   -4.8003 H   0  0  0  0  0  0  0  0  0  0  0  0
    0.1871    0.1189    1.8122 C   0  0  0  0  0  0  0  0  0  0  0  0
    1.3541   -0.1171    2.1187 O   0  0  0  0  0  0  0  0  0  0  0  0
   -0.7126    0.5740    2.6926 N   0  0  0  0  0  0  0  0  0  0  0  0
   -1.6464    0.7663    2.3621 H   0  0  0  0  0  0  0  0  0  0  0  0
   -0.4191    0.8310    4.1010 C   0  0  0  0  0  0  0  0  0  0  0  0
    0.4022    1.5452    4.1828 H   0  0  0  0  0  0  0  0  0  0  0  0
   -1.2983    1.2366    4.6035 H   0  0  0  0  0  0  0  0  0  0  0  0
   -0.1204   -0.0980    4.5907 H   0  0  0  0  0  0  0  0  0  0  0  0
  5  6  2  0  0  0  0
  5  7  1  0  0  0  0
  2  3  1  0  0  0  0
  2  4  1  0  0  0  0
  2  5  1  0  0  0  0
  1  2  1  0  0  0  0
 21 22  2  0  0  0  0
 21 23  1  0  0  0  0
 19 20  1  0  0  0  0
 17 18  2  0  0  0  0
 17 19  1  0  0  0  0
 14 15  1  0  0  0  0
 14 16  1  0  0  0  0
 14 17  1  0  0  0  0
 11 12  1  0  0  0  0
 11 13  1  0  0  0  0
 11 14  1  0  0  0  0
  9 10  1  0  0  0  0
  9 11  1  0  0  0  0
  9 21  1  0  0  0  0
  7  8  1  0  0  0  0
  7  9  1  0  0  0  0
 25 26  1  0  0  0  0
 25 27  1  0  0  0  0
 25 28  1  0  0  0  0
 23 24  1  0  0  0  0
 23 25  1  0  0  0  0
M  END
$$$$
default_name
  -OEChem-02102213163D

 28 27  0     1  0  0  0  0  0999 V2000
   -3.2133   -3.5565    1.2809 H   0  0  0  0  0  0  0  0  0  0  0  0
   -3.1873   -2.5755    0.8089 C   0  0  0  0  0  0  0  0  0  0  0  0
   -3.8793   -1.9065    1.3169 H   0  0  0  0  0  0  0  0  0  0  0  0
   -3.4623   -2.6685   -0.2401 H   0  0  0  0  0  0  0  0  0  0  0  0
   -1.7863   -2.0195    0.9119 C   0  0  0  0  0  0  0  0  0  0  0  0
   -0.9073   -2.6615    1.4699 O   0  0  0  0  0  0  0  0  0  0  0  0
   -1.5803   -0.8195    0.3749 N   0  0  0  0  0  0  0  0  0  0  0  0
   -2.3603   -0.3345   -0.0451 H   0  0  0  0  0  0  0  0  0  0  0  0
   -0.2933   -0.1205    0.3719 C   0  0  1  0  0  0  0  0  0  0  0  0
    0.4439   -0.7485   -0.1303 H   0  0  0  0  0  0  0  0  0  0  0  0
   -0.4368    1.1924   -0.4246 C   0  0  0  0  0  0  0  0  0  0  0  0
   -1.4703    1.2706   -0.7663 H   0  0  0  0  0  0  0  0  0  0  0  0
   -0.2325    2.0374    0.2345 H   0  0  0  0  0  0  0  0  0  0  0  0
    0.4967    1.2871   -1.6439 C   0  0  0  0  0  0  0  0  0  0  0  0
    1.1623    2.1436   -1.5364 H   0  0  0  0  0  0  0  0  0  0  0  0
    1.0933    0.3779   -1.7093 H   0  0  0  0  0  0  0  0  0  0  0  0
   -0.2736    1.4430   -2.9511 C   0  0  0  0  0  0  0  0  0  0  0  0
   -1.4869    1.3690   -3.0622 O   0  0  0  0  0  0  0  0  0  0  0  0
    0.4789    1.6666   -4.0445 O   0  0  0  0  0  0  0  0  0  0  0  0
   -0.1445    1.7269   -4.7705 H   0  0  0  0  0  0  0  0  0  0  0  0
    0.1871    0.1189    1.8122 C   0  0  0  0  0  0  0  0  0  0  0  0
    1.3541   -0.1171    2.1187 O   0  0  0  0  0  0  0  0  0  0  0  0
   -0.7126    0.5740    2.6926 N   0  0  0  0  0  0  0  0  0  0  0  0
   -1.6464    0.7663    2.3621 H   0  0  0  0  0  0  0  0  0  0  0  0
   -0.4191    0.8310    4.1010 C   0  0  0  0  0  0  0  0  0  0  0  0
    0.4022    1.5452    4.1828 H   0  0  0  0  0  0  0  0  0  0  0  0
   -1.2983    1.2366    4.6035 H   0  0  0  0  0  0  0  0  0  0  0  0
   -0.1204   -0.0980    4.5907 H   0  0  0  0  0  0  0  0  0  0  0  0
  5  6  2  0  0  0  0
  5  7  1  0  0  0  0
  2  3  1  0  0  0  0
  2  4  1  0  0  0  0
  2  5  1  0  0  0  0
  1  2  1  0  0  0  0
 21 22  2  0  0  0  0
 21 23  1  0  0  0  0
 19 20  1  0  0  0  0
 17 18  2  0  0  0  0
 17 19  1  0  0  0  0
 14 15  1  0  0  0  0
 14 16  1  0  0  0  0
 14 17  1  0  0  0  0
 11 12  1  0  0  0  0
 11 13  1  0  0  0  0
 11 14  1  0  0  0  0
  9 10  1  0  0  0  0
  9 11  1  0  0  0  0
  9 21  1  0  0  0  0
  7  8  1  0  0  0  0
  7  9  1  0  0  0  0
 25 26  1  0  0  0  0
 25 27  1  0  0  0  0
 25 28  1  0  0  0  0
 23 24  1  0  0  0  0
 23 25  1  0  0  0  0
M  END
$$$$
default_name
  -OEChem-02102213163D

 28 27  0     1  0  0  0  0  0999 V2000
   -3.2133   -3.5565    1.2809 H   0  0  0  0  0  0  0  0  0  0  0  0
   -3.1873   -2.5755    0.8089 C   0  0  0  0  0  0  0  0  0  0  0  0
   -3.8793   -1.9065    1.3169 H   0  0  0  0  0  0  0  0  0  0  0  0
   -3.4623   -2.6685   -0.2401 H   0  0  0  0  0  0  0  0  0  0  0  0
   -1.7863   -2.0195    0.9119 C   0  0  0  0  0  0  0  0  0  0  0  0
   -0.9073   -2.6615    1.4699 O   0  0  0  0  0  0  0  0  0  0  0  0
   -1.5803   -0.8195    0.3749 N   0  0  0  0  0  0  0  0  0  0  0  0
   -2.3603   -0.3345   -0.0451 H   0  0  0  0  0  0  0  0  0  0  0  0
   -0.2933   -0.1205    0.3719 C   0  0  1  0  0  0  0  0  0  0  0  0
    0.4439   -0.7485   -0.1303 H   0  0  0  0  0  0  0  0  0  0  0  0
   -0.4368    1.1924   -0.4246 C   0  0  0  0  0  0  0  0  0  0  0  0
   -1.4703    1.2706   -0.7663 H   0  0  0  0  0  0  0  0  0  0  0  0
   -0.2325    2.0374    0.2345 H   0  0  0  0  0  0  0  0  0  0  0  0
    0.4967    1.2871   -1.6439 C   0  0  0  0  0  0  0  0  0  0  0  0
    1.3247    1.9618   -1.4262 H   0  0  0  0  0  0  0  0  0  0  0  0
    0.8928    0.2975   -1.8690 H   0  0  0  0  0  0  0  0  0  0  0  0
   -0.2243    1.8021   -2.8855 C   0  0  0  0  0  0  0  0  0  0  0  0
   -1.4266    1.9956   -2.9674 O   0  0  0  0  0  0  0  0  0  0  0  0
    0.5587    2.0383   -3.9545 O   0  0  0  0  0  0  0  0  0  0  0  0
   -0.0384    2.3388   -4.6418 H   0  0  0  0  0  0  0  0  0  0  0  0
    0.1871    0.1189    1.8122 C   0  0  0  0  0  0  0  0  0  0  0  0
    1.3541   -0.1171    2.1187 O   0  0  0  0  0  0  0  0  0  0  0  0
   -0.7126    0.5740    2.6926 N   0  0  0  0  0  0  0  0  0  0  0  0
   -1.6464    0.7663    2.3621 H   0  0  0  0  0  0  0  0  0  0  0  0
   -0.4191    0.8310    4.1010 C   0  0  0  0  0  0  0  0  0  0  0  0
    0.4022    1.5452    4.1828 H   0  0  0  0  0  0  0  0  0  0  0  0
   -1.2983    1.2366    4.6035 H   0  0  0  0  0  0  0  0  0  0  0  0
   -0.1204   -0.0980    4.5907 H   0  0  0  0  0  0  0  0  0  0  0  0
  5  6  2  0  0  0  0
  5  7  1  0  0  0  0
  2  3  1  0  0  0  0
  2  4  1  0  0  0  0
  2  5  1  0  0  0  0
  1  2  1  0  0  0  0
 21 22  2  0  0  0  0
 21 23  1  0  0  0  0
 19 20  1  0  0  0  0
 17 18  2  0  0  0  0
 17 19  1  0  0  0  0
 14 15  1  0  0  0  0
 14 16  1  0  0  0  0
 14 17  1  0  0  0  0
 11 12  1  0  0  0  0
 11 13  1  0  0  0  0
 11 14  1  0  0  0  0
  9 10  1  0  0  0  0
  9 11  1  0  0  0  0
  9 21  1  0  0  0  0
  7  8  1  0  0  0  0
  7  9  1  0  0  0  0
 25 26  1  0  0  0  0
 25 27  1  0  0  0  0
 25 28  1  0  0  0  0
 23 24  1  0  0  0  0
 23 25  1  0  0  0  0
M  END
$$$$
default_name
  -OEChem-02102213163D

 28 27  0     1  0  0  0  0  0999 V2000
   -3.2133   -3.5565    1.2809 H   0  0  0  0  0  0  0  0  0  0  0  0
   -3.1873   -2.5755    0.8089 C   0  0  0  0  0  0  0  0  0  0  0  0
   -3.8793   -1.9065    1.3169 H   0  0  0  0  0  0  0  0  0  0  0  0
   -3.4623   -2.6685   -0.2401 H   0  0  0  0  0  0  0  0  0  0  0  0
   -1.7863   -2.0195    0.9119 C   0  0  0  0  0  0  0  0  0  0  0  0
   -0.9073   -2.6615    1.4699 O   0  0  0  0  0  0  0  0  0  0  0  0
   -1.5803   -0.8195    0.3749 N   0  0  0  0  0  0  0  0  0  0  0  0
   -2.3603   -0.3345   -0.0451 H   0  0  0  0  0  0  0  0  0  0  0  0
   -0.2933   -0.1205    0.3719 C   0  0  1  0  0  0  0  0  0  0  0  0
    0.4439   -0.7485   -0.1303 H   0  0  0  0  0  0  0  0  0  0  0  0
   -0.4368    1.1924   -0.4246 C   0  0  0  0  0  0  0  0  0  0  0  0
   -1.4703    1.2706   -0.7663 H   0  0  0  0  0  0  0  0  0  0  0  0
   -0.2325    2.0374    0.2345 H   0  0  0  0  0  0  0  0  0  0  0  0
    0.4967    1.2871   -1.6439 C   0  0  0  0  0  0  0  0  0  0  0  0
    1.4460    1.7355   -1.3508 H   0  0  0  0  0  0  0  0  0  0  0  0
    0.6802    0.2861   -2.0327 H   0  0  0  0  0  0  0  0  0  0  0  0
   -0.1018    2.1287   -2.7664 C   0  0  0  0  0  0  0  0  0  0  0  0
   -1.2383    2.5737   -2.7784 O   0  0  0  0  0  0  0  0  0  0  0  0
    0.7135    2.3669   -3.8105 O   0  0  0  0  0  0  0  0  0  0  0  0
    0.1915    2.8879   -4.4231 H   0  0  0  0  0  0  0  0  0  0  0  0
    0.1871    0.1189    1.8122 C   0  0  0  0  0  0  0  0  0  0  0  0
    1.3541   -0.1171    2.1187 O   0  0  0  0  0  0  0  0  0  0  0  0
   -0.7126    0.5740    2.6926 N   0  0  0  0  0  0  0  0  0  0  0  0
   -1.6464    0.7663    2.3621 H   0  0  0  0  0  0  0  0  0  0  0  0
   -0.4191    0.8310    4.1010 C   0  0  0  0  0  0  0  0  0  0  0  0
    0.4022    1.5452    4.1828 H   0  0  0  0  0  0  0  0  0  0  0  0
   -1.2983    1.2366    4.6035 H   0  0  0  0  0  0  0  0  0  0  0  0
   -0.1204   -0.0980    4.5907 H   0  0  0  0  0  0  0  0  0  0  0  0
  5  6  2  0  0  0  0
  5  7  1  0  0  0  0
  2  3  1  0  0  0  0
  2  4  1  0  0  0  0
  2  5  1  0  0  0  0
  1  2  1  0  0  0  0
 21 22  2  0  0  0  0
 21 23  1  0  0  0  0
 19 20  1  0  0  0  0
 17 18  2  0  0  0  0
 17 19  1  0  0  0  0
 14 15  1  0  0  0  0
 14 16  1  0  0  0  0
 14 17  1  0  0  0  0
 11 12  1  0  0  0  0
 11 13  1  0  0  0  0
 11 14  1  0  0  0  0
  9 10  1  0  0  0  0
  9 11  1  0  0  0  0
  9 21  1  0  0  0  0
  7  8  1  0  0  0  0
  7  9  1  0  0  0  0
 25 26  1  0  0  0  0
 25 27  1  0  0  0  0
 25 28  1  0  0  0  0
 23 24  1  0  0  0  0
 23 25  1  0  0  0  0
M  END
$$$$
default_name
  -OEChem-02102213163D

 28 27  0     1  0  0  0  0  0999 V2000
   -3.2133   -3.5565    1.2809 H   0  0  0  0  0  0  0  0  0  0  0  0
   -3.1873   -2.5755    0.8089 C   0  0  0  0  0  0  0  0  0  0  0  0
   -3.8793   -1.9065    1.3169 H   0  0  0  0  0  0  0  0  0  0  0  0
   -3.4623   -2.6685   -0.2401 H   0  0  0  0  0  0  0  0  0  0  0  0
   -1.7863   -2.0195    0.9119 C   0  0  0  0  0  0  0  0  0  0  0  0
   -0.9073   -2.6615    1.4699 O   0  0  0  0  0  0  0  0  0  0  0  0
   -1.5803   -0.8195    0.3749 N   0  0  0  0  0  0  0  0  0  0  0  0
   -2.3603   -0.3345   -0.0451 H   0  0  0  0  0  0  0  0  0  0  0  0
   -0.2933   -0.1205    0.3719 C   0  0  1  0  0  0  0  0  0  0  0  0
    0.4439   -0.7485   -0.1303 H   0  0  0  0  0  0  0  0  0  0  0  0
   -0.4368    1.1924   -0.4246 C   0  0  0  0  0  0  0  0  0  0  0  0
   -1.4703    1.2706   -0.7663 H   0  0  0  0  0  0  0  0  0  0  0  0
   -0.2325    2.0374    0.2345 H   0  0  0  0  0  0  0  0  0  0  0  0
    0.4967    1.2871   -1.6439 C   0  0  0  0  0  0  0  0  0  0  0  0
    1.5180    1.4803   -1.3155 H   0  0  0  0  0  0  0  0  0  0  0  0
    0.4698    0.3444   -2.1892 H   0  0  0  0  0  0  0  0  0  0  0  0
    0.0853    2.4002   -2.6021 C   0  0  0  0  0  0  0  0  0  0  0  0
   -0.9349    3.0637   -2.5081 O   0  0  0  0  0  0  0  0  0  0  0  0
    0.9327    2.6298   -3.6223 O   0  0  0  0  0  0  0  0  0  0  0  0
    0.5298    3.3368   -4.1293 H   0  0  0  0  0  0  0  0  0  0  0  0
    0.1871    0.1189    1.8122 C   0  0  0  0  0  0  0  0  0  0  0  0
    1.3541   -0.1171    2.1187 O   0  0  0  0  0  0  0  0  0  0  0  0
   -0.7126    0.5740    2.6926 N   0  0  0  0  0  0  0  0  0  0  0  0
   -1.6464    0.7663    2.3621 H   0  0  0  0  0  0  0  0  0  0  0  0
   -0.4191    0.8310    4.1010 C   0  0  0  0  0  0  0  0  0  0  0  0
    0.4022    1.5452    4.1828 H   0  0  0  0  0  0  0  0  0  0  0  0
   -1.2983    1.2366    4.6035 H   0  0  0  0  0  0  0  0  0  0  0  0
   -0.1204   -0.0980    4.5907 H   0  0  0  0  0  0  0  0  0  0  0  0
  5  6  2  0  0  0  0
  5  7  1  0  0  0  0
  2  3  1  0  0  0  0
  2  4  1  0  0  0  0
  2  5  1  0  0  0  0
  1  2  1  0  0  0  0
 21 22  2  0  0  0  0
 21 23  1  0  0  0  0
 19 20  1  0  0  0  0
 17 18  2  0  0  0  0
 17 19  1  0  0  0  0
 14 15  1  0  0  0  0
 14 16  1  0  0  0  0
 14 17  1  0  0  0  0
 11 12  1  0  0  0  0
 11 13  1  0  0  0  0
 11 14  1  0  0  0  0
  9 10  1  0  0  0  0
  9 11  1  0  0  0  0
  9 21  1  0  0  0  0
  7  8  1  0  0  0  0
  7  9  1  0  0  0  0
 25 26  1  0  0  0  0
 25 27  1  0  0  0  0
 25 28  1  0  0  0  0
 23 24  1  0  0  0  0
 23 25  1  0  0  0  0
M  END
$$$$
default_name
  -OEChem-02102213163D

 28 27  0     1  0  0  0  0  0999 V2000
   -3.2133   -3.5565    1.2809 H   0  0  0  0  0  0  0  0  0  0  0  0
   -3.1873   -2.5755    0.8089 C   0  0  0  0  0  0  0  0  0  0  0  0
   -3.8793   -1.9065    1.3169 H   0  0  0  0  0  0  0  0  0  0  0  0
   -3.4623   -2.6685   -0.2401 H   0  0  0  0  0  0  0  0  0  0  0  0
   -1.7863   -2.0195    0.9119 C   0  0  0  0  0  0  0  0  0  0  0  0
   -0.9073   -2.6615    1.4699 O   0  0  0  0  0  0  0  0  0  0  0  0
   -1.5803   -0.8195    0.3749 N   0  0  0  0  0  0  0  0  0  0  0  0
   -2.3603   -0.3345   -0.0451 H   0  0  0  0  0  0  0  0  0  0  0  0
   -0.2933   -0.1205    0.3719 C   0  0  1  0  0  0  0  0  0  0  0  0
    0.4439   -0.7485   -0.1303 H   0  0  0  0  0  0  0  0  0  0  0  0
   -0.4368    1.1924   -0.4246 C   0  0  0  0  0  0  0  0  0  0  0  0
   -1.5010    1.4077   -0.5348 H   0  0  0  0  0  0  0  0  0  0  0  0
    0.0175    2.0077    0.1404 H   0  0  0  0  0  0  0  0  0  0  0  0
    0.2069    1.1478   -1.8213 C   0  0  0  0  0  0  0  0  0  0  0  0
    1.2725    0.9360   -1.7324 H   0  0  0  0  0  0  0  0  0  0  0  0
   -0.2653    0.3606   -2.4079 H   0  0  0  0  0  0  0  0  0  0  0  0
    0.0435    2.4634   -2.5756 C   0  0  0  0  0  0  0  0  0  0  0  0
   -0.6287    3.4091   -2.1967 O   0  0  0  0  0  0  0  0  0  0  0  0
    0.6968    2.5437   -3.7496 O   0  0  0  0  0  0  0  0  0  0  0  0
    0.4841    3.4117   -4.0967 H   0  0  0  0  0  0  0  0  0  0  0  0
    0.1871    0.1189    1.8122 C   0  0  0  0  0  0  0  0  0  0  0  0
    1.3541   -0.1171    2.1187 O   0  0  0  0  0  0  0  0  0  0  0  0
   -0.7126    0.5740    2.6926 N   0  0  0  0  0  0  0  0  0  0  0  0
   -1.6464    0.7663    2.3621 H   0  0  0  0  0  0  0  0  0  0  0  0
   -0.4191    0.8310    4.1010 C   0  0  0  0  0  0  0  0  0  0  0  0
    0.4022    1.5452    4.1828 H   0  0  0  0  0  0  0  0  0  0  0  0
   -1.2983    1.2366    4.6035 H   0  0  0  0  0  0  0  0  0  0  0  0
   -0.1204   -0.0980    4.5907 H   0  0  0  0  0  0  0  0  0  0  0  0
  5  6  2  0  0  0  0
  5  7  1  0  0  0  0
  2  3  1  0  0  0  0
  2  4  1  0  0  0  0
  2  5  1  0  0  0  0
  1  2  1  0  0  0  0
 21 22  2  0  0  0  0
 21 23  1  0  0  0  0
 19 20  1  0  0  0  0
 17 18  2  0  0  0  0
 17 19  1  0  0  0  0
 14 15  1  0  0  0  0
 14 16  1  0  0  0  0
 14 17  1  0  0  0  0
 11 12  1  0  0  0  0
 11 13  1  0  0  0  0
 11 14  1  0  0  0  0
  9 10  1  0  0  0  0
  9 11  1  0  0  0  0
  9 21  1  0  0  0  0
  7  8  1  0  0  0  0
  7  9  1  0  0  0  0
 25 26  1  0  0  0  0
 25 27  1  0  0  0  0
 25 28  1  0  0  0  0
 23 24  1  0  0  0  0
 23 25  1  0  0  0  0
M  END
$$$$
default_name
  -OEChem-02102213163D

 28 27  0     1  0  0  0  0  0999 V2000
   -3.2133   -3.5565    1.2809 H   0  0  0  0  0  0  0  0  0  0  0  0
   -3.1873   -2.5755    0.8089 C   0  0  0  0  0  0  0  0  0  0  0  0
   -3.8793   -1.9065    1.3169 H   0  0  0  0  0  0  0  0  0  0  0  0
   -3.4623   -2.6685   -0.2401 H   0  0  0  0  0  0  0  0  0  0  0  0
   -1.7863   -2.0195    0.9119 C   0  0  0  0  0  0  0  0  0  0  0  0
   -0.9073   -2.6615    1.4699 O   0  0  0  0  0  0  0  0  0  0  0  0
   -1.5803   -0.8195    0.3749 N   0  0  0  0  0  0  0  0  0  0  0  0
   -2.3603   -0.3345   -0.0451 H   0  0  0  0  0  0  0  0  0  0  0  0
   -0.2933   -0.1205    0.3719 C   0  0  1  0  0  0  0  0  0  0  0  0
    0.4439   -0.7485   -0.1303 H   0  0  0  0  0  0  0  0  0  0  0  0
   -0.4368    1.1924   -0.4246 C   0  0  0  0  0  0  0  0  0  0  0  0
   -1.5010    1.4077   -0.5348 H   0  0  0  0  0  0  0  0  0  0  0  0
    0.0175    2.0077    0.1404 H   0  0  0  0  0  0  0  0  0  0  0  0
    0.2069    1.1478   -1.8213 C   0  0  0  0  0  0  0  0  0  0  0  0
    1.1911    0.6829   -1.7618 H   0  0  0  0  0  0  0  0  0  0  0  0
   -0.4246    0.5616   -2.4878 H   0  0  0  0  0  0  0  0  0  0  0  0
    0.3721    2.5381   -2.4266 C   0  0  0  0  0  0  0  0  0  0  0  0
   -0.0672    3.5691   -1.9430 O   0  0  0  0  0  0  0  0  0  0  0  0
    1.0499    2.5879   -3.5883 O   0  0  0  0  0  0  0  0  0  0  0  0
    1.0538    3.5138   -3.8374 H   0  0  0  0  0  0  0  0  0  0  0  0
    0.1871    0.1189    1.8122 C   0  0  0  0  0  0  0  0  0  0  0  0
    1.3541   -0.1171    2.1187 O   0  0  0  0  0  0  0  0  0  0  0  0
   -0.7126    0.5740    2.6926 N   0  0  0  0  0  0  0  0  0  0  0  0
   -1.6464    0.7663    2.3621 H   0  0  0  0  0  0  0  0  0  0  0  0
   -0.4191    0.8310    4.1010 C   0  0  0  0  0  0  0  0  0  0  0  0
    0.4022    1.5452    4.1828 H   0  0  0  0  0  0  0  0  0  0  0  0
   -1.2983    1.2366    4.6035 H   0  0  0  0  0  0  0  0  0  0  0  0
   -0.1204   -0.0980    4.5907 H   0  0  0  0  0  0  0  0  0  0  0  0
  5  6  2  0  0  0  0
  5  7  1  0  0  0  0
  2  3  1  0  0  0  0
  2  4  1  0  0  0  0
  2  5  1  0  0  0  0
  1  2  1  0  0  0  0
 21 22  2  0  0  0  0
 21 23  1  0  0  0  0
 19 20  1  0  0  0  0
 17 18  2  0  0  0  0
 17 19  1  0  0  0  0
 14 15  1  0  0  0  0
 14 16  1  0  0  0  0
 14 17  1  0  0  0  0
 11 12  1  0  0  0  0
 11 13  1  0  0  0  0
 11 14  1  0  0  0  0
  9 10  1  0  0  0  0
  9 11  1  0  0  0  0
  9 21  1  0  0  0  0
  7  8  1  0  0  0  0
  7  9  1  0  0  0  0
 25 26  1  0  0  0  0
 25 27  1  0  0  0  0
 25 28  1  0  0  0  0
 23 24  1  0  0  0  0
 23 25  1  0  0  0  0
M  END
$$$$
default_name
  -OEChem-02102213163D

 28 27  0     1  0  0  0  0  0999 V2000
   -3.2133   -3.5565    1.2809 H   0  0  0  0  0  0  0  0  0  0  0  0
   -3.1873   -2.5755    0.8089 C   0  0  0  0  0  0  0  0  0  0  0  0
   -3.8793   -1.9065    1.3169 H   0  0  0  0  0  0  0  0  0  0  0  0
   -3.4623   -2.6685   -0.2401 H   0  0  0  0  0  0  0  0  0  0  0  0
   -1.7863   -2.0195    0.9119 C   0  0  0  0  0  0  0  0  0  0  0  0
   -0.9073   -2.6615    1.4699 O   0  0  0  0  0  0  0  0  0  0  0  0
   -1.5803   -0.8195    0.3749 N   0  0  0  0  0  0  0  0  0  0  0  0
   -2.3603   -0.3345   -0.0451 H   0  0  0  0  0  0  0  0  0  0  0  0
   -0.2933   -0.1205    0.3719 C   0  0  1  0  0  0  0  0  0  0  0  0
    0.4439   -0.7485   -0.1303 H   0  0  0  0  0  0  0  0  0  0  0  0
   -0.4368    1.1924   -0.4246 C   0  0  0  0  0  0  0  0  0  0  0  0
   -1.5010    1.4077   -0.5348 H   0  0  0  0  0  0  0  0  0  0  0  0
    0.0175    2.0077    0.1404 H   0  0  0  0  0  0  0  0  0  0  0  0
    0.2069    1.1478   -1.8213 C   0  0  0  0  0  0  0  0  0  0  0  0
    1.0532    0.4607   -1.8183 H   0  0  0  0  0  0  0  0  0  0  0  0
   -0.5307    0.8018   -2.5444 H   0  0  0  0  0  0  0  0  0  0  0  0
    0.7059    2.5169   -2.2720 C   0  0  0  0  0  0  0  0  0  0  0  0
    0.5109    3.5643   -1.6764 O   0  0  0  0  0  0  0  0  0  0  0  0
    1.4001    2.5302   -3.4251 O   0  0  0  0  0  0  0  0  0  0  0  0
    1.6262    3.4504   -3.5716 H   0  0  0  0  0  0  0  0  0  0  0  0
    0.1871    0.1189    1.8122 C   0  0  0  0  0  0  0  0  0  0  0  0
    1.3541   -0.1171    2.1187 O   0  0  0  0  0  0  0  0  0  0  0  0
   -0.7126    0.5740    2.6926 N   0  0  0  0  0  0  0  0  0  0  0  0
   -1.6464    0.7663    2.3621 H   0  0  0  0  0  0  0  0  0  0  0  0
   -0.4191    0.8310    4.1010 C   0  0  0  0  0  0  0  0  0  0  0  0
    0.4022    1.5452    4.1828 H   0  0  0  0  0  0  0  0  0  0  0  0
   -1.2983    1.2366    4.6035 H   0  0  0  0  0  0  0  0  0  0  0  0
   -0.1204   -0.0980    4.5907 H   0  0  0  0  0  0  0  0  0  0  0  0
  5  6  2  0  0  0  0
  5  7  1  0  0  0  0
  2  3  1  0  0  0  0
  2  4  1  0  0  0  0
  2  5  1  0  0  0  0
  1  2  1  0  0  0  0
 21 22  2  0  0  0  0
 21 23  1  0  0  0  0
 19 20  1  0  0  0  0
 17 18  2  0  0  0  0
 17 19  1  0  0  0  0
 14 15  1  0  0  0  0
 14 16  1  0  0  0  0
 14 17  1  0  0  0  0
 11 12  1  0  0  0  0
 11 13  1  0  0  0  0
 11 14  1  0  0  0  0
  9 10  1  0  0  0  0
  9 11  1  0  0  0  0
  9 21  1  0  0  0  0
  7  8  1  0  0  0  0
  7  9  1  0  0  0  0
 25 26  1  0  0  0  0
 25 27  1  0  0  0  0
 25 28  1  0  0  0  0
 23 24  1  0  0  0  0
 23 25  1  0  0  0  0
M  END
$$$$
default_name
  -OEChem-02102213163D

 28 27  0     1  0  0  0  0  0999 V2000
   -3.2133   -3.5565    1.2809 H   0  0  0  0  0  0  0  0  0  0  0  0
   -3.1873   -2.5755    0.8089 C   0  0  0  0  0  0  0  0  0  0  0  0
   -3.8793   -1.9065    1.3169 H   0  0  0  0  0  0  0  0  0  0  0  0
   -3.4623   -2.6685   -0.2401 H   0  0  0  0  0  0  0  0  0  0  0  0
   -1.7863   -2.0195    0.9119 C   0  0  0  0  0  0  0  0  0  0  0  0
   -0.9073   -2.6615    1.4699 O   0  0  0  0  0  0  0  0  0  0  0  0
   -1.5803   -0.8195    0.3749 N   0  0  0  0  0  0  0  0  0  0  0  0
   -2.3603   -0.3345   -0.0451 H   0  0  0  0  0  0  0  0  0  0  0  0
   -0.2933   -0.1205    0.3719 C   0  0  1  0  0  0  0  0  0  0  0  0
    0.4439   -0.7485   -0.1303 H   0  0  0  0  0  0  0  0  0  0  0  0
   -0.4368    1.1924   -0.4246 C   0  0  0  0  0  0  0  0  0  0  0  0
   -1.5010    1.4077   -0.5348 H   0  0  0  0  0  0  0  0  0  0  0  0
    0.0175    2.0077    0.1404 H   0  0  0  0  0  0  0  0  0  0  0  0
    0.2069    1.1478   -1.8213 C   0  0  0  0  0  0  0  0  0  0  0  0
    0.8682    0.2846   -1.8979 H   0  0  0  0  0  0  0  0  0  0  0  0
   -0.5764    1.0648   -2.5738 H   0  0  0  0  0  0  0  0  0  0  0  0
    1.0222    2.4012   -2.1226 C   0  0  0  0  0  0  0  0  0  0  0  0
    1.0662    3.3949   -1.4151 O   0  0  0  0  0  0  0  0  0  0  0  0
    1.7236    2.3745   -3.2710 O   0  0  0  0  0  0  0  0  0  0  0  0
    2.1621    3.2259   -3.3174 H   0  0  0  0  0  0  0  0  0  0  0  0
    0.1871    0.1189    1.8122 C   0  0  0  0  0  0  0  0  0  0  0  0
    1.3541   -0.1171    2.1187 O   0  0  0  0  0  0  0  0  0  0  0  0
   -0.7126    0.5740    2.6926 N   0  0  0  0  0  0  0  0  0  0  0  0
   -1.6464    0.7663    2.3621 H   0  0  0  0  0  0  0  0  0  0  0  0
   -0.4191    0.8310    4.1010 C   0  0  0  0  0  0  0  0  0  0  0  0
    0.4022    1.5452    4.1828 H   0  0  0  0  0  0  0  0  0  0  0  0
   -1.2983    1.2366    4.6035 H   0  0  0  0  0  0  0  0  0  0  0  0
   -0.1204   -0.0980    4.5907 H   0  0  0  0  0  0  0  0  0  0  0  0
  5  6  2  0  0  0  0
  5  7  1  0  0  0  0
  2  3  1  0  0  0  0
  2  4  1  0  0  0  0
  2  5  1  0  0  0  0
  1  2  1  0  0  0  0
 21 22  2  0  0  0  0
 21 23  1  0  0  0  0
 19 20  1  0  0  0  0
 17 18  2  0  0  0  0
 17 19  1  0  0  0  0
 14 15  1  0  0  0  0
 14 16  1  0  0  0  0
 14 17  1  0  0  0  0
 11 12  1  0  0  0  0
 11 13  1  0  0  0  0
 11 14  1  0  0  0  0
  9 10  1  0  0  0  0
  9 11  1  0  0  0  0
  9 21  1  0  0  0  0
  7  8  1  0  0  0  0
  7  9  1  0  0  0  0
 25 26  1  0  0  0  0
 25 27  1  0  0  0  0
 25 28  1  0  0  0  0
 23 24  1  0  0  0  0
 23 25  1  0  0  0  0
M  END
$$$$
default_name
  -OEChem-02102213163D

 28 27  0     1  0  0  0  0  0999 V2000
   -3.2133   -3.5565    1.2809 H   0  0  0  0  0  0  0  0  0  0  0  0
   -3.1873   -2.5755    0.8089 C   0  0  0  0  0  0  0  0  0  0  0  0
   -3.8793   -1.9065    1.3169 H   0  0  0  0  0  0  0  0  0  0  0  0
   -3.4623   -2.6685   -0.2401 H   0  0  0  0  0  0  0  0  0  0  0  0
   -1.7863   -2.0195    0.9119 C   0  0  0  0  0  0  0  0  0  0  0  0
   -0.9073   -2.6615    1.4699 O   0  0  0  0  0  0  0  0  0  0  0  0
   -1.5803   -0.8195    0.3749 N   0  0  0  0  0  0  0  0  0  0  0  0
   -2.3603   -0.3345   -0.0451 H   0  0  0  0  0  0  0  0  0  0  0  0
   -0.2933   -0.1205    0.3719 C   0  0  1  0  0  0  0  0  0  0  0  0
    0.4439   -0.7485   -0.1303 H   0  0  0  0  0  0  0  0  0  0  0  0
   -0.4368    1.1924   -0.4246 C   0  0  0  0  0  0  0  0  0  0  0  0
   -1.5010    1.4077   -0.5348 H   0  0  0  0  0  0  0  0  0  0  0  0
    0.0175    2.0077    0.1404 H   0  0  0  0  0  0  0  0  0  0  0  0
    0.2069    1.1478   -1.8213 C   0  0  0  0  0  0  0  0  0  0  0  0
    0.6487    0.1666   -1.9953 H   0  0  0  0  0  0  0  0  0  0  0  0
   -0.5584    1.3328   -2.5741 H   0  0  0  0  0  0  0  0  0  0  0  0
    1.2994    2.1990   -1.9883 C   0  0  0  0  0  0  0  0  0  0  0  0
    1.5608    3.0725   -1.1768 O   0  0  0  0  0  0  0  0  0  0  0  0
    1.9984    2.1314   -3.1366 O   0  0  0  0  0  0  0  0  0  0  0  0
    2.6252    2.8556   -3.0922 H   0  0  0  0  0  0  0  0  0  0  0  0
    0.1871    0.1189    1.8122 C   0  0  0  0  0  0  0  0  0  0  0  0
    1.3541   -0.1171    2.1187 O   0  0  0  0  0  0  0  0  0  0  0  0
   -0.7126    0.5740    2.6926 N   0  0  0  0  0  0  0  0  0  0  0  0
   -1.6464    0.7663    2.3621 H   0  0  0  0  0  0  0  0  0  0  0  0
   -0.4191    0.8310    4.1010 C   0  0  0  0  0  0  0  0  0  0  0  0
    0.4022    1.5452    4.1828 H   0  0  0  0  0  0  0  0  0  0  0  0
   -1.2983    1.2366    4.6035 H   0  0  0  0  0  0  0  0  0  0  0  0
   -0.1204   -0.0980    4.5907 H   0  0  0  0  0  0  0  0  0  0  0  0
  5  6  2  0  0  0  0
  5  7  1  0  0  0  0
  2  3  1  0  0  0  0
  2  4  1  0  0  0  0
  2  5  1  0  0  0  0
  1  2  1  0  0  0  0
 21 22  2  0  0  0  0
 21 23  1  0  0  0  0
 19 20  1  0  0  0  0
 17 18  2  0  0  0  0
 17 19  1  0  0  0  0
 14 15  1  0  0  0  0
 14 16  1  0  0  0  0
 14 17  1  0  0  0  0
 11 12  1  0  0  0  0
 11 13  1  0  0  0  0
 11 14  1  0  0  0  0
  9 10  1  0  0  0  0
  9 11  1  0  0  0  0
  9 21  1  0  0  0  0
  7  8  1  0  0  0  0
  7  9  1  0  0  0  0
 25 26  1  0  0  0  0
 25 27  1  0  0  0  0
 25 28  1  0  0  0  0
 23 24  1  0  0  0  0
 23 25  1  0  0  0  0
M  END
$$$$
default_name
  -OEChem-02102213163D

 28 27  0     1  0  0  0  0  0999 V2000
   -3.2133   -3.5565    1.2809 H   0  0  0  0  0  0  0  0  0  0  0  0
   -3.1873   -2.5755    0.8089 C   0  0  0  0  0  0  0  0  0  0  0  0
   -3.8793   -1.9065    1.3169 H   0  0  0  0  0  0  0  0  0  0  0  0
   -3.4623   -2.6685   -0.2401 H   0  0  0  0  0  0  0  0  0  0  0  0
   -1.7863   -2.0195    0.9119 C   0  0  0  0  0  0  0  0  0  0  0  0
   -0.9073   -2.6615    1.4699 O   0  0  0  0  0  0  0  0  0  0  0  0
   -1.5803   -0.8195    0.3749 N   0  0  0  0  0  0  0  0  0  0  0  0
   -2.3603   -0.3345   -0.0451 H   0  0  0  0  0  0  0  0  0  0  0  0
   -0.2933   -0.1205    0.3719 C   0  0  1  0  0  0  0  0  0  0  0  0
    0.4439   -0.7485   -0.1303 H   0  0  0  0  0  0  0  0  0  0  0  0
   -0.4368    1.1924   -0.4246 C   0  0  0  0  0  0  0  0  0  0  0  0
   -1.5010    1.4077   -0.5348 H   0  0  0  0  0  0  0  0  0  0  0  0
    0.0175    2.0077    0.1404 H   0  0  0  0  0  0  0  0  0  0  0  0
    0.2069    1.1478   -1.8213 C   0  0  0  0  0  0  0  0  0  0  0  0
    0.4097    0.1147   -2.1038 H   0  0  0  0  0  0  0  0  0  0  0  0
   -0.4781    1.5875   -2.5453 H   0  0  0  0  0  0  0  0  0  0  0  0
    1.5187    1.9240   -1.8785 C   0  0  0  0  0  0  0  0  0  0  0  0
    1.9610    2.6191   -0.9779 O   0  0  0  0  0  0  0  0  0  0  0  0
    2.2056    1.8176   -3.0310 O   0  0  0  0  0  0  0  0  0  0  0  0
    2.9837    2.3648   -2.9112 H   0  0  0  0  0  0  0  0  0  0  0  0
    0.1871    0.1189    1.8122 C   0  0  0  0  0  0  0  0  0  0  0  0
    1.3541   -0.1171    2.1187 O   0  0  0  0  0  0  0  0  0  0  0  0
   -0.7126    0.5740    2.6926 N   0  0  0  0  0  0  0  0  0  0  0  0
   -1.6464    0.7663    2.3621 H   0  0  0  0  0  0  0  0  0  0  0  0
   -0.4191    0.8310    4.1010 C   0  0  0  0  0  0  0  0  0  0  0  0
    0.4022    1.5452    4.1828 H   0  0  0  0  0  0  0  0  0  0  0  0
   -1.2983    1.2366    4.6035 H   0  0  0  0  0  0  0  0  0  0  0  0
   -0.1204   -0.0980    4.5907 H   0  0  0  0  0  0  0  0  0  0  0  0
  5  6  2  0  0  0  0
  5  7  1  0  0  0  0
  2  3  1  0  0  0  0
  2  4  1  0  0  0  0
  2  5  1  0  0  0  0
  1  2  1  0  0  0  0
 21 22  2  0  0  0  0
 21 23  1  0  0  0  0
 19 20  1  0  0  0  0
 17 18  2  0  0  0  0
 17 19  1  0  0  0  0
 14 15  1  0  0  0  0
 14 16  1  0  0  0  0
 14 17  1  0  0  0  0
 11 12  1  0  0  0  0
 11 13  1  0  0  0  0
 11 14  1  0  0  0  0
  9 10  1  0  0  0  0
  9 11  1  0  0  0  0
  9 21  1  0  0  0  0
  7  8  1  0  0  0  0
  7  9  1  0  0  0  0
 25 26  1  0  0  0  0
 25 27  1  0  0  0  0
 25 28  1  0  0  0  0
 23 24  1  0  0  0  0
 23 25  1  0  0  0  0
M  END
$$$$
default_name
  -OEChem-02102213163D

 28 27  0     1  0  0  0  0  0999 V2000
   -3.2133   -3.5565    1.2809 H   0  0  0  0  0  0  0  0  0  0  0  0
   -3.1873   -2.5755    0.8089 C   0  0  0  0  0  0  0  0  0  0  0  0
   -3.8793   -1.9065    1.3169 H   0  0  0  0  0  0  0  0  0  0  0  0
   -3.4623   -2.6685   -0.2401 H   0  0  0  0  0  0  0  0  0  0  0  0
   -1.7863   -2.0195    0.9119 C   0  0  0  0  0  0  0  0  0  0  0  0
   -0.9073   -2.6615    1.4699 O   0  0  0  0  0  0  0  0  0  0  0  0
   -1.5803   -0.8195    0.3749 N   0  0  0  0  0  0  0  0  0  0  0  0
   -2.3603   -0.3345   -0.0451 H   0  0  0  0  0  0  0  0  0  0  0  0
   -0.2933   -0.1205    0.3719 C   0  0  1  0  0  0  0  0  0  0  0  0
    0.4439   -0.7485   -0.1303 H   0  0  0  0  0  0  0  0  0  0  0  0
   -0.4368    1.1924   -0.4246 C   0  0  0  0  0  0  0  0  0  0  0  0
   -1.5010    1.4077   -0.5348 H   0  0  0  0  0  0  0  0  0  0  0  0
    0.0175    2.0077    0.1404 H   0  0  0  0  0  0  0  0  0  0  0  0
    0.2069    1.1478   -1.8213 C   0  0  0  0  0  0  0  0  0  0  0  0
    0.1675    0.1325   -2.2160 H   0  0  0  0  0  0  0  0  0  0  0  0
   -0.3409    1.8115   -2.4892 H   0  0  0  0  0  0  0  0  0  0  0  0
    1.6650    1.5950   -1.8005 C   0  0  0  0  0  0  0  0  0  0  0  0
    2.2395    2.0656   -0.8318 O   0  0  0  0  0  0  0  0  0  0  0  0
    2.3313    1.4542   -2.9615 O   0  0  0  0  0  0  0  0  0  0  0  0
    3.2134    1.7868   -2.7869 H   0  0  0  0  0  0  0  0  0  0  0  0
    0.1871    0.1189    1.8122 C   0  0  0  0  0  0  0  0  0  0  0  0
    1.3541   -0.1171    2.1187 O   0  0  0  0  0  0  0  0  0  0  0  0
   -0.7126    0.5740    2.6926 N   0  0  0  0  0  0  0  0  0  0  0  0
   -1.6464    0.7663    2.3621 H   0  0  0  0  0  0  0  0  0  0  0  0
   -0.4191    0.8310    4.1010 C   0  0  0  0  0  0  0  0  0  0  0  0
    0.4022    1.5452    4.1828 H   0  0  0  0  0  0  0  0  0  0  0  0
   -1.2983    1.2366    4.6035 H   0  0  0  0  0  0  0  0  0  0  0  0
   -0.1204   -0.0980    4.5907 H   0  0  0  0  0  0  0  0  0  0  0  0
  5  6  2  0  0  0  0
  5  7  1  0  0  0  0
  2  3  1  0  0  0  0
  2  4  1  0  0  0  0
  2  5  1  0  0  0  0
  1  2  1  0  0  0  0
 21 22  2  0  0  0  0
 21 23  1  0  0  0  0
 19 20  1  0  0  0  0
 17 18  2  0  0  0  0
 17 19  1  0  0  0  0
 14 15  1  0  0  0  0
 14 16  1  0  0  0  0
 14 17  1  0  0  0  0
 11 12  1  0  0  0  0
 11 13  1  0  0  0  0
 11 14  1  0  0  0  0
  9 10  1  0  0  0  0
  9 11  1  0  0  0  0
  9 21  1  0  0  0  0
  7  8  1  0  0  0  0
  7  9  1  0  0  0  0
 25 26  1  0  0  0  0
 25 27  1  0  0  0  0
 25 28  1  0  0  0  0
 23 24  1  0  0  0  0
 23 25  1  0  0  0  0
M  END
$$$$
default_name
  -OEChem-02102213163D

 28 27  0     1  0  0  0  0  0999 V2000
   -3.2133   -3.5565    1.2809 H   0  0  0  0  0  0  0  0  0  0  0  0
   -3.1873   -2.5755    0.8089 C   0  0  0  0  0  0  0  0  0  0  0  0
   -3.8793   -1.9065    1.3169 H   0  0  0  0  0  0  0  0  0  0  0  0
   -3.4623   -2.6685   -0.2401 H   0  0  0  0  0  0  0  0  0  0  0  0
   -1.7863   -2.0195    0.9119 C   0  0  0  0  0  0  0  0  0  0  0  0
   -0.9073   -2.6615    1.4699 O   0  0  0  0  0  0  0  0  0  0  0  0
   -1.5803   -0.8195    0.3749 N   0  0  0  0  0  0  0  0  0  0  0  0
   -2.3603   -0.3345   -0.0451 H   0  0  0  0  0  0  0  0  0  0  0  0
   -0.2933   -0.1205    0.3719 C   0  0  1  0  0  0  0  0  0  0  0  0
    0.4439   -0.7485   -0.1303 H   0  0  0  0  0  0  0  0  0  0  0  0
   -0.4368    1.1924   -0.4246 C   0  0  0  0  0  0  0  0  0  0  0  0
   -1.5010    1.4077   -0.5348 H   0  0  0  0  0  0  0  0  0  0  0  0
    0.0175    2.0077    0.1404 H   0  0  0  0  0  0  0  0  0  0  0  0
    0.2069    1.1478   -1.8213 C   0  0  0  0  0  0  0  0  0  0  0  0
   -0.0615    0.2187   -2.3243 H   0  0  0  0  0  0  0  0  0  0  0  0
   -0.1562    1.9896   -2.4097 H   0  0  0  0  0  0  0  0  0  0  0  0
    1.7285    1.2343   -1.7597 C   0  0  0  0  0  0  0  0  0  0  0  0
    2.3774    1.4497   -0.7486 O   0  0  0  0  0  0  0  0  0  0  0  0
    2.3668    1.0662   -2.9328 O   0  0  0  0  0  0  0  0  0  0  0  0
    3.2985    1.1611   -2.7276 H   0  0  0  0  0  0  0  0  0  0  0  0
    0.1871    0.1189    1.8122 C   0  0  0  0  0  0  0  0  0  0  0  0
    1.3541   -0.1171    2.1187 O   0  0  0  0  0  0  0  0  0  0  0  0
   -0.7126    0.5740    2.6926 N   0  0  0  0  0  0  0  0  0  0  0  0
   -1.6464    0.7663    2.3621 H   0  0  0  0  0  0  0  0  0  0  0  0
   -0.4191    0.8310    4.1010 C   0  0  0  0  0  0  0  0  0  0  0  0
    0.4022    1.5452    4.1828 H   0  0  0  0  0  0  0  0  0  0  0  0
   -1.2983    1.2366    4.6035 H   0  0  0  0  0  0  0  0  0  0  0  0
   -0.1204   -0.0980    4.5907 H   0  0  0  0  0  0  0  0  0  0  0  0
  5  6  2  0  0  0  0
  5  7  1  0  0  0  0
  2  3  1  0  0  0  0
  2  4  1  0  0  0  0
  2  5  1  0  0  0  0
  1  2  1  0  0  0  0
 21 22  2  0  0  0  0
 21 23  1  0  0  0  0
 19 20  1  0  0  0  0
 17 18  2  0  0  0  0
 17 19  1  0  0  0  0
 14 15  1  0  0  0  0
 14 16  1  0  0  0  0
 14 17  1  0  0  0  0
 11 12  1  0  0  0  0
 11 13  1  0  0  0  0
 11 14  1  0  0  0  0
  9 10  1  0  0  0  0
  9 11  1  0  0  0  0
  9 21  1  0  0  0  0
  7  8  1  0  0  0  0
  7  9  1  0  0  0  0
 25 26  1  0  0  0  0
 25 27  1  0  0  0  0
 25 28  1  0  0  0  0
 23 24  1  0  0  0  0
 23 25  1  0  0  0  0
M  END
$$$$
default_name
  -OEChem-02102213163D

 28 27  0     1  0  0  0  0  0999 V2000
   -3.2133   -3.5565    1.2809 H   0  0  0  0  0  0  0  0  0  0  0  0
   -3.1873   -2.5755    0.8089 C   0  0  0  0  0  0  0  0  0  0  0  0
   -3.8793   -1.9065    1.3169 H   0  0  0  0  0  0  0  0  0  0  0  0
   -3.4623   -2.6685   -0.2401 H   0  0  0  0  0  0  0  0  0  0  0  0
   -1.7863   -2.0195    0.9119 C   0  0  0  0  0  0  0  0  0  0  0  0
   -0.9073   -2.6615    1.4699 O   0  0  0  0  0  0  0  0  0  0  0  0
   -1.5803   -0.8195    0.3749 N   0  0  0  0  0  0  0  0  0  0  0  0
   -2.3603   -0.3345   -0.0451 H   0  0  0  0  0  0  0  0  0  0  0  0
   -0.2933   -0.1205    0.3719 C   0  0  1  0  0  0  0  0  0  0  0  0
    0.4439   -0.7485   -0.1303 H   0  0  0  0  0  0  0  0  0  0  0  0
   -0.4368    1.1924   -0.4246 C   0  0  0  0  0  0  0  0  0  0  0  0
   -1.5010    1.4077   -0.5348 H   0  0  0  0  0  0  0  0  0  0  0  0
    0.0175    2.0077    0.1404 H   0  0  0  0  0  0  0  0  0  0  0  0
    0.2069    1.1478   -1.8213 C   0  0  0  0  0  0  0  0  0  0  0  0
   -0.2616    0.3675   -2.4212 H   0  0  0  0  0  0  0  0  0  0  0  0
    0.0635    2.1096   -2.3123 H   0  0  0  0  0  0  0  0  0  0  0  0
    1.7048    0.8666   -1.7589 C   0  0  0  0  0  0  0  0  0  0  0  0
    2.3653    0.8133   -0.7338 O   0  0  0  0  0  0  0  0  0  0  0  0
    2.3096    0.6800   -2.9467 O   0  0  0  0  0  0  0  0  0  0  0  0
    3.2333    0.5303   -2.7375 H   0  0  0  0  0  0  0  0  0  0  0  0
    0.1871    0.1189    1.8122 C   0  0  0  0  0  0  0  0  0  0  0  0
    1.3541   -0.1171    2.1187 O   0  0  0  0  0  0  0  0  0  0  0  0
   -0.7126    0.5740    2.6926 N   0  0  0  0  0  0  0  0  0  0  0  0
   -1.6464    0.7663    2.3621 H   0  0  0  0  0  0  0  0  0  0  0  0
   -0.4191    0.8310    4.1010 C   0  0  0  0  0  0  0  0  0  0  0  0
    0.4022    1.5452    4.1828 H   0  0  0  0  0  0  0  0  0  0  0  0
   -1.2983    1.2366    4.6035 H   0  0  0  0  0  0  0  0  0  0  0  0
   -0.1204   -0.0980    4.5907 H   0  0  0  0  0  0  0  0  0  0  0  0
  5  6  2  0  0  0  0
  5  7  1  0  0  0  0
  2  3  1  0  0  0  0
  2  4  1  0  0  0  0
  2  5  1  0  0  0  0
  1  2  1  0  0  0  0
 21 22  2  0  0  0  0
 21 23  1  0  0  0  0
 19 20  1  0  0  0  0
 17 18  2  0  0  0  0
 17 19  1  0  0  0  0
 14 15  1  0  0  0  0
 14 16  1  0  0  0  0
 14 17  1  0  0  0  0
 11 12  1  0  0  0  0
 11 13  1  0  0  0  0
 11 14  1  0  0  0  0
  9 10  1  0  0  0  0
  9 11  1  0  0  0  0
  9 21  1  0  0  0  0
  7  8  1  0  0  0  0
  7  9  1  0  0  0  0
 25 26  1  0  0  0  0
 25 27  1  0  0  0  0
 25 28  1  0  0  0  0
 23 24  1  0  0  0  0
 23 25  1  0  0  0  0
M  END
$$$$
default_name
  -OEChem-02102213163D

 28 27  0     1  0  0  0  0  0999 V2000
   -3.2133   -3.5565    1.2809 H   0  0  0  0  0  0  0  0  0  0  0  0
   -3.1873   -2.5755    0.8089 C   0  0  0  0  0  0  0  0  0  0  0  0
   -3.8793   -1.9065    1.3169 H   0  0  0  0  0  0  0  0  0  0  0  0
   -3.4623   -2.6685   -0.2401 H   0  0  0  0  0  0  0  0  0  0  0  0
   -1.7863   -2.0195    0.9119 C   0  0  0  0  0  0  0  0  0  0  0  0
   -0.9073   -2.6615    1.4699 O   0  0  0  0  0  0  0  0  0  0  0  0
   -1.5803   -0.8195    0.3749 N   0  0  0  0  0  0  0  0  0  0  0  0
   -2.3603   -0.3345   -0.0451 H   0  0  0  0  0  0  0  0  0  0  0  0
   -0.2933   -0.1205    0.3719 C   0  0  1  0  0  0  0  0  0  0  0  0
    0.4439   -0.7485   -0.1303 H   0  0  0  0  0  0  0  0  0  0  0  0
   -0.4368    1.1924   -0.4246 C   0  0  0  0  0  0  0  0  0  0  0  0
   -1.5010    1.4077   -0.5348 H   0  0  0  0  0  0  0  0  0  0  0  0
    0.0175    2.0077    0.1404 H   0  0  0  0  0  0  0  0  0  0  0  0
    0.2069    1.1478   -1.8213 C   0  0  0  0  0  0  0  0  0  0  0  0
   -0.4191    0.5688   -2.5003 H   0  0  0  0  0  0  0  0  0  0  0  0
    0.3032    2.1633   -2.2036 H   0  0  0  0  0  0  0  0  0  0  0  0
    1.5954    0.5169   -1.7981 C   0  0  0  0  0  0  0  0  0  0  0  0
    2.2039    0.1999   -0.7886 O   0  0  0  0  0  0  0  0  0  0  0  0
    2.1638    0.3219   -3.0025 O   0  0  0  0  0  0  0  0  0  0  0  0
    3.0221   -0.0626   -2.8159 H   0  0  0  0  0  0  0  0  0  0  0  0
    0.1871    0.1189    1.8122 C   0  0  0  0  0  0  0  0  0  0  0  0
    1.3541   -0.1171    2.1187 O   0  0  0  0  0  0  0  0  0  0  0  0
   -0.7126    0.5740    2.6926 N   0  0  0  0  0  0  0  0  0  0  0  0
   -1.6464    0.7663    2.3621 H   0  0  0  0  0  0  0  0  0  0  0  0
   -0.4191    0.8310    4.1010 C   0  0  0  0  0  0  0  0  0  0  0  0
    0.4022    1.5452    4.1828 H   0  0  0  0  0  0  0  0  0  0  0  0
   -1.2983    1.2366    4.6035 H   0  0  0  0  0  0  0  0  0  0  0  0
   -0.1204   -0.0980    4.5907 H   0  0  0  0  0  0  0  0  0  0  0  0
  5  6  2  0  0  0  0
  5  7  1  0  0  0  0
  2  3  1  0  0  0  0
  2  4  1  0  0  0  0
  2  5  1  0  0  0  0
  1  2  1  0  0  0  0
 21 22  2  0  0  0  0
 21 23  1  0  0  0  0
 19 20  1  0  0  0  0
 17 18  2  0  0  0  0
 17 19  1  0  0  0  0
 14 15  1  0  0  0  0
 14 16  1  0  0  0  0
 14 17  1  0  0  0  0
 11 12  1  0  0  0  0
 11 13  1  0  0  0  0
 11 14  1  0  0  0  0
  9 10  1  0  0  0  0
  9 11  1  0  0  0  0
  9 21  1  0  0  0  0
  7  8  1  0  0  0  0
  7  9  1  0  0  0  0
 25 26  1  0  0  0  0
 25 27  1  0  0  0  0
 25 28  1  0  0  0  0
 23 24  1  0  0  0  0
 23 25  1  0  0  0  0
M  END
$$$$
default_name
  -OEChem-02102213163D

 28 27  0     1  0  0  0  0  0999 V2000
   -3.2133   -3.5565    1.2809 H   0  0  0  0  0  0  0  0  0  0  0  0
   -3.1873   -2.5755    0.8089 C   0  0  0  0  0  0  0  0  0  0  0  0
   -3.8793   -1.9065    1.3169 H   0  0  0  0  0  0  0  0  0  0  0  0
   -3.4623   -2.6685   -0.2401 H   0  0  0  0  0  0  0  0  0  0  0  0
   -1.7863   -2.0195    0.9119 C   0  0  0  0  0  0  0  0  0  0  0  0
   -0.9073   -2.6615    1.4699 O   0  0  0  0  0  0  0  0  0  0  0  0
   -1.5803   -0.8195    0.3749 N   0  0  0  0  0  0  0  0  0  0  0  0
   -2.3603   -0.3345   -0.0451 H   0  0  0  0  0  0  0  0  0  0  0  0
   -0.2933   -0.1205    0.3719 C   0  0  1  0  0  0  0  0  0  0  0  0
    0.4439   -0.7485   -0.1303 H   0  0  0  0  0  0  0  0  0  0  0  0
   -0.4368    1.1924   -0.4246 C   0  0  0  0  0  0  0  0  0  0  0  0
   -1.5010    1.4077   -0.5348 H   0  0  0  0  0  0  0  0  0  0  0  0
    0.0175    2.0077    0.1404 H   0  0  0  0  0  0  0  0  0  0  0  0
    0.2069    1.1478   -1.8213 C   0  0  0  0  0  0  0  0  0  0  0  0
   -0.5235    0.8088   -2.5560 H   0  0  0  0  0  0  0  0  0  0  0  0
    0.5465    2.1472   -2.0910 H   0  0  0  0  0  0  0  0  0  0  0  0
    1.4080    0.2091   -1.8747 C   0  0  0  0  0  0  0  0  0  0  0  0
    1.9043   -0.3487   -0.9091 O   0  0  0  0  0  0  0  0  0  0  0  0
    1.9393    0.0162   -3.0962 O   0  0  0  0  0  0  0  0  0  0  0  0
    2.6794   -0.5772   -2.9574 H   0  0  0  0  0  0  0  0  0  0  0  0
    0.1871    0.1189    1.8122 C   0  0  0  0  0  0  0  0  0  0  0  0
    1.3541   -0.1171    2.1187 O   0  0  0  0  0  0  0  0  0  0  0  0
   -0.7126    0.5740    2.6926 N   0  0  0  0  0  0  0  0  0  0  0  0
   -1.6464    0.7663    2.3621 H   0  0  0  0  0  0  0  0  0  0  0  0
   -0.4191    0.8310    4.1010 C   0  0  0  0  0  0  0  0  0  0  0  0
    0.4022    1.5452    4.1828 H   0  0  0  0  0  0  0  0  0  0  0  0
   -1.2983    1.2366    4.6035 H   0  0  0  0  0  0  0  0  0  0  0  0
   -0.1204   -0.0980    4.5907 H   0  0  0  0  0  0  0  0  0  0  0  0
  5  6  2  0  0  0  0
  5  7  1  0  0  0  0
  2  3  1  0  0  0  0
  2  4  1  0  0  0  0
  2  5  1  0  0  0  0
  1  2  1  0  0  0  0
 21 22  2  0  0  0  0
 21 23  1  0  0  0  0
 19 20  1  0  0  0  0
 17 18  2  0  0  0  0
 17 19  1  0  0  0  0
 14 15  1  0  0  0  0
 14 16  1  0  0  0  0
 14 17  1  0  0  0  0
 11 12  1  0  0  0  0
 11 13  1  0  0  0  0
 11 14  1  0  0  0  0
  9 10  1  0  0  0  0
  9 11  1  0  0  0  0
  9 21  1  0  0  0  0
  7  8  1  0  0  0  0
  7  9  1  0  0  0  0
 25 26  1  0  0  0  0
 25 27  1  0  0  0  0
 25 28  1  0  0  0  0
 23 24  1  0  0  0  0
 23 25  1  0  0  0  0
M  END
$$$$
default_name
  -OEChem-02102213163D

 28 27  0     1  0  0  0  0  0999 V2000
   -3.2133   -3.5565    1.2809 H   0  0  0  0  0  0  0  0  0  0  0  0
   -3.1873   -2.5755    0.8089 C   0  0  0  0  0  0  0  0  0  0  0  0
   -3.8793   -1.9065    1.3169 H   0  0  0  0  0  0  0  0  0  0  0  0
   -3.4623   -2.6685   -0.2401 H   0  0  0  0  0  0  0  0  0  0  0  0
   -1.7863   -2.0195    0.9119 C   0  0  0  0  0  0  0  0  0  0  0  0
   -0.9073   -2.6615    1.4699 O   0  0  0  0  0  0  0  0  0  0  0  0
   -1.5803   -0.8195    0.3749 N   0  0  0  0  0  0  0  0  0  0  0  0
   -2.3603   -0.3345   -0.0451 H   0  0  0  0  0  0  0  0  0  0  0  0
   -0.2933   -0.1205    0.3719 C   0  0  1  0  0  0  0  0  0  0  0  0
    0.4439   -0.7485   -0.1303 H   0  0  0  0  0  0  0  0  0  0  0  0
   -0.4368    1.1924   -0.4246 C   0  0  0  0  0  0  0  0  0  0  0  0
   -1.5010    1.4077   -0.5348 H   0  0  0  0  0  0  0  0  0  0  0  0
    0.0175    2.0077    0.1404 H   0  0  0  0  0  0  0  0  0  0  0  0
    0.2069    1.1478   -1.8213 C   0  0  0  0  0  0  0  0  0  0  0  0
   -0.5674    1.0711   -2.5847 H   0  0  0  0  0  0  0  0  0  0  0  0
    0.7768    2.0622   -1.9821 H   0  0  0  0  0  0  0  0  0  0  0  0
    1.1552   -0.0359   -1.9833 C   0  0  0  0  0  0  0  0  0  0  0  0
    1.4870   -0.7953   -1.0872 O   0  0  0  0  0  0  0  0  0  0  0  0
    1.6513   -0.2161   -3.2215 O   0  0  0  0  0  0  0  0  0  0  0  0
    2.2286   -0.9785   -3.1523 H   0  0  0  0  0  0  0  0  0  0  0  0
    0.1871    0.1189    1.8122 C   0  0  0  0  0  0  0  0  0  0  0  0
    1.3541   -0.1171    2.1187 O   0  0  0  0  0  0  0  0  0  0  0  0
   -0.7126    0.5740    2.6926 N   0  0  0  0  0  0  0  0  0  0  0  0
   -1.6464    0.7663    2.3621 H   0  0  0  0  0  0  0  0  0  0  0  0
   -0.4191    0.8310    4.1010 C   0  0  0  0  0  0  0  0  0  0  0  0
    0.4022    1.5452    4.1828 H   0  0  0  0  0  0  0  0  0  0  0  0
   -1.2983    1.2366    4.6035 H   0  0  0  0  0  0  0  0  0  0  0  0
   -0.1204   -0.0980    4.5907 H   0  0  0  0  0  0  0  0  0  0  0  0
  5  6  2  0  0  0  0
  5  7  1  0  0  0  0
  2  3  1  0  0  0  0
  2  4  1  0  0  0  0
  2  5  1  0  0  0  0
  1  2  1  0  0  0  0
 21 22  2  0  0  0  0
 21 23  1  0  0  0  0
 19 20  1  0  0  0  0
 17 18  2  0  0  0  0
 17 19  1  0  0  0  0
 14 15  1  0  0  0  0
 14 16  1  0  0  0  0
 14 17  1  0  0  0  0
 11 12  1  0  0  0  0
 11 13  1  0  0  0  0
 11 14  1  0  0  0  0
  9 10  1  0  0  0  0
  9 11  1  0  0  0  0
  9 21  1  0  0  0  0
  7  8  1  0  0  0  0
  7  9  1  0  0  0  0
 25 26  1  0  0  0  0
 25 27  1  0  0  0  0
 25 28  1  0  0  0  0
 23 24  1  0  0  0  0
 23 25  1  0  0  0  0
M  END
$$$$
default_name
  -OEChem-02102213163D

 28 27  0     1  0  0  0  0  0999 V2000
   -3.2133   -3.5565    1.2809 H   0  0  0  0  0  0  0  0  0  0  0  0
   -3.1873   -2.5755    0.8089 C   0  0  0  0  0  0  0  0  0  0  0  0
   -3.8793   -1.9065    1.3169 H   0  0  0  0  0  0  0  0  0  0  0  0
   -3.4623   -2.6685   -0.2401 H   0  0  0  0  0  0  0  0  0  0  0  0
   -1.7863   -2.0195    0.9119 C   0  0  0  0  0  0  0  0  0  0  0  0
   -0.9073   -2.6615    1.4699 O   0  0  0  0  0  0  0  0  0  0  0  0
   -1.5803   -0.8195    0.3749 N   0  0  0  0  0  0  0  0  0  0  0  0
   -2.3603   -0.3345   -0.0451 H   0  0  0  0  0  0  0  0  0  0  0  0
   -0.2933   -0.1205    0.3719 C   0  0  1  0  0  0  0  0  0  0  0  0
    0.4439   -0.7485   -0.1303 H   0  0  0  0  0  0  0  0  0  0  0  0
   -0.4368    1.1924   -0.4246 C   0  0  0  0  0  0  0  0  0  0  0  0
   -1.5010    1.4077   -0.5348 H   0  0  0  0  0  0  0  0  0  0  0  0
    0.0175    2.0077    0.1404 H   0  0  0  0  0  0  0  0  0  0  0  0
    0.2069    1.1478   -1.8213 C   0  0  0  0  0  0  0  0  0  0  0  0
   -0.5480    1.3380   -2.5843 H   0  0  0  0  0  0  0  0  0  0  0  0
    0.9786    1.9142   -1.8844 H   0  0  0  0  0  0  0  0  0  0  0  0
    0.8542   -0.2014   -2.1168 C   0  0  0  0  0  0  0  0  0  0  0  0
    0.9802   -1.1092   -1.3107 O   0  0  0  0  0  0  0  0  0  0  0  0
    1.3194   -0.3592   -3.3699 O   0  0  0  0  0  0  0  0  0  0  0  0
    1.7003   -1.2390   -3.3875 H   0  0  0  0  0  0  0  0  0  0  0  0
    0.1871    0.1189    1.8122 C   0  0  0  0  0  0  0  0  0  0  0  0
    1.3541   -0.1171    2.1187 O   0  0  0  0  0  0  0  0  0  0  0  0
   -0.7126    0.5740    2.6926 N   0  0  0  0  0  0  0  0  0  0  0  0
   -1.6464    0.7663    2.3621 H   0  0  0  0  0  0  0  0  0  0  0  0
   -0.4191    0.8310    4.1010 C   0  0  0  0  0  0  0  0  0  0  0  0
    0.4022    1.5452    4.1828 H   0  0  0  0  0  0  0  0  0  0  0  0
   -1.2983    1.2366    4.6035 H   0  0  0  0  0  0  0  0  0  0  0  0
   -0.1204   -0.0980    4.5907 H   0  0  0  0  0  0  0  0  0  0  0  0
  5  6  2  0  0  0  0
  5  7  1  0  0  0  0
  2  3  1  0  0  0  0
  2  4  1  0  0  0  0
  2  5  1  0  0  0  0
  1  2  1  0  0  0  0
 21 22  2  0  0  0  0
 21 23  1  0  0  0  0
 19 20  1  0  0  0  0
 17 18  2  0  0  0  0
 17 19  1  0  0  0  0
 14 15  1  0  0  0  0
 14 16  1  0  0  0  0
 14 17  1  0  0  0  0
 11 12  1  0  0  0  0
 11 13  1  0  0  0  0
 11 14  1  0  0  0  0
  9 10  1  0  0  0  0
  9 11  1  0  0  0  0
  9 21  1  0  0  0  0
  7  8  1  0  0  0  0
  7  9  1  0  0  0  0
 25 26  1  0  0  0  0
 25 27  1  0  0  0  0
 25 28  1  0  0  0  0
 23 24  1  0  0  0  0
 23 25  1  0  0  0  0
M  END
$$$$
default_name
  -OEChem-02102213163D

 28 27  0     1  0  0  0  0  0999 V2000
   -3.2133   -3.5565    1.2809 H   0  0  0  0  0  0  0  0  0  0  0  0
   -3.1873   -2.5755    0.8089 C   0  0  0  0  0  0  0  0  0  0  0  0
   -3.8793   -1.9065    1.3169 H   0  0  0  0  0  0  0  0  0  0  0  0
   -3.4623   -2.6685   -0.2401 H   0  0  0  0  0  0  0  0  0  0  0  0
   -1.7863   -2.0195    0.9119 C   0  0  0  0  0  0  0  0  0  0  0  0
   -0.9073   -2.6615    1.4699 O   0  0  0  0  0  0  0  0  0  0  0  0
   -1.5803   -0.8195    0.3749 N   0  0  0  0  0  0  0  0  0  0  0  0
   -2.3603   -0.3345   -0.0451 H   0  0  0  0  0  0  0  0  0  0  0  0
   -0.2933   -0.1205    0.3719 C   0  0  1  0  0  0  0  0  0  0  0  0
    0.4439   -0.7485   -0.1303 H   0  0  0  0  0  0  0  0  0  0  0  0
   -0.4368    1.1924   -0.4246 C   0  0  0  0  0  0  0  0  0  0  0  0
   -1.5010    1.4077   -0.5348 H   0  0  0  0  0  0  0  0  0  0  0  0
    0.0175    2.0077    0.1404 H   0  0  0  0  0  0  0  0  0  0  0  0
    0.2069    1.1478   -1.8213 C   0  0  0  0  0  0  0  0  0  0  0  0
   -0.4666    1.5911   -2.5548 H   0  0  0  0  0  0  0  0  0  0  0  0
    1.1379    1.7132   -1.8045 H   0  0  0  0  0  0  0  0  0  0  0  0
    0.5256   -0.2761   -2.2658 C   0  0  0  0  0  0  0  0  0  0  0  0
    0.4187   -1.2692   -1.5644 O   0  0  0  0  0  0  0  0  0  0  0  0
    0.9663   -0.4035   -3.5312 O   0  0  0  0  0  0  0  0  0  0  0  0
    1.1305   -1.3410   -3.6468 H   0  0  0  0  0  0  0  0  0  0  0  0
    0.1871    0.1189    1.8122 C   0  0  0  0  0  0  0  0  0  0  0  0
    1.3541   -0.1171    2.1187 O   0  0  0  0  0  0  0  0  0  0  0  0
   -0.7126    0.5740    2.6926 N   0  0  0  0  0  0  0  0  0  0  0  0
   -1.6464    0.7663    2.3621 H   0  0  0  0  0  0  0  0  0  0  0  0
   -0.4191    0.8310    4.1010 C   0  0  0  0  0  0  0  0  0  0  0  0
    0.4022    1.5452    4.1828 H   0  0  0  0  0  0  0  0  0  0  0  0
   -1.2983    1.2366    4.6035 H   0  0  0  0  0  0  0  0  0  0  0  0
   -0.1204   -0.0980    4.5907 H   0  0  0  0  0  0  0  0  0  0  0  0
  5  6  2  0  0  0  0
  5  7  1  0  0  0  0
  2  3  1  0  0  0  0
  2  4  1  0  0  0  0
  2  5  1  0  0  0  0
  1  2  1  0  0  0  0
 21 22  2  0  0  0  0
 21 23  1  0  0  0  0
 19 20  1  0  0  0  0
 17 18  2  0  0  0  0
 17 19  1  0  0  0  0
 14 15  1  0  0  0  0
 14 16  1  0  0  0  0
 14 17  1  0  0  0  0
 11 12  1  0  0  0  0
 11 13  1  0  0  0  0
 11 14  1  0  0  0  0
  9 10  1  0  0  0  0
  9 11  1  0  0  0  0
  9 21  1  0  0  0  0
  7  8  1  0  0  0  0
  7  9  1  0  0  0  0
 25 26  1  0  0  0  0
 25 27  1  0  0  0  0
 25 28  1  0  0  0  0
 23 24  1  0  0  0  0
 23 25  1  0  0  0  0
M  END
$$$$
default_name
  -OEChem-02102213163D

 28 27  0     1  0  0  0  0  0999 V2000
   -3.2133   -3.5565    1.2809 H   0  0  0  0  0  0  0  0  0  0  0  0
   -3.1873   -2.5755    0.8089 C   0  0  0  0  0  0  0  0  0  0  0  0
   -3.8793   -1.9065    1.3169 H   0  0  0  0  0  0  0  0  0  0  0  0
   -3.4623   -2.6685   -0.2401 H   0  0  0  0  0  0  0  0  0  0  0  0
   -1.7863   -2.0195    0.9119 C   0  0  0  0  0  0  0  0  0  0  0  0
   -0.9073   -2.6615    1.4699 O   0  0  0  0  0  0  0  0  0  0  0  0
   -1.5803   -0.8195    0.3749 N   0  0  0  0  0  0  0  0  0  0  0  0
   -2.3603   -0.3345   -0.0451 H   0  0  0  0  0  0  0  0  0  0  0  0
   -0.2933   -0.1205    0.3719 C   0  0  1  0  0  0  0  0  0  0  0  0
    0.4439   -0.7485   -0.1303 H   0  0  0  0  0  0  0  0  0  0  0  0
   -0.4368    1.1924   -0.4246 C   0  0  0  0  0  0  0  0  0  0  0  0
   -1.5010    1.4077   -0.5348 H   0  0  0  0  0  0  0  0  0  0  0  0
    0.0175    2.0077    0.1404 H   0  0  0  0  0  0  0  0  0  0  0  0
    0.2069    1.1478   -1.8213 C   0  0  0  0  0  0  0  0  0  0  0  0
   -0.3287    1.8133   -2.4984 H   0  0  0  0  0  0  0  0  0  0  0  0
    1.2440    1.4731   -1.7479 H   0  0  0  0  0  0  0  0  0  0  0  0
    0.1918   -0.2549   -2.4203 C   0  0  0  0  0  0  0  0  0  0  0  0
   -0.1594   -1.2644   -1.8310 O   0  0  0  0  0  0  0  0  0  0  0  0
    0.6161   -0.3458   -3.6944 O   0  0  0  0  0  0  0  0  0  0  0  0
    0.5582   -1.2776   -3.9126 H   0  0  0  0  0  0  0  0  0  0  0  0
    0.1871    0.1189    1.8122 C   0  0  0  0  0  0  0  0  0  0  0  0
    1.3541   -0.1171    2.1187 O   0  0  0  0  0  0  0  0  0  0  0  0
   -0.7126    0.5740    2.6926 N   0  0  0  0  0  0  0  0  0  0  0  0
   -1.6464    0.7663    2.3621 H   0  0  0  0  0  0  0  0  0  0  0  0
   -0.4191    0.8310    4.1010 C   0  0  0  0  0  0  0  0  0  0  0  0
    0.4022    1.5452    4.1828 H   0  0  0  0  0  0  0  0  0  0  0  0
   -1.2983    1.2366    4.6035 H   0  0  0  0  0  0  0  0  0  0  0  0
   -0.1204   -0.0980    4.5907 H   0  0  0  0  0  0  0  0  0  0  0  0
  5  6  2  0  0  0  0
  5  7  1  0  0  0  0
  2  3  1  0  0  0  0
  2  4  1  0  0  0  0
  2  5  1  0  0  0  0
  1  2  1  0  0  0  0
 21 22  2  0  0  0  0
 21 23  1  0  0  0  0
 19 20  1  0  0  0  0
 17 18  2  0  0  0  0
 17 19  1  0  0  0  0
 14 15  1  0  0  0  0
 14 16  1  0  0  0  0
 14 17  1  0  0  0  0
 11 12  1  0  0  0  0
 11 13  1  0  0  0  0
 11 14  1  0  0  0  0
  9 10  1  0  0  0  0
  9 11  1  0  0  0  0
  9 21  1  0  0  0  0
  7  8  1  0  0  0  0
  7  9  1  0  0  0  0
 25 26  1  0  0  0  0
 25 27  1  0  0  0  0
 25 28  1  0  0  0  0
 23 24  1  0  0  0  0
 23 25  1  0  0  0  0
M  END
$$$$
default_name
  -OEChem-02102213163D

 28 27  0     1  0  0  0  0  0999 V2000
   -3.2133   -3.5565    1.2809 H   0  0  0  0  0  0  0  0  0  0  0  0
   -3.1873   -2.5755    0.8089 C   0  0  0  0  0  0  0  0  0  0  0  0
   -3.8793   -1.9065    1.3169 H   0  0  0  0  0  0  0  0  0  0  0  0
   -3.4623   -2.6685   -0.2401 H   0  0  0  0  0  0  0  0  0  0  0  0
   -1.7863   -2.0195    0.9119 C   0  0  0  0  0  0  0  0  0  0  0  0
   -0.9073   -2.6615    1.4699 O   0  0  0  0  0  0  0  0  0  0  0  0
   -1.5803   -0.8195    0.3749 N   0  0  0  0  0  0  0  0  0  0  0  0
   -2.3603   -0.3345   -0.0451 H   0  0  0  0  0  0  0  0  0  0  0  0
   -0.2933   -0.1205    0.3719 C   0  0  1  0  0  0  0  0  0  0  0  0
    0.4439   -0.7485   -0.1303 H   0  0  0  0  0  0  0  0  0  0  0  0
   -0.4368    1.1924   -0.4246 C   0  0  0  0  0  0  0  0  0  0  0  0
   -1.5010    1.4077   -0.5348 H   0  0  0  0  0  0  0  0  0  0  0  0
    0.0175    2.0077    0.1404 H   0  0  0  0  0  0  0  0  0  0  0  0
    0.2069    1.1478   -1.8213 C   0  0  0  0  0  0  0  0  0  0  0  0
   -0.1436    1.9894   -2.4188 H   0  0  0  0  0  0  0  0  0  0  0  0
    1.2896    1.2100   -1.7185 H   0  0  0  0  0  0  0  0  0  0  0  0
   -0.1245   -0.1392   -2.5698 C   0  0  0  0  0  0  0  0  0  0  0  0
   -0.7147   -1.0950   -2.0923 O   0  0  0  0  0  0  0  0  0  0  0  0
    0.2926   -0.1901   -3.8485 O   0  0  0  0  0  0  0  0  0  0  0  0
    0.0222   -1.0532   -4.1668 H   0  0  0  0  0  0  0  0  0  0  0  0
    0.1871    0.1189    1.8122 C   0  0  0  0  0  0  0  0  0  0  0  0
    1.3541   -0.1171    2.1187 O   0  0  0  0  0  0  0  0  0  0  0  0
   -0.7126    0.5740    2.6926 N   0  0  0  0  0  0  0  0  0  0  0  0
   -1.6464    0.7663    2.3621 H   0  0  0  0  0  0  0  0  0  0  0  0
   -0.4191    0.8310    4.1010 C   0  0  0  0  0  0  0  0  0  0  0  0
    0.4022    1.5452    4.1828 H   0  0  0  0  0  0  0  0  0  0  0  0
   -1.2983    1.2366    4.6035 H   0  0  0  0  0  0  0  0  0  0  0  0
   -0.1204   -0.0980    4.5907 H   0  0  0  0  0  0  0  0  0  0  0  0
  5  6  2  0  0  0  0
  5  7  1  0  0  0  0
  2  3  1  0  0  0  0
  2  4  1  0  0  0  0
  2  5  1  0  0  0  0
  1  2  1  0  0  0  0
 21 22  2  0  0  0  0
 21 23  1  0  0  0  0
 19 20  1  0  0  0  0
 17 18  2  0  0  0  0
 17 19  1  0  0  0  0
 14 15  1  0  0  0  0
 14 16  1  0  0  0  0
 14 17  1  0  0  0  0
 11 12  1  0  0  0  0
 11 13  1  0  0  0  0
 11 14  1  0  0  0  0
  9 10  1  0  0  0  0
  9 11  1  0  0  0  0
  9 21  1  0  0  0  0
  7  8  1  0  0  0  0
  7  9  1  0  0  0  0
 25 26  1  0  0  0  0
 25 27  1  0  0  0  0
 25 28  1  0  0  0  0
 23 24  1  0  0  0  0
 23 25  1  0  0  0  0
M  END
$$$$
default_name
  -OEChem-02102213163D

 28 27  0     1  0  0  0  0  0999 V2000
   -3.2133   -3.5565    1.2809 H   0  0  0  0  0  0  0  0  0  0  0  0
   -3.1873   -2.5755    0.8089 C   0  0  0  0  0  0  0  0  0  0  0  0
   -3.8793   -1.9065    1.3169 H   0  0  0  0  0  0  0  0  0  0  0  0
   -3.4623   -2.6685   -0.2401 H   0  0  0  0  0  0  0  0  0  0  0  0
   -1.7863   -2.0195    0.9119 C   0  0  0  0  0  0  0  0  0  0  0  0
   -0.9073   -2.6615    1.4699 O   0  0  0  0  0  0  0  0  0  0  0  0
   -1.5803   -0.8195    0.3749 N   0  0  0  0  0  0  0  0  0  0  0  0
   -2.3603   -0.3345   -0.0451 H   0  0  0  0  0  0  0  0  0  0  0  0
   -0.2933   -0.1205    0.3719 C   0  0  1  0  0  0  0  0  0  0  0  0
    0.4439   -0.7485   -0.1303 H   0  0  0  0  0  0  0  0  0  0  0  0
   -0.4368    1.1924   -0.4246 C   0  0  0  0  0  0  0  0  0  0  0  0
   -1.5010    1.4077   -0.5348 H   0  0  0  0  0  0  0  0  0  0  0  0
    0.0175    2.0077    0.1404 H   0  0  0  0  0  0  0  0  0  0  0  0
    0.2069    1.1478   -1.8213 C   0  0  0  0  0  0  0  0  0  0  0  0
    0.0758    2.1075   -2.3214 H   0  0  0  0  0  0  0  0  0  0  0  0
    1.2717    0.9420   -1.7182 H   0  0  0  0  0  0  0  0  0  0  0  0
   -0.4018    0.0630   -2.7040 C   0  0  0  0  0  0  0  0  0  0  0  0
   -1.2093   -0.7726   -2.3305 O   0  0  0  0  0  0  0  0  0  0  0  0
    0.0179    0.0530   -3.9829 O   0  0  0  0  0  0  0  0  0  0  0  0
   -0.4408   -0.6829   -4.3920 H   0  0  0  0  0  0  0  0  0  0  0  0
    0.1871    0.1189    1.8122 C   0  0  0  0  0  0  0  0  0  0  0  0
    1.3541   -0.1171    2.1187 O   0  0  0  0  0  0  0  0  0  0  0  0
   -0.7126    0.5740    2.6926 N   0  0  0  0  0  0  0  0  0  0  0  0
   -1.6464    0.7663    2.3621 H   0  0  0  0  0  0  0  0  0  0  0  0
   -0.4191    0.8310    4.1010 C   0  0  0  0  0  0  0  0  0  0  0  0
    0.4022    1.5452    4.1828 H   0  0  0  0  0  0  0  0  0  0  0  0
   -1.2983    1.2366    4.6035 H   0  0  0  0  0  0  0  0  0  0  0  0
   -0.1204   -0.0980    4.5907 H   0  0  0  0  0  0  0  0  0  0  0  0
  5  6  2  0  0  0  0
  5  7  1  0  0  0  0
  2  3  1  0  0  0  0
  2  4  1  0  0  0  0
  2  5  1  0  0  0  0
  1  2  1  0  0  0  0
 21 22  2  0  0  0  0
 21 23  1  0  0  0  0
 19 20  1  0  0  0  0
 17 18  2  0  0  0  0
 17 19  1  0  0  0  0
 14 15  1  0  0  0  0
 14 16  1  0  0  0  0
 14 17  1  0  0  0  0
 11 12  1  0  0  0  0
 11 13  1  0  0  0  0
 11 14  1  0  0  0  0
  9 10  1  0  0  0  0
  9 11  1  0  0  0  0
  9 21  1  0  0  0  0
  7  8  1  0  0  0  0
  7  9  1  0  0  0  0
 25 26  1  0  0  0  0
 25 27  1  0  0  0  0
 25 28  1  0  0  0  0
 23 24  1  0  0  0  0
 23 25  1  0  0  0  0
M  END
$$$$
default_name
  -OEChem-02102213163D

 28 27  0     1  0  0  0  0  0999 V2000
   -3.2133   -3.5565    1.2809 H   0  0  0  0  0  0  0  0  0  0  0  0
   -3.1873   -2.5755    0.8089 C   0  0  0  0  0  0  0  0  0  0  0  0
   -3.8793   -1.9065    1.3169 H   0  0  0  0  0  0  0  0  0  0  0  0
   -3.4623   -2.6685   -0.2401 H   0  0  0  0  0  0  0  0  0  0  0  0
   -1.7863   -2.0195    0.9119 C   0  0  0  0  0  0  0  0  0  0  0  0
   -0.9073   -2.6615    1.4699 O   0  0  0  0  0  0  0  0  0  0  0  0
   -1.5803   -0.8195    0.3749 N   0  0  0  0  0  0  0  0  0  0  0  0
   -2.3603   -0.3345   -0.0451 H   0  0  0  0  0  0  0  0  0  0  0  0
   -0.2933   -0.1205    0.3719 C   0  0  1  0  0  0  0  0  0  0  0  0
    0.4439   -0.7485   -0.1303 H   0  0  0  0  0  0  0  0  0  0  0  0
   -0.4368    1.1924   -0.4246 C   0  0  0  0  0  0  0  0  0  0  0  0
   -1.5010    1.4077   -0.5348 H   0  0  0  0  0  0  0  0  0  0  0  0
    0.0175    2.0077    0.1404 H   0  0  0  0  0  0  0  0  0  0  0  0
    0.2069    1.1478   -1.8213 C   0  0  0  0  0  0  0  0  0  0  0  0
    0.3148    2.1594   -2.2129 H   0  0  0  0  0  0  0  0  0  0  0  0
    1.1914    0.6873   -1.7470 H   0  0  0  0  0  0  0  0  0  0  0  0
   -0.6210    0.3380   -2.8139 C   0  0  0  0  0  0  0  0  0  0  0  0
   -1.6094   -0.3192   -2.5295 O   0  0  0  0  0  0  0  0  0  0  0  0
   -0.1894    0.3669   -4.0884 O   0  0  0  0  0  0  0  0  0  0  0  0
   -0.7994   -0.1920   -4.5730 H   0  0  0  0  0  0  0  0  0  0  0  0
    0.1871    0.1189    1.8122 C   0  0  0  0  0  0  0  0  0  0  0  0
    1.3541   -0.1171    2.1187 O   0  0  0  0  0  0  0  0  0  0  0  0
   -0.7126    0.5740    2.6926 N   0  0  0  0  0  0  0  0  0  0  0  0
   -1.6464    0.7663    2.3621 H   0  0  0  0  0  0  0  0  0  0  0  0
   -0.4191    0.8310    4.1010 C   0  0  0  0  0  0  0  0  0  0  0  0
    0.4022    1.5452    4.1828 H   0  0  0  0  0  0  0  0  0  0  0  0
   -1.2983    1.2366    4.6035 H   0  0  0  0  0  0  0  0  0  0  0  0
   -0.1204   -0.0980    4.5907 H   0  0  0  0  0  0  0  0  0  0  0  0
  5  6  2  0  0  0  0
  5  7  1  0  0  0  0
  2  3  1  0  0  0  0
  2  4  1  0  0  0  0
  2  5  1  0  0  0  0
  1  2  1  0  0  0  0
 21 22  2  0  0  0  0
 21 23  1  0  0  0  0
 19 20  1  0  0  0  0
 17 18  2  0  0  0  0
 17 19  1  0  0  0  0
 14 15  1  0  0  0  0
 14 16  1  0  0  0  0
 14 17  1  0  0  0  0
 11 12  1  0  0  0  0
 11 13  1  0  0  0  0
 11 14  1  0  0  0  0
  9 10  1  0  0  0  0
  9 11  1  0  0  0  0
  9 21  1  0  0  0  0
  7  8  1  0  0  0  0
  7  9  1  0  0  0  0
 25 26  1  0  0  0  0
 25 27  1  0  0  0  0
 25 28  1  0  0  0  0
 23 24  1  0  0  0  0
 23 25  1  0  0  0  0
M  END
$$$$
default_name
  -OEChem-02102213163D

 28 27  0     1  0  0  0  0  0999 V2000
   -3.2133   -3.5565    1.2809 H   0  0  0  0  0  0  0  0  0  0  0  0
   -3.1873   -2.5755    0.8089 C   0  0  0  0  0  0  0  0  0  0  0  0
   -3.8793   -1.9065    1.3169 H   0  0  0  0  0  0  0  0  0  0  0  0
   -3.4623   -2.6685   -0.2401 H   0  0  0  0  0  0  0  0  0  0  0  0
   -1.7863   -2.0195    0.9119 C   0  0  0  0  0  0  0  0  0  0  0  0
   -0.9073   -2.6615    1.4699 O   0  0  0  0  0  0  0  0  0  0  0  0
   -1.5803   -0.8195    0.3749 N   0  0  0  0  0  0  0  0  0  0  0  0
   -2.3603   -0.3345   -0.0451 H   0  0  0  0  0  0  0  0  0  0  0  0
   -0.2933   -0.1205    0.3719 C   0  0  1  0  0  0  0  0  0  0  0  0
    0.4439   -0.7485   -0.1303 H   0  0  0  0  0  0  0  0  0  0  0  0
   -0.4368    1.1924   -0.4246 C   0  0  0  0  0  0  0  0  0  0  0  0
   -1.5010    1.4077   -0.5348 H   0  0  0  0  0  0  0  0  0  0  0  0
    0.0175    2.0077    0.1404 H   0  0  0  0  0  0  0  0  0  0  0  0
    0.2069    1.1478   -1.8213 C   0  0  0  0  0  0  0  0  0  0  0  0
    0.5571    2.1416   -2.1007 H   0  0  0  0  0  0  0  0  0  0  0  0
    1.0542    0.4633   -1.8031 H   0  0  0  0  0  0  0  0  0  0  0  0
   -0.7674    0.6670   -2.8919 C   0  0  0  0  0  0  0  0  0  0  0  0
   -1.8880    0.2343   -2.6755 O   0  0  0  0  0  0  0  0  0  0  0  0
   -0.3150    0.7302   -4.1580 O   0  0  0  0  0  0  0  0  0  0  0  0
   -1.0291    0.3860   -4.6973 H   0  0  0  0  0  0  0  0  0  0  0  0
    0.1871    0.1189    1.8122 C   0  0  0  0  0  0  0  0  0  0  0  0
    1.3541   -0.1171    2.1187 O   0  0  0  0  0  0  0  0  0  0  0  0
   -0.7126    0.5740    2.6926 N   0  0  0  0  0  0  0  0  0  0  0  0
   -1.6464    0.7663    2.3621 H   0  0  0  0  0  0  0  0  0  0  0  0
   -0.4191    0.8310    4.1010 C   0  0  0  0  0  0  0  0  0  0  0  0
    0.4022    1.5452    4.1828 H   0  0  0  0  0  0  0  0  0  0  0  0
   -1.2983    1.2366    4.6035 H   0  0  0  0  0  0  0  0  0  0  0  0
   -0.1204   -0.0980    4.5907 H   0  0  0  0  0  0  0  0  0  0  0  0
  5  6  2  0  0  0  0
  5  7  1  0  0  0  0
  2  3  1  0  0  0  0
  2  4  1  0  0  0  0
  2  5  1  0  0  0  0
  1  2  1  0  0  0  0
 21 22  2  0  0  0  0
 21 23  1  0  0  0  0
 19 20  1  0  0  0  0
 17 18  2  0  0  0  0
 17 19  1  0  0  0  0
 14 15  1  0  0  0  0
 14 16  1  0  0  0  0
 14 17  1  0  0  0  0
 11 12  1  0  0  0  0
 11 13  1  0  0  0  0
 11 14  1  0  0  0  0
  9 10  1  0  0  0  0
  9 11  1  0  0  0  0
  9 21  1  0  0  0  0
  7  8  1  0  0  0  0
  7  9  1  0  0  0  0
 25 26  1  0  0  0  0
 25 27  1  0  0  0  0
 25 28  1  0  0  0  0
 23 24  1  0  0  0  0
 23 25  1  0  0  0  0
M  END
$$$$
default_name
  -OEChem-02102213163D

 28 27  0     1  0  0  0  0  0999 V2000
   -3.2133   -3.5565    1.2809 H   0  0  0  0  0  0  0  0  0  0  0  0
   -3.1873   -2.5755    0.8089 C   0  0  0  0  0  0  0  0  0  0  0  0
   -3.8793   -1.9065    1.3169 H   0  0  0  0  0  0  0  0  0  0  0  0
   -3.4623   -2.6685   -0.2401 H   0  0  0  0  0  0  0  0  0  0  0  0
   -1.7863   -2.0195    0.9119 C   0  0  0  0  0  0  0  0  0  0  0  0
   -0.9073   -2.6615    1.4699 O   0  0  0  0  0  0  0  0  0  0  0  0
   -1.5803   -0.8195    0.3749 N   0  0  0  0  0  0  0  0  0  0  0  0
   -2.3603   -0.3345   -0.0451 H   0  0  0  0  0  0  0  0  0  0  0  0
   -0.2933   -0.1205    0.3719 C   0  0  1  0  0  0  0  0  0  0  0  0
    0.4439   -0.7485   -0.1303 H   0  0  0  0  0  0  0  0  0  0  0  0
   -0.4368    1.1924   -0.4246 C   0  0  0  0  0  0  0  0  0  0  0  0
   -1.5010    1.4077   -0.5348 H   0  0  0  0  0  0  0  0  0  0  0  0
    0.0175    2.0077    0.1404 H   0  0  0  0  0  0  0  0  0  0  0  0
    0.2069    1.1478   -1.8213 C   0  0  0  0  0  0  0  0  0  0  0  0
    0.7860    2.0553   -1.9924 H   0  0  0  0  0  0  0  0  0  0  0  0
    0.8695    0.2852   -1.8826 H   0  0  0  0  0  0  0  0  0  0  0  0
   -0.8308    1.0277   -2.9326 C   0  0  0  0  0  0  0  0  0  0  0  0
   -2.0259    0.8502   -2.7588 O   0  0  0  0  0  0  0  0  0  0  0  0
   -0.3505    1.1182   -4.1867 O   0  0  0  0  0  0  0  0  0  0  0  0
   -1.1142    1.0117   -4.7566 H   0  0  0  0  0  0  0  0  0  0  0  0
    0.1871    0.1189    1.8122 C   0  0  0  0  0  0  0  0  0  0  0  0
    1.3541   -0.1171    2.1187 O   0  0  0  0  0  0  0  0  0  0  0  0
   -0.7126    0.5740    2.6926 N   0  0  0  0  0  0  0  0  0  0  0  0
   -1.6464    0.7663    2.3621 H   0  0  0  0  0  0  0  0  0  0  0  0
   -0.4191    0.8310    4.1010 C   0  0  0  0  0  0  0  0  0  0  0  0
    0.4022    1.5452    4.1828 H   0  0  0  0  0  0  0  0  0  0  0  0
   -1.2983    1.2366    4.6035 H   0  0  0  0  0  0  0  0  0  0  0  0
   -0.1204   -0.0980    4.5907 H   0  0  0  0  0  0  0  0  0  0  0  0
  5  6  2  0  0  0  0
  5  7  1  0  0  0  0
  2  3  1  0  0  0  0
  2  4  1  0  0  0  0
  2  5  1  0  0  0  0
  1  2  1  0  0  0  0
 21 22  2  0  0  0  0
 21 23  1  0  0  0  0
 19 20  1  0  0  0  0
 17 18  2  0  0  0  0
 17 19  1  0  0  0  0
 14 15  1  0  0  0  0
 14 16  1  0  0  0  0
 14 17  1  0  0  0  0
 11 12  1  0  0  0  0
 11 13  1  0  0  0  0
 11 14  1  0  0  0  0
  9 10  1  0  0  0  0
  9 11  1  0  0  0  0
  9 21  1  0  0  0  0
  7  8  1  0  0  0  0
  7  9  1  0  0  0  0
 25 26  1  0  0  0  0
 25 27  1  0  0  0  0
 25 28  1  0  0  0  0
 23 24  1  0  0  0  0
 23 25  1  0  0  0  0
M  END
$$$$
default_name
  -OEChem-02102213163D

 28 27  0     1  0  0  0  0  0999 V2000
   -3.2133   -3.5565    1.2809 H   0  0  0  0  0  0  0  0  0  0  0  0
   -3.1873   -2.5755    0.8089 C   0  0  0  0  0  0  0  0  0  0  0  0
   -3.8793   -1.9065    1.3169 H   0  0  0  0  0  0  0  0  0  0  0  0
   -3.4623   -2.6685   -0.2401 H   0  0  0  0  0  0  0  0  0  0  0  0
   -1.7863   -2.0195    0.9119 C   0  0  0  0  0  0  0  0  0  0  0  0
   -0.9073   -2.6615    1.4699 O   0  0  0  0  0  0  0  0  0  0  0  0
   -1.5803   -0.8195    0.3749 N   0  0  0  0  0  0  0  0  0  0  0  0
   -2.3603   -0.3345   -0.0451 H   0  0  0  0  0  0  0  0  0  0  0  0
   -0.2933   -0.1205    0.3719 C   0  0  1  0  0  0  0  0  0  0  0  0
    0.4439   -0.7485   -0.1303 H   0  0  0  0  0  0  0  0  0  0  0  0
   -0.4368    1.1924   -0.4246 C   0  0  0  0  0  0  0  0  0  0  0  0
   -1.5010    1.4077   -0.5348 H   0  0  0  0  0  0  0  0  0  0  0  0
    0.0175    2.0077    0.1404 H   0  0  0  0  0  0  0  0  0  0  0  0
    0.2069    1.1478   -1.8213 C   0  0  0  0  0  0  0  0  0  0  0  0
    0.9861    1.9065   -1.8954 H   0  0  0  0  0  0  0  0  0  0  0  0
    0.6498    0.1652   -1.9800 H   0  0  0  0  0  0  0  0  0  0  0  0
   -0.8071    1.3954   -2.9335 C   0  0  0  0  0  0  0  0  0  0  0  0
   -2.0137    1.4866   -2.7735 O   0  0  0  0  0  0  0  0  0  0  0  0
   -0.2934    1.5044   -4.1728 O   0  0  0  0  0  0  0  0  0  0  0  0
   -1.0489    1.6425   -4.7467 H   0  0  0  0  0  0  0  0  0  0  0  0
    0.1871    0.1189    1.8122 C   0  0  0  0  0  0  0  0  0  0  0  0
    1.3541   -0.1171    2.1187 O   0  0  0  0  0  0  0  0  0  0  0  0
   -0.7126    0.5740    2.6926 N   0  0  0  0  0  0  0  0  0  0  0  0
   -1.6464    0.7663    2.3621 H   0  0  0  0  0  0  0  0  0  0  0  0
   -0.4191    0.8310    4.1010 C   0  0  0  0  0  0  0  0  0  0  0  0
    0.4022    1.5452    4.1828 H   0  0  0  0  0  0  0  0  0  0  0  0
   -1.2983    1.2366    4.6035 H   0  0  0  0  0  0  0  0  0  0  0  0
   -0.1204   -0.0980    4.5907 H   0  0  0  0  0  0  0  0  0  0  0  0
  5  6  2  0  0  0  0
  5  7  1  0  0  0  0
  2  3  1  0  0  0  0
  2  4  1  0  0  0  0
  2  5  1  0  0  0  0
  1  2  1  0  0  0  0
 21 22  2  0  0  0  0
 21 23  1  0  0  0  0
 19 20  1  0  0  0  0
 17 18  2  0  0  0  0
 17 19  1  0  0  0  0
 14 15  1  0  0  0  0
 14 16  1  0  0  0  0
 14 17  1  0  0  0  0
 11 12  1  0  0  0  0
 11 13  1  0  0  0  0
 11 14  1  0  0  0  0
  9 10  1  0  0  0  0
  9 11  1  0  0  0  0
  9 21  1  0  0  0  0
  7  8  1  0  0  0  0
  7  9  1  0  0  0  0
 25 26  1  0  0  0  0
 25 27  1  0  0  0  0
 25 28  1  0  0  0  0
 23 24  1  0  0  0  0
 23 25  1  0  0  0  0
M  END
$$$$
default_name
  -OEChem-02102213163D

 28 27  0     1  0  0  0  0  0999 V2000
   -3.2133   -3.5565    1.2809 H   0  0  0  0  0  0  0  0  0  0  0  0
   -3.1873   -2.5755    0.8089 C   0  0  0  0  0  0  0  0  0  0  0  0
   -3.8793   -1.9065    1.3169 H   0  0  0  0  0  0  0  0  0  0  0  0
   -3.4623   -2.6685   -0.2401 H   0  0  0  0  0  0  0  0  0  0  0  0
   -1.7863   -2.0195    0.9119 C   0  0  0  0  0  0  0  0  0  0  0  0
   -0.9073   -2.6615    1.4699 O   0  0  0  0  0  0  0  0  0  0  0  0
   -1.5803   -0.8195    0.3749 N   0  0  0  0  0  0  0  0  0  0  0  0
   -2.3603   -0.3345   -0.0451 H   0  0  0  0  0  0  0  0  0  0  0  0
   -0.2933   -0.1205    0.3719 C   0  0  1  0  0  0  0  0  0  0  0  0
    0.4439   -0.7485   -0.1303 H   0  0  0  0  0  0  0  0  0  0  0  0
   -0.4368    1.1924   -0.4246 C   0  0  0  0  0  0  0  0  0  0  0  0
   -1.5010    1.4077   -0.5348 H   0  0  0  0  0  0  0  0  0  0  0  0
    0.0175    2.0077    0.1404 H   0  0  0  0  0  0  0  0  0  0  0  0
    0.2069    1.1478   -1.8213 C   0  0  0  0  0  0  0  0  0  0  0  0
    1.1437    1.7052   -1.8164 H   0  0  0  0  0  0  0  0  0  0  0  0
    0.4101    0.1115   -2.0887 H   0  0  0  0  0  0  0  0  0  0  0  0
   -0.6978    1.7451   -2.8943 C   0  0  0  0  0  0  0  0  0  0  0  0
   -1.8524    2.1000   -2.7188 O   0  0  0  0  0  0  0  0  0  0  0  0
   -0.1476    1.8625   -4.1170 O   0  0  0  0  0  0  0  0  0  0  0  0
   -0.8378    2.2354   -4.6683 H   0  0  0  0  0  0  0  0  0  0  0  0
    0.1871    0.1189    1.8122 C   0  0  0  0  0  0  0  0  0  0  0  0
    1.3541   -0.1171    2.1187 O   0  0  0  0  0  0  0  0  0  0  0  0
   -0.7126    0.5740    2.6926 N   0  0  0  0  0  0  0  0  0  0  0  0
   -1.6464    0.7663    2.3621 H   0  0  0  0  0  0  0  0  0  0  0  0
   -0.4191    0.8310    4.1010 C   0  0  0  0  0  0  0  0  0  0  0  0
    0.4022    1.5452    4.1828 H   0  0  0  0  0  0  0  0  0  0  0  0
   -1.2983    1.2366    4.6035 H   0  0  0  0  0  0  0  0  0  0  0  0
   -0.1204   -0.0980    4.5907 H   0  0  0  0  0  0  0  0  0  0  0  0
  5  6  2  0  0  0  0
  5  7  1  0  0  0  0
  2  3  1  0  0  0  0
  2  4  1  0  0  0  0
  2  5  1  0  0  0  0
  1  2  1  0  0  0  0
 21 22  2  0  0  0  0
 21 23  1  0  0  0  0
 19 20  1  0  0  0  0
 17 18  2  0  0  0  0
 17 19  1  0  0  0  0
 14 15  1  0  0  0  0
 14 16  1  0  0  0  0
 14 17  1  0  0  0  0
 11 12  1  0  0  0  0
 11 13  1  0  0  0  0
 11 14  1  0  0  0  0
  9 10  1  0  0  0  0
  9 11  1  0  0  0  0
  9 21  1  0  0  0  0
  7  8  1  0  0  0  0
  7  9  1  0  0  0  0
 25 26  1  0  0  0  0
 25 27  1  0  0  0  0
 25 28  1  0  0  0  0
 23 24  1  0  0  0  0
 23 25  1  0  0  0  0
M  END
$$$$
default_name
  -OEChem-02102213163D

 28 27  0     1  0  0  0  0  0999 V2000
   -3.2133   -3.5565    1.2809 H   0  0  0  0  0  0  0  0  0  0  0  0
   -3.1873   -2.5755    0.8089 C   0  0  0  0  0  0  0  0  0  0  0  0
   -3.8793   -1.9065    1.3169 H   0  0  0  0  0  0  0  0  0  0  0  0
   -3.4623   -2.6685   -0.2401 H   0  0  0  0  0  0  0  0  0  0  0  0
   -1.7863   -2.0195    0.9119 C   0  0  0  0  0  0  0  0  0  0  0  0
   -0.9073   -2.6615    1.4699 O   0  0  0  0  0  0  0  0  0  0  0  0
   -1.5803   -0.8195    0.3749 N   0  0  0  0  0  0  0  0  0  0  0  0
   -2.3603   -0.3345   -0.0451 H   0  0  0  0  0  0  0  0  0  0  0  0
   -0.2933   -0.1205    0.3719 C   0  0  1  0  0  0  0  0  0  0  0  0
    0.4439   -0.7485   -0.1303 H   0  0  0  0  0  0  0  0  0  0  0  0
   -0.4368    1.1924   -0.4246 C   0  0  0  0  0  0  0  0  0  0  0  0
   -1.5010    1.4077   -0.5348 H   0  0  0  0  0  0  0  0  0  0  0  0
    0.0175    2.0077    0.1404 H   0  0  0  0  0  0  0  0  0  0  0  0
    0.2069    1.1478   -1.8213 C   0  0  0  0  0  0  0  0  0  0  0  0
    1.2480    1.4652   -1.7606 H   0  0  0  0  0  0  0  0  0  0  0  0
    0.1668    0.1277   -2.2013 H   0  0  0  0  0  0  0  0  0  0  0  0
   -0.5103    2.0529   -2.8177 C   0  0  0  0  0  0  0  0  0  0  0  0
   -1.5528    2.6486   -2.5983 O   0  0  0  0  0  0  0  0  0  0  0  0
    0.0770    2.1682   -4.0233 O   0  0  0  0  0  0  0  0  0  0  0  0
   -0.4951    2.7500   -4.5268 H   0  0  0  0  0  0  0  0  0  0  0  0
    0.1871    0.1189    1.8122 C   0  0  0  0  0  0  0  0  0  0  0  0
    1.3541   -0.1171    2.1187 O   0  0  0  0  0  0  0  0  0  0  0  0
   -0.7126    0.5740    2.6926 N   0  0  0  0  0  0  0  0  0  0  0  0
   -1.6464    0.7663    2.3621 H   0  0  0  0  0  0  0  0  0  0  0  0
   -0.4191    0.8310    4.1010 C   0  0  0  0  0  0  0  0  0  0  0  0
    0.4022    1.5452    4.1828 H   0  0  0  0  0  0  0  0  0  0  0  0
   -1.2983    1.2366    4.6035 H   0  0  0  0  0  0  0  0  0  0  0  0
   -0.1204   -0.0980    4.5907 H   0  0  0  0  0  0  0  0  0  0  0  0
  5  6  2  0  0  0  0
  5  7  1  0  0  0  0
  2  3  1  0  0  0  0
  2  4  1  0  0  0  0
  2  5  1  0  0  0  0
  1  2  1  0  0  0  0
 21 22  2  0  0  0  0
 21 23  1  0  0  0  0
 19 20  1  0  0  0  0
 17 18  2  0  0  0  0
 17 19  1  0  0  0  0
 14 15  1  0  0  0  0
 14 16  1  0  0  0  0
 14 17  1  0  0  0  0
 11 12  1  0  0  0  0
 11 13  1  0  0  0  0
 11 14  1  0  0  0  0
  9 10  1  0  0  0  0
  9 11  1  0  0  0  0
  9 21  1  0  0  0  0
  7  8  1  0  0  0  0
  7  9  1  0  0  0  0
 25 26  1  0  0  0  0
 25 27  1  0  0  0  0
 25 28  1  0  0  0  0
 23 24  1  0  0  0  0
 23 25  1  0  0  0  0
M  END
$$$$
default_name
  -OEChem-02102213163D

 28 27  0     1  0  0  0  0  0999 V2000
   -3.2133   -3.5565    1.2809 H   0  0  0  0  0  0  0  0  0  0  0  0
   -3.1873   -2.5755    0.8089 C   0  0  0  0  0  0  0  0  0  0  0  0
   -3.8793   -1.9065    1.3169 H   0  0  0  0  0  0  0  0  0  0  0  0
   -3.4623   -2.6685   -0.2401 H   0  0  0  0  0  0  0  0  0  0  0  0
   -1.7863   -2.0195    0.9119 C   0  0  0  0  0  0  0  0  0  0  0  0
   -0.9073   -2.6615    1.4699 O   0  0  0  0  0  0  0  0  0  0  0  0
   -1.5803   -0.8195    0.3749 N   0  0  0  0  0  0  0  0  0  0  0  0
   -2.3603   -0.3345   -0.0451 H   0  0  0  0  0  0  0  0  0  0  0  0
   -0.2933   -0.1205    0.3719 C   0  0  1  0  0  0  0  0  0  0  0  0
    0.4439   -0.7485   -0.1303 H   0  0  0  0  0  0  0  0  0  0  0  0
   -0.4368    1.1924   -0.4246 C   0  0  0  0  0  0  0  0  0  0  0  0
   -1.5010    1.4077   -0.5348 H   0  0  0  0  0  0  0  0  0  0  0  0
    0.0175    2.0077    0.1404 H   0  0  0  0  0  0  0  0  0  0  0  0
    0.2069    1.1478   -1.8213 C   0  0  0  0  0  0  0  0  0  0  0  0
    1.2919    1.2029   -1.7320 H   0  0  0  0  0  0  0  0  0  0  0  0
   -0.0635    0.2126   -2.3102 H   0  0  0  0  0  0  0  0  0  0  0  0
   -0.2575    2.2979   -2.7090 C   0  0  0  0  0  0  0  0  0  0  0  0
   -1.1354    3.0952   -2.4202 O   0  0  0  0  0  0  0  0  0  0  0  0
    0.3650    2.4005   -3.8980 O   0  0  0  0  0  0  0  0  0  0  0  0
   -0.0442    3.1512   -4.3319 H   0  0  0  0  0  0  0  0  0  0  0  0
    0.1871    0.1189    1.8122 C   0  0  0  0  0  0  0  0  0  0  0  0
    1.3541   -0.1171    2.1187 O   0  0  0  0  0  0  0  0  0  0  0  0
   -0.7126    0.5740    2.6926 N   0  0  0  0  0  0  0  0  0  0  0  0
   -1.6464    0.7663    2.3621 H   0  0  0  0  0  0  0  0  0  0  0  0
   -0.4191    0.8310    4.1010 C   0  0  0  0  0  0  0  0  0  0  0  0
    0.4022    1.5452    4.1828 H   0  0  0  0  0  0  0  0  0  0  0  0
   -1.2983    1.2366    4.6035 H   0  0  0  0  0  0  0  0  0  0  0  0
   -0.1204   -0.0980    4.5907 H   0  0  0  0  0  0  0  0  0  0  0  0
  5  6  2  0  0  0  0
  5  7  1  0  0  0  0
  2  3  1  0  0  0  0
  2  4  1  0  0  0  0
  2  5  1  0  0  0  0
  1  2  1  0  0  0  0
 21 22  2  0  0  0  0
 21 23  1  0  0  0  0
 19 20  1  0  0  0  0
 17 18  2  0  0  0  0
 17 19  1  0  0  0  0
 14 15  1  0  0  0  0
 14 16  1  0  0  0  0
 14 17  1  0  0  0  0
 11 12  1  0  0  0  0
 11 13  1  0  0  0  0
 11 14  1  0  0  0  0
  9 10  1  0  0  0  0
  9 11  1  0  0  0  0
  9 21  1  0  0  0  0
  7  8  1  0  0  0  0
  7  9  1  0  0  0  0
 25 26  1  0  0  0  0
 25 27  1  0  0  0  0
 25 28  1  0  0  0  0
 23 24  1  0  0  0  0
 23 25  1  0  0  0  0
M  END
$$$$
default_name
  -OEChem-02102213163D

 28 27  0     1  0  0  0  0  0999 V2000
   -3.2133   -3.5565    1.2809 H   0  0  0  0  0  0  0  0  0  0  0  0
   -3.1873   -2.5755    0.8089 C   0  0  0  0  0  0  0  0  0  0  0  0
   -3.8793   -1.9065    1.3169 H   0  0  0  0  0  0  0  0  0  0  0  0
   -3.4623   -2.6685   -0.2401 H   0  0  0  0  0  0  0  0  0  0  0  0
   -1.7863   -2.0195    0.9119 C   0  0  0  0  0  0  0  0  0  0  0  0
   -0.9073   -2.6615    1.4699 O   0  0  0  0  0  0  0  0  0  0  0  0
   -1.5803   -0.8195    0.3749 N   0  0  0  0  0  0  0  0  0  0  0  0
   -2.3603   -0.3345   -0.0451 H   0  0  0  0  0  0  0  0  0  0  0  0
   -0.2933   -0.1205    0.3719 C   0  0  1  0  0  0  0  0  0  0  0  0
    0.4439   -0.7485   -0.1303 H   0  0  0  0  0  0  0  0  0  0  0  0
   -0.4368    1.1924   -0.4246 C   0  0  0  0  0  0  0  0  0  0  0  0
   -1.4613    1.5498   -0.3077 H   0  0  0  0  0  0  0  0  0  0  0  0
    0.2344    1.9432   -0.0049 H   0  0  0  0  0  0  0  0  0  0  0  0
   -0.1307    1.0477   -1.9254 C   0  0  0  0  0  0  0  0  0  0  0  0
    0.8909    0.6935   -2.0635 H   0  0  0  0  0  0  0  0  0  0  0  0
   -0.8202    0.3270   -2.3634 H   0  0  0  0  0  0  0  0  0  0  0  0
   -0.2837    2.3664   -2.6765 C   0  0  0  0  0  0  0  0  0  0  0  0
   -0.7252    3.3984   -2.1970 O   0  0  0  0  0  0  0  0  0  0  0  0
    0.0975    2.3461   -3.9672 O   0  0  0  0  0  0  0  0  0  0  0  0
   -0.0714    3.2319   -4.2930 H   0  0  0  0  0  0  0  0  0  0  0  0
    0.1871    0.1189    1.8122 C   0  0  0  0  0  0  0  0  0  0  0  0
    1.3541   -0.1171    2.1187 O   0  0  0  0  0  0  0  0  0  0  0  0
   -0.7126    0.5740    2.6926 N   0  0  0  0  0  0  0  0  0  0  0  0
   -1.6464    0.7663    2.3621 H   0  0  0  0  0  0  0  0  0  0  0  0
   -0.4191    0.8310    4.1010 C   0  0  0  0  0  0  0  0  0  0  0  0
    0.4022    1.5452    4.1828 H   0  0  0  0  0  0  0  0  0  0  0  0
   -1.2983    1.2366    4.6035 H   0  0  0  0  0  0  0  0  0  0  0  0
   -0.1204   -0.0980    4.5907 H   0  0  0  0  0  0  0  0  0  0  0  0
  5  6  2  0  0  0  0
  5  7  1  0  0  0  0
  2  3  1  0  0  0  0
  2  4  1  0  0  0  0
  2  5  1  0  0  0  0
  1  2  1  0  0  0  0
 21 22  2  0  0  0  0
 21 23  1  0  0  0  0
 19 20  1  0  0  0  0
 17 18  2  0  0  0  0
 17 19  1  0  0  0  0
 14 15  1  0  0  0  0
 14 16  1  0  0  0  0
 14 17  1  0  0  0  0
 11 12  1  0  0  0  0
 11 13  1  0  0  0  0
 11 14  1  0  0  0  0
  9 10  1  0  0  0  0
  9 11  1  0  0  0  0
  9 21  1  0  0  0  0
  7  8  1  0  0  0  0
  7  9  1  0  0  0  0
 25 26  1  0  0  0  0
 25 27  1  0  0  0  0
 25 28  1  0  0  0  0
 23 24  1  0  0  0  0
 23 25  1  0  0  0  0
M  END
$$$$
default_name
  -OEChem-02102213163D

 28 27  0     1  0  0  0  0  0999 V2000
   -3.2133   -3.5565    1.2809 H   0  0  0  0  0  0  0  0  0  0  0  0
   -3.1873   -2.5755    0.8089 C   0  0  0  0  0  0  0  0  0  0  0  0
   -3.8793   -1.9065    1.3169 H   0  0  0  0  0  0  0  0  0  0  0  0
   -3.4623   -2.6685   -0.2401 H   0  0  0  0  0  0  0  0  0  0  0  0
   -1.7863   -2.0195    0.9119 C   0  0  0  0  0  0  0  0  0  0  0  0
   -0.9073   -2.6615    1.4699 O   0  0  0  0  0  0  0  0  0  0  0  0
   -1.5803   -0.8195    0.3749 N   0  0  0  0  0  0  0  0  0  0  0  0
   -2.3603   -0.3345   -0.0451 H   0  0  0  0  0  0  0  0  0  0  0  0
   -0.2933   -0.1205    0.3719 C   0  0  1  0  0  0  0  0  0  0  0  0
    0.4439   -0.7485   -0.1303 H   0  0  0  0  0  0  0  0  0  0  0  0
   -0.4368    1.1924   -0.4246 C   0  0  0  0  0  0  0  0  0  0  0  0
   -1.4613    1.5498   -0.3077 H   0  0  0  0  0  0  0  0  0  0  0  0
    0.2344    1.9432   -0.0049 H   0  0  0  0  0  0  0  0  0  0  0  0
   -0.1307    1.0477   -1.9254 C   0  0  0  0  0  0  0  0  0  0  0  0
    0.7726    0.4535   -2.0645 H   0  0  0  0  0  0  0  0  0  0  0  0
   -0.9656    0.5471   -2.4143 H   0  0  0  0  0  0  0  0  0  0  0  0
    0.0766    2.3969   -2.6060 C   0  0  0  0  0  0  0  0  0  0  0  0
   -0.1054    3.4826   -2.0787 O   0  0  0  0  0  0  0  0  0  0  0  0
    0.4803    2.3433   -3.8889 O   0  0  0  0  0  0  0  0  0  0  0  0
    0.5500    3.2577   -4.1687 H   0  0  0  0  0  0  0  0  0  0  0  0
    0.1871    0.1189    1.8122 C   0  0  0  0  0  0  0  0  0  0  0  0
    1.3541   -0.1171    2.1187 O   0  0  0  0  0  0  0  0  0  0  0  0
   -0.7126    0.5740    2.6926 N   0  0  0  0  0  0  0  0  0  0  0  0
   -1.6464    0.7663    2.3621 H   0  0  0  0  0  0  0  0  0  0  0  0
   -0.4191    0.8310    4.1010 C   0  0  0  0  0  0  0  0  0  0  0  0
    0.4022    1.5452    4.1828 H   0  0  0  0  0  0  0  0  0  0  0  0
   -1.2983    1.2366    4.6035 H   0  0  0  0  0  0  0  0  0  0  0  0
   -0.1204   -0.0980    4.5907 H   0  0  0  0  0  0  0  0  0  0  0  0
  5  6  2  0  0  0  0
  5  7  1  0  0  0  0
  2  3  1  0  0  0  0
  2  4  1  0  0  0  0
  2  5  1  0  0  0  0
  1  2  1  0  0  0  0
 21 22  2  0  0  0  0
 21 23  1  0  0  0  0
 19 20  1  0  0  0  0
 17 18  2  0  0  0  0
 17 19  1  0  0  0  0
 14 15  1  0  0  0  0
 14 16  1  0  0  0  0
 14 17  1  0  0  0  0
 11 12  1  0  0  0  0
 11 13  1  0  0  0  0
 11 14  1  0  0  0  0
  9 10  1  0  0  0  0
  9 11  1  0  0  0  0
  9 21  1  0  0  0  0
  7  8  1  0  0  0  0
  7  9  1  0  0  0  0
 25 26  1  0  0  0  0
 25 27  1  0  0  0  0
 25 28  1  0  0  0  0
 23 24  1  0  0  0  0
 23 25  1  0  0  0  0
M  END
$$$$
default_name
  -OEChem-02102213163D

 28 27  0     1  0  0  0  0  0999 V2000
   -3.2133   -3.5565    1.2809 H   0  0  0  0  0  0  0  0  0  0  0  0
   -3.1873   -2.5755    0.8089 C   0  0  0  0  0  0  0  0  0  0  0  0
   -3.8793   -1.9065    1.3169 H   0  0  0  0  0  0  0  0  0  0  0  0
   -3.4623   -2.6685   -0.2401 H   0  0  0  0  0  0  0  0  0  0  0  0
   -1.7863   -2.0195    0.9119 C   0  0  0  0  0  0  0  0  0  0  0  0
   -0.9073   -2.6615    1.4699 O   0  0  0  0  0  0  0  0  0  0  0  0
   -1.5803   -0.8195    0.3749 N   0  0  0  0  0  0  0  0  0  0  0  0
   -2.3603   -0.3345   -0.0451 H   0  0  0  0  0  0  0  0  0  0  0  0
   -0.2933   -0.1205    0.3719 C   0  0  1  0  0  0  0  0  0  0  0  0
    0.4439   -0.7485   -0.1303 H   0  0  0  0  0  0  0  0  0  0  0  0
   -0.4368    1.1924   -0.4246 C   0  0  0  0  0  0  0  0  0  0  0  0
   -1.4613    1.5498   -0.3077 H   0  0  0  0  0  0  0  0  0  0  0  0
    0.2344    1.9432   -0.0049 H   0  0  0  0  0  0  0  0  0  0  0  0
   -0.1307    1.0477   -1.9254 C   0  0  0  0  0  0  0  0  0  0  0  0
    0.5977    0.2517   -2.0807 H   0  0  0  0  0  0  0  0  0  0  0  0
   -1.0492    0.7990   -2.4556 H   0  0  0  0  0  0  0  0  0  0  0  0
    0.4307    2.3318   -2.5275 C   0  0  0  0  0  0  0  0  0  0  0  0
    0.5117    3.4014   -1.9450 O   0  0  0  0  0  0  0  0  0  0  0  0
    0.8473    2.2399   -3.8040 O   0  0  0  0  0  0  0  0  0  0  0  0
    1.1537    3.1193   -4.0323 H   0  0  0  0  0  0  0  0  0  0  0  0
    0.1871    0.1189    1.8122 C   0  0  0  0  0  0  0  0  0  0  0  0
    1.3541   -0.1171    2.1187 O   0  0  0  0  0  0  0  0  0  0  0  0
   -0.7126    0.5740    2.6926 N   0  0  0  0  0  0  0  0  0  0  0  0
   -1.6464    0.7663    2.3621 H   0  0  0  0  0  0  0  0  0  0  0  0
   -0.4191    0.8310    4.1010 C   0  0  0  0  0  0  0  0  0  0  0  0
    0.4022    1.5452    4.1828 H   0  0  0  0  0  0  0  0  0  0  0  0
   -1.2983    1.2366    4.6035 H   0  0  0  0  0  0  0  0  0  0  0  0
   -0.1204   -0.0980    4.5907 H   0  0  0  0  0  0  0  0  0  0  0  0
  5  6  2  0  0  0  0
  5  7  1  0  0  0  0
  2  3  1  0  0  0  0
  2  4  1  0  0  0  0
  2  5  1  0  0  0  0
  1  2  1  0  0  0  0
 21 22  2  0  0  0  0
 21 23  1  0  0  0  0
 19 20  1  0  0  0  0
 17 18  2  0  0  0  0
 17 19  1  0  0  0  0
 14 15  1  0  0  0  0
 14 16  1  0  0  0  0
 14 17  1  0  0  0  0
 11 12  1  0  0  0  0
 11 13  1  0  0  0  0
 11 14  1  0  0  0  0
  9 10  1  0  0  0  0
  9 11  1  0  0  0  0
  9 21  1  0  0  0  0
  7  8  1  0  0  0  0
  7  9  1  0  0  0  0
 25 26  1  0  0  0  0
 25 27  1  0  0  0  0
 25 28  1  0  0  0  0
 23 24  1  0  0  0  0
 23 25  1  0  0  0  0
M  END
$$$$
default_name
  -OEChem-02102213163D

 28 27  0     1  0  0  0  0  0999 V2000
   -3.2133   -3.5565    1.2809 H   0  0  0  0  0  0  0  0  0  0  0  0
   -3.1873   -2.5755    0.8089 C   0  0  0  0  0  0  0  0  0  0  0  0
   -3.8793   -1.9065    1.3169 H   0  0  0  0  0  0  0  0  0  0  0  0
   -3.4623   -2.6685   -0.2401 H   0  0  0  0  0  0  0  0  0  0  0  0
   -1.7863   -2.0195    0.9119 C   0  0  0  0  0  0  0  0  0  0  0  0
   -0.9073   -2.6615    1.4699 O   0  0  0  0  0  0  0  0  0  0  0  0
   -1.5803   -0.8195    0.3749 N   0  0  0  0  0  0  0  0  0  0  0  0
   -2.3603   -0.3345   -0.0451 H   0  0  0  0  0  0  0  0  0  0  0  0
   -0.2933   -0.1205    0.3719 C   0  0  1  0  0  0  0  0  0  0  0  0
    0.4439   -0.7485   -0.1303 H   0  0  0  0  0  0  0  0  0  0  0  0
   -0.4368    1.1924   -0.4246 C   0  0  0  0  0  0  0  0  0  0  0  0
   -1.4613    1.5498   -0.3077 H   0  0  0  0  0  0  0  0  0  0  0  0
    0.2344    1.9432   -0.0049 H   0  0  0  0  0  0  0  0  0  0  0  0
   -0.1307    1.0477   -1.9254 C   0  0  0  0  0  0  0  0  0  0  0  0
    0.3782    0.1017   -2.1110 H   0  0  0  0  0  0  0  0  0  0  0  0
   -1.0654    1.0655   -2.4846 H   0  0  0  0  0  0  0  0  0  0  0  0
    0.7544    2.1755   -2.4464 C   0  0  0  0  0  0  0  0  0  0  0  0
    1.0841    3.1603   -1.8050 O   0  0  0  0  0  0  0  0  0  0  0  0
    1.1737    2.0429   -3.7185 O   0  0  0  0  0  0  0  0  0  0  0  0
    1.6986    2.8261   -3.8929 H   0  0  0  0  0  0  0  0  0  0  0  0
    0.1871    0.1189    1.8122 C   0  0  0  0  0  0  0  0  0  0  0  0
    1.3541   -0.1171    2.1187 O   0  0  0  0  0  0  0  0  0  0  0  0
   -0.7126    0.5740    2.6926 N   0  0  0  0  0  0  0  0  0  0  0  0
   -1.6464    0.7663    2.3621 H   0  0  0  0  0  0  0  0  0  0  0  0
   -0.4191    0.8310    4.1010 C   0  0  0  0  0  0  0  0  0  0  0  0
    0.4022    1.5452    4.1828 H   0  0  0  0  0  0  0  0  0  0  0  0
   -1.2983    1.2366    4.6035 H   0  0  0  0  0  0  0  0  0  0  0  0
   -0.1204   -0.0980    4.5907 H   0  0  0  0  0  0  0  0  0  0  0  0
  5  6  2  0  0  0  0
  5  7  1  0  0  0  0
  2  3  1  0  0  0  0
  2  4  1  0  0  0  0
  2  5  1  0  0  0  0
  1  2  1  0  0  0  0
 21 22  2  0  0  0  0
 21 23  1  0  0  0  0
 19 20  1  0  0  0  0
 17 18  2  0  0  0  0
 17 19  1  0  0  0  0
 14 15  1  0  0  0  0
 14 16  1  0  0  0  0
 14 17  1  0  0  0  0
 11 12  1  0  0  0  0
 11 13  1  0  0  0  0
 11 14  1  0  0  0  0
  9 10  1  0  0  0  0
  9 11  1  0  0  0  0
  9 21  1  0  0  0  0
  7  8  1  0  0  0  0
  7  9  1  0  0  0  0
 25 26  1  0  0  0  0
 25 27  1  0  0  0  0
 25 28  1  0  0  0  0
 23 24  1  0  0  0  0
 23 25  1  0  0  0  0
M  END
$$$$
default_name
  -OEChem-02102213163D

 28 27  0     1  0  0  0  0  0999 V2000
   -3.2133   -3.5565    1.2809 H   0  0  0  0  0  0  0  0  0  0  0  0
   -3.1873   -2.5755    0.8089 C   0  0  0  0  0  0  0  0  0  0  0  0
   -3.8793   -1.9065    1.3169 H   0  0  0  0  0  0  0  0  0  0  0  0
   -3.4623   -2.6685   -0.2401 H   0  0  0  0  0  0  0  0  0  0  0  0
   -1.7863   -2.0195    0.9119 C   0  0  0  0  0  0  0  0  0  0  0  0
   -0.9073   -2.6615    1.4699 O   0  0  0  0  0  0  0  0  0  0  0  0
   -1.5803   -0.8195    0.3749 N   0  0  0  0  0  0  0  0  0  0  0  0
   -2.3603   -0.3345   -0.0451 H   0  0  0  0  0  0  0  0  0  0  0  0
   -0.2933   -0.1205    0.3719 C   0  0  1  0  0  0  0  0  0  0  0  0
    0.4439   -0.7485   -0.1303 H   0  0  0  0  0  0  0  0  0  0  0  0
   -0.4368    1.1924   -0.4246 C   0  0  0  0  0  0  0  0  0  0  0  0
   -1.4613    1.5498   -0.3077 H   0  0  0  0  0  0  0  0  0  0  0  0
    0.2344    1.9432   -0.0049 H   0  0  0  0  0  0  0  0  0  0  0  0
   -0.1307    1.0477   -1.9254 C   0  0  0  0  0  0  0  0  0  0  0  0
    0.1290    0.0139   -2.1534 H   0  0  0  0  0  0  0  0  0  0  0  0
   -1.0130    1.3285   -2.4993 H   0  0  0  0  0  0  0  0  0  0  0  0
    1.0255    1.9386   -2.3682 C   0  0  0  0  0  0  0  0  0  0  0  0
    1.5726    2.7756   -1.6683 O   0  0  0  0  0  0  0  0  0  0  0  0
    1.4372    1.7659   -3.6380 O   0  0  0  0  0  0  0  0  0  0  0  0
    2.1475    2.3982   -3.7600 H   0  0  0  0  0  0  0  0  0  0  0  0
    0.1871    0.1189    1.8122 C   0  0  0  0  0  0  0  0  0  0  0  0
    1.3541   -0.1171    2.1187 O   0  0  0  0  0  0  0  0  0  0  0  0
   -0.7126    0.5740    2.6926 N   0  0  0  0  0  0  0  0  0  0  0  0
   -1.6464    0.7663    2.3621 H   0  0  0  0  0  0  0  0  0  0  0  0
   -0.4191    0.8310    4.1010 C   0  0  0  0  0  0  0  0  0  0  0  0
    0.4022    1.5452    4.1828 H   0  0  0  0  0  0  0  0  0  0  0  0
   -1.2983    1.2366    4.6035 H   0  0  0  0  0  0  0  0  0  0  0  0
   -0.1204   -0.0980    4.5907 H   0  0  0  0  0  0  0  0  0  0  0  0
  5  6  2  0  0  0  0
  5  7  1  0  0  0  0
  2  3  1  0  0  0  0
  2  4  1  0  0  0  0
  2  5  1  0  0  0  0
  1  2  1  0  0  0  0
 21 22  2  0  0  0  0
 21 23  1  0  0  0  0
 19 20  1  0  0  0  0
 17 18  2  0  0  0  0
 17 19  1  0  0  0  0
 14 15  1  0  0  0  0
 14 16  1  0  0  0  0
 14 17  1  0  0  0  0
 11 12  1  0  0  0  0
 11 13  1  0  0  0  0
 11 14  1  0  0  0  0
  9 10  1  0  0  0  0
  9 11  1  0  0  0  0
  9 21  1  0  0  0  0
  7  8  1  0  0  0  0
  7  9  1  0  0  0  0
 25 26  1  0  0  0  0
 25 27  1  0  0  0  0
 25 28  1  0  0  0  0
 23 24  1  0  0  0  0
 23 25  1  0  0  0  0
M  END
$$$$
default_name
  -OEChem-02102213163D

 28 27  0     1  0  0  0  0  0999 V2000
   -3.2133   -3.5565    1.2809 H   0  0  0  0  0  0  0  0  0  0  0  0
   -3.1873   -2.5755    0.8089 C   0  0  0  0  0  0  0  0  0  0  0  0
   -3.8793   -1.9065    1.3169 H   0  0  0  0  0  0  0  0  0  0  0  0
   -3.4623   -2.6685   -0.2401 H   0  0  0  0  0  0  0  0  0  0  0  0
   -1.7863   -2.0195    0.9119 C   0  0  0  0  0  0  0  0  0  0  0  0
   -0.9073   -2.6615    1.4699 O   0  0  0  0  0  0  0  0  0  0  0  0
   -1.5803   -0.8195    0.3749 N   0  0  0  0  0  0  0  0  0  0  0  0
   -2.3603   -0.3345   -0.0451 H   0  0  0  0  0  0  0  0  0  0  0  0
   -0.2933   -0.1205    0.3719 C   0  0  1  0  0  0  0  0  0  0  0  0
    0.4439   -0.7485   -0.1303 H   0  0  0  0  0  0  0  0  0  0  0  0
   -0.4368    1.1924   -0.4246 C   0  0  0  0  0  0  0  0  0  0  0  0
   -1.4613    1.5498   -0.3077 H   0  0  0  0  0  0  0  0  0  0  0  0
    0.2344    1.9432   -0.0049 H   0  0  0  0  0  0  0  0  0  0  0  0
   -0.1307    1.0477   -1.9254 C   0  0  0  0  0  0  0  0  0  0  0  0
   -0.1328   -0.0059   -2.2048 H   0  0  0  0  0  0  0  0  0  0  0  0
   -0.8957    1.5701   -2.4987 H   0  0  0  0  0  0  0  0  0  0  0  0
    1.2258    1.6373   -2.2983 C   0  0  0  0  0  0  0  0  0  0  0  0
    1.9440    2.2737   -1.5441 O   0  0  0  0  0  0  0  0  0  0  0  0
    1.6197    1.4276   -3.5682 O   0  0  0  0  0  0  0  0  0  0  0  0
    2.4698    1.8647   -3.6429 H   0  0  0  0  0  0  0  0  0  0  0  0
    0.1871    0.1189    1.8122 C   0  0  0  0  0  0  0  0  0  0  0  0
    1.3541   -0.1171    2.1187 O   0  0  0  0  0  0  0  0  0  0  0  0
   -0.7126    0.5740    2.6926 N   0  0  0  0  0  0  0  0  0  0  0  0
   -1.6464    0.7663    2.3621 H   0  0  0  0  0  0  0  0  0  0  0  0
   -0.4191    0.8310    4.1010 C   0  0  0  0  0  0  0  0  0  0  0  0
    0.4022    1.5452    4.1828 H   0  0  0  0  0  0  0  0  0  0  0  0
   -1.2983    1.2366    4.6035 H   0  0  0  0  0  0  0  0  0  0  0  0
   -0.1204   -0.0980    4.5907 H   0  0  0  0  0  0  0  0  0  0  0  0
  5  6  2  0  0  0  0
  5  7  1  0  0  0  0
  2  3  1  0  0  0  0
  2  4  1  0  0  0  0
  2  5  1  0  0  0  0
  1  2  1  0  0  0  0
 21 22  2  0  0  0  0
 21 23  1  0  0  0  0
 19 20  1  0  0  0  0
 17 18  2  0  0  0  0
 17 19  1  0  0  0  0
 14 15  1  0  0  0  0
 14 16  1  0  0  0  0
 14 17  1  0  0  0  0
 11 12  1  0  0  0  0
 11 13  1  0  0  0  0
 11 14  1  0  0  0  0
  9 10  1  0  0  0  0
  9 11  1  0  0  0  0
  9 21  1  0  0  0  0
  7  8  1  0  0  0  0
  7  9  1  0  0  0  0
 25 26  1  0  0  0  0
 25 27  1  0  0  0  0
 25 28  1  0  0  0  0
 23 24  1  0  0  0  0
 23 25  1  0  0  0  0
M  END
$$$$
default_name
  -OEChem-02102213163D

 28 27  0     1  0  0  0  0  0999 V2000
   -3.2133   -3.5565    1.2809 H   0  0  0  0  0  0  0  0  0  0  0  0
   -3.1873   -2.5755    0.8089 C   0  0  0  0  0  0  0  0  0  0  0  0
   -3.8793   -1.9065    1.3169 H   0  0  0  0  0  0  0  0  0  0  0  0
   -3.4623   -2.6685   -0.2401 H   0  0  0  0  0  0  0  0  0  0  0  0
   -1.7863   -2.0195    0.9119 C   0  0  0  0  0  0  0  0  0  0  0  0
   -0.9073   -2.6615    1.4699 O   0  0  0  0  0  0  0  0  0  0  0  0
   -1.5803   -0.8195    0.3749 N   0  0  0  0  0  0  0  0  0  0  0  0
   -2.3603   -0.3345   -0.0451 H   0  0  0  0  0  0  0  0  0  0  0  0
   -0.2933   -0.1205    0.3719 C   0  0  1  0  0  0  0  0  0  0  0  0
    0.4439   -0.7485   -0.1303 H   0  0  0  0  0  0  0  0  0  0  0  0
   -0.4368    1.1924   -0.4246 C   0  0  0  0  0  0  0  0  0  0  0  0
   -1.4613    1.5498   -0.3077 H   0  0  0  0  0  0  0  0  0  0  0  0
    0.2344    1.9432   -0.0049 H   0  0  0  0  0  0  0  0  0  0  0  0
   -0.1307    1.0477   -1.9254 C   0  0  0  0  0  0  0  0  0  0  0  0
   -0.3894    0.0437   -2.2620 H   0  0  0  0  0  0  0  0  0  0  0  0
   -0.7213    1.7738   -2.4827 H   0  0  0  0  0  0  0  0  0  0  0  0
    1.3414    1.2921   -2.2415 C   0  0  0  0  0  0  0  0  0  0  0  0
    2.1731    1.6888   -1.4410 O   0  0  0  0  0  0  0  0  0  0  0  0
    1.7090    1.0512   -3.5137 O   0  0  0  0  0  0  0  0  0  0  0  0
    2.6436    1.2620   -3.5493 H   0  0  0  0  0  0  0  0  0  0  0  0
    0.1871    0.1189    1.8122 C   0  0  0  0  0  0  0  0  0  0  0  0
    1.3541   -0.1171    2.1187 O   0  0  0  0  0  0  0  0  0  0  0  0
   -0.7126    0.5740    2.6926 N   0  0  0  0  0  0  0  0  0  0  0  0
   -1.6464    0.7663    2.3621 H   0  0  0  0  0  0  0  0  0  0  0  0
   -0.4191    0.8310    4.1010 C   0  0  0  0  0  0  0  0  0  0  0  0
    0.4022    1.5452    4.1828 H   0  0  0  0  0  0  0  0  0  0  0  0
   -1.2983    1.2366    4.6035 H   0  0  0  0  0  0  0  0  0  0  0  0
   -0.1204   -0.0980    4.5907 H   0  0  0  0  0  0  0  0  0  0  0  0
  5  6  2  0  0  0  0
  5  7  1  0  0  0  0
  2  3  1  0  0  0  0
  2  4  1  0  0  0  0
  2  5  1  0  0  0  0
  1  2  1  0  0  0  0
 21 22  2  0  0  0  0
 21 23  1  0  0  0  0
 19 20  1  0  0  0  0
 17 18  2  0  0  0  0
 17 19  1  0  0  0  0
 14 15  1  0  0  0  0
 14 16  1  0  0  0  0
 14 17  1  0  0  0  0
 11 12  1  0  0  0  0
 11 13  1  0  0  0  0
 11 14  1  0  0  0  0
  9 10  1  0  0  0  0
  9 11  1  0  0  0  0
  9 21  1  0  0  0  0
  7  8  1  0  0  0  0
  7  9  1  0  0  0  0
 25 26  1  0  0  0  0
 25 27  1  0  0  0  0
 25 28  1  0  0  0  0
 23 24  1  0  0  0  0
 23 25  1  0  0  0  0
M  END
$$$$
default_name
  -OEChem-02102213163D

 28 27  0     1  0  0  0  0  0999 V2000
   -3.2133   -3.5565    1.2809 H   0  0  0  0  0  0  0  0  0  0  0  0
   -3.1873   -2.5755    0.8089 C   0  0  0  0  0  0  0  0  0  0  0  0
   -3.8793   -1.9065    1.3169 H   0  0  0  0  0  0  0  0  0  0  0  0
   -3.4623   -2.6685   -0.2401 H   0  0  0  0  0  0  0  0  0  0  0  0
   -1.7863   -2.0195    0.9119 C   0  0  0  0  0  0  0  0  0  0  0  0
   -0.9073   -2.6615    1.4699 O   0  0  0  0  0  0  0  0  0  0  0  0
   -1.5803   -0.8195    0.3749 N   0  0  0  0  0  0  0  0  0  0  0  0
   -2.3603   -0.3345   -0.0451 H   0  0  0  0  0  0  0  0  0  0  0  0
   -0.2933   -0.1205    0.3719 C   0  0  1  0  0  0  0  0  0  0  0  0
    0.4439   -0.7485   -0.1303 H   0  0  0  0  0  0  0  0  0  0  0  0
   -0.4368    1.1924   -0.4246 C   0  0  0  0  0  0  0  0  0  0  0  0
   -1.4613    1.5498   -0.3077 H   0  0  0  0  0  0  0  0  0  0  0  0
    0.2344    1.9432   -0.0049 H   0  0  0  0  0  0  0  0  0  0  0  0
   -0.1307    1.0477   -1.9254 C   0  0  0  0  0  0  0  0  0  0  0  0
   -0.6233    0.1594   -2.3208 H   0  0  0  0  0  0  0  0  0  0  0  0
   -0.5019    1.9258   -2.4526 H   0  0  0  0  0  0  0  0  0  0  0  0
    1.3645    0.9265   -2.2015 C   0  0  0  0  0  0  0  0  0  0  0  0
    2.2441    1.0606   -1.3660 O   0  0  0  0  0  0  0  0  0  0  0  0
    1.6988    0.6623   -3.4782 O   0  0  0  0  0  0  0  0  0  0  0  0
    2.6571    0.6311   -3.4857 H   0  0  0  0  0  0  0  0  0  0  0  0
    0.1871    0.1189    1.8122 C   0  0  0  0  0  0  0  0  0  0  0  0
    1.3541   -0.1171    2.1187 O   0  0  0  0  0  0  0  0  0  0  0  0
   -0.7126    0.5740    2.6926 N   0  0  0  0  0  0  0  0  0  0  0  0
   -1.6464    0.7663    2.3621 H   0  0  0  0  0  0  0  0  0  0  0  0
   -0.4191    0.8310    4.1010 C   0  0  0  0  0  0  0  0  0  0  0  0
    0.4022    1.5452    4.1828 H   0  0  0  0  0  0  0  0  0  0  0  0
   -1.2983    1.2366    4.6035 H   0  0  0  0  0  0  0  0  0  0  0  0
   -0.1204   -0.0980    4.5907 H   0  0  0  0  0  0  0  0  0  0  0  0
  5  6  2  0  0  0  0
  5  7  1  0  0  0  0
  2  3  1  0  0  0  0
  2  4  1  0  0  0  0
  2  5  1  0  0  0  0
  1  2  1  0  0  0  0
 21 22  2  0  0  0  0
 21 23  1  0  0  0  0
 19 20  1  0  0  0  0
 17 18  2  0  0  0  0
 17 19  1  0  0  0  0
 14 15  1  0  0  0  0
 14 16  1  0  0  0  0
 14 17  1  0  0  0  0
 11 12  1  0  0  0  0
 11 13  1  0  0  0  0
 11 14  1  0  0  0  0
  9 10  1  0  0  0  0
  9 11  1  0  0  0  0
  9 21  1  0  0  0  0
  7  8  1  0  0  0  0
  7  9  1  0  0  0  0
 25 26  1  0  0  0  0
 25 27  1  0  0  0  0
 25 28  1  0  0  0  0
 23 24  1  0  0  0  0
 23 25  1  0  0  0  0
M  END
$$$$
default_name
  -OEChem-02102213163D

 28 27  0     1  0  0  0  0  0999 V2000
   -3.2133   -3.5565    1.2809 H   0  0  0  0  0  0  0  0  0  0  0  0
   -3.1873   -2.5755    0.8089 C   0  0  0  0  0  0  0  0  0  0  0  0
   -3.8793   -1.9065    1.3169 H   0  0  0  0  0  0  0  0  0  0  0  0
   -3.4623   -2.6685   -0.2401 H   0  0  0  0  0  0  0  0  0  0  0  0
   -1.7863   -2.0195    0.9119 C   0  0  0  0  0  0  0  0  0  0  0  0
   -0.9073   -2.6615    1.4699 O   0  0  0  0  0  0  0  0  0  0  0  0
   -1.5803   -0.8195    0.3749 N   0  0  0  0  0  0  0  0  0  0  0  0
   -2.3603   -0.3345   -0.0451 H   0  0  0  0  0  0  0  0  0  0  0  0
   -0.2933   -0.1205    0.3719 C   0  0  1  0  0  0  0  0  0  0  0  0
    0.4439   -0.7485   -0.1303 H   0  0  0  0  0  0  0  0  0  0  0  0
   -0.4368    1.1924   -0.4246 C   0  0  0  0  0  0  0  0  0  0  0  0
   -1.4613    1.5498   -0.3077 H   0  0  0  0  0  0  0  0  0  0  0  0
    0.2344    1.9432   -0.0049 H   0  0  0  0  0  0  0  0  0  0  0  0
   -0.1307    1.0477   -1.9254 C   0  0  0  0  0  0  0  0  0  0  0  0
   -0.8187    0.3332   -2.3775 H   0  0  0  0  0  0  0  0  0  0  0  0
   -0.2523    2.0156   -2.4104 H   0  0  0  0  0  0  0  0  0  0  0  0
    1.2936    0.5655   -2.1812 C   0  0  0  0  0  0  0  0  0  0  0  0
    2.1523    0.4320   -1.3241 O   0  0  0  0  0  0  0  0  0  0  0  0
    1.5900    0.2873   -3.4643 O   0  0  0  0  0  0  0  0  0  0  0  0
    2.5092    0.0150   -3.4565 H   0  0  0  0  0  0  0  0  0  0  0  0
    0.1871    0.1189    1.8122 C   0  0  0  0  0  0  0  0  0  0  0  0
    1.3541   -0.1171    2.1187 O   0  0  0  0  0  0  0  0  0  0  0  0
   -0.7126    0.5740    2.6926 N   0  0  0  0  0  0  0  0  0  0  0  0
   -1.6464    0.7663    2.3621 H   0  0  0  0  0  0  0  0  0  0  0  0
   -0.4191    0.8310    4.1010 C   0  0  0  0  0  0  0  0  0  0  0  0
    0.4022    1.5452    4.1828 H   0  0  0  0  0  0  0  0  0  0  0  0
   -1.2983    1.2366    4.6035 H   0  0  0  0  0  0  0  0  0  0  0  0
   -0.1204   -0.0980    4.5907 H   0  0  0  0  0  0  0  0  0  0  0  0
  5  6  2  0  0  0  0
  5  7  1  0  0  0  0
  2  3  1  0  0  0  0
  2  4  1  0  0  0  0
  2  5  1  0  0  0  0
  1  2  1  0  0  0  0
 21 22  2  0  0  0  0
 21 23  1  0  0  0  0
 19 20  1  0  0  0  0
 17 18  2  0  0  0  0
 17 19  1  0  0  0  0
 14 15  1  0  0  0  0
 14 16  1  0  0  0  0
 14 17  1  0  0  0  0
 11 12  1  0  0  0  0
 11 13  1  0  0  0  0
 11 14  1  0  0  0  0
  9 10  1  0  0  0  0
  9 11  1  0  0  0  0
  9 21  1  0  0  0  0
  7  8  1  0  0  0  0
  7  9  1  0  0  0  0
 25 26  1  0  0  0  0
 25 27  1  0  0  0  0
 25 28  1  0  0  0  0
 23 24  1  0  0  0  0
 23 25  1  0  0  0  0
M  END
$$$$
default_name
  -OEChem-02102213163D

 28 27  0     1  0  0  0  0  0999 V2000
   -3.2133   -3.5565    1.2809 H   0  0  0  0  0  0  0  0  0  0  0  0
   -3.1873   -2.5755    0.8089 C   0  0  0  0  0  0  0  0  0  0  0  0
   -3.8793   -1.9065    1.3169 H   0  0  0  0  0  0  0  0  0  0  0  0
   -3.4623   -2.6685   -0.2401 H   0  0  0  0  0  0  0  0  0  0  0  0
   -1.7863   -2.0195    0.9119 C   0  0  0  0  0  0  0  0  0  0  0  0
   -0.9073   -2.6615    1.4699 O   0  0  0  0  0  0  0  0  0  0  0  0
   -1.5803   -0.8195    0.3749 N   0  0  0  0  0  0  0  0  0  0  0  0
   -2.3603   -0.3345   -0.0451 H   0  0  0  0  0  0  0  0  0  0  0  0
   -0.2933   -0.1205    0.3719 C   0  0  1  0  0  0  0  0  0  0  0  0
    0.4439   -0.7485   -0.1303 H   0  0  0  0  0  0  0  0  0  0  0  0
   -0.4368    1.1924   -0.4246 C   0  0  0  0  0  0  0  0  0  0  0  0
   -1.4613    1.5498   -0.3077 H   0  0  0  0  0  0  0  0  0  0  0  0
    0.2344    1.9432   -0.0049 H   0  0  0  0  0  0  0  0  0  0  0  0
   -0.1307    1.0477   -1.9254 C   0  0  0  0  0  0  0  0  0  0  0  0
   -0.9621    0.5534   -2.4279 H   0  0  0  0  0  0  0  0  0  0  0  0
    0.0105    2.0371   -2.3589 H   0  0  0  0  0  0  0  0  0  0  0  0
    1.1335    0.2337   -2.1818 C   0  0  0  0  0  0  0  0  0  0  0  0
    1.9039   -0.1542   -1.3182 O   0  0  0  0  0  0  0  0  0  0  0  0
    1.3898   -0.0481   -3.4728 O   0  0  0  0  0  0  0  0  0  0  0  0
    2.2101   -0.5443   -3.4635 H   0  0  0  0  0  0  0  0  0  0  0  0
    0.1871    0.1189    1.8122 C   0  0  0  0  0  0  0  0  0  0  0  0
    1.3541   -0.1171    2.1187 O   0  0  0  0  0  0  0  0  0  0  0  0
   -0.7126    0.5740    2.6926 N   0  0  0  0  0  0  0  0  0  0  0  0
   -1.6464    0.7663    2.3621 H   0  0  0  0  0  0  0  0  0  0  0  0
   -0.4191    0.8310    4.1010 C   0  0  0  0  0  0  0  0  0  0  0  0
    0.4022    1.5452    4.1828 H   0  0  0  0  0  0  0  0  0  0  0  0
   -1.2983    1.2366    4.6035 H   0  0  0  0  0  0  0  0  0  0  0  0
   -0.1204   -0.0980    4.5907 H   0  0  0  0  0  0  0  0  0  0  0  0
  5  6  2  0  0  0  0
  5  7  1  0  0  0  0
  2  3  1  0  0  0  0
  2  4  1  0  0  0  0
  2  5  1  0  0  0  0
  1  2  1  0  0  0  0
 21 22  2  0  0  0  0
 21 23  1  0  0  0  0
 19 20  1  0  0  0  0
 17 18  2  0  0  0  0
 17 19  1  0  0  0  0
 14 15  1  0  0  0  0
 14 16  1  0  0  0  0
 14 17  1  0  0  0  0
 11 12  1  0  0  0  0
 11 13  1  0  0  0  0
 11 14  1  0  0  0  0
  9 10  1  0  0  0  0
  9 11  1  0  0  0  0
  9 21  1  0  0  0  0
  7  8  1  0  0  0  0
  7  9  1  0  0  0  0
 25 26  1  0  0  0  0
 25 27  1  0  0  0  0
 25 28  1  0  0  0  0
 23 24  1  0  0  0  0
 23 25  1  0  0  0  0
M  END
$$$$
default_name
  -OEChem-02102213163D

 28 27  0     1  0  0  0  0  0999 V2000
   -3.2133   -3.5565    1.2809 H   0  0  0  0  0  0  0  0  0  0  0  0
   -3.1873   -2.5755    0.8089 C   0  0  0  0  0  0  0  0  0  0  0  0
   -3.8793   -1.9065    1.3169 H   0  0  0  0  0  0  0  0  0  0  0  0
   -3.4623   -2.6685   -0.2401 H   0  0  0  0  0  0  0  0  0  0  0  0
   -1.7863   -2.0195    0.9119 C   0  0  0  0  0  0  0  0  0  0  0  0
   -0.9073   -2.6615    1.4699 O   0  0  0  0  0  0  0  0  0  0  0  0
   -1.5803   -0.8195    0.3749 N   0  0  0  0  0  0  0  0  0  0  0  0
   -2.3603   -0.3345   -0.0451 H   0  0  0  0  0  0  0  0  0  0  0  0
   -0.2933   -0.1205    0.3719 C   0  0  1  0  0  0  0  0  0  0  0  0
    0.4439   -0.7485   -0.1303 H   0  0  0  0  0  0  0  0  0  0  0  0
   -0.4368    1.1924   -0.4246 C   0  0  0  0  0  0  0  0  0  0  0  0
   -1.4613    1.5498   -0.3077 H   0  0  0  0  0  0  0  0  0  0  0  0
    0.2344    1.9432   -0.0049 H   0  0  0  0  0  0  0  0  0  0  0  0
   -0.1307    1.0477   -1.9254 C   0  0  0  0  0  0  0  0  0  0  0  0
   -1.0439    0.8048   -2.4689 H   0  0  0  0  0  0  0  0  0  0  0  0
    0.2684    1.9890   -2.3016 H   0  0  0  0  0  0  0  0  0  0  0  0
    0.8950   -0.0464   -2.2034 C   0  0  0  0  0  0  0  0  0  0  0  0
    1.5159   -0.6579   -1.3488 O   0  0  0  0  0  0  0  0  0  0  0  0
    1.1120   -0.3211   -3.5031 O   0  0  0  0  0  0  0  0  0  0  0  0
    1.7802   -1.0086   -3.5064 H   0  0  0  0  0  0  0  0  0  0  0  0
    0.1871    0.1189    1.8122 C   0  0  0  0  0  0  0  0  0  0  0  0
    1.3541   -0.1171    2.1187 O   0  0  0  0  0  0  0  0  0  0  0  0
   -0.7126    0.5740    2.6926 N   0  0  0  0  0  0  0  0  0  0  0  0
   -1.6464    0.7663    2.3621 H   0  0  0  0  0  0  0  0  0  0  0  0
   -0.4191    0.8310    4.1010 C   0  0  0  0  0  0  0  0  0  0  0  0
    0.4022    1.5452    4.1828 H   0  0  0  0  0  0  0  0  0  0  0  0
   -1.2983    1.2366    4.6035 H   0  0  0  0  0  0  0  0  0  0  0  0
   -0.1204   -0.0980    4.5907 H   0  0  0  0  0  0  0  0  0  0  0  0
  5  6  2  0  0  0  0
  5  7  1  0  0  0  0
  2  3  1  0  0  0  0
  2  4  1  0  0  0  0
  2  5  1  0  0  0  0
  1  2  1  0  0  0  0
 21 22  2  0  0  0  0
 21 23  1  0  0  0  0
 19 20  1  0  0  0  0
 17 18  2  0  0  0  0
 17 19  1  0  0  0  0
 14 15  1  0  0  0  0
 14 16  1  0  0  0  0
 14 17  1  0  0  0  0
 11 12  1  0  0  0  0
 11 13  1  0  0  0  0
 11 14  1  0  0  0  0
  9 10  1  0  0  0  0
  9 11  1  0  0  0  0
  9 21  1  0  0  0  0
  7  8  1  0  0  0  0
  7  9  1  0  0  0  0
 25 26  1  0  0  0  0
 25 27  1  0  0  0  0
 25 28  1  0  0  0  0
 23 24  1  0  0  0  0
 23 25  1  0  0  0  0
M  END
$$$$
default_name
  -OEChem-02102213163D

 28 27  0     1  0  0  0  0  0999 V2000
   -3.2133   -3.5565    1.2809 H   0  0  0  0  0  0  0  0  0  0  0  0
   -3.1873   -2.5755    0.8089 C   0  0  0  0  0  0  0  0  0  0  0  0
   -3.8793   -1.9065    1.3169 H   0  0  0  0  0  0  0  0  0  0  0  0
   -3.4623   -2.6685   -0.2401 H   0  0  0  0  0  0  0  0  0  0  0  0
   -1.7863   -2.0195    0.9119 C   0  0  0  0  0  0  0  0  0  0  0  0
   -0.9073   -2.6615    1.4699 O   0  0  0  0  0  0  0  0  0  0  0  0
   -1.5803   -0.8195    0.3749 N   0  0  0  0  0  0  0  0  0  0  0  0
   -2.3603   -0.3345   -0.0451 H   0  0  0  0  0  0  0  0  0  0  0  0
   -0.2933   -0.1205    0.3719 C   0  0  1  0  0  0  0  0  0  0  0  0
    0.4439   -0.7485   -0.1303 H   0  0  0  0  0  0  0  0  0  0  0  0
   -0.4368    1.1924   -0.4246 C   0  0  0  0  0  0  0  0  0  0  0  0
   -1.4613    1.5498   -0.3077 H   0  0  0  0  0  0  0  0  0  0  0  0
    0.2344    1.9432   -0.0049 H   0  0  0  0  0  0  0  0  0  0  0  0
   -0.1307    1.0477   -1.9254 C   0  0  0  0  0  0  0  0  0  0  0  0
   -1.0583    1.0704   -2.4974 H   0  0  0  0  0  0  0  0  0  0  0  0
    0.5041    1.8744   -2.2425 H   0  0  0  0  0  0  0  0  0  0  0  0
    0.5945   -0.2556   -2.2446 C   0  0  0  0  0  0  0  0  0  0  0  0
    1.0146   -1.0450   -1.4137 O   0  0  0  0  0  0  0  0  0  0  0  0
    0.7755   -0.5131   -3.5532 O   0  0  0  0  0  0  0  0  0  0  0  0
    1.2488   -1.3464   -3.5823 H   0  0  0  0  0  0  0  0  0  0  0  0
    0.1871    0.1189    1.8122 C   0  0  0  0  0  0  0  0  0  0  0  0
    1.3541   -0.1171    2.1187 O   0  0  0  0  0  0  0  0  0  0  0  0
   -0.7126    0.5740    2.6926 N   0  0  0  0  0  0  0  0  0  0  0  0
   -1.6464    0.7663    2.3621 H   0  0  0  0  0  0  0  0  0  0  0  0
   -0.4191    0.8310    4.1010 C   0  0  0  0  0  0  0  0  0  0  0  0
    0.4022    1.5452    4.1828 H   0  0  0  0  0  0  0  0  0  0  0  0
   -1.2983    1.2366    4.6035 H   0  0  0  0  0  0  0  0  0  0  0  0
   -0.1204   -0.0980    4.5907 H   0  0  0  0  0  0  0  0  0  0  0  0
  5  6  2  0  0  0  0
  5  7  1  0  0  0  0
  2  3  1  0  0  0  0
  2  4  1  0  0  0  0
  2  5  1  0  0  0  0
  1  2  1  0  0  0  0
 21 22  2  0  0  0  0
 21 23  1  0  0  0  0
 19 20  1  0  0  0  0
 17 18  2  0  0  0  0
 17 19  1  0  0  0  0
 14 15  1  0  0  0  0
 14 16  1  0  0  0  0
 14 17  1  0  0  0  0
 11 12  1  0  0  0  0
 11 13  1  0  0  0  0
 11 14  1  0  0  0  0
  9 10  1  0  0  0  0
  9 11  1  0  0  0  0
  9 21  1  0  0  0  0
  7  8  1  0  0  0  0
  7  9  1  0  0  0  0
 25 26  1  0  0  0  0
 25 27  1  0  0  0  0
 25 28  1  0  0  0  0
 23 24  1  0  0  0  0
 23 25  1  0  0  0  0
M  END
$$$$
default_name
  -OEChem-02102213163D

 28 27  0     1  0  0  0  0  0999 V2000
   -3.2133   -3.5565    1.2809 H   0  0  0  0  0  0  0  0  0  0  0  0
   -3.1873   -2.5755    0.8089 C   0  0  0  0  0  0  0  0  0  0  0  0
   -3.8793   -1.9065    1.3169 H   0  0  0  0  0  0  0  0  0  0  0  0
   -3.4623   -2.6685   -0.2401 H   0  0  0  0  0  0  0  0  0  0  0  0
   -1.7863   -2.0195    0.9119 C   0  0  0  0  0  0  0  0  0  0  0  0
   -0.9073   -2.6615    1.4699 O   0  0  0  0  0  0  0  0  0  0  0  0
   -1.5803   -0.8195    0.3749 N   0  0  0  0  0  0  0  0  0  0  0  0
   -2.3603   -0.3345   -0.0451 H   0  0  0  0  0  0  0  0  0  0  0  0
   -0.2933   -0.1205    0.3719 C   0  0  1  0  0  0  0  0  0  0  0  0
    0.4439   -0.7485   -0.1303 H   0  0  0  0  0  0  0  0  0  0  0  0
   -0.4368    1.1924   -0.4246 C   0  0  0  0  0  0  0  0  0  0  0  0
   -1.4613    1.5498   -0.3077 H   0  0  0  0  0  0  0  0  0  0  0  0
    0.2344    1.9432   -0.0049 H   0  0  0  0  0  0  0  0  0  0  0  0
   -0.1307    1.0477   -1.9254 C   0  0  0  0  0  0  0  0  0  0  0  0
   -1.0045    1.3321   -2.5117 H   0  0  0  0  0  0  0  0  0  0  0  0
    0.7013    1.7011   -2.1856 H   0  0  0  0  0  0  0  0  0  0  0  0
    0.2525   -0.3797   -2.3024 C   0  0  0  0  0  0  0  0  0  0  0  0
    0.4343   -1.2889   -1.5085 O   0  0  0  0  0  0  0  0  0  0  0  0
    0.4031   -0.6110   -3.6197 O   0  0  0  0  0  0  0  0  0  0  0  0
    0.6520   -1.5345   -3.6858 H   0  0  0  0  0  0  0  0  0  0  0  0
    0.1871    0.1189    1.8122 C   0  0  0  0  0  0  0  0  0  0  0  0
    1.3541   -0.1171    2.1187 O   0  0  0  0  0  0  0  0  0  0  0  0
   -0.7126    0.5740    2.6926 N   0  0  0  0  0  0  0  0  0  0  0  0
   -1.6464    0.7663    2.3621 H   0  0  0  0  0  0  0  0  0  0  0  0
   -0.4191    0.8310    4.1010 C   0  0  0  0  0  0  0  0  0  0  0  0
    0.4022    1.5452    4.1828 H   0  0  0  0  0  0  0  0  0  0  0  0
   -1.2983    1.2366    4.6035 H   0  0  0  0  0  0  0  0  0  0  0  0
   -0.1204   -0.0980    4.5907 H   0  0  0  0  0  0  0  0  0  0  0  0
  5  6  2  0  0  0  0
  5  7  1  0  0  0  0
  2  3  1  0  0  0  0
  2  4  1  0  0  0  0
  2  5  1  0  0  0  0
  1  2  1  0  0  0  0
 21 22  2  0  0  0  0
 21 23  1  0  0  0  0
 19 20  1  0  0  0  0
 17 18  2  0  0  0  0
 17 19  1  0  0  0  0
 14 15  1  0  0  0  0
 14 16  1  0  0  0  0
 14 17  1  0  0  0  0
 11 12  1  0  0  0  0
 11 13  1  0  0  0  0
 11 14  1  0  0  0  0
  9 10  1  0  0  0  0
  9 11  1  0  0  0  0
  9 21  1  0  0  0  0
  7  8  1  0  0  0  0
  7  9  1  0  0  0  0
 25 26  1  0  0  0  0
 25 27  1  0  0  0  0
 25 28  1  0  0  0  0
 23 24  1  0  0  0  0
 23 25  1  0  0  0  0
M  END
$$$$
default_name
  -OEChem-02102213163D

 28 27  0     1  0  0  0  0  0999 V2000
   -3.2133   -3.5565    1.2809 H   0  0  0  0  0  0  0  0  0  0  0  0
   -3.1873   -2.5755    0.8089 C   0  0  0  0  0  0  0  0  0  0  0  0
   -3.8793   -1.9065    1.3169 H   0  0  0  0  0  0  0  0  0  0  0  0
   -3.4623   -2.6685   -0.2401 H   0  0  0  0  0  0  0  0  0  0  0  0
   -1.7863   -2.0195    0.9119 C   0  0  0  0  0  0  0  0  0  0  0  0
   -0.9073   -2.6615    1.4699 O   0  0  0  0  0  0  0  0  0  0  0  0
   -1.5803   -0.8195    0.3749 N   0  0  0  0  0  0  0  0  0  0  0  0
   -2.3603   -0.3345   -0.0451 H   0  0  0  0  0  0  0  0  0  0  0  0
   -0.2933   -0.1205    0.3719 C   0  0  1  0  0  0  0  0  0  0  0  0
    0.4439   -0.7485   -0.1303 H   0  0  0  0  0  0  0  0  0  0  0  0
   -0.4368    1.1924   -0.4246 C   0  0  0  0  0  0  0  0  0  0  0  0
   -1.4613    1.5498   -0.3077 H   0  0  0  0  0  0  0  0  0  0  0  0
    0.2344    1.9432   -0.0049 H   0  0  0  0  0  0  0  0  0  0  0  0
   -0.1307    1.0477   -1.9254 C   0  0  0  0  0  0  0  0  0  0  0  0
   -0.8862    1.5721   -2.5107 H   0  0  0  0  0  0  0  0  0  0  0  0
    0.8467    1.4811   -2.1347 H   0  0  0  0  0  0  0  0  0  0  0  0
   -0.1079   -0.4103   -2.3729 C   0  0  0  0  0  0  0  0  0  0  0  0
   -0.1856   -1.3732   -1.6268 O   0  0  0  0  0  0  0  0  0  0  0  0
    0.0204   -0.6081   -3.6981 O   0  0  0  0  0  0  0  0  0  0  0  0
    0.0306   -1.5603   -3.8101 H   0  0  0  0  0  0  0  0  0  0  0  0
    0.1871    0.1189    1.8122 C   0  0  0  0  0  0  0  0  0  0  0  0
    1.3541   -0.1171    2.1187 O   0  0  0  0  0  0  0  0  0  0  0  0
   -0.7126    0.5740    2.6926 N   0  0  0  0  0  0  0  0  0  0  0  0
   -1.6464    0.7663    2.3621 H   0  0  0  0  0  0  0  0  0  0  0  0
   -0.4191    0.8310    4.1010 C   0  0  0  0  0  0  0  0  0  0  0  0
    0.4022    1.5452    4.1828 H   0  0  0  0  0  0  0  0  0  0  0  0
   -1.2983    1.2366    4.6035 H   0  0  0  0  0  0  0  0  0  0  0  0
   -0.1204   -0.0980    4.5907 H   0  0  0  0  0  0  0  0  0  0  0  0
  5  6  2  0  0  0  0
  5  7  1  0  0  0  0
  2  3  1  0  0  0  0
  2  4  1  0  0  0  0
  2  5  1  0  0  0  0
  1  2  1  0  0  0  0
 21 22  2  0  0  0  0
 21 23  1  0  0  0  0
 19 20  1  0  0  0  0
 17 18  2  0  0  0  0
 17 19  1  0  0  0  0
 14 15  1  0  0  0  0
 14 16  1  0  0  0  0
 14 17  1  0  0  0  0
 11 12  1  0  0  0  0
 11 13  1  0  0  0  0
 11 14  1  0  0  0  0
  9 10  1  0  0  0  0
  9 11  1  0  0  0  0
  9 21  1  0  0  0  0
  7  8  1  0  0  0  0
  7  9  1  0  0  0  0
 25 26  1  0  0  0  0
 25 27  1  0  0  0  0
 25 28  1  0  0  0  0
 23 24  1  0  0  0  0
 23 25  1  0  0  0  0
M  END
$$$$
default_name
  -OEChem-02102213163D

 28 27  0     1  0  0  0  0  0999 V2000
   -3.2133   -3.5565    1.2809 H   0  0  0  0  0  0  0  0  0  0  0  0
   -3.1873   -2.5755    0.8089 C   0  0  0  0  0  0  0  0  0  0  0  0
   -3.8793   -1.9065    1.3169 H   0  0  0  0  0  0  0  0  0  0  0  0
   -3.4623   -2.6685   -0.2401 H   0  0  0  0  0  0  0  0  0  0  0  0
   -1.7863   -2.0195    0.9119 C   0  0  0  0  0  0  0  0  0  0  0  0
   -0.9073   -2.6615    1.4699 O   0  0  0  0  0  0  0  0  0  0  0  0
   -1.5803   -0.8195    0.3749 N   0  0  0  0  0  0  0  0  0  0  0  0
   -2.3603   -0.3345   -0.0451 H   0  0  0  0  0  0  0  0  0  0  0  0
   -0.2933   -0.1205    0.3719 C   0  0  1  0  0  0  0  0  0  0  0  0
    0.4439   -0.7485   -0.1303 H   0  0  0  0  0  0  0  0  0  0  0  0
   -0.4368    1.1924   -0.4246 C   0  0  0  0  0  0  0  0  0  0  0  0
   -1.4613    1.5498   -0.3077 H   0  0  0  0  0  0  0  0  0  0  0  0
    0.2344    1.9432   -0.0049 H   0  0  0  0  0  0  0  0  0  0  0  0
   -0.1307    1.0477   -1.9254 C   0  0  0  0  0  0  0  0  0  0  0  0
   -0.7113    1.7739   -2.4945 H   0  0  0  0  0  0  0  0  0  0  0  0
    0.9303    1.2292   -2.0934 H   0  0  0  0  0  0  0  0  0  0  0  0
   -0.4620   -0.3451   -2.4514 C   0  0  0  0  0  0  0  0  0  0  0  0
   -0.8027   -1.2919   -1.7605 O   0  0  0  0  0  0  0  0  0  0  0  0
   -0.3467   -0.5047   -3.7829 O   0  0  0  0  0  0  0  0  0  0  0  0
   -0.5731   -1.4219   -3.9466 H   0  0  0  0  0  0  0  0  0  0  0  0
    0.1871    0.1189    1.8122 C   0  0  0  0  0  0  0  0  0  0  0  0
    1.3541   -0.1171    2.1187 O   0  0  0  0  0  0  0  0  0  0  0  0
   -0.7126    0.5740    2.6926 N   0  0  0  0  0  0  0  0  0  0  0  0
   -1.6464    0.7663    2.3621 H   0  0  0  0  0  0  0  0  0  0  0  0
   -0.4191    0.8310    4.1010 C   0  0  0  0  0  0  0  0  0  0  0  0
    0.4022    1.5452    4.1828 H   0  0  0  0  0  0  0  0  0  0  0  0
   -1.2983    1.2366    4.6035 H   0  0  0  0  0  0  0  0  0  0  0  0
   -0.1204   -0.0980    4.5907 H   0  0  0  0  0  0  0  0  0  0  0  0
  5  6  2  0  0  0  0
  5  7  1  0  0  0  0
  2  3  1  0  0  0  0
  2  4  1  0  0  0  0
  2  5  1  0  0  0  0
  1  2  1  0  0  0  0
 21 22  2  0  0  0  0
 21 23  1  0  0  0  0
 19 20  1  0  0  0  0
 17 18  2  0  0  0  0
 17 19  1  0  0  0  0
 14 15  1  0  0  0  0
 14 16  1  0  0  0  0
 14 17  1  0  0  0  0
 11 12  1  0  0  0  0
 11 13  1  0  0  0  0
 11 14  1  0  0  0  0
  9 10  1  0  0  0  0
  9 11  1  0  0  0  0
  9 21  1  0  0  0  0
  7  8  1  0  0  0  0
  7  9  1  0  0  0  0
 25 26  1  0  0  0  0
 25 27  1  0  0  0  0
 25 28  1  0  0  0  0
 23 24  1  0  0  0  0
 23 25  1  0  0  0  0
M  END
$$$$
default_name
  -OEChem-02102213163D

 28 27  0     1  0  0  0  0  0999 V2000
   -3.2133   -3.5565    1.2809 H   0  0  0  0  0  0  0  0  0  0  0  0
   -3.1873   -2.5755    0.8089 C   0  0  0  0  0  0  0  0  0  0  0  0
   -3.8793   -1.9065    1.3169 H   0  0  0  0  0  0  0  0  0  0  0  0
   -3.4623   -2.6685   -0.2401 H   0  0  0  0  0  0  0  0  0  0  0  0
   -1.7863   -2.0195    0.9119 C   0  0  0  0  0  0  0  0  0  0  0  0
   -0.9073   -2.6615    1.4699 O   0  0  0  0  0  0  0  0  0  0  0  0
   -1.5803   -0.8195    0.3749 N   0  0  0  0  0  0  0  0  0  0  0  0
   -2.3603   -0.3345   -0.0451 H   0  0  0  0  0  0  0  0  0  0  0  0
   -0.2933   -0.1205    0.3719 C   0  0  1  0  0  0  0  0  0  0  0  0
    0.4439   -0.7485   -0.1303 H   0  0  0  0  0  0  0  0  0  0  0  0
   -0.4368    1.1924   -0.4246 C   0  0  0  0  0  0  0  0  0  0  0  0
   -1.4613    1.5498   -0.3077 H   0  0  0  0  0  0  0  0  0  0  0  0
    0.2344    1.9432   -0.0049 H   0  0  0  0  0  0  0  0  0  0  0  0
   -0.1307    1.0477   -1.9254 C   0  0  0  0  0  0  0  0  0  0  0  0
   -0.4918    1.9239   -2.4642 H   0  0  0  0  0  0  0  0  0  0  0  0
    0.9465    0.9626   -2.0644 H   0  0  0  0  0  0  0  0  0  0  0  0
   -0.7856   -0.1888   -2.5325 C   0  0  0  0  0  0  0  0  0  0  0  0
   -1.3750   -1.0508   -1.9005 O   0  0  0  0  0  0  0  0  0  0  0  0
   -0.6730   -0.3077   -3.8685 O   0  0  0  0  0  0  0  0  0  0  0  0
   -1.1180   -1.1287   -4.0860 H   0  0  0  0  0  0  0  0  0  0  0  0
    0.1871    0.1189    1.8122 C   0  0  0  0  0  0  0  0  0  0  0  0
    1.3541   -0.1171    2.1187 O   0  0  0  0  0  0  0  0  0  0  0  0
   -0.7126    0.5740    2.6926 N   0  0  0  0  0  0  0  0  0  0  0  0
   -1.6464    0.7663    2.3621 H   0  0  0  0  0  0  0  0  0  0  0  0
   -0.4191    0.8310    4.1010 C   0  0  0  0  0  0  0  0  0  0  0  0
    0.4022    1.5452    4.1828 H   0  0  0  0  0  0  0  0  0  0  0  0
   -1.2983    1.2366    4.6035 H   0  0  0  0  0  0  0  0  0  0  0  0
   -0.1204   -0.0980    4.5907 H   0  0  0  0  0  0  0  0  0  0  0  0
  5  6  2  0  0  0  0
  5  7  1  0  0  0  0
  2  3  1  0  0  0  0
  2  4  1  0  0  0  0
  2  5  1  0  0  0  0
  1  2  1  0  0  0  0
 21 22  2  0  0  0  0
 21 23  1  0  0  0  0
 19 20  1  0  0  0  0
 17 18  2  0  0  0  0
 17 19  1  0  0  0  0
 14 15  1  0  0  0  0
 14 16  1  0  0  0  0
 14 17  1  0  0  0  0
 11 12  1  0  0  0  0
 11 13  1  0  0  0  0
 11 14  1  0  0  0  0
  9 10  1  0  0  0  0
  9 11  1  0  0  0  0
  9 21  1  0  0  0  0
  7  8  1  0  0  0  0
  7  9  1  0  0  0  0
 25 26  1  0  0  0  0
 25 27  1  0  0  0  0
 25 28  1  0  0  0  0
 23 24  1  0  0  0  0
 23 25  1  0  0  0  0
M  END
$$$$
default_name
  -OEChem-02102213163D

 28 27  0     1  0  0  0  0  0999 V2000
   -3.2133   -3.5565    1.2809 H   0  0  0  0  0  0  0  0  0  0  0  0
   -3.1873   -2.5755    0.8089 C   0  0  0  0  0  0  0  0  0  0  0  0
   -3.8793   -1.9065    1.3169 H   0  0  0  0  0  0  0  0  0  0  0  0
   -3.4623   -2.6685   -0.2401 H   0  0  0  0  0  0  0  0  0  0  0  0
   -1.7863   -2.0195    0.9119 C   0  0  0  0  0  0  0  0  0  0  0  0
   -0.9073   -2.6615    1.4699 O   0  0  0  0  0  0  0  0  0  0  0  0
   -1.5803   -0.8195    0.3749 N   0  0  0  0  0  0  0  0  0  0  0  0
   -2.3603   -0.3345   -0.0451 H   0  0  0  0  0  0  0  0  0  0  0  0
   -0.2933   -0.1205    0.3719 C   0  0  1  0  0  0  0  0  0  0  0  0
    0.4439   -0.7485   -0.1303 H   0  0  0  0  0  0  0  0  0  0  0  0
   -0.4368    1.1924   -0.4246 C   0  0  0  0  0  0  0  0  0  0  0  0
   -1.4613    1.5498   -0.3077 H   0  0  0  0  0  0  0  0  0  0  0  0
    0.2344    1.9432   -0.0049 H   0  0  0  0  0  0  0  0  0  0  0  0
   -0.1307    1.0477   -1.9254 C   0  0  0  0  0  0  0  0  0  0  0  0
   -0.2426    2.0117   -2.4218 H   0  0  0  0  0  0  0  0  0  0  0  0
    0.8941    0.6996   -2.0497 H   0  0  0  0  0  0  0  0  0  0  0  0
   -1.0568    0.0481   -2.6106 C   0  0  0  0  0  0  0  0  0  0  0  0
   -1.8636   -0.6662   -2.0372 O   0  0  0  0  0  0  0  0  0  0  0  0
   -0.9365   -0.0307   -3.9489 O   0  0  0  0  0  0  0  0  0  0  0  0
   -1.5669   -0.7008   -4.2188 H   0  0  0  0  0  0  0  0  0  0  0  0
    0.1871    0.1189    1.8122 C   0  0  0  0  0  0  0  0  0  0  0  0
    1.3541   -0.1171    2.1187 O   0  0  0  0  0  0  0  0  0  0  0  0
   -0.7126    0.5740    2.6926 N   0  0  0  0  0  0  0  0  0  0  0  0
   -1.6464    0.7663    2.3621 H   0  0  0  0  0  0  0  0  0  0  0  0
   -0.4191    0.8310    4.1010 C   0  0  0  0  0  0  0  0  0  0  0  0
    0.4022    1.5452    4.1828 H   0  0  0  0  0  0  0  0  0  0  0  0
   -1.2983    1.2366    4.6035 H   0  0  0  0  0  0  0  0  0  0  0  0
   -0.1204   -0.0980    4.5907 H   0  0  0  0  0  0  0  0  0  0  0  0
  5  6  2  0  0  0  0
  5  7  1  0  0  0  0
  2  3  1  0  0  0  0
  2  4  1  0  0  0  0
  2  5  1  0  0  0  0
  1  2  1  0  0  0  0
 21 22  2  0  0  0  0
 21 23  1  0  0  0  0
 19 20  1  0  0  0  0
 17 18  2  0  0  0  0
 17 19  1  0  0  0  0
 14 15  1  0  0  0  0
 14 16  1  0  0  0  0
 14 17  1  0  0  0  0
 11 12  1  0  0  0  0
 11 13  1  0  0  0  0
 11 14  1  0  0  0  0
  9 10  1  0  0  0  0
  9 11  1  0  0  0  0
  9 21  1  0  0  0  0
  7  8  1  0  0  0  0
  7  9  1  0  0  0  0
 25 26  1  0  0  0  0
 25 27  1  0  0  0  0
 25 28  1  0  0  0  0
 23 24  1  0  0  0  0
 23 25  1  0  0  0  0
M  END
$$$$
default_name
  -OEChem-02102213163D

 28 27  0     1  0  0  0  0  0999 V2000
   -3.2133   -3.5565    1.2809 H   0  0  0  0  0  0  0  0  0  0  0  0
   -3.1873   -2.5755    0.8089 C   0  0  0  0  0  0  0  0  0  0  0  0
   -3.8793   -1.9065    1.3169 H   0  0  0  0  0  0  0  0  0  0  0  0
   -3.4623   -2.6685   -0.2401 H   0  0  0  0  0  0  0  0  0  0  0  0
   -1.7863   -2.0195    0.9119 C   0  0  0  0  0  0  0  0  0  0  0  0
   -0.9073   -2.6615    1.4699 O   0  0  0  0  0  0  0  0  0  0  0  0
   -1.5803   -0.8195    0.3749 N   0  0  0  0  0  0  0  0  0  0  0  0
   -2.3603   -0.3345   -0.0451 H   0  0  0  0  0  0  0  0  0  0  0  0
   -0.2933   -0.1205    0.3719 C   0  0  1  0  0  0  0  0  0  0  0  0
    0.4439   -0.7485   -0.1303 H   0  0  0  0  0  0  0  0  0  0  0  0
   -0.4368    1.1924   -0.4246 C   0  0  0  0  0  0  0  0  0  0  0  0
   -1.4613    1.5498   -0.3077 H   0  0  0  0  0  0  0  0  0  0  0  0
    0.2344    1.9432   -0.0049 H   0  0  0  0  0  0  0  0  0  0  0  0
   -0.1307    1.0477   -1.9254 C   0  0  0  0  0  0  0  0  0  0  0  0
    0.0192    2.0315   -2.3703 H   0  0  0  0  0  0  0  0  0  0  0  0
    0.7767    0.4580   -2.0503 H   0  0  0  0  0  0  0  0  0  0  0  0
   -1.2570    0.3494   -2.6805 C   0  0  0  0  0  0  0  0  0  0  0  0
   -2.2350   -0.1643   -2.1614 O   0  0  0  0  0  0  0  0  0  0  0  0
   -1.1191    0.3075   -4.0188 O   0  0  0  0  0  0  0  0  0  0  0  0
   -1.8892   -0.1673   -4.3360 H   0  0  0  0  0  0  0  0  0  0  0  0
    0.1871    0.1189    1.8122 C   0  0  0  0  0  0  0  0  0  0  0  0
    1.3541   -0.1171    2.1187 O   0  0  0  0  0  0  0  0  0  0  0  0
   -0.7126    0.5740    2.6926 N   0  0  0  0  0  0  0  0  0  0  0  0
   -1.6464    0.7663    2.3621 H   0  0  0  0  0  0  0  0  0  0  0  0
   -0.4191    0.8310    4.1010 C   0  0  0  0  0  0  0  0  0  0  0  0
    0.4022    1.5452    4.1828 H   0  0  0  0  0  0  0  0  0  0  0  0
   -1.2983    1.2366    4.6035 H   0  0  0  0  0  0  0  0  0  0  0  0
   -0.1204   -0.0980    4.5907 H   0  0  0  0  0  0  0  0  0  0  0  0
  5  6  2  0  0  0  0
  5  7  1  0  0  0  0
  2  3  1  0  0  0  0
  2  4  1  0  0  0  0
  2  5  1  0  0  0  0
  1  2  1  0  0  0  0
 21 22  2  0  0  0  0
 21 23  1  0  0  0  0
 19 20  1  0  0  0  0
 17 18  2  0  0  0  0
 17 19  1  0  0  0  0
 14 15  1  0  0  0  0
 14 16  1  0  0  0  0
 14 17  1  0  0  0  0
 11 12  1  0  0  0  0
 11 13  1  0  0  0  0
 11 14  1  0  0  0  0
  9 10  1  0  0  0  0
  9 11  1  0  0  0  0
  9 21  1  0  0  0  0
  7  8  1  0  0  0  0
  7  9  1  0  0  0  0
 25 26  1  0  0  0  0
 25 27  1  0  0  0  0
 25 28  1  0  0  0  0
 23 24  1  0  0  0  0
 23 25  1  0  0  0  0
M  END
$$$$
default_name
  -OEChem-02102213163D

 28 27  0     1  0  0  0  0  0999 V2000
   -3.2133   -3.5565    1.2809 H   0  0  0  0  0  0  0  0  0  0  0  0
   -3.1873   -2.5755    0.8089 C   0  0  0  0  0  0  0  0  0  0  0  0
   -3.8793   -1.9065    1.3169 H   0  0  0  0  0  0  0  0  0  0  0  0
   -3.4623   -2.6685   -0.2401 H   0  0  0  0  0  0  0  0  0  0  0  0
   -1.7863   -2.0195    0.9119 C   0  0  0  0  0  0  0  0  0  0  0  0
   -0.9073   -2.6615    1.4699 O   0  0  0  0  0  0  0  0  0  0  0  0
   -1.5803   -0.8195    0.3749 N   0  0  0  0  0  0  0  0  0  0  0  0
   -2.3603   -0.3345   -0.0451 H   0  0  0  0  0  0  0  0  0  0  0  0
   -0.2933   -0.1205    0.3719 C   0  0  1  0  0  0  0  0  0  0  0  0
    0.4439   -0.7485   -0.1303 H   0  0  0  0  0  0  0  0  0  0  0  0
   -0.4368    1.1924   -0.4246 C   0  0  0  0  0  0  0  0  0  0  0  0
   -1.4613    1.5498   -0.3077 H   0  0  0  0  0  0  0  0  0  0  0  0
    0.2344    1.9432   -0.0049 H   0  0  0  0  0  0  0  0  0  0  0  0
   -0.1307    1.0477   -1.9254 C   0  0  0  0  0  0  0  0  0  0  0  0
    0.2758    1.9819   -2.3132 H   0  0  0  0  0  0  0  0  0  0  0  0
    0.6024    0.2543   -2.0662 H   0  0  0  0  0  0  0  0  0  0  0  0
   -1.3726    0.6946   -2.7374 C   0  0  0  0  0  0  0  0  0  0  0  0
   -2.4641    0.4207   -2.2645 O   0  0  0  0  0  0  0  0  0  0  0  0
   -1.2083    0.6840   -4.0733 O   0  0  0  0  0  0  0  0  0  0  0  0
   -2.0631    0.4354   -4.4295 H   0  0  0  0  0  0  0  0  0  0  0  0
    0.1871    0.1189    1.8122 C   0  0  0  0  0  0  0  0  0  0  0  0
    1.3541   -0.1171    2.1187 O   0  0  0  0  0  0  0  0  0  0  0  0
   -0.7126    0.5740    2.6926 N   0  0  0  0  0  0  0  0  0  0  0  0
   -1.6464    0.7663    2.3621 H   0  0  0  0  0  0  0  0  0  0  0  0
   -0.4191    0.8310    4.1010 C   0  0  0  0  0  0  0  0  0  0  0  0
    0.4022    1.5452    4.1828 H   0  0  0  0  0  0  0  0  0  0  0  0
   -1.2983    1.2366    4.6035 H   0  0  0  0  0  0  0  0  0  0  0  0
   -0.1204   -0.0980    4.5907 H   0  0  0  0  0  0  0  0  0  0  0  0
  5  6  2  0  0  0  0
  5  7  1  0  0  0  0
  2  3  1  0  0  0  0
  2  4  1  0  0  0  0
  2  5  1  0  0  0  0
  1  2  1  0  0  0  0
 21 22  2  0  0  0  0
 21 23  1  0  0  0  0
 19 20  1  0  0  0  0
 17 18  2  0  0  0  0
 17 19  1  0  0  0  0
 14 15  1  0  0  0  0
 14 16  1  0  0  0  0
 14 17  1  0  0  0  0
 11 12  1  0  0  0  0
 11 13  1  0  0  0  0
 11 14  1  0  0  0  0
  9 10  1  0  0  0  0
  9 11  1  0  0  0  0
  9 21  1  0  0  0  0
  7  8  1  0  0  0  0
  7  9  1  0  0  0  0
 25 26  1  0  0  0  0
 25 27  1  0  0  0  0
 25 28  1  0  0  0  0
 23 24  1  0  0  0  0
 23 25  1  0  0  0  0
M  END
$$$$
default_name
  -OEChem-02102213163D

 28 27  0     1  0  0  0  0  0999 V2000
   -3.2133   -3.5565    1.2809 H   0  0  0  0  0  0  0  0  0  0  0  0
   -3.1873   -2.5755    0.8089 C   0  0  0  0  0  0  0  0  0  0  0  0
   -3.8793   -1.9065    1.3169 H   0  0  0  0  0  0  0  0  0  0  0  0
   -3.4623   -2.6685   -0.2401 H   0  0  0  0  0  0  0  0  0  0  0  0
   -1.7863   -2.0195    0.9119 C   0  0  0  0  0  0  0  0  0  0  0  0
   -0.9073   -2.6615    1.4699 O   0  0  0  0  0  0  0  0  0  0  0  0
   -1.5803   -0.8195    0.3749 N   0  0  0  0  0  0  0  0  0  0  0  0
   -2.3603   -0.3345   -0.0451 H   0  0  0  0  0  0  0  0  0  0  0  0
   -0.2933   -0.1205    0.3719 C   0  0  1  0  0  0  0  0  0  0  0  0
    0.4439   -0.7485   -0.1303 H   0  0  0  0  0  0  0  0  0  0  0  0
   -0.4368    1.1924   -0.4246 C   0  0  0  0  0  0  0  0  0  0  0  0
   -1.4613    1.5498   -0.3077 H   0  0  0  0  0  0  0  0  0  0  0  0
    0.2344    1.9432   -0.0049 H   0  0  0  0  0  0  0  0  0  0  0  0
   -0.1307    1.0477   -1.9254 C   0  0  0  0  0  0  0  0  0  0  0  0
    0.5098    1.8662   -2.2543 H   0  0  0  0  0  0  0  0  0  0  0  0
    0.3829    0.1024   -2.0963 H   0  0  0  0  0  0  0  0  0  0  0  0
   -1.3958    1.0602   -2.7774 C   0  0  0  0  0  0  0  0  0  0  0  0
   -2.5351    1.0489   -2.3396 O   0  0  0  0  0  0  0  0  0  0  0  0
   -1.1982    1.0729   -4.1087 O   0  0  0  0  0  0  0  0  0  0  0  0
   -2.0765    1.0663   -4.4931 H   0  0  0  0  0  0  0  0  0  0  0  0
    0.1871    0.1189    1.8122 C   0  0  0  0  0  0  0  0  0  0  0  0
    1.3541   -0.1171    2.1187 O   0  0  0  0  0  0  0  0  0  0  0  0
   -0.7126    0.5740    2.6926 N   0  0  0  0  0  0  0  0  0  0  0  0
   -1.6464    0.7663    2.3621 H   0  0  0  0  0  0  0  0  0  0  0  0
   -0.4191    0.8310    4.1010 C   0  0  0  0  0  0  0  0  0  0  0  0
    0.4022    1.5452    4.1828 H   0  0  0  0  0  0  0  0  0  0  0  0
   -1.2983    1.2366    4.6035 H   0  0  0  0  0  0  0  0  0  0  0  0
   -0.1204   -0.0980    4.5907 H   0  0  0  0  0  0  0  0  0  0  0  0
  5  6  2  0  0  0  0
  5  7  1  0  0  0  0
  2  3  1  0  0  0  0
  2  4  1  0  0  0  0
  2  5  1  0  0  0  0
  1  2  1  0  0  0  0
 21 22  2  0  0  0  0
 21 23  1  0  0  0  0
 19 20  1  0  0  0  0
 17 18  2  0  0  0  0
 17 19  1  0  0  0  0
 14 15  1  0  0  0  0
 14 16  1  0  0  0  0
 14 17  1  0  0  0  0
 11 12  1  0  0  0  0
 11 13  1  0  0  0  0
 11 14  1  0  0  0  0
  9 10  1  0  0  0  0
  9 11  1  0  0  0  0
  9 21  1  0  0  0  0
  7  8  1  0  0  0  0
  7  9  1  0  0  0  0
 25 26  1  0  0  0  0
 25 27  1  0  0  0  0
 25 28  1  0  0  0  0
 23 24  1  0  0  0  0
 23 25  1  0  0  0  0
M  END
$$$$
default_name
  -OEChem-02102213163D

 28 27  0     1  0  0  0  0  0999 V2000
   -3.2133   -3.5565    1.2809 H   0  0  0  0  0  0  0  0  0  0  0  0
   -3.1873   -2.5755    0.8089 C   0  0  0  0  0  0  0  0  0  0  0  0
   -3.8793   -1.9065    1.3169 H   0  0  0  0  0  0  0  0  0  0  0  0
   -3.4623   -2.6685   -0.2401 H   0  0  0  0  0  0  0  0  0  0  0  0
   -1.7863   -2.0195    0.9119 C   0  0  0  0  0  0  0  0  0  0  0  0
   -0.9073   -2.6615    1.4699 O   0  0  0  0  0  0  0  0  0  0  0  0
   -1.5803   -0.8195    0.3749 N   0  0  0  0  0  0  0  0  0  0  0  0
   -2.3603   -0.3345   -0.0451 H   0  0  0  0  0  0  0  0  0  0  0  0
   -0.2933   -0.1205    0.3719 C   0  0  1  0  0  0  0  0  0  0  0  0
    0.4439   -0.7485   -0.1303 H   0  0  0  0  0  0  0  0  0  0  0  0
   -0.4368    1.1924   -0.4246 C   0  0  0  0  0  0  0  0  0  0  0  0
   -1.4613    1.5498   -0.3077 H   0  0  0  0  0  0  0  0  0  0  0  0
    0.2344    1.9432   -0.0049 H   0  0  0  0  0  0  0  0  0  0  0  0
   -0.1307    1.0477   -1.9254 C   0  0  0  0  0  0  0  0  0  0  0  0
    0.7051    1.6924   -2.1977 H   0  0  0  0  0  0  0  0  0  0  0  0
    0.1333    0.0126   -2.1386 H   0  0  0  0  0  0  0  0  0  0  0  0
   -1.3249    1.4212   -2.7977 C   0  0  0  0  0  0  0  0  0  0  0  0
   -2.4433    1.6775   -2.3815 O   0  0  0  0  0  0  0  0  0  0  0  0
   -1.0893    1.4478   -4.1226 O   0  0  0  0  0  0  0  0  0  0  0  0
   -1.9286    1.6824   -4.5224 H   0  0  0  0  0  0  0  0  0  0  0  0
    0.1871    0.1189    1.8122 C   0  0  0  0  0  0  0  0  0  0  0  0
    1.3541   -0.1171    2.1187 O   0  0  0  0  0  0  0  0  0  0  0  0
   -0.7126    0.5740    2.6926 N   0  0  0  0  0  0  0  0  0  0  0  0
   -1.6464    0.7663    2.3621 H   0  0  0  0  0  0  0  0  0  0  0  0
   -0.4191    0.8310    4.1010 C   0  0  0  0  0  0  0  0  0  0  0  0
    0.4022    1.5452    4.1828 H   0  0  0  0  0  0  0  0  0  0  0  0
   -1.2983    1.2366    4.6035 H   0  0  0  0  0  0  0  0  0  0  0  0
   -0.1204   -0.0980    4.5907 H   0  0  0  0  0  0  0  0  0  0  0  0
  5  6  2  0  0  0  0
  5  7  1  0  0  0  0
  2  3  1  0  0  0  0
  2  4  1  0  0  0  0
  2  5  1  0  0  0  0
  1  2  1  0  0  0  0
 21 22  2  0  0  0  0
 21 23  1  0  0  0  0
 19 20  1  0  0  0  0
 17 18  2  0  0  0  0
 17 19  1  0  0  0  0
 14 15  1  0  0  0  0
 14 16  1  0  0  0  0
 14 17  1  0  0  0  0
 11 12  1  0  0  0  0
 11 13  1  0  0  0  0
 11 14  1  0  0  0  0
  9 10  1  0  0  0  0
  9 11  1  0  0  0  0
  9 21  1  0  0  0  0
  7  8  1  0  0  0  0
  7  9  1  0  0  0  0
 25 26  1  0  0  0  0
 25 27  1  0  0  0  0
 25 28  1  0  0  0  0
 23 24  1  0  0  0  0
 23 25  1  0  0  0  0
M  END
$$$$
default_name
  -OEChem-02102213163D

 28 27  0     1  0  0  0  0  0999 V2000
   -3.2133   -3.5565    1.2809 H   0  0  0  0  0  0  0  0  0  0  0  0
   -3.1873   -2.5755    0.8089 C   0  0  0  0  0  0  0  0  0  0  0  0
   -3.8793   -1.9065    1.3169 H   0  0  0  0  0  0  0  0  0  0  0  0
   -3.4623   -2.6685   -0.2401 H   0  0  0  0  0  0  0  0  0  0  0  0
   -1.7863   -2.0195    0.9119 C   0  0  0  0  0  0  0  0  0  0  0  0
   -0.9073   -2.6615    1.4699 O   0  0  0  0  0  0  0  0  0  0  0  0
   -1.5803   -0.8195    0.3749 N   0  0  0  0  0  0  0  0  0  0  0  0
   -2.3603   -0.3345   -0.0451 H   0  0  0  0  0  0  0  0  0  0  0  0
   -0.2933   -0.1205    0.3719 C   0  0  1  0  0  0  0  0  0  0  0  0
    0.4439   -0.7485   -0.1303 H   0  0  0  0  0  0  0  0  0  0  0  0
   -0.4368    1.1924   -0.4246 C   0  0  0  0  0  0  0  0  0  0  0  0
   -1.4613    1.5498   -0.3077 H   0  0  0  0  0  0  0  0  0  0  0  0
    0.2344    1.9432   -0.0049 H   0  0  0  0  0  0  0  0  0  0  0  0
   -0.1307    1.0477   -1.9254 C   0  0  0  0  0  0  0  0  0  0  0  0
    0.8485    1.4722   -2.1472 H   0  0  0  0  0  0  0  0  0  0  0  0
   -0.1294   -0.0090   -2.1901 H   0  0  0  0  0  0  0  0  0  0  0  0
   -1.1647    1.7530   -2.7971 C   0  0  0  0  0  0  0  0  0  0  0  0
   -2.1949    2.2636   -2.3873 O   0  0  0  0  0  0  0  0  0  0  0  0
   -0.8891    1.7832   -4.1142 O   0  0  0  0  0  0  0  0  0  0  0  0
   -1.6296    2.2417   -4.5153 H   0  0  0  0  0  0  0  0  0  0  0  0
    0.1871    0.1189    1.8122 C   0  0  0  0  0  0  0  0  0  0  0  0
    1.3541   -0.1171    2.1187 O   0  0  0  0  0  0  0  0  0  0  0  0
   -0.7126    0.5740    2.6926 N   0  0  0  0  0  0  0  0  0  0  0  0
   -1.6464    0.7663    2.3621 H   0  0  0  0  0  0  0  0  0  0  0  0
   -0.4191    0.8310    4.1010 C   0  0  0  0  0  0  0  0  0  0  0  0
    0.4022    1.5452    4.1828 H   0  0  0  0  0  0  0  0  0  0  0  0
   -1.2983    1.2366    4.6035 H   0  0  0  0  0  0  0  0  0  0  0  0
   -0.1204   -0.0980    4.5907 H   0  0  0  0  0  0  0  0  0  0  0  0
  5  6  2  0  0  0  0
  5  7  1  0  0  0  0
  2  3  1  0  0  0  0
  2  4  1  0  0  0  0
  2  5  1  0  0  0  0
  1  2  1  0  0  0  0
 21 22  2  0  0  0  0
 21 23  1  0  0  0  0
 19 20  1  0  0  0  0
 17 18  2  0  0  0  0
 17 19  1  0  0  0  0
 14 15  1  0  0  0  0
 14 16  1  0  0  0  0
 14 17  1  0  0  0  0
 11 12  1  0  0  0  0
 11 13  1  0  0  0  0
 11 14  1  0  0  0  0
  9 10  1  0  0  0  0
  9 11  1  0  0  0  0
  9 21  1  0  0  0  0
  7  8  1  0  0  0  0
  7  9  1  0  0  0  0
 25 26  1  0  0  0  0
 25 27  1  0  0  0  0
 25 28  1  0  0  0  0
 23 24  1  0  0  0  0
 23 25  1  0  0  0  0
M  END
$$$$
default_name
  -OEChem-02102213163D

 28 27  0     1  0  0  0  0  0999 V2000
   -3.2133   -3.5565    1.2809 H   0  0  0  0  0  0  0  0  0  0  0  0
   -3.1873   -2.5755    0.8089 C   0  0  0  0  0  0  0  0  0  0  0  0
   -3.8793   -1.9065    1.3169 H   0  0  0  0  0  0  0  0  0  0  0  0
   -3.4623   -2.6685   -0.2401 H   0  0  0  0  0  0  0  0  0  0  0  0
   -1.7863   -2.0195    0.9119 C   0  0  0  0  0  0  0  0  0  0  0  0
   -0.9073   -2.6615    1.4699 O   0  0  0  0  0  0  0  0  0  0  0  0
   -1.5803   -0.8195    0.3749 N   0  0  0  0  0  0  0  0  0  0  0  0
   -2.3603   -0.3345   -0.0451 H   0  0  0  0  0  0  0  0  0  0  0  0
   -0.2933   -0.1205    0.3719 C   0  0  1  0  0  0  0  0  0  0  0  0
    0.4439   -0.7485   -0.1303 H   0  0  0  0  0  0  0  0  0  0  0  0
   -0.4368    1.1924   -0.4246 C   0  0  0  0  0  0  0  0  0  0  0  0
   -1.4613    1.5498   -0.3077 H   0  0  0  0  0  0  0  0  0  0  0  0
    0.2344    1.9432   -0.0049 H   0  0  0  0  0  0  0  0  0  0  0  0
   -0.1307    1.0477   -1.9254 C   0  0  0  0  0  0  0  0  0  0  0  0
    0.9303    1.2208   -2.1063 H   0  0  0  0  0  0  0  0  0  0  0  0
   -0.3874    0.0392   -2.2474 H   0  0  0  0  0  0  0  0  0  0  0  0
   -0.9263    2.0331   -2.7754 C   0  0  0  0  0  0  0  0  0  0  0  0
   -1.8068    2.7674   -2.3568 O   0  0  0  0  0  0  0  0  0  0  0  0
   -0.6113    2.0562   -4.0838 O   0  0  0  0  0  0  0  0  0  0  0  0
   -1.1996    2.7060   -4.4724 H   0  0  0  0  0  0  0  0  0  0  0  0
    0.1871    0.1189    1.8122 C   0  0  0  0  0  0  0  0  0  0  0  0
    1.3541   -0.1171    2.1187 O   0  0  0  0  0  0  0  0  0  0  0  0
   -0.7126    0.5740    2.6926 N   0  0  0  0  0  0  0  0  0  0  0  0
   -1.6464    0.7663    2.3621 H   0  0  0  0  0  0  0  0  0  0  0  0
   -0.4191    0.8310    4.1010 C   0  0  0  0  0  0  0  0  0  0  0  0
    0.4022    1.5452    4.1828 H   0  0  0  0  0  0  0  0  0  0  0  0
   -1.2983    1.2366    4.6035 H   0  0  0  0  0  0  0  0  0  0  0  0
   -0.1204   -0.0980    4.5907 H   0  0  0  0  0  0  0  0  0  0  0  0
  5  6  2  0  0  0  0
  5  7  1  0  0  0  0
  2  3  1  0  0  0  0
  2  4  1  0  0  0  0
  2  5  1  0  0  0  0
  1  2  1  0  0  0  0
 21 22  2  0  0  0  0
 21 23  1  0  0  0  0
 19 20  1  0  0  0  0
 17 18  2  0  0  0  0
 17 19  1  0  0  0  0
 14 15  1  0  0  0  0
 14 16  1  0  0  0  0
 14 17  1  0  0  0  0
 11 12  1  0  0  0  0
 11 13  1  0  0  0  0
 11 14  1  0  0  0  0
  9 10  1  0  0  0  0
  9 11  1  0  0  0  0
  9 21  1  0  0  0  0
  7  8  1  0  0  0  0
  7  9  1  0  0  0  0
 25 26  1  0  0  0  0
 25 27  1  0  0  0  0
 25 28  1  0  0  0  0
 23 24  1  0  0  0  0
 23 25  1  0  0  0  0
M  END
$$$$
default_name
  -OEChem-02102213163D

 28 27  0     1  0  0  0  0  0999 V2000
   -3.2133   -3.5565    1.2809 H   0  0  0  0  0  0  0  0  0  0  0  0
   -3.1873   -2.5755    0.8089 C   0  0  0  0  0  0  0  0  0  0  0  0
   -3.8793   -1.9065    1.3169 H   0  0  0  0  0  0  0  0  0  0  0  0
   -3.4623   -2.6685   -0.2401 H   0  0  0  0  0  0  0  0  0  0  0  0
   -1.7863   -2.0195    0.9119 C   0  0  0  0  0  0  0  0  0  0  0  0
   -0.9073   -2.6615    1.4699 O   0  0  0  0  0  0  0  0  0  0  0  0
   -1.5803   -0.8195    0.3749 N   0  0  0  0  0  0  0  0  0  0  0  0
   -2.3603   -0.3345   -0.0451 H   0  0  0  0  0  0  0  0  0  0  0  0
   -0.2933   -0.1205    0.3719 C   0  0  1  0  0  0  0  0  0  0  0  0
    0.4439   -0.7485   -0.1303 H   0  0  0  0  0  0  0  0  0  0  0  0
   -0.4368    1.1924   -0.4246 C   0  0  0  0  0  0  0  0  0  0  0  0
   -1.4613    1.5498   -0.3077 H   0  0  0  0  0  0  0  0  0  0  0  0
    0.2344    1.9432   -0.0049 H   0  0  0  0  0  0  0  0  0  0  0  0
   -0.1307    1.0477   -1.9254 C   0  0  0  0  0  0  0  0  0  0  0  0
    0.9447    0.9552   -2.0778 H   0  0  0  0  0  0  0  0  0  0  0  0
   -0.6230    0.1538   -2.3065 H   0  0  0  0  0  0  0  0  0  0  0  0
   -0.6258    2.2423   -2.7343 C   0  0  0  0  0  0  0  0  0  0  0  0
   -1.3056    3.1544   -2.2918 O   0  0  0  0  0  0  0  0  0  0  0  0
   -0.2748    2.2482   -4.0337 O   0  0  0  0  0  0  0  0  0  0  0  0
   -0.6682    3.0438   -4.3966 H   0  0  0  0  0  0  0  0  0  0  0  0
    0.1871    0.1189    1.8122 C   0  0  0  0  0  0  0  0  0  0  0  0
    1.3541   -0.1171    2.1187 O   0  0  0  0  0  0  0  0  0  0  0  0
   -0.7126    0.5740    2.6926 N   0  0  0  0  0  0  0  0  0  0  0  0
   -1.6464    0.7663    2.3621 H   0  0  0  0  0  0  0  0  0  0  0  0
   -0.4191    0.8310    4.1010 C   0  0  0  0  0  0  0  0  0  0  0  0
    0.4022    1.5452    4.1828 H   0  0  0  0  0  0  0  0  0  0  0  0
   -1.2983    1.2366    4.6035 H   0  0  0  0  0  0  0  0  0  0  0  0
   -0.1204   -0.0980    4.5907 H   0  0  0  0  0  0  0  0  0  0  0  0
  5  6  2  0  0  0  0
  5  7  1  0  0  0  0
  2  3  1  0  0  0  0
  2  4  1  0  0  0  0
  2  5  1  0  0  0  0
  1  2  1  0  0  0  0
 21 22  2  0  0  0  0
 21 23  1  0  0  0  0
 19 20  1  0  0  0  0
 17 18  2  0  0  0  0
 17 19  1  0  0  0  0
 14 15  1  0  0  0  0
 14 16  1  0  0  0  0
 14 17  1  0  0  0  0
 11 12  1  0  0  0  0
 11 13  1  0  0  0  0
 11 14  1  0  0  0  0
  9 10  1  0  0  0  0
  9 11  1  0  0  0  0
  9 21  1  0  0  0  0
  7  8  1  0  0  0  0
  7  9  1  0  0  0  0
 25 26  1  0  0  0  0
 25 27  1  0  0  0  0
 25 28  1  0  0  0  0
 23 24  1  0  0  0  0
 23 25  1  0  0  0  0
M  END
$$$$
default_name
  -OEChem-02102213163D

 28 27  0     1  0  0  0  0  0999 V2000
   -3.2133   -3.5565    1.2809 H   0  0  0  0  0  0  0  0  0  0  0  0
   -3.1873   -2.5755    0.8089 C   0  0  0  0  0  0  0  0  0  0  0  0
   -3.8793   -1.9065    1.3169 H   0  0  0  0  0  0  0  0  0  0  0  0
   -3.4623   -2.6685   -0.2401 H   0  0  0  0  0  0  0  0  0  0  0  0
   -1.7863   -2.0195    0.9119 C   0  0  0  0  0  0  0  0  0  0  0  0
   -0.9073   -2.6615    1.4699 O   0  0  0  0  0  0  0  0  0  0  0  0
   -1.5803   -0.8195    0.3749 N   0  0  0  0  0  0  0  0  0  0  0  0
   -2.3603   -0.3345   -0.0451 H   0  0  0  0  0  0  0  0  0  0  0  0
   -0.2933   -0.1205    0.3719 C   0  0  1  0  0  0  0  0  0  0  0  0
    0.4439   -0.7485   -0.1303 H   0  0  0  0  0  0  0  0  0  0  0  0
   -0.4368    1.1924   -0.4246 C   0  0  0  0  0  0  0  0  0  0  0  0
   -1.3540    1.6872   -0.1005 H   0  0  0  0  0  0  0  0  0  0  0  0
    0.4032    1.8485   -0.1915 H   0  0  0  0  0  0  0  0  0  0  0  0
   -0.4931    0.9937   -1.9492 C   0  0  0  0  0  0  0  0  0  0  0  0
    0.4170    0.5022   -2.2934 H   0  0  0  0  0  0  0  0  0  0  0  0
   -1.3509    0.3698   -2.1973 H   0  0  0  0  0  0  0  0  0  0  0  0
   -0.6349    2.3140   -2.6996 C   0  0  0  0  0  0  0  0  0  0  0  0
   -0.8200    3.4009   -2.1758 O   0  0  0  0  0  0  0  0  0  0  0  0
   -0.5557    2.2302   -4.0406 O   0  0  0  0  0  0  0  0  0  0  0  0
   -0.6753    3.1278   -4.3559 H   0  0  0  0  0  0  0  0  0  0  0  0
    0.1871    0.1189    1.8122 C   0  0  0  0  0  0  0  0  0  0  0  0
    1.3541   -0.1171    2.1187 O   0  0  0  0  0  0  0  0  0  0  0  0
   -0.7126    0.5740    2.6926 N   0  0  0  0  0  0  0  0  0  0  0  0
   -1.6464    0.7663    2.3621 H   0  0  0  0  0  0  0  0  0  0  0  0
   -0.4191    0.8310    4.1010 C   0  0  0  0  0  0  0  0  0  0  0  0
    0.4022    1.5452    4.1828 H   0  0  0  0  0  0  0  0  0  0  0  0
   -1.2983    1.2366    4.6035 H   0  0  0  0  0  0  0  0  0  0  0  0
   -0.1204   -0.0980    4.5907 H   0  0  0  0  0  0  0  0  0  0  0  0
  5  6  2  0  0  0  0
  5  7  1  0  0  0  0
  2  3  1  0  0  0  0
  2  4  1  0  0  0  0
  2  5  1  0  0  0  0
  1  2  1  0  0  0  0
 21 22  2  0  0  0  0
 21 23  1  0  0  0  0
 19 20  1  0  0  0  0
 17 18  2  0  0  0  0
 17 19  1  0  0  0  0
 14 15  1  0  0  0  0
 14 16  1  0  0  0  0
 14 17  1  0  0  0  0
 11 12  1  0  0  0  0
 11 13  1  0  0  0  0
 11 14  1  0  0  0  0
  9 10  1  0  0  0  0
  9 11  1  0  0  0  0
  9 21  1  0  0  0  0
  7  8  1  0  0  0  0
  7  9  1  0  0  0  0
 25 26  1  0  0  0  0
 25 27  1  0  0  0  0
 25 28  1  0  0  0  0
 23 24  1  0  0  0  0
 23 25  1  0  0  0  0
M  END
$$$$
default_name
  -OEChem-02102213163D

 28 27  0     1  0  0  0  0  0999 V2000
   -3.2133   -3.5565    1.2809 H   0  0  0  0  0  0  0  0  0  0  0  0
   -3.1873   -2.5755    0.8089 C   0  0  0  0  0  0  0  0  0  0  0  0
   -3.8793   -1.9065    1.3169 H   0  0  0  0  0  0  0  0  0  0  0  0
   -3.4623   -2.6685   -0.2401 H   0  0  0  0  0  0  0  0  0  0  0  0
   -1.7863   -2.0195    0.9119 C   0  0  0  0  0  0  0  0  0  0  0  0
   -0.9073   -2.6615    1.4699 O   0  0  0  0  0  0  0  0  0  0  0  0
   -1.5803   -0.8195    0.3749 N   0  0  0  0  0  0  0  0  0  0  0  0
   -2.3603   -0.3345   -0.0451 H   0  0  0  0  0  0  0  0  0  0  0  0
   -0.2933   -0.1205    0.3719 C   0  0  1  0  0  0  0  0  0  0  0  0
    0.4439   -0.7485   -0.1303 H   0  0  0  0  0  0  0  0  0  0  0  0
   -0.4368    1.1924   -0.4246 C   0  0  0  0  0  0  0  0  0  0  0  0
   -1.3540    1.6872   -0.1005 H   0  0  0  0  0  0  0  0  0  0  0  0
    0.4032    1.8485   -0.1915 H   0  0  0  0  0  0  0  0  0  0  0  0
   -0.4931    0.9937   -1.9492 C   0  0  0  0  0  0  0  0  0  0  0  0
    0.2710    0.2806   -2.2591 H   0  0  0  0  0  0  0  0  0  0  0  0
   -1.4739    0.6071   -2.2237 H   0  0  0  0  0  0  0  0  0  0  0  0
   -0.2671    2.2958   -2.7108 C   0  0  0  0  0  0  0  0  0  0  0  0
   -0.1838    3.4009   -2.1993 O   0  0  0  0  0  0  0  0  0  0  0  0
   -0.1689    2.1759   -4.0478 O   0  0  0  0  0  0  0  0  0  0  0  0
   -0.0439    3.0697   -4.3716 H   0  0  0  0  0  0  0  0  0  0  0  0
    0.1871    0.1189    1.8122 C   0  0  0  0  0  0  0  0  0  0  0  0
    1.3541   -0.1171    2.1187 O   0  0  0  0  0  0  0  0  0  0  0  0
   -0.7126    0.5740    2.6926 N   0  0  0  0  0  0  0  0  0  0  0  0
   -1.6464    0.7663    2.3621 H   0  0  0  0  0  0  0  0  0  0  0  0
   -0.4191    0.8310    4.1010 C   0  0  0  0  0  0  0  0  0  0  0  0
    0.4022    1.5452    4.1828 H   0  0  0  0  0  0  0  0  0  0  0  0
   -1.2983    1.2366    4.6035 H   0  0  0  0  0  0  0  0  0  0  0  0
   -0.1204   -0.0980    4.5907 H   0  0  0  0  0  0  0  0  0  0  0  0
  5  6  2  0  0  0  0
  5  7  1  0  0  0  0
  2  3  1  0  0  0  0
  2  4  1  0  0  0  0
  2  5  1  0  0  0  0
  1  2  1  0  0  0  0
 21 22  2  0  0  0  0
 21 23  1  0  0  0  0
 19 20  1  0  0  0  0
 17 18  2  0  0  0  0
 17 19  1  0  0  0  0
 14 15  1  0  0  0  0
 14 16  1  0  0  0  0
 14 17  1  0  0  0  0
 11 12  1  0  0  0  0
 11 13  1  0  0  0  0
 11 14  1  0  0  0  0
  9 10  1  0  0  0  0
  9 11  1  0  0  0  0
  9 21  1  0  0  0  0
  7  8  1  0  0  0  0
  7  9  1  0  0  0  0
 25 26  1  0  0  0  0
 25 27  1  0  0  0  0
 25 28  1  0  0  0  0
 23 24  1  0  0  0  0
 23 25  1  0  0  0  0
M  END
$$$$
default_name
  -OEChem-02102213163D

 28 27  0     1  0  0  0  0  0999 V2000
   -3.2133   -3.5565    1.2809 H   0  0  0  0  0  0  0  0  0  0  0  0
   -3.1873   -2.5755    0.8089 C   0  0  0  0  0  0  0  0  0  0  0  0
   -3.8793   -1.9065    1.3169 H   0  0  0  0  0  0  0  0  0  0  0  0
   -3.4623   -2.6685   -0.2401 H   0  0  0  0  0  0  0  0  0  0  0  0
   -1.7863   -2.0195    0.9119 C   0  0  0  0  0  0  0  0  0  0  0  0
   -0.9073   -2.6615    1.4699 O   0  0  0  0  0  0  0  0  0  0  0  0
   -1.5803   -0.8195    0.3749 N   0  0  0  0  0  0  0  0  0  0  0  0
   -2.3603   -0.3345   -0.0451 H   0  0  0  0  0  0  0  0  0  0  0  0
   -0.2933   -0.1205    0.3719 C   0  0  1  0  0  0  0  0  0  0  0  0
    0.4439   -0.7485   -0.1303 H   0  0  0  0  0  0  0  0  0  0  0  0
   -0.4368    1.1924   -0.4246 C   0  0  0  0  0  0  0  0  0  0  0  0
   -1.3540    1.6872   -0.1005 H   0  0  0  0  0  0  0  0  0  0  0  0
    0.4032    1.8485   -0.1915 H   0  0  0  0  0  0  0  0  0  0  0  0
   -0.4931    0.9937   -1.9492 C   0  0  0  0  0  0  0  0  0  0  0  0
    0.0719    0.1044   -2.2288 H   0  0  0  0  0  0  0  0  0  0  0  0
   -1.5308    0.8677   -2.2556 H   0  0  0  0  0  0  0  0  0  0  0  0
    0.0839    2.1837   -2.7091 C   0  0  0  0  0  0  0  0  0  0  0  0
    0.4315    3.2375   -2.2007 O   0  0  0  0  0  0  0  0  0  0  0  0
    0.1911    2.0242   -4.0413 O   0  0  0  0  0  0  0  0  0  0  0  0
    0.5516    2.8515   -4.3652 H   0  0  0  0  0  0  0  0  0  0  0  0
    0.1871    0.1189    1.8122 C   0  0  0  0  0  0  0  0  0  0  0  0
    1.3541   -0.1171    2.1187 O   0  0  0  0  0  0  0  0  0  0  0  0
   -0.7126    0.5740    2.6926 N   0  0  0  0  0  0  0  0  0  0  0  0
   -1.6464    0.7663    2.3621 H   0  0  0  0  0  0  0  0  0  0  0  0
   -0.4191    0.8310    4.1010 C   0  0  0  0  0  0  0  0  0  0  0  0
    0.4022    1.5452    4.1828 H   0  0  0  0  0  0  0  0  0  0  0  0
   -1.2983    1.2366    4.6035 H   0  0  0  0  0  0  0  0  0  0  0  0
   -0.1204   -0.0980    4.5907 H   0  0  0  0  0  0  0  0  0  0  0  0
  5  6  2  0  0  0  0
  5  7  1  0  0  0  0
  2  3  1  0  0  0  0
  2  4  1  0  0  0  0
  2  5  1  0  0  0  0
  1  2  1  0  0  0  0
 21 22  2  0  0  0  0
 21 23  1  0  0  0  0
 19 20  1  0  0  0  0
 17 18  2  0  0  0  0
 17 19  1  0  0  0  0
 14 15  1  0  0  0  0
 14 16  1  0  0  0  0
 14 17  1  0  0  0  0
 11 12  1  0  0  0  0
 11 13  1  0  0  0  0
 11 14  1  0  0  0  0
  9 10  1  0  0  0  0
  9 11  1  0  0  0  0
  9 21  1  0  0  0  0
  7  8  1  0  0  0  0
  7  9  1  0  0  0  0
 25 26  1  0  0  0  0
 25 27  1  0  0  0  0
 25 28  1  0  0  0  0
 23 24  1  0  0  0  0
 23 25  1  0  0  0  0
M  END
$$$$
default_name
  -OEChem-02102213163D

 28 27  0     1  0  0  0  0  0999 V2000
   -3.2133   -3.5565    1.2809 H   0  0  0  0  0  0  0  0  0  0  0  0
   -3.1873   -2.5755    0.8089 C   0  0  0  0  0  0  0  0  0  0  0  0
   -3.8793   -1.9065    1.3169 H   0  0  0  0  0  0  0  0  0  0  0  0
   -3.4623   -2.6685   -0.2401 H   0  0  0  0  0  0  0  0  0  0  0  0
   -1.7863   -2.0195    0.9119 C   0  0  0  0  0  0  0  0  0  0  0  0
   -0.9073   -2.6615    1.4699 O   0  0  0  0  0  0  0  0  0  0  0  0
   -1.5803   -0.8195    0.3749 N   0  0  0  0  0  0  0  0  0  0  0  0
   -2.3603   -0.3345   -0.0451 H   0  0  0  0  0  0  0  0  0  0  0  0
   -0.2933   -0.1205    0.3719 C   0  0  1  0  0  0  0  0  0  0  0  0
    0.4439   -0.7485   -0.1303 H   0  0  0  0  0  0  0  0  0  0  0  0
   -0.4368    1.1924   -0.4246 C   0  0  0  0  0  0  0  0  0  0  0  0
   -1.3540    1.6872   -0.1005 H   0  0  0  0  0  0  0  0  0  0  0  0
    0.4032    1.8485   -0.1915 H   0  0  0  0  0  0  0  0  0  0  0  0
   -0.4931    0.9937   -1.9492 C   0  0  0  0  0  0  0  0  0  0  0  0
   -0.1665   -0.0145   -2.2045 H   0  0  0  0  0  0  0  0  0  0  0  0
   -1.5180    1.1337   -2.2907 H   0  0  0  0  0  0  0  0  0  0  0  0
    0.3941    1.9854   -2.6947 C   0  0  0  0  0  0  0  0  0  0  0  0
    0.9840    2.9218   -2.1800 O   0  0  0  0  0  0  0  0  0  0  0  0
    0.4996    1.7854   -4.0216 O   0  0  0  0  0  0  0  0  0  0  0  0
    1.0706    2.4880   -4.3370 H   0  0  0  0  0  0  0  0  0  0  0  0
    0.1871    0.1189    1.8122 C   0  0  0  0  0  0  0  0  0  0  0  0
    1.3541   -0.1171    2.1187 O   0  0  0  0  0  0  0  0  0  0  0  0
   -0.7126    0.5740    2.6926 N   0  0  0  0  0  0  0  0  0  0  0  0
   -1.6464    0.7663    2.3621 H   0  0  0  0  0  0  0  0  0  0  0  0
   -0.4191    0.8310    4.1010 C   0  0  0  0  0  0  0  0  0  0  0  0
    0.4022    1.5452    4.1828 H   0  0  0  0  0  0  0  0  0  0  0  0
   -1.2983    1.2366    4.6035 H   0  0  0  0  0  0  0  0  0  0  0  0
   -0.1204   -0.0980    4.5907 H   0  0  0  0  0  0  0  0  0  0  0  0
  5  6  2  0  0  0  0
  5  7  1  0  0  0  0
  2  3  1  0  0  0  0
  2  4  1  0  0  0  0
  2  5  1  0  0  0  0
  1  2  1  0  0  0  0
 21 22  2  0  0  0  0
 21 23  1  0  0  0  0
 19 20  1  0  0  0  0
 17 18  2  0  0  0  0
 17 19  1  0  0  0  0
 14 15  1  0  0  0  0
 14 16  1  0  0  0  0
 14 17  1  0  0  0  0
 11 12  1  0  0  0  0
 11 13  1  0  0  0  0
 11 14  1  0  0  0  0
  9 10  1  0  0  0  0
  9 11  1  0  0  0  0
  9 21  1  0  0  0  0
  7  8  1  0  0  0  0
  7  9  1  0  0  0  0
 25 26  1  0  0  0  0
 25 27  1  0  0  0  0
 25 28  1  0  0  0  0
 23 24  1  0  0  0  0
 23 25  1  0  0  0  0
M  END
$$$$
default_name
  -OEChem-02102213163D

 28 27  0     1  0  0  0  0  0999 V2000
   -3.2133   -3.5565    1.2809 H   0  0  0  0  0  0  0  0  0  0  0  0
   -3.1873   -2.5755    0.8089 C   0  0  0  0  0  0  0  0  0  0  0  0
   -3.8793   -1.9065    1.3169 H   0  0  0  0  0  0  0  0  0  0  0  0
   -3.4623   -2.6685   -0.2401 H   0  0  0  0  0  0  0  0  0  0  0  0
   -1.7863   -2.0195    0.9119 C   0  0  0  0  0  0  0  0  0  0  0  0
   -0.9073   -2.6615    1.4699 O   0  0  0  0  0  0  0  0  0  0  0  0
   -1.5803   -0.8195    0.3749 N   0  0  0  0  0  0  0  0  0  0  0  0
   -2.3603   -0.3345   -0.0451 H   0  0  0  0  0  0  0  0  0  0  0  0
   -0.2933   -0.1205    0.3719 C   0  0  1  0  0  0  0  0  0  0  0  0
    0.4439   -0.7485   -0.1303 H   0  0  0  0  0  0  0  0  0  0  0  0
   -0.4368    1.1924   -0.4246 C   0  0  0  0  0  0  0  0  0  0  0  0
   -1.3540    1.6872   -0.1005 H   0  0  0  0  0  0  0  0  0  0  0  0
    0.4032    1.8485   -0.1915 H   0  0  0  0  0  0  0  0  0  0  0  0
   -0.4931    0.9937   -1.9492 C   0  0  0  0  0  0  0  0  0  0  0  0
   -0.4281   -0.0679   -2.1879 H   0  0  0  0  0  0  0  0  0  0  0  0
   -1.4362    1.3870   -2.3268 H   0  0  0  0  0  0  0  0  0  0  0  0
    0.6425    1.7145   -2.6686 C   0  0  0  0  0  0  0  0  0  0  0  0
    1.4360    2.4755   -2.1385 O   0  0  0  0  0  0  0  0  0  0  0  0
    0.7357    1.4757   -3.9899 O   0  0  0  0  0  0  0  0  0  0  0  0
    1.4778    2.0041   -4.2889 H   0  0  0  0  0  0  0  0  0  0  0  0
    0.1871    0.1189    1.8122 C   0  0  0  0  0  0  0  0  0  0  0  0
    1.3541   -0.1171    2.1187 O   0  0  0  0  0  0  0  0  0  0  0  0
   -0.7126    0.5740    2.6926 N   0  0  0  0  0  0  0  0  0  0  0  0
   -1.6464    0.7663    2.3621 H   0  0  0  0  0  0  0  0  0  0  0  0
   -0.4191    0.8310    4.1010 C   0  0  0  0  0  0  0  0  0  0  0  0
    0.4022    1.5452    4.1828 H   0  0  0  0  0  0  0  0  0  0  0  0
   -1.2983    1.2366    4.6035 H   0  0  0  0  0  0  0  0  0  0  0  0
   -0.1204   -0.0980    4.5907 H   0  0  0  0  0  0  0  0  0  0  0  0
  5  6  2  0  0  0  0
  5  7  1  0  0  0  0
  2  3  1  0  0  0  0
  2  4  1  0  0  0  0
  2  5  1  0  0  0  0
  1  2  1  0  0  0  0
 21 22  2  0  0  0  0
 21 23  1  0  0  0  0
 19 20  1  0  0  0  0
 17 18  2  0  0  0  0
 17 19  1  0  0  0  0
 14 15  1  0  0  0  0
 14 16  1  0  0  0  0
 14 17  1  0  0  0  0
 11 12  1  0  0  0  0
 11 13  1  0  0  0  0
 11 14  1  0  0  0  0
  9 10  1  0  0  0  0
  9 11  1  0  0  0  0
  9 21  1  0  0  0  0
  7  8  1  0  0  0  0
  7  9  1  0  0  0  0
 25 26  1  0  0  0  0
 25 27  1  0  0  0  0
 25 28  1  0  0  0  0
 23 24  1  0  0  0  0
 23 25  1  0  0  0  0
M  END
$$$$
default_name
  -OEChem-02102213163D

 28 27  0     1  0  0  0  0  0999 V2000
   -3.2133   -3.5565    1.2809 H   0  0  0  0  0  0  0  0  0  0  0  0
   -3.1873   -2.5755    0.8089 C   0  0  0  0  0  0  0  0  0  0  0  0
   -3.8793   -1.9065    1.3169 H   0  0  0  0  0  0  0  0  0  0  0  0
   -3.4623   -2.6685   -0.2401 H   0  0  0  0  0  0  0  0  0  0  0  0
   -1.7863   -2.0195    0.9119 C   0  0  0  0  0  0  0  0  0  0  0  0
   -0.9073   -2.6615    1.4699 O   0  0  0  0  0  0  0  0  0  0  0  0
   -1.5803   -0.8195    0.3749 N   0  0  0  0  0  0  0  0  0  0  0  0
   -2.3603   -0.3345   -0.0451 H   0  0  0  0  0  0  0  0  0  0  0  0
   -0.2933   -0.1205    0.3719 C   0  0  1  0  0  0  0  0  0  0  0  0
    0.4439   -0.7485   -0.1303 H   0  0  0  0  0  0  0  0  0  0  0  0
   -0.4368    1.1924   -0.4246 C   0  0  0  0  0  0  0  0  0  0  0  0
   -1.3540    1.6872   -0.1005 H   0  0  0  0  0  0  0  0  0  0  0  0
    0.4032    1.8485   -0.1915 H   0  0  0  0  0  0  0  0  0  0  0  0
   -0.4931    0.9937   -1.9492 C   0  0  0  0  0  0  0  0  0  0  0  0
   -0.6951   -0.0523   -2.1800 H   0  0  0  0  0  0  0  0  0  0  0  0
   -1.2910    1.6103   -2.3612 H   0  0  0  0  0  0  0  0  0  0  0  0
    0.8120    1.3893   -2.6325 C   0  0  0  0  0  0  0  0  0  0  0  0
    1.7568    1.9287   -2.0790 O   0  0  0  0  0  0  0  0  0  0  0  0
    0.8833    1.1164   -3.9485 O   0  0  0  0  0  0  0  0  0  0  0  0
    1.7454    1.4328   -4.2243 H   0  0  0  0  0  0  0  0  0  0  0  0
    0.1871    0.1189    1.8122 C   0  0  0  0  0  0  0  0  0  0  0  0
    1.3541   -0.1171    2.1187 O   0  0  0  0  0  0  0  0  0  0  0  0
   -0.7126    0.5740    2.6926 N   0  0  0  0  0  0  0  0  0  0  0  0
   -1.6464    0.7663    2.3621 H   0  0  0  0  0  0  0  0  0  0  0  0
   -0.4191    0.8310    4.1010 C   0  0  0  0  0  0  0  0  0  0  0  0
    0.4022    1.5452    4.1828 H   0  0  0  0  0  0  0  0  0  0  0  0
   -1.2983    1.2366    4.6035 H   0  0  0  0  0  0  0  0  0  0  0  0
   -0.1204   -0.0980    4.5907 H   0  0  0  0  0  0  0  0  0  0  0  0
  5  6  2  0  0  0  0
  5  7  1  0  0  0  0
  2  3  1  0  0  0  0
  2  4  1  0  0  0  0
  2  5  1  0  0  0  0
  1  2  1  0  0  0  0
 21 22  2  0  0  0  0
 21 23  1  0  0  0  0
 19 20  1  0  0  0  0
 17 18  2  0  0  0  0
 17 19  1  0  0  0  0
 14 15  1  0  0  0  0
 14 16  1  0  0  0  0
 14 17  1  0  0  0  0
 11 12  1  0  0  0  0
 11 13  1  0  0  0  0
 11 14  1  0  0  0  0
  9 10  1  0  0  0  0
  9 11  1  0  0  0  0
  9 21  1  0  0  0  0
  7  8  1  0  0  0  0
  7  9  1  0  0  0  0
 25 26  1  0  0  0  0
 25 27  1  0  0  0  0
 25 28  1  0  0  0  0
 23 24  1  0  0  0  0
 23 25  1  0  0  0  0
M  END
$$$$
default_name
  -OEChem-02102213163D

 28 27  0     1  0  0  0  0  0999 V2000
   -3.2133   -3.5565    1.2809 H   0  0  0  0  0  0  0  0  0  0  0  0
   -3.1873   -2.5755    0.8089 C   0  0  0  0  0  0  0  0  0  0  0  0
   -3.8793   -1.9065    1.3169 H   0  0  0  0  0  0  0  0  0  0  0  0
   -3.4623   -2.6685   -0.2401 H   0  0  0  0  0  0  0  0  0  0  0  0
   -1.7863   -2.0195    0.9119 C   0  0  0  0  0  0  0  0  0  0  0  0
   -0.9073   -2.6615    1.4699 O   0  0  0  0  0  0  0  0  0  0  0  0
   -1.5803   -0.8195    0.3749 N   0  0  0  0  0  0  0  0  0  0  0  0
   -2.3603   -0.3345   -0.0451 H   0  0  0  0  0  0  0  0  0  0  0  0
   -0.2933   -0.1205    0.3719 C   0  0  1  0  0  0  0  0  0  0  0  0
    0.4439   -0.7485   -0.1303 H   0  0  0  0  0  0  0  0  0  0  0  0
   -0.4368    1.1924   -0.4246 C   0  0  0  0  0  0  0  0  0  0  0  0
   -1.3540    1.6872   -0.1005 H   0  0  0  0  0  0  0  0  0  0  0  0
    0.4032    1.8485   -0.1915 H   0  0  0  0  0  0  0  0  0  0  0  0
   -0.4931    0.9937   -1.9492 C   0  0  0  0  0  0  0  0  0  0  0  0
   -0.9492    0.0313   -2.1816 H   0  0  0  0  0  0  0  0  0  0  0  0
   -1.0924    1.7885   -2.3918 H   0  0  0  0  0  0  0  0  0  0  0  0
    0.8911    1.0321   -2.5888 C   0  0  0  0  0  0  0  0  0  0  0  0
    1.9243    1.3189   -2.0057 O   0  0  0  0  0  0  0  0  0  0  0  0
    0.9324    0.7318   -3.9002 O   0  0  0  0  0  0  0  0  0  0  0  0
    1.8552    0.8128   -4.1476 H   0  0  0  0  0  0  0  0  0  0  0  0
    0.1871    0.1189    1.8122 C   0  0  0  0  0  0  0  0  0  0  0  0
    1.3541   -0.1171    2.1187 O   0  0  0  0  0  0  0  0  0  0  0  0
   -0.7126    0.5740    2.6926 N   0  0  0  0  0  0  0  0  0  0  0  0
   -1.6464    0.7663    2.3621 H   0  0  0  0  0  0  0  0  0  0  0  0
   -0.4191    0.8310    4.1010 C   0  0  0  0  0  0  0  0  0  0  0  0
    0.4022    1.5452    4.1828 H   0  0  0  0  0  0  0  0  0  0  0  0
   -1.2983    1.2366    4.6035 H   0  0  0  0  0  0  0  0  0  0  0  0
   -0.1204   -0.0980    4.5907 H   0  0  0  0  0  0  0  0  0  0  0  0
  5  6  2  0  0  0  0
  5  7  1  0  0  0  0
  2  3  1  0  0  0  0
  2  4  1  0  0  0  0
  2  5  1  0  0  0  0
  1  2  1  0  0  0  0
 21 22  2  0  0  0  0
 21 23  1  0  0  0  0
 19 20  1  0  0  0  0
 17 18  2  0  0  0  0
 17 19  1  0  0  0  0
 14 15  1  0  0  0  0
 14 16  1  0  0  0  0
 14 17  1  0  0  0  0
 11 12  1  0  0  0  0
 11 13  1  0  0  0  0
 11 14  1  0  0  0  0
  9 10  1  0  0  0  0
  9 11  1  0  0  0  0
  9 21  1  0  0  0  0
  7  8  1  0  0  0  0
  7  9  1  0  0  0  0
 25 26  1  0  0  0  0
 25 27  1  0  0  0  0
 25 28  1  0  0  0  0
 23 24  1  0  0  0  0
 23 25  1  0  0  0  0
M  END
$$$$
default_name
  -OEChem-02102213163D

 28 27  0     1  0  0  0  0  0999 V2000
   -3.2133   -3.5565    1.2809 H   0  0  0  0  0  0  0  0  0  0  0  0
   -3.1873   -2.5755    0.8089 C   0  0  0  0  0  0  0  0  0  0  0  0
   -3.8793   -1.9065    1.3169 H   0  0  0  0  0  0  0  0  0  0  0  0
   -3.4623   -2.6685   -0.2401 H   0  0  0  0  0  0  0  0  0  0  0  0
   -1.7863   -2.0195    0.9119 C   0  0  0  0  0  0  0  0  0  0  0  0
   -0.9073   -2.6615    1.4699 O   0  0  0  0  0  0  0  0  0  0  0  0
   -1.5803   -0.8195    0.3749 N   0  0  0  0  0  0  0  0  0  0  0  0
   -2.3603   -0.3345   -0.0451 H   0  0  0  0  0  0  0  0  0  0  0  0
   -0.2933   -0.1205    0.3719 C   0  0  1  0  0  0  0  0  0  0  0  0
    0.4439   -0.7485   -0.1303 H   0  0  0  0  0  0  0  0  0  0  0  0
   -0.4368    1.1924   -0.4246 C   0  0  0  0  0  0  0  0  0  0  0  0
   -1.3540    1.6872   -0.1005 H   0  0  0  0  0  0  0  0  0  0  0  0
    0.4032    1.8485   -0.1915 H   0  0  0  0  0  0  0  0  0  0  0  0
   -0.4931    0.9937   -1.9492 C   0  0  0  0  0  0  0  0  0  0  0  0
   -1.1732    0.1773   -2.1923 H   0  0  0  0  0  0  0  0  0  0  0  0
   -0.8537    1.9093   -2.4164 H   0  0  0  0  0  0  0  0  0  0  0  0
    0.8745    0.6672   -2.5406 C   0  0  0  0  0  0  0  0  0  0  0  0
    1.9274    0.6877   -1.9235 O   0  0  0  0  0  0  0  0  0  0  0  0
    0.8795    0.3483   -3.8483 O   0  0  0  0  0  0  0  0  0  0  0  0
    1.7996    0.1866   -4.0639 H   0  0  0  0  0  0  0  0  0  0  0  0
    0.1871    0.1189    1.8122 C   0  0  0  0  0  0  0  0  0  0  0  0
    1.3541   -0.1171    2.1187 O   0  0  0  0  0  0  0  0  0  0  0  0
   -0.7126    0.5740    2.6926 N   0  0  0  0  0  0  0  0  0  0  0  0
   -1.6464    0.7663    2.3621 H   0  0  0  0  0  0  0  0  0  0  0  0
   -0.4191    0.8310    4.1010 C   0  0  0  0  0  0  0  0  0  0  0  0
    0.4022    1.5452    4.1828 H   0  0  0  0  0  0  0  0  0  0  0  0
   -1.2983    1.2366    4.6035 H   0  0  0  0  0  0  0  0  0  0  0  0
   -0.1204   -0.0980    4.5907 H   0  0  0  0  0  0  0  0  0  0  0  0
  5  6  2  0  0  0  0
  5  7  1  0  0  0  0
  2  3  1  0  0  0  0
  2  4  1  0  0  0  0
  2  5  1  0  0  0  0
  1  2  1  0  0  0  0
 21 22  2  0  0  0  0
 21 23  1  0  0  0  0
 19 20  1  0  0  0  0
 17 18  2  0  0  0  0
 17 19  1  0  0  0  0
 14 15  1  0  0  0  0
 14 16  1  0  0  0  0
 14 17  1  0  0  0  0
 11 12  1  0  0  0  0
 11 13  1  0  0  0  0
 11 14  1  0  0  0  0
  9 10  1  0  0  0  0
  9 11  1  0  0  0  0
  9 21  1  0  0  0  0
  7  8  1  0  0  0  0
  7  9  1  0  0  0  0
 25 26  1  0  0  0  0
 25 27  1  0  0  0  0
 25 28  1  0  0  0  0
 23 24  1  0  0  0  0
 23 25  1  0  0  0  0
M  END
$$$$
default_name
  -OEChem-02102213163D

 28 27  0     1  0  0  0  0  0999 V2000
   -3.2133   -3.5565    1.2809 H   0  0  0  0  0  0  0  0  0  0  0  0
   -3.1873   -2.5755    0.8089 C   0  0  0  0  0  0  0  0  0  0  0  0
   -3.8793   -1.9065    1.3169 H   0  0  0  0  0  0  0  0  0  0  0  0
   -3.4623   -2.6685   -0.2401 H   0  0  0  0  0  0  0  0  0  0  0  0
   -1.7863   -2.0195    0.9119 C   0  0  0  0  0  0  0  0  0  0  0  0
   -0.9073   -2.6615    1.4699 O   0  0  0  0  0  0  0  0  0  0  0  0
   -1.5803   -0.8195    0.3749 N   0  0  0  0  0  0  0  0  0  0  0  0
   -2.3603   -0.3345   -0.0451 H   0  0  0  0  0  0  0  0  0  0  0  0
   -0.2933   -0.1205    0.3719 C   0  0  1  0  0  0  0  0  0  0  0  0
    0.4439   -0.7485   -0.1303 H   0  0  0  0  0  0  0  0  0  0  0  0
   -0.4368    1.1924   -0.4246 C   0  0  0  0  0  0  0  0  0  0  0  0
   -1.3540    1.6872   -0.1005 H   0  0  0  0  0  0  0  0  0  0  0  0
    0.4032    1.8485   -0.1915 H   0  0  0  0  0  0  0  0  0  0  0  0
   -0.4931    0.9937   -1.9492 C   0  0  0  0  0  0  0  0  0  0  0  0
   -1.3518    0.3756   -2.2116 H   0  0  0  0  0  0  0  0  0  0  0  0
   -0.5914    1.9646   -2.4333 H   0  0  0  0  0  0  0  0  0  0  0  0
    0.7632    0.3195   -2.4912 C   0  0  0  0  0  0  0  0  0  0  0  0
    1.7656    0.0779   -1.8381 O   0  0  0  0  0  0  0  0  0  0  0  0
    0.7283   -0.0082   -3.7962 O   0  0  0  0  0  0  0  0  0  0  0  0
    1.5826   -0.4033   -3.9789 H   0  0  0  0  0  0  0  0  0  0  0  0
    0.1871    0.1189    1.8122 C   0  0  0  0  0  0  0  0  0  0  0  0
    1.3541   -0.1171    2.1187 O   0  0  0  0  0  0  0  0  0  0  0  0
   -0.7126    0.5740    2.6926 N   0  0  0  0  0  0  0  0  0  0  0  0
   -1.6464    0.7663    2.3621 H   0  0  0  0  0  0  0  0  0  0  0  0
   -0.4191    0.8310    4.1010 C   0  0  0  0  0  0  0  0  0  0  0  0
    0.4022    1.5452    4.1828 H   0  0  0  0  0  0  0  0  0  0  0  0
   -1.2983    1.2366    4.6035 H   0  0  0  0  0  0  0  0  0  0  0  0
   -0.1204   -0.0980    4.5907 H   0  0  0  0  0  0  0  0  0  0  0  0
  5  6  2  0  0  0  0
  5  7  1  0  0  0  0
  2  3  1  0  0  0  0
  2  4  1  0  0  0  0
  2  5  1  0  0  0  0
  1  2  1  0  0  0  0
 21 22  2  0  0  0  0
 21 23  1  0  0  0  0
 19 20  1  0  0  0  0
 17 18  2  0  0  0  0
 17 19  1  0  0  0  0
 14 15  1  0  0  0  0
 14 16  1  0  0  0  0
 14 17  1  0  0  0  0
 11 12  1  0  0  0  0
 11 13  1  0  0  0  0
 11 14  1  0  0  0  0
  9 10  1  0  0  0  0
  9 11  1  0  0  0  0
  9 21  1  0  0  0  0
  7  8  1  0  0  0  0
  7  9  1  0  0  0  0
 25 26  1  0  0  0  0
 25 27  1  0  0  0  0
 25 28  1  0  0  0  0
 23 24  1  0  0  0  0
 23 25  1  0  0  0  0
M  END
$$$$
default_name
  -OEChem-02102213163D

 28 27  0     1  0  0  0  0  0999 V2000
   -3.2133   -3.5565    1.2809 H   0  0  0  0  0  0  0  0  0  0  0  0
   -3.1873   -2.5755    0.8089 C   0  0  0  0  0  0  0  0  0  0  0  0
   -3.8793   -1.9065    1.3169 H   0  0  0  0  0  0  0  0  0  0  0  0
   -3.4623   -2.6685   -0.2401 H   0  0  0  0  0  0  0  0  0  0  0  0
   -1.7863   -2.0195    0.9119 C   0  0  0  0  0  0  0  0  0  0  0  0
   -0.9073   -2.6615    1.4699 O   0  0  0  0  0  0  0  0  0  0  0  0
   -1.5803   -0.8195    0.3749 N   0  0  0  0  0  0  0  0  0  0  0  0
   -2.3603   -0.3345   -0.0451 H   0  0  0  0  0  0  0  0  0  0  0  0
   -0.2933   -0.1205    0.3719 C   0  0  1  0  0  0  0  0  0  0  0  0
    0.4439   -0.7485   -0.1303 H   0  0  0  0  0  0  0  0  0  0  0  0
   -0.4368    1.1924   -0.4246 C   0  0  0  0  0  0  0  0  0  0  0  0
   -1.3540    1.6872   -0.1005 H   0  0  0  0  0  0  0  0  0  0  0  0
    0.4032    1.8485   -0.1915 H   0  0  0  0  0  0  0  0  0  0  0  0
   -0.4931    0.9937   -1.9492 C   0  0  0  0  0  0  0  0  0  0  0  0
   -1.4727    0.6128   -2.2380 H   0  0  0  0  0  0  0  0  0  0  0  0
   -0.3233    1.9506   -2.4413 H   0  0  0  0  0  0  0  0  0  0  0  0
    0.5648    0.0126   -2.4438 C   0  0  0  0  0  0  0  0  0  0  0  0
    1.4502   -0.4688   -1.7552 O   0  0  0  0  0  0  0  0  0  0  0  0
    0.4891   -0.3132   -3.7476 O   0  0  0  0  0  0  0  0  0  0  0  0
    1.2188   -0.9166   -3.8986 H   0  0  0  0  0  0  0  0  0  0  0  0
    0.1871    0.1189    1.8122 C   0  0  0  0  0  0  0  0  0  0  0  0
    1.3541   -0.1171    2.1187 O   0  0  0  0  0  0  0  0  0  0  0  0
   -0.7126    0.5740    2.6926 N   0  0  0  0  0  0  0  0  0  0  0  0
   -1.6464    0.7663    2.3621 H   0  0  0  0  0  0  0  0  0  0  0  0
   -0.4191    0.8310    4.1010 C   0  0  0  0  0  0  0  0  0  0  0  0
    0.4022    1.5452    4.1828 H   0  0  0  0  0  0  0  0  0  0  0  0
   -1.2983    1.2366    4.6035 H   0  0  0  0  0  0  0  0  0  0  0  0
   -0.1204   -0.0980    4.5907 H   0  0  0  0  0  0  0  0  0  0  0  0
  5  6  2  0  0  0  0
  5  7  1  0  0  0  0
  2  3  1  0  0  0  0
  2  4  1  0  0  0  0
  2  5  1  0  0  0  0
  1  2  1  0  0  0  0
 21 22  2  0  0  0  0
 21 23  1  0  0  0  0
 19 20  1  0  0  0  0
 17 18  2  0  0  0  0
 17 19  1  0  0  0  0
 14 15  1  0  0  0  0
 14 16  1  0  0  0  0
 14 17  1  0  0  0  0
 11 12  1  0  0  0  0
 11 13  1  0  0  0  0
 11 14  1  0  0  0  0
  9 10  1  0  0  0  0
  9 11  1  0  0  0  0
  9 21  1  0  0  0  0
  7  8  1  0  0  0  0
  7  9  1  0  0  0  0
 25 26  1  0  0  0  0
 25 27  1  0  0  0  0
 25 28  1  0  0  0  0
 23 24  1  0  0  0  0
 23 25  1  0  0  0  0
M  END
$$$$
default_name
  -OEChem-02102213163D

 28 27  0     1  0  0  0  0  0999 V2000
   -3.2133   -3.5565    1.2809 H   0  0  0  0  0  0  0  0  0  0  0  0
   -3.1873   -2.5755    0.8089 C   0  0  0  0  0  0  0  0  0  0  0  0
   -3.8793   -1.9065    1.3169 H   0  0  0  0  0  0  0  0  0  0  0  0
   -3.4623   -2.6685   -0.2401 H   0  0  0  0  0  0  0  0  0  0  0  0
   -1.7863   -2.0195    0.9119 C   0  0  0  0  0  0  0  0  0  0  0  0
   -0.9073   -2.6615    1.4699 O   0  0  0  0  0  0  0  0  0  0  0  0
   -1.5803   -0.8195    0.3749 N   0  0  0  0  0  0  0  0  0  0  0  0
   -2.3603   -0.3345   -0.0451 H   0  0  0  0  0  0  0  0  0  0  0  0
   -0.2933   -0.1205    0.3719 C   0  0  1  0  0  0  0  0  0  0  0  0
    0.4439   -0.7485   -0.1303 H   0  0  0  0  0  0  0  0  0  0  0  0
   -0.4368    1.1924   -0.4246 C   0  0  0  0  0  0  0  0  0  0  0  0
   -1.3540    1.6872   -0.1005 H   0  0  0  0  0  0  0  0  0  0  0  0
    0.4032    1.8485   -0.1915 H   0  0  0  0  0  0  0  0  0  0  0  0
   -0.4931    0.9937   -1.9492 C   0  0  0  0  0  0  0  0  0  0  0  0
   -1.5278    0.8726   -2.2699 H   0  0  0  0  0  0  0  0  0  0  0  0
   -0.0677    1.8683   -2.4400 H   0  0  0  0  0  0  0  0  0  0  0  0
    0.2930   -0.2326   -2.4018 C   0  0  0  0  0  0  0  0  0  0  0  0
    1.0025   -0.9152   -1.6804 O   0  0  0  0  0  0  0  0  0  0  0  0
    0.1782   -0.5461   -3.7058 O   0  0  0  0  0  0  0  0  0  0  0  0
    0.7331   -1.3183   -3.8283 H   0  0  0  0  0  0  0  0  0  0  0  0
    0.1871    0.1189    1.8122 C   0  0  0  0  0  0  0  0  0  0  0  0
    1.3541   -0.1171    2.1187 O   0  0  0  0  0  0  0  0  0  0  0  0
   -0.7126    0.5740    2.6926 N   0  0  0  0  0  0  0  0  0  0  0  0
   -1.6464    0.7663    2.3621 H   0  0  0  0  0  0  0  0  0  0  0  0
   -0.4191    0.8310    4.1010 C   0  0  0  0  0  0  0  0  0  0  0  0
    0.4022    1.5452    4.1828 H   0  0  0  0  0  0  0  0  0  0  0  0
   -1.2983    1.2366    4.6035 H   0  0  0  0  0  0  0  0  0  0  0  0
   -0.1204   -0.0980    4.5907 H   0  0  0  0  0  0  0  0  0  0  0  0
  5  6  2  0  0  0  0
  5  7  1  0  0  0  0
  2  3  1  0  0  0  0
  2  4  1  0  0  0  0
  2  5  1  0  0  0  0
  1  2  1  0  0  0  0
 21 22  2  0  0  0  0
 21 23  1  0  0  0  0
 19 20  1  0  0  0  0
 17 18  2  0  0  0  0
 17 19  1  0  0  0  0
 14 15  1  0  0  0  0
 14 16  1  0  0  0  0
 14 17  1  0  0  0  0
 11 12  1  0  0  0  0
 11 13  1  0  0  0  0
 11 14  1  0  0  0  0
  9 10  1  0  0  0  0
  9 11  1  0  0  0  0
  9 21  1  0  0  0  0
  7  8  1  0  0  0  0
  7  9  1  0  0  0  0
 25 26  1  0  0  0  0
 25 27  1  0  0  0  0
 25 28  1  0  0  0  0
 23 24  1  0  0  0  0
 23 25  1  0  0  0  0
M  END
$$$$
default_name
  -OEChem-02102213163D

 28 27  0     1  0  0  0  0  0999 V2000
   -3.2133   -3.5565    1.2809 H   0  0  0  0  0  0  0  0  0  0  0  0
   -3.1873   -2.5755    0.8089 C   0  0  0  0  0  0  0  0  0  0  0  0
   -3.8793   -1.9065    1.3169 H   0  0  0  0  0  0  0  0  0  0  0  0
   -3.4623   -2.6685   -0.2401 H   0  0  0  0  0  0  0  0  0  0  0  0
   -1.7863   -2.0195    0.9119 C   0  0  0  0  0  0  0  0  0  0  0  0
   -0.9073   -2.6615    1.4699 O   0  0  0  0  0  0  0  0  0  0  0  0
   -1.5803   -0.8195    0.3749 N   0  0  0  0  0  0  0  0  0  0  0  0
   -2.3603   -0.3345   -0.0451 H   0  0  0  0  0  0  0  0  0  0  0  0
   -0.2933   -0.1205    0.3719 C   0  0  1  0  0  0  0  0  0  0  0  0
    0.4439   -0.7485   -0.1303 H   0  0  0  0  0  0  0  0  0  0  0  0
   -0.4368    1.1924   -0.4246 C   0  0  0  0  0  0  0  0  0  0  0  0
   -1.3540    1.6872   -0.1005 H   0  0  0  0  0  0  0  0  0  0  0  0
    0.4032    1.8485   -0.1915 H   0  0  0  0  0  0  0  0  0  0  0  0
   -0.4931    0.9937   -1.9492 C   0  0  0  0  0  0  0  0  0  0  0  0
   -1.5134    1.1375   -2.3049 H   0  0  0  0  0  0  0  0  0  0  0  0
    0.1581    1.7231   -2.4295 H   0  0  0  0  0  0  0  0  0  0  0  0
   -0.0339   -0.3992   -2.3680 C   0  0  0  0  0  0  0  0  0  0  0  0
    0.4530   -1.2309   -1.6190 O   0  0  0  0  0  0  0  0  0  0  0  0
   -0.1833   -0.6908   -3.6735 O   0  0  0  0  0  0  0  0  0  0  0  0
    0.1585   -1.5811   -3.7728 H   0  0  0  0  0  0  0  0  0  0  0  0
    0.1871    0.1189    1.8122 C   0  0  0  0  0  0  0  0  0  0  0  0
    1.3541   -0.1171    2.1187 O   0  0  0  0  0  0  0  0  0  0  0  0
   -0.7126    0.5740    2.6926 N   0  0  0  0  0  0  0  0  0  0  0  0
   -1.6464    0.7663    2.3621 H   0  0  0  0  0  0  0  0  0  0  0  0
   -0.4191    0.8310    4.1010 C   0  0  0  0  0  0  0  0  0  0  0  0
    0.4022    1.5452    4.1828 H   0  0  0  0  0  0  0  0  0  0  0  0
   -1.2983    1.2366    4.6035 H   0  0  0  0  0  0  0  0  0  0  0  0
   -0.1204   -0.0980    4.5907 H   0  0  0  0  0  0  0  0  0  0  0  0
  5  6  2  0  0  0  0
  5  7  1  0  0  0  0
  2  3  1  0  0  0  0
  2  4  1  0  0  0  0
  2  5  1  0  0  0  0
  1  2  1  0  0  0  0
 21 22  2  0  0  0  0
 21 23  1  0  0  0  0
 19 20  1  0  0  0  0
 17 18  2  0  0  0  0
 17 19  1  0  0  0  0
 14 15  1  0  0  0  0
 14 16  1  0  0  0  0
 14 17  1  0  0  0  0
 11 12  1  0  0  0  0
 11 13  1  0  0  0  0
 11 14  1  0  0  0  0
  9 10  1  0  0  0  0
  9 11  1  0  0  0  0
  9 21  1  0  0  0  0
  7  8  1  0  0  0  0
  7  9  1  0  0  0  0
 25 26  1  0  0  0  0
 25 27  1  0  0  0  0
 25 28  1  0  0  0  0
 23 24  1  0  0  0  0
 23 25  1  0  0  0  0
M  END
$$$$
default_name
  -OEChem-02102213163D

 28 27  0     1  0  0  0  0  0999 V2000
   -3.2133   -3.5565    1.2809 H   0  0  0  0  0  0  0  0  0  0  0  0
   -3.1873   -2.5755    0.8089 C   0  0  0  0  0  0  0  0  0  0  0  0
   -3.8793   -1.9065    1.3169 H   0  0  0  0  0  0  0  0  0  0  0  0
   -3.4623   -2.6685   -0.2401 H   0  0  0  0  0  0  0  0  0  0  0  0
   -1.7863   -2.0195    0.9119 C   0  0  0  0  0  0  0  0  0  0  0  0
   -0.9073   -2.6615    1.4699 O   0  0  0  0  0  0  0  0  0  0  0  0
   -1.5803   -0.8195    0.3749 N   0  0  0  0  0  0  0  0  0  0  0  0
   -2.3603   -0.3345   -0.0451 H   0  0  0  0  0  0  0  0  0  0  0  0
   -0.2933   -0.1205    0.3719 C   0  0  1  0  0  0  0  0  0  0  0  0
    0.4439   -0.7485   -0.1303 H   0  0  0  0  0  0  0  0  0  0  0  0
   -0.4368    1.1924   -0.4246 C   0  0  0  0  0  0  0  0  0  0  0  0
   -1.3540    1.6872   -0.1005 H   0  0  0  0  0  0  0  0  0  0  0  0
    0.4032    1.8485   -0.1915 H   0  0  0  0  0  0  0  0  0  0  0  0
   -0.4931    0.9937   -1.9492 C   0  0  0  0  0  0  0  0  0  0  0  0
   -1.4303    1.3893   -2.3408 H   0  0  0  0  0  0  0  0  0  0  0  0
    0.3386    1.5251   -2.4103 H   0  0  0  0  0  0  0  0  0  0  0  0
   -0.3935   -0.4760   -2.3448 C   0  0  0  0  0  0  0  0  0  0  0  0
   -0.1607   -1.3943   -1.5750 O   0  0  0  0  0  0  0  0  0  0  0  0
   -0.5706   -0.7376   -3.6531 O   0  0  0  0  0  0  0  0  0  0  0  0
   -0.4657   -1.6871   -3.7359 H   0  0  0  0  0  0  0  0  0  0  0  0
    0.1871    0.1189    1.8122 C   0  0  0  0  0  0  0  0  0  0  0  0
    1.3541   -0.1171    2.1187 O   0  0  0  0  0  0  0  0  0  0  0  0
   -0.7126    0.5740    2.6926 N   0  0  0  0  0  0  0  0  0  0  0  0
   -1.6464    0.7663    2.3621 H   0  0  0  0  0  0  0  0  0  0  0  0
   -0.4191    0.8310    4.1010 C   0  0  0  0  0  0  0  0  0  0  0  0
    0.4022    1.5452    4.1828 H   0  0  0  0  0  0  0  0  0  0  0  0
   -1.2983    1.2366    4.6035 H   0  0  0  0  0  0  0  0  0  0  0  0
   -0.1204   -0.0980    4.5907 H   0  0  0  0  0  0  0  0  0  0  0  0
  5  6  2  0  0  0  0
  5  7  1  0  0  0  0
  2  3  1  0  0  0  0
  2  4  1  0  0  0  0
  2  5  1  0  0  0  0
  1  2  1  0  0  0  0
 21 22  2  0  0  0  0
 21 23  1  0  0  0  0
 19 20  1  0  0  0  0
 17 18  2  0  0  0  0
 17 19  1  0  0  0  0
 14 15  1  0  0  0  0
 14 16  1  0  0  0  0
 14 17  1  0  0  0  0
 11 12  1  0  0  0  0
 11 13  1  0  0  0  0
 11 14  1  0  0  0  0
  9 10  1  0  0  0  0
  9 11  1  0  0  0  0
  9 21  1  0  0  0  0
  7  8  1  0  0  0  0
  7  9  1  0  0  0  0
 25 26  1  0  0  0  0
 25 27  1  0  0  0  0
 25 28  1  0  0  0  0
 23 24  1  0  0  0  0
 23 25  1  0  0  0  0
M  END
$$$$
default_name
  -OEChem-02102213163D

 28 27  0     1  0  0  0  0  0999 V2000
   -3.2133   -3.5565    1.2809 H   0  0  0  0  0  0  0  0  0  0  0  0
   -3.1873   -2.5755    0.8089 C   0  0  0  0  0  0  0  0  0  0  0  0
   -3.8793   -1.9065    1.3169 H   0  0  0  0  0  0  0  0  0  0  0  0
   -3.4623   -2.6685   -0.2401 H   0  0  0  0  0  0  0  0  0  0  0  0
   -1.7863   -2.0195    0.9119 C   0  0  0  0  0  0  0  0  0  0  0  0
   -0.9073   -2.6615    1.4699 O   0  0  0  0  0  0  0  0  0  0  0  0
   -1.5803   -0.8195    0.3749 N   0  0  0  0  0  0  0  0  0  0  0  0
   -2.3603   -0.3345   -0.0451 H   0  0  0  0  0  0  0  0  0  0  0  0
   -0.2933   -0.1205    0.3719 C   0  0  1  0  0  0  0  0  0  0  0  0
    0.4439   -0.7485   -0.1303 H   0  0  0  0  0  0  0  0  0  0  0  0
   -0.4368    1.1924   -0.4246 C   0  0  0  0  0  0  0  0  0  0  0  0
   -1.3540    1.6872   -0.1005 H   0  0  0  0  0  0  0  0  0  0  0  0
    0.4032    1.8485   -0.1915 H   0  0  0  0  0  0  0  0  0  0  0  0
   -0.4931    0.9937   -1.9492 C   0  0  0  0  0  0  0  0  0  0  0  0
   -1.2843    1.6108   -2.3751 H   0  0  0  0  0  0  0  0  0  0  0  0
    0.4615    1.2878   -2.3839 H   0  0  0  0  0  0  0  0  0  0  0  0
   -0.7613   -0.4578   -2.3335 C   0  0  0  0  0  0  0  0  0  0  0  0
   -0.7969   -1.3943   -1.5515 O   0  0  0  0  0  0  0  0  0  0  0  0
   -0.9574   -0.6833   -3.6459 O   0  0  0  0  0  0  0  0  0  0  0  0
   -1.0971   -1.6290   -3.7202 H   0  0  0  0  0  0  0  0  0  0  0  0
    0.1871    0.1189    1.8122 C   0  0  0  0  0  0  0  0  0  0  0  0
    1.3541   -0.1171    2.1187 O   0  0  0  0  0  0  0  0  0  0  0  0
   -0.7126    0.5740    2.6926 N   0  0  0  0  0  0  0  0  0  0  0  0
   -1.6464    0.7663    2.3621 H   0  0  0  0  0  0  0  0  0  0  0  0
   -0.4191    0.8310    4.1010 C   0  0  0  0  0  0  0  0  0  0  0  0
    0.4022    1.5452    4.1828 H   0  0  0  0  0  0  0  0  0  0  0  0
   -1.2983    1.2366    4.6035 H   0  0  0  0  0  0  0  0  0  0  0  0
   -0.1204   -0.0980    4.5907 H   0  0  0  0  0  0  0  0  0  0  0  0
  5  6  2  0  0  0  0
  5  7  1  0  0  0  0
  2  3  1  0  0  0  0
  2  4  1  0  0  0  0
  2  5  1  0  0  0  0
  1  2  1  0  0  0  0
 21 22  2  0  0  0  0
 21 23  1  0  0  0  0
 19 20  1  0  0  0  0
 17 18  2  0  0  0  0
 17 19  1  0  0  0  0
 14 15  1  0  0  0  0
 14 16  1  0  0  0  0
 14 17  1  0  0  0  0
 11 12  1  0  0  0  0
 11 13  1  0  0  0  0
 11 14  1  0  0  0  0
  9 10  1  0  0  0  0
  9 11  1  0  0  0  0
  9 21  1  0  0  0  0
  7  8  1  0  0  0  0
  7  9  1  0  0  0  0
 25 26  1  0  0  0  0
 25 27  1  0  0  0  0
 25 28  1  0  0  0  0
 23 24  1  0  0  0  0
 23 25  1  0  0  0  0
M  END
$$$$
default_name
  -OEChem-02102213163D

 28 27  0     1  0  0  0  0  0999 V2000
   -3.2133   -3.5565    1.2809 H   0  0  0  0  0  0  0  0  0  0  0  0
   -3.1873   -2.5755    0.8089 C   0  0  0  0  0  0  0  0  0  0  0  0
   -3.8793   -1.9065    1.3169 H   0  0  0  0  0  0  0  0  0  0  0  0
   -3.4623   -2.6685   -0.2401 H   0  0  0  0  0  0  0  0  0  0  0  0
   -1.7863   -2.0195    0.9119 C   0  0  0  0  0  0  0  0  0  0  0  0
   -0.9073   -2.6615    1.4699 O   0  0  0  0  0  0  0  0  0  0  0  0
   -1.5803   -0.8195    0.3749 N   0  0  0  0  0  0  0  0  0  0  0  0
   -2.3603   -0.3345   -0.0451 H   0  0  0  0  0  0  0  0  0  0  0  0
   -0.2933   -0.1205    0.3719 C   0  0  1  0  0  0  0  0  0  0  0  0
    0.4439   -0.7485   -0.1303 H   0  0  0  0  0  0  0  0  0  0  0  0
   -0.4368    1.1924   -0.4246 C   0  0  0  0  0  0  0  0  0  0  0  0
   -1.3540    1.6872   -0.1005 H   0  0  0  0  0  0  0  0  0  0  0  0
    0.4032    1.8485   -0.1915 H   0  0  0  0  0  0  0  0  0  0  0  0
   -0.4931    0.9937   -1.9492 C   0  0  0  0  0  0  0  0  0  0  0  0
   -1.0853    1.7871   -2.4054 H   0  0  0  0  0  0  0  0  0  0  0  0
    0.5185    1.0272   -2.3521 H   0  0  0  0  0  0  0  0  0  0  0  0
   -1.1123   -0.3457   -2.3352 C   0  0  0  0  0  0  0  0  0  0  0  0
   -1.4122   -1.2309   -1.5501 O   0  0  0  0  0  0  0  0  0  0  0  0
   -1.3174   -0.5316   -3.6524 O   0  0  0  0  0  0  0  0  0  0  0  0
   -1.6926   -1.4108   -3.7266 H   0  0  0  0  0  0  0  0  0  0  0  0
    0.1871    0.1189    1.8122 C   0  0  0  0  0  0  0  0  0  0  0  0
    1.3541   -0.1171    2.1187 O   0  0  0  0  0  0  0  0  0  0  0  0
   -0.7126    0.5740    2.6926 N   0  0  0  0  0  0  0  0  0  0  0  0
   -1.6464    0.7663    2.3621 H   0  0  0  0  0  0  0  0  0  0  0  0
   -0.4191    0.8310    4.1010 C   0  0  0  0  0  0  0  0  0  0  0  0
    0.4022    1.5452    4.1828 H   0  0  0  0  0  0  0  0  0  0  0  0
   -1.2983    1.2366    4.6035 H   0  0  0  0  0  0  0  0  0  0  0  0
   -0.1204   -0.0980    4.5907 H   0  0  0  0  0  0  0  0  0  0  0  0
  5  6  2  0  0  0  0
  5  7  1  0  0  0  0
  2  3  1  0  0  0  0
  2  4  1  0  0  0  0
  2  5  1  0  0  0  0
  1  2  1  0  0  0  0
 21 22  2  0  0  0  0
 21 23  1  0  0  0  0
 19 20  1  0  0  0  0
 17 18  2  0  0  0  0
 17 19  1  0  0  0  0
 14 15  1  0  0  0  0
 14 16  1  0  0  0  0
 14 17  1  0  0  0  0
 11 12  1  0  0  0  0
 11 13  1  0  0  0  0
 11 14  1  0  0  0  0
  9 10  1  0  0  0  0
  9 11  1  0  0  0  0
  9 21  1  0  0  0  0
  7  8  1  0  0  0  0
  7  9  1  0  0  0  0
 25 26  1  0  0  0  0
 25 27  1  0  0  0  0
 25 28  1  0  0  0  0
 23 24  1  0  0  0  0
 23 25  1  0  0  0  0
M  END
$$$$
default_name
  -OEChem-02102213163D

 28 27  0     1  0  0  0  0  0999 V2000
   -3.2133   -3.5565    1.2809 H   0  0  0  0  0  0  0  0  0  0  0  0
   -3.1873   -2.5755    0.8089 C   0  0  0  0  0  0  0  0  0  0  0  0
   -3.8793   -1.9065    1.3169 H   0  0  0  0  0  0  0  0  0  0  0  0
   -3.4623   -2.6685   -0.2401 H   0  0  0  0  0  0  0  0  0  0  0  0
   -1.7863   -2.0195    0.9119 C   0  0  0  0  0  0  0  0  0  0  0  0
   -0.9073   -2.6615    1.4699 O   0  0  0  0  0  0  0  0  0  0  0  0
   -1.5803   -0.8195    0.3749 N   0  0  0  0  0  0  0  0  0  0  0  0
   -2.3603   -0.3345   -0.0451 H   0  0  0  0  0  0  0  0  0  0  0  0
   -0.2933   -0.1205    0.3719 C   0  0  1  0  0  0  0  0  0  0  0  0
    0.4439   -0.7485   -0.1303 H   0  0  0  0  0  0  0  0  0  0  0  0
   -0.4368    1.1924   -0.4246 C   0  0  0  0  0  0  0  0  0  0  0  0
   -1.3540    1.6872   -0.1005 H   0  0  0  0  0  0  0  0  0  0  0  0
    0.4032    1.8485   -0.1915 H   0  0  0  0  0  0  0  0  0  0  0  0
   -0.4931    0.9937   -1.9492 C   0  0  0  0  0  0  0  0  0  0  0  0
   -0.8468    1.9059   -2.4297 H   0  0  0  0  0  0  0  0  0  0  0  0
    0.5057    0.7613   -2.3169 H   0  0  0  0  0  0  0  0  0  0  0  0
   -1.4226   -0.1474   -2.3496 C   0  0  0  0  0  0  0  0  0  0  0  0
   -1.9647   -0.9152   -1.5708 O   0  0  0  0  0  0  0  0  0  0  0  0
   -1.6259   -0.2928   -3.6722 O   0  0  0  0  0  0  0  0  0  0  0  0
   -2.2116   -1.0473   -3.7549 H   0  0  0  0  0  0  0  0  0  0  0  0
    0.1871    0.1189    1.8122 C   0  0  0  0  0  0  0  0  0  0  0  0
    1.3541   -0.1171    2.1187 O   0  0  0  0  0  0  0  0  0  0  0  0
   -0.7126    0.5740    2.6926 N   0  0  0  0  0  0  0  0  0  0  0  0
   -1.6464    0.7663    2.3621 H   0  0  0  0  0  0  0  0  0  0  0  0
   -0.4191    0.8310    4.1010 C   0  0  0  0  0  0  0  0  0  0  0  0
    0.4022    1.5452    4.1828 H   0  0  0  0  0  0  0  0  0  0  0  0
   -1.2983    1.2366    4.6035 H   0  0  0  0  0  0  0  0  0  0  0  0
   -0.1204   -0.0980    4.5907 H   0  0  0  0  0  0  0  0  0  0  0  0
  5  6  2  0  0  0  0
  5  7  1  0  0  0  0
  2  3  1  0  0  0  0
  2  4  1  0  0  0  0
  2  5  1  0  0  0  0
  1  2  1  0  0  0  0
 21 22  2  0  0  0  0
 21 23  1  0  0  0  0
 19 20  1  0  0  0  0
 17 18  2  0  0  0  0
 17 19  1  0  0  0  0
 14 15  1  0  0  0  0
 14 16  1  0  0  0  0
 14 17  1  0  0  0  0
 11 12  1  0  0  0  0
 11 13  1  0  0  0  0
 11 14  1  0  0  0  0
  9 10  1  0  0  0  0
  9 11  1  0  0  0  0
  9 21  1  0  0  0  0
  7  8  1  0  0  0  0
  7  9  1  0  0  0  0
 25 26  1  0  0  0  0
 25 27  1  0  0  0  0
 25 28  1  0  0  0  0
 23 24  1  0  0  0  0
 23 25  1  0  0  0  0
M  END
$$$$
default_name
  -OEChem-02102213163D

 28 27  0     1  0  0  0  0  0999 V2000
   -3.2133   -3.5565    1.2809 H   0  0  0  0  0  0  0  0  0  0  0  0
   -3.1873   -2.5755    0.8089 C   0  0  0  0  0  0  0  0  0  0  0  0
   -3.8793   -1.9065    1.3169 H   0  0  0  0  0  0  0  0  0  0  0  0
   -3.4623   -2.6685   -0.2401 H   0  0  0  0  0  0  0  0  0  0  0  0
   -1.7863   -2.0195    0.9119 C   0  0  0  0  0  0  0  0  0  0  0  0
   -0.9073   -2.6615    1.4699 O   0  0  0  0  0  0  0  0  0  0  0  0
   -1.5803   -0.8195    0.3749 N   0  0  0  0  0  0  0  0  0  0  0  0
   -2.3603   -0.3345   -0.0451 H   0  0  0  0  0  0  0  0  0  0  0  0
   -0.2933   -0.1205    0.3719 C   0  0  1  0  0  0  0  0  0  0  0  0
    0.4439   -0.7485   -0.1303 H   0  0  0  0  0  0  0  0  0  0  0  0
   -0.4368    1.1924   -0.4246 C   0  0  0  0  0  0  0  0  0  0  0  0
   -1.3540    1.6872   -0.1005 H   0  0  0  0  0  0  0  0  0  0  0  0
    0.4032    1.8485   -0.1915 H   0  0  0  0  0  0  0  0  0  0  0  0
   -0.4931    0.9937   -1.9492 C   0  0  0  0  0  0  0  0  0  0  0  0
   -0.5852    1.9594   -2.4464 H   0  0  0  0  0  0  0  0  0  0  0  0
    0.4239    0.5080   -2.2809 H   0  0  0  0  0  0  0  0  0  0  0  0
   -1.6709    0.1235   -2.3757 C   0  0  0  0  0  0  0  0  0  0  0  0
   -2.4167   -0.4688   -1.6123 O   0  0  0  0  0  0  0  0  0  0  0  0
   -1.8620    0.0169   -3.7038 O   0  0  0  0  0  0  0  0  0  0  0  0
   -2.6188   -0.5634   -3.8029 H   0  0  0  0  0  0  0  0  0  0  0  0
    0.1871    0.1189    1.8122 C   0  0  0  0  0  0  0  0  0  0  0  0
    1.3541   -0.1171    2.1187 O   0  0  0  0  0  0  0  0  0  0  0  0
   -0.7126    0.5740    2.6926 N   0  0  0  0  0  0  0  0  0  0  0  0
   -1.6464    0.7663    2.3621 H   0  0  0  0  0  0  0  0  0  0  0  0
   -0.4191    0.8310    4.1010 C   0  0  0  0  0  0  0  0  0  0  0  0
    0.4022    1.5452    4.1828 H   0  0  0  0  0  0  0  0  0  0  0  0
   -1.2983    1.2366    4.6035 H   0  0  0  0  0  0  0  0  0  0  0  0
   -0.1204   -0.0980    4.5907 H   0  0  0  0  0  0  0  0  0  0  0  0
  5  6  2  0  0  0  0
  5  7  1  0  0  0  0
  2  3  1  0  0  0  0
  2  4  1  0  0  0  0
  2  5  1  0  0  0  0
  1  2  1  0  0  0  0
 21 22  2  0  0  0  0
 21 23  1  0  0  0  0
 19 20  1  0  0  0  0
 17 18  2  0  0  0  0
 17 19  1  0  0  0  0
 14 15  1  0  0  0  0
 14 16  1  0  0  0  0
 14 17  1  0  0  0  0
 11 12  1  0  0  0  0
 11 13  1  0  0  0  0
 11 14  1  0  0  0  0
  9 10  1  0  0  0  0
  9 11  1  0  0  0  0
  9 21  1  0  0  0  0
  7  8  1  0  0  0  0
  7  9  1  0  0  0  0
 25 26  1  0  0  0  0
 25 27  1  0  0  0  0
 25 28  1  0  0  0  0
 23 24  1  0  0  0  0
 23 25  1  0  0  0  0
M  END
$$$$
default_name
  -OEChem-02102213163D

 28 27  0     1  0  0  0  0  0999 V2000
   -3.2133   -3.5565    1.2809 H   0  0  0  0  0  0  0  0  0  0  0  0
   -3.1873   -2.5755    0.8089 C   0  0  0  0  0  0  0  0  0  0  0  0
   -3.8793   -1.9065    1.3169 H   0  0  0  0  0  0  0  0  0  0  0  0
   -3.4623   -2.6685   -0.2401 H   0  0  0  0  0  0  0  0  0  0  0  0
   -1.7863   -2.0195    0.9119 C   0  0  0  0  0  0  0  0  0  0  0  0
   -0.9073   -2.6615    1.4699 O   0  0  0  0  0  0  0  0  0  0  0  0
   -1.5803   -0.8195    0.3749 N   0  0  0  0  0  0  0  0  0  0  0  0
   -2.3603   -0.3345   -0.0451 H   0  0  0  0  0  0  0  0  0  0  0  0
   -0.2933   -0.1205    0.3719 C   0  0  1  0  0  0  0  0  0  0  0  0
    0.4439   -0.7485   -0.1303 H   0  0  0  0  0  0  0  0  0  0  0  0
   -0.4368    1.1924   -0.4246 C   0  0  0  0  0  0  0  0  0  0  0  0
   -1.3540    1.6872   -0.1005 H   0  0  0  0  0  0  0  0  0  0  0  0
    0.4032    1.8485   -0.1915 H   0  0  0  0  0  0  0  0  0  0  0  0
   -0.4931    0.9937   -1.9492 C   0  0  0  0  0  0  0  0  0  0  0  0
   -0.3182    1.9438   -2.4542 H   0  0  0  0  0  0  0  0  0  0  0  0
    0.2787    0.2846   -2.2464 H   0  0  0  0  0  0  0  0  0  0  0  0
   -1.8404    0.4487   -2.4119 C   0  0  0  0  0  0  0  0  0  0  0  0
   -2.7374    0.0779   -1.6718 O   0  0  0  0  0  0  0  0  0  0  0  0
   -2.0096    0.3762   -3.7452 O   0  0  0  0  0  0  0  0  0  0  0  0
   -2.8864    0.0080   -3.8675 H   0  0  0  0  0  0  0  0  0  0  0  0
    0.1871    0.1189    1.8122 C   0  0  0  0  0  0  0  0  0  0  0  0
    1.3541   -0.1171    2.1187 O   0  0  0  0  0  0  0  0  0  0  0  0
   -0.7126    0.5740    2.6926 N   0  0  0  0  0  0  0  0  0  0  0  0
   -1.6464    0.7663    2.3621 H   0  0  0  0  0  0  0  0  0  0  0  0
   -0.4191    0.8310    4.1010 C   0  0  0  0  0  0  0  0  0  0  0  0
    0.4022    1.5452    4.1828 H   0  0  0  0  0  0  0  0  0  0  0  0
   -1.2983    1.2366    4.6035 H   0  0  0  0  0  0  0  0  0  0  0  0
   -0.1204   -0.0980    4.5907 H   0  0  0  0  0  0  0  0  0  0  0  0
  5  6  2  0  0  0  0
  5  7  1  0  0  0  0
  2  3  1  0  0  0  0
  2  4  1  0  0  0  0
  2  5  1  0  0  0  0
  1  2  1  0  0  0  0
 21 22  2  0  0  0  0
 21 23  1  0  0  0  0
 19 20  1  0  0  0  0
 17 18  2  0  0  0  0
 17 19  1  0  0  0  0
 14 15  1  0  0  0  0
 14 16  1  0  0  0  0
 14 17  1  0  0  0  0
 11 12  1  0  0  0  0
 11 13  1  0  0  0  0
 11 14  1  0  0  0  0
  9 10  1  0  0  0  0
  9 11  1  0  0  0  0
  9 21  1  0  0  0  0
  7  8  1  0  0  0  0
  7  9  1  0  0  0  0
 25 26  1  0  0  0  0
 25 27  1  0  0  0  0
 25 28  1  0  0  0  0
 23 24  1  0  0  0  0
 23 25  1  0  0  0  0
M  END
$$$$
default_name
  -OEChem-02102213163D

 28 27  0     1  0  0  0  0  0999 V2000
   -3.2133   -3.5565    1.2809 H   0  0  0  0  0  0  0  0  0  0  0  0
   -3.1873   -2.5755    0.8089 C   0  0  0  0  0  0  0  0  0  0  0  0
   -3.8793   -1.9065    1.3169 H   0  0  0  0  0  0  0  0  0  0  0  0
   -3.4623   -2.6685   -0.2401 H   0  0  0  0  0  0  0  0  0  0  0  0
   -1.7863   -2.0195    0.9119 C   0  0  0  0  0  0  0  0  0  0  0  0
   -0.9073   -2.6615    1.4699 O   0  0  0  0  0  0  0  0  0  0  0  0
   -1.5803   -0.8195    0.3749 N   0  0  0  0  0  0  0  0  0  0  0  0
   -2.3603   -0.3345   -0.0451 H   0  0  0  0  0  0  0  0  0  0  0  0
   -0.2933   -0.1205    0.3719 C   0  0  1  0  0  0  0  0  0  0  0  0
    0.4439   -0.7485   -0.1303 H   0  0  0  0  0  0  0  0  0  0  0  0
   -0.4368    1.1924   -0.4246 C   0  0  0  0  0  0  0  0  0  0  0  0
   -1.3540    1.6872   -0.1005 H   0  0  0  0  0  0  0  0  0  0  0  0
    0.4032    1.8485   -0.1915 H   0  0  0  0  0  0  0  0  0  0  0  0
   -0.4931    0.9937   -1.9492 C   0  0  0  0  0  0  0  0  0  0  0  0
   -0.0641    1.8601   -2.4527 H   0  0  0  0  0  0  0  0  0  0  0  0
    0.0800    0.1065   -2.2158 H   0  0  0  0  0  0  0  0  0  0  0  0
   -1.9196    0.8059   -2.4555 C   0  0  0  0  0  0  0  0  0  0  0  0
   -2.9050    0.6877   -1.7451 O   0  0  0  0  0  0  0  0  0  0  0  0
   -2.0587    0.7608   -3.7935 O   0  0  0  0  0  0  0  0  0  0  0  0
   -2.9962    0.6279   -3.9443 H   0  0  0  0  0  0  0  0  0  0  0  0
    0.1871    0.1189    1.8122 C   0  0  0  0  0  0  0  0  0  0  0  0
    1.3541   -0.1171    2.1187 O   0  0  0  0  0  0  0  0  0  0  0  0
   -0.7126    0.5740    2.6926 N   0  0  0  0  0  0  0  0  0  0  0  0
   -1.6464    0.7663    2.3621 H   0  0  0  0  0  0  0  0  0  0  0  0
   -0.4191    0.8310    4.1010 C   0  0  0  0  0  0  0  0  0  0  0  0
    0.4022    1.5452    4.1828 H   0  0  0  0  0  0  0  0  0  0  0  0
   -1.2983    1.2366    4.6035 H   0  0  0  0  0  0  0  0  0  0  0  0
   -0.1204   -0.0980    4.5907 H   0  0  0  0  0  0  0  0  0  0  0  0
  5  6  2  0  0  0  0
  5  7  1  0  0  0  0
  2  3  1  0  0  0  0
  2  4  1  0  0  0  0
  2  5  1  0  0  0  0
  1  2  1  0  0  0  0
 21 22  2  0  0  0  0
 21 23  1  0  0  0  0
 19 20  1  0  0  0  0
 17 18  2  0  0  0  0
 17 19  1  0  0  0  0
 14 15  1  0  0  0  0
 14 16  1  0  0  0  0
 14 17  1  0  0  0  0
 11 12  1  0  0  0  0
 11 13  1  0  0  0  0
 11 14  1  0  0  0  0
  9 10  1  0  0  0  0
  9 11  1  0  0  0  0
  9 21  1  0  0  0  0
  7  8  1  0  0  0  0
  7  9  1  0  0  0  0
 25 26  1  0  0  0  0
 25 27  1  0  0  0  0
 25 28  1  0  0  0  0
 23 24  1  0  0  0  0
 23 25  1  0  0  0  0
M  END
$$$$
default_name
  -OEChem-02102213163D

 28 27  0     1  0  0  0  0  0999 V2000
   -3.2133   -3.5565    1.2809 H   0  0  0  0  0  0  0  0  0  0  0  0
   -3.1873   -2.5755    0.8089 C   0  0  0  0  0  0  0  0  0  0  0  0
   -3.8793   -1.9065    1.3169 H   0  0  0  0  0  0  0  0  0  0  0  0
   -3.4623   -2.6685   -0.2401 H   0  0  0  0  0  0  0  0  0  0  0  0
   -1.7863   -2.0195    0.9119 C   0  0  0  0  0  0  0  0  0  0  0  0
   -0.9073   -2.6615    1.4699 O   0  0  0  0  0  0  0  0  0  0  0  0
   -1.5803   -0.8195    0.3749 N   0  0  0  0  0  0  0  0  0  0  0  0
   -2.3603   -0.3345   -0.0451 H   0  0  0  0  0  0  0  0  0  0  0  0
   -0.2933   -0.1205    0.3719 C   0  0  1  0  0  0  0  0  0  0  0  0
    0.4439   -0.7485   -0.1303 H   0  0  0  0  0  0  0  0  0  0  0  0
   -0.4368    1.1924   -0.4246 C   0  0  0  0  0  0  0  0  0  0  0  0
   -1.3540    1.6872   -0.1005 H   0  0  0  0  0  0  0  0  0  0  0  0
    0.4032    1.8485   -0.1915 H   0  0  0  0  0  0  0  0  0  0  0  0
   -0.4931    0.9937   -1.9492 C   0  0  0  0  0  0  0  0  0  0  0  0
    0.1599    1.7142   -2.4419 H   0  0  0  0  0  0  0  0  0  0  0  0
   -0.1586   -0.0144   -2.1912 H   0  0  0  0  0  0  0  0  0  0  0  0
   -1.9029    1.1708   -2.5037 C   0  0  0  0  0  0  0  0  0  0  0  0
   -2.9080    1.3190   -1.8273 O   0  0  0  0  0  0  0  0  0  0  0  0
   -2.0058    1.1443   -3.8455 O   0  0  0  0  0  0  0  0  0  0  0  0
   -2.9406    1.2541   -4.0280 H   0  0  0  0  0  0  0  0  0  0  0  0
    0.1871    0.1189    1.8122 C   0  0  0  0  0  0  0  0  0  0  0  0
    1.3541   -0.1171    2.1187 O   0  0  0  0  0  0  0  0  0  0  0  0
   -0.7126    0.5740    2.6926 N   0  0  0  0  0  0  0  0  0  0  0  0
   -1.6464    0.7663    2.3621 H   0  0  0  0  0  0  0  0  0  0  0  0
   -0.4191    0.8310    4.1010 C   0  0  0  0  0  0  0  0  0  0  0  0
    0.4022    1.5452    4.1828 H   0  0  0  0  0  0  0  0  0  0  0  0
   -1.2983    1.2366    4.6035 H   0  0  0  0  0  0  0  0  0  0  0  0
   -0.1204   -0.0980    4.5907 H   0  0  0  0  0  0  0  0  0  0  0  0
  5  6  2  0  0  0  0
  5  7  1  0  0  0  0
  2  3  1  0  0  0  0
  2  4  1  0  0  0  0
  2  5  1  0  0  0  0
  1  2  1  0  0  0  0
 21 22  2  0  0  0  0
 21 23  1  0  0  0  0
 19 20  1  0  0  0  0
 17 18  2  0  0  0  0
 17 19  1  0  0  0  0
 14 15  1  0  0  0  0
 14 16  1  0  0  0  0
 14 17  1  0  0  0  0
 11 12  1  0  0  0  0
 11 13  1  0  0  0  0
 11 14  1  0  0  0  0
  9 10  1  0  0  0  0
  9 11  1  0  0  0  0
  9 21  1  0  0  0  0
  7  8  1  0  0  0  0
  7  9  1  0  0  0  0
 25 26  1  0  0  0  0
 25 27  1  0  0  0  0
 25 28  1  0  0  0  0
 23 24  1  0  0  0  0
 23 25  1  0  0  0  0
M  END
$$$$
default_name
  -OEChem-02102213163D

 28 27  0     1  0  0  0  0  0999 V2000
   -3.2133   -3.5565    1.2809 H   0  0  0  0  0  0  0  0  0  0  0  0
   -3.1873   -2.5755    0.8089 C   0  0  0  0  0  0  0  0  0  0  0  0
   -3.8793   -1.9065    1.3169 H   0  0  0  0  0  0  0  0  0  0  0  0
   -3.4623   -2.6685   -0.2401 H   0  0  0  0  0  0  0  0  0  0  0  0
   -1.7863   -2.0195    0.9119 C   0  0  0  0  0  0  0  0  0  0  0  0
   -0.9073   -2.6615    1.4699 O   0  0  0  0  0  0  0  0  0  0  0  0
   -1.5803   -0.8195    0.3749 N   0  0  0  0  0  0  0  0  0  0  0  0
   -2.3603   -0.3345   -0.0451 H   0  0  0  0  0  0  0  0  0  0  0  0
   -0.2933   -0.1205    0.3719 C   0  0  1  0  0  0  0  0  0  0  0  0
    0.4439   -0.7485   -0.1303 H   0  0  0  0  0  0  0  0  0  0  0  0
   -0.4368    1.1924   -0.4246 C   0  0  0  0  0  0  0  0  0  0  0  0
   -1.3540    1.6872   -0.1005 H   0  0  0  0  0  0  0  0  0  0  0  0
    0.4032    1.8485   -0.1915 H   0  0  0  0  0  0  0  0  0  0  0  0
   -0.4931    0.9937   -1.9492 C   0  0  0  0  0  0  0  0  0  0  0  0
    0.3385    1.5159   -2.4227 H   0  0  0  0  0  0  0  0  0  0  0  0
   -0.4209   -0.0697   -2.1744 H   0  0  0  0  0  0  0  0  0  0  0  0
   -1.7916    1.5185   -2.5531 C   0  0  0  0  0  0  0  0  0  0  0  0
   -2.7463    1.9288   -1.9127 O   0  0  0  0  0  0  0  0  0  0  0  0
   -1.8546    1.5008   -3.8975 O   0  0  0  0  0  0  0  0  0  0  0  0
   -2.7236    1.8440   -4.1129 H   0  0  0  0  0  0  0  0  0  0  0  0
    0.1871    0.1189    1.8122 C   0  0  0  0  0  0  0  0  0  0  0  0
    1.3541   -0.1171    2.1187 O   0  0  0  0  0  0  0  0  0  0  0  0
   -0.7126    0.5740    2.6926 N   0  0  0  0  0  0  0  0  0  0  0  0
   -1.6464    0.7663    2.3621 H   0  0  0  0  0  0  0  0  0  0  0  0
   -0.4191    0.8310    4.1010 C   0  0  0  0  0  0  0  0  0  0  0  0
    0.4022    1.5452    4.1828 H   0  0  0  0  0  0  0  0  0  0  0  0
   -1.2983    1.2366    4.6035 H   0  0  0  0  0  0  0  0  0  0  0  0
   -0.1204   -0.0980    4.5907 H   0  0  0  0  0  0  0  0  0  0  0  0
  5  6  2  0  0  0  0
  5  7  1  0  0  0  0
  2  3  1  0  0  0  0
  2  4  1  0  0  0  0
  2  5  1  0  0  0  0
  1  2  1  0  0  0  0
 21 22  2  0  0  0  0
 21 23  1  0  0  0  0
 19 20  1  0  0  0  0
 17 18  2  0  0  0  0
 17 19  1  0  0  0  0
 14 15  1  0  0  0  0
 14 16  1  0  0  0  0
 14 17  1  0  0  0  0
 11 12  1  0  0  0  0
 11 13  1  0  0  0  0
 11 14  1  0  0  0  0
  9 10  1  0  0  0  0
  9 11  1  0  0  0  0
  9 21  1  0  0  0  0
  7  8  1  0  0  0  0
  7  9  1  0  0  0  0
 25 26  1  0  0  0  0
 25 27  1  0  0  0  0
 25 28  1  0  0  0  0
 23 24  1  0  0  0  0
 23 25  1  0  0  0  0
M  END
$$$$
default_name
  -OEChem-02102213163D

 28 27  0     1  0  0  0  0  0999 V2000
   -3.2133   -3.5565    1.2809 H   0  0  0  0  0  0  0  0  0  0  0  0
   -3.1873   -2.5755    0.8089 C   0  0  0  0  0  0  0  0  0  0  0  0
   -3.8793   -1.9065    1.3169 H   0  0  0  0  0  0  0  0  0  0  0  0
   -3.4623   -2.6685   -0.2401 H   0  0  0  0  0  0  0  0  0  0  0  0
   -1.7863   -2.0195    0.9119 C   0  0  0  0  0  0  0  0  0  0  0  0
   -0.9073   -2.6615    1.4699 O   0  0  0  0  0  0  0  0  0  0  0  0
   -1.5803   -0.8195    0.3749 N   0  0  0  0  0  0  0  0  0  0  0  0
   -2.3603   -0.3345   -0.0451 H   0  0  0  0  0  0  0  0  0  0  0  0
   -0.2933   -0.1205    0.3719 C   0  0  1  0  0  0  0  0  0  0  0  0
    0.4439   -0.7485   -0.1303 H   0  0  0  0  0  0  0  0  0  0  0  0
   -0.4368    1.1924   -0.4246 C   0  0  0  0  0  0  0  0  0  0  0  0
   -1.3540    1.6872   -0.1005 H   0  0  0  0  0  0  0  0  0  0  0  0
    0.4032    1.8485   -0.1915 H   0  0  0  0  0  0  0  0  0  0  0  0
   -0.4931    0.9937   -1.9492 C   0  0  0  0  0  0  0  0  0  0  0  0
    0.4594    1.2787   -2.3962 H   0  0  0  0  0  0  0  0  0  0  0  0
   -0.6890   -0.0557   -2.1663 H   0  0  0  0  0  0  0  0  0  0  0  0
   -1.5933    1.8254   -2.6005 C   0  0  0  0  0  0  0  0  0  0  0  0
   -2.4308    2.4755   -1.9957 O   0  0  0  0  0  0  0  0  0  0  0  0
   -1.6154    1.8058   -3.9461 O   0  0  0  0  0  0  0  0  0  0  0  0
   -2.3598    2.3573   -4.1932 H   0  0  0  0  0  0  0  0  0  0  0  0
    0.1871    0.1189    1.8122 C   0  0  0  0  0  0  0  0  0  0  0  0
    1.3541   -0.1171    2.1187 O   0  0  0  0  0  0  0  0  0  0  0  0
   -0.7126    0.5740    2.6926 N   0  0  0  0  0  0  0  0  0  0  0  0
   -1.6464    0.7663    2.3621 H   0  0  0  0  0  0  0  0  0  0  0  0
   -0.4191    0.8310    4.1010 C   0  0  0  0  0  0  0  0  0  0  0  0
    0.4022    1.5452    4.1828 H   0  0  0  0  0  0  0  0  0  0  0  0
   -1.2983    1.2366    4.6035 H   0  0  0  0  0  0  0  0  0  0  0  0
   -0.1204   -0.0980    4.5907 H   0  0  0  0  0  0  0  0  0  0  0  0
  5  6  2  0  0  0  0
  5  7  1  0  0  0  0
  2  3  1  0  0  0  0
  2  4  1  0  0  0  0
  2  5  1  0  0  0  0
  1  2  1  0  0  0  0
 21 22  2  0  0  0  0
 21 23  1  0  0  0  0
 19 20  1  0  0  0  0
 17 18  2  0  0  0  0
 17 19  1  0  0  0  0
 14 15  1  0  0  0  0
 14 16  1  0  0  0  0
 14 17  1  0  0  0  0
 11 12  1  0  0  0  0
 11 13  1  0  0  0  0
 11 14  1  0  0  0  0
  9 10  1  0  0  0  0
  9 11  1  0  0  0  0
  9 21  1  0  0  0  0
  7  8  1  0  0  0  0
  7  9  1  0  0  0  0
 25 26  1  0  0  0  0
 25 27  1  0  0  0  0
 25 28  1  0  0  0  0
 23 24  1  0  0  0  0
 23 25  1  0  0  0  0
M  END
$$$$
default_name
  -OEChem-02102213163D

 28 27  0     1  0  0  0  0  0999 V2000
   -3.2133   -3.5565    1.2809 H   0  0  0  0  0  0  0  0  0  0  0  0
   -3.1873   -2.5755    0.8089 C   0  0  0  0  0  0  0  0  0  0  0  0
   -3.8793   -1.9065    1.3169 H   0  0  0  0  0  0  0  0  0  0  0  0
   -3.4623   -2.6685   -0.2401 H   0  0  0  0  0  0  0  0  0  0  0  0
   -1.7863   -2.0195    0.9119 C   0  0  0  0  0  0  0  0  0  0  0  0
   -0.9073   -2.6615    1.4699 O   0  0  0  0  0  0  0  0  0  0  0  0
   -1.5803   -0.8195    0.3749 N   0  0  0  0  0  0  0  0  0  0  0  0
   -2.3603   -0.3345   -0.0451 H   0  0  0  0  0  0  0  0  0  0  0  0
   -0.2933   -0.1205    0.3719 C   0  0  1  0  0  0  0  0  0  0  0  0
    0.4439   -0.7485   -0.1303 H   0  0  0  0  0  0  0  0  0  0  0  0
   -0.4368    1.1924   -0.4246 C   0  0  0  0  0  0  0  0  0  0  0  0
   -1.3540    1.6872   -0.1005 H   0  0  0  0  0  0  0  0  0  0  0  0
    0.4032    1.8485   -0.1915 H   0  0  0  0  0  0  0  0  0  0  0  0
   -0.4931    0.9937   -1.9492 C   0  0  0  0  0  0  0  0  0  0  0  0
    0.5145    1.0188   -2.3644 H   0  0  0  0  0  0  0  0  0  0  0  0
   -0.9446    0.0267   -2.1676 H   0  0  0  0  0  0  0  0  0  0  0  0
   -1.3214    2.0706   -2.6425 C   0  0  0  0  0  0  0  0  0  0  0  0
   -1.9831    2.9219   -2.0704 O   0  0  0  0  0  0  0  0  0  0  0  0
   -1.3045    2.0387   -3.9880 O   0  0  0  0  0  0  0  0  0  0  0  0
   -1.8741    2.7590   -4.2635 H   0  0  0  0  0  0  0  0  0  0  0  0
    0.1871    0.1189    1.8122 C   0  0  0  0  0  0  0  0  0  0  0  0
    1.3541   -0.1171    2.1187 O   0  0  0  0  0  0  0  0  0  0  0  0
   -0.7126    0.5740    2.6926 N   0  0  0  0  0  0  0  0  0  0  0  0
   -1.6464    0.7663    2.3621 H   0  0  0  0  0  0  0  0  0  0  0  0
   -0.4191    0.8310    4.1010 C   0  0  0  0  0  0  0  0  0  0  0  0
    0.4022    1.5452    4.1828 H   0  0  0  0  0  0  0  0  0  0  0  0
   -1.2983    1.2366    4.6035 H   0  0  0  0  0  0  0  0  0  0  0  0
   -0.1204   -0.0980    4.5907 H   0  0  0  0  0  0  0  0  0  0  0  0
  5  6  2  0  0  0  0
  5  7  1  0  0  0  0
  2  3  1  0  0  0  0
  2  4  1  0  0  0  0
  2  5  1  0  0  0  0
  1  2  1  0  0  0  0
 21 22  2  0  0  0  0
 21 23  1  0  0  0  0
 19 20  1  0  0  0  0
 17 18  2  0  0  0  0
 17 19  1  0  0  0  0
 14 15  1  0  0  0  0
 14 16  1  0  0  0  0
 14 17  1  0  0  0  0
 11 12  1  0  0  0  0
 11 13  1  0  0  0  0
 11 14  1  0  0  0  0
  9 10  1  0  0  0  0
  9 11  1  0  0  0  0
  9 21  1  0  0  0  0
  7  8  1  0  0  0  0
  7  9  1  0  0  0  0
 25 26  1  0  0  0  0
 25 27  1  0  0  0  0
 25 28  1  0  0  0  0
 23 24  1  0  0  0  0
 23 25  1  0  0  0  0
M  END
$$$$
default_name
  -OEChem-02102213163D

 28 27  0     1  0  0  0  0  0999 V2000
   -3.2133   -3.5565    1.2809 H   0  0  0  0  0  0  0  0  0  0  0  0
   -3.1873   -2.5755    0.8089 C   0  0  0  0  0  0  0  0  0  0  0  0
   -3.8793   -1.9065    1.3169 H   0  0  0  0  0  0  0  0  0  0  0  0
   -3.4623   -2.6685   -0.2401 H   0  0  0  0  0  0  0  0  0  0  0  0
   -1.7863   -2.0195    0.9119 C   0  0  0  0  0  0  0  0  0  0  0  0
   -0.9073   -2.6615    1.4699 O   0  0  0  0  0  0  0  0  0  0  0  0
   -1.5803   -0.8195    0.3749 N   0  0  0  0  0  0  0  0  0  0  0  0
   -2.3603   -0.3345   -0.0451 H   0  0  0  0  0  0  0  0  0  0  0  0
   -0.2933   -0.1205    0.3719 C   0  0  1  0  0  0  0  0  0  0  0  0
    0.4439   -0.7485   -0.1303 H   0  0  0  0  0  0  0  0  0  0  0  0
   -0.4368    1.1924   -0.4246 C   0  0  0  0  0  0  0  0  0  0  0  0
   -1.3540    1.6872   -0.1005 H   0  0  0  0  0  0  0  0  0  0  0  0
    0.4032    1.8485   -0.1915 H   0  0  0  0  0  0  0  0  0  0  0  0
   -0.4931    0.9937   -1.9492 C   0  0  0  0  0  0  0  0  0  0  0  0
    0.5001    0.7540   -2.3293 H   0  0  0  0  0  0  0  0  0  0  0  0
   -1.1704    0.1718   -2.1782 H   0  0  0  0  0  0  0  0  0  0  0  0
   -0.9946    2.2372   -2.6763 C   0  0  0  0  0  0  0  0  0  0  0  0
   -1.4337    3.2375   -2.1318 O   0  0  0  0  0  0  0  0  0  0  0  0
   -0.9430    2.1834   -4.0202 O   0  0  0  0  0  0  0  0  0  0  0  0
   -1.2995    3.0218   -4.3190 H   0  0  0  0  0  0  0  0  0  0  0  0
    0.1871    0.1189    1.8122 C   0  0  0  0  0  0  0  0  0  0  0  0
    1.3541   -0.1171    2.1187 O   0  0  0  0  0  0  0  0  0  0  0  0
   -0.7126    0.5740    2.6926 N   0  0  0  0  0  0  0  0  0  0  0  0
   -1.6464    0.7663    2.3621 H   0  0  0  0  0  0  0  0  0  0  0  0
   -0.4191    0.8310    4.1010 C   0  0  0  0  0  0  0  0  0  0  0  0
    0.4022    1.5452    4.1828 H   0  0  0  0  0  0  0  0  0  0  0  0
   -1.2983    1.2366    4.6035 H   0  0  0  0  0  0  0  0  0  0  0  0
   -0.1204   -0.0980    4.5907 H   0  0  0  0  0  0  0  0  0  0  0  0
  5  6  2  0  0  0  0
  5  7  1  0  0  0  0
  2  3  1  0  0  0  0
  2  4  1  0  0  0  0
  2  5  1  0  0  0  0
  1  2  1  0  0  0  0
 21 22  2  0  0  0  0
 21 23  1  0  0  0  0
 19 20  1  0  0  0  0
 17 18  2  0  0  0  0
 17 19  1  0  0  0  0
 14 15  1  0  0  0  0
 14 16  1  0  0  0  0
 14 17  1  0  0  0  0
 11 12  1  0  0  0  0
 11 13  1  0  0  0  0
 11 14  1  0  0  0  0
  9 10  1  0  0  0  0
  9 11  1  0  0  0  0
  9 21  1  0  0  0  0
  7  8  1  0  0  0  0
  7  9  1  0  0  0  0
 25 26  1  0  0  0  0
 25 27  1  0  0  0  0
 25 28  1  0  0  0  0
 23 24  1  0  0  0  0
 23 25  1  0  0  0  0
M  END
$$$$
default_name
  -OEChem-02102213163D

 28 27  0     1  0  0  0  0  0999 V2000
   -3.2133   -3.5565    1.2809 H   0  0  0  0  0  0  0  0  0  0  0  0
   -3.1873   -2.5755    0.8089 C   0  0  0  0  0  0  0  0  0  0  0  0
   -3.8793   -1.9065    1.3169 H   0  0  0  0  0  0  0  0  0  0  0  0
   -3.4623   -2.6685   -0.2401 H   0  0  0  0  0  0  0  0  0  0  0  0
   -1.7863   -2.0195    0.9119 C   0  0  0  0  0  0  0  0  0  0  0  0
   -0.9073   -2.6615    1.4699 O   0  0  0  0  0  0  0  0  0  0  0  0
   -1.5803   -0.8195    0.3749 N   0  0  0  0  0  0  0  0  0  0  0  0
   -2.3603   -0.3345   -0.0451 H   0  0  0  0  0  0  0  0  0  0  0  0
   -0.2933   -0.1205    0.3719 C   0  0  1  0  0  0  0  0  0  0  0  0
    0.4439   -0.7485   -0.1303 H   0  0  0  0  0  0  0  0  0  0  0  0
   -0.4368    1.1924   -0.4246 C   0  0  0  0  0  0  0  0  0  0  0  0
   -1.1862    1.8106    0.0726 H   0  0  0  0  0  0  0  0  0  0  0  0
    0.5125    1.7299   -0.4066 H   0  0  0  0  0  0  0  0  0  0  0  0
   -0.8556    0.9894   -1.8910 C   0  0  0  0  0  0  0  0  0  0  0  0
   -0.1170    0.3752   -2.4065 H   0  0  0  0  0  0  0  0  0  0  0  0
   -1.8212    0.4861   -1.9210 H   0  0  0  0  0  0  0  0  0  0  0  0
   -0.9863    2.3098   -2.6432 C   0  0  0  0  0  0  0  0  0  0  0  0
   -0.9064    3.4165   -2.1345 O   0  0  0  0  0  0  0  0  0  0  0  0
   -1.2184    2.2038   -3.9648 O   0  0  0  0  0  0  0  0  0  0  0  0
   -1.2863    3.1064   -4.2811 H   0  0  0  0  0  0  0  0  0  0  0  0
    0.1871    0.1189    1.8122 C   0  0  0  0  0  0  0  0  0  0  0  0
    1.3541   -0.1171    2.1187 O   0  0  0  0  0  0  0  0  0  0  0  0
   -0.7126    0.5740    2.6926 N   0  0  0  0  0  0  0  0  0  0  0  0
   -1.6464    0.7663    2.3621 H   0  0  0  0  0  0  0  0  0  0  0  0
   -0.4191    0.8310    4.1010 C   0  0  0  0  0  0  0  0  0  0  0  0
    0.4022    1.5452    4.1828 H   0  0  0  0  0  0  0  0  0  0  0  0
   -1.2983    1.2366    4.6035 H   0  0  0  0  0  0  0  0  0  0  0  0
   -0.1204   -0.0980    4.5907 H   0  0  0  0  0  0  0  0  0  0  0  0
  5  6  2  0  0  0  0
  5  7  1  0  0  0  0
  2  3  1  0  0  0  0
  2  4  1  0  0  0  0
  2  5  1  0  0  0  0
  1  2  1  0  0  0  0
 21 22  2  0  0  0  0
 21 23  1  0  0  0  0
 19 20  1  0  0  0  0
 17 18  2  0  0  0  0
 17 19  1  0  0  0  0
 14 15  1  0  0  0  0
 14 16  1  0  0  0  0
 14 17  1  0  0  0  0
 11 12  1  0  0  0  0
 11 13  1  0  0  0  0
 11 14  1  0  0  0  0
  9 10  1  0  0  0  0
  9 11  1  0  0  0  0
  9 21  1  0  0  0  0
  7  8  1  0  0  0  0
  7  9  1  0  0  0  0
 25 26  1  0  0  0  0
 25 27  1  0  0  0  0
 25 28  1  0  0  0  0
 23 24  1  0  0  0  0
 23 25  1  0  0  0  0
M  END
$$$$
default_name
  -OEChem-02102213163D

 28 27  0     1  0  0  0  0  0999 V2000
   -3.2133   -3.5565    1.2809 H   0  0  0  0  0  0  0  0  0  0  0  0
   -3.1873   -2.5755    0.8089 C   0  0  0  0  0  0  0  0  0  0  0  0
   -3.8793   -1.9065    1.3169 H   0  0  0  0  0  0  0  0  0  0  0  0
   -3.4623   -2.6685   -0.2401 H   0  0  0  0  0  0  0  0  0  0  0  0
   -1.7863   -2.0195    0.9119 C   0  0  0  0  0  0  0  0  0  0  0  0
   -0.9073   -2.6615    1.4699 O   0  0  0  0  0  0  0  0  0  0  0  0
   -1.5803   -0.8195    0.3749 N   0  0  0  0  0  0  0  0  0  0  0  0
   -2.3603   -0.3345   -0.0451 H   0  0  0  0  0  0  0  0  0  0  0  0
   -0.2933   -0.1205    0.3719 C   0  0  1  0  0  0  0  0  0  0  0  0
    0.4439   -0.7485   -0.1303 H   0  0  0  0  0  0  0  0  0  0  0  0
   -0.4368    1.1924   -0.4246 C   0  0  0  0  0  0  0  0  0  0  0  0
   -1.1862    1.8106    0.0726 H   0  0  0  0  0  0  0  0  0  0  0  0
    0.5125    1.7299   -0.4066 H   0  0  0  0  0  0  0  0  0  0  0  0
   -0.8556    0.9894   -1.8910 C   0  0  0  0  0  0  0  0  0  0  0  0
   -0.2795    0.1760   -2.3324 H   0  0  0  0  0  0  0  0  0  0  0  0
   -1.9148    0.7377   -1.9291 H   0  0  0  0  0  0  0  0  0  0  0  0
   -0.6358    2.2415   -2.7338 C   0  0  0  0  0  0  0  0  0  0  0  0
   -0.2970    3.3295   -2.2965 O   0  0  0  0  0  0  0  0  0  0  0  0
   -0.8533    2.0972   -4.0543 O   0  0  0  0  0  0  0  0  0  0  0  0
   -0.6873    2.9626   -4.4322 H   0  0  0  0  0  0  0  0  0  0  0  0
    0.1871    0.1189    1.8122 C   0  0  0  0  0  0  0  0  0  0  0  0
    1.3541   -0.1171    2.1187 O   0  0  0  0  0  0  0  0  0  0  0  0
   -0.7126    0.5740    2.6926 N   0  0  0  0  0  0  0  0  0  0  0  0
   -1.6464    0.7663    2.3621 H   0  0  0  0  0  0  0  0  0  0  0  0
   -0.4191    0.8310    4.1010 C   0  0  0  0  0  0  0  0  0  0  0  0
    0.4022    1.5452    4.1828 H   0  0  0  0  0  0  0  0  0  0  0  0
   -1.2983    1.2366    4.6035 H   0  0  0  0  0  0  0  0  0  0  0  0
   -0.1204   -0.0980    4.5907 H   0  0  0  0  0  0  0  0  0  0  0  0
  5  6  2  0  0  0  0
  5  7  1  0  0  0  0
  2  3  1  0  0  0  0
  2  4  1  0  0  0  0
  2  5  1  0  0  0  0
  1  2  1  0  0  0  0
 21 22  2  0  0  0  0
 21 23  1  0  0  0  0
 19 20  1  0  0  0  0
 17 18  2  0  0  0  0
 17 19  1  0  0  0  0
 14 15  1  0  0  0  0
 14 16  1  0  0  0  0
 14 17  1  0  0  0  0
 11 12  1  0  0  0  0
 11 13  1  0  0  0  0
 11 14  1  0  0  0  0
  9 10  1  0  0  0  0
  9 11  1  0  0  0  0
  9 21  1  0  0  0  0
  7  8  1  0  0  0  0
  7  9  1  0  0  0  0
 25 26  1  0  0  0  0
 25 27  1  0  0  0  0
 25 28  1  0  0  0  0
 23 24  1  0  0  0  0
 23 25  1  0  0  0  0
M  END
$$$$
default_name
  -OEChem-02102213163D

 28 27  0     1  0  0  0  0  0999 V2000
   -3.2133   -3.5565    1.2809 H   0  0  0  0  0  0  0  0  0  0  0  0
   -3.1873   -2.5755    0.8089 C   0  0  0  0  0  0  0  0  0  0  0  0
   -3.8793   -1.9065    1.3169 H   0  0  0  0  0  0  0  0  0  0  0  0
   -3.4623   -2.6685   -0.2401 H   0  0  0  0  0  0  0  0  0  0  0  0
   -1.7863   -2.0195    0.9119 C   0  0  0  0  0  0  0  0  0  0  0  0
   -0.9073   -2.6615    1.4699 O   0  0  0  0  0  0  0  0  0  0  0  0
   -1.5803   -0.8195    0.3749 N   0  0  0  0  0  0  0  0  0  0  0  0
   -2.3603   -0.3345   -0.0451 H   0  0  0  0  0  0  0  0  0  0  0  0
   -0.2933   -0.1205    0.3719 C   0  0  1  0  0  0  0  0  0  0  0  0
    0.4439   -0.7485   -0.1303 H   0  0  0  0  0  0  0  0  0  0  0  0
   -0.4368    1.1924   -0.4246 C   0  0  0  0  0  0  0  0  0  0  0  0
   -1.1862    1.8106    0.0726 H   0  0  0  0  0  0  0  0  0  0  0  0
    0.5125    1.7299   -0.4066 H   0  0  0  0  0  0  0  0  0  0  0  0
   -0.8556    0.9894   -1.8910 C   0  0  0  0  0  0  0  0  0  0  0  0
   -0.4882    0.0288   -2.2525 H   0  0  0  0  0  0  0  0  0  0  0  0
   -1.9428    1.0033   -1.9579 H   0  0  0  0  0  0  0  0  0  0  0  0
   -0.3109    2.0826   -2.8046 C   0  0  0  0  0  0  0  0  0  0  0  0
    0.2758    3.0837   -2.4261 O   0  0  0  0  0  0  0  0  0  0  0  0
   -0.5240    1.8979   -4.1207 O   0  0  0  0  0  0  0  0  0  0  0  0
   -0.1391    2.6653   -4.5477 H   0  0  0  0  0  0  0  0  0  0  0  0
    0.1871    0.1189    1.8122 C   0  0  0  0  0  0  0  0  0  0  0  0
    1.3541   -0.1171    2.1187 O   0  0  0  0  0  0  0  0  0  0  0  0
   -0.7126    0.5740    2.6926 N   0  0  0  0  0  0  0  0  0  0  0  0
   -1.6464    0.7663    2.3621 H   0  0  0  0  0  0  0  0  0  0  0  0
   -0.4191    0.8310    4.1010 C   0  0  0  0  0  0  0  0  0  0  0  0
    0.4022    1.5452    4.1828 H   0  0  0  0  0  0  0  0  0  0  0  0
   -1.2983    1.2366    4.6035 H   0  0  0  0  0  0  0  0  0  0  0  0
   -0.1204   -0.0980    4.5907 H   0  0  0  0  0  0  0  0  0  0  0  0
  5  6  2  0  0  0  0
  5  7  1  0  0  0  0
  2  3  1  0  0  0  0
  2  4  1  0  0  0  0
  2  5  1  0  0  0  0
  1  2  1  0  0  0  0
 21 22  2  0  0  0  0
 21 23  1  0  0  0  0
 19 20  1  0  0  0  0
 17 18  2  0  0  0  0
 17 19  1  0  0  0  0
 14 15  1  0  0  0  0
 14 16  1  0  0  0  0
 14 17  1  0  0  0  0
 11 12  1  0  0  0  0
 11 13  1  0  0  0  0
 11 14  1  0  0  0  0
  9 10  1  0  0  0  0
  9 11  1  0  0  0  0
  9 21  1  0  0  0  0
  7  8  1  0  0  0  0
  7  9  1  0  0  0  0
 25 26  1  0  0  0  0
 25 27  1  0  0  0  0
 25 28  1  0  0  0  0
 23 24  1  0  0  0  0
 23 25  1  0  0  0  0
M  END
$$$$
default_name
  -OEChem-02102213163D

 28 27  0     1  0  0  0  0  0999 V2000
   -3.2133   -3.5565    1.2809 H   0  0  0  0  0  0  0  0  0  0  0  0
   -3.1873   -2.5755    0.8089 C   0  0  0  0  0  0  0  0  0  0  0  0
   -3.8793   -1.9065    1.3169 H   0  0  0  0  0  0  0  0  0  0  0  0
   -3.4623   -2.6685   -0.2401 H   0  0  0  0  0  0  0  0  0  0  0  0
   -1.7863   -2.0195    0.9119 C   0  0  0  0  0  0  0  0  0  0  0  0
   -0.9073   -2.6615    1.4699 O   0  0  0  0  0  0  0  0  0  0  0  0
   -1.5803   -0.8195    0.3749 N   0  0  0  0  0  0  0  0  0  0  0  0
   -2.3603   -0.3345   -0.0451 H   0  0  0  0  0  0  0  0  0  0  0  0
   -0.2933   -0.1205    0.3719 C   0  0  1  0  0  0  0  0  0  0  0  0
    0.4439   -0.7485   -0.1303 H   0  0  0  0  0  0  0  0  0  0  0  0
   -0.4368    1.1924   -0.4246 C   0  0  0  0  0  0  0  0  0  0  0  0
   -1.1862    1.8106    0.0726 H   0  0  0  0  0  0  0  0  0  0  0  0
    0.5125    1.7299   -0.4066 H   0  0  0  0  0  0  0  0  0  0  0  0
   -0.8556    0.9894   -1.8910 C   0  0  0  0  0  0  0  0  0  0  0  0
   -0.7288   -0.0562   -2.1720 H   0  0  0  0  0  0  0  0  0  0  0  0
   -1.9034    1.2647   -2.0053 H   0  0  0  0  0  0  0  0  0  0  0  0
   -0.0339    1.8440   -2.8507 C   0  0  0  0  0  0  0  0  0  0  0  0
    0.7729    2.6959   -2.5144 O   0  0  0  0  0  0  0  0  0  0  0  0
   -0.2527    1.6194   -4.1596 O   0  0  0  0  0  0  0  0  0  0  0  0
    0.3210    2.2347   -4.6195 H   0  0  0  0  0  0  0  0  0  0  0  0
    0.1871    0.1189    1.8122 C   0  0  0  0  0  0  0  0  0  0  0  0
    1.3541   -0.1171    2.1187 O   0  0  0  0  0  0  0  0  0  0  0  0
   -0.7126    0.5740    2.6926 N   0  0  0  0  0  0  0  0  0  0  0  0
   -1.6464    0.7663    2.3621 H   0  0  0  0  0  0  0  0  0  0  0  0
   -0.4191    0.8310    4.1010 C   0  0  0  0  0  0  0  0  0  0  0  0
    0.4022    1.5452    4.1828 H   0  0  0  0  0  0  0  0  0  0  0  0
   -1.2983    1.2366    4.6035 H   0  0  0  0  0  0  0  0  0  0  0  0
   -0.1204   -0.0980    4.5907 H   0  0  0  0  0  0  0  0  0  0  0  0
  5  6  2  0  0  0  0
  5  7  1  0  0  0  0
  2  3  1  0  0  0  0
  2  4  1  0  0  0  0
  2  5  1  0  0  0  0
  1  2  1  0  0  0  0
 21 22  2  0  0  0  0
 21 23  1  0  0  0  0
 19 20  1  0  0  0  0
 17 18  2  0  0  0  0
 17 19  1  0  0  0  0
 14 15  1  0  0  0  0
 14 16  1  0  0  0  0
 14 17  1  0  0  0  0
 11 12  1  0  0  0  0
 11 13  1  0  0  0  0
 11 14  1  0  0  0  0
  9 10  1  0  0  0  0
  9 11  1  0  0  0  0
  9 21  1  0  0  0  0
  7  8  1  0  0  0  0
  7  9  1  0  0  0  0
 25 26  1  0  0  0  0
 25 27  1  0  0  0  0
 25 28  1  0  0  0  0
 23 24  1  0  0  0  0
 23 25  1  0  0  0  0
M  END
$$$$
default_name
  -OEChem-02102213163D

 28 27  0     1  0  0  0  0  0999 V2000
   -3.2133   -3.5565    1.2809 H   0  0  0  0  0  0  0  0  0  0  0  0
   -3.1873   -2.5755    0.8089 C   0  0  0  0  0  0  0  0  0  0  0  0
   -3.8793   -1.9065    1.3169 H   0  0  0  0  0  0  0  0  0  0  0  0
   -3.4623   -2.6685   -0.2401 H   0  0  0  0  0  0  0  0  0  0  0  0
   -1.7863   -2.0195    0.9119 C   0  0  0  0  0  0  0  0  0  0  0  0
   -0.9073   -2.6615    1.4699 O   0  0  0  0  0  0  0  0  0  0  0  0
   -1.5803   -0.8195    0.3749 N   0  0  0  0  0  0  0  0  0  0  0  0
   -2.3603   -0.3345   -0.0451 H   0  0  0  0  0  0  0  0  0  0  0  0
   -0.2933   -0.1205    0.3719 C   0  0  1  0  0  0  0  0  0  0  0  0
    0.4439   -0.7485   -0.1303 H   0  0  0  0  0  0  0  0  0  0  0  0
   -0.4368    1.1924   -0.4246 C   0  0  0  0  0  0  0  0  0  0  0  0
   -1.1862    1.8106    0.0726 H   0  0  0  0  0  0  0  0  0  0  0  0
    0.5125    1.7299   -0.4066 H   0  0  0  0  0  0  0  0  0  0  0  0
   -0.8556    0.9894   -1.8910 C   0  0  0  0  0  0  0  0  0  0  0  0
   -0.9849   -0.0733   -2.0965 H   0  0  0  0  0  0  0  0  0  0  0  0
   -1.7992    1.5041   -2.0683 H   0  0  0  0  0  0  0  0  0  0  0  0
    0.1763    1.5420   -2.8689 C   0  0  0  0  0  0  0  0  0  0  0  0
    1.1604    2.1924   -2.5553 O   0  0  0  0  0  0  0  0  0  0  0  0
   -0.0581    1.2808   -4.1683 O   0  0  0  0  0  0  0  0  0  0  0  0
    0.6617    1.7003   -4.6428 H   0  0  0  0  0  0  0  0  0  0  0  0
    0.1871    0.1189    1.8122 C   0  0  0  0  0  0  0  0  0  0  0  0
    1.3541   -0.1171    2.1187 O   0  0  0  0  0  0  0  0  0  0  0  0
   -0.7126    0.5740    2.6926 N   0  0  0  0  0  0  0  0  0  0  0  0
   -1.6464    0.7663    2.3621 H   0  0  0  0  0  0  0  0  0  0  0  0
   -0.4191    0.8310    4.1010 C   0  0  0  0  0  0  0  0  0  0  0  0
    0.4022    1.5452    4.1828 H   0  0  0  0  0  0  0  0  0  0  0  0
   -1.2983    1.2366    4.6035 H   0  0  0  0  0  0  0  0  0  0  0  0
   -0.1204   -0.0980    4.5907 H   0  0  0  0  0  0  0  0  0  0  0  0
  5  6  2  0  0  0  0
  5  7  1  0  0  0  0
  2  3  1  0  0  0  0
  2  4  1  0  0  0  0
  2  5  1  0  0  0  0
  1  2  1  0  0  0  0
 21 22  2  0  0  0  0
 21 23  1  0  0  0  0
 19 20  1  0  0  0  0
 17 18  2  0  0  0  0
 17 19  1  0  0  0  0
 14 15  1  0  0  0  0
 14 16  1  0  0  0  0
 14 17  1  0  0  0  0
 11 12  1  0  0  0  0
 11 13  1  0  0  0  0
 11 14  1  0  0  0  0
  9 10  1  0  0  0  0
  9 11  1  0  0  0  0
  9 21  1  0  0  0  0
  7  8  1  0  0  0  0
  7  9  1  0  0  0  0
 25 26  1  0  0  0  0
 25 27  1  0  0  0  0
 25 28  1  0  0  0  0
 23 24  1  0  0  0  0
 23 25  1  0  0  0  0
M  END
$$$$
default_name
  -OEChem-02102213163D

 28 27  0     1  0  0  0  0  0999 V2000
   -3.2133   -3.5565    1.2809 H   0  0  0  0  0  0  0  0  0  0  0  0
   -3.1873   -2.5755    0.8089 C   0  0  0  0  0  0  0  0  0  0  0  0
   -3.8793   -1.9065    1.3169 H   0  0  0  0  0  0  0  0  0  0  0  0
   -3.4623   -2.6685   -0.2401 H   0  0  0  0  0  0  0  0  0  0  0  0
   -1.7863   -2.0195    0.9119 C   0  0  0  0  0  0  0  0  0  0  0  0
   -0.9073   -2.6615    1.4699 O   0  0  0  0  0  0  0  0  0  0  0  0
   -1.5803   -0.8195    0.3749 N   0  0  0  0  0  0  0  0  0  0  0  0
   -2.3603   -0.3345   -0.0451 H   0  0  0  0  0  0  0  0  0  0  0  0
   -0.2933   -0.1205    0.3719 C   0  0  1  0  0  0  0  0  0  0  0  0
    0.4439   -0.7485   -0.1303 H   0  0  0  0  0  0  0  0  0  0  0  0
   -0.4368    1.1924   -0.4246 C   0  0  0  0  0  0  0  0  0  0  0  0
   -1.1862    1.8106    0.0726 H   0  0  0  0  0  0  0  0  0  0  0  0
    0.5125    1.7299   -0.4066 H   0  0  0  0  0  0  0  0  0  0  0  0
   -0.8556    0.9894   -1.8910 C   0  0  0  0  0  0  0  0  0  0  0  0
   -1.2390   -0.0214   -2.0311 H   0  0  0  0  0  0  0  0  0  0  0  0
   -1.6373    1.7053   -2.1424 H   0  0  0  0  0  0  0  0  0  0  0  0
    0.3055    1.1971   -2.8581 C   0  0  0  0  0  0  0  0  0  0  0  0
    1.4119    1.6077   -2.5461 O   0  0  0  0  0  0  0  0  0  0  0  0
    0.0466    0.9051   -4.1462 O   0  0  0  0  0  0  0  0  0  0  0  0
    0.8598    1.0984   -4.6160 H   0  0  0  0  0  0  0  0  0  0  0  0
    0.1871    0.1189    1.8122 C   0  0  0  0  0  0  0  0  0  0  0  0
    1.3541   -0.1171    2.1187 O   0  0  0  0  0  0  0  0  0  0  0  0
   -0.7126    0.5740    2.6926 N   0  0  0  0  0  0  0  0  0  0  0  0
   -1.6464    0.7663    2.3621 H   0  0  0  0  0  0  0  0  0  0  0  0
   -0.4191    0.8310    4.1010 C   0  0  0  0  0  0  0  0  0  0  0  0
    0.4022    1.5452    4.1828 H   0  0  0  0  0  0  0  0  0  0  0  0
   -1.2983    1.2366    4.6035 H   0  0  0  0  0  0  0  0  0  0  0  0
   -0.1204   -0.0980    4.5907 H   0  0  0  0  0  0  0  0  0  0  0  0
  5  6  2  0  0  0  0
  5  7  1  0  0  0  0
  2  3  1  0  0  0  0
  2  4  1  0  0  0  0
  2  5  1  0  0  0  0
  1  2  1  0  0  0  0
 21 22  2  0  0  0  0
 21 23  1  0  0  0  0
 19 20  1  0  0  0  0
 17 18  2  0  0  0  0
 17 19  1  0  0  0  0
 14 15  1  0  0  0  0
 14 16  1  0  0  0  0
 14 17  1  0  0  0  0
 11 12  1  0  0  0  0
 11 13  1  0  0  0  0
 11 14  1  0  0  0  0
  9 10  1  0  0  0  0
  9 11  1  0  0  0  0
  9 21  1  0  0  0  0
  7  8  1  0  0  0  0
  7  9  1  0  0  0  0
 25 26  1  0  0  0  0
 25 27  1  0  0  0  0
 25 28  1  0  0  0  0
 23 24  1  0  0  0  0
 23 25  1  0  0  0  0
M  END
$$$$
default_name
  -OEChem-02102213163D

 28 27  0     1  0  0  0  0  0999 V2000
   -3.2133   -3.5565    1.2809 H   0  0  0  0  0  0  0  0  0  0  0  0
   -3.1873   -2.5755    0.8089 C   0  0  0  0  0  0  0  0  0  0  0  0
   -3.8793   -1.9065    1.3169 H   0  0  0  0  0  0  0  0  0  0  0  0
   -3.4623   -2.6685   -0.2401 H   0  0  0  0  0  0  0  0  0  0  0  0
   -1.7863   -2.0195    0.9119 C   0  0  0  0  0  0  0  0  0  0  0  0
   -0.9073   -2.6615    1.4699 O   0  0  0  0  0  0  0  0  0  0  0  0
   -1.5803   -0.8195    0.3749 N   0  0  0  0  0  0  0  0  0  0  0  0
   -2.3603   -0.3345   -0.0451 H   0  0  0  0  0  0  0  0  0  0  0  0
   -0.2933   -0.1205    0.3719 C   0  0  1  0  0  0  0  0  0  0  0  0
    0.4439   -0.7485   -0.1303 H   0  0  0  0  0  0  0  0  0  0  0  0
   -0.4368    1.1924   -0.4246 C   0  0  0  0  0  0  0  0  0  0  0  0
   -1.1862    1.8106    0.0726 H   0  0  0  0  0  0  0  0  0  0  0  0
    0.5125    1.7299   -0.4066 H   0  0  0  0  0  0  0  0  0  0  0  0
   -0.8556    0.9894   -1.8910 C   0  0  0  0  0  0  0  0  0  0  0  0
   -1.4740    0.0961   -1.9802 H   0  0  0  0  0  0  0  0  0  0  0  0
   -1.4288    1.8544   -2.2226 H   0  0  0  0  0  0  0  0  0  0  0  0
    0.3449    0.8329   -2.8189 C   0  0  0  0  0  0  0  0  0  0  0  0
    1.5102    0.9814   -2.4875 O   0  0  0  0  0  0  0  0  0  0  0  0
    0.0544    0.5178   -4.0948 O   0  0  0  0  0  0  0  0  0  0  0  0
    0.9017    0.4700   -4.5409 H   0  0  0  0  0  0  0  0  0  0  0  0
    0.1871    0.1189    1.8122 C   0  0  0  0  0  0  0  0  0  0  0  0
    1.3541   -0.1171    2.1187 O   0  0  0  0  0  0  0  0  0  0  0  0
   -0.7126    0.5740    2.6926 N   0  0  0  0  0  0  0  0  0  0  0  0
   -1.6464    0.7663    2.3621 H   0  0  0  0  0  0  0  0  0  0  0  0
   -0.4191    0.8310    4.1010 C   0  0  0  0  0  0  0  0  0  0  0  0
    0.4022    1.5452    4.1828 H   0  0  0  0  0  0  0  0  0  0  0  0
   -1.2983    1.2366    4.6035 H   0  0  0  0  0  0  0  0  0  0  0  0
   -0.1204   -0.0980    4.5907 H   0  0  0  0  0  0  0  0  0  0  0  0
  5  6  2  0  0  0  0
  5  7  1  0  0  0  0
  2  3  1  0  0  0  0
  2  4  1  0  0  0  0
  2  5  1  0  0  0  0
  1  2  1  0  0  0  0
 21 22  2  0  0  0  0
 21 23  1  0  0  0  0
 19 20  1  0  0  0  0
 17 18  2  0  0  0  0
 17 19  1  0  0  0  0
 14 15  1  0  0  0  0
 14 16  1  0  0  0  0
 14 17  1  0  0  0  0
 11 12  1  0  0  0  0
 11 13  1  0  0  0  0
 11 14  1  0  0  0  0
  9 10  1  0  0  0  0
  9 11  1  0  0  0  0
  9 21  1  0  0  0  0
  7  8  1  0  0  0  0
  7  9  1  0  0  0  0
 25 26  1  0  0  0  0
 25 27  1  0  0  0  0
 25 28  1  0  0  0  0
 23 24  1  0  0  0  0
 23 25  1  0  0  0  0
M  END
$$$$
default_name
  -OEChem-02102213163D

 28 27  0     1  0  0  0  0  0999 V2000
   -3.2133   -3.5565    1.2809 H   0  0  0  0  0  0  0  0  0  0  0  0
   -3.1873   -2.5755    0.8089 C   0  0  0  0  0  0  0  0  0  0  0  0
   -3.8793   -1.9065    1.3169 H   0  0  0  0  0  0  0  0  0  0  0  0
   -3.4623   -2.6685   -0.2401 H   0  0  0  0  0  0  0  0  0  0  0  0
   -1.7863   -2.0195    0.9119 C   0  0  0  0  0  0  0  0  0  0  0  0
   -0.9073   -2.6615    1.4699 O   0  0  0  0  0  0  0  0  0  0  0  0
   -1.5803   -0.8195    0.3749 N   0  0  0  0  0  0  0  0  0  0  0  0
   -2.3603   -0.3345   -0.0451 H   0  0  0  0  0  0  0  0  0  0  0  0
   -0.2933   -0.1205    0.3719 C   0  0  1  0  0  0  0  0  0  0  0  0
    0.4439   -0.7485   -0.1303 H   0  0  0  0  0  0  0  0  0  0  0  0
   -0.4368    1.1924   -0.4246 C   0  0  0  0  0  0  0  0  0  0  0  0
   -1.1862    1.8106    0.0726 H   0  0  0  0  0  0  0  0  0  0  0  0
    0.5125    1.7299   -0.4066 H   0  0  0  0  0  0  0  0  0  0  0  0
   -0.8556    0.9894   -1.8910 C   0  0  0  0  0  0  0  0  0  0  0  0
   -1.6736    0.2712   -1.9475 H   0  0  0  0  0  0  0  0  0  0  0  0
   -1.1878    1.9414   -2.3034 H   0  0  0  0  0  0  0  0  0  0  0  0
    0.2917    0.4741   -2.7540 C   0  0  0  0  0  0  0  0  0  0  0  0
    1.4487    0.3564   -2.3834 O   0  0  0  0  0  0  0  0  0  0  0  0
   -0.0354    0.1456   -4.0176 O   0  0  0  0  0  0  0  0  0  0  0  0
    0.7846   -0.1421   -4.4227 H   0  0  0  0  0  0  0  0  0  0  0  0
    0.1871    0.1189    1.8122 C   0  0  0  0  0  0  0  0  0  0  0  0
    1.3541   -0.1171    2.1187 O   0  0  0  0  0  0  0  0  0  0  0  0
   -0.7126    0.5740    2.6926 N   0  0  0  0  0  0  0  0  0  0  0  0
   -1.6464    0.7663    2.3621 H   0  0  0  0  0  0  0  0  0  0  0  0
   -0.4191    0.8310    4.1010 C   0  0  0  0  0  0  0  0  0  0  0  0
    0.4022    1.5452    4.1828 H   0  0  0  0  0  0  0  0  0  0  0  0
   -1.2983    1.2366    4.6035 H   0  0  0  0  0  0  0  0  0  0  0  0
   -0.1204   -0.0980    4.5907 H   0  0  0  0  0  0  0  0  0  0  0  0
  5  6  2  0  0  0  0
  5  7  1  0  0  0  0
  2  3  1  0  0  0  0
  2  4  1  0  0  0  0
  2  5  1  0  0  0  0
  1  2  1  0  0  0  0
 21 22  2  0  0  0  0
 21 23  1  0  0  0  0
 19 20  1  0  0  0  0
 17 18  2  0  0  0  0
 17 19  1  0  0  0  0
 14 15  1  0  0  0  0
 14 16  1  0  0  0  0
 14 17  1  0  0  0  0
 11 12  1  0  0  0  0
 11 13  1  0  0  0  0
 11 14  1  0  0  0  0
  9 10  1  0  0  0  0
  9 11  1  0  0  0  0
  9 21  1  0  0  0  0
  7  8  1  0  0  0  0
  7  9  1  0  0  0  0
 25 26  1  0  0  0  0
 25 27  1  0  0  0  0
 25 28  1  0  0  0  0
 23 24  1  0  0  0  0
 23 25  1  0  0  0  0
M  END
$$$$
default_name
  -OEChem-02102213163D

 28 27  0     1  0  0  0  0  0999 V2000
   -3.2133   -3.5565    1.2809 H   0  0  0  0  0  0  0  0  0  0  0  0
   -3.1873   -2.5755    0.8089 C   0  0  0  0  0  0  0  0  0  0  0  0
   -3.8793   -1.9065    1.3169 H   0  0  0  0  0  0  0  0  0  0  0  0
   -3.4623   -2.6685   -0.2401 H   0  0  0  0  0  0  0  0  0  0  0  0
   -1.7863   -2.0195    0.9119 C   0  0  0  0  0  0  0  0  0  0  0  0
   -0.9073   -2.6615    1.4699 O   0  0  0  0  0  0  0  0  0  0  0  0
   -1.5803   -0.8195    0.3749 N   0  0  0  0  0  0  0  0  0  0  0  0
   -2.3603   -0.3345   -0.0451 H   0  0  0  0  0  0  0  0  0  0  0  0
   -0.2933   -0.1205    0.3719 C   0  0  1  0  0  0  0  0  0  0  0  0
    0.4439   -0.7485   -0.1303 H   0  0  0  0  0  0  0  0  0  0  0  0
   -0.4368    1.1924   -0.4246 C   0  0  0  0  0  0  0  0  0  0  0  0
   -1.1862    1.8106    0.0726 H   0  0  0  0  0  0  0  0  0  0  0  0
    0.5125    1.7299   -0.4066 H   0  0  0  0  0  0  0  0  0  0  0  0
   -0.8556    0.9894   -1.8910 C   0  0  0  0  0  0  0  0  0  0  0  0
   -1.8245    0.4918   -1.9349 H   0  0  0  0  0  0  0  0  0  0  0  0
   -0.9309    1.9602   -2.3794 H   0  0  0  0  0  0  0  0  0  0  0  0
    0.1496    0.1452   -2.6679 C   0  0  0  0  0  0  0  0  0  0  0  0
    1.2315   -0.2249   -2.2409 O   0  0  0  0  0  0  0  0  0  0  0  0
   -0.2166   -0.1865   -3.9198 O   0  0  0  0  0  0  0  0  0  0  0  0
    0.5165   -0.6960   -4.2694 H   0  0  0  0  0  0  0  0  0  0  0  0
    0.1871    0.1189    1.8122 C   0  0  0  0  0  0  0  0  0  0  0  0
    1.3541   -0.1171    2.1187 O   0  0  0  0  0  0  0  0  0  0  0  0
   -0.7126    0.5740    2.6926 N   0  0  0  0  0  0  0  0  0  0  0  0
   -1.6464    0.7663    2.3621 H   0  0  0  0  0  0  0  0  0  0  0  0
   -0.4191    0.8310    4.1010 C   0  0  0  0  0  0  0  0  0  0  0  0
    0.4022    1.5452    4.1828 H   0  0  0  0  0  0  0  0  0  0  0  0
   -1.2983    1.2366    4.6035 H   0  0  0  0  0  0  0  0  0  0  0  0
   -0.1204   -0.0980    4.5907 H   0  0  0  0  0  0  0  0  0  0  0  0
  5  6  2  0  0  0  0
  5  7  1  0  0  0  0
  2  3  1  0  0  0  0
  2  4  1  0  0  0  0
  2  5  1  0  0  0  0
  1  2  1  0  0  0  0
 21 22  2  0  0  0  0
 21 23  1  0  0  0  0
 19 20  1  0  0  0  0
 17 18  2  0  0  0  0
 17 19  1  0  0  0  0
 14 15  1  0  0  0  0
 14 16  1  0  0  0  0
 14 17  1  0  0  0  0
 11 12  1  0  0  0  0
 11 13  1  0  0  0  0
 11 14  1  0  0  0  0
  9 10  1  0  0  0  0
  9 11  1  0  0  0  0
  9 21  1  0  0  0  0
  7  8  1  0  0  0  0
  7  9  1  0  0  0  0
 25 26  1  0  0  0  0
 25 27  1  0  0  0  0
 25 28  1  0  0  0  0
 23 24  1  0  0  0  0
 23 25  1  0  0  0  0
M  END
$$$$
default_name
  -OEChem-02102213163D

 28 27  0     1  0  0  0  0  0999 V2000
   -3.2133   -3.5565    1.2809 H   0  0  0  0  0  0  0  0  0  0  0  0
   -3.1873   -2.5755    0.8089 C   0  0  0  0  0  0  0  0  0  0  0  0
   -3.8793   -1.9065    1.3169 H   0  0  0  0  0  0  0  0  0  0  0  0
   -3.4623   -2.6685   -0.2401 H   0  0  0  0  0  0  0  0  0  0  0  0
   -1.7863   -2.0195    0.9119 C   0  0  0  0  0  0  0  0  0  0  0  0
   -0.9073   -2.6615    1.4699 O   0  0  0  0  0  0  0  0  0  0  0  0
   -1.5803   -0.8195    0.3749 N   0  0  0  0  0  0  0  0  0  0  0  0
   -2.3603   -0.3345   -0.0451 H   0  0  0  0  0  0  0  0  0  0  0  0
   -0.2933   -0.1205    0.3719 C   0  0  1  0  0  0  0  0  0  0  0  0
    0.4439   -0.7485   -0.1303 H   0  0  0  0  0  0  0  0  0  0  0  0
   -0.4368    1.1924   -0.4246 C   0  0  0  0  0  0  0  0  0  0  0  0
   -1.1862    1.8106    0.0726 H   0  0  0  0  0  0  0  0  0  0  0  0
    0.5125    1.7299   -0.4066 H   0  0  0  0  0  0  0  0  0  0  0  0
   -0.8556    0.9894   -1.8910 C   0  0  0  0  0  0  0  0  0  0  0  0
   -1.9161    0.7430   -1.9435 H   0  0  0  0  0  0  0  0  0  0  0  0
   -0.6755    1.9097   -2.4454 H   0  0  0  0  0  0  0  0  0  0  0  0
   -0.0717   -0.1313   -2.5663 C   0  0  0  0  0  0  0  0  0  0  0  0
    0.8735   -0.7227   -2.0697 O   0  0  0  0  0  0  0  0  0  0  0  0
   -0.4769   -0.4556   -3.8082 O   0  0  0  0  0  0  0  0  0  0  0  0
    0.1156   -1.1541   -4.0915 H   0  0  0  0  0  0  0  0  0  0  0  0
    0.1871    0.1189    1.8122 C   0  0  0  0  0  0  0  0  0  0  0  0
    1.3541   -0.1171    2.1187 O   0  0  0  0  0  0  0  0  0  0  0  0
   -0.7126    0.5740    2.6926 N   0  0  0  0  0  0  0  0  0  0  0  0
   -1.6464    0.7663    2.3621 H   0  0  0  0  0  0  0  0  0  0  0  0
   -0.4191    0.8310    4.1010 C   0  0  0  0  0  0  0  0  0  0  0  0
    0.4022    1.5452    4.1828 H   0  0  0  0  0  0  0  0  0  0  0  0
   -1.2983    1.2366    4.6035 H   0  0  0  0  0  0  0  0  0  0  0  0
   -0.1204   -0.0980    4.5907 H   0  0  0  0  0  0  0  0  0  0  0  0
  5  6  2  0  0  0  0
  5  7  1  0  0  0  0
  2  3  1  0  0  0  0
  2  4  1  0  0  0  0
  2  5  1  0  0  0  0
  1  2  1  0  0  0  0
 21 22  2  0  0  0  0
 21 23  1  0  0  0  0
 19 20  1  0  0  0  0
 17 18  2  0  0  0  0
 17 19  1  0  0  0  0
 14 15  1  0  0  0  0
 14 16  1  0  0  0  0
 14 17  1  0  0  0  0
 11 12  1  0  0  0  0
 11 13  1  0  0  0  0
 11 14  1  0  0  0  0
  9 10  1  0  0  0  0
  9 11  1  0  0  0  0
  9 21  1  0  0  0  0
  7  8  1  0  0  0  0
  7  9  1  0  0  0  0
 25 26  1  0  0  0  0
 25 27  1  0  0  0  0
 25 28  1  0  0  0  0
 23 24  1  0  0  0  0
 23 25  1  0  0  0  0
M  END
$$$$
default_name
  -OEChem-02102213163D

 28 27  0     1  0  0  0  0  0999 V2000
   -3.2133   -3.5565    1.2809 H   0  0  0  0  0  0  0  0  0  0  0  0
   -3.1873   -2.5755    0.8089 C   0  0  0  0  0  0  0  0  0  0  0  0
   -3.8793   -1.9065    1.3169 H   0  0  0  0  0  0  0  0  0  0  0  0
   -3.4623   -2.6685   -0.2401 H   0  0  0  0  0  0  0  0  0  0  0  0
   -1.7863   -2.0195    0.9119 C   0  0  0  0  0  0  0  0  0  0  0  0
   -0.9073   -2.6615    1.4699 O   0  0  0  0  0  0  0  0  0  0  0  0
   -1.5803   -0.8195    0.3749 N   0  0  0  0  0  0  0  0  0  0  0  0
   -2.3603   -0.3345   -0.0451 H   0  0  0  0  0  0  0  0  0  0  0  0
   -0.2933   -0.1205    0.3719 C   0  0  1  0  0  0  0  0  0  0  0  0
    0.4439   -0.7485   -0.1303 H   0  0  0  0  0  0  0  0  0  0  0  0
   -0.4368    1.1924   -0.4246 C   0  0  0  0  0  0  0  0  0  0  0  0
   -1.1862    1.8106    0.0726 H   0  0  0  0  0  0  0  0  0  0  0  0
    0.5125    1.7299   -0.4066 H   0  0  0  0  0  0  0  0  0  0  0  0
   -0.8556    0.9894   -1.8910 C   0  0  0  0  0  0  0  0  0  0  0  0
   -1.9424    1.0077   -1.9727 H   0  0  0  0  0  0  0  0  0  0  0  0
   -0.4390    1.7932   -2.4968 H   0  0  0  0  0  0  0  0  0  0  0  0
   -0.3572   -0.3367   -2.4564 C   0  0  0  0  0  0  0  0  0  0  0  0
    0.3991   -1.1031   -1.8815 O   0  0  0  0  0  0  0  0  0  0  0  0
   -0.7986   -0.6434   -3.6904 O   0  0  0  0  0  0  0  0  0  0  0  0
   -0.3908   -1.4852   -3.9010 H   0  0  0  0  0  0  0  0  0  0  0  0
    0.1871    0.1189    1.8122 C   0  0  0  0  0  0  0  0  0  0  0  0
    1.3541   -0.1171    2.1187 O   0  0  0  0  0  0  0  0  0  0  0  0
   -0.7126    0.5740    2.6926 N   0  0  0  0  0  0  0  0  0  0  0  0
   -1.6464    0.7663    2.3621 H   0  0  0  0  0  0  0  0  0  0  0  0
   -0.4191    0.8310    4.1010 C   0  0  0  0  0  0  0  0  0  0  0  0
    0.4022    1.5452    4.1828 H   0  0  0  0  0  0  0  0  0  0  0  0
   -1.2983    1.2366    4.6035 H   0  0  0  0  0  0  0  0  0  0  0  0
   -0.1204   -0.0980    4.5907 H   0  0  0  0  0  0  0  0  0  0  0  0
  5  6  2  0  0  0  0
  5  7  1  0  0  0  0
  2  3  1  0  0  0  0
  2  4  1  0  0  0  0
  2  5  1  0  0  0  0
  1  2  1  0  0  0  0
 21 22  2  0  0  0  0
 21 23  1  0  0  0  0
 19 20  1  0  0  0  0
 17 18  2  0  0  0  0
 17 19  1  0  0  0  0
 14 15  1  0  0  0  0
 14 16  1  0  0  0  0
 14 17  1  0  0  0  0
 11 12  1  0  0  0  0
 11 13  1  0  0  0  0
 11 14  1  0  0  0  0
  9 10  1  0  0  0  0
  9 11  1  0  0  0  0
  9 21  1  0  0  0  0
  7  8  1  0  0  0  0
  7  9  1  0  0  0  0
 25 26  1  0  0  0  0
 25 27  1  0  0  0  0
 25 28  1  0  0  0  0
 23 24  1  0  0  0  0
 23 25  1  0  0  0  0
M  END
$$$$
default_name
  -OEChem-02102213163D

 28 27  0     1  0  0  0  0  0999 V2000
   -3.2133   -3.5565    1.2809 H   0  0  0  0  0  0  0  0  0  0  0  0
   -3.1873   -2.5755    0.8089 C   0  0  0  0  0  0  0  0  0  0  0  0
   -3.8793   -1.9065    1.3169 H   0  0  0  0  0  0  0  0  0  0  0  0
   -3.4623   -2.6685   -0.2401 H   0  0  0  0  0  0  0  0  0  0  0  0
   -1.7863   -2.0195    0.9119 C   0  0  0  0  0  0  0  0  0  0  0  0
   -0.9073   -2.6615    1.4699 O   0  0  0  0  0  0  0  0  0  0  0  0
   -1.5803   -0.8195    0.3749 N   0  0  0  0  0  0  0  0  0  0  0  0
   -2.3603   -0.3345   -0.0451 H   0  0  0  0  0  0  0  0  0  0  0  0
   -0.2933   -0.1205    0.3719 C   0  0  1  0  0  0  0  0  0  0  0  0
    0.4439   -0.7485   -0.1303 H   0  0  0  0  0  0  0  0  0  0  0  0
   -0.4368    1.1924   -0.4246 C   0  0  0  0  0  0  0  0  0  0  0  0
   -1.1862    1.8106    0.0726 H   0  0  0  0  0  0  0  0  0  0  0  0
    0.5125    1.7299   -0.4066 H   0  0  0  0  0  0  0  0  0  0  0  0
   -0.8556    0.9894   -1.8910 C   0  0  0  0  0  0  0  0  0  0  0  0
   -1.9015    1.2677   -2.0204 H   0  0  0  0  0  0  0  0  0  0  0  0
   -0.2375    1.6188   -2.5302 H   0  0  0  0  0  0  0  0  0  0  0  0
   -0.6873   -0.4569   -2.3454 C   0  0  0  0  0  0  0  0  0  0  0  0
   -0.1595   -1.3403   -1.6891 O   0  0  0  0  0  0  0  0  0  0  0  0
   -1.1596   -0.7373   -3.5742 O   0  0  0  0  0  0  0  0  0  0  0  0
   -0.9680   -1.6667   -3.7110 H   0  0  0  0  0  0  0  0  0  0  0  0
    0.1871    0.1189    1.8122 C   0  0  0  0  0  0  0  0  0  0  0  0
    1.3541   -0.1171    2.1187 O   0  0  0  0  0  0  0  0  0  0  0  0
   -0.7126    0.5740    2.6926 N   0  0  0  0  0  0  0  0  0  0  0  0
   -1.6464    0.7663    2.3621 H   0  0  0  0  0  0  0  0  0  0  0  0
   -0.4191    0.8310    4.1010 C   0  0  0  0  0  0  0  0  0  0  0  0
    0.4022    1.5452    4.1828 H   0  0  0  0  0  0  0  0  0  0  0  0
   -1.2983    1.2366    4.6035 H   0  0  0  0  0  0  0  0  0  0  0  0
   -0.1204   -0.0980    4.5907 H   0  0  0  0  0  0  0  0  0  0  0  0
  5  6  2  0  0  0  0
  5  7  1  0  0  0  0
  2  3  1  0  0  0  0
  2  4  1  0  0  0  0
  2  5  1  0  0  0  0
  1  2  1  0  0  0  0
 21 22  2  0  0  0  0
 21 23  1  0  0  0  0
 19 20  1  0  0  0  0
 17 18  2  0  0  0  0
 17 19  1  0  0  0  0
 14 15  1  0  0  0  0
 14 16  1  0  0  0  0
 14 17  1  0  0  0  0
 11 12  1  0  0  0  0
 11 13  1  0  0  0  0
 11 14  1  0  0  0  0
  9 10  1  0  0  0  0
  9 11  1  0  0  0  0
  9 21  1  0  0  0  0
  7  8  1  0  0  0  0
  7  9  1  0  0  0  0
 25 26  1  0  0  0  0
 25 27  1  0  0  0  0
 25 28  1  0  0  0  0
 23 24  1  0  0  0  0
 23 25  1  0  0  0  0
M  END
$$$$
default_name
  -OEChem-02102213163D

 28 27  0     1  0  0  0  0  0999 V2000
   -3.2133   -3.5565    1.2809 H   0  0  0  0  0  0  0  0  0  0  0  0
   -3.1873   -2.5755    0.8089 C   0  0  0  0  0  0  0  0  0  0  0  0
   -3.8793   -1.9065    1.3169 H   0  0  0  0  0  0  0  0  0  0  0  0
   -3.4623   -2.6685   -0.2401 H   0  0  0  0  0  0  0  0  0  0  0  0
   -1.7863   -2.0195    0.9119 C   0  0  0  0  0  0  0  0  0  0  0  0
   -0.9073   -2.6615    1.4699 O   0  0  0  0  0  0  0  0  0  0  0  0
   -1.5803   -0.8195    0.3749 N   0  0  0  0  0  0  0  0  0  0  0  0
   -2.3603   -0.3345   -0.0451 H   0  0  0  0  0  0  0  0  0  0  0  0
   -0.2933   -0.1205    0.3719 C   0  0  1  0  0  0  0  0  0  0  0  0
    0.4439   -0.7485   -0.1303 H   0  0  0  0  0  0  0  0  0  0  0  0
   -0.4368    1.1924   -0.4246 C   0  0  0  0  0  0  0  0  0  0  0  0
   -1.1862    1.8106    0.0726 H   0  0  0  0  0  0  0  0  0  0  0  0
    0.5125    1.7299   -0.4066 H   0  0  0  0  0  0  0  0  0  0  0  0
   -0.8556    0.9894   -1.8910 C   0  0  0  0  0  0  0  0  0  0  0  0
   -1.7963    1.5055   -2.0834 H   0  0  0  0  0  0  0  0  0  0  0  0
   -0.0848    1.3982   -2.5433 H   0  0  0  0  0  0  0  0  0  0  0  0
   -1.0397   -0.4837   -2.2411 C   0  0  0  0  0  0  0  0  0  0  0  0
   -0.7642   -1.4181   -1.5056 O   0  0  0  0  0  0  0  0  0  0  0  0
   -1.5354   -0.7306   -3.4678 O   0  0  0  0  0  0  0  0  0  0  0  0
   -1.5769   -1.6862   -3.5344 H   0  0  0  0  0  0  0  0  0  0  0  0
    0.1871    0.1189    1.8122 C   0  0  0  0  0  0  0  0  0  0  0  0
    1.3541   -0.1171    2.1187 O   0  0  0  0  0  0  0  0  0  0  0  0
   -0.7126    0.5740    2.6926 N   0  0  0  0  0  0  0  0  0  0  0  0
   -1.6464    0.7663    2.3621 H   0  0  0  0  0  0  0  0  0  0  0  0
   -0.4191    0.8310    4.1010 C   0  0  0  0  0  0  0  0  0  0  0  0
    0.4022    1.5452    4.1828 H   0  0  0  0  0  0  0  0  0  0  0  0
   -1.2983    1.2366    4.6035 H   0  0  0  0  0  0  0  0  0  0  0  0
   -0.1204   -0.0980    4.5907 H   0  0  0  0  0  0  0  0  0  0  0  0
  5  6  2  0  0  0  0
  5  7  1  0  0  0  0
  2  3  1  0  0  0  0
  2  4  1  0  0  0  0
  2  5  1  0  0  0  0
  1  2  1  0  0  0  0
 21 22  2  0  0  0  0
 21 23  1  0  0  0  0
 19 20  1  0  0  0  0
 17 18  2  0  0  0  0
 17 19  1  0  0  0  0
 14 15  1  0  0  0  0
 14 16  1  0  0  0  0
 14 17  1  0  0  0  0
 11 12  1  0  0  0  0
 11 13  1  0  0  0  0
 11 14  1  0  0  0  0
  9 10  1  0  0  0  0
  9 11  1  0  0  0  0
  9 21  1  0  0  0  0
  7  8  1  0  0  0  0
  7  9  1  0  0  0  0
 25 26  1  0  0  0  0
 25 27  1  0  0  0  0
 25 28  1  0  0  0  0
 23 24  1  0  0  0  0
 23 25  1  0  0  0  0
M  END
$$$$
default_name
  -OEChem-02102213163D

 28 27  0     1  0  0  0  0  0999 V2000
   -3.2133   -3.5565    1.2809 H   0  0  0  0  0  0  0  0  0  0  0  0
   -3.1873   -2.5755    0.8089 C   0  0  0  0  0  0  0  0  0  0  0  0
   -3.8793   -1.9065    1.3169 H   0  0  0  0  0  0  0  0  0  0  0  0
   -3.4623   -2.6685   -0.2401 H   0  0  0  0  0  0  0  0  0  0  0  0
   -1.7863   -2.0195    0.9119 C   0  0  0  0  0  0  0  0  0  0  0  0
   -0.9073   -2.6615    1.4699 O   0  0  0  0  0  0  0  0  0  0  0  0
   -1.5803   -0.8195    0.3749 N   0  0  0  0  0  0  0  0  0  0  0  0
   -2.3603   -0.3345   -0.0451 H   0  0  0  0  0  0  0  0  0  0  0  0
   -0.2933   -0.1205    0.3719 C   0  0  1  0  0  0  0  0  0  0  0  0
    0.4439   -0.7485   -0.1303 H   0  0  0  0  0  0  0  0  0  0  0  0
   -0.4368    1.1924   -0.4246 C   0  0  0  0  0  0  0  0  0  0  0  0
   -1.1862    1.8106    0.0726 H   0  0  0  0  0  0  0  0  0  0  0  0
    0.5125    1.7299   -0.4066 H   0  0  0  0  0  0  0  0  0  0  0  0
   -0.8556    0.9894   -1.8910 C   0  0  0  0  0  0  0  0  0  0  0  0
   -1.6338    1.7047   -2.1574 H   0  0  0  0  0  0  0  0  0  0  0  0
    0.0088    1.1466   -2.5351 H   0  0  0  0  0  0  0  0  0  0  0  0
   -1.3902   -0.4154   -2.1504 C   0  0  0  0  0  0  0  0  0  0  0  0
   -1.3737   -1.3311   -1.3436 O   0  0  0  0  0  0  0  0  0  0  0  0
   -1.9005   -0.6240   -3.3783 O   0  0  0  0  0  0  0  0  0  0  0  0
   -2.1758   -1.5424   -3.3832 H   0  0  0  0  0  0  0  0  0  0  0  0
    0.1871    0.1189    1.8122 C   0  0  0  0  0  0  0  0  0  0  0  0
    1.3541   -0.1171    2.1187 O   0  0  0  0  0  0  0  0  0  0  0  0
   -0.7126    0.5740    2.6926 N   0  0  0  0  0  0  0  0  0  0  0  0
   -1.6464    0.7663    2.3621 H   0  0  0  0  0  0  0  0  0  0  0  0
   -0.4191    0.8310    4.1010 C   0  0  0  0  0  0  0  0  0  0  0  0
    0.4022    1.5452    4.1828 H   0  0  0  0  0  0  0  0  0  0  0  0
   -1.2983    1.2366    4.6035 H   0  0  0  0  0  0  0  0  0  0  0  0
   -0.1204   -0.0980    4.5907 H   0  0  0  0  0  0  0  0  0  0  0  0
  5  6  2  0  0  0  0
  5  7  1  0  0  0  0
  2  3  1  0  0  0  0
  2  4  1  0  0  0  0
  2  5  1  0  0  0  0
  1  2  1  0  0  0  0
 21 22  2  0  0  0  0
 21 23  1  0  0  0  0
 19 20  1  0  0  0  0
 17 18  2  0  0  0  0
 17 19  1  0  0  0  0
 14 15  1  0  0  0  0
 14 16  1  0  0  0  0
 14 17  1  0  0  0  0
 11 12  1  0  0  0  0
 11 13  1  0  0  0  0
 11 14  1  0  0  0  0
  9 10  1  0  0  0  0
  9 11  1  0  0  0  0
  9 21  1  0  0  0  0
  7  8  1  0  0  0  0
  7  9  1  0  0  0  0
 25 26  1  0  0  0  0
 25 27  1  0  0  0  0
 25 28  1  0  0  0  0
 23 24  1  0  0  0  0
 23 25  1  0  0  0  0
M  END
$$$$
default_name
  -OEChem-02102213163D

 28 27  0     1  0  0  0  0  0999 V2000
   -3.2133   -3.5565    1.2809 H   0  0  0  0  0  0  0  0  0  0  0  0
   -3.1873   -2.5755    0.8089 C   0  0  0  0  0  0  0  0  0  0  0  0
   -3.8793   -1.9065    1.3169 H   0  0  0  0  0  0  0  0  0  0  0  0
   -3.4623   -2.6685   -0.2401 H   0  0  0  0  0  0  0  0  0  0  0  0
   -1.7863   -2.0195    0.9119 C   0  0  0  0  0  0  0  0  0  0  0  0
   -0.9073   -2.6615    1.4699 O   0  0  0  0  0  0  0  0  0  0  0  0
   -1.5803   -0.8195    0.3749 N   0  0  0  0  0  0  0  0  0  0  0  0
   -2.3603   -0.3345   -0.0451 H   0  0  0  0  0  0  0  0  0  0  0  0
   -0.2933   -0.1205    0.3719 C   0  0  1  0  0  0  0  0  0  0  0  0
    0.4439   -0.7485   -0.1303 H   0  0  0  0  0  0  0  0  0  0  0  0
   -0.4368    1.1924   -0.4246 C   0  0  0  0  0  0  0  0  0  0  0  0
   -1.1862    1.8106    0.0726 H   0  0  0  0  0  0  0  0  0  0  0  0
    0.5125    1.7299   -0.4066 H   0  0  0  0  0  0  0  0  0  0  0  0
   -0.8556    0.9894   -1.8910 C   0  0  0  0  0  0  0  0  0  0  0  0
   -1.4251    1.8519   -2.2373 H   0  0  0  0  0  0  0  0  0  0  0  0
    0.0368    0.8810   -2.5063 H   0  0  0  0  0  0  0  0  0  0  0  0
   -1.7150   -0.2565   -2.0796 C   0  0  0  0  0  0  0  0  0  0  0  0
   -1.9465   -1.0853   -1.2140 O   0  0  0  0  0  0  0  0  0  0  0  0
   -2.2298   -0.4247   -3.3119 O   0  0  0  0  0  0  0  0  0  0  0  0
   -2.7240   -1.2451   -3.2678 H   0  0  0  0  0  0  0  0  0  0  0  0
    0.1871    0.1189    1.8122 C   0  0  0  0  0  0  0  0  0  0  0  0
    1.3541   -0.1171    2.1187 O   0  0  0  0  0  0  0  0  0  0  0  0
   -0.7126    0.5740    2.6926 N   0  0  0  0  0  0  0  0  0  0  0  0
   -1.6464    0.7663    2.3621 H   0  0  0  0  0  0  0  0  0  0  0  0
   -0.4191    0.8310    4.1010 C   0  0  0  0  0  0  0  0  0  0  0  0
    0.4022    1.5452    4.1828 H   0  0  0  0  0  0  0  0  0  0  0  0
   -1.2983    1.2366    4.6035 H   0  0  0  0  0  0  0  0  0  0  0  0
   -0.1204   -0.0980    4.5907 H   0  0  0  0  0  0  0  0  0  0  0  0
  5  6  2  0  0  0  0
  5  7  1  0  0  0  0
  2  3  1  0  0  0  0
  2  4  1  0  0  0  0
  2  5  1  0  0  0  0
  1  2  1  0  0  0  0
 21 22  2  0  0  0  0
 21 23  1  0  0  0  0
 19 20  1  0  0  0  0
 17 18  2  0  0  0  0
 17 19  1  0  0  0  0
 14 15  1  0  0  0  0
 14 16  1  0  0  0  0
 14 17  1  0  0  0  0
 11 12  1  0  0  0  0
 11 13  1  0  0  0  0
 11 14  1  0  0  0  0
  9 10  1  0  0  0  0
  9 11  1  0  0  0  0
  9 21  1  0  0  0  0
  7  8  1  0  0  0  0
  7  9  1  0  0  0  0
 25 26  1  0  0  0  0
 25 27  1  0  0  0  0
 25 28  1  0  0  0  0
 23 24  1  0  0  0  0
 23 25  1  0  0  0  0
M  END
$$$$
default_name
  -OEChem-02102213163D

 28 27  0     1  0  0  0  0  0999 V2000
   -3.2133   -3.5565    1.2809 H   0  0  0  0  0  0  0  0  0  0  0  0
   -3.1873   -2.5755    0.8089 C   0  0  0  0  0  0  0  0  0  0  0  0
   -3.8793   -1.9065    1.3169 H   0  0  0  0  0  0  0  0  0  0  0  0
   -3.4623   -2.6685   -0.2401 H   0  0  0  0  0  0  0  0  0  0  0  0
   -1.7863   -2.0195    0.9119 C   0  0  0  0  0  0  0  0  0  0  0  0
   -0.9073   -2.6615    1.4699 O   0  0  0  0  0  0  0  0  0  0  0  0
   -1.5803   -0.8195    0.3749 N   0  0  0  0  0  0  0  0  0  0  0  0
   -2.3603   -0.3345   -0.0451 H   0  0  0  0  0  0  0  0  0  0  0  0
   -0.2933   -0.1205    0.3719 C   0  0  1  0  0  0  0  0  0  0  0  0
    0.4439   -0.7485   -0.1303 H   0  0  0  0  0  0  0  0  0  0  0  0
   -0.4368    1.1924   -0.4246 C   0  0  0  0  0  0  0  0  0  0  0  0
   -1.1862    1.8106    0.0726 H   0  0  0  0  0  0  0  0  0  0  0  0
    0.5125    1.7299   -0.4066 H   0  0  0  0  0  0  0  0  0  0  0  0
   -0.8556    0.9894   -1.8910 C   0  0  0  0  0  0  0  0  0  0  0  0
   -1.1846    1.9369   -2.3178 H   0  0  0  0  0  0  0  0  0  0  0  0
   -0.0026    0.6196   -2.4589 H   0  0  0  0  0  0  0  0  0  0  0  0
   -1.9920   -0.0179   -2.0336 C   0  0  0  0  0  0  0  0  0  0  0  0
   -2.4435   -0.6975   -1.1257 O   0  0  0  0  0  0  0  0  0  0  0  0
   -2.5011   -0.1462   -3.2730 O   0  0  0  0  0  0  0  0  0  0  0  0
   -3.1842   -0.8146   -3.1960 H   0  0  0  0  0  0  0  0  0  0  0  0
    0.1871    0.1189    1.8122 C   0  0  0  0  0  0  0  0  0  0  0  0
    1.3541   -0.1171    2.1187 O   0  0  0  0  0  0  0  0  0  0  0  0
   -0.7126    0.5740    2.6926 N   0  0  0  0  0  0  0  0  0  0  0  0
   -1.6464    0.7663    2.3621 H   0  0  0  0  0  0  0  0  0  0  0  0
   -0.4191    0.8310    4.1010 C   0  0  0  0  0  0  0  0  0  0  0  0
    0.4022    1.5452    4.1828 H   0  0  0  0  0  0  0  0  0  0  0  0
   -1.2983    1.2366    4.6035 H   0  0  0  0  0  0  0  0  0  0  0  0
   -0.1204   -0.0980    4.5907 H   0  0  0  0  0  0  0  0  0  0  0  0
  5  6  2  0  0  0  0
  5  7  1  0  0  0  0
  2  3  1  0  0  0  0
  2  4  1  0  0  0  0
  2  5  1  0  0  0  0
  1  2  1  0  0  0  0
 21 22  2  0  0  0  0
 21 23  1  0  0  0  0
 19 20  1  0  0  0  0
 17 18  2  0  0  0  0
 17 19  1  0  0  0  0
 14 15  1  0  0  0  0
 14 16  1  0  0  0  0
 14 17  1  0  0  0  0
 11 12  1  0  0  0  0
 11 13  1  0  0  0  0
 11 14  1  0  0  0  0
  9 10  1  0  0  0  0
  9 11  1  0  0  0  0
  9 21  1  0  0  0  0
  7  8  1  0  0  0  0
  7  9  1  0  0  0  0
 25 26  1  0  0  0  0
 25 27  1  0  0  0  0
 25 28  1  0  0  0  0
 23 24  1  0  0  0  0
 23 25  1  0  0  0  0
M  END
$$$$
default_name
  -OEChem-02102213163D

 28 27  0     1  0  0  0  0  0999 V2000
   -3.2133   -3.5565    1.2809 H   0  0  0  0  0  0  0  0  0  0  0  0
   -3.1873   -2.5755    0.8089 C   0  0  0  0  0  0  0  0  0  0  0  0
   -3.8793   -1.9065    1.3169 H   0  0  0  0  0  0  0  0  0  0  0  0
   -3.4623   -2.6685   -0.2401 H   0  0  0  0  0  0  0  0  0  0  0  0
   -1.7863   -2.0195    0.9119 C   0  0  0  0  0  0  0  0  0  0  0  0
   -0.9073   -2.6615    1.4699 O   0  0  0  0  0  0  0  0  0  0  0  0
   -1.5803   -0.8195    0.3749 N   0  0  0  0  0  0  0  0  0  0  0  0
   -2.3603   -0.3345   -0.0451 H   0  0  0  0  0  0  0  0  0  0  0  0
   -0.2933   -0.1205    0.3719 C   0  0  1  0  0  0  0  0  0  0  0  0
    0.4439   -0.7485   -0.1303 H   0  0  0  0  0  0  0  0  0  0  0  0
   -0.4368    1.1924   -0.4246 C   0  0  0  0  0  0  0  0  0  0  0  0
   -1.1862    1.8106    0.0726 H   0  0  0  0  0  0  0  0  0  0  0  0
    0.5125    1.7299   -0.4066 H   0  0  0  0  0  0  0  0  0  0  0  0
   -0.8556    0.9894   -1.8910 C   0  0  0  0  0  0  0  0  0  0  0  0
   -0.9285    1.9541   -2.3933 H   0  0  0  0  0  0  0  0  0  0  0  0
   -0.1068    0.3801   -2.3960 H   0  0  0  0  0  0  0  0  0  0  0  0
   -2.2023    0.2841   -2.0153 C   0  0  0  0  0  0  0  0  0  0  0  0
   -2.8310   -0.1940   -1.0848 O   0  0  0  0  0  0  0  0  0  0  0  0
   -2.6957    0.1924   -3.2643 O   0  0  0  0  0  0  0  0  0  0  0  0
   -3.5249   -0.2801   -3.1727 H   0  0  0  0  0  0  0  0  0  0  0  0
    0.1871    0.1189    1.8122 C   0  0  0  0  0  0  0  0  0  0  0  0
    1.3541   -0.1171    2.1187 O   0  0  0  0  0  0  0  0  0  0  0  0
   -0.7126    0.5740    2.6926 N   0  0  0  0  0  0  0  0  0  0  0  0
   -1.6464    0.7663    2.3621 H   0  0  0  0  0  0  0  0  0  0  0  0
   -0.4191    0.8310    4.1010 C   0  0  0  0  0  0  0  0  0  0  0  0
    0.4022    1.5452    4.1828 H   0  0  0  0  0  0  0  0  0  0  0  0
   -1.2983    1.2366    4.6035 H   0  0  0  0  0  0  0  0  0  0  0  0
   -0.1204   -0.0980    4.5907 H   0  0  0  0  0  0  0  0  0  0  0  0
  5  6  2  0  0  0  0
  5  7  1  0  0  0  0
  2  3  1  0  0  0  0
  2  4  1  0  0  0  0
  2  5  1  0  0  0  0
  1  2  1  0  0  0  0
 21 22  2  0  0  0  0
 21 23  1  0  0  0  0
 19 20  1  0  0  0  0
 17 18  2  0  0  0  0
 17 19  1  0  0  0  0
 14 15  1  0  0  0  0
 14 16  1  0  0  0  0
 14 17  1  0  0  0  0
 11 12  1  0  0  0  0
 11 13  1  0  0  0  0
 11 14  1  0  0  0  0
  9 10  1  0  0  0  0
  9 11  1  0  0  0  0
  9 21  1  0  0  0  0
  7  8  1  0  0  0  0
  7  9  1  0  0  0  0
 25 26  1  0  0  0  0
 25 27  1  0  0  0  0
 25 28  1  0  0  0  0
 23 24  1  0  0  0  0
 23 25  1  0  0  0  0
M  END
$$$$
default_name
  -OEChem-02102213163D

 28 27  0     1  0  0  0  0  0999 V2000
   -3.2133   -3.5565    1.2809 H   0  0  0  0  0  0  0  0  0  0  0  0
   -3.1873   -2.5755    0.8089 C   0  0  0  0  0  0  0  0  0  0  0  0
   -3.8793   -1.9065    1.3169 H   0  0  0  0  0  0  0  0  0  0  0  0
   -3.4623   -2.6685   -0.2401 H   0  0  0  0  0  0  0  0  0  0  0  0
   -1.7863   -2.0195    0.9119 C   0  0  0  0  0  0  0  0  0  0  0  0
   -0.9073   -2.6615    1.4699 O   0  0  0  0  0  0  0  0  0  0  0  0
   -1.5803   -0.8195    0.3749 N   0  0  0  0  0  0  0  0  0  0  0  0
   -2.3603   -0.3345   -0.0451 H   0  0  0  0  0  0  0  0  0  0  0  0
   -0.2933   -0.1205    0.3719 C   0  0  1  0  0  0  0  0  0  0  0  0
    0.4439   -0.7485   -0.1303 H   0  0  0  0  0  0  0  0  0  0  0  0
   -0.4368    1.1924   -0.4246 C   0  0  0  0  0  0  0  0  0  0  0  0
   -1.1862    1.8106    0.0726 H   0  0  0  0  0  0  0  0  0  0  0  0
    0.5125    1.7299   -0.4066 H   0  0  0  0  0  0  0  0  0  0  0  0
   -0.8556    0.9894   -1.8910 C   0  0  0  0  0  0  0  0  0  0  0  0
   -0.6743    1.9021   -2.4588 H   0  0  0  0  0  0  0  0  0  0  0  0
   -0.2687    0.1790   -2.3219 H   0  0  0  0  0  0  0  0  0  0  0  0
   -2.3315    0.6290   -2.0262 C   0  0  0  0  0  0  0  0  0  0  0  0
   -3.0825    0.3908   -1.0940 O   0  0  0  0  0  0  0  0  0  0  0  0
   -2.8004    0.5681   -3.2864 O   0  0  0  0  0  0  0  0  0  0  0  0
   -3.7230    0.3218   -3.1995 H   0  0  0  0  0  0  0  0  0  0  0  0
    0.1871    0.1189    1.8122 C   0  0  0  0  0  0  0  0  0  0  0  0
    1.3541   -0.1171    2.1187 O   0  0  0  0  0  0  0  0  0  0  0  0
   -0.7126    0.5740    2.6926 N   0  0  0  0  0  0  0  0  0  0  0  0
   -1.6464    0.7663    2.3621 H   0  0  0  0  0  0  0  0  0  0  0  0
   -0.4191    0.8310    4.1010 C   0  0  0  0  0  0  0  0  0  0  0  0
    0.4022    1.5452    4.1828 H   0  0  0  0  0  0  0  0  0  0  0  0
   -1.2983    1.2366    4.6035 H   0  0  0  0  0  0  0  0  0  0  0  0
   -0.1204   -0.0980    4.5907 H   0  0  0  0  0  0  0  0  0  0  0  0
  5  6  2  0  0  0  0
  5  7  1  0  0  0  0
  2  3  1  0  0  0  0
  2  4  1  0  0  0  0
  2  5  1  0  0  0  0
  1  2  1  0  0  0  0
 21 22  2  0  0  0  0
 21 23  1  0  0  0  0
 19 20  1  0  0  0  0
 17 18  2  0  0  0  0
 17 19  1  0  0  0  0
 14 15  1  0  0  0  0
 14 16  1  0  0  0  0
 14 17  1  0  0  0  0
 11 12  1  0  0  0  0
 11 13  1  0  0  0  0
 11 14  1  0  0  0  0
  9 10  1  0  0  0  0
  9 11  1  0  0  0  0
  9 21  1  0  0  0  0
  7  8  1  0  0  0  0
  7  9  1  0  0  0  0
 25 26  1  0  0  0  0
 25 27  1  0  0  0  0
 25 28  1  0  0  0  0
 23 24  1  0  0  0  0
 23 25  1  0  0  0  0
M  END
$$$$
default_name
  -OEChem-02102213163D

 28 27  0     1  0  0  0  0  0999 V2000
   -3.2133   -3.5565    1.2809 H   0  0  0  0  0  0  0  0  0  0  0  0
   -3.1873   -2.5755    0.8089 C   0  0  0  0  0  0  0  0  0  0  0  0
   -3.8793   -1.9065    1.3169 H   0  0  0  0  0  0  0  0  0  0  0  0
   -3.4623   -2.6685   -0.2401 H   0  0  0  0  0  0  0  0  0  0  0  0
   -1.7863   -2.0195    0.9119 C   0  0  0  0  0  0  0  0  0  0  0  0
   -0.9073   -2.6615    1.4699 O   0  0  0  0  0  0  0  0  0  0  0  0
   -1.5803   -0.8195    0.3749 N   0  0  0  0  0  0  0  0  0  0  0  0
   -2.3603   -0.3345   -0.0451 H   0  0  0  0  0  0  0  0  0  0  0  0
   -0.2933   -0.1205    0.3719 C   0  0  1  0  0  0  0  0  0  0  0  0
    0.4439   -0.7485   -0.1303 H   0  0  0  0  0  0  0  0  0  0  0  0
   -0.4368    1.1924   -0.4246 C   0  0  0  0  0  0  0  0  0  0  0  0
   -1.1862    1.8106    0.0726 H   0  0  0  0  0  0  0  0  0  0  0  0
    0.5125    1.7299   -0.4066 H   0  0  0  0  0  0  0  0  0  0  0  0
   -0.8556    0.9894   -1.8910 C   0  0  0  0  0  0  0  0  0  0  0  0
   -0.4393    1.7846   -2.5096 H   0  0  0  0  0  0  0  0  0  0  0  0
   -0.4772    0.0299   -2.2417 H   0  0  0  0  0  0  0  0  0  0  0  0
   -2.3709    0.9932   -2.0654 C   0  0  0  0  0  0  0  0  0  0  0  0
   -3.1808    1.0170   -1.1526 O   0  0  0  0  0  0  0  0  0  0  0  0
   -2.8082    0.9554   -3.3378 O   0  0  0  0  0  0  0  0  0  0  0  0
   -3.7649    0.9502   -3.2746 H   0  0  0  0  0  0  0  0  0  0  0  0
    0.1871    0.1189    1.8122 C   0  0  0  0  0  0  0  0  0  0  0  0
    1.3541   -0.1171    2.1187 O   0  0  0  0  0  0  0  0  0  0  0  0
   -0.7126    0.5740    2.6926 N   0  0  0  0  0  0  0  0  0  0  0  0
   -1.6464    0.7663    2.3621 H   0  0  0  0  0  0  0  0  0  0  0  0
   -0.4191    0.8310    4.1010 C   0  0  0  0  0  0  0  0  0  0  0  0
    0.4022    1.5452    4.1828 H   0  0  0  0  0  0  0  0  0  0  0  0
   -1.2983    1.2366    4.6035 H   0  0  0  0  0  0  0  0  0  0  0  0
   -0.1204   -0.0980    4.5907 H   0  0  0  0  0  0  0  0  0  0  0  0
  5  6  2  0  0  0  0
  5  7  1  0  0  0  0
  2  3  1  0  0  0  0
  2  4  1  0  0  0  0
  2  5  1  0  0  0  0
  1  2  1  0  0  0  0
 21 22  2  0  0  0  0
 21 23  1  0  0  0  0
 19 20  1  0  0  0  0
 17 18  2  0  0  0  0
 17 19  1  0  0  0  0
 14 15  1  0  0  0  0
 14 16  1  0  0  0  0
 14 17  1  0  0  0  0
 11 12  1  0  0  0  0
 11 13  1  0  0  0  0
 11 14  1  0  0  0  0
  9 10  1  0  0  0  0
  9 11  1  0  0  0  0
  9 21  1  0  0  0  0
  7  8  1  0  0  0  0
  7  9  1  0  0  0  0
 25 26  1  0  0  0  0
 25 27  1  0  0  0  0
 25 28  1  0  0  0  0
 23 24  1  0  0  0  0
 23 25  1  0  0  0  0
M  END
$$$$
default_name
  -OEChem-02102213163D

 28 27  0     1  0  0  0  0  0999 V2000
   -3.2133   -3.5565    1.2809 H   0  0  0  0  0  0  0  0  0  0  0  0
   -3.1873   -2.5755    0.8089 C   0  0  0  0  0  0  0  0  0  0  0  0
   -3.8793   -1.9065    1.3169 H   0  0  0  0  0  0  0  0  0  0  0  0
   -3.4623   -2.6685   -0.2401 H   0  0  0  0  0  0  0  0  0  0  0  0
   -1.7863   -2.0195    0.9119 C   0  0  0  0  0  0  0  0  0  0  0  0
   -0.9073   -2.6615    1.4699 O   0  0  0  0  0  0  0  0  0  0  0  0
   -1.5803   -0.8195    0.3749 N   0  0  0  0  0  0  0  0  0  0  0  0
   -2.3603   -0.3345   -0.0451 H   0  0  0  0  0  0  0  0  0  0  0  0
   -0.2933   -0.1205    0.3719 C   0  0  1  0  0  0  0  0  0  0  0  0
    0.4439   -0.7485   -0.1303 H   0  0  0  0  0  0  0  0  0  0  0  0
   -0.4368    1.1924   -0.4246 C   0  0  0  0  0  0  0  0  0  0  0  0
   -1.1862    1.8106    0.0726 H   0  0  0  0  0  0  0  0  0  0  0  0
    0.5125    1.7299   -0.4066 H   0  0  0  0  0  0  0  0  0  0  0  0
   -0.8556    0.9894   -1.8910 C   0  0  0  0  0  0  0  0  0  0  0  0
   -0.2397    1.6096   -2.5424 H   0  0  0  0  0  0  0  0  0  0  0  0
   -0.7181   -0.0571   -2.1608 H   0  0  0  0  0  0  0  0  0  0  0  0
   -2.3177    1.3520   -2.1303 C   0  0  0  0  0  0  0  0  0  0  0  0
   -3.1193    1.6420   -1.2567 O   0  0  0  0  0  0  0  0  0  0  0  0
   -2.7184    1.3276   -3.4150 O   0  0  0  0  0  0  0  0  0  0  0  0
   -3.6478    1.5622   -3.3928 H   0  0  0  0  0  0  0  0  0  0  0  0
    0.1871    0.1189    1.8122 C   0  0  0  0  0  0  0  0  0  0  0  0
    1.3541   -0.1171    2.1187 O   0  0  0  0  0  0  0  0  0  0  0  0
   -0.7126    0.5740    2.6926 N   0  0  0  0  0  0  0  0  0  0  0  0
   -1.6464    0.7663    2.3621 H   0  0  0  0  0  0  0  0  0  0  0  0
   -0.4191    0.8310    4.1010 C   0  0  0  0  0  0  0  0  0  0  0  0
    0.4022    1.5452    4.1828 H   0  0  0  0  0  0  0  0  0  0  0  0
   -1.2983    1.2366    4.6035 H   0  0  0  0  0  0  0  0  0  0  0  0
   -0.1204   -0.0980    4.5907 H   0  0  0  0  0  0  0  0  0  0  0  0
  5  6  2  0  0  0  0
  5  7  1  0  0  0  0
  2  3  1  0  0  0  0
  2  4  1  0  0  0  0
  2  5  1  0  0  0  0
  1  2  1  0  0  0  0
 21 22  2  0  0  0  0
 21 23  1  0  0  0  0
 19 20  1  0  0  0  0
 17 18  2  0  0  0  0
 17 19  1  0  0  0  0
 14 15  1  0  0  0  0
 14 16  1  0  0  0  0
 14 17  1  0  0  0  0
 11 12  1  0  0  0  0
 11 13  1  0  0  0  0
 11 14  1  0  0  0  0
  9 10  1  0  0  0  0
  9 11  1  0  0  0  0
  9 21  1  0  0  0  0
  7  8  1  0  0  0  0
  7  9  1  0  0  0  0
 25 26  1  0  0  0  0
 25 27  1  0  0  0  0
 25 28  1  0  0  0  0
 23 24  1  0  0  0  0
 23 25  1  0  0  0  0
M  END
$$$$
default_name
  -OEChem-02102213163D

 28 27  0     1  0  0  0  0  0999 V2000
   -3.2133   -3.5565    1.2809 H   0  0  0  0  0  0  0  0  0  0  0  0
   -3.1873   -2.5755    0.8089 C   0  0  0  0  0  0  0  0  0  0  0  0
   -3.8793   -1.9065    1.3169 H   0  0  0  0  0  0  0  0  0  0  0  0
   -3.4623   -2.6685   -0.2401 H   0  0  0  0  0  0  0  0  0  0  0  0
   -1.7863   -2.0195    0.9119 C   0  0  0  0  0  0  0  0  0  0  0  0
   -0.9073   -2.6615    1.4699 O   0  0  0  0  0  0  0  0  0  0  0  0
   -1.5803   -0.8195    0.3749 N   0  0  0  0  0  0  0  0  0  0  0  0
   -2.3603   -0.3345   -0.0451 H   0  0  0  0  0  0  0  0  0  0  0  0
   -0.2933   -0.1205    0.3719 C   0  0  1  0  0  0  0  0  0  0  0  0
    0.4439   -0.7485   -0.1303 H   0  0  0  0  0  0  0  0  0  0  0  0
   -0.4368    1.1924   -0.4246 C   0  0  0  0  0  0  0  0  0  0  0  0
   -1.1862    1.8106    0.0726 H   0  0  0  0  0  0  0  0  0  0  0  0
    0.5125    1.7299   -0.4066 H   0  0  0  0  0  0  0  0  0  0  0  0
   -0.8556    0.9894   -1.8910 C   0  0  0  0  0  0  0  0  0  0  0  0
   -0.0888    1.3889   -2.5549 H   0  0  0  0  0  0  0  0  0  0  0  0
   -0.9751   -0.0759   -2.0848 H   0  0  0  0  0  0  0  0  0  0  0  0
   -2.1756    1.6809   -2.2164 C   0  0  0  0  0  0  0  0  0  0  0  0
   -2.9022    2.2233   -1.3992 O   0  0  0  0  0  0  0  0  0  0  0  0
   -2.5371    1.6597   -3.5127 O   0  0  0  0  0  0  0  0  0  0  0  0
   -3.3796    2.1162   -3.5461 H   0  0  0  0  0  0  0  0  0  0  0  0
    0.1871    0.1189    1.8122 C   0  0  0  0  0  0  0  0  0  0  0  0
    1.3541   -0.1171    2.1187 O   0  0  0  0  0  0  0  0  0  0  0  0
   -0.7126    0.5740    2.6926 N   0  0  0  0  0  0  0  0  0  0  0  0
   -1.6464    0.7663    2.3621 H   0  0  0  0  0  0  0  0  0  0  0  0
   -0.4191    0.8310    4.1010 C   0  0  0  0  0  0  0  0  0  0  0  0
    0.4022    1.5452    4.1828 H   0  0  0  0  0  0  0  0  0  0  0  0
   -1.2983    1.2366    4.6035 H   0  0  0  0  0  0  0  0  0  0  0  0
   -0.1204   -0.0980    4.5907 H   0  0  0  0  0  0  0  0  0  0  0  0
  5  6  2  0  0  0  0
  5  7  1  0  0  0  0
  2  3  1  0  0  0  0
  2  4  1  0  0  0  0
  2  5  1  0  0  0  0
  1  2  1  0  0  0  0
 21 22  2  0  0  0  0
 21 23  1  0  0  0  0
 19 20  1  0  0  0  0
 17 18  2  0  0  0  0
 17 19  1  0  0  0  0
 14 15  1  0  0  0  0
 14 16  1  0  0  0  0
 14 17  1  0  0  0  0
 11 12  1  0  0  0  0
 11 13  1  0  0  0  0
 11 14  1  0  0  0  0
  9 10  1  0  0  0  0
  9 11  1  0  0  0  0
  9 21  1  0  0  0  0
  7  8  1  0  0  0  0
  7  9  1  0  0  0  0
 25 26  1  0  0  0  0
 25 27  1  0  0  0  0
 25 28  1  0  0  0  0
 23 24  1  0  0  0  0
 23 25  1  0  0  0  0
M  END
$$$$
default_name
  -OEChem-02102213163D

 28 27  0     1  0  0  0  0  0999 V2000
   -3.2133   -3.5565    1.2809 H   0  0  0  0  0  0  0  0  0  0  0  0
   -3.1873   -2.5755    0.8089 C   0  0  0  0  0  0  0  0  0  0  0  0
   -3.8793   -1.9065    1.3169 H   0  0  0  0  0  0  0  0  0  0  0  0
   -3.4623   -2.6685   -0.2401 H   0  0  0  0  0  0  0  0  0  0  0  0
   -1.7863   -2.0195    0.9119 C   0  0  0  0  0  0  0  0  0  0  0  0
   -0.9073   -2.6615    1.4699 O   0  0  0  0  0  0  0  0  0  0  0  0
   -1.5803   -0.8195    0.3749 N   0  0  0  0  0  0  0  0  0  0  0  0
   -2.3603   -0.3345   -0.0451 H   0  0  0  0  0  0  0  0  0  0  0  0
   -0.2933   -0.1205    0.3719 C   0  0  1  0  0  0  0  0  0  0  0  0
    0.4439   -0.7485   -0.1303 H   0  0  0  0  0  0  0  0  0  0  0  0
   -0.4368    1.1924   -0.4246 C   0  0  0  0  0  0  0  0  0  0  0  0
   -1.1862    1.8106    0.0726 H   0  0  0  0  0  0  0  0  0  0  0  0
    0.5125    1.7299   -0.4066 H   0  0  0  0  0  0  0  0  0  0  0  0
   -0.8556    0.9894   -1.8910 C   0  0  0  0  0  0  0  0  0  0  0  0
    0.0028    1.1377   -2.5463 H   0  0  0  0  0  0  0  0  0  0  0  0
   -1.2305   -0.0254   -2.0189 H   0  0  0  0  0  0  0  0  0  0  0  0
   -1.9543    1.9574   -2.3179 C   0  0  0  0  0  0  0  0  0  0  0  0
   -2.5441    2.7211   -1.5704 O   0  0  0  0  0  0  0  0  0  0  0  0
   -2.2769    1.9288   -3.6244 O   0  0  0  0  0  0  0  0  0  0  0  0
   -2.9787    2.5743   -3.7240 H   0  0  0  0  0  0  0  0  0  0  0  0
    0.1871    0.1189    1.8122 C   0  0  0  0  0  0  0  0  0  0  0  0
    1.3541   -0.1171    2.1187 O   0  0  0  0  0  0  0  0  0  0  0  0
   -0.7126    0.5740    2.6926 N   0  0  0  0  0  0  0  0  0  0  0  0
   -1.6464    0.7663    2.3621 H   0  0  0  0  0  0  0  0  0  0  0  0
   -0.4191    0.8310    4.1010 C   0  0  0  0  0  0  0  0  0  0  0  0
    0.4022    1.5452    4.1828 H   0  0  0  0  0  0  0  0  0  0  0  0
   -1.2983    1.2366    4.6035 H   0  0  0  0  0  0  0  0  0  0  0  0
   -0.1204   -0.0980    4.5907 H   0  0  0  0  0  0  0  0  0  0  0  0
  5  6  2  0  0  0  0
  5  7  1  0  0  0  0
  2  3  1  0  0  0  0
  2  4  1  0  0  0  0
  2  5  1  0  0  0  0
  1  2  1  0  0  0  0
 21 22  2  0  0  0  0
 21 23  1  0  0  0  0
 19 20  1  0  0  0  0
 17 18  2  0  0  0  0
 17 19  1  0  0  0  0
 14 15  1  0  0  0  0
 14 16  1  0  0  0  0
 14 17  1  0  0  0  0
 11 12  1  0  0  0  0
 11 13  1  0  0  0  0
 11 14  1  0  0  0  0
  9 10  1  0  0  0  0
  9 11  1  0  0  0  0
  9 21  1  0  0  0  0
  7  8  1  0  0  0  0
  7  9  1  0  0  0  0
 25 26  1  0  0  0  0
 25 27  1  0  0  0  0
 25 28  1  0  0  0  0
 23 24  1  0  0  0  0
 23 25  1  0  0  0  0
M  END
$$$$
default_name
  -OEChem-02102213163D

 28 27  0     1  0  0  0  0  0999 V2000
   -3.2133   -3.5565    1.2809 H   0  0  0  0  0  0  0  0  0  0  0  0
   -3.1873   -2.5755    0.8089 C   0  0  0  0  0  0  0  0  0  0  0  0
   -3.8793   -1.9065    1.3169 H   0  0  0  0  0  0  0  0  0  0  0  0
   -3.4623   -2.6685   -0.2401 H   0  0  0  0  0  0  0  0  0  0  0  0
   -1.7863   -2.0195    0.9119 C   0  0  0  0  0  0  0  0  0  0  0  0
   -0.9073   -2.6615    1.4699 O   0  0  0  0  0  0  0  0  0  0  0  0
   -1.5803   -0.8195    0.3749 N   0  0  0  0  0  0  0  0  0  0  0  0
   -2.3603   -0.3345   -0.0451 H   0  0  0  0  0  0  0  0  0  0  0  0
   -0.2933   -0.1205    0.3719 C   0  0  1  0  0  0  0  0  0  0  0  0
    0.4439   -0.7485   -0.1303 H   0  0  0  0  0  0  0  0  0  0  0  0
   -0.4368    1.1924   -0.4246 C   0  0  0  0  0  0  0  0  0  0  0  0
   -1.1862    1.8106    0.0726 H   0  0  0  0  0  0  0  0  0  0  0  0
    0.5125    1.7299   -0.4066 H   0  0  0  0  0  0  0  0  0  0  0  0
   -0.8556    0.9894   -1.8910 C   0  0  0  0  0  0  0  0  0  0  0  0
    0.0291    0.8731   -2.5171 H   0  0  0  0  0  0  0  0  0  0  0  0
   -1.4670    0.0910   -1.9674 H   0  0  0  0  0  0  0  0  0  0  0  0
   -1.6688    2.1628   -2.4279 C   0  0  0  0  0  0  0  0  0  0  0  0
   -2.0697    3.1015   -1.7586 O   0  0  0  0  0  0  0  0  0  0  0  0
   -1.9552    2.1166   -3.7422 O   0  0  0  0  0  0  0  0  0  0  0  0
   -2.4724    2.9054   -3.9145 H   0  0  0  0  0  0  0  0  0  0  0  0
    0.1871    0.1189    1.8122 C   0  0  0  0  0  0  0  0  0  0  0  0
    1.3541   -0.1171    2.1187 O   0  0  0  0  0  0  0  0  0  0  0  0
   -0.7126    0.5740    2.6926 N   0  0  0  0  0  0  0  0  0  0  0  0
   -1.6464    0.7663    2.3621 H   0  0  0  0  0  0  0  0  0  0  0  0
   -0.4191    0.8310    4.1010 C   0  0  0  0  0  0  0  0  0  0  0  0
    0.4022    1.5452    4.1828 H   0  0  0  0  0  0  0  0  0  0  0  0
   -1.2983    1.2366    4.6035 H   0  0  0  0  0  0  0  0  0  0  0  0
   -0.1204   -0.0980    4.5907 H   0  0  0  0  0  0  0  0  0  0  0  0
  5  6  2  0  0  0  0
  5  7  1  0  0  0  0
  2  3  1  0  0  0  0
  2  4  1  0  0  0  0
  2  5  1  0  0  0  0
  1  2  1  0  0  0  0
 21 22  2  0  0  0  0
 21 23  1  0  0  0  0
 19 20  1  0  0  0  0
 17 18  2  0  0  0  0
 17 19  1  0  0  0  0
 14 15  1  0  0  0  0
 14 16  1  0  0  0  0
 14 17  1  0  0  0  0
 11 12  1  0  0  0  0
 11 13  1  0  0  0  0
 11 14  1  0  0  0  0
  9 10  1  0  0  0  0
  9 11  1  0  0  0  0
  9 21  1  0  0  0  0
  7  8  1  0  0  0  0
  7  9  1  0  0  0  0
 25 26  1  0  0  0  0
 25 27  1  0  0  0  0
 25 28  1  0  0  0  0
 23 24  1  0  0  0  0
 23 25  1  0  0  0  0
M  END
$$$$
default_name
  -OEChem-02102213163D

 28 27  0     1  0  0  0  0  0999 V2000
   -3.2133   -3.5565    1.2809 H   0  0  0  0  0  0  0  0  0  0  0  0
   -3.1873   -2.5755    0.8089 C   0  0  0  0  0  0  0  0  0  0  0  0
   -3.8793   -1.9065    1.3169 H   0  0  0  0  0  0  0  0  0  0  0  0
   -3.4623   -2.6685   -0.2401 H   0  0  0  0  0  0  0  0  0  0  0  0
   -1.7863   -2.0195    0.9119 C   0  0  0  0  0  0  0  0  0  0  0  0
   -0.9073   -2.6615    1.4699 O   0  0  0  0  0  0  0  0  0  0  0  0
   -1.5803   -0.8195    0.3749 N   0  0  0  0  0  0  0  0  0  0  0  0
   -2.3603   -0.3345   -0.0451 H   0  0  0  0  0  0  0  0  0  0  0  0
   -0.2933   -0.1205    0.3719 C   0  0  1  0  0  0  0  0  0  0  0  0
    0.4439   -0.7485   -0.1303 H   0  0  0  0  0  0  0  0  0  0  0  0
   -0.4368    1.1924   -0.4246 C   0  0  0  0  0  0  0  0  0  0  0  0
   -1.1862    1.8106    0.0726 H   0  0  0  0  0  0  0  0  0  0  0  0
    0.5125    1.7299   -0.4066 H   0  0  0  0  0  0  0  0  0  0  0  0
   -0.8556    0.9894   -1.8910 C   0  0  0  0  0  0  0  0  0  0  0  0
   -0.0118    0.6130   -2.4695 H   0  0  0  0  0  0  0  0  0  0  0  0
   -1.6685    0.2655   -1.9340 H   0  0  0  0  0  0  0  0  0  0  0  0
   -1.3386    2.2830   -2.5388 C   0  0  0  0  0  0  0  0  0  0  0  0
   -1.5111    3.3387   -1.9510 O   0  0  0  0  0  0  0  0  0  0  0  0
   -1.5942    2.2105   -3.8583 O   0  0  0  0  0  0  0  0  0  0  0  0
   -1.8951    3.0869   -4.1045 H   0  0  0  0  0  0  0  0  0  0  0  0
    0.1871    0.1189    1.8122 C   0  0  0  0  0  0  0  0  0  0  0  0
    1.3541   -0.1171    2.1187 O   0  0  0  0  0  0  0  0  0  0  0  0
   -0.7126    0.5740    2.6926 N   0  0  0  0  0  0  0  0  0  0  0  0
   -1.6464    0.7663    2.3621 H   0  0  0  0  0  0  0  0  0  0  0  0
   -0.4191    0.8310    4.1010 C   0  0  0  0  0  0  0  0  0  0  0  0
    0.4022    1.5452    4.1828 H   0  0  0  0  0  0  0  0  0  0  0  0
   -1.2983    1.2366    4.6035 H   0  0  0  0  0  0  0  0  0  0  0  0
   -0.1204   -0.0980    4.5907 H   0  0  0  0  0  0  0  0  0  0  0  0
  5  6  2  0  0  0  0
  5  7  1  0  0  0  0
  2  3  1  0  0  0  0
  2  4  1  0  0  0  0
  2  5  1  0  0  0  0
  1  2  1  0  0  0  0
 21 22  2  0  0  0  0
 21 23  1  0  0  0  0
 19 20  1  0  0  0  0
 17 18  2  0  0  0  0
 17 19  1  0  0  0  0
 14 15  1  0  0  0  0
 14 16  1  0  0  0  0
 14 17  1  0  0  0  0
 11 12  1  0  0  0  0
 11 13  1  0  0  0  0
 11 14  1  0  0  0  0
  9 10  1  0  0  0  0
  9 11  1  0  0  0  0
  9 21  1  0  0  0  0
  7  8  1  0  0  0  0
  7  9  1  0  0  0  0
 25 26  1  0  0  0  0
 25 27  1  0  0  0  0
 25 28  1  0  0  0  0
 23 24  1  0  0  0  0
 23 25  1  0  0  0  0
M  END
$$$$
default_name
  -OEChem-02102213163D

 28 27  0     1  0  0  0  0  0999 V2000
   -3.2133   -3.5565    1.2809 H   0  0  0  0  0  0  0  0  0  0  0  0
   -3.1873   -2.5755    0.8089 C   0  0  0  0  0  0  0  0  0  0  0  0
   -3.8793   -1.9065    1.3169 H   0  0  0  0  0  0  0  0  0  0  0  0
   -3.4623   -2.6685   -0.2401 H   0  0  0  0  0  0  0  0  0  0  0  0
   -1.7863   -2.0195    0.9119 C   0  0  0  0  0  0  0  0  0  0  0  0
   -0.9073   -2.6615    1.4699 O   0  0  0  0  0  0  0  0  0  0  0  0
   -1.5803   -0.8195    0.3749 N   0  0  0  0  0  0  0  0  0  0  0  0
   -2.3603   -0.3345   -0.0451 H   0  0  0  0  0  0  0  0  0  0  0  0
   -0.2933   -0.1205    0.3719 C   0  0  1  0  0  0  0  0  0  0  0  0
    0.4439   -0.7485   -0.1303 H   0  0  0  0  0  0  0  0  0  0  0  0
   -0.4368    1.1924   -0.4246 C   0  0  0  0  0  0  0  0  0  0  0  0
   -0.9696    1.9115    0.2000 H   0  0  0  0  0  0  0  0  0  0  0  0
    0.5548    1.5956   -0.6356 H   0  0  0  0  0  0  0  0  0  0  0  0
   -1.1935    1.0351   -1.7549 C   0  0  0  0  0  0  0  0  0  0  0  0
   -0.6747    0.3213   -2.3949 H   0  0  0  0  0  0  0  0  0  0  0  0
   -2.1991    0.6679   -1.5532 H   0  0  0  0  0  0  0  0  0  0  0  0
   -1.3138    2.3541   -2.5112 C   0  0  0  0  0  0  0  0  0  0  0  0
   -0.9788    3.4441   -2.0759 O   0  0  0  0  0  0  0  0  0  0  0  0
   -1.8452    2.2687   -3.7449 O   0  0  0  0  0  0  0  0  0  0  0  0
   -1.8629    3.1692   -4.0737 H   0  0  0  0  0  0  0  0  0  0  0  0
    0.1871    0.1189    1.8122 C   0  0  0  0  0  0  0  0  0  0  0  0
    1.3541   -0.1171    2.1187 O   0  0  0  0  0  0  0  0  0  0  0  0
   -0.7126    0.5740    2.6926 N   0  0  0  0  0  0  0  0  0  0  0  0
   -1.6464    0.7663    2.3621 H   0  0  0  0  0  0  0  0  0  0  0  0
   -0.4191    0.8310    4.1010 C   0  0  0  0  0  0  0  0  0  0  0  0
    0.4022    1.5452    4.1828 H   0  0  0  0  0  0  0  0  0  0  0  0
   -1.2983    1.2366    4.6035 H   0  0  0  0  0  0  0  0  0  0  0  0
   -0.1204   -0.0980    4.5907 H   0  0  0  0  0  0  0  0  0  0  0  0
  5  6  2  0  0  0  0
  5  7  1  0  0  0  0
  2  3  1  0  0  0  0
  2  4  1  0  0  0  0
  2  5  1  0  0  0  0
  1  2  1  0  0  0  0
 21 22  2  0  0  0  0
 21 23  1  0  0  0  0
 19 20  1  0  0  0  0
 17 18  2  0  0  0  0
 17 19  1  0  0  0  0
 14 15  1  0  0  0  0
 14 16  1  0  0  0  0
 14 17  1  0  0  0  0
 11 12  1  0  0  0  0
 11 13  1  0  0  0  0
 11 14  1  0  0  0  0
  9 10  1  0  0  0  0
  9 11  1  0  0  0  0
  9 21  1  0  0  0  0
  7  8  1  0  0  0  0
  7  9  1  0  0  0  0
 25 26  1  0  0  0  0
 25 27  1  0  0  0  0
 25 28  1  0  0  0  0
 23 24  1  0  0  0  0
 23 25  1  0  0  0  0
M  END
$$$$
default_name
  -OEChem-02102213163D

 28 27  0     1  0  0  0  0  0999 V2000
   -3.2133   -3.5565    1.2809 H   0  0  0  0  0  0  0  0  0  0  0  0
   -3.1873   -2.5755    0.8089 C   0  0  0  0  0  0  0  0  0  0  0  0
   -3.8793   -1.9065    1.3169 H   0  0  0  0  0  0  0  0  0  0  0  0
   -3.4623   -2.6685   -0.2401 H   0  0  0  0  0  0  0  0  0  0  0  0
   -1.7863   -2.0195    0.9119 C   0  0  0  0  0  0  0  0  0  0  0  0
   -0.9073   -2.6615    1.4699 O   0  0  0  0  0  0  0  0  0  0  0  0
   -1.5803   -0.8195    0.3749 N   0  0  0  0  0  0  0  0  0  0  0  0
   -2.3603   -0.3345   -0.0451 H   0  0  0  0  0  0  0  0  0  0  0  0
   -0.2933   -0.1205    0.3719 C   0  0  1  0  0  0  0  0  0  0  0  0
    0.4439   -0.7485   -0.1303 H   0  0  0  0  0  0  0  0  0  0  0  0
   -0.4368    1.1924   -0.4246 C   0  0  0  0  0  0  0  0  0  0  0  0
   -0.9696    1.9115    0.2000 H   0  0  0  0  0  0  0  0  0  0  0  0
    0.5548    1.5956   -0.6356 H   0  0  0  0  0  0  0  0  0  0  0  0
   -1.1935    1.0351   -1.7549 C   0  0  0  0  0  0  0  0  0  0  0  0
   -0.8414    0.1467   -2.2795 H   0  0  0  0  0  0  0  0  0  0  0  0
   -2.2584    0.9298   -1.5505 H   0  0  0  0  0  0  0  0  0  0  0  0
   -1.0042    2.2378   -2.6736 C   0  0  0  0  0  0  0  0  0  0  0  0
   -0.4373    3.2734   -2.3638 O   0  0  0  0  0  0  0  0  0  0  0  0
   -1.5264    2.1125   -3.9078 O   0  0  0  0  0  0  0  0  0  0  0  0
   -1.3366    2.9437   -4.3464 H   0  0  0  0  0  0  0  0  0  0  0  0
    0.1871    0.1189    1.8122 C   0  0  0  0  0  0  0  0  0  0  0  0
    1.3541   -0.1171    2.1187 O   0  0  0  0  0  0  0  0  0  0  0  0
   -0.7126    0.5740    2.6926 N   0  0  0  0  0  0  0  0  0  0  0  0
   -1.6464    0.7663    2.3621 H   0  0  0  0  0  0  0  0  0  0  0  0
   -0.4191    0.8310    4.1010 C   0  0  0  0  0  0  0  0  0  0  0  0
    0.4022    1.5452    4.1828 H   0  0  0  0  0  0  0  0  0  0  0  0
   -1.2983    1.2366    4.6035 H   0  0  0  0  0  0  0  0  0  0  0  0
   -0.1204   -0.0980    4.5907 H   0  0  0  0  0  0  0  0  0  0  0  0
  5  6  2  0  0  0  0
  5  7  1  0  0  0  0
  2  3  1  0  0  0  0
  2  4  1  0  0  0  0
  2  5  1  0  0  0  0
  1  2  1  0  0  0  0
 21 22  2  0  0  0  0
 21 23  1  0  0  0  0
 19 20  1  0  0  0  0
 17 18  2  0  0  0  0
 17 19  1  0  0  0  0
 14 15  1  0  0  0  0
 14 16  1  0  0  0  0
 14 17  1  0  0  0  0
 11 12  1  0  0  0  0
 11 13  1  0  0  0  0
 11 14  1  0  0  0  0
  9 10  1  0  0  0  0
  9 11  1  0  0  0  0
  9 21  1  0  0  0  0
  7  8  1  0  0  0  0
  7  9  1  0  0  0  0
 25 26  1  0  0  0  0
 25 27  1  0  0  0  0
 25 28  1  0  0  0  0
 23 24  1  0  0  0  0
 23 25  1  0  0  0  0
M  END
$$$$
default_name
  -OEChem-02102213163D

 28 27  0     1  0  0  0  0  0999 V2000
   -3.2133   -3.5565    1.2809 H   0  0  0  0  0  0  0  0  0  0  0  0
   -3.1873   -2.5755    0.8089 C   0  0  0  0  0  0  0  0  0  0  0  0
   -3.8793   -1.9065    1.3169 H   0  0  0  0  0  0  0  0  0  0  0  0
   -3.4623   -2.6685   -0.2401 H   0  0  0  0  0  0  0  0  0  0  0  0
   -1.7863   -2.0195    0.9119 C   0  0  0  0  0  0  0  0  0  0  0  0
   -0.9073   -2.6615    1.4699 O   0  0  0  0  0  0  0  0  0  0  0  0
   -1.5803   -0.8195    0.3749 N   0  0  0  0  0  0  0  0  0  0  0  0
   -2.3603   -0.3345   -0.0451 H   0  0  0  0  0  0  0  0  0  0  0  0
   -0.2933   -0.1205    0.3719 C   0  0  1  0  0  0  0  0  0  0  0  0
    0.4439   -0.7485   -0.1303 H   0  0  0  0  0  0  0  0  0  0  0  0
   -0.4368    1.1924   -0.4246 C   0  0  0  0  0  0  0  0  0  0  0  0
   -0.9696    1.9115    0.2000 H   0  0  0  0  0  0  0  0  0  0  0  0
    0.5548    1.5956   -0.6356 H   0  0  0  0  0  0  0  0  0  0  0  0
   -1.1935    1.0351   -1.7549 C   0  0  0  0  0  0  0  0  0  0  0  0
   -1.0445    0.0301   -2.1501 H   0  0  0  0  0  0  0  0  0  0  0  0
   -2.2570    1.1965   -1.5828 H   0  0  0  0  0  0  0  0  0  0  0  0
   -0.7268    2.0355   -2.8074 C   0  0  0  0  0  0  0  0  0  0  0  0
    0.0552    2.9506   -2.6058 O   0  0  0  0  0  0  0  0  0  0  0  0
   -1.2490    1.8695   -4.0369 O   0  0  0  0  0  0  0  0  0  0  0  0
   -0.8714    2.5734   -4.5673 H   0  0  0  0  0  0  0  0  0  0  0  0
    0.1871    0.1189    1.8122 C   0  0  0  0  0  0  0  0  0  0  0  0
    1.3541   -0.1171    2.1187 O   0  0  0  0  0  0  0  0  0  0  0  0
   -0.7126    0.5740    2.6926 N   0  0  0  0  0  0  0  0  0  0  0  0
   -1.6464    0.7663    2.3621 H   0  0  0  0  0  0  0  0  0  0  0  0
   -0.4191    0.8310    4.1010 C   0  0  0  0  0  0  0  0  0  0  0  0
    0.4022    1.5452    4.1828 H   0  0  0  0  0  0  0  0  0  0  0  0
   -1.2983    1.2366    4.6035 H   0  0  0  0  0  0  0  0  0  0  0  0
   -0.1204   -0.0980    4.5907 H   0  0  0  0  0  0  0  0  0  0  0  0
  5  6  2  0  0  0  0
  5  7  1  0  0  0  0
  2  3  1  0  0  0  0
  2  4  1  0  0  0  0
  2  5  1  0  0  0  0
  1  2  1  0  0  0  0
 21 22  2  0  0  0  0
 21 23  1  0  0  0  0
 19 20  1  0  0  0  0
 17 18  2  0  0  0  0
 17 19  1  0  0  0  0
 14 15  1  0  0  0  0
 14 16  1  0  0  0  0
 14 17  1  0  0  0  0
 11 12  1  0  0  0  0
 11 13  1  0  0  0  0
 11 14  1  0  0  0  0
  9 10  1  0  0  0  0
  9 11  1  0  0  0  0
  9 21  1  0  0  0  0
  7  8  1  0  0  0  0
  7  9  1  0  0  0  0
 25 26  1  0  0  0  0
 25 27  1  0  0  0  0
 25 28  1  0  0  0  0
 23 24  1  0  0  0  0
 23 25  1  0  0  0  0
M  END
$$$$
default_name
  -OEChem-02102213163D

 28 27  0     1  0  0  0  0  0999 V2000
   -3.2133   -3.5565    1.2809 H   0  0  0  0  0  0  0  0  0  0  0  0
   -3.1873   -2.5755    0.8089 C   0  0  0  0  0  0  0  0  0  0  0  0
   -3.8793   -1.9065    1.3169 H   0  0  0  0  0  0  0  0  0  0  0  0
   -3.4623   -2.6685   -0.2401 H   0  0  0  0  0  0  0  0  0  0  0  0
   -1.7863   -2.0195    0.9119 C   0  0  0  0  0  0  0  0  0  0  0  0
   -0.9073   -2.6615    1.4699 O   0  0  0  0  0  0  0  0  0  0  0  0
   -1.5803   -0.8195    0.3749 N   0  0  0  0  0  0  0  0  0  0  0  0
   -2.3603   -0.3345   -0.0451 H   0  0  0  0  0  0  0  0  0  0  0  0
   -0.2933   -0.1205    0.3719 C   0  0  1  0  0  0  0  0  0  0  0  0
    0.4439   -0.7485   -0.1303 H   0  0  0  0  0  0  0  0  0  0  0  0
   -0.4368    1.1924   -0.4246 C   0  0  0  0  0  0  0  0  0  0  0  0
   -0.9696    1.9115    0.2000 H   0  0  0  0  0  0  0  0  0  0  0  0
    0.5548    1.5956   -0.6356 H   0  0  0  0  0  0  0  0  0  0  0  0
   -1.1935    1.0351   -1.7549 C   0  0  0  0  0  0  0  0  0  0  0  0
   -1.2703   -0.0206   -2.0157 H   0  0  0  0  0  0  0  0  0  0  0  0
   -2.1952    1.4496   -1.6479 H   0  0  0  0  0  0  0  0  0  0  0  0
   -0.5007    1.7609   -2.9036 C   0  0  0  0  0  0  0  0  0  0  0  0
    0.4651    2.4978   -2.7854 O   0  0  0  0  0  0  0  0  0  0  0  0
   -1.0320    1.5563   -4.1232 O   0  0  0  0  0  0  0  0  0  0  0  0
   -0.4991    2.0835   -4.7211 H   0  0  0  0  0  0  0  0  0  0  0  0
    0.1871    0.1189    1.8122 C   0  0  0  0  0  0  0  0  0  0  0  0
    1.3541   -0.1171    2.1187 O   0  0  0  0  0  0  0  0  0  0  0  0
   -0.7126    0.5740    2.6926 N   0  0  0  0  0  0  0  0  0  0  0  0
   -1.6464    0.7663    2.3621 H   0  0  0  0  0  0  0  0  0  0  0  0
   -0.4191    0.8310    4.1010 C   0  0  0  0  0  0  0  0  0  0  0  0
    0.4022    1.5452    4.1828 H   0  0  0  0  0  0  0  0  0  0  0  0
   -1.2983    1.2366    4.6035 H   0  0  0  0  0  0  0  0  0  0  0  0
   -0.1204   -0.0980    4.5907 H   0  0  0  0  0  0  0  0  0  0  0  0
  5  6  2  0  0  0  0
  5  7  1  0  0  0  0
  2  3  1  0  0  0  0
  2  4  1  0  0  0  0
  2  5  1  0  0  0  0
  1  2  1  0  0  0  0
 21 22  2  0  0  0  0
 21 23  1  0  0  0  0
 19 20  1  0  0  0  0
 17 18  2  0  0  0  0
 17 19  1  0  0  0  0
 14 15  1  0  0  0  0
 14 16  1  0  0  0  0
 14 17  1  0  0  0  0
 11 12  1  0  0  0  0
 11 13  1  0  0  0  0
 11 14  1  0  0  0  0
  9 10  1  0  0  0  0
  9 11  1  0  0  0  0
  9 21  1  0  0  0  0
  7  8  1  0  0  0  0
  7  9  1  0  0  0  0
 25 26  1  0  0  0  0
 25 27  1  0  0  0  0
 25 28  1  0  0  0  0
 23 24  1  0  0  0  0
 23 25  1  0  0  0  0
M  END
$$$$
default_name
  -OEChem-02102213163D

 28 27  0     1  0  0  0  0  0999 V2000
   -3.2133   -3.5565    1.2809 H   0  0  0  0  0  0  0  0  0  0  0  0
   -3.1873   -2.5755    0.8089 C   0  0  0  0  0  0  0  0  0  0  0  0
   -3.8793   -1.9065    1.3169 H   0  0  0  0  0  0  0  0  0  0  0  0
   -3.4623   -2.6685   -0.2401 H   0  0  0  0  0  0  0  0  0  0  0  0
   -1.7863   -2.0195    0.9119 C   0  0  0  0  0  0  0  0  0  0  0  0
   -0.9073   -2.6615    1.4699 O   0  0  0  0  0  0  0  0  0  0  0  0
   -1.5803   -0.8195    0.3749 N   0  0  0  0  0  0  0  0  0  0  0  0
   -2.3603   -0.3345   -0.0451 H   0  0  0  0  0  0  0  0  0  0  0  0
   -0.2933   -0.1205    0.3719 C   0  0  1  0  0  0  0  0  0  0  0  0
    0.4439   -0.7485   -0.1303 H   0  0  0  0  0  0  0  0  0  0  0  0
   -0.4368    1.1924   -0.4246 C   0  0  0  0  0  0  0  0  0  0  0  0
   -0.9696    1.9115    0.2000 H   0  0  0  0  0  0  0  0  0  0  0  0
    0.5548    1.5956   -0.6356 H   0  0  0  0  0  0  0  0  0  0  0  0
   -1.1935    1.0351   -1.7549 C   0  0  0  0  0  0  0  0  0  0  0  0
   -1.5032   -0.0019   -1.8854 H   0  0  0  0  0  0  0  0  0  0  0  0
   -2.0771    1.6720   -1.7414 H   0  0  0  0  0  0  0  0  0  0  0  0
   -0.3411    1.4329   -2.9556 C   0  0  0  0  0  0  0  0  0  0  0  0
    0.7645    1.9459   -2.8904 O   0  0  0  0  0  0  0  0  0  0  0  0
   -0.8903    1.1943   -4.1610 O   0  0  0  0  0  0  0  0  0  0  0  0
   -0.2451    1.5074   -4.7974 H   0  0  0  0  0  0  0  0  0  0  0  0
    0.1871    0.1189    1.8122 C   0  0  0  0  0  0  0  0  0  0  0  0
    1.3541   -0.1171    2.1187 O   0  0  0  0  0  0  0  0  0  0  0  0
   -0.7126    0.5740    2.6926 N   0  0  0  0  0  0  0  0  0  0  0  0
   -1.6464    0.7663    2.3621 H   0  0  0  0  0  0  0  0  0  0  0  0
   -0.4191    0.8310    4.1010 C   0  0  0  0  0  0  0  0  0  0  0  0
    0.4022    1.5452    4.1828 H   0  0  0  0  0  0  0  0  0  0  0  0
   -1.2983    1.2366    4.6035 H   0  0  0  0  0  0  0  0  0  0  0  0
   -0.1204   -0.0980    4.5907 H   0  0  0  0  0  0  0  0  0  0  0  0
  5  6  2  0  0  0  0
  5  7  1  0  0  0  0
  2  3  1  0  0  0  0
  2  4  1  0  0  0  0
  2  5  1  0  0  0  0
  1  2  1  0  0  0  0
 21 22  2  0  0  0  0
 21 23  1  0  0  0  0
 19 20  1  0  0  0  0
 17 18  2  0  0  0  0
 17 19  1  0  0  0  0
 14 15  1  0  0  0  0
 14 16  1  0  0  0  0
 14 17  1  0  0  0  0
 11 12  1  0  0  0  0
 11 13  1  0  0  0  0
 11 14  1  0  0  0  0
  9 10  1  0  0  0  0
  9 11  1  0  0  0  0
  9 21  1  0  0  0  0
  7  8  1  0  0  0  0
  7  9  1  0  0  0  0
 25 26  1  0  0  0  0
 25 27  1  0  0  0  0
 25 28  1  0  0  0  0
 23 24  1  0  0  0  0
 23 25  1  0  0  0  0
M  END
$$$$
default_name
  -OEChem-02102213163D

 28 27  0     1  0  0  0  0  0999 V2000
   -3.2133   -3.5565    1.2809 H   0  0  0  0  0  0  0  0  0  0  0  0
   -3.1873   -2.5755    0.8089 C   0  0  0  0  0  0  0  0  0  0  0  0
   -3.8793   -1.9065    1.3169 H   0  0  0  0  0  0  0  0  0  0  0  0
   -3.4623   -2.6685   -0.2401 H   0  0  0  0  0  0  0  0  0  0  0  0
   -1.7863   -2.0195    0.9119 C   0  0  0  0  0  0  0  0  0  0  0  0
   -0.9073   -2.6615    1.4699 O   0  0  0  0  0  0  0  0  0  0  0  0
   -1.5803   -0.8195    0.3749 N   0  0  0  0  0  0  0  0  0  0  0  0
   -2.3603   -0.3345   -0.0451 H   0  0  0  0  0  0  0  0  0  0  0  0
   -0.2933   -0.1205    0.3719 C   0  0  1  0  0  0  0  0  0  0  0  0
    0.4439   -0.7485   -0.1303 H   0  0  0  0  0  0  0  0  0  0  0  0
   -0.4368    1.1924   -0.4246 C   0  0  0  0  0  0  0  0  0  0  0  0
   -0.9696    1.9115    0.2000 H   0  0  0  0  0  0  0  0  0  0  0  0
    0.5548    1.5956   -0.6356 H   0  0  0  0  0  0  0  0  0  0  0  0
   -1.1935    1.0351   -1.7549 C   0  0  0  0  0  0  0  0  0  0  0  0
   -1.7275    0.0848   -1.7681 H   0  0  0  0  0  0  0  0  0  0  0  0
   -1.9108    1.8485   -1.8569 H   0  0  0  0  0  0  0  0  0  0  0  0
   -0.2590    1.0737   -2.9598 C   0  0  0  0  0  0  0  0  0  0  0  0
    0.9329    1.3324   -2.9136 O   0  0  0  0  0  0  0  0  0  0  0  0
   -0.8334    0.8080   -4.1477 O   0  0  0  0  0  0  0  0  0  0  0  0
   -0.1266    0.8843   -4.7911 H   0  0  0  0  0  0  0  0  0  0  0  0
    0.1871    0.1189    1.8122 C   0  0  0  0  0  0  0  0  0  0  0  0
    1.3541   -0.1171    2.1187 O   0  0  0  0  0  0  0  0  0  0  0  0
   -0.7126    0.5740    2.6926 N   0  0  0  0  0  0  0  0  0  0  0  0
   -1.6464    0.7663    2.3621 H   0  0  0  0  0  0  0  0  0  0  0  0
   -0.4191    0.8310    4.1010 C   0  0  0  0  0  0  0  0  0  0  0  0
    0.4022    1.5452    4.1828 H   0  0  0  0  0  0  0  0  0  0  0  0
   -1.2983    1.2366    4.6035 H   0  0  0  0  0  0  0  0  0  0  0  0
   -0.1204   -0.0980    4.5907 H   0  0  0  0  0  0  0  0  0  0  0  0
  5  6  2  0  0  0  0
  5  7  1  0  0  0  0
  2  3  1  0  0  0  0
  2  4  1  0  0  0  0
  2  5  1  0  0  0  0
  1  2  1  0  0  0  0
 21 22  2  0  0  0  0
 21 23  1  0  0  0  0
 19 20  1  0  0  0  0
 17 18  2  0  0  0  0
 17 19  1  0  0  0  0
 14 15  1  0  0  0  0
 14 16  1  0  0  0  0
 14 17  1  0  0  0  0
 11 12  1  0  0  0  0
 11 13  1  0  0  0  0
 11 14  1  0  0  0  0
  9 10  1  0  0  0  0
  9 11  1  0  0  0  0
  9 21  1  0  0  0  0
  7  8  1  0  0  0  0
  7  9  1  0  0  0  0
 25 26  1  0  0  0  0
 25 27  1  0  0  0  0
 25 28  1  0  0  0  0
 23 24  1  0  0  0  0
 23 25  1  0  0  0  0
M  END
$$$$
default_name
  -OEChem-02102213163D

 28 27  0     1  0  0  0  0  0999 V2000
   -3.2133   -3.5565    1.2809 H   0  0  0  0  0  0  0  0  0  0  0  0
   -3.1873   -2.5755    0.8089 C   0  0  0  0  0  0  0  0  0  0  0  0
   -3.8793   -1.9065    1.3169 H   0  0  0  0  0  0  0  0  0  0  0  0
   -3.4623   -2.6685   -0.2401 H   0  0  0  0  0  0  0  0  0  0  0  0
   -1.7863   -2.0195    0.9119 C   0  0  0  0  0  0  0  0  0  0  0  0
   -0.9073   -2.6615    1.4699 O   0  0  0  0  0  0  0  0  0  0  0  0
   -1.5803   -0.8195    0.3749 N   0  0  0  0  0  0  0  0  0  0  0  0
   -2.3603   -0.3345   -0.0451 H   0  0  0  0  0  0  0  0  0  0  0  0
   -0.2933   -0.1205    0.3719 C   0  0  1  0  0  0  0  0  0  0  0  0
    0.4439   -0.7485   -0.1303 H   0  0  0  0  0  0  0  0  0  0  0  0
   -0.4368    1.1924   -0.4246 C   0  0  0  0  0  0  0  0  0  0  0  0
   -0.9696    1.9115    0.2000 H   0  0  0  0  0  0  0  0  0  0  0  0
    0.5548    1.5956   -0.6356 H   0  0  0  0  0  0  0  0  0  0  0  0
   -1.1935    1.0351   -1.7549 C   0  0  0  0  0  0  0  0  0  0  0  0
   -1.9278    0.2337   -1.6717 H   0  0  0  0  0  0  0  0  0  0  0  0
   -1.7076    1.9671   -1.9865 H   0  0  0  0  0  0  0  0  0  0  0  0
   -0.2600    0.7079   -2.9159 C   0  0  0  0  0  0  0  0  0  0  0  0
    0.9589    0.6991   -2.8535 O   0  0  0  0  0  0  0  0  0  0  0  0
   -0.8652    0.4238   -4.0841 O   0  0  0  0  0  0  0  0  0  0  0  0
   -0.1518    0.2568   -4.7025 H   0  0  0  0  0  0  0  0  0  0  0  0
    0.1871    0.1189    1.8122 C   0  0  0  0  0  0  0  0  0  0  0  0
    1.3541   -0.1171    2.1187 O   0  0  0  0  0  0  0  0  0  0  0  0
   -0.7126    0.5740    2.6926 N   0  0  0  0  0  0  0  0  0  0  0  0
   -1.6464    0.7663    2.3621 H   0  0  0  0  0  0  0  0  0  0  0  0
   -0.4191    0.8310    4.1010 C   0  0  0  0  0  0  0  0  0  0  0  0
    0.4022    1.5452    4.1828 H   0  0  0  0  0  0  0  0  0  0  0  0
   -1.2983    1.2366    4.6035 H   0  0  0  0  0  0  0  0  0  0  0  0
   -0.1204   -0.0980    4.5907 H   0  0  0  0  0  0  0  0  0  0  0  0
  5  6  2  0  0  0  0
  5  7  1  0  0  0  0
  2  3  1  0  0  0  0
  2  4  1  0  0  0  0
  2  5  1  0  0  0  0
  1  2  1  0  0  0  0
 21 22  2  0  0  0  0
 21 23  1  0  0  0  0
 19 20  1  0  0  0  0
 17 18  2  0  0  0  0
 17 19  1  0  0  0  0
 14 15  1  0  0  0  0
 14 16  1  0  0  0  0
 14 17  1  0  0  0  0
 11 12  1  0  0  0  0
 11 13  1  0  0  0  0
 11 14  1  0  0  0  0
  9 10  1  0  0  0  0
  9 11  1  0  0  0  0
  9 21  1  0  0  0  0
  7  8  1  0  0  0  0
  7  9  1  0  0  0  0
 25 26  1  0  0  0  0
 25 27  1  0  0  0  0
 25 28  1  0  0  0  0
 23 24  1  0  0  0  0
 23 25  1  0  0  0  0
M  END
$$$$
default_name
  -OEChem-02102213163D

 28 27  0     1  0  0  0  0  0999 V2000
   -3.2133   -3.5565    1.2809 H   0  0  0  0  0  0  0  0  0  0  0  0
   -3.1873   -2.5755    0.8089 C   0  0  0  0  0  0  0  0  0  0  0  0
   -3.8793   -1.9065    1.3169 H   0  0  0  0  0  0  0  0  0  0  0  0
   -3.4623   -2.6685   -0.2401 H   0  0  0  0  0  0  0  0  0  0  0  0
   -1.7863   -2.0195    0.9119 C   0  0  0  0  0  0  0  0  0  0  0  0
   -0.9073   -2.6615    1.4699 O   0  0  0  0  0  0  0  0  0  0  0  0
   -1.5803   -0.8195    0.3749 N   0  0  0  0  0  0  0  0  0  0  0  0
   -2.3603   -0.3345   -0.0451 H   0  0  0  0  0  0  0  0  0  0  0  0
   -0.2933   -0.1205    0.3719 C   0  0  1  0  0  0  0  0  0  0  0  0
    0.4439   -0.7485   -0.1303 H   0  0  0  0  0  0  0  0  0  0  0  0
   -0.4368    1.1924   -0.4246 C   0  0  0  0  0  0  0  0  0  0  0  0
   -0.9696    1.9115    0.2000 H   0  0  0  0  0  0  0  0  0  0  0  0
    0.5548    1.5956   -0.6356 H   0  0  0  0  0  0  0  0  0  0  0  0
   -1.1935    1.0351   -1.7549 C   0  0  0  0  0  0  0  0  0  0  0  0
   -2.0905    0.4346   -1.6029 H   0  0  0  0  0  0  0  0  0  0  0  0
   -1.4814    2.0197   -2.1215 H   0  0  0  0  0  0  0  0  0  0  0  0
   -0.3440    0.3603   -2.8270 C   0  0  0  0  0  0  0  0  0  0  0  0
    0.8408    0.0893   -2.7141 O   0  0  0  0  0  0  0  0  0  0  0  0
   -0.9836    0.0680   -3.9747 O   0  0  0  0  0  0  0  0  0  0  0  0
   -0.3188   -0.3324   -4.5378 H   0  0  0  0  0  0  0  0  0  0  0  0
    0.1871    0.1189    1.8122 C   0  0  0  0  0  0  0  0  0  0  0  0
    1.3541   -0.1171    2.1187 O   0  0  0  0  0  0  0  0  0  0  0  0
   -0.7126    0.5740    2.6926 N   0  0  0  0  0  0  0  0  0  0  0  0
   -1.6464    0.7663    2.3621 H   0  0  0  0  0  0  0  0  0  0  0  0
   -0.4191    0.8310    4.1010 C   0  0  0  0  0  0  0  0  0  0  0  0
    0.4022    1.5452    4.1828 H   0  0  0  0  0  0  0  0  0  0  0  0
   -1.2983    1.2366    4.6035 H   0  0  0  0  0  0  0  0  0  0  0  0
   -0.1204   -0.0980    4.5907 H   0  0  0  0  0  0  0  0  0  0  0  0
  5  6  2  0  0  0  0
  5  7  1  0  0  0  0
  2  3  1  0  0  0  0
  2  4  1  0  0  0  0
  2  5  1  0  0  0  0
  1  2  1  0  0  0  0
 21 22  2  0  0  0  0
 21 23  1  0  0  0  0
 19 20  1  0  0  0  0
 17 18  2  0  0  0  0
 17 19  1  0  0  0  0
 14 15  1  0  0  0  0
 14 16  1  0  0  0  0
 14 17  1  0  0  0  0
 11 12  1  0  0  0  0
 11 13  1  0  0  0  0
 11 14  1  0  0  0  0
  9 10  1  0  0  0  0
  9 11  1  0  0  0  0
  9 21  1  0  0  0  0
  7  8  1  0  0  0  0
  7  9  1  0  0  0  0
 25 26  1  0  0  0  0
 25 27  1  0  0  0  0
 25 28  1  0  0  0  0
 23 24  1  0  0  0  0
 23 25  1  0  0  0  0
M  END
$$$$
default_name
  -OEChem-02102213163D

 28 27  0     1  0  0  0  0  0999 V2000
   -3.2133   -3.5565    1.2809 H   0  0  0  0  0  0  0  0  0  0  0  0
   -3.1873   -2.5755    0.8089 C   0  0  0  0  0  0  0  0  0  0  0  0
   -3.8793   -1.9065    1.3169 H   0  0  0  0  0  0  0  0  0  0  0  0
   -3.4623   -2.6685   -0.2401 H   0  0  0  0  0  0  0  0  0  0  0  0
   -1.7863   -2.0195    0.9119 C   0  0  0  0  0  0  0  0  0  0  0  0
   -0.9073   -2.6615    1.4699 O   0  0  0  0  0  0  0  0  0  0  0  0
   -1.5803   -0.8195    0.3749 N   0  0  0  0  0  0  0  0  0  0  0  0
   -2.3603   -0.3345   -0.0451 H   0  0  0  0  0  0  0  0  0  0  0  0
   -0.2933   -0.1205    0.3719 C   0  0  1  0  0  0  0  0  0  0  0  0
    0.4439   -0.7485   -0.1303 H   0  0  0  0  0  0  0  0  0  0  0  0
   -0.4368    1.1924   -0.4246 C   0  0  0  0  0  0  0  0  0  0  0  0
   -0.9696    1.9115    0.2000 H   0  0  0  0  0  0  0  0  0  0  0  0
    0.5548    1.5956   -0.6356 H   0  0  0  0  0  0  0  0  0  0  0  0
   -1.1935    1.0351   -1.7549 C   0  0  0  0  0  0  0  0  0  0  0  0
   -2.2046    0.6739   -1.5664 H   0  0  0  0  0  0  0  0  0  0  0  0
   -1.2475    2.0026   -2.2525 H   0  0  0  0  0  0  0  0  0  0  0  0
   -0.5052    0.0547   -2.6991 C   0  0  0  0  0  0  0  0  0  0  0  0
    0.5864   -0.4556   -2.5049 O   0  0  0  0  0  0  0  0  0  0  0  0
   -1.1805   -0.2353   -3.8268 O   0  0  0  0  0  0  0  0  0  0  0  0
   -0.6164   -0.8432   -4.3080 H   0  0  0  0  0  0  0  0  0  0  0  0
    0.1871    0.1189    1.8122 C   0  0  0  0  0  0  0  0  0  0  0  0
    1.3541   -0.1171    2.1187 O   0  0  0  0  0  0  0  0  0  0  0  0
   -0.7126    0.5740    2.6926 N   0  0  0  0  0  0  0  0  0  0  0  0
   -1.6464    0.7663    2.3621 H   0  0  0  0  0  0  0  0  0  0  0  0
   -0.4191    0.8310    4.1010 C   0  0  0  0  0  0  0  0  0  0  0  0
    0.4022    1.5452    4.1828 H   0  0  0  0  0  0  0  0  0  0  0  0
   -1.2983    1.2366    4.6035 H   0  0  0  0  0  0  0  0  0  0  0  0
   -0.1204   -0.0980    4.5907 H   0  0  0  0  0  0  0  0  0  0  0  0
  5  6  2  0  0  0  0
  5  7  1  0  0  0  0
  2  3  1  0  0  0  0
  2  4  1  0  0  0  0
  2  5  1  0  0  0  0
  1  2  1  0  0  0  0
 21 22  2  0  0  0  0
 21 23  1  0  0  0  0
 19 20  1  0  0  0  0
 17 18  2  0  0  0  0
 17 19  1  0  0  0  0
 14 15  1  0  0  0  0
 14 16  1  0  0  0  0
 14 17  1  0  0  0  0
 11 12  1  0  0  0  0
 11 13  1  0  0  0  0
 11 14  1  0  0  0  0
  9 10  1  0  0  0  0
  9 11  1  0  0  0  0
  9 21  1  0  0  0  0
  7  8  1  0  0  0  0
  7  9  1  0  0  0  0
 25 26  1  0  0  0  0
 25 27  1  0  0  0  0
 25 28  1  0  0  0  0
 23 24  1  0  0  0  0
 23 25  1  0  0  0  0
M  END
$$$$
default_name
  -OEChem-02102213163D

 28 27  0     1  0  0  0  0  0999 V2000
   -3.2133   -3.5565    1.2809 H   0  0  0  0  0  0  0  0  0  0  0  0
   -3.1873   -2.5755    0.8089 C   0  0  0  0  0  0  0  0  0  0  0  0
   -3.8793   -1.9065    1.3169 H   0  0  0  0  0  0  0  0  0  0  0  0
   -3.4623   -2.6685   -0.2401 H   0  0  0  0  0  0  0  0  0  0  0  0
   -1.7863   -2.0195    0.9119 C   0  0  0  0  0  0  0  0  0  0  0  0
   -0.9073   -2.6615    1.4699 O   0  0  0  0  0  0  0  0  0  0  0  0
   -1.5803   -0.8195    0.3749 N   0  0  0  0  0  0  0  0  0  0  0  0
   -2.3603   -0.3345   -0.0451 H   0  0  0  0  0  0  0  0  0  0  0  0
   -0.2933   -0.1205    0.3719 C   0  0  1  0  0  0  0  0  0  0  0  0
    0.4439   -0.7485   -0.1303 H   0  0  0  0  0  0  0  0  0  0  0  0
   -0.4368    1.1924   -0.4246 C   0  0  0  0  0  0  0  0  0  0  0  0
   -0.9696    1.9115    0.2000 H   0  0  0  0  0  0  0  0  0  0  0  0
    0.5548    1.5956   -0.6356 H   0  0  0  0  0  0  0  0  0  0  0  0
   -1.1935    1.0351   -1.7549 C   0  0  0  0  0  0  0  0  0  0  0  0
   -2.2622    0.9351   -1.5645 H   0  0  0  0  0  0  0  0  0  0  0  0
   -1.0220    1.9171   -2.3707 H   0  0  0  0  0  0  0  0  0  0  0  0
   -0.7328   -0.1882   -2.5410 C   0  0  0  0  0  0  0  0  0  0  0  0
    0.2133   -0.8983   -2.2403 O   0  0  0  0  0  0  0  0  0  0  0  0
   -1.4424   -0.4654   -3.6505 O   0  0  0  0  0  0  0  0  0  0  0  0
   -1.0243   -1.2408   -4.0290 H   0  0  0  0  0  0  0  0  0  0  0  0
    0.1871    0.1189    1.8122 C   0  0  0  0  0  0  0  0  0  0  0  0
    1.3541   -0.1171    2.1187 O   0  0  0  0  0  0  0  0  0  0  0  0
   -0.7126    0.5740    2.6926 N   0  0  0  0  0  0  0  0  0  0  0  0
   -1.6464    0.7663    2.3621 H   0  0  0  0  0  0  0  0  0  0  0  0
   -0.4191    0.8310    4.1010 C   0  0  0  0  0  0  0  0  0  0  0  0
    0.4022    1.5452    4.1828 H   0  0  0  0  0  0  0  0  0  0  0  0
   -1.2983    1.2366    4.6035 H   0  0  0  0  0  0  0  0  0  0  0  0
   -0.1204   -0.0980    4.5907 H   0  0  0  0  0  0  0  0  0  0  0  0
  5  6  2  0  0  0  0
  5  7  1  0  0  0  0
  2  3  1  0  0  0  0
  2  4  1  0  0  0  0
  2  5  1  0  0  0  0
  1  2  1  0  0  0  0
 21 22  2  0  0  0  0
 21 23  1  0  0  0  0
 19 20  1  0  0  0  0
 17 18  2  0  0  0  0
 17 19  1  0  0  0  0
 14 15  1  0  0  0  0
 14 16  1  0  0  0  0
 14 17  1  0  0  0  0
 11 12  1  0  0  0  0
 11 13  1  0  0  0  0
 11 14  1  0  0  0  0
  9 10  1  0  0  0  0
  9 11  1  0  0  0  0
  9 21  1  0  0  0  0
  7  8  1  0  0  0  0
  7  9  1  0  0  0  0
 25 26  1  0  0  0  0
 25 27  1  0  0  0  0
 25 28  1  0  0  0  0
 23 24  1  0  0  0  0
 23 25  1  0  0  0  0
M  END
$$$$
default_name
  -OEChem-02102213163D

 28 27  0     1  0  0  0  0  0999 V2000
   -3.2133   -3.5565    1.2809 H   0  0  0  0  0  0  0  0  0  0  0  0
   -3.1873   -2.5755    0.8089 C   0  0  0  0  0  0  0  0  0  0  0  0
   -3.8793   -1.9065    1.3169 H   0  0  0  0  0  0  0  0  0  0  0  0
   -3.4623   -2.6685   -0.2401 H   0  0  0  0  0  0  0  0  0  0  0  0
   -1.7863   -2.0195    0.9119 C   0  0  0  0  0  0  0  0  0  0  0  0
   -0.9073   -2.6615    1.4699 O   0  0  0  0  0  0  0  0  0  0  0  0
   -1.5803   -0.8195    0.3749 N   0  0  0  0  0  0  0  0  0  0  0  0
   -2.3603   -0.3345   -0.0451 H   0  0  0  0  0  0  0  0  0  0  0  0
   -0.2933   -0.1205    0.3719 C   0  0  1  0  0  0  0  0  0  0  0  0
    0.4439   -0.7485   -0.1303 H   0  0  0  0  0  0  0  0  0  0  0  0
   -0.4368    1.1924   -0.4246 C   0  0  0  0  0  0  0  0  0  0  0  0
   -0.9696    1.9115    0.2000 H   0  0  0  0  0  0  0  0  0  0  0  0
    0.5548    1.5956   -0.6356 H   0  0  0  0  0  0  0  0  0  0  0  0
   -1.1935    1.0351   -1.7549 C   0  0  0  0  0  0  0  0  0  0  0  0
   -2.2594    1.2006   -1.5975 H   0  0  0  0  0  0  0  0  0  0  0  0
   -0.8201    1.7691   -2.4680 H   0  0  0  0  0  0  0  0  0  0  0  0
   -1.0111   -0.3517   -2.3633 C   0  0  0  0  0  0  0  0  0  0  0  0
   -0.2532   -1.2088   -1.9382 O   0  0  0  0  0  0  0  0  0  0  0  0
   -1.7516   -0.6066   -3.4579 O   0  0  0  0  0  0  0  0  0  0  0  0
   -1.5146   -1.4980   -3.7196 H   0  0  0  0  0  0  0  0  0  0  0  0
    0.1871    0.1189    1.8122 C   0  0  0  0  0  0  0  0  0  0  0  0
    1.3541   -0.1171    2.1187 O   0  0  0  0  0  0  0  0  0  0  0  0
   -0.7126    0.5740    2.6926 N   0  0  0  0  0  0  0  0  0  0  0  0
   -1.6464    0.7663    2.3621 H   0  0  0  0  0  0  0  0  0  0  0  0
   -0.4191    0.8310    4.1010 C   0  0  0  0  0  0  0  0  0  0  0  0
    0.4022    1.5452    4.1828 H   0  0  0  0  0  0  0  0  0  0  0  0
   -1.2983    1.2366    4.6035 H   0  0  0  0  0  0  0  0  0  0  0  0
   -0.1204   -0.0980    4.5907 H   0  0  0  0  0  0  0  0  0  0  0  0
  5  6  2  0  0  0  0
  5  7  1  0  0  0  0
  2  3  1  0  0  0  0
  2  4  1  0  0  0  0
  2  5  1  0  0  0  0
  1  2  1  0  0  0  0
 21 22  2  0  0  0  0
 21 23  1  0  0  0  0
 19 20  1  0  0  0  0
 17 18  2  0  0  0  0
 17 19  1  0  0  0  0
 14 15  1  0  0  0  0
 14 16  1  0  0  0  0
 14 17  1  0  0  0  0
 11 12  1  0  0  0  0
 11 13  1  0  0  0  0
 11 14  1  0  0  0  0
  9 10  1  0  0  0  0
  9 11  1  0  0  0  0
  9 21  1  0  0  0  0
  7  8  1  0  0  0  0
  7  9  1  0  0  0  0
 25 26  1  0  0  0  0
 25 27  1  0  0  0  0
 25 28  1  0  0  0  0
 23 24  1  0  0  0  0
 23 25  1  0  0  0  0
M  END
$$$$
default_name
  -OEChem-02102213163D

 28 27  0     1  0  0  0  0  0999 V2000
   -3.2133   -3.5565    1.2809 H   0  0  0  0  0  0  0  0  0  0  0  0
   -3.1873   -2.5755    0.8089 C   0  0  0  0  0  0  0  0  0  0  0  0
   -3.8793   -1.9065    1.3169 H   0  0  0  0  0  0  0  0  0  0  0  0
   -3.4623   -2.6685   -0.2401 H   0  0  0  0  0  0  0  0  0  0  0  0
   -1.7863   -2.0195    0.9119 C   0  0  0  0  0  0  0  0  0  0  0  0
   -0.9073   -2.6615    1.4699 O   0  0  0  0  0  0  0  0  0  0  0  0
   -1.5803   -0.8195    0.3749 N   0  0  0  0  0  0  0  0  0  0  0  0
   -2.3603   -0.3345   -0.0451 H   0  0  0  0  0  0  0  0  0  0  0  0
   -0.2933   -0.1205    0.3719 C   0  0  1  0  0  0  0  0  0  0  0  0
    0.4439   -0.7485   -0.1303 H   0  0  0  0  0  0  0  0  0  0  0  0
   -0.4368    1.1924   -0.4246 C   0  0  0  0  0  0  0  0  0  0  0  0
   -0.9696    1.9115    0.2000 H   0  0  0  0  0  0  0  0  0  0  0  0
    0.5548    1.5956   -0.6356 H   0  0  0  0  0  0  0  0  0  0  0  0
   -1.1935    1.0351   -1.7549 C   0  0  0  0  0  0  0  0  0  0  0  0
   -2.1964    1.4523   -1.6631 H   0  0  0  0  0  0  0  0  0  0  0  0
   -0.6557    1.5685   -2.5378 H   0  0  0  0  0  0  0  0  0  0  0  0
   -1.3212   -0.4247   -2.1782 C   0  0  0  0  0  0  0  0  0  0  0  0
   -0.7813   -1.3659   -1.6192 O   0  0  0  0  0  0  0  0  0  0  0  0
   -2.0870   -0.6492   -3.2621 O   0  0  0  0  0  0  0  0  0  0  0  0
   -2.0540   -1.5973   -3.4010 H   0  0  0  0  0  0  0  0  0  0  0  0
    0.1871    0.1189    1.8122 C   0  0  0  0  0  0  0  0  0  0  0  0
    1.3541   -0.1171    2.1187 O   0  0  0  0  0  0  0  0  0  0  0  0
   -0.7126    0.5740    2.6926 N   0  0  0  0  0  0  0  0  0  0  0  0
   -1.6464    0.7663    2.3621 H   0  0  0  0  0  0  0  0  0  0  0  0
   -0.4191    0.8310    4.1010 C   0  0  0  0  0  0  0  0  0  0  0  0
    0.4022    1.5452    4.1828 H   0  0  0  0  0  0  0  0  0  0  0  0
   -1.2983    1.2366    4.6035 H   0  0  0  0  0  0  0  0  0  0  0  0
   -0.1204   -0.0980    4.5907 H   0  0  0  0  0  0  0  0  0  0  0  0
  5  6  2  0  0  0  0
  5  7  1  0  0  0  0
  2  3  1  0  0  0  0
  2  4  1  0  0  0  0
  2  5  1  0  0  0  0
  1  2  1  0  0  0  0
 21 22  2  0  0  0  0
 21 23  1  0  0  0  0
 19 20  1  0  0  0  0
 17 18  2  0  0  0  0
 17 19  1  0  0  0  0
 14 15  1  0  0  0  0
 14 16  1  0  0  0  0
 14 17  1  0  0  0  0
 11 12  1  0  0  0  0
 11 13  1  0  0  0  0
 11 14  1  0  0  0  0
  9 10  1  0  0  0  0
  9 11  1  0  0  0  0
  9 21  1  0  0  0  0
  7  8  1  0  0  0  0
  7  9  1  0  0  0  0
 25 26  1  0  0  0  0
 25 27  1  0  0  0  0
 25 28  1  0  0  0  0
 23 24  1  0  0  0  0
 23 25  1  0  0  0  0
M  END
$$$$
default_name
  -OEChem-02102213163D

 28 27  0     1  0  0  0  0  0999 V2000
   -3.2133   -3.5565    1.2809 H   0  0  0  0  0  0  0  0  0  0  0  0
   -3.1873   -2.5755    0.8089 C   0  0  0  0  0  0  0  0  0  0  0  0
   -3.8793   -1.9065    1.3169 H   0  0  0  0  0  0  0  0  0  0  0  0
   -3.4623   -2.6685   -0.2401 H   0  0  0  0  0  0  0  0  0  0  0  0
   -1.7863   -2.0195    0.9119 C   0  0  0  0  0  0  0  0  0  0  0  0
   -0.9073   -2.6615    1.4699 O   0  0  0  0  0  0  0  0  0  0  0  0
   -1.5803   -0.8195    0.3749 N   0  0  0  0  0  0  0  0  0  0  0  0
   -2.3603   -0.3345   -0.0451 H   0  0  0  0  0  0  0  0  0  0  0  0
   -0.2933   -0.1205    0.3719 C   0  0  1  0  0  0  0  0  0  0  0  0
    0.4439   -0.7485   -0.1303 H   0  0  0  0  0  0  0  0  0  0  0  0
   -0.4368    1.1924   -0.4246 C   0  0  0  0  0  0  0  0  0  0  0  0
   -0.9696    1.9115    0.2000 H   0  0  0  0  0  0  0  0  0  0  0  0
    0.5548    1.5956   -0.6356 H   0  0  0  0  0  0  0  0  0  0  0  0
   -1.1935    1.0351   -1.7549 C   0  0  0  0  0  0  0  0  0  0  0  0
   -2.0775    1.6729   -1.7569 H   0  0  0  0  0  0  0  0  0  0  0  0
   -0.5399    1.3290   -2.5753 H   0  0  0  0  0  0  0  0  0  0  0  0
   -1.6420   -0.4023   -1.9984 C   0  0  0  0  0  0  0  0  0  0  0  0
   -1.3349   -1.3588   -1.3050 O   0  0  0  0  0  0  0  0  0  0  0  0
   -2.4256   -0.5904   -3.0764 O   0  0  0  0  0  0  0  0  0  0  0  0
   -2.6056   -1.5320   -3.0950 H   0  0  0  0  0  0  0  0  0  0  0  0
    0.1871    0.1189    1.8122 C   0  0  0  0  0  0  0  0  0  0  0  0
    1.3541   -0.1171    2.1187 O   0  0  0  0  0  0  0  0  0  0  0  0
   -0.7126    0.5740    2.6926 N   0  0  0  0  0  0  0  0  0  0  0  0
   -1.6464    0.7663    2.3621 H   0  0  0  0  0  0  0  0  0  0  0  0
   -0.4191    0.8310    4.1010 C   0  0  0  0  0  0  0  0  0  0  0  0
    0.4022    1.5452    4.1828 H   0  0  0  0  0  0  0  0  0  0  0  0
   -1.2983    1.2366    4.6035 H   0  0  0  0  0  0  0  0  0  0  0  0
   -0.1204   -0.0980    4.5907 H   0  0  0  0  0  0  0  0  0  0  0  0
  5  6  2  0  0  0  0
  5  7  1  0  0  0  0
  2  3  1  0  0  0  0
  2  4  1  0  0  0  0
  2  5  1  0  0  0  0
  1  2  1  0  0  0  0
 21 22  2  0  0  0  0
 21 23  1  0  0  0  0
 19 20  1  0  0  0  0
 17 18  2  0  0  0  0
 17 19  1  0  0  0  0
 14 15  1  0  0  0  0
 14 16  1  0  0  0  0
 14 17  1  0  0  0  0
 11 12  1  0  0  0  0
 11 13  1  0  0  0  0
 11 14  1  0  0  0  0
  9 10  1  0  0  0  0
  9 11  1  0  0  0  0
  9 21  1  0  0  0  0
  7  8  1  0  0  0  0
  7  9  1  0  0  0  0
 25 26  1  0  0  0  0
 25 27  1  0  0  0  0
 25 28  1  0  0  0  0
 23 24  1  0  0  0  0
 23 25  1  0  0  0  0
M  END
$$$$
default_name
  -OEChem-02102213163D

 28 27  0     1  0  0  0  0  0999 V2000
   -3.2133   -3.5565    1.2809 H   0  0  0  0  0  0  0  0  0  0  0  0
   -3.1873   -2.5755    0.8089 C   0  0  0  0  0  0  0  0  0  0  0  0
   -3.8793   -1.9065    1.3169 H   0  0  0  0  0  0  0  0  0  0  0  0
   -3.4623   -2.6685   -0.2401 H   0  0  0  0  0  0  0  0  0  0  0  0
   -1.7863   -2.0195    0.9119 C   0  0  0  0  0  0  0  0  0  0  0  0
   -0.9073   -2.6615    1.4699 O   0  0  0  0  0  0  0  0  0  0  0  0
   -1.5803   -0.8195    0.3749 N   0  0  0  0  0  0  0  0  0  0  0  0
   -2.3603   -0.3345   -0.0451 H   0  0  0  0  0  0  0  0  0  0  0  0
   -0.2933   -0.1205    0.3719 C   0  0  1  0  0  0  0  0  0  0  0  0
    0.4439   -0.7485   -0.1303 H   0  0  0  0  0  0  0  0  0  0  0  0
   -0.4368    1.1924   -0.4246 C   0  0  0  0  0  0  0  0  0  0  0  0
   -0.9696    1.9115    0.2000 H   0  0  0  0  0  0  0  0  0  0  0  0
    0.5548    1.5956   -0.6356 H   0  0  0  0  0  0  0  0  0  0  0  0
   -1.1935    1.0351   -1.7549 C   0  0  0  0  0  0  0  0  0  0  0  0
   -1.9108    1.8474   -1.8723 H   0  0  0  0  0  0  0  0  0  0  0  0
   -0.4807    1.0670   -2.5780 H   0  0  0  0  0  0  0  0  0  0  0  0
   -1.9516   -0.2860   -1.8360 C   0  0  0  0  0  0  0  0  0  0  0  0
   -1.8765   -1.1880   -1.0172 O   0  0  0  0  0  0  0  0  0  0  0  0
   -2.7445   -0.4342   -2.9135 O   0  0  0  0  0  0  0  0  0  0  0  0
   -3.1319   -1.3065   -2.8222 H   0  0  0  0  0  0  0  0  0  0  0  0
    0.1871    0.1189    1.8122 C   0  0  0  0  0  0  0  0  0  0  0  0
    1.3541   -0.1171    2.1187 O   0  0  0  0  0  0  0  0  0  0  0  0
   -0.7126    0.5740    2.6926 N   0  0  0  0  0  0  0  0  0  0  0  0
   -1.6464    0.7663    2.3621 H   0  0  0  0  0  0  0  0  0  0  0  0
   -0.4191    0.8310    4.1010 C   0  0  0  0  0  0  0  0  0  0  0  0
    0.4022    1.5452    4.1828 H   0  0  0  0  0  0  0  0  0  0  0  0
   -1.2983    1.2366    4.6035 H   0  0  0  0  0  0  0  0  0  0  0  0
   -0.1204   -0.0980    4.5907 H   0  0  0  0  0  0  0  0  0  0  0  0
  5  6  2  0  0  0  0
  5  7  1  0  0  0  0
  2  3  1  0  0  0  0
  2  4  1  0  0  0  0
  2  5  1  0  0  0  0
  1  2  1  0  0  0  0
 21 22  2  0  0  0  0
 21 23  1  0  0  0  0
 19 20  1  0  0  0  0
 17 18  2  0  0  0  0
 17 19  1  0  0  0  0
 14 15  1  0  0  0  0
 14 16  1  0  0  0  0
 14 17  1  0  0  0  0
 11 12  1  0  0  0  0
 11 13  1  0  0  0  0
 11 14  1  0  0  0  0
  9 10  1  0  0  0  0
  9 11  1  0  0  0  0
  9 21  1  0  0  0  0
  7  8  1  0  0  0  0
  7  9  1  0  0  0  0
 25 26  1  0  0  0  0
 25 27  1  0  0  0  0
 25 28  1  0  0  0  0
 23 24  1  0  0  0  0
 23 25  1  0  0  0  0
M  END
$$$$
default_name
  -OEChem-02102213163D

 28 27  0     1  0  0  0  0  0999 V2000
   -3.2133   -3.5565    1.2809 H   0  0  0  0  0  0  0  0  0  0  0  0
   -3.1873   -2.5755    0.8089 C   0  0  0  0  0  0  0  0  0  0  0  0
   -3.8793   -1.9065    1.3169 H   0  0  0  0  0  0  0  0  0  0  0  0
   -3.4623   -2.6685   -0.2401 H   0  0  0  0  0  0  0  0  0  0  0  0
   -1.7863   -2.0195    0.9119 C   0  0  0  0  0  0  0  0  0  0  0  0
   -0.9073   -2.6615    1.4699 O   0  0  0  0  0  0  0  0  0  0  0  0
   -1.5803   -0.8195    0.3749 N   0  0  0  0  0  0  0  0  0  0  0  0
   -2.3603   -0.3345   -0.0451 H   0  0  0  0  0  0  0  0  0  0  0  0
   -0.2933   -0.1205    0.3719 C   0  0  1  0  0  0  0  0  0  0  0  0
    0.4439   -0.7485   -0.1303 H   0  0  0  0  0  0  0  0  0  0  0  0
   -0.4368    1.1924   -0.4246 C   0  0  0  0  0  0  0  0  0  0  0  0
   -0.9696    1.9115    0.2000 H   0  0  0  0  0  0  0  0  0  0  0  0
    0.5548    1.5956   -0.6356 H   0  0  0  0  0  0  0  0  0  0  0  0
   -1.1935    1.0351   -1.7549 C   0  0  0  0  0  0  0  0  0  0  0  0
   -1.7077    1.9640   -2.0017 H   0  0  0  0  0  0  0  0  0  0  0  0
   -0.4820    0.8004   -2.5457 H   0  0  0  0  0  0  0  0  0  0  0  0
   -2.2290   -0.0837   -1.7022 C   0  0  0  0  0  0  0  0  0  0  0  0
   -2.3690   -0.8653   -0.7752 O   0  0  0  0  0  0  0  0  0  0  0  0
   -3.0219   -0.1913   -2.7844 O   0  0  0  0  0  0  0  0  0  0  0  0
   -3.5971   -0.9362   -2.6014 H   0  0  0  0  0  0  0  0  0  0  0  0
    0.1871    0.1189    1.8122 C   0  0  0  0  0  0  0  0  0  0  0  0
    1.3541   -0.1171    2.1187 O   0  0  0  0  0  0  0  0  0  0  0  0
   -0.7126    0.5740    2.6926 N   0  0  0  0  0  0  0  0  0  0  0  0
   -1.6464    0.7663    2.3621 H   0  0  0  0  0  0  0  0  0  0  0  0
   -0.4191    0.8310    4.1010 C   0  0  0  0  0  0  0  0  0  0  0  0
    0.4022    1.5452    4.1828 H   0  0  0  0  0  0  0  0  0  0  0  0
   -1.2983    1.2366    4.6035 H   0  0  0  0  0  0  0  0  0  0  0  0
   -0.1204   -0.0980    4.5907 H   0  0  0  0  0  0  0  0  0  0  0  0
  5  6  2  0  0  0  0
  5  7  1  0  0  0  0
  2  3  1  0  0  0  0
  2  4  1  0  0  0  0
  2  5  1  0  0  0  0
  1  2  1  0  0  0  0
 21 22  2  0  0  0  0
 21 23  1  0  0  0  0
 19 20  1  0  0  0  0
 17 18  2  0  0  0  0
 17 19  1  0  0  0  0
 14 15  1  0  0  0  0
 14 16  1  0  0  0  0
 14 17  1  0  0  0  0
 11 12  1  0  0  0  0
 11 13  1  0  0  0  0
 11 14  1  0  0  0  0
  9 10  1  0  0  0  0
  9 11  1  0  0  0  0
  9 21  1  0  0  0  0
  7  8  1  0  0  0  0
  7  9  1  0  0  0  0
 25 26  1  0  0  0  0
 25 27  1  0  0  0  0
 25 28  1  0  0  0  0
 23 24  1  0  0  0  0
 23 25  1  0  0  0  0
M  END
$$$$
default_name
  -OEChem-02102213163D

 28 27  0     1  0  0  0  0  0999 V2000
   -3.2133   -3.5565    1.2809 H   0  0  0  0  0  0  0  0  0  0  0  0
   -3.1873   -2.5755    0.8089 C   0  0  0  0  0  0  0  0  0  0  0  0
   -3.8793   -1.9065    1.3169 H   0  0  0  0  0  0  0  0  0  0  0  0
   -3.4623   -2.6685   -0.2401 H   0  0  0  0  0  0  0  0  0  0  0  0
   -1.7863   -2.0195    0.9119 C   0  0  0  0  0  0  0  0  0  0  0  0
   -0.9073   -2.6615    1.4699 O   0  0  0  0  0  0  0  0  0  0  0  0
   -1.5803   -0.8195    0.3749 N   0  0  0  0  0  0  0  0  0  0  0  0
   -2.3603   -0.3345   -0.0451 H   0  0  0  0  0  0  0  0  0  0  0  0
   -0.2933   -0.1205    0.3719 C   0  0  1  0  0  0  0  0  0  0  0  0
    0.4439   -0.7485   -0.1303 H   0  0  0  0  0  0  0  0  0  0  0  0
   -0.4368    1.1924   -0.4246 C   0  0  0  0  0  0  0  0  0  0  0  0
   -0.9696    1.9115    0.2000 H   0  0  0  0  0  0  0  0  0  0  0  0
    0.5548    1.5956   -0.6356 H   0  0  0  0  0  0  0  0  0  0  0  0
   -1.1935    1.0351   -1.7549 C   0  0  0  0  0  0  0  0  0  0  0  0
   -1.4820    2.0147   -2.1361 H   0  0  0  0  0  0  0  0  0  0  0  0
   -0.5438    0.5472   -2.4806 H   0  0  0  0  0  0  0  0  0  0  0  0
   -2.4551    0.1909   -1.6060 C   0  0  0  0  0  0  0  0  0  0  0  0
   -2.7789   -0.4125   -0.5956 O   0  0  0  0  0  0  0  0  0  0  0  0
   -3.2389    0.1219   -2.6981 O   0  0  0  0  0  0  0  0  0  0  0  0
   -3.9694   -0.4463   -2.4476 H   0  0  0  0  0  0  0  0  0  0  0  0
    0.1871    0.1189    1.8122 C   0  0  0  0  0  0  0  0  0  0  0  0
    1.3541   -0.1171    2.1187 O   0  0  0  0  0  0  0  0  0  0  0  0
   -0.7126    0.5740    2.6926 N   0  0  0  0  0  0  0  0  0  0  0  0
   -1.6464    0.7663    2.3621 H   0  0  0  0  0  0  0  0  0  0  0  0
   -0.4191    0.8310    4.1010 C   0  0  0  0  0  0  0  0  0  0  0  0
    0.4022    1.5452    4.1828 H   0  0  0  0  0  0  0  0  0  0  0  0
   -1.2983    1.2366    4.6035 H   0  0  0  0  0  0  0  0  0  0  0  0
   -0.1204   -0.0980    4.5907 H   0  0  0  0  0  0  0  0  0  0  0  0
  5  6  2  0  0  0  0
  5  7  1  0  0  0  0
  2  3  1  0  0  0  0
  2  4  1  0  0  0  0
  2  5  1  0  0  0  0
  1  2  1  0  0  0  0
 21 22  2  0  0  0  0
 21 23  1  0  0  0  0
 19 20  1  0  0  0  0
 17 18  2  0  0  0  0
 17 19  1  0  0  0  0
 14 15  1  0  0  0  0
 14 16  1  0  0  0  0
 14 17  1  0  0  0  0
 11 12  1  0  0  0  0
 11 13  1  0  0  0  0
 11 14  1  0  0  0  0
  9 10  1  0  0  0  0
  9 11  1  0  0  0  0
  9 21  1  0  0  0  0
  7  8  1  0  0  0  0
  7  9  1  0  0  0  0
 25 26  1  0  0  0  0
 25 27  1  0  0  0  0
 25 28  1  0  0  0  0
 23 24  1  0  0  0  0
 23 25  1  0  0  0  0
M  END
$$$$
default_name
  -OEChem-02102213163D

 28 27  0     1  0  0  0  0  0999 V2000
   -3.2133   -3.5565    1.2809 H   0  0  0  0  0  0  0  0  0  0  0  0
   -3.1873   -2.5755    0.8089 C   0  0  0  0  0  0  0  0  0  0  0  0
   -3.8793   -1.9065    1.3169 H   0  0  0  0  0  0  0  0  0  0  0  0
   -3.4623   -2.6685   -0.2401 H   0  0  0  0  0  0  0  0  0  0  0  0
   -1.7863   -2.0195    0.9119 C   0  0  0  0  0  0  0  0  0  0  0  0
   -0.9073   -2.6615    1.4699 O   0  0  0  0  0  0  0  0  0  0  0  0
   -1.5803   -0.8195    0.3749 N   0  0  0  0  0  0  0  0  0  0  0  0
   -2.3603   -0.3345   -0.0451 H   0  0  0  0  0  0  0  0  0  0  0  0
   -0.2933   -0.1205    0.3719 C   0  0  1  0  0  0  0  0  0  0  0  0
    0.4439   -0.7485   -0.1303 H   0  0  0  0  0  0  0  0  0  0  0  0
   -0.4368    1.1924   -0.4246 C   0  0  0  0  0  0  0  0  0  0  0  0
   -0.9696    1.9115    0.2000 H   0  0  0  0  0  0  0  0  0  0  0  0
    0.5548    1.5956   -0.6356 H   0  0  0  0  0  0  0  0  0  0  0  0
   -1.1935    1.0351   -1.7549 C   0  0  0  0  0  0  0  0  0  0  0  0
   -1.2491    1.9961   -2.2664 H   0  0  0  0  0  0  0  0  0  0  0  0
   -0.6619    0.3248   -2.3871 H   0  0  0  0  0  0  0  0  0  0  0  0
   -2.6147    0.5189   -1.5540 C   0  0  0  0  0  0  0  0  0  0  0  0
   -3.0783    0.1395   -0.4906 O   0  0  0  0  0  0  0  0  0  0  0  0
   -3.3806    0.4840   -2.6603 O   0  0  0  0  0  0  0  0  0  0  0  0
   -4.2234    0.1298   -2.3712 H   0  0  0  0  0  0  0  0  0  0  0  0
    0.1871    0.1189    1.8122 C   0  0  0  0  0  0  0  0  0  0  0  0
    1.3541   -0.1171    2.1187 O   0  0  0  0  0  0  0  0  0  0  0  0
   -0.7126    0.5740    2.6926 N   0  0  0  0  0  0  0  0  0  0  0  0
   -1.6464    0.7663    2.3621 H   0  0  0  0  0  0  0  0  0  0  0  0
   -0.4191    0.8310    4.1010 C   0  0  0  0  0  0  0  0  0  0  0  0
    0.4022    1.5452    4.1828 H   0  0  0  0  0  0  0  0  0  0  0  0
   -1.2983    1.2366    4.6035 H   0  0  0  0  0  0  0  0  0  0  0  0
   -0.1204   -0.0980    4.5907 H   0  0  0  0  0  0  0  0  0  0  0  0
  5  6  2  0  0  0  0
  5  7  1  0  0  0  0
  2  3  1  0  0  0  0
  2  4  1  0  0  0  0
  2  5  1  0  0  0  0
  1  2  1  0  0  0  0
 21 22  2  0  0  0  0
 21 23  1  0  0  0  0
 19 20  1  0  0  0  0
 17 18  2  0  0  0  0
 17 19  1  0  0  0  0
 14 15  1  0  0  0  0
 14 16  1  0  0  0  0
 14 17  1  0  0  0  0
 11 12  1  0  0  0  0
 11 13  1  0  0  0  0
 11 14  1  0  0  0  0
  9 10  1  0  0  0  0
  9 11  1  0  0  0  0
  9 21  1  0  0  0  0
  7  8  1  0  0  0  0
  7  9  1  0  0  0  0
 25 26  1  0  0  0  0
 25 27  1  0  0  0  0
 25 28  1  0  0  0  0
 23 24  1  0  0  0  0
 23 25  1  0  0  0  0
M  END
$$$$
default_name
  -OEChem-02102213163D

 28 27  0     1  0  0  0  0  0999 V2000
   -3.2133   -3.5565    1.2809 H   0  0  0  0  0  0  0  0  0  0  0  0
   -3.1873   -2.5755    0.8089 C   0  0  0  0  0  0  0  0  0  0  0  0
   -3.8793   -1.9065    1.3169 H   0  0  0  0  0  0  0  0  0  0  0  0
   -3.4623   -2.6685   -0.2401 H   0  0  0  0  0  0  0  0  0  0  0  0
   -1.7863   -2.0195    0.9119 C   0  0  0  0  0  0  0  0  0  0  0  0
   -0.9073   -2.6615    1.4699 O   0  0  0  0  0  0  0  0  0  0  0  0
   -1.5803   -0.8195    0.3749 N   0  0  0  0  0  0  0  0  0  0  0  0
   -2.3603   -0.3345   -0.0451 H   0  0  0  0  0  0  0  0  0  0  0  0
   -0.2933   -0.1205    0.3719 C   0  0  1  0  0  0  0  0  0  0  0  0
    0.4439   -0.7485   -0.1303 H   0  0  0  0  0  0  0  0  0  0  0  0
   -0.4368    1.1924   -0.4246 C   0  0  0  0  0  0  0  0  0  0  0  0
   -0.9696    1.9115    0.2000 H   0  0  0  0  0  0  0  0  0  0  0  0
    0.5548    1.5956   -0.6356 H   0  0  0  0  0  0  0  0  0  0  0  0
   -1.1935    1.0351   -1.7549 C   0  0  0  0  0  0  0  0  0  0  0  0
   -1.0248    1.9093   -2.3837 H   0  0  0  0  0  0  0  0  0  0  0  0
   -0.8282    0.1483   -2.2716 H   0  0  0  0  0  0  0  0  0  0  0  0
   -2.6968    0.8781   -1.5498 C   0  0  0  0  0  0  0  0  0  0  0  0
   -3.2467    0.7530   -0.4674 O   0  0  0  0  0  0  0  0  0  0  0  0
   -3.4375    0.8703   -2.6736 O   0  0  0  0  0  0  0  0  0  0  0  0
   -4.3419    0.7529   -2.3776 H   0  0  0  0  0  0  0  0  0  0  0  0
    0.1871    0.1189    1.8122 C   0  0  0  0  0  0  0  0  0  0  0  0
    1.3541   -0.1171    2.1187 O   0  0  0  0  0  0  0  0  0  0  0  0
   -0.7126    0.5740    2.6926 N   0  0  0  0  0  0  0  0  0  0  0  0
   -1.6464    0.7663    2.3621 H   0  0  0  0  0  0  0  0  0  0  0  0
   -0.4191    0.8310    4.1010 C   0  0  0  0  0  0  0  0  0  0  0  0
    0.4022    1.5452    4.1828 H   0  0  0  0  0  0  0  0  0  0  0  0
   -1.2983    1.2366    4.6035 H   0  0  0  0  0  0  0  0  0  0  0  0
   -0.1204   -0.0980    4.5907 H   0  0  0  0  0  0  0  0  0  0  0  0
  5  6  2  0  0  0  0
  5  7  1  0  0  0  0
  2  3  1  0  0  0  0
  2  4  1  0  0  0  0
  2  5  1  0  0  0  0
  1  2  1  0  0  0  0
 21 22  2  0  0  0  0
 21 23  1  0  0  0  0
 19 20  1  0  0  0  0
 17 18  2  0  0  0  0
 17 19  1  0  0  0  0
 14 15  1  0  0  0  0
 14 16  1  0  0  0  0
 14 17  1  0  0  0  0
 11 12  1  0  0  0  0
 11 13  1  0  0  0  0
 11 14  1  0  0  0  0
  9 10  1  0  0  0  0
  9 11  1  0  0  0  0
  9 21  1  0  0  0  0
  7  8  1  0  0  0  0
  7  9  1  0  0  0  0
 25 26  1  0  0  0  0
 25 27  1  0  0  0  0
 25 28  1  0  0  0  0
 23 24  1  0  0  0  0
 23 25  1  0  0  0  0
M  END
$$$$
default_name
  -OEChem-02102213163D

 28 27  0     1  0  0  0  0  0999 V2000
   -3.2133   -3.5565    1.2809 H   0  0  0  0  0  0  0  0  0  0  0  0
   -3.1873   -2.5755    0.8089 C   0  0  0  0  0  0  0  0  0  0  0  0
   -3.8793   -1.9065    1.3169 H   0  0  0  0  0  0  0  0  0  0  0  0
   -3.4623   -2.6685   -0.2401 H   0  0  0  0  0  0  0  0  0  0  0  0
   -1.7863   -2.0195    0.9119 C   0  0  0  0  0  0  0  0  0  0  0  0
   -0.9073   -2.6615    1.4699 O   0  0  0  0  0  0  0  0  0  0  0  0
   -1.5803   -0.8195    0.3749 N   0  0  0  0  0  0  0  0  0  0  0  0
   -2.3603   -0.3345   -0.0451 H   0  0  0  0  0  0  0  0  0  0  0  0
   -0.2933   -0.1205    0.3719 C   0  0  1  0  0  0  0  0  0  0  0  0
    0.4439   -0.7485   -0.1303 H   0  0  0  0  0  0  0  0  0  0  0  0
   -0.4368    1.1924   -0.4246 C   0  0  0  0  0  0  0  0  0  0  0  0
   -0.9696    1.9115    0.2000 H   0  0  0  0  0  0  0  0  0  0  0  0
    0.5548    1.5956   -0.6356 H   0  0  0  0  0  0  0  0  0  0  0  0
   -1.1935    1.0351   -1.7549 C   0  0  0  0  0  0  0  0  0  0  0  0
   -0.8245    1.7604   -2.4800 H   0  0  0  0  0  0  0  0  0  0  0  0
   -1.0314    0.0298   -2.1420 H   0  0  0  0  0  0  0  0  0  0  0  0
   -2.6958    1.2439   -1.5937 C   0  0  0  0  0  0  0  0  0  0  0  0
   -3.2727    1.3862   -0.5275 O   0  0  0  0  0  0  0  0  0  0  0  0
   -3.4057    1.2545   -2.7372 O   0  0  0  0  0  0  0  0  0  0  0  0
   -4.3167    1.3804   -2.4661 H   0  0  0  0  0  0  0  0  0  0  0  0
    0.1871    0.1189    1.8122 C   0  0  0  0  0  0  0  0  0  0  0  0
    1.3541   -0.1171    2.1187 O   0  0  0  0  0  0  0  0  0  0  0  0
   -0.7126    0.5740    2.6926 N   0  0  0  0  0  0  0  0  0  0  0  0
   -1.6464    0.7663    2.3621 H   0  0  0  0  0  0  0  0  0  0  0  0
   -0.4191    0.8310    4.1010 C   0  0  0  0  0  0  0  0  0  0  0  0
    0.4022    1.5452    4.1828 H   0  0  0  0  0  0  0  0  0  0  0  0
   -1.2983    1.2366    4.6035 H   0  0  0  0  0  0  0  0  0  0  0  0
   -0.1204   -0.0980    4.5907 H   0  0  0  0  0  0  0  0  0  0  0  0
  5  6  2  0  0  0  0
  5  7  1  0  0  0  0
  2  3  1  0  0  0  0
  2  4  1  0  0  0  0
  2  5  1  0  0  0  0
  1  2  1  0  0  0  0
 21 22  2  0  0  0  0
 21 23  1  0  0  0  0
 19 20  1  0  0  0  0
 17 18  2  0  0  0  0
 17 19  1  0  0  0  0
 14 15  1  0  0  0  0
 14 16  1  0  0  0  0
 14 17  1  0  0  0  0
 11 12  1  0  0  0  0
 11 13  1  0  0  0  0
 11 14  1  0  0  0  0
  9 10  1  0  0  0  0
  9 11  1  0  0  0  0
  9 21  1  0  0  0  0
  7  8  1  0  0  0  0
  7  9  1  0  0  0  0
 25 26  1  0  0  0  0
 25 27  1  0  0  0  0
 25 28  1  0  0  0  0
 23 24  1  0  0  0  0
 23 25  1  0  0  0  0
M  END
$$$$
default_name
  -OEChem-02102213163D

 28 27  0     1  0  0  0  0  0999 V2000
   -3.2133   -3.5565    1.2809 H   0  0  0  0  0  0  0  0  0  0  0  0
   -3.1873   -2.5755    0.8089 C   0  0  0  0  0  0  0  0  0  0  0  0
   -3.8793   -1.9065    1.3169 H   0  0  0  0  0  0  0  0  0  0  0  0
   -3.4623   -2.6685   -0.2401 H   0  0  0  0  0  0  0  0  0  0  0  0
   -1.7863   -2.0195    0.9119 C   0  0  0  0  0  0  0  0  0  0  0  0
   -0.9073   -2.6615    1.4699 O   0  0  0  0  0  0  0  0  0  0  0  0
   -1.5803   -0.8195    0.3749 N   0  0  0  0  0  0  0  0  0  0  0  0
   -2.3603   -0.3345   -0.0451 H   0  0  0  0  0  0  0  0  0  0  0  0
   -0.2933   -0.1205    0.3719 C   0  0  1  0  0  0  0  0  0  0  0  0
    0.4439   -0.7485   -0.1303 H   0  0  0  0  0  0  0  0  0  0  0  0
   -0.4368    1.1924   -0.4246 C   0  0  0  0  0  0  0  0  0  0  0  0
   -0.9696    1.9115    0.2000 H   0  0  0  0  0  0  0  0  0  0  0  0
    0.5548    1.5956   -0.6356 H   0  0  0  0  0  0  0  0  0  0  0  0
   -1.1935    1.0351   -1.7549 C   0  0  0  0  0  0  0  0  0  0  0  0
   -0.6617    1.5595   -2.5489 H   0  0  0  0  0  0  0  0  0  0  0  0
   -1.2576   -0.0228   -2.0071 H   0  0  0  0  0  0  0  0  0  0  0  0
   -2.6118    1.5915   -1.6826 C   0  0  0  0  0  0  0  0  0  0  0  0
   -3.1545    1.9961   -0.6669 O   0  0  0  0  0  0  0  0  0  0  0  0
   -3.2873    1.6103   -2.8466 O   0  0  0  0  0  0  0  0  0  0  0  0
   -4.1497    1.9696   -2.6309 H   0  0  0  0  0  0  0  0  0  0  0  0
    0.1871    0.1189    1.8122 C   0  0  0  0  0  0  0  0  0  0  0  0
    1.3541   -0.1171    2.1187 O   0  0  0  0  0  0  0  0  0  0  0  0
   -0.7126    0.5740    2.6926 N   0  0  0  0  0  0  0  0  0  0  0  0
   -1.6464    0.7663    2.3621 H   0  0  0  0  0  0  0  0  0  0  0  0
   -0.4191    0.8310    4.1010 C   0  0  0  0  0  0  0  0  0  0  0  0
    0.4022    1.5452    4.1828 H   0  0  0  0  0  0  0  0  0  0  0  0
   -1.2983    1.2366    4.6035 H   0  0  0  0  0  0  0  0  0  0  0  0
   -0.1204   -0.0980    4.5907 H   0  0  0  0  0  0  0  0  0  0  0  0
  5  6  2  0  0  0  0
  5  7  1  0  0  0  0
  2  3  1  0  0  0  0
  2  4  1  0  0  0  0
  2  5  1  0  0  0  0
  1  2  1  0  0  0  0
 21 22  2  0  0  0  0
 21 23  1  0  0  0  0
 19 20  1  0  0  0  0
 17 18  2  0  0  0  0
 17 19  1  0  0  0  0
 14 15  1  0  0  0  0
 14 16  1  0  0  0  0
 14 17  1  0  0  0  0
 11 12  1  0  0  0  0
 11 13  1  0  0  0  0
 11 14  1  0  0  0  0
  9 10  1  0  0  0  0
  9 11  1  0  0  0  0
  9 21  1  0  0  0  0
  7  8  1  0  0  0  0
  7  9  1  0  0  0  0
 25 26  1  0  0  0  0
 25 27  1  0  0  0  0
 25 28  1  0  0  0  0
 23 24  1  0  0  0  0
 23 25  1  0  0  0  0
M  END
$$$$
default_name
  -OEChem-02102213163D

 28 27  0     1  0  0  0  0  0999 V2000
   -3.2133   -3.5565    1.2809 H   0  0  0  0  0  0  0  0  0  0  0  0
   -3.1873   -2.5755    0.8089 C   0  0  0  0  0  0  0  0  0  0  0  0
   -3.8793   -1.9065    1.3169 H   0  0  0  0  0  0  0  0  0  0  0  0
   -3.4623   -2.6685   -0.2401 H   0  0  0  0  0  0  0  0  0  0  0  0
   -1.7863   -2.0195    0.9119 C   0  0  0  0  0  0  0  0  0  0  0  0
   -0.9073   -2.6615    1.4699 O   0  0  0  0  0  0  0  0  0  0  0  0
   -1.5803   -0.8195    0.3749 N   0  0  0  0  0  0  0  0  0  0  0  0
   -2.3603   -0.3345   -0.0451 H   0  0  0  0  0  0  0  0  0  0  0  0
   -0.2933   -0.1205    0.3719 C   0  0  1  0  0  0  0  0  0  0  0  0
    0.4439   -0.7485   -0.1303 H   0  0  0  0  0  0  0  0  0  0  0  0
   -0.4368    1.1924   -0.4246 C   0  0  0  0  0  0  0  0  0  0  0  0
   -0.9696    1.9115    0.2000 H   0  0  0  0  0  0  0  0  0  0  0  0
    0.5548    1.5956   -0.6356 H   0  0  0  0  0  0  0  0  0  0  0  0
   -1.1935    1.0351   -1.7549 C   0  0  0  0  0  0  0  0  0  0  0  0
   -0.5477    1.3203   -2.5854 H   0  0  0  0  0  0  0  0  0  0  0  0
   -1.4915   -0.0057   -1.8761 H   0  0  0  0  0  0  0  0  0  0  0  0
   -2.4506    1.8971   -1.8105 C   0  0  0  0  0  0  0  0  0  0  0  0
   -2.9002    2.5409   -0.8760 O   0  0  0  0  0  0  0  0  0  0  0  0
   -3.0904    1.9136   -2.9945 O   0  0  0  0  0  0  0  0  0  0  0  0
   -3.8521    2.4804   -2.8606 H   0  0  0  0  0  0  0  0  0  0  0  0
    0.1871    0.1189    1.8122 C   0  0  0  0  0  0  0  0  0  0  0  0
    1.3541   -0.1171    2.1187 O   0  0  0  0  0  0  0  0  0  0  0  0
   -0.7126    0.5740    2.6926 N   0  0  0  0  0  0  0  0  0  0  0  0
   -1.6464    0.7663    2.3621 H   0  0  0  0  0  0  0  0  0  0  0  0
   -0.4191    0.8310    4.1010 C   0  0  0  0  0  0  0  0  0  0  0  0
    0.4022    1.5452    4.1828 H   0  0  0  0  0  0  0  0  0  0  0  0
   -1.2983    1.2366    4.6035 H   0  0  0  0  0  0  0  0  0  0  0  0
   -0.1204   -0.0980    4.5907 H   0  0  0  0  0  0  0  0  0  0  0  0
  5  6  2  0  0  0  0
  5  7  1  0  0  0  0
  2  3  1  0  0  0  0
  2  4  1  0  0  0  0
  2  5  1  0  0  0  0
  1  2  1  0  0  0  0
 21 22  2  0  0  0  0
 21 23  1  0  0  0  0
 19 20  1  0  0  0  0
 17 18  2  0  0  0  0
 17 19  1  0  0  0  0
 14 15  1  0  0  0  0
 14 16  1  0  0  0  0
 14 17  1  0  0  0  0
 11 12  1  0  0  0  0
 11 13  1  0  0  0  0
 11 14  1  0  0  0  0
  9 10  1  0  0  0  0
  9 11  1  0  0  0  0
  9 21  1  0  0  0  0
  7  8  1  0  0  0  0
  7  9  1  0  0  0  0
 25 26  1  0  0  0  0
 25 27  1  0  0  0  0
 25 28  1  0  0  0  0
 23 24  1  0  0  0  0
 23 25  1  0  0  0  0
M  END
$$$$
default_name
  -OEChem-02102213163D

 28 27  0     1  0  0  0  0  0999 V2000
   -3.2133   -3.5565    1.2809 H   0  0  0  0  0  0  0  0  0  0  0  0
   -3.1873   -2.5755    0.8089 C   0  0  0  0  0  0  0  0  0  0  0  0
   -3.8793   -1.9065    1.3169 H   0  0  0  0  0  0  0  0  0  0  0  0
   -3.4623   -2.6685   -0.2401 H   0  0  0  0  0  0  0  0  0  0  0  0
   -1.7863   -2.0195    0.9119 C   0  0  0  0  0  0  0  0  0  0  0  0
   -0.9073   -2.6615    1.4699 O   0  0  0  0  0  0  0  0  0  0  0  0
   -1.5803   -0.8195    0.3749 N   0  0  0  0  0  0  0  0  0  0  0  0
   -2.3603   -0.3345   -0.0451 H   0  0  0  0  0  0  0  0  0  0  0  0
   -0.2933   -0.1205    0.3719 C   0  0  1  0  0  0  0  0  0  0  0  0
    0.4439   -0.7485   -0.1303 H   0  0  0  0  0  0  0  0  0  0  0  0
   -0.4368    1.1924   -0.4246 C   0  0  0  0  0  0  0  0  0  0  0  0
   -0.9696    1.9115    0.2000 H   0  0  0  0  0  0  0  0  0  0  0  0
    0.5548    1.5956   -0.6356 H   0  0  0  0  0  0  0  0  0  0  0  0
   -1.1935    1.0351   -1.7549 C   0  0  0  0  0  0  0  0  0  0  0  0
   -0.4901    1.0590   -2.5873 H   0  0  0  0  0  0  0  0  0  0  0  0
   -1.7171    0.0797   -1.7579 H   0  0  0  0  0  0  0  0  0  0  0  0
   -2.2230    2.1400   -1.9686 C   0  0  0  0  0  0  0  0  0  0  0  0
   -2.5271    2.9837   -1.1407 O   0  0  0  0  0  0  0  0  0  0  0  0
   -2.8285    2.1437   -3.1708 O   0  0  0  0  0  0  0  0  0  0  0  0
   -3.4442    2.8780   -3.1397 H   0  0  0  0  0  0  0  0  0  0  0  0
    0.1871    0.1189    1.8122 C   0  0  0  0  0  0  0  0  0  0  0  0
    1.3541   -0.1171    2.1187 O   0  0  0  0  0  0  0  0  0  0  0  0
   -0.7126    0.5740    2.6926 N   0  0  0  0  0  0  0  0  0  0  0  0
   -1.6464    0.7663    2.3621 H   0  0  0  0  0  0  0  0  0  0  0  0
   -0.4191    0.8310    4.1010 C   0  0  0  0  0  0  0  0  0  0  0  0
    0.4022    1.5452    4.1828 H   0  0  0  0  0  0  0  0  0  0  0  0
   -1.2983    1.2366    4.6035 H   0  0  0  0  0  0  0  0  0  0  0  0
   -0.1204   -0.0980    4.5907 H   0  0  0  0  0  0  0  0  0  0  0  0
  5  6  2  0  0  0  0
  5  7  1  0  0  0  0
  2  3  1  0  0  0  0
  2  4  1  0  0  0  0
  2  5  1  0  0  0  0
  1  2  1  0  0  0  0
 21 22  2  0  0  0  0
 21 23  1  0  0  0  0
 19 20  1  0  0  0  0
 17 18  2  0  0  0  0
 17 19  1  0  0  0  0
 14 15  1  0  0  0  0
 14 16  1  0  0  0  0
 14 17  1  0  0  0  0
 11 12  1  0  0  0  0
 11 13  1  0  0  0  0
 11 14  1  0  0  0  0
  9 10  1  0  0  0  0
  9 11  1  0  0  0  0
  9 21  1  0  0  0  0
  7  8  1  0  0  0  0
  7  9  1  0  0  0  0
 25 26  1  0  0  0  0
 25 27  1  0  0  0  0
 25 28  1  0  0  0  0
 23 24  1  0  0  0  0
 23 25  1  0  0  0  0
M  END
$$$$
default_name
  -OEChem-02102213163D

 28 27  0     1  0  0  0  0  0999 V2000
   -3.2133   -3.5565    1.2809 H   0  0  0  0  0  0  0  0  0  0  0  0
   -3.1873   -2.5755    0.8089 C   0  0  0  0  0  0  0  0  0  0  0  0
   -3.8793   -1.9065    1.3169 H   0  0  0  0  0  0  0  0  0  0  0  0
   -3.4623   -2.6685   -0.2401 H   0  0  0  0  0  0  0  0  0  0  0  0
   -1.7863   -2.0195    0.9119 C   0  0  0  0  0  0  0  0  0  0  0  0
   -0.9073   -2.6615    1.4699 O   0  0  0  0  0  0  0  0  0  0  0  0
   -1.5803   -0.8195    0.3749 N   0  0  0  0  0  0  0  0  0  0  0  0
   -2.3603   -0.3345   -0.0451 H   0  0  0  0  0  0  0  0  0  0  0  0
   -0.2933   -0.1205    0.3719 C   0  0  1  0  0  0  0  0  0  0  0  0
    0.4439   -0.7485   -0.1303 H   0  0  0  0  0  0  0  0  0  0  0  0
   -0.4368    1.1924   -0.4246 C   0  0  0  0  0  0  0  0  0  0  0  0
   -0.9696    1.9115    0.2000 H   0  0  0  0  0  0  0  0  0  0  0  0
    0.5548    1.5956   -0.6356 H   0  0  0  0  0  0  0  0  0  0  0  0
   -1.1935    1.0351   -1.7549 C   0  0  0  0  0  0  0  0  0  0  0  0
   -0.4929    0.7935   -2.5543 H   0  0  0  0  0  0  0  0  0  0  0  0
   -1.9189    0.2278   -1.6606 H   0  0  0  0  0  0  0  0  0  0  0  0
   -1.9447    2.3035   -2.1463 C   0  0  0  0  0  0  0  0  0  0  0  0
   -2.0606    3.2942   -1.4428 O   0  0  0  0  0  0  0  0  0  0  0  0
   -2.5193    2.2849   -3.3634 O   0  0  0  0  0  0  0  0  0  0  0  0
   -2.9539    3.1352   -3.4490 H   0  0  0  0  0  0  0  0  0  0  0  0
    0.1871    0.1189    1.8122 C   0  0  0  0  0  0  0  0  0  0  0  0
    1.3541   -0.1171    2.1187 O   0  0  0  0  0  0  0  0  0  0  0  0
   -0.7126    0.5740    2.6926 N   0  0  0  0  0  0  0  0  0  0  0  0
   -1.6464    0.7663    2.3621 H   0  0  0  0  0  0  0  0  0  0  0  0
   -0.4191    0.8310    4.1010 C   0  0  0  0  0  0  0  0  0  0  0  0
    0.4022    1.5452    4.1828 H   0  0  0  0  0  0  0  0  0  0  0  0
   -1.2983    1.2366    4.6035 H   0  0  0  0  0  0  0  0  0  0  0  0
   -0.1204   -0.0980    4.5907 H   0  0  0  0  0  0  0  0  0  0  0  0
  5  6  2  0  0  0  0
  5  7  1  0  0  0  0
  2  3  1  0  0  0  0
  2  4  1  0  0  0  0
  2  5  1  0  0  0  0
  1  2  1  0  0  0  0
 21 22  2  0  0  0  0
 21 23  1  0  0  0  0
 19 20  1  0  0  0  0
 17 18  2  0  0  0  0
 17 19  1  0  0  0  0
 14 15  1  0  0  0  0
 14 16  1  0  0  0  0
 14 17  1  0  0  0  0
 11 12  1  0  0  0  0
 11 13  1  0  0  0  0
 11 14  1  0  0  0  0
  9 10  1  0  0  0  0
  9 11  1  0  0  0  0
  9 21  1  0  0  0  0
  7  8  1  0  0  0  0
  7  9  1  0  0  0  0
 25 26  1  0  0  0  0
 25 27  1  0  0  0  0
 25 28  1  0  0  0  0
 23 24  1  0  0  0  0
 23 25  1  0  0  0  0
M  END
$$$$
default_name
  -OEChem-02102213163D

 28 27  0     1  0  0  0  0  0999 V2000
   -3.2133   -3.5565    1.2809 H   0  0  0  0  0  0  0  0  0  0  0  0
   -3.1873   -2.5755    0.8089 C   0  0  0  0  0  0  0  0  0  0  0  0
   -3.8793   -1.9065    1.3169 H   0  0  0  0  0  0  0  0  0  0  0  0
   -3.4623   -2.6685   -0.2401 H   0  0  0  0  0  0  0  0  0  0  0  0
   -1.7863   -2.0195    0.9119 C   0  0  0  0  0  0  0  0  0  0  0  0
   -0.9073   -2.6615    1.4699 O   0  0  0  0  0  0  0  0  0  0  0  0
   -1.5803   -0.8195    0.3749 N   0  0  0  0  0  0  0  0  0  0  0  0
   -2.3603   -0.3345   -0.0451 H   0  0  0  0  0  0  0  0  0  0  0  0
   -0.2933   -0.1205    0.3719 C   0  0  1  0  0  0  0  0  0  0  0  0
    0.4439   -0.7485   -0.1303 H   0  0  0  0  0  0  0  0  0  0  0  0
   -0.4368    1.1924   -0.4246 C   0  0  0  0  0  0  0  0  0  0  0  0
   -0.9696    1.9115    0.2000 H   0  0  0  0  0  0  0  0  0  0  0  0
    0.5548    1.5956   -0.6356 H   0  0  0  0  0  0  0  0  0  0  0  0
   -1.1935    1.0351   -1.7549 C   0  0  0  0  0  0  0  0  0  0  0  0
   -0.5559    0.5419   -2.4887 H   0  0  0  0  0  0  0  0  0  0  0  0
   -2.0833    0.4284   -1.5908 H   0  0  0  0  0  0  0  0  0  0  0  0
   -1.6346    2.3765   -2.3314 C   0  0  0  0  0  0  0  0  0  0  0  0
   -1.5325    3.4512   -1.7618 O   0  0  0  0  0  0  0  0  0  0  0  0
   -2.1839    2.3275   -3.5592 O   0  0  0  0  0  0  0  0  0  0  0  0
   -2.4145    3.2345   -3.7676 H   0  0  0  0  0  0  0  0  0  0  0  0
    0.1871    0.1189    1.8122 C   0  0  0  0  0  0  0  0  0  0  0  0
    1.3541   -0.1171    2.1187 O   0  0  0  0  0  0  0  0  0  0  0  0
   -0.7126    0.5740    2.6926 N   0  0  0  0  0  0  0  0  0  0  0  0
   -1.6464    0.7663    2.3621 H   0  0  0  0  0  0  0  0  0  0  0  0
   -0.4191    0.8310    4.1010 C   0  0  0  0  0  0  0  0  0  0  0  0
    0.4022    1.5452    4.1828 H   0  0  0  0  0  0  0  0  0  0  0  0
   -1.2983    1.2366    4.6035 H   0  0  0  0  0  0  0  0  0  0  0  0
   -0.1204   -0.0980    4.5907 H   0  0  0  0  0  0  0  0  0  0  0  0
  5  6  2  0  0  0  0
  5  7  1  0  0  0  0
  2  3  1  0  0  0  0
  2  4  1  0  0  0  0
  2  5  1  0  0  0  0
  1  2  1  0  0  0  0
 21 22  2  0  0  0  0
 21 23  1  0  0  0  0
 19 20  1  0  0  0  0
 17 18  2  0  0  0  0
 17 19  1  0  0  0  0
 14 15  1  0  0  0  0
 14 16  1  0  0  0  0
 14 17  1  0  0  0  0
 11 12  1  0  0  0  0
 11 13  1  0  0  0  0
 11 14  1  0  0  0  0
  9 10  1  0  0  0  0
  9 11  1  0  0  0  0
  9 21  1  0  0  0  0
  7  8  1  0  0  0  0
  7  9  1  0  0  0  0
 25 26  1  0  0  0  0
 25 27  1  0  0  0  0
 25 28  1  0  0  0  0
 23 24  1  0  0  0  0
 23 25  1  0  0  0  0
M  END
$$$$
default_name
  -OEChem-02102213163D

 28 27  0     1  0  0  0  0  0999 V2000
   -3.2133   -3.5565    1.2809 H   0  0  0  0  0  0  0  0  0  0  0  0
   -3.1873   -2.5755    0.8089 C   0  0  0  0  0  0  0  0  0  0  0  0
   -3.8793   -1.9065    1.3169 H   0  0  0  0  0  0  0  0  0  0  0  0
   -3.4623   -2.6685   -0.2401 H   0  0  0  0  0  0  0  0  0  0  0  0
   -1.7863   -2.0195    0.9119 C   0  0  0  0  0  0  0  0  0  0  0  0
   -0.9073   -2.6615    1.4699 O   0  0  0  0  0  0  0  0  0  0  0  0
   -1.5803   -0.8195    0.3749 N   0  0  0  0  0  0  0  0  0  0  0  0
   -2.3603   -0.3345   -0.0451 H   0  0  0  0  0  0  0  0  0  0  0  0
   -0.2933   -0.1205    0.3719 C   0  0  1  0  0  0  0  0  0  0  0  0
    0.4439   -0.7485   -0.1303 H   0  0  0  0  0  0  0  0  0  0  0  0
   -0.4368    1.1924   -0.4246 C   0  0  0  0  0  0  0  0  0  0  0  0
   -0.7188    1.9831    0.2728 H   0  0  0  0  0  0  0  0  0  0  0  0
    0.5273    1.4546   -0.8629 H   0  0  0  0  0  0  0  0  0  0  0  0
   -1.4838    1.1276   -1.5500 C   0  0  0  0  0  0  0  0  0  0  0  0
   -1.2181    0.3440   -2.2596 H   0  0  0  0  0  0  0  0  0  0  0  0
   -2.4588    0.9029   -1.1191 H   0  0  0  0  0  0  0  0  0  0  0  0
   -1.5952    2.4438   -2.3127 C   0  0  0  0  0  0  0  0  0  0  0  0
   -1.0321    3.4819   -2.0041 O   0  0  0  0  0  0  0  0  0  0  0  0
   -2.3937    2.4205   -3.3960 O   0  0  0  0  0  0  0  0  0  0  0  0
   -2.3658    3.3119   -3.7479 H   0  0  0  0  0  0  0  0  0  0  0  0
    0.1871    0.1189    1.8122 C   0  0  0  0  0  0  0  0  0  0  0  0
    1.3541   -0.1171    2.1187 O   0  0  0  0  0  0  0  0  0  0  0  0
   -0.7126    0.5740    2.6926 N   0  0  0  0  0  0  0  0  0  0  0  0
   -1.6464    0.7663    2.3621 H   0  0  0  0  0  0  0  0  0  0  0  0
   -0.4191    0.8310    4.1010 C   0  0  0  0  0  0  0  0  0  0  0  0
    0.4022    1.5452    4.1828 H   0  0  0  0  0  0  0  0  0  0  0  0
   -1.2983    1.2366    4.6035 H   0  0  0  0  0  0  0  0  0  0  0  0
   -0.1204   -0.0980    4.5907 H   0  0  0  0  0  0  0  0  0  0  0  0
  5  6  2  0  0  0  0
  5  7  1  0  0  0  0
  2  3  1  0  0  0  0
  2  4  1  0  0  0  0
  2  5  1  0  0  0  0
  1  2  1  0  0  0  0
 21 22  2  0  0  0  0
 21 23  1  0  0  0  0
 19 20  1  0  0  0  0
 17 18  2  0  0  0  0
 17 19  1  0  0  0  0
 14 15  1  0  0  0  0
 14 16  1  0  0  0  0
 14 17  1  0  0  0  0
 11 12  1  0  0  0  0
 11 13  1  0  0  0  0
 11 14  1  0  0  0  0
  9 10  1  0  0  0  0
  9 11  1  0  0  0  0
  9 21  1  0  0  0  0
  7  8  1  0  0  0  0
  7  9  1  0  0  0  0
 25 26  1  0  0  0  0
 25 27  1  0  0  0  0
 25 28  1  0  0  0  0
 23 24  1  0  0  0  0
 23 25  1  0  0  0  0
M  END
$$$$
default_name
  -OEChem-02102213163D

 28 27  0     1  0  0  0  0  0999 V2000
   -3.2133   -3.5565    1.2809 H   0  0  0  0  0  0  0  0  0  0  0  0
   -3.1873   -2.5755    0.8089 C   0  0  0  0  0  0  0  0  0  0  0  0
   -3.8793   -1.9065    1.3169 H   0  0  0  0  0  0  0  0  0  0  0  0
   -3.4623   -2.6685   -0.2401 H   0  0  0  0  0  0  0  0  0  0  0  0
   -1.7863   -2.0195    0.9119 C   0  0  0  0  0  0  0  0  0  0  0  0
   -0.9073   -2.6615    1.4699 O   0  0  0  0  0  0  0  0  0  0  0  0
   -1.5803   -0.8195    0.3749 N   0  0  0  0  0  0  0  0  0  0  0  0
   -2.3603   -0.3345   -0.0451 H   0  0  0  0  0  0  0  0  0  0  0  0
   -0.2933   -0.1205    0.3719 C   0  0  1  0  0  0  0  0  0  0  0  0
    0.4439   -0.7485   -0.1303 H   0  0  0  0  0  0  0  0  0  0  0  0
   -0.4368    1.1924   -0.4246 C   0  0  0  0  0  0  0  0  0  0  0  0
   -0.7188    1.9831    0.2728 H   0  0  0  0  0  0  0  0  0  0  0  0
    0.5273    1.4546   -0.8629 H   0  0  0  0  0  0  0  0  0  0  0  0
   -1.4838    1.1276   -1.5500 C   0  0  0  0  0  0  0  0  0  0  0  0
   -1.3764    0.1949   -2.1038 H   0  0  0  0  0  0  0  0  0  0  0  0
   -2.4811    1.1705   -1.1138 H   0  0  0  0  0  0  0  0  0  0  0  0
   -1.3473    2.2849   -2.5342 C   0  0  0  0  0  0  0  0  0  0  0  0
   -0.5951    3.2363   -2.3965 O   0  0  0  0  0  0  0  0  0  0  0  0
   -2.1422    2.2208   -3.6184 O   0  0  0  0  0  0  0  0  0  0  0  0
   -1.9473    3.0143   -4.1201 H   0  0  0  0  0  0  0  0  0  0  0  0
    0.1871    0.1189    1.8122 C   0  0  0  0  0  0  0  0  0  0  0  0
    1.3541   -0.1171    2.1187 O   0  0  0  0  0  0  0  0  0  0  0  0
   -0.7126    0.5740    2.6926 N   0  0  0  0  0  0  0  0  0  0  0  0
   -1.6464    0.7663    2.3621 H   0  0  0  0  0  0  0  0  0  0  0  0
   -0.4191    0.8310    4.1010 C   0  0  0  0  0  0  0  0  0  0  0  0
    0.4022    1.5452    4.1828 H   0  0  0  0  0  0  0  0  0  0  0  0
   -1.2983    1.2366    4.6035 H   0  0  0  0  0  0  0  0  0  0  0  0
   -0.1204   -0.0980    4.5907 H   0  0  0  0  0  0  0  0  0  0  0  0
  5  6  2  0  0  0  0
  5  7  1  0  0  0  0
  2  3  1  0  0  0  0
  2  4  1  0  0  0  0
  2  5  1  0  0  0  0
  1  2  1  0  0  0  0
 21 22  2  0  0  0  0
 21 23  1  0  0  0  0
 19 20  1  0  0  0  0
 17 18  2  0  0  0  0
 17 19  1  0  0  0  0
 14 15  1  0  0  0  0
 14 16  1  0  0  0  0
 14 17  1  0  0  0  0
 11 12  1  0  0  0  0
 11 13  1  0  0  0  0
 11 14  1  0  0  0  0
  9 10  1  0  0  0  0
  9 11  1  0  0  0  0
  9 21  1  0  0  0  0
  7  8  1  0  0  0  0
  7  9  1  0  0  0  0
 25 26  1  0  0  0  0
 25 27  1  0  0  0  0
 25 28  1  0  0  0  0
 23 24  1  0  0  0  0
 23 25  1  0  0  0  0
M  END
$$$$
default_name
  -OEChem-02102213163D

 28 27  0     1  0  0  0  0  0999 V2000
   -3.2133   -3.5565    1.2809 H   0  0  0  0  0  0  0  0  0  0  0  0
   -3.1873   -2.5755    0.8089 C   0  0  0  0  0  0  0  0  0  0  0  0
   -3.8793   -1.9065    1.3169 H   0  0  0  0  0  0  0  0  0  0  0  0
   -3.4623   -2.6685   -0.2401 H   0  0  0  0  0  0  0  0  0  0  0  0
   -1.7863   -2.0195    0.9119 C   0  0  0  0  0  0  0  0  0  0  0  0
   -0.9073   -2.6615    1.4699 O   0  0  0  0  0  0  0  0  0  0  0  0
   -1.5803   -0.8195    0.3749 N   0  0  0  0  0  0  0  0  0  0  0  0
   -2.3603   -0.3345   -0.0451 H   0  0  0  0  0  0  0  0  0  0  0  0
   -0.2933   -0.1205    0.3719 C   0  0  1  0  0  0  0  0  0  0  0  0
    0.4439   -0.7485   -0.1303 H   0  0  0  0  0  0  0  0  0  0  0  0
   -0.4368    1.1924   -0.4246 C   0  0  0  0  0  0  0  0  0  0  0  0
   -0.7188    1.9831    0.2728 H   0  0  0  0  0  0  0  0  0  0  0  0
    0.5273    1.4546   -0.8629 H   0  0  0  0  0  0  0  0  0  0  0  0
   -1.4838    1.1276   -1.5500 C   0  0  0  0  0  0  0  0  0  0  0  0
   -1.5592    0.1082   -1.9287 H   0  0  0  0  0  0  0  0  0  0  0  0
   -2.4521    1.4341   -1.1560 H   0  0  0  0  0  0  0  0  0  0  0  0
   -1.1355    2.0454   -2.7174 C   0  0  0  0  0  0  0  0  0  0  0  0
   -0.2152    2.8472   -2.7275 O   0  0  0  0  0  0  0  0  0  0  0  0
   -1.9346    1.9411   -3.7954 O   0  0  0  0  0  0  0  0  0  0  0  0
   -1.5953    2.5820   -4.4226 H   0  0  0  0  0  0  0  0  0  0  0  0
    0.1871    0.1189    1.8122 C   0  0  0  0  0  0  0  0  0  0  0  0
    1.3541   -0.1171    2.1187 O   0  0  0  0  0  0  0  0  0  0  0  0
   -0.7126    0.5740    2.6926 N   0  0  0  0  0  0  0  0  0  0  0  0
   -1.6464    0.7663    2.3621 H   0  0  0  0  0  0  0  0  0  0  0  0
   -0.4191    0.8310    4.1010 C   0  0  0  0  0  0  0  0  0  0  0  0
    0.4022    1.5452    4.1828 H   0  0  0  0  0  0  0  0  0  0  0  0
   -1.2983    1.2366    4.6035 H   0  0  0  0  0  0  0  0  0  0  0  0
   -0.1204   -0.0980    4.5907 H   0  0  0  0  0  0  0  0  0  0  0  0
  5  6  2  0  0  0  0
  5  7  1  0  0  0  0
  2  3  1  0  0  0  0
  2  4  1  0  0  0  0
  2  5  1  0  0  0  0
  1  2  1  0  0  0  0
 21 22  2  0  0  0  0
 21 23  1  0  0  0  0
 19 20  1  0  0  0  0
 17 18  2  0  0  0  0
 17 19  1  0  0  0  0
 14 15  1  0  0  0  0
 14 16  1  0  0  0  0
 14 17  1  0  0  0  0
 11 12  1  0  0  0  0
 11 13  1  0  0  0  0
 11 14  1  0  0  0  0
  9 10  1  0  0  0  0
  9 11  1  0  0  0  0
  9 21  1  0  0  0  0
  7  8  1  0  0  0  0
  7  9  1  0  0  0  0
 25 26  1  0  0  0  0
 25 27  1  0  0  0  0
 25 28  1  0  0  0  0
 23 24  1  0  0  0  0
 23 25  1  0  0  0  0
M  END
$$$$
default_name
  -OEChem-02102213163D

 28 27  0     1  0  0  0  0  0999 V2000
   -3.2133   -3.5565    1.2809 H   0  0  0  0  0  0  0  0  0  0  0  0
   -3.1873   -2.5755    0.8089 C   0  0  0  0  0  0  0  0  0  0  0  0
   -3.8793   -1.9065    1.3169 H   0  0  0  0  0  0  0  0  0  0  0  0
   -3.4623   -2.6685   -0.2401 H   0  0  0  0  0  0  0  0  0  0  0  0
   -1.7863   -2.0195    0.9119 C   0  0  0  0  0  0  0  0  0  0  0  0
   -0.9073   -2.6615    1.4699 O   0  0  0  0  0  0  0  0  0  0  0  0
   -1.5803   -0.8195    0.3749 N   0  0  0  0  0  0  0  0  0  0  0  0
   -2.3603   -0.3345   -0.0451 H   0  0  0  0  0  0  0  0  0  0  0  0
   -0.2933   -0.1205    0.3719 C   0  0  1  0  0  0  0  0  0  0  0  0
    0.4439   -0.7485   -0.1303 H   0  0  0  0  0  0  0  0  0  0  0  0
   -0.4368    1.1924   -0.4246 C   0  0  0  0  0  0  0  0  0  0  0  0
   -0.7188    1.9831    0.2728 H   0  0  0  0  0  0  0  0  0  0  0  0
    0.5273    1.4546   -0.8629 H   0  0  0  0  0  0  0  0  0  0  0  0
   -1.4838    1.1276   -1.5500 C   0  0  0  0  0  0  0  0  0  0  0  0
   -1.7541    0.0900   -1.7463 H   0  0  0  0  0  0  0  0  0  0  0  0
   -2.3736    1.6759   -1.2429 H   0  0  0  0  0  0  0  0  0  0  0  0
   -0.9743    1.7418   -2.8499 C   0  0  0  0  0  0  0  0  0  0  0  0
    0.0817    2.3411   -2.9746 O   0  0  0  0  0  0  0  0  0  0  0  0
   -1.7852    1.6005   -3.9148 O   0  0  0  0  0  0  0  0  0  0  0  0
   -1.3339    2.0445   -4.6349 H   0  0  0  0  0  0  0  0  0  0  0  0
    0.1871    0.1189    1.8122 C   0  0  0  0  0  0  0  0  0  0  0  0
    1.3541   -0.1171    2.1187 O   0  0  0  0  0  0  0  0  0  0  0  0
   -0.7126    0.5740    2.6926 N   0  0  0  0  0  0  0  0  0  0  0  0
   -1.6464    0.7663    2.3621 H   0  0  0  0  0  0  0  0  0  0  0  0
   -0.4191    0.8310    4.1010 C   0  0  0  0  0  0  0  0  0  0  0  0
    0.4022    1.5452    4.1828 H   0  0  0  0  0  0  0  0  0  0  0  0
   -1.2983    1.2366    4.6035 H   0  0  0  0  0  0  0  0  0  0  0  0
   -0.1204   -0.0980    4.5907 H   0  0  0  0  0  0  0  0  0  0  0  0
  5  6  2  0  0  0  0
  5  7  1  0  0  0  0
  2  3  1  0  0  0  0
  2  4  1  0  0  0  0
  2  5  1  0  0  0  0
  1  2  1  0  0  0  0
 21 22  2  0  0  0  0
 21 23  1  0  0  0  0
 19 20  1  0  0  0  0
 17 18  2  0  0  0  0
 17 19  1  0  0  0  0
 14 15  1  0  0  0  0
 14 16  1  0  0  0  0
 14 17  1  0  0  0  0
 11 12  1  0  0  0  0
 11 13  1  0  0  0  0
 11 14  1  0  0  0  0
  9 10  1  0  0  0  0
  9 11  1  0  0  0  0
  9 21  1  0  0  0  0
  7  8  1  0  0  0  0
  7  9  1  0  0  0  0
 25 26  1  0  0  0  0
 25 27  1  0  0  0  0
 25 28  1  0  0  0  0
 23 24  1  0  0  0  0
 23 25  1  0  0  0  0
M  END
$$$$
default_name
  -OEChem-02102213163D

 28 27  0     1  0  0  0  0  0999 V2000
   -3.2133   -3.5565    1.2809 H   0  0  0  0  0  0  0  0  0  0  0  0
   -3.1873   -2.5755    0.8089 C   0  0  0  0  0  0  0  0  0  0  0  0
   -3.8793   -1.9065    1.3169 H   0  0  0  0  0  0  0  0  0  0  0  0
   -3.4623   -2.6685   -0.2401 H   0  0  0  0  0  0  0  0  0  0  0  0
   -1.7863   -2.0195    0.9119 C   0  0  0  0  0  0  0  0  0  0  0  0
   -0.9073   -2.6615    1.4699 O   0  0  0  0  0  0  0  0  0  0  0  0
   -1.5803   -0.8195    0.3749 N   0  0  0  0  0  0  0  0  0  0  0  0
   -2.3603   -0.3345   -0.0451 H   0  0  0  0  0  0  0  0  0  0  0  0
   -0.2933   -0.1205    0.3719 C   0  0  1  0  0  0  0  0  0  0  0  0
    0.4439   -0.7485   -0.1303 H   0  0  0  0  0  0  0  0  0  0  0  0
   -0.4368    1.1924   -0.4246 C   0  0  0  0  0  0  0  0  0  0  0  0
   -0.7188    1.9831    0.2728 H   0  0  0  0  0  0  0  0  0  0  0  0
    0.5273    1.4546   -0.8629 H   0  0  0  0  0  0  0  0  0  0  0  0
   -1.4838    1.1276   -1.5500 C   0  0  0  0  0  0  0  0  0  0  0  0
   -1.9478    0.1414   -1.5691 H   0  0  0  0  0  0  0  0  0  0  0  0
   -2.2512    1.8793   -1.3685 H   0  0  0  0  0  0  0  0  0  0  0  0
   -0.8746    1.3946   -2.9226 C   0  0  0  0  0  0  0  0  0  0  0  0
    0.2753    1.7526   -3.1209 O   0  0  0  0  0  0  0  0  0  0  0  0
   -1.7040    1.2221   -3.9686 O   0  0  0  0  0  0  0  0  0  0  0  0
   -1.1809    1.4385   -4.7424 H   0  0  0  0  0  0  0  0  0  0  0  0
    0.1871    0.1189    1.8122 C   0  0  0  0  0  0  0  0  0  0  0  0
    1.3541   -0.1171    2.1187 O   0  0  0  0  0  0  0  0  0  0  0  0
   -0.7126    0.5740    2.6926 N   0  0  0  0  0  0  0  0  0  0  0  0
   -1.6464    0.7663    2.3621 H   0  0  0  0  0  0  0  0  0  0  0  0
   -0.4191    0.8310    4.1010 C   0  0  0  0  0  0  0  0  0  0  0  0
    0.4022    1.5452    4.1828 H   0  0  0  0  0  0  0  0  0  0  0  0
   -1.2983    1.2366    4.6035 H   0  0  0  0  0  0  0  0  0  0  0  0
   -0.1204   -0.0980    4.5907 H   0  0  0  0  0  0  0  0  0  0  0  0
  5  6  2  0  0  0  0
  5  7  1  0  0  0  0
  2  3  1  0  0  0  0
  2  4  1  0  0  0  0
  2  5  1  0  0  0  0
  1  2  1  0  0  0  0
 21 22  2  0  0  0  0
 21 23  1  0  0  0  0
 19 20  1  0  0  0  0
 17 18  2  0  0  0  0
 17 19  1  0  0  0  0
 14 15  1  0  0  0  0
 14 16  1  0  0  0  0
 14 17  1  0  0  0  0
 11 12  1  0  0  0  0
 11 13  1  0  0  0  0
 11 14  1  0  0  0  0
  9 10  1  0  0  0  0
  9 11  1  0  0  0  0
  9 21  1  0  0  0  0
  7  8  1  0  0  0  0
  7  9  1  0  0  0  0
 25 26  1  0  0  0  0
 25 27  1  0  0  0  0
 25 28  1  0  0  0  0
 23 24  1  0  0  0  0
 23 25  1  0  0  0  0
M  END
$$$$
default_name
  -OEChem-02102213163D

 28 27  0     1  0  0  0  0  0999 V2000
   -3.2133   -3.5565    1.2809 H   0  0  0  0  0  0  0  0  0  0  0  0
   -3.1873   -2.5755    0.8089 C   0  0  0  0  0  0  0  0  0  0  0  0
   -3.8793   -1.9065    1.3169 H   0  0  0  0  0  0  0  0  0  0  0  0
   -3.4623   -2.6685   -0.2401 H   0  0  0  0  0  0  0  0  0  0  0  0
   -1.7863   -2.0195    0.9119 C   0  0  0  0  0  0  0  0  0  0  0  0
   -0.9073   -2.6615    1.4699 O   0  0  0  0  0  0  0  0  0  0  0  0
   -1.5803   -0.8195    0.3749 N   0  0  0  0  0  0  0  0  0  0  0  0
   -2.3603   -0.3345   -0.0451 H   0  0  0  0  0  0  0  0  0  0  0  0
   -0.2933   -0.1205    0.3719 C   0  0  1  0  0  0  0  0  0  0  0  0
    0.4439   -0.7485   -0.1303 H   0  0  0  0  0  0  0  0  0  0  0  0
   -0.4368    1.1924   -0.4246 C   0  0  0  0  0  0  0  0  0  0  0  0
   -0.7188    1.9831    0.2728 H   0  0  0  0  0  0  0  0  0  0  0  0
    0.5273    1.4546   -0.8629 H   0  0  0  0  0  0  0  0  0  0  0  0
   -1.4838    1.1276   -1.5500 C   0  0  0  0  0  0  0  0  0  0  0  0
   -2.1271    0.2590   -1.4090 H   0  0  0  0  0  0  0  0  0  0  0  0
   -2.0930    2.0304   -1.5244 H   0  0  0  0  0  0  0  0  0  0  0  0
   -0.8433    1.0275   -2.9306 C   0  0  0  0  0  0  0  0  0  0  0  0
    0.3526    1.1216   -3.1564 O   0  0  0  0  0  0  0  0  0  0  0  0
   -1.6967    0.8318   -3.9529 O   0  0  0  0  0  0  0  0  0  0  0  0
   -1.1466    0.8052   -4.7378 H   0  0  0  0  0  0  0  0  0  0  0  0
    0.1871    0.1189    1.8122 C   0  0  0  0  0  0  0  0  0  0  0  0
    1.3541   -0.1171    2.1187 O   0  0  0  0  0  0  0  0  0  0  0  0
   -0.7126    0.5740    2.6926 N   0  0  0  0  0  0  0  0  0  0  0  0
   -1.6464    0.7663    2.3621 H   0  0  0  0  0  0  0  0  0  0  0  0
   -0.4191    0.8310    4.1010 C   0  0  0  0  0  0  0  0  0  0  0  0
    0.4022    1.5452    4.1828 H   0  0  0  0  0  0  0  0  0  0  0  0
   -1.2983    1.2366    4.6035 H   0  0  0  0  0  0  0  0  0  0  0  0
   -0.1204   -0.0980    4.5907 H   0  0  0  0  0  0  0  0  0  0  0  0
  5  6  2  0  0  0  0
  5  7  1  0  0  0  0
  2  3  1  0  0  0  0
  2  4  1  0  0  0  0
  2  5  1  0  0  0  0
  1  2  1  0  0  0  0
 21 22  2  0  0  0  0
 21 23  1  0  0  0  0
 19 20  1  0  0  0  0
 17 18  2  0  0  0  0
 17 19  1  0  0  0  0
 14 15  1  0  0  0  0
 14 16  1  0  0  0  0
 14 17  1  0  0  0  0
 11 12  1  0  0  0  0
 11 13  1  0  0  0  0
 11 14  1  0  0  0  0
  9 10  1  0  0  0  0
  9 11  1  0  0  0  0
  9 21  1  0  0  0  0
  7  8  1  0  0  0  0
  7  9  1  0  0  0  0
 25 26  1  0  0  0  0
 25 27  1  0  0  0  0
 25 28  1  0  0  0  0
 23 24  1  0  0  0  0
 23 25  1  0  0  0  0
M  END
$$$$
default_name
  -OEChem-02102213163D

 28 27  0     1  0  0  0  0  0999 V2000
   -3.2133   -3.5565    1.2809 H   0  0  0  0  0  0  0  0  0  0  0  0
   -3.1873   -2.5755    0.8089 C   0  0  0  0  0  0  0  0  0  0  0  0
   -3.8793   -1.9065    1.3169 H   0  0  0  0  0  0  0  0  0  0  0  0
   -3.4623   -2.6685   -0.2401 H   0  0  0  0  0  0  0  0  0  0  0  0
   -1.7863   -2.0195    0.9119 C   0  0  0  0  0  0  0  0  0  0  0  0
   -0.9073   -2.6615    1.4699 O   0  0  0  0  0  0  0  0  0  0  0  0
   -1.5803   -0.8195    0.3749 N   0  0  0  0  0  0  0  0  0  0  0  0
   -2.3603   -0.3345   -0.0451 H   0  0  0  0  0  0  0  0  0  0  0  0
   -0.2933   -0.1205    0.3719 C   0  0  1  0  0  0  0  0  0  0  0  0
    0.4439   -0.7485   -0.1303 H   0  0  0  0  0  0  0  0  0  0  0  0
   -0.4368    1.1924   -0.4246 C   0  0  0  0  0  0  0  0  0  0  0  0
   -0.7188    1.9831    0.2728 H   0  0  0  0  0  0  0  0  0  0  0  0
    0.5273    1.4546   -0.8629 H   0  0  0  0  0  0  0  0  0  0  0  0
   -1.4838    1.1276   -1.5500 C   0  0  0  0  0  0  0  0  0  0  0  0
   -2.2798    0.4347   -1.2771 H   0  0  0  0  0  0  0  0  0  0  0  0
   -1.9099    2.1189   -1.6999 H   0  0  0  0  0  0  0  0  0  0  0  0
   -0.8824    0.6657   -2.8734 C   0  0  0  0  0  0  0  0  0  0  0  0
    0.3081    0.4913   -3.0787 O   0  0  0  0  0  0  0  0  0  0  0  0
   -1.7636    0.4562   -3.8690 O   0  0  0  0  0  0  0  0  0  0  0  0
   -1.2334    0.1878   -4.6214 H   0  0  0  0  0  0  0  0  0  0  0  0
    0.1871    0.1189    1.8122 C   0  0  0  0  0  0  0  0  0  0  0  0
    1.3541   -0.1171    2.1187 O   0  0  0  0  0  0  0  0  0  0  0  0
   -0.7126    0.5740    2.6926 N   0  0  0  0  0  0  0  0  0  0  0  0
   -1.6464    0.7663    2.3621 H   0  0  0  0  0  0  0  0  0  0  0  0
   -0.4191    0.8310    4.1010 C   0  0  0  0  0  0  0  0  0  0  0  0
    0.4022    1.5452    4.1828 H   0  0  0  0  0  0  0  0  0  0  0  0
   -1.2983    1.2366    4.6035 H   0  0  0  0  0  0  0  0  0  0  0  0
   -0.1204   -0.0980    4.5907 H   0  0  0  0  0  0  0  0  0  0  0  0
  5  6  2  0  0  0  0
  5  7  1  0  0  0  0
  2  3  1  0  0  0  0
  2  4  1  0  0  0  0
  2  5  1  0  0  0  0
  1  2  1  0  0  0  0
 21 22  2  0  0  0  0
 21 23  1  0  0  0  0
 19 20  1  0  0  0  0
 17 18  2  0  0  0  0
 17 19  1  0  0  0  0
 14 15  1  0  0  0  0
 14 16  1  0  0  0  0
 14 17  1  0  0  0  0
 11 12  1  0  0  0  0
 11 13  1  0  0  0  0
 11 14  1  0  0  0  0
  9 10  1  0  0  0  0
  9 11  1  0  0  0  0
  9 21  1  0  0  0  0
  7  8  1  0  0  0  0
  7  9  1  0  0  0  0
 25 26  1  0  0  0  0
 25 27  1  0  0  0  0
 25 28  1  0  0  0  0
 23 24  1  0  0  0  0
 23 25  1  0  0  0  0
M  END
$$$$
default_name
  -OEChem-02102213163D

 28 27  0     1  0  0  0  0  0999 V2000
   -3.2133   -3.5565    1.2809 H   0  0  0  0  0  0  0  0  0  0  0  0
   -3.1873   -2.5755    0.8089 C   0  0  0  0  0  0  0  0  0  0  0  0
   -3.8793   -1.9065    1.3169 H   0  0  0  0  0  0  0  0  0  0  0  0
   -3.4623   -2.6685   -0.2401 H   0  0  0  0  0  0  0  0  0  0  0  0
   -1.7863   -2.0195    0.9119 C   0  0  0  0  0  0  0  0  0  0  0  0
   -0.9073   -2.6615    1.4699 O   0  0  0  0  0  0  0  0  0  0  0  0
   -1.5803   -0.8195    0.3749 N   0  0  0  0  0  0  0  0  0  0  0  0
   -2.3603   -0.3345   -0.0451 H   0  0  0  0  0  0  0  0  0  0  0  0
   -0.2933   -0.1205    0.3719 C   0  0  1  0  0  0  0  0  0  0  0  0
    0.4439   -0.7485   -0.1303 H   0  0  0  0  0  0  0  0  0  0  0  0
   -0.4368    1.1924   -0.4246 C   0  0  0  0  0  0  0  0  0  0  0  0
   -0.7188    1.9831    0.2728 H   0  0  0  0  0  0  0  0  0  0  0  0
    0.5273    1.4546   -0.8629 H   0  0  0  0  0  0  0  0  0  0  0  0
   -1.4838    1.1276   -1.5500 C   0  0  0  0  0  0  0  0  0  0  0  0
   -2.3954    0.6565   -1.1823 H   0  0  0  0  0  0  0  0  0  0  0  0
   -1.7144    2.1389   -1.8829 H   0  0  0  0  0  0  0  0  0  0  0  0
   -0.9893    0.3336   -2.7548 C   0  0  0  0  0  0  0  0  0  0  0  0
    0.1450   -0.0954   -2.8932 O   0  0  0  0  0  0  0  0  0  0  0  0
   -1.9003    0.1208   -3.7225 O   0  0  0  0  0  0  0  0  0  0  0  0
   -1.4355   -0.3716   -4.4012 H   0  0  0  0  0  0  0  0  0  0  0  0
    0.1871    0.1189    1.8122 C   0  0  0  0  0  0  0  0  0  0  0  0
    1.3541   -0.1171    2.1187 O   0  0  0  0  0  0  0  0  0  0  0  0
   -0.7126    0.5740    2.6926 N   0  0  0  0  0  0  0  0  0  0  0  0
   -1.6464    0.7663    2.3621 H   0  0  0  0  0  0  0  0  0  0  0  0
   -0.4191    0.8310    4.1010 C   0  0  0  0  0  0  0  0  0  0  0  0
    0.4022    1.5452    4.1828 H   0  0  0  0  0  0  0  0  0  0  0  0
   -1.2983    1.2366    4.6035 H   0  0  0  0  0  0  0  0  0  0  0  0
   -0.1204   -0.0980    4.5907 H   0  0  0  0  0  0  0  0  0  0  0  0
  5  6  2  0  0  0  0
  5  7  1  0  0  0  0
  2  3  1  0  0  0  0
  2  4  1  0  0  0  0
  2  5  1  0  0  0  0
  1  2  1  0  0  0  0
 21 22  2  0  0  0  0
 21 23  1  0  0  0  0
 19 20  1  0  0  0  0
 17 18  2  0  0  0  0
 17 19  1  0  0  0  0
 14 15  1  0  0  0  0
 14 16  1  0  0  0  0
 14 17  1  0  0  0  0
 11 12  1  0  0  0  0
 11 13  1  0  0  0  0
 11 14  1  0  0  0  0
  9 10  1  0  0  0  0
  9 11  1  0  0  0  0
  9 21  1  0  0  0  0
  7  8  1  0  0  0  0
  7  9  1  0  0  0  0
 25 26  1  0  0  0  0
 25 27  1  0  0  0  0
 25 28  1  0  0  0  0
 23 24  1  0  0  0  0
 23 25  1  0  0  0  0
M  END
$$$$
default_name
  -OEChem-02102213163D

 28 27  0     1  0  0  0  0  0999 V2000
   -3.2133   -3.5565    1.2809 H   0  0  0  0  0  0  0  0  0  0  0  0
   -3.1873   -2.5755    0.8089 C   0  0  0  0  0  0  0  0  0  0  0  0
   -3.8793   -1.9065    1.3169 H   0  0  0  0  0  0  0  0  0  0  0  0
   -3.4623   -2.6685   -0.2401 H   0  0  0  0  0  0  0  0  0  0  0  0
   -1.7863   -2.0195    0.9119 C   0  0  0  0  0  0  0  0  0  0  0  0
   -0.9073   -2.6615    1.4699 O   0  0  0  0  0  0  0  0  0  0  0  0
   -1.5803   -0.8195    0.3749 N   0  0  0  0  0  0  0  0  0  0  0  0
   -2.3603   -0.3345   -0.0451 H   0  0  0  0  0  0  0  0  0  0  0  0
   -0.2933   -0.1205    0.3719 C   0  0  1  0  0  0  0  0  0  0  0  0
    0.4439   -0.7485   -0.1303 H   0  0  0  0  0  0  0  0  0  0  0  0
   -0.4368    1.1924   -0.4246 C   0  0  0  0  0  0  0  0  0  0  0  0
   -0.7188    1.9831    0.2728 H   0  0  0  0  0  0  0  0  0  0  0  0
    0.5273    1.4546   -0.8629 H   0  0  0  0  0  0  0  0  0  0  0  0
   -1.4838    1.1276   -1.5500 C   0  0  0  0  0  0  0  0  0  0  0  0
   -2.4662    0.9094   -1.1310 H   0  0  0  0  0  0  0  0  0  0  0  0
   -1.5197    2.0890   -2.0612 H   0  0  0  0  0  0  0  0  0  0  0  0
   -1.1568    0.0540   -2.5829 C   0  0  0  0  0  0  0  0  0  0  0  0
   -0.1257   -0.5986   -2.6124 O   0  0  0  0  0  0  0  0  0  0  0  0
   -2.0975   -0.1515   -3.5234 O   0  0  0  0  0  0  0  0  0  0  0  0
   -1.7389   -0.8350   -4.0922 H   0  0  0  0  0  0  0  0  0  0  0  0
    0.1871    0.1189    1.8122 C   0  0  0  0  0  0  0  0  0  0  0  0
    1.3541   -0.1171    2.1187 O   0  0  0  0  0  0  0  0  0  0  0  0
   -0.7126    0.5740    2.6926 N   0  0  0  0  0  0  0  0  0  0  0  0
   -1.6464    0.7663    2.3621 H   0  0  0  0  0  0  0  0  0  0  0  0
   -0.4191    0.8310    4.1010 C   0  0  0  0  0  0  0  0  0  0  0  0
    0.4022    1.5452    4.1828 H   0  0  0  0  0  0  0  0  0  0  0  0
   -1.2983    1.2366    4.6035 H   0  0  0  0  0  0  0  0  0  0  0  0
   -0.1204   -0.0980    4.5907 H   0  0  0  0  0  0  0  0  0  0  0  0
  5  6  2  0  0  0  0
  5  7  1  0  0  0  0
  2  3  1  0  0  0  0
  2  4  1  0  0  0  0
  2  5  1  0  0  0  0
  1  2  1  0  0  0  0
 21 22  2  0  0  0  0
 21 23  1  0  0  0  0
 19 20  1  0  0  0  0
 17 18  2  0  0  0  0
 17 19  1  0  0  0  0
 14 15  1  0  0  0  0
 14 16  1  0  0  0  0
 14 17  1  0  0  0  0
 11 12  1  0  0  0  0
 11 13  1  0  0  0  0
 11 14  1  0  0  0  0
  9 10  1  0  0  0  0
  9 11  1  0  0  0  0
  9 21  1  0  0  0  0
  7  8  1  0  0  0  0
  7  9  1  0  0  0  0
 25 26  1  0  0  0  0
 25 27  1  0  0  0  0
 25 28  1  0  0  0  0
 23 24  1  0  0  0  0
 23 25  1  0  0  0  0
M  END
$$$$
default_name
  -OEChem-02102213163D

 28 27  0     1  0  0  0  0  0999 V2000
   -3.2133   -3.5565    1.2809 H   0  0  0  0  0  0  0  0  0  0  0  0
   -3.1873   -2.5755    0.8089 C   0  0  0  0  0  0  0  0  0  0  0  0
   -3.8793   -1.9065    1.3169 H   0  0  0  0  0  0  0  0  0  0  0  0
   -3.4623   -2.6685   -0.2401 H   0  0  0  0  0  0  0  0  0  0  0  0
   -1.7863   -2.0195    0.9119 C   0  0  0  0  0  0  0  0  0  0  0  0
   -0.9073   -2.6615    1.4699 O   0  0  0  0  0  0  0  0  0  0  0  0
   -1.5803   -0.8195    0.3749 N   0  0  0  0  0  0  0  0  0  0  0  0
   -2.3603   -0.3345   -0.0451 H   0  0  0  0  0  0  0  0  0  0  0  0
   -0.2933   -0.1205    0.3719 C   0  0  1  0  0  0  0  0  0  0  0  0
    0.4439   -0.7485   -0.1303 H   0  0  0  0  0  0  0  0  0  0  0  0
   -0.4368    1.1924   -0.4246 C   0  0  0  0  0  0  0  0  0  0  0  0
   -0.7188    1.9831    0.2728 H   0  0  0  0  0  0  0  0  0  0  0  0
    0.5273    1.4546   -0.8629 H   0  0  0  0  0  0  0  0  0  0  0  0
   -1.4838    1.1276   -1.5500 C   0  0  0  0  0  0  0  0  0  0  0  0
   -2.4872    1.1761   -1.1268 H   0  0  0  0  0  0  0  0  0  0  0  0
   -1.3392    1.9725   -2.2224 H   0  0  0  0  0  0  0  0  0  0  0  0
   -1.3733   -0.1541   -2.3694 C   0  0  0  0  0  0  0  0  0  0  0  0
   -0.4855   -0.9839   -2.2554 O   0  0  0  0  0  0  0  0  0  0  0  0
   -2.3416   -0.3420   -3.2853 O   0  0  0  0  0  0  0  0  0  0  0  0
   -2.1231   -1.1706   -3.7154 H   0  0  0  0  0  0  0  0  0  0  0  0
    0.1871    0.1189    1.8122 C   0  0  0  0  0  0  0  0  0  0  0  0
    1.3541   -0.1171    2.1187 O   0  0  0  0  0  0  0  0  0  0  0  0
   -0.7126    0.5740    2.6926 N   0  0  0  0  0  0  0  0  0  0  0  0
   -1.6464    0.7663    2.3621 H   0  0  0  0  0  0  0  0  0  0  0  0
   -0.4191    0.8310    4.1010 C   0  0  0  0  0  0  0  0  0  0  0  0
    0.4022    1.5452    4.1828 H   0  0  0  0  0  0  0  0  0  0  0  0
   -1.2983    1.2366    4.6035 H   0  0  0  0  0  0  0  0  0  0  0  0
   -0.1204   -0.0980    4.5907 H   0  0  0  0  0  0  0  0  0  0  0  0
  5  6  2  0  0  0  0
  5  7  1  0  0  0  0
  2  3  1  0  0  0  0
  2  4  1  0  0  0  0
  2  5  1  0  0  0  0
  1  2  1  0  0  0  0
 21 22  2  0  0  0  0
 21 23  1  0  0  0  0
 19 20  1  0  0  0  0
 17 18  2  0  0  0  0
 17 19  1  0  0  0  0
 14 15  1  0  0  0  0
 14 16  1  0  0  0  0
 14 17  1  0  0  0  0
 11 12  1  0  0  0  0
 11 13  1  0  0  0  0
 11 14  1  0  0  0  0
  9 10  1  0  0  0  0
  9 11  1  0  0  0  0
  9 21  1  0  0  0  0
  7  8  1  0  0  0  0
  7  9  1  0  0  0  0
 25 26  1  0  0  0  0
 25 27  1  0  0  0  0
 25 28  1  0  0  0  0
 23 24  1  0  0  0  0
 23 25  1  0  0  0  0
M  END
$$$$
default_name
  -OEChem-02102213163D

 28 27  0     1  0  0  0  0  0999 V2000
   -3.2133   -3.5565    1.2809 H   0  0  0  0  0  0  0  0  0  0  0  0
   -3.1873   -2.5755    0.8089 C   0  0  0  0  0  0  0  0  0  0  0  0
   -3.8793   -1.9065    1.3169 H   0  0  0  0  0  0  0  0  0  0  0  0
   -3.4623   -2.6685   -0.2401 H   0  0  0  0  0  0  0  0  0  0  0  0
   -1.7863   -2.0195    0.9119 C   0  0  0  0  0  0  0  0  0  0  0  0
   -0.9073   -2.6615    1.4699 O   0  0  0  0  0  0  0  0  0  0  0  0
   -1.5803   -0.8195    0.3749 N   0  0  0  0  0  0  0  0  0  0  0  0
   -2.3603   -0.3345   -0.0451 H   0  0  0  0  0  0  0  0  0  0  0  0
   -0.2933   -0.1205    0.3719 C   0  0  1  0  0  0  0  0  0  0  0  0
    0.4439   -0.7485   -0.1303 H   0  0  0  0  0  0  0  0  0  0  0  0
   -0.4368    1.1924   -0.4246 C   0  0  0  0  0  0  0  0  0  0  0  0
   -0.7188    1.9831    0.2728 H   0  0  0  0  0  0  0  0  0  0  0  0
    0.5273    1.4546   -0.8629 H   0  0  0  0  0  0  0  0  0  0  0  0
   -1.4838    1.1276   -1.5500 C   0  0  0  0  0  0  0  0  0  0  0  0
   -2.4571    1.4384   -1.1700 H   0  0  0  0  0  0  0  0  0  0  0  0
   -1.1852    1.7973   -2.3556 H   0  0  0  0  0  0  0  0  0  0  0  0
   -1.6242   -0.2765   -2.1289 C   0  0  0  0  0  0  0  0  0  0  0  0
   -0.9098   -1.2251   -1.8467 O   0  0  0  0  0  0  0  0  0  0  0  0
   -2.6161   -0.4380   -3.0243 O   0  0  0  0  0  0  0  0  0  0  0  0
   -2.5619   -1.3557   -3.2965 H   0  0  0  0  0  0  0  0  0  0  0  0
    0.1871    0.1189    1.8122 C   0  0  0  0  0  0  0  0  0  0  0  0
    1.3541   -0.1171    2.1187 O   0  0  0  0  0  0  0  0  0  0  0  0
   -0.7126    0.5740    2.6926 N   0  0  0  0  0  0  0  0  0  0  0  0
   -1.6464    0.7663    2.3621 H   0  0  0  0  0  0  0  0  0  0  0  0
   -0.4191    0.8310    4.1010 C   0  0  0  0  0  0  0  0  0  0  0  0
    0.4022    1.5452    4.1828 H   0  0  0  0  0  0  0  0  0  0  0  0
   -1.2983    1.2366    4.6035 H   0  0  0  0  0  0  0  0  0  0  0  0
   -0.1204   -0.0980    4.5907 H   0  0  0  0  0  0  0  0  0  0  0  0
  5  6  2  0  0  0  0
  5  7  1  0  0  0  0
  2  3  1  0  0  0  0
  2  4  1  0  0  0  0
  2  5  1  0  0  0  0
  1  2  1  0  0  0  0
 21 22  2  0  0  0  0
 21 23  1  0  0  0  0
 19 20  1  0  0  0  0
 17 18  2  0  0  0  0
 17 19  1  0  0  0  0
 14 15  1  0  0  0  0
 14 16  1  0  0  0  0
 14 17  1  0  0  0  0
 11 12  1  0  0  0  0
 11 13  1  0  0  0  0
 11 14  1  0  0  0  0
  9 10  1  0  0  0  0
  9 11  1  0  0  0  0
  9 21  1  0  0  0  0
  7  8  1  0  0  0  0
  7  9  1  0  0  0  0
 25 26  1  0  0  0  0
 25 27  1  0  0  0  0
 25 28  1  0  0  0  0
 23 24  1  0  0  0  0
 23 25  1  0  0  0  0
M  END
$$$$
default_name
  -OEChem-02102213163D

 28 27  0     1  0  0  0  0  0999 V2000
   -3.2133   -3.5565    1.2809 H   0  0  0  0  0  0  0  0  0  0  0  0
   -3.1873   -2.5755    0.8089 C   0  0  0  0  0  0  0  0  0  0  0  0
   -3.8793   -1.9065    1.3169 H   0  0  0  0  0  0  0  0  0  0  0  0
   -3.4623   -2.6685   -0.2401 H   0  0  0  0  0  0  0  0  0  0  0  0
   -1.7863   -2.0195    0.9119 C   0  0  0  0  0  0  0  0  0  0  0  0
   -0.9073   -2.6615    1.4699 O   0  0  0  0  0  0  0  0  0  0  0  0
   -1.5803   -0.8195    0.3749 N   0  0  0  0  0  0  0  0  0  0  0  0
   -2.3603   -0.3345   -0.0451 H   0  0  0  0  0  0  0  0  0  0  0  0
   -0.2933   -0.1205    0.3719 C   0  0  1  0  0  0  0  0  0  0  0  0
    0.4439   -0.7485   -0.1303 H   0  0  0  0  0  0  0  0  0  0  0  0
   -0.4368    1.1924   -0.4246 C   0  0  0  0  0  0  0  0  0  0  0  0
   -0.7188    1.9831    0.2728 H   0  0  0  0  0  0  0  0  0  0  0  0
    0.5273    1.4546   -0.8629 H   0  0  0  0  0  0  0  0  0  0  0  0
   -1.4838    1.1276   -1.5500 C   0  0  0  0  0  0  0  0  0  0  0  0
   -2.3778    1.6785   -1.2575 H   0  0  0  0  0  0  0  0  0  0  0  0
   -1.0681    1.5756   -2.4518 H   0  0  0  0  0  0  0  0  0  0  0  0
   -1.8924   -0.3049   -1.8778 C   0  0  0  0  0  0  0  0  0  0  0  0
   -1.3698   -1.3058   -1.4141 O   0  0  0  0  0  0  0  0  0  0  0  0
   -2.9022   -0.4327   -2.7584 O   0  0  0  0  0  0  0  0  0  0  0  0
   -3.0253   -1.3777   -2.8641 H   0  0  0  0  0  0  0  0  0  0  0  0
    0.1871    0.1189    1.8122 C   0  0  0  0  0  0  0  0  0  0  0  0
    1.3541   -0.1171    2.1187 O   0  0  0  0  0  0  0  0  0  0  0  0
   -0.7126    0.5740    2.6926 N   0  0  0  0  0  0  0  0  0  0  0  0
   -1.6464    0.7663    2.3621 H   0  0  0  0  0  0  0  0  0  0  0  0
   -0.4191    0.8310    4.1010 C   0  0  0  0  0  0  0  0  0  0  0  0
    0.4022    1.5452    4.1828 H   0  0  0  0  0  0  0  0  0  0  0  0
   -1.2983    1.2366    4.6035 H   0  0  0  0  0  0  0  0  0  0  0  0
   -0.1204   -0.0980    4.5907 H   0  0  0  0  0  0  0  0  0  0  0  0
  5  6  2  0  0  0  0
  5  7  1  0  0  0  0
  2  3  1  0  0  0  0
  2  4  1  0  0  0  0
  2  5  1  0  0  0  0
  1  2  1  0  0  0  0
 21 22  2  0  0  0  0
 21 23  1  0  0  0  0
 19 20  1  0  0  0  0
 17 18  2  0  0  0  0
 17 19  1  0  0  0  0
 14 15  1  0  0  0  0
 14 16  1  0  0  0  0
 14 17  1  0  0  0  0
 11 12  1  0  0  0  0
 11 13  1  0  0  0  0
 11 14  1  0  0  0  0
  9 10  1  0  0  0  0
  9 11  1  0  0  0  0
  9 21  1  0  0  0  0
  7  8  1  0  0  0  0
  7  9  1  0  0  0  0
 25 26  1  0  0  0  0
 25 27  1  0  0  0  0
 25 28  1  0  0  0  0
 23 24  1  0  0  0  0
 23 25  1  0  0  0  0
M  END
$$$$
default_name
  -OEChem-02102213163D

 28 27  0     1  0  0  0  0  0999 V2000
   -3.2133   -3.5565    1.2809 H   0  0  0  0  0  0  0  0  0  0  0  0
   -3.1873   -2.5755    0.8089 C   0  0  0  0  0  0  0  0  0  0  0  0
   -3.8793   -1.9065    1.3169 H   0  0  0  0  0  0  0  0  0  0  0  0
   -3.4623   -2.6685   -0.2401 H   0  0  0  0  0  0  0  0  0  0  0  0
   -1.7863   -2.0195    0.9119 C   0  0  0  0  0  0  0  0  0  0  0  0
   -0.9073   -2.6615    1.4699 O   0  0  0  0  0  0  0  0  0  0  0  0
   -1.5803   -0.8195    0.3749 N   0  0  0  0  0  0  0  0  0  0  0  0
   -2.3603   -0.3345   -0.0451 H   0  0  0  0  0  0  0  0  0  0  0  0
   -0.2933   -0.1205    0.3719 C   0  0  1  0  0  0  0  0  0  0  0  0
    0.4439   -0.7485   -0.1303 H   0  0  0  0  0  0  0  0  0  0  0  0
   -0.4368    1.1924   -0.4246 C   0  0  0  0  0  0  0  0  0  0  0  0
   -0.7188    1.9831    0.2728 H   0  0  0  0  0  0  0  0  0  0  0  0
    0.5273    1.4546   -0.8629 H   0  0  0  0  0  0  0  0  0  0  0  0
   -1.4838    1.1276   -1.5500 C   0  0  0  0  0  0  0  0  0  0  0  0
   -2.2549    1.8800   -1.3835 H   0  0  0  0  0  0  0  0  0  0  0  0
   -0.9959    1.3222   -2.5044 H   0  0  0  0  0  0  0  0  0  0  0  0
   -2.1595   -0.2373   -1.6332 C   0  0  0  0  0  0  0  0  0  0  0  0
   -1.8342   -1.2204   -0.9870 O   0  0  0  0  0  0  0  0  0  0  0  0
   -3.1805   -0.3266   -2.5056 O   0  0  0  0  0  0  0  0  0  0  0  0
   -3.4819   -1.2350   -2.4475 H   0  0  0  0  0  0  0  0  0  0  0  0
    0.1871    0.1189    1.8122 C   0  0  0  0  0  0  0  0  0  0  0  0
    1.3541   -0.1171    2.1187 O   0  0  0  0  0  0  0  0  0  0  0  0
   -0.7126    0.5740    2.6926 N   0  0  0  0  0  0  0  0  0  0  0  0
   -1.6464    0.7663    2.3621 H   0  0  0  0  0  0  0  0  0  0  0  0
   -0.4191    0.8310    4.1010 C   0  0  0  0  0  0  0  0  0  0  0  0
    0.4022    1.5452    4.1828 H   0  0  0  0  0  0  0  0  0  0  0  0
   -1.2983    1.2366    4.6035 H   0  0  0  0  0  0  0  0  0  0  0  0
   -0.1204   -0.0980    4.5907 H   0  0  0  0  0  0  0  0  0  0  0  0
  5  6  2  0  0  0  0
  5  7  1  0  0  0  0
  2  3  1  0  0  0  0
  2  4  1  0  0  0  0
  2  5  1  0  0  0  0
  1  2  1  0  0  0  0
 21 22  2  0  0  0  0
 21 23  1  0  0  0  0
 19 20  1  0  0  0  0
 17 18  2  0  0  0  0
 17 19  1  0  0  0  0
 14 15  1  0  0  0  0
 14 16  1  0  0  0  0
 14 17  1  0  0  0  0
 11 12  1  0  0  0  0
 11 13  1  0  0  0  0
 11 14  1  0  0  0  0
  9 10  1  0  0  0  0
  9 11  1  0  0  0  0
  9 21  1  0  0  0  0
  7  8  1  0  0  0  0
  7  9  1  0  0  0  0
 25 26  1  0  0  0  0
 25 27  1  0  0  0  0
 25 28  1  0  0  0  0
 23 24  1  0  0  0  0
 23 25  1  0  0  0  0
M  END
$$$$
default_name
  -OEChem-02102213163D

 28 27  0     1  0  0  0  0  0999 V2000
   -3.2133   -3.5565    1.2809 H   0  0  0  0  0  0  0  0  0  0  0  0
   -3.1873   -2.5755    0.8089 C   0  0  0  0  0  0  0  0  0  0  0  0
   -3.8793   -1.9065    1.3169 H   0  0  0  0  0  0  0  0  0  0  0  0
   -3.4623   -2.6685   -0.2401 H   0  0  0  0  0  0  0  0  0  0  0  0
   -1.7863   -2.0195    0.9119 C   0  0  0  0  0  0  0  0  0  0  0  0
   -0.9073   -2.6615    1.4699 O   0  0  0  0  0  0  0  0  0  0  0  0
   -1.5803   -0.8195    0.3749 N   0  0  0  0  0  0  0  0  0  0  0  0
   -2.3603   -0.3345   -0.0451 H   0  0  0  0  0  0  0  0  0  0  0  0
   -0.2933   -0.1205    0.3719 C   0  0  1  0  0  0  0  0  0  0  0  0
    0.4439   -0.7485   -0.1303 H   0  0  0  0  0  0  0  0  0  0  0  0
   -0.4368    1.1924   -0.4246 C   0  0  0  0  0  0  0  0  0  0  0  0
   -0.7188    1.9831    0.2728 H   0  0  0  0  0  0  0  0  0  0  0  0
    0.5273    1.4546   -0.8629 H   0  0  0  0  0  0  0  0  0  0  0  0
   -1.4838    1.1276   -1.5500 C   0  0  0  0  0  0  0  0  0  0  0  0
   -2.0966    2.0291   -1.5394 H   0  0  0  0  0  0  0  0  0  0  0  0
   -0.9736    1.0546   -2.5097 H   0  0  0  0  0  0  0  0  0  0  0  0
   -2.4074   -0.0784   -1.4117 C   0  0  0  0  0  0  0  0  0  0  0  0
   -2.2712   -0.9748   -0.5945 O   0  0  0  0  0  0  0  0  0  0  0  0
   -3.4320   -0.1269   -2.2831 O   0  0  0  0  0  0  0  0  0  0  0  0
   -3.9003   -0.9373   -2.0753 H   0  0  0  0  0  0  0  0  0  0  0  0
    0.1871    0.1189    1.8122 C   0  0  0  0  0  0  0  0  0  0  0  0
    1.3541   -0.1171    2.1187 O   0  0  0  0  0  0  0  0  0  0  0  0
   -0.7126    0.5740    2.6926 N   0  0  0  0  0  0  0  0  0  0  0  0
   -1.6464    0.7663    2.3621 H   0  0  0  0  0  0  0  0  0  0  0  0
   -0.4191    0.8310    4.1010 C   0  0  0  0  0  0  0  0  0  0  0  0
    0.4022    1.5452    4.1828 H   0  0  0  0  0  0  0  0  0  0  0  0
   -1.2983    1.2366    4.6035 H   0  0  0  0  0  0  0  0  0  0  0  0
   -0.1204   -0.0980    4.5907 H   0  0  0  0  0  0  0  0  0  0  0  0
  5  6  2  0  0  0  0
  5  7  1  0  0  0  0
  2  3  1  0  0  0  0
  2  4  1  0  0  0  0
  2  5  1  0  0  0  0
  1  2  1  0  0  0  0
 21 22  2  0  0  0  0
 21 23  1  0  0  0  0
 19 20  1  0  0  0  0
 17 18  2  0  0  0  0
 17 19  1  0  0  0  0
 14 15  1  0  0  0  0
 14 16  1  0  0  0  0
 14 17  1  0  0  0  0
 11 12  1  0  0  0  0
 11 13  1  0  0  0  0
 11 14  1  0  0  0  0
  9 10  1  0  0  0  0
  9 11  1  0  0  0  0
  9 21  1  0  0  0  0
  7  8  1  0  0  0  0
  7  9  1  0  0  0  0
 25 26  1  0  0  0  0
 25 27  1  0  0  0  0
 25 28  1  0  0  0  0
 23 24  1  0  0  0  0
 23 25  1  0  0  0  0
M  END
$$$$
default_name
  -OEChem-02102213163D

 28 27  0     1  0  0  0  0  0999 V2000
   -3.2133   -3.5565    1.2809 H   0  0  0  0  0  0  0  0  0  0  0  0
   -3.1873   -2.5755    0.8089 C   0  0  0  0  0  0  0  0  0  0  0  0
   -3.8793   -1.9065    1.3169 H   0  0  0  0  0  0  0  0  0  0  0  0
   -3.4623   -2.6685   -0.2401 H   0  0  0  0  0  0  0  0  0  0  0  0
   -1.7863   -2.0195    0.9119 C   0  0  0  0  0  0  0  0  0  0  0  0
   -0.9073   -2.6615    1.4699 O   0  0  0  0  0  0  0  0  0  0  0  0
   -1.5803   -0.8195    0.3749 N   0  0  0  0  0  0  0  0  0  0  0  0
   -2.3603   -0.3345   -0.0451 H   0  0  0  0  0  0  0  0  0  0  0  0
   -0.2933   -0.1205    0.3719 C   0  0  1  0  0  0  0  0  0  0  0  0
    0.4439   -0.7485   -0.1303 H   0  0  0  0  0  0  0  0  0  0  0  0
   -0.4368    1.1924   -0.4246 C   0  0  0  0  0  0  0  0  0  0  0  0
   -0.7188    1.9831    0.2728 H   0  0  0  0  0  0  0  0  0  0  0  0
    0.5273    1.4546   -0.8629 H   0  0  0  0  0  0  0  0  0  0  0  0
   -1.4838    1.1276   -1.5500 C   0  0  0  0  0  0  0  0  0  0  0  0
   -1.9138    2.1157   -1.7145 H   0  0  0  0  0  0  0  0  0  0  0  0
   -1.0026    0.7910   -2.4675 H   0  0  0  0  0  0  0  0  0  0  0  0
   -2.6191    0.1611   -1.2285 C   0  0  0  0  0  0  0  0  0  0  0  0
   -2.6510   -0.5857   -0.2635 O   0  0  0  0  0  0  0  0  0  0  0  0
   -3.6396    0.1528   -2.1061 O   0  0  0  0  0  0  0  0  0  0  0  0
   -4.2523   -0.5050   -1.7728 H   0  0  0  0  0  0  0  0  0  0  0  0
    0.1871    0.1189    1.8122 C   0  0  0  0  0  0  0  0  0  0  0  0
    1.3541   -0.1171    2.1187 O   0  0  0  0  0  0  0  0  0  0  0  0
   -0.7126    0.5740    2.6926 N   0  0  0  0  0  0  0  0  0  0  0  0
   -1.6464    0.7663    2.3621 H   0  0  0  0  0  0  0  0  0  0  0  0
   -0.4191    0.8310    4.1010 C   0  0  0  0  0  0  0  0  0  0  0  0
    0.4022    1.5452    4.1828 H   0  0  0  0  0  0  0  0  0  0  0  0
   -1.2983    1.2366    4.6035 H   0  0  0  0  0  0  0  0  0  0  0  0
   -0.1204   -0.0980    4.5907 H   0  0  0  0  0  0  0  0  0  0  0  0
  5  6  2  0  0  0  0
  5  7  1  0  0  0  0
  2  3  1  0  0  0  0
  2  4  1  0  0  0  0
  2  5  1  0  0  0  0
  1  2  1  0  0  0  0
 21 22  2  0  0  0  0
 21 23  1  0  0  0  0
 19 20  1  0  0  0  0
 17 18  2  0  0  0  0
 17 19  1  0  0  0  0
 14 15  1  0  0  0  0
 14 16  1  0  0  0  0
 14 17  1  0  0  0  0
 11 12  1  0  0  0  0
 11 13  1  0  0  0  0
 11 14  1  0  0  0  0
  9 10  1  0  0  0  0
  9 11  1  0  0  0  0
  9 21  1  0  0  0  0
  7  8  1  0  0  0  0
  7  9  1  0  0  0  0
 25 26  1  0  0  0  0
 25 27  1  0  0  0  0
 25 28  1  0  0  0  0
 23 24  1  0  0  0  0
 23 25  1  0  0  0  0
M  END
$$$$
default_name
  -OEChem-02102213163D

 28 27  0     1  0  0  0  0  0999 V2000
   -3.2133   -3.5565    1.2809 H   0  0  0  0  0  0  0  0  0  0  0  0
   -3.1873   -2.5755    0.8089 C   0  0  0  0  0  0  0  0  0  0  0  0
   -3.8793   -1.9065    1.3169 H   0  0  0  0  0  0  0  0  0  0  0  0
   -3.4623   -2.6685   -0.2401 H   0  0  0  0  0  0  0  0  0  0  0  0
   -1.7863   -2.0195    0.9119 C   0  0  0  0  0  0  0  0  0  0  0  0
   -0.9073   -2.6615    1.4699 O   0  0  0  0  0  0  0  0  0  0  0  0
   -1.5803   -0.8195    0.3749 N   0  0  0  0  0  0  0  0  0  0  0  0
   -2.3603   -0.3345   -0.0451 H   0  0  0  0  0  0  0  0  0  0  0  0
   -0.2933   -0.1205    0.3719 C   0  0  1  0  0  0  0  0  0  0  0  0
    0.4439   -0.7485   -0.1303 H   0  0  0  0  0  0  0  0  0  0  0  0
   -0.4368    1.1924   -0.4246 C   0  0  0  0  0  0  0  0  0  0  0  0
   -0.7188    1.9831    0.2728 H   0  0  0  0  0  0  0  0  0  0  0  0
    0.5273    1.4546   -0.8629 H   0  0  0  0  0  0  0  0  0  0  0  0
   -1.4838    1.1276   -1.5500 C   0  0  0  0  0  0  0  0  0  0  0  0
   -1.7189    2.1340   -1.8969 H   0  0  0  0  0  0  0  0  0  0  0  0
   -1.0811    0.5492   -2.3806 H   0  0  0  0  0  0  0  0  0  0  0  0
   -2.7803    0.4648   -1.0960 C   0  0  0  0  0  0  0  0  0  0  0  0
   -2.9479   -0.0796   -0.0164 O   0  0  0  0  0  0  0  0  0  0  0  0
   -3.7890    0.4934   -1.9867 O   0  0  0  0  0  0  0  0  0  0  0  0
   -4.5137    0.0324   -1.5605 H   0  0  0  0  0  0  0  0  0  0  0  0
    0.1871    0.1189    1.8122 C   0  0  0  0  0  0  0  0  0  0  0  0
    1.3541   -0.1171    2.1187 O   0  0  0  0  0  0  0  0  0  0  0  0
   -0.7126    0.5740    2.6926 N   0  0  0  0  0  0  0  0  0  0  0  0
   -1.6464    0.7663    2.3621 H   0  0  0  0  0  0  0  0  0  0  0  0
   -0.4191    0.8310    4.1010 C   0  0  0  0  0  0  0  0  0  0  0  0
    0.4022    1.5452    4.1828 H   0  0  0  0  0  0  0  0  0  0  0  0
   -1.2983    1.2366    4.6035 H   0  0  0  0  0  0  0  0  0  0  0  0
   -0.1204   -0.0980    4.5907 H   0  0  0  0  0  0  0  0  0  0  0  0
  5  6  2  0  0  0  0
  5  7  1  0  0  0  0
  2  3  1  0  0  0  0
  2  4  1  0  0  0  0
  2  5  1  0  0  0  0
  1  2  1  0  0  0  0
 21 22  2  0  0  0  0
 21 23  1  0  0  0  0
 19 20  1  0  0  0  0
 17 18  2  0  0  0  0
 17 19  1  0  0  0  0
 14 15  1  0  0  0  0
 14 16  1  0  0  0  0
 14 17  1  0  0  0  0
 11 12  1  0  0  0  0
 11 13  1  0  0  0  0
 11 14  1  0  0  0  0
  9 10  1  0  0  0  0
  9 11  1  0  0  0  0
  9 21  1  0  0  0  0
  7  8  1  0  0  0  0
  7  9  1  0  0  0  0
 25 26  1  0  0  0  0
 25 27  1  0  0  0  0
 25 28  1  0  0  0  0
 23 24  1  0  0  0  0
 23 25  1  0  0  0  0
M  END
$$$$
default_name
  -OEChem-02102213163D

 28 27  0     1  0  0  0  0  0999 V2000
   -3.2133   -3.5565    1.2809 H   0  0  0  0  0  0  0  0  0  0  0  0
   -3.1873   -2.5755    0.8089 C   0  0  0  0  0  0  0  0  0  0  0  0
   -3.8793   -1.9065    1.3169 H   0  0  0  0  0  0  0  0  0  0  0  0
   -3.4623   -2.6685   -0.2401 H   0  0  0  0  0  0  0  0  0  0  0  0
   -1.7863   -2.0195    0.9119 C   0  0  0  0  0  0  0  0  0  0  0  0
   -0.9073   -2.6615    1.4699 O   0  0  0  0  0  0  0  0  0  0  0  0
   -1.5803   -0.8195    0.3749 N   0  0  0  0  0  0  0  0  0  0  0  0
   -2.3603   -0.3345   -0.0451 H   0  0  0  0  0  0  0  0  0  0  0  0
   -0.2933   -0.1205    0.3719 C   0  0  1  0  0  0  0  0  0  0  0  0
    0.4439   -0.7485   -0.1303 H   0  0  0  0  0  0  0  0  0  0  0  0
   -0.4368    1.1924   -0.4246 C   0  0  0  0  0  0  0  0  0  0  0  0
   -0.7188    1.9831    0.2728 H   0  0  0  0  0  0  0  0  0  0  0  0
    0.5273    1.4546   -0.8629 H   0  0  0  0  0  0  0  0  0  0  0  0
   -1.4838    1.1276   -1.5500 C   0  0  0  0  0  0  0  0  0  0  0  0
   -1.5252    2.0825   -2.0741 H   0  0  0  0  0  0  0  0  0  0  0  0
   -1.2035    0.3458   -2.2550 H   0  0  0  0  0  0  0  0  0  0  0  0
   -2.8800    0.8120   -1.0232 C   0  0  0  0  0  0  0  0  0  0  0  0
   -3.1416    0.5090    0.1298 O   0  0  0  0  0  0  0  0  0  0  0  0
   -3.8702    0.8718   -1.9330 O   0  0  0  0  0  0  0  0  0  0  0  0
   -4.6667    0.6385   -1.4530 H   0  0  0  0  0  0  0  0  0  0  0  0
    0.1871    0.1189    1.8122 C   0  0  0  0  0  0  0  0  0  0  0  0
    1.3541   -0.1171    2.1187 O   0  0  0  0  0  0  0  0  0  0  0  0
   -0.7126    0.5740    2.6926 N   0  0  0  0  0  0  0  0  0  0  0  0
   -1.6464    0.7663    2.3621 H   0  0  0  0  0  0  0  0  0  0  0  0
   -0.4191    0.8310    4.1010 C   0  0  0  0  0  0  0  0  0  0  0  0
    0.4022    1.5452    4.1828 H   0  0  0  0  0  0  0  0  0  0  0  0
   -1.2983    1.2366    4.6035 H   0  0  0  0  0  0  0  0  0  0  0  0
   -0.1204   -0.0980    4.5907 H   0  0  0  0  0  0  0  0  0  0  0  0
  5  6  2  0  0  0  0
  5  7  1  0  0  0  0
  2  3  1  0  0  0  0
  2  4  1  0  0  0  0
  2  5  1  0  0  0  0
  1  2  1  0  0  0  0
 21 22  2  0  0  0  0
 21 23  1  0  0  0  0
 19 20  1  0  0  0  0
 17 18  2  0  0  0  0
 17 19  1  0  0  0  0
 14 15  1  0  0  0  0
 14 16  1  0  0  0  0
 14 17  1  0  0  0  0
 11 12  1  0  0  0  0
 11 13  1  0  0  0  0
 11 14  1  0  0  0  0
  9 10  1  0  0  0  0
  9 11  1  0  0  0  0
  9 21  1  0  0  0  0
  7  8  1  0  0  0  0
  7  9  1  0  0  0  0
 25 26  1  0  0  0  0
 25 27  1  0  0  0  0
 25 28  1  0  0  0  0
 23 24  1  0  0  0  0
 23 25  1  0  0  0  0
M  END
$$$$
default_name
  -OEChem-02102213163D

 28 27  0     1  0  0  0  0  0999 V2000
   -3.2133   -3.5565    1.2809 H   0  0  0  0  0  0  0  0  0  0  0  0
   -3.1873   -2.5755    0.8089 C   0  0  0  0  0  0  0  0  0  0  0  0
   -3.8793   -1.9065    1.3169 H   0  0  0  0  0  0  0  0  0  0  0  0
   -3.4623   -2.6685   -0.2401 H   0  0  0  0  0  0  0  0  0  0  0  0
   -1.7863   -2.0195    0.9119 C   0  0  0  0  0  0  0  0  0  0  0  0
   -0.9073   -2.6615    1.4699 O   0  0  0  0  0  0  0  0  0  0  0  0
   -1.5803   -0.8195    0.3749 N   0  0  0  0  0  0  0  0  0  0  0  0
   -2.3603   -0.3345   -0.0451 H   0  0  0  0  0  0  0  0  0  0  0  0
   -0.2933   -0.1205    0.3719 C   0  0  1  0  0  0  0  0  0  0  0  0
    0.4439   -0.7485   -0.1303 H   0  0  0  0  0  0  0  0  0  0  0  0
   -0.4368    1.1924   -0.4246 C   0  0  0  0  0  0  0  0  0  0  0  0
   -0.7188    1.9831    0.2728 H   0  0  0  0  0  0  0  0  0  0  0  0
    0.5273    1.4546   -0.8629 H   0  0  0  0  0  0  0  0  0  0  0  0
   -1.4838    1.1276   -1.5500 C   0  0  0  0  0  0  0  0  0  0  0  0
   -1.3459    1.9650   -2.2342 H   0  0  0  0  0  0  0  0  0  0  0  0
   -1.3617    0.1947   -2.0991 H   0  0  0  0  0  0  0  0  0  0  0  0
   -2.9113    1.1790   -1.0152 C   0  0  0  0  0  0  0  0  0  0  0  0
   -3.2188    1.1399    0.1654 O   0  0  0  0  0  0  0  0  0  0  0  0
   -3.8775    1.2621   -1.9486 O   0  0  0  0  0  0  0  0  0  0  0  0
   -4.7010    1.2718   -1.4576 H   0  0  0  0  0  0  0  0  0  0  0  0
    0.1871    0.1189    1.8122 C   0  0  0  0  0  0  0  0  0  0  0  0
    1.3541   -0.1171    2.1187 O   0  0  0  0  0  0  0  0  0  0  0  0
   -0.7126    0.5740    2.6926 N   0  0  0  0  0  0  0  0  0  0  0  0
   -1.6464    0.7663    2.3621 H   0  0  0  0  0  0  0  0  0  0  0  0
   -0.4191    0.8310    4.1010 C   0  0  0  0  0  0  0  0  0  0  0  0
    0.4022    1.5452    4.1828 H   0  0  0  0  0  0  0  0  0  0  0  0
   -1.2983    1.2366    4.6035 H   0  0  0  0  0  0  0  0  0  0  0  0
   -0.1204   -0.0980    4.5907 H   0  0  0  0  0  0  0  0  0  0  0  0
  5  6  2  0  0  0  0
  5  7  1  0  0  0  0
  2  3  1  0  0  0  0
  2  4  1  0  0  0  0
  2  5  1  0  0  0  0
  1  2  1  0  0  0  0
 21 22  2  0  0  0  0
 21 23  1  0  0  0  0
 19 20  1  0  0  0  0
 17 18  2  0  0  0  0
 17 19  1  0  0  0  0
 14 15  1  0  0  0  0
 14 16  1  0  0  0  0
 14 17  1  0  0  0  0
 11 12  1  0  0  0  0
 11 13  1  0  0  0  0
 11 14  1  0  0  0  0
  9 10  1  0  0  0  0
  9 11  1  0  0  0  0
  9 21  1  0  0  0  0
  7  8  1  0  0  0  0
  7  9  1  0  0  0  0
 25 26  1  0  0  0  0
 25 27  1  0  0  0  0
 25 28  1  0  0  0  0
 23 24  1  0  0  0  0
 23 25  1  0  0  0  0
M  END
$$$$
default_name
  -OEChem-02102213163D

 28 27  0     1  0  0  0  0  0999 V2000
   -3.2133   -3.5565    1.2809 H   0  0  0  0  0  0  0  0  0  0  0  0
   -3.1873   -2.5755    0.8089 C   0  0  0  0  0  0  0  0  0  0  0  0
   -3.8793   -1.9065    1.3169 H   0  0  0  0  0  0  0  0  0  0  0  0
   -3.4623   -2.6685   -0.2401 H   0  0  0  0  0  0  0  0  0  0  0  0
   -1.7863   -2.0195    0.9119 C   0  0  0  0  0  0  0  0  0  0  0  0
   -0.9073   -2.6615    1.4699 O   0  0  0  0  0  0  0  0  0  0  0  0
   -1.5803   -0.8195    0.3749 N   0  0  0  0  0  0  0  0  0  0  0  0
   -2.3603   -0.3345   -0.0451 H   0  0  0  0  0  0  0  0  0  0  0  0
   -0.2933   -0.1205    0.3719 C   0  0  1  0  0  0  0  0  0  0  0  0
    0.4439   -0.7485   -0.1303 H   0  0  0  0  0  0  0  0  0  0  0  0
   -0.4368    1.1924   -0.4246 C   0  0  0  0  0  0  0  0  0  0  0  0
   -0.7188    1.9831    0.2728 H   0  0  0  0  0  0  0  0  0  0  0  0
    0.5273    1.4546   -0.8629 H   0  0  0  0  0  0  0  0  0  0  0  0
   -1.4838    1.1276   -1.5500 C   0  0  0  0  0  0  0  0  0  0  0  0
   -1.1932    1.7893   -2.3661 H   0  0  0  0  0  0  0  0  0  0  0  0
   -1.5448    0.1062   -1.9237 H   0  0  0  0  0  0  0  0  0  0  0  0
   -2.8722    1.5409   -1.0725 C   0  0  0  0  0  0  0  0  0  0  0  0
   -3.1743    1.7702    0.0877 O   0  0  0  0  0  0  0  0  0  0  0  0
   -3.8106    1.6377   -2.0326 O   0  0  0  0  0  0  0  0  0  0  0  0
   -4.6142    1.8892   -1.5740 H   0  0  0  0  0  0  0  0  0  0  0  0
    0.1871    0.1189    1.8122 C   0  0  0  0  0  0  0  0  0  0  0  0
    1.3541   -0.1171    2.1187 O   0  0  0  0  0  0  0  0  0  0  0  0
   -0.7126    0.5740    2.6926 N   0  0  0  0  0  0  0  0  0  0  0  0
   -1.6464    0.7663    2.3621 H   0  0  0  0  0  0  0  0  0  0  0  0
   -0.4191    0.8310    4.1010 C   0  0  0  0  0  0  0  0  0  0  0  0
    0.4022    1.5452    4.1828 H   0  0  0  0  0  0  0  0  0  0  0  0
   -1.2983    1.2366    4.6035 H   0  0  0  0  0  0  0  0  0  0  0  0
   -0.1204   -0.0980    4.5907 H   0  0  0  0  0  0  0  0  0  0  0  0
  5  6  2  0  0  0  0
  5  7  1  0  0  0  0
  2  3  1  0  0  0  0
  2  4  1  0  0  0  0
  2  5  1  0  0  0  0
  1  2  1  0  0  0  0
 21 22  2  0  0  0  0
 21 23  1  0  0  0  0
 19 20  1  0  0  0  0
 17 18  2  0  0  0  0
 17 19  1  0  0  0  0
 14 15  1  0  0  0  0
 14 16  1  0  0  0  0
 14 17  1  0  0  0  0
 11 12  1  0  0  0  0
 11 13  1  0  0  0  0
 11 14  1  0  0  0  0
  9 10  1  0  0  0  0
  9 11  1  0  0  0  0
  9 21  1  0  0  0  0
  7  8  1  0  0  0  0
  7  9  1  0  0  0  0
 25 26  1  0  0  0  0
 25 27  1  0  0  0  0
 25 28  1  0  0  0  0
 23 24  1  0  0  0  0
 23 25  1  0  0  0  0
M  END
$$$$
default_name
  -OEChem-02102213163D

 28 27  0     1  0  0  0  0  0999 V2000
   -3.2133   -3.5565    1.2809 H   0  0  0  0  0  0  0  0  0  0  0  0
   -3.1873   -2.5755    0.8089 C   0  0  0  0  0  0  0  0  0  0  0  0
   -3.8793   -1.9065    1.3169 H   0  0  0  0  0  0  0  0  0  0  0  0
   -3.4623   -2.6685   -0.2401 H   0  0  0  0  0  0  0  0  0  0  0  0
   -1.7863   -2.0195    0.9119 C   0  0  0  0  0  0  0  0  0  0  0  0
   -0.9073   -2.6615    1.4699 O   0  0  0  0  0  0  0  0  0  0  0  0
   -1.5803   -0.8195    0.3749 N   0  0  0  0  0  0  0  0  0  0  0  0
   -2.3603   -0.3345   -0.0451 H   0  0  0  0  0  0  0  0  0  0  0  0
   -0.2933   -0.1205    0.3719 C   0  0  1  0  0  0  0  0  0  0  0  0
    0.4439   -0.7485   -0.1303 H   0  0  0  0  0  0  0  0  0  0  0  0
   -0.4368    1.1924   -0.4246 C   0  0  0  0  0  0  0  0  0  0  0  0
   -0.7188    1.9831    0.2728 H   0  0  0  0  0  0  0  0  0  0  0  0
    0.5273    1.4546   -0.8629 H   0  0  0  0  0  0  0  0  0  0  0  0
   -1.4838    1.1276   -1.5500 C   0  0  0  0  0  0  0  0  0  0  0  0
   -1.0775    1.5674   -2.4609 H   0  0  0  0  0  0  0  0  0  0  0  0
   -1.7403    0.0862   -1.7406 H   0  0  0  0  0  0  0  0  0  0  0  0
   -2.7653    1.8729   -1.1911 C   0  0  0  0  0  0  0  0  0  0  0  0
   -3.0112    2.3569   -0.0979 O   0  0  0  0  0  0  0  0  0  0  0  0
   -3.6739    1.9731   -2.1791 O   0  0  0  0  0  0  0  0  0  0  0  0
   -4.4121    2.4486   -1.7942 H   0  0  0  0  0  0  0  0  0  0  0  0
    0.1871    0.1189    1.8122 C   0  0  0  0  0  0  0  0  0  0  0  0
    1.3541   -0.1171    2.1187 O   0  0  0  0  0  0  0  0  0  0  0  0
   -0.7126    0.5740    2.6926 N   0  0  0  0  0  0  0  0  0  0  0  0
   -1.6464    0.7663    2.3621 H   0  0  0  0  0  0  0  0  0  0  0  0
   -0.4191    0.8310    4.1010 C   0  0  0  0  0  0  0  0  0  0  0  0
    0.4022    1.5452    4.1828 H   0  0  0  0  0  0  0  0  0  0  0  0
   -1.2983    1.2366    4.6035 H   0  0  0  0  0  0  0  0  0  0  0  0
   -0.1204   -0.0980    4.5907 H   0  0  0  0  0  0  0  0  0  0  0  0
  5  6  2  0  0  0  0
  5  7  1  0  0  0  0
  2  3  1  0  0  0  0
  2  4  1  0  0  0  0
  2  5  1  0  0  0  0
  1  2  1  0  0  0  0
 21 22  2  0  0  0  0
 21 23  1  0  0  0  0
 19 20  1  0  0  0  0
 17 18  2  0  0  0  0
 17 19  1  0  0  0  0
 14 15  1  0  0  0  0
 14 16  1  0  0  0  0
 14 17  1  0  0  0  0
 11 12  1  0  0  0  0
 11 13  1  0  0  0  0
 11 14  1  0  0  0  0
  9 10  1  0  0  0  0
  9 11  1  0  0  0  0
  9 21  1  0  0  0  0
  7  8  1  0  0  0  0
  7  9  1  0  0  0  0
 25 26  1  0  0  0  0
 25 27  1  0  0  0  0
 25 28  1  0  0  0  0
 23 24  1  0  0  0  0
 23 25  1  0  0  0  0
M  END
$$$$
default_name
  -OEChem-02102213163D

 28 27  0     1  0  0  0  0  0999 V2000
   -3.2133   -3.5565    1.2809 H   0  0  0  0  0  0  0  0  0  0  0  0
   -3.1873   -2.5755    0.8089 C   0  0  0  0  0  0  0  0  0  0  0  0
   -3.8793   -1.9065    1.3169 H   0  0  0  0  0  0  0  0  0  0  0  0
   -3.4623   -2.6685   -0.2401 H   0  0  0  0  0  0  0  0  0  0  0  0
   -1.7863   -2.0195    0.9119 C   0  0  0  0  0  0  0  0  0  0  0  0
   -0.9073   -2.6615    1.4699 O   0  0  0  0  0  0  0  0  0  0  0  0
   -1.5803   -0.8195    0.3749 N   0  0  0  0  0  0  0  0  0  0  0  0
   -2.3603   -0.3345   -0.0451 H   0  0  0  0  0  0  0  0  0  0  0  0
   -0.2933   -0.1205    0.3719 C   0  0  1  0  0  0  0  0  0  0  0  0
    0.4439   -0.7485   -0.1303 H   0  0  0  0  0  0  0  0  0  0  0  0
   -0.4368    1.1924   -0.4246 C   0  0  0  0  0  0  0  0  0  0  0  0
   -0.7188    1.9831    0.2728 H   0  0  0  0  0  0  0  0  0  0  0  0
    0.5273    1.4546   -0.8629 H   0  0  0  0  0  0  0  0  0  0  0  0
   -1.4838    1.1276   -1.5500 C   0  0  0  0  0  0  0  0  0  0  0  0
   -1.0068    1.3145   -2.5122 H   0  0  0  0  0  0  0  0  0  0  0  0
   -1.9350    0.1361   -1.5624 H   0  0  0  0  0  0  0  0  0  0  0  0
   -2.5979    2.1525   -1.3630 C   0  0  0  0  0  0  0  0  0  0  0  0
   -2.7406    2.8601   -0.3787 O   0  0  0  0  0  0  0  0  0  0  0  0
   -3.4767    2.2454   -2.3782 O   0  0  0  0  0  0  0  0  0  0  0  0
   -4.1087    2.9119   -2.1032 H   0  0  0  0  0  0  0  0  0  0  0  0
    0.1871    0.1189    1.8122 C   0  0  0  0  0  0  0  0  0  0  0  0
    1.3541   -0.1171    2.1187 O   0  0  0  0  0  0  0  0  0  0  0  0
   -0.7126    0.5740    2.6926 N   0  0  0  0  0  0  0  0  0  0  0  0
   -1.6464    0.7663    2.3621 H   0  0  0  0  0  0  0  0  0  0  0  0
   -0.4191    0.8310    4.1010 C   0  0  0  0  0  0  0  0  0  0  0  0
    0.4022    1.5452    4.1828 H   0  0  0  0  0  0  0  0  0  0  0  0
   -1.2983    1.2366    4.6035 H   0  0  0  0  0  0  0  0  0  0  0  0
   -0.1204   -0.0980    4.5907 H   0  0  0  0  0  0  0  0  0  0  0  0
  5  6  2  0  0  0  0
  5  7  1  0  0  0  0
  2  3  1  0  0  0  0
  2  4  1  0  0  0  0
  2  5  1  0  0  0  0
  1  2  1  0  0  0  0
 21 22  2  0  0  0  0
 21 23  1  0  0  0  0
 19 20  1  0  0  0  0
 17 18  2  0  0  0  0
 17 19  1  0  0  0  0
 14 15  1  0  0  0  0
 14 16  1  0  0  0  0
 14 17  1  0  0  0  0
 11 12  1  0  0  0  0
 11 13  1  0  0  0  0
 11 14  1  0  0  0  0
  9 10  1  0  0  0  0
  9 11  1  0  0  0  0
  9 21  1  0  0  0  0
  7  8  1  0  0  0  0
  7  9  1  0  0  0  0
 25 26  1  0  0  0  0
 25 27  1  0  0  0  0
 25 28  1  0  0  0  0
 23 24  1  0  0  0  0
 23 25  1  0  0  0  0
M  END
$$$$
default_name
  -OEChem-02102213163D

 28 27  0     1  0  0  0  0  0999 V2000
   -3.2133   -3.5565    1.2809 H   0  0  0  0  0  0  0  0  0  0  0  0
   -3.1873   -2.5755    0.8089 C   0  0  0  0  0  0  0  0  0  0  0  0
   -3.8793   -1.9065    1.3169 H   0  0  0  0  0  0  0  0  0  0  0  0
   -3.4623   -2.6685   -0.2401 H   0  0  0  0  0  0  0  0  0  0  0  0
   -1.7863   -2.0195    0.9119 C   0  0  0  0  0  0  0  0  0  0  0  0
   -0.9073   -2.6615    1.4699 O   0  0  0  0  0  0  0  0  0  0  0  0
   -1.5803   -0.8195    0.3749 N   0  0  0  0  0  0  0  0  0  0  0  0
   -2.3603   -0.3345   -0.0451 H   0  0  0  0  0  0  0  0  0  0  0  0
   -0.2933   -0.1205    0.3719 C   0  0  1  0  0  0  0  0  0  0  0  0
    0.4439   -0.7485   -0.1303 H   0  0  0  0  0  0  0  0  0  0  0  0
   -0.4368    1.1924   -0.4246 C   0  0  0  0  0  0  0  0  0  0  0  0
   -0.7188    1.9831    0.2728 H   0  0  0  0  0  0  0  0  0  0  0  0
    0.5273    1.4546   -0.8629 H   0  0  0  0  0  0  0  0  0  0  0  0
   -1.4838    1.1276   -1.5500 C   0  0  0  0  0  0  0  0  0  0  0  0
   -0.9858    1.0479   -2.5164 H   0  0  0  0  0  0  0  0  0  0  0  0
   -2.1155    0.2526   -1.4011 H   0  0  0  0  0  0  0  0  0  0  0  0
   -2.3813    2.3606   -1.5764 C   0  0  0  0  0  0  0  0  0  0  0  0
   -2.3808    3.2454   -0.7356 O   0  0  0  0  0  0  0  0  0  0  0  0
   -3.2326    2.4359   -2.6163 O   0  0  0  0  0  0  0  0  0  0  0  0
   -3.7245    3.2476   -2.4800 H   0  0  0  0  0  0  0  0  0  0  0  0
    0.1871    0.1189    1.8122 C   0  0  0  0  0  0  0  0  0  0  0  0
    1.3541   -0.1171    2.1187 O   0  0  0  0  0  0  0  0  0  0  0  0
   -0.7126    0.5740    2.6926 N   0  0  0  0  0  0  0  0  0  0  0  0
   -1.6464    0.7663    2.3621 H   0  0  0  0  0  0  0  0  0  0  0  0
   -0.4191    0.8310    4.1010 C   0  0  0  0  0  0  0  0  0  0  0  0
    0.4022    1.5452    4.1828 H   0  0  0  0  0  0  0  0  0  0  0  0
   -1.2983    1.2366    4.6035 H   0  0  0  0  0  0  0  0  0  0  0  0
   -0.1204   -0.0980    4.5907 H   0  0  0  0  0  0  0  0  0  0  0  0
  5  6  2  0  0  0  0
  5  7  1  0  0  0  0
  2  3  1  0  0  0  0
  2  4  1  0  0  0  0
  2  5  1  0  0  0  0
  1  2  1  0  0  0  0
 21 22  2  0  0  0  0
 21 23  1  0  0  0  0
 19 20  1  0  0  0  0
 17 18  2  0  0  0  0
 17 19  1  0  0  0  0
 14 15  1  0  0  0  0
 14 16  1  0  0  0  0
 14 17  1  0  0  0  0
 11 12  1  0  0  0  0
 11 13  1  0  0  0  0
 11 14  1  0  0  0  0
  9 10  1  0  0  0  0
  9 11  1  0  0  0  0
  9 21  1  0  0  0  0
  7  8  1  0  0  0  0
  7  9  1  0  0  0  0
 25 26  1  0  0  0  0
 25 27  1  0  0  0  0
 25 28  1  0  0  0  0
 23 24  1  0  0  0  0
 23 25  1  0  0  0  0
M  END
$$$$
default_name
  -OEChem-02102213163D

 28 27  0     1  0  0  0  0  0999 V2000
   -3.2133   -3.5565    1.2809 H   0  0  0  0  0  0  0  0  0  0  0  0
   -3.1873   -2.5755    0.8089 C   0  0  0  0  0  0  0  0  0  0  0  0
   -3.8793   -1.9065    1.3169 H   0  0  0  0  0  0  0  0  0  0  0  0
   -3.4623   -2.6685   -0.2401 H   0  0  0  0  0  0  0  0  0  0  0  0
   -1.7863   -2.0195    0.9119 C   0  0  0  0  0  0  0  0  0  0  0  0
   -0.9073   -2.6615    1.4699 O   0  0  0  0  0  0  0  0  0  0  0  0
   -1.5803   -0.8195    0.3749 N   0  0  0  0  0  0  0  0  0  0  0  0
   -2.3603   -0.3345   -0.0451 H   0  0  0  0  0  0  0  0  0  0  0  0
   -0.2933   -0.1205    0.3719 C   0  0  1  0  0  0  0  0  0  0  0  0
    0.4439   -0.7485   -0.1303 H   0  0  0  0  0  0  0  0  0  0  0  0
   -0.4368    1.1924   -0.4246 C   0  0  0  0  0  0  0  0  0  0  0  0
   -0.7188    1.9831    0.2728 H   0  0  0  0  0  0  0  0  0  0  0  0
    0.5273    1.4546   -0.8629 H   0  0  0  0  0  0  0  0  0  0  0  0
   -1.4838    1.1276   -1.5500 C   0  0  0  0  0  0  0  0  0  0  0  0
   -1.0159    0.7855   -2.4732 H   0  0  0  0  0  0  0  0  0  0  0  0
   -2.2695    0.4278   -1.2679 H   0  0  0  0  0  0  0  0  0  0  0  0
   -2.1304    2.4830   -1.8169 C   0  0  0  0  0  0  0  0  0  0  0  0
   -1.9564    3.4866   -1.1443 O   0  0  0  0  0  0  0  0  0  0  0  0
   -2.9581    2.5319   -2.8772 O   0  0  0  0  0  0  0  0  0  0  0  0
   -3.2857    3.4327   -2.8989 H   0  0  0  0  0  0  0  0  0  0  0  0
    0.1871    0.1189    1.8122 C   0  0  0  0  0  0  0  0  0  0  0  0
    1.3541   -0.1171    2.1187 O   0  0  0  0  0  0  0  0  0  0  0  0
   -0.7126    0.5740    2.6926 N   0  0  0  0  0  0  0  0  0  0  0  0
   -1.6464    0.7663    2.3621 H   0  0  0  0  0  0  0  0  0  0  0  0
   -0.4191    0.8310    4.1010 C   0  0  0  0  0  0  0  0  0  0  0  0
    0.4022    1.5452    4.1828 H   0  0  0  0  0  0  0  0  0  0  0  0
   -1.2983    1.2366    4.6035 H   0  0  0  0  0  0  0  0  0  0  0  0
   -0.1204   -0.0980    4.5907 H   0  0  0  0  0  0  0  0  0  0  0  0
  5  6  2  0  0  0  0
  5  7  1  0  0  0  0
  2  3  1  0  0  0  0
  2  4  1  0  0  0  0
  2  5  1  0  0  0  0
  1  2  1  0  0  0  0
 21 22  2  0  0  0  0
 21 23  1  0  0  0  0
 19 20  1  0  0  0  0
 17 18  2  0  0  0  0
 17 19  1  0  0  0  0
 14 15  1  0  0  0  0
 14 16  1  0  0  0  0
 14 17  1  0  0  0  0
 11 12  1  0  0  0  0
 11 13  1  0  0  0  0
 11 14  1  0  0  0  0
  9 10  1  0  0  0  0
  9 11  1  0  0  0  0
  9 21  1  0  0  0  0
  7  8  1  0  0  0  0
  7  9  1  0  0  0  0
 25 26  1  0  0  0  0
 25 27  1  0  0  0  0
 25 28  1  0  0  0  0
 23 24  1  0  0  0  0
 23 25  1  0  0  0  0
M  END
$$$$
default_name
  -OEChem-02102213163D

 28 27  0     1  0  0  0  0  0999 V2000
   -3.2133   -3.5565    1.2809 H   0  0  0  0  0  0  0  0  0  0  0  0
   -3.1873   -2.5755    0.8089 C   0  0  0  0  0  0  0  0  0  0  0  0
   -3.8793   -1.9065    1.3169 H   0  0  0  0  0  0  0  0  0  0  0  0
   -3.4623   -2.6685   -0.2401 H   0  0  0  0  0  0  0  0  0  0  0  0
   -1.7863   -2.0195    0.9119 C   0  0  0  0  0  0  0  0  0  0  0  0
   -0.9073   -2.6615    1.4699 O   0  0  0  0  0  0  0  0  0  0  0  0
   -1.5803   -0.8195    0.3749 N   0  0  0  0  0  0  0  0  0  0  0  0
   -2.3603   -0.3345   -0.0451 H   0  0  0  0  0  0  0  0  0  0  0  0
   -0.2933   -0.1205    0.3719 C   0  0  1  0  0  0  0  0  0  0  0  0
    0.4439   -0.7485   -0.1303 H   0  0  0  0  0  0  0  0  0  0  0  0
   -0.4368    1.1924   -0.4246 C   0  0  0  0  0  0  0  0  0  0  0  0
   -0.7188    1.9831    0.2728 H   0  0  0  0  0  0  0  0  0  0  0  0
    0.5273    1.4546   -0.8629 H   0  0  0  0  0  0  0  0  0  0  0  0
   -1.4838    1.1276   -1.5500 C   0  0  0  0  0  0  0  0  0  0  0  0
   -1.0952    0.5455   -2.3856 H   0  0  0  0  0  0  0  0  0  0  0  0
   -2.3866    0.6495   -1.1717 H   0  0  0  0  0  0  0  0  0  0  0  0
   -1.8623    2.5114   -2.0680 C   0  0  0  0  0  0  0  0  0  0  0  0
   -1.4964    3.5673   -1.5770 O   0  0  0  0  0  0  0  0  0  0  0  0
   -2.6720    2.5266   -3.1431 O   0  0  0  0  0  0  0  0  0  0  0  0
   -2.8223    3.4546   -3.3313 H   0  0  0  0  0  0  0  0  0  0  0  0
    0.1871    0.1189    1.8122 C   0  0  0  0  0  0  0  0  0  0  0  0
    1.3541   -0.1171    2.1187 O   0  0  0  0  0  0  0  0  0  0  0  0
   -0.7126    0.5740    2.6926 N   0  0  0  0  0  0  0  0  0  0  0  0
   -1.6464    0.7663    2.3621 H   0  0  0  0  0  0  0  0  0  0  0  0
   -0.4191    0.8310    4.1010 C   0  0  0  0  0  0  0  0  0  0  0  0
    0.4022    1.5452    4.1828 H   0  0  0  0  0  0  0  0  0  0  0  0
   -1.2983    1.2366    4.6035 H   0  0  0  0  0  0  0  0  0  0  0  0
   -0.1204   -0.0980    4.5907 H   0  0  0  0  0  0  0  0  0  0  0  0
  5  6  2  0  0  0  0
  5  7  1  0  0  0  0
  2  3  1  0  0  0  0
  2  4  1  0  0  0  0
  2  5  1  0  0  0  0
  1  2  1  0  0  0  0
 21 22  2  0  0  0  0
 21 23  1  0  0  0  0
 19 20  1  0  0  0  0
 17 18  2  0  0  0  0
 17 19  1  0  0  0  0
 14 15  1  0  0  0  0
 14 16  1  0  0  0  0
 14 17  1  0  0  0  0
 11 12  1  0  0  0  0
 11 13  1  0  0  0  0
 11 14  1  0  0  0  0
  9 10  1  0  0  0  0
  9 11  1  0  0  0  0
  9 21  1  0  0  0  0
  7  8  1  0  0  0  0
  7  9  1  0  0  0  0
 25 26  1  0  0  0  0
 25 27  1  0  0  0  0
 25 28  1  0  0  0  0
 23 24  1  0  0  0  0
 23 25  1  0  0  0  0
M  END
$$$$
default_name
  -OEChem-02102213163D

 28 27  0     1  0  0  0  0  0999 V2000
   -3.2133   -3.5565    1.2809 H   0  0  0  0  0  0  0  0  0  0  0  0
   -3.1873   -2.5755    0.8089 C   0  0  0  0  0  0  0  0  0  0  0  0
   -3.8793   -1.9065    1.3169 H   0  0  0  0  0  0  0  0  0  0  0  0
   -3.4623   -2.6685   -0.2401 H   0  0  0  0  0  0  0  0  0  0  0  0
   -1.7863   -2.0195    0.9119 C   0  0  0  0  0  0  0  0  0  0  0  0
   -0.9073   -2.6615    1.4699 O   0  0  0  0  0  0  0  0  0  0  0  0
   -1.5803   -0.8195    0.3749 N   0  0  0  0  0  0  0  0  0  0  0  0
   -2.3603   -0.3345   -0.0451 H   0  0  0  0  0  0  0  0  0  0  0  0
   -0.2933   -0.1205    0.3719 C   0  0  1  0  0  0  0  0  0  0  0  0
    0.4439   -0.7485   -0.1303 H   0  0  0  0  0  0  0  0  0  0  0  0
   -0.4368    1.1924   -0.4246 C   0  0  0  0  0  0  0  0  0  0  0  0
   -0.4509    2.0205    0.2862 H   0  0  0  0  0  0  0  0  0  0  0  0
    0.4318    1.3167   -1.0730 H   0  0  0  0  0  0  0  0  0  0  0  0
   -1.7067    1.2608   -1.2904 C   0  0  0  0  0  0  0  0  0  0  0  0
   -1.7101    0.4418   -2.0098 H   0  0  0  0  0  0  0  0  0  0  0  0
   -2.5826    1.1750   -0.6483 H   0  0  0  0  0  0  0  0  0  0  0  0
   -1.8112    2.5729   -2.0611 C   0  0  0  0  0  0  0  0  0  0  0  0
   -1.0627    3.5272   -1.9238 O   0  0  0  0  0  0  0  0  0  0  0  0
   -2.8262    2.6488   -2.9417 O   0  0  0  0  0  0  0  0  0  0  0  0
   -2.7606    3.5249   -3.3258 H   0  0  0  0  0  0  0  0  0  0  0  0
    0.1871    0.1189    1.8122 C   0  0  0  0  0  0  0  0  0  0  0  0
    1.3541   -0.1171    2.1187 O   0  0  0  0  0  0  0  0  0  0  0  0
   -0.7126    0.5740    2.6926 N   0  0  0  0  0  0  0  0  0  0  0  0
   -1.6464    0.7663    2.3621 H   0  0  0  0  0  0  0  0  0  0  0  0
   -0.4191    0.8310    4.1010 C   0  0  0  0  0  0  0  0  0  0  0  0
    0.4022    1.5452    4.1828 H   0  0  0  0  0  0  0  0  0  0  0  0
   -1.2983    1.2366    4.6035 H   0  0  0  0  0  0  0  0  0  0  0  0
   -0.1204   -0.0980    4.5907 H   0  0  0  0  0  0  0  0  0  0  0  0
  5  6  2  0  0  0  0
  5  7  1  0  0  0  0
  2  3  1  0  0  0  0
  2  4  1  0  0  0  0
  2  5  1  0  0  0  0
  1  2  1  0  0  0  0
 21 22  2  0  0  0  0
 21 23  1  0  0  0  0
 19 20  1  0  0  0  0
 17 18  2  0  0  0  0
 17 19  1  0  0  0  0
 14 15  1  0  0  0  0
 14 16  1  0  0  0  0
 14 17  1  0  0  0  0
 11 12  1  0  0  0  0
 11 13  1  0  0  0  0
 11 14  1  0  0  0  0
  9 10  1  0  0  0  0
  9 11  1  0  0  0  0
  9 21  1  0  0  0  0
  7  8  1  0  0  0  0
  7  9  1  0  0  0  0
 25 26  1  0  0  0  0
 25 27  1  0  0  0  0
 25 28  1  0  0  0  0
 23 24  1  0  0  0  0
 23 25  1  0  0  0  0
M  END
$$$$
default_name
  -OEChem-02102213163D

 28 27  0     1  0  0  0  0  0999 V2000
   -3.2133   -3.5565    1.2809 H   0  0  0  0  0  0  0  0  0  0  0  0
   -3.1873   -2.5755    0.8089 C   0  0  0  0  0  0  0  0  0  0  0  0
   -3.8793   -1.9065    1.3169 H   0  0  0  0  0  0  0  0  0  0  0  0
   -3.4623   -2.6685   -0.2401 H   0  0  0  0  0  0  0  0  0  0  0  0
   -1.7863   -2.0195    0.9119 C   0  0  0  0  0  0  0  0  0  0  0  0
   -0.9073   -2.6615    1.4699 O   0  0  0  0  0  0  0  0  0  0  0  0
   -1.5803   -0.8195    0.3749 N   0  0  0  0  0  0  0  0  0  0  0  0
   -2.3603   -0.3345   -0.0451 H   0  0  0  0  0  0  0  0  0  0  0  0
   -0.2933   -0.1205    0.3719 C   0  0  1  0  0  0  0  0  0  0  0  0
    0.4439   -0.7485   -0.1303 H   0  0  0  0  0  0  0  0  0  0  0  0
   -0.4368    1.1924   -0.4246 C   0  0  0  0  0  0  0  0  0  0  0  0
   -0.4509    2.0205    0.2862 H   0  0  0  0  0  0  0  0  0  0  0  0
    0.4318    1.3167   -1.0730 H   0  0  0  0  0  0  0  0  0  0  0  0
   -1.7067    1.2608   -1.2904 C   0  0  0  0  0  0  0  0  0  0  0  0
   -1.8480    0.3171   -1.8174 H   0  0  0  0  0  0  0  0  0  0  0  0
   -2.5679    1.4432   -0.6486 H   0  0  0  0  0  0  0  0  0  0  0  0
   -1.6417    2.3796   -2.3250 C   0  0  0  0  0  0  0  0  0  0  0  0
   -0.7597    3.2208   -2.3924 O   0  0  0  0  0  0  0  0  0  0  0  0
   -2.6588    2.4147   -3.2059 O   0  0  0  0  0  0  0  0  0  0  0  0
   -2.4779    3.1696   -3.7686 H   0  0  0  0  0  0  0  0  0  0  0  0
    0.1871    0.1189    1.8122 C   0  0  0  0  0  0  0  0  0  0  0  0
    1.3541   -0.1171    2.1187 O   0  0  0  0  0  0  0  0  0  0  0  0
   -0.7126    0.5740    2.6926 N   0  0  0  0  0  0  0  0  0  0  0  0
   -1.6464    0.7663    2.3621 H   0  0  0  0  0  0  0  0  0  0  0  0
   -0.4191    0.8310    4.1010 C   0  0  0  0  0  0  0  0  0  0  0  0
    0.4022    1.5452    4.1828 H   0  0  0  0  0  0  0  0  0  0  0  0
   -1.2983    1.2366    4.6035 H   0  0  0  0  0  0  0  0  0  0  0  0
   -0.1204   -0.0980    4.5907 H   0  0  0  0  0  0  0  0  0  0  0  0
  5  6  2  0  0  0  0
  5  7  1  0  0  0  0
  2  3  1  0  0  0  0
  2  4  1  0  0  0  0
  2  5  1  0  0  0  0
  1  2  1  0  0  0  0
 21 22  2  0  0  0  0
 21 23  1  0  0  0  0
 19 20  1  0  0  0  0
 17 18  2  0  0  0  0
 17 19  1  0  0  0  0
 14 15  1  0  0  0  0
 14 16  1  0  0  0  0
 14 17  1  0  0  0  0
 11 12  1  0  0  0  0
 11 13  1  0  0  0  0
 11 14  1  0  0  0  0
  9 10  1  0  0  0  0
  9 11  1  0  0  0  0
  9 21  1  0  0  0  0
  7  8  1  0  0  0  0
  7  9  1  0  0  0  0
 25 26  1  0  0  0  0
 25 27  1  0  0  0  0
 25 28  1  0  0  0  0
 23 24  1  0  0  0  0
 23 25  1  0  0  0  0
M  END
$$$$
default_name
  -OEChem-02102213163D

 28 27  0     1  0  0  0  0  0999 V2000
   -3.2133   -3.5565    1.2809 H   0  0  0  0  0  0  0  0  0  0  0  0
   -3.1873   -2.5755    0.8089 C   0  0  0  0  0  0  0  0  0  0  0  0
   -3.8793   -1.9065    1.3169 H   0  0  0  0  0  0  0  0  0  0  0  0
   -3.4623   -2.6685   -0.2401 H   0  0  0  0  0  0  0  0  0  0  0  0
   -1.7863   -2.0195    0.9119 C   0  0  0  0  0  0  0  0  0  0  0  0
   -0.9073   -2.6615    1.4699 O   0  0  0  0  0  0  0  0  0  0  0  0
   -1.5803   -0.8195    0.3749 N   0  0  0  0  0  0  0  0  0  0  0  0
   -2.3603   -0.3345   -0.0451 H   0  0  0  0  0  0  0  0  0  0  0  0
   -0.2933   -0.1205    0.3719 C   0  0  1  0  0  0  0  0  0  0  0  0
    0.4439   -0.7485   -0.1303 H   0  0  0  0  0  0  0  0  0  0  0  0
   -0.4368    1.1924   -0.4246 C   0  0  0  0  0  0  0  0  0  0  0  0
   -0.4509    2.0205    0.2862 H   0  0  0  0  0  0  0  0  0  0  0  0
    0.4318    1.3167   -1.0730 H   0  0  0  0  0  0  0  0  0  0  0  0
   -1.7067    1.2608   -1.2904 C   0  0  0  0  0  0  0  0  0  0  0  0
   -1.9971    0.2578   -1.6033 H   0  0  0  0  0  0  0  0  0  0  0  0
   -2.5147    1.7000   -0.7064 H   0  0  0  0  0  0  0  0  0  0  0  0
   -1.5091    2.1119   -2.5406 C   0  0  0  0  0  0  0  0  0  0  0  0
   -0.5171    2.7805   -2.7831 O   0  0  0  0  0  0  0  0  0  0  0  0
   -2.5341    2.1077   -3.4129 O   0  0  0  0  0  0  0  0  0  0  0  0
   -2.2616    2.6906   -4.1236 H   0  0  0  0  0  0  0  0  0  0  0  0
    0.1871    0.1189    1.8122 C   0  0  0  0  0  0  0  0  0  0  0  0
    1.3541   -0.1171    2.1187 O   0  0  0  0  0  0  0  0  0  0  0  0
   -0.7126    0.5740    2.6926 N   0  0  0  0  0  0  0  0  0  0  0  0
   -1.6464    0.7663    2.3621 H   0  0  0  0  0  0  0  0  0  0  0  0
   -0.4191    0.8310    4.1010 C   0  0  0  0  0  0  0  0  0  0  0  0
    0.4022    1.5452    4.1828 H   0  0  0  0  0  0  0  0  0  0  0  0
   -1.2983    1.2366    4.6035 H   0  0  0  0  0  0  0  0  0  0  0  0
   -0.1204   -0.0980    4.5907 H   0  0  0  0  0  0  0  0  0  0  0  0
  5  6  2  0  0  0  0
  5  7  1  0  0  0  0
  2  3  1  0  0  0  0
  2  4  1  0  0  0  0
  2  5  1  0  0  0  0
  1  2  1  0  0  0  0
 21 22  2  0  0  0  0
 21 23  1  0  0  0  0
 19 20  1  0  0  0  0
 17 18  2  0  0  0  0
 17 19  1  0  0  0  0
 14 15  1  0  0  0  0
 14 16  1  0  0  0  0
 14 17  1  0  0  0  0
 11 12  1  0  0  0  0
 11 13  1  0  0  0  0
 11 14  1  0  0  0  0
  9 10  1  0  0  0  0
  9 11  1  0  0  0  0
  9 21  1  0  0  0  0
  7  8  1  0  0  0  0
  7  9  1  0  0  0  0
 25 26  1  0  0  0  0
 25 27  1  0  0  0  0
 25 28  1  0  0  0  0
 23 24  1  0  0  0  0
 23 25  1  0  0  0  0
M  END
$$$$
default_name
  -OEChem-02102213163D

 28 27  0     1  0  0  0  0  0999 V2000
   -3.2133   -3.5565    1.2809 H   0  0  0  0  0  0  0  0  0  0  0  0
   -3.1873   -2.5755    0.8089 C   0  0  0  0  0  0  0  0  0  0  0  0
   -3.8793   -1.9065    1.3169 H   0  0  0  0  0  0  0  0  0  0  0  0
   -3.4623   -2.6685   -0.2401 H   0  0  0  0  0  0  0  0  0  0  0  0
   -1.7863   -2.0195    0.9119 C   0  0  0  0  0  0  0  0  0  0  0  0
   -0.9073   -2.6615    1.4699 O   0  0  0  0  0  0  0  0  0  0  0  0
   -1.5803   -0.8195    0.3749 N   0  0  0  0  0  0  0  0  0  0  0  0
   -2.3603   -0.3345   -0.0451 H   0  0  0  0  0  0  0  0  0  0  0  0
   -0.2933   -0.1205    0.3719 C   0  0  1  0  0  0  0  0  0  0  0  0
    0.4439   -0.7485   -0.1303 H   0  0  0  0  0  0  0  0  0  0  0  0
   -0.4368    1.1924   -0.4246 C   0  0  0  0  0  0  0  0  0  0  0  0
   -0.4509    2.0205    0.2862 H   0  0  0  0  0  0  0  0  0  0  0  0
    0.4318    1.3167   -1.0730 H   0  0  0  0  0  0  0  0  0  0  0  0
   -1.7067    1.2608   -1.2904 C   0  0  0  0  0  0  0  0  0  0  0  0
   -2.1474    0.2680   -1.3821 H   0  0  0  0  0  0  0  0  0  0  0  0
   -2.4265    1.9281   -0.8178 H   0  0  0  0  0  0  0  0  0  0  0  0
   -1.4225    1.7879   -2.6932 C   0  0  0  0  0  0  0  0  0  0  0  0
   -0.3514    2.2365   -3.0691 O   0  0  0  0  0  0  0  0  0  0  0  0
   -2.4609    1.7488   -3.5487 O   0  0  0  0  0  0  0  0  0  0  0  0
   -2.1265    2.1206   -4.3668 H   0  0  0  0  0  0  0  0  0  0  0  0
    0.1871    0.1189    1.8122 C   0  0  0  0  0  0  0  0  0  0  0  0
    1.3541   -0.1171    2.1187 O   0  0  0  0  0  0  0  0  0  0  0  0
   -0.7126    0.5740    2.6926 N   0  0  0  0  0  0  0  0  0  0  0  0
   -1.6464    0.7663    2.3621 H   0  0  0  0  0  0  0  0  0  0  0  0
   -0.4191    0.8310    4.1010 C   0  0  0  0  0  0  0  0  0  0  0  0
    0.4022    1.5452    4.1828 H   0  0  0  0  0  0  0  0  0  0  0  0
   -1.2983    1.2366    4.6035 H   0  0  0  0  0  0  0  0  0  0  0  0
   -0.1204   -0.0980    4.5907 H   0  0  0  0  0  0  0  0  0  0  0  0
  5  6  2  0  0  0  0
  5  7  1  0  0  0  0
  2  3  1  0  0  0  0
  2  4  1  0  0  0  0
  2  5  1  0  0  0  0
  1  2  1  0  0  0  0
 21 22  2  0  0  0  0
 21 23  1  0  0  0  0
 19 20  1  0  0  0  0
 17 18  2  0  0  0  0
 17 19  1  0  0  0  0
 14 15  1  0  0  0  0
 14 16  1  0  0  0  0
 14 17  1  0  0  0  0
 11 12  1  0  0  0  0
 11 13  1  0  0  0  0
 11 14  1  0  0  0  0
  9 10  1  0  0  0  0
  9 11  1  0  0  0  0
  9 21  1  0  0  0  0
  7  8  1  0  0  0  0
  7  9  1  0  0  0  0
 25 26  1  0  0  0  0
 25 27  1  0  0  0  0
 25 28  1  0  0  0  0
 23 24  1  0  0  0  0
 23 25  1  0  0  0  0
M  END
$$$$
default_name
  -OEChem-02102213163D

 28 27  0     1  0  0  0  0  0999 V2000
   -3.2133   -3.5565    1.2809 H   0  0  0  0  0  0  0  0  0  0  0  0
   -3.1873   -2.5755    0.8089 C   0  0  0  0  0  0  0  0  0  0  0  0
   -3.8793   -1.9065    1.3169 H   0  0  0  0  0  0  0  0  0  0  0  0
   -3.4623   -2.6685   -0.2401 H   0  0  0  0  0  0  0  0  0  0  0  0
   -1.7863   -2.0195    0.9119 C   0  0  0  0  0  0  0  0  0  0  0  0
   -0.9073   -2.6615    1.4699 O   0  0  0  0  0  0  0  0  0  0  0  0
   -1.5803   -0.8195    0.3749 N   0  0  0  0  0  0  0  0  0  0  0  0
   -2.3603   -0.3345   -0.0451 H   0  0  0  0  0  0  0  0  0  0  0  0
   -0.2933   -0.1205    0.3719 C   0  0  1  0  0  0  0  0  0  0  0  0
    0.4439   -0.7485   -0.1303 H   0  0  0  0  0  0  0  0  0  0  0  0
   -0.4368    1.1924   -0.4246 C   0  0  0  0  0  0  0  0  0  0  0  0
   -0.4509    2.0205    0.2862 H   0  0  0  0  0  0  0  0  0  0  0  0
    0.4318    1.3167   -1.0730 H   0  0  0  0  0  0  0  0  0  0  0  0
   -1.7067    1.2608   -1.2904 C   0  0  0  0  0  0  0  0  0  0  0  0
   -2.2884    0.3469   -1.1690 H   0  0  0  0  0  0  0  0  0  0  0  0
   -2.3094    2.1117   -0.9750 H   0  0  0  0  0  0  0  0  0  0  0  0
   -1.3878    1.4297   -2.7724 C   0  0  0  0  0  0  0  0  0  0  0  0
   -0.2738    1.6257   -3.2311 O   0  0  0  0  0  0  0  0  0  0  0  0
   -2.4439    1.3624   -3.6041 O   0  0  0  0  0  0  0  0  0  0  0  0
   -2.0819    1.4984   -4.4814 H   0  0  0  0  0  0  0  0  0  0  0  0
    0.1871    0.1189    1.8122 C   0  0  0  0  0  0  0  0  0  0  0  0
    1.3541   -0.1171    2.1187 O   0  0  0  0  0  0  0  0  0  0  0  0
   -0.7126    0.5740    2.6926 N   0  0  0  0  0  0  0  0  0  0  0  0
   -1.6464    0.7663    2.3621 H   0  0  0  0  0  0  0  0  0  0  0  0
   -0.4191    0.8310    4.1010 C   0  0  0  0  0  0  0  0  0  0  0  0
    0.4022    1.5452    4.1828 H   0  0  0  0  0  0  0  0  0  0  0  0
   -1.2983    1.2366    4.6035 H   0  0  0  0  0  0  0  0  0  0  0  0
   -0.1204   -0.0980    4.5907 H   0  0  0  0  0  0  0  0  0  0  0  0
  5  6  2  0  0  0  0
  5  7  1  0  0  0  0
  2  3  1  0  0  0  0
  2  4  1  0  0  0  0
  2  5  1  0  0  0  0
  1  2  1  0  0  0  0
 21 22  2  0  0  0  0
 21 23  1  0  0  0  0
 19 20  1  0  0  0  0
 17 18  2  0  0  0  0
 17 19  1  0  0  0  0
 14 15  1  0  0  0  0
 14 16  1  0  0  0  0
 14 17  1  0  0  0  0
 11 12  1  0  0  0  0
 11 13  1  0  0  0  0
 11 14  1  0  0  0  0
  9 10  1  0  0  0  0
  9 11  1  0  0  0  0
  9 21  1  0  0  0  0
  7  8  1  0  0  0  0
  7  9  1  0  0  0  0
 25 26  1  0  0  0  0
 25 27  1  0  0  0  0
 25 28  1  0  0  0  0
 23 24  1  0  0  0  0
 23 25  1  0  0  0  0
M  END
$$$$
default_name
  -OEChem-02102213163D

 28 27  0     1  0  0  0  0  0999 V2000
   -3.2133   -3.5565    1.2809 H   0  0  0  0  0  0  0  0  0  0  0  0
   -3.1873   -2.5755    0.8089 C   0  0  0  0  0  0  0  0  0  0  0  0
   -3.8793   -1.9065    1.3169 H   0  0  0  0  0  0  0  0  0  0  0  0
   -3.4623   -2.6685   -0.2401 H   0  0  0  0  0  0  0  0  0  0  0  0
   -1.7863   -2.0195    0.9119 C   0  0  0  0  0  0  0  0  0  0  0  0
   -0.9073   -2.6615    1.4699 O   0  0  0  0  0  0  0  0  0  0  0  0
   -1.5803   -0.8195    0.3749 N   0  0  0  0  0  0  0  0  0  0  0  0
   -2.3603   -0.3345   -0.0451 H   0  0  0  0  0  0  0  0  0  0  0  0
   -0.2933   -0.1205    0.3719 C   0  0  1  0  0  0  0  0  0  0  0  0
    0.4439   -0.7485   -0.1303 H   0  0  0  0  0  0  0  0  0  0  0  0
   -0.4368    1.1924   -0.4246 C   0  0  0  0  0  0  0  0  0  0  0  0
   -0.4509    2.0205    0.2862 H   0  0  0  0  0  0  0  0  0  0  0  0
    0.4318    1.3167   -1.0730 H   0  0  0  0  0  0  0  0  0  0  0  0
   -1.7067    1.2608   -1.2904 C   0  0  0  0  0  0  0  0  0  0  0  0
   -2.4108    0.4893   -0.9783 H   0  0  0  0  0  0  0  0  0  0  0  0
   -2.1714    2.2384   -1.1675 H   0  0  0  0  0  0  0  0  0  0  0  0
   -1.4074    1.0617   -2.7727 C   0  0  0  0  0  0  0  0  0  0  0  0
   -0.2897    0.9898   -3.2580 O   0  0  0  0  0  0  0  0  0  0  0  0
   -2.4845    0.9749   -3.5752 O   0  0  0  0  0  0  0  0  0  0  0  0
   -2.1307    0.8664   -4.4597 H   0  0  0  0  0  0  0  0  0  0  0  0
    0.1871    0.1189    1.8122 C   0  0  0  0  0  0  0  0  0  0  0  0
    1.3541   -0.1171    2.1187 O   0  0  0  0  0  0  0  0  0  0  0  0
   -0.7126    0.5740    2.6926 N   0  0  0  0  0  0  0  0  0  0  0  0
   -1.6464    0.7663    2.3621 H   0  0  0  0  0  0  0  0  0  0  0  0
   -0.4191    0.8310    4.1010 C   0  0  0  0  0  0  0  0  0  0  0  0
    0.4022    1.5452    4.1828 H   0  0  0  0  0  0  0  0  0  0  0  0
   -1.2983    1.2366    4.6035 H   0  0  0  0  0  0  0  0  0  0  0  0
   -0.1204   -0.0980    4.5907 H   0  0  0  0  0  0  0  0  0  0  0  0
  5  6  2  0  0  0  0
  5  7  1  0  0  0  0
  2  3  1  0  0  0  0
  2  4  1  0  0  0  0
  2  5  1  0  0  0  0
  1  2  1  0  0  0  0
 21 22  2  0  0  0  0
 21 23  1  0  0  0  0
 19 20  1  0  0  0  0
 17 18  2  0  0  0  0
 17 19  1  0  0  0  0
 14 15  1  0  0  0  0
 14 16  1  0  0  0  0
 14 17  1  0  0  0  0
 11 12  1  0  0  0  0
 11 13  1  0  0  0  0
 11 14  1  0  0  0  0
  9 10  1  0  0  0  0
  9 11  1  0  0  0  0
  9 21  1  0  0  0  0
  7  8  1  0  0  0  0
  7  9  1  0  0  0  0
 25 26  1  0  0  0  0
 25 27  1  0  0  0  0
 25 28  1  0  0  0  0
 23 24  1  0  0  0  0
 23 25  1  0  0  0  0
M  END
$$$$
default_name
  -OEChem-02102213163D

 28 27  0     1  0  0  0  0  0999 V2000
   -3.2133   -3.5565    1.2809 H   0  0  0  0  0  0  0  0  0  0  0  0
   -3.1873   -2.5755    0.8089 C   0  0  0  0  0  0  0  0  0  0  0  0
   -3.8793   -1.9065    1.3169 H   0  0  0  0  0  0  0  0  0  0  0  0
   -3.4623   -2.6685   -0.2401 H   0  0  0  0  0  0  0  0  0  0  0  0
   -1.7863   -2.0195    0.9119 C   0  0  0  0  0  0  0  0  0  0  0  0
   -0.9073   -2.6615    1.4699 O   0  0  0  0  0  0  0  0  0  0  0  0
   -1.5803   -0.8195    0.3749 N   0  0  0  0  0  0  0  0  0  0  0  0
   -2.3603   -0.3345   -0.0451 H   0  0  0  0  0  0  0  0  0  0  0  0
   -0.2933   -0.1205    0.3719 C   0  0  1  0  0  0  0  0  0  0  0  0
    0.4439   -0.7485   -0.1303 H   0  0  0  0  0  0  0  0  0  0  0  0
   -0.4368    1.1924   -0.4246 C   0  0  0  0  0  0  0  0  0  0  0  0
   -0.4509    2.0205    0.2862 H   0  0  0  0  0  0  0  0  0  0  0  0
    0.4318    1.3167   -1.0730 H   0  0  0  0  0  0  0  0  0  0  0  0
   -1.7067    1.2608   -1.2904 C   0  0  0  0  0  0  0  0  0  0  0  0
   -2.5060    0.6854   -0.8231 H   0  0  0  0  0  0  0  0  0  0  0  0
   -2.0219    2.2995   -1.3820 H   0  0  0  0  0  0  0  0  0  0  0  0
   -1.4799    0.7091   -2.6942 C   0  0  0  0  0  0  0  0  0  0  0  0
   -0.3980    0.3722   -3.1479 O   0  0  0  0  0  0  0  0  0  0  0  0
   -2.5797    0.6127   -3.4640 O   0  0  0  0  0  0  0  0  0  0  0  0
   -2.2696    0.2677   -4.3031 H   0  0  0  0  0  0  0  0  0  0  0  0
    0.1871    0.1189    1.8122 C   0  0  0  0  0  0  0  0  0  0  0  0
    1.3541   -0.1171    2.1187 O   0  0  0  0  0  0  0  0  0  0  0  0
   -0.7126    0.5740    2.6926 N   0  0  0  0  0  0  0  0  0  0  0  0
   -1.6464    0.7663    2.3621 H   0  0  0  0  0  0  0  0  0  0  0  0
   -0.4191    0.8310    4.1010 C   0  0  0  0  0  0  0  0  0  0  0  0
    0.4022    1.5452    4.1828 H   0  0  0  0  0  0  0  0  0  0  0  0
   -1.2983    1.2366    4.6035 H   0  0  0  0  0  0  0  0  0  0  0  0
   -0.1204   -0.0980    4.5907 H   0  0  0  0  0  0  0  0  0  0  0  0
  5  6  2  0  0  0  0
  5  7  1  0  0  0  0
  2  3  1  0  0  0  0
  2  4  1  0  0  0  0
  2  5  1  0  0  0  0
  1  2  1  0  0  0  0
 21 22  2  0  0  0  0
 21 23  1  0  0  0  0
 19 20  1  0  0  0  0
 17 18  2  0  0  0  0
 17 19  1  0  0  0  0
 14 15  1  0  0  0  0
 14 16  1  0  0  0  0
 14 17  1  0  0  0  0
 11 12  1  0  0  0  0
 11 13  1  0  0  0  0
 11 14  1  0  0  0  0
  9 10  1  0  0  0  0
  9 11  1  0  0  0  0
  9 21  1  0  0  0  0
  7  8  1  0  0  0  0
  7  9  1  0  0  0  0
 25 26  1  0  0  0  0
 25 27  1  0  0  0  0
 25 28  1  0  0  0  0
 23 24  1  0  0  0  0
 23 25  1  0  0  0  0
M  END
$$$$
default_name
  -OEChem-02102213163D

 28 27  0     1  0  0  0  0  0999 V2000
   -3.2133   -3.5565    1.2809 H   0  0  0  0  0  0  0  0  0  0  0  0
   -3.1873   -2.5755    0.8089 C   0  0  0  0  0  0  0  0  0  0  0  0
   -3.8793   -1.9065    1.3169 H   0  0  0  0  0  0  0  0  0  0  0  0
   -3.4623   -2.6685   -0.2401 H   0  0  0  0  0  0  0  0  0  0  0  0
   -1.7863   -2.0195    0.9119 C   0  0  0  0  0  0  0  0  0  0  0  0
   -0.9073   -2.6615    1.4699 O   0  0  0  0  0  0  0  0  0  0  0  0
   -1.5803   -0.8195    0.3749 N   0  0  0  0  0  0  0  0  0  0  0  0
   -2.3603   -0.3345   -0.0451 H   0  0  0  0  0  0  0  0  0  0  0  0
   -0.2933   -0.1205    0.3719 C   0  0  1  0  0  0  0  0  0  0  0  0
    0.4439   -0.7485   -0.1303 H   0  0  0  0  0  0  0  0  0  0  0  0
   -0.4368    1.1924   -0.4246 C   0  0  0  0  0  0  0  0  0  0  0  0
   -0.4509    2.0205    0.2862 H   0  0  0  0  0  0  0  0  0  0  0  0
    0.4318    1.3167   -1.0730 H   0  0  0  0  0  0  0  0  0  0  0  0
   -1.7067    1.2608   -1.2904 C   0  0  0  0  0  0  0  0  0  0  0  0
   -2.5676    0.9218   -0.7141 H   0  0  0  0  0  0  0  0  0  0  0  0
   -1.8709    2.2910   -1.6041 H   0  0  0  0  0  0  0  0  0  0  0  0
   -1.6003    0.3958   -2.5422 C   0  0  0  0  0  0  0  0  0  0  0  0
   -0.5913   -0.1851   -2.9084 O   0  0  0  0  0  0  0  0  0  0  0  0
   -2.7232    0.3004   -3.2782 O   0  0  0  0  0  0  0  0  0  0  0  0
   -2.4892   -0.2569   -4.0224 H   0  0  0  0  0  0  0  0  0  0  0  0
    0.1871    0.1189    1.8122 C   0  0  0  0  0  0  0  0  0  0  0  0
    1.3541   -0.1171    2.1187 O   0  0  0  0  0  0  0  0  0  0  0  0
   -0.7126    0.5740    2.6926 N   0  0  0  0  0  0  0  0  0  0  0  0
   -1.6464    0.7663    2.3621 H   0  0  0  0  0  0  0  0  0  0  0  0
   -0.4191    0.8310    4.1010 C   0  0  0  0  0  0  0  0  0  0  0  0
    0.4022    1.5452    4.1828 H   0  0  0  0  0  0  0  0  0  0  0  0
   -1.2983    1.2366    4.6035 H   0  0  0  0  0  0  0  0  0  0  0  0
   -0.1204   -0.0980    4.5907 H   0  0  0  0  0  0  0  0  0  0  0  0
  5  6  2  0  0  0  0
  5  7  1  0  0  0  0
  2  3  1  0  0  0  0
  2  4  1  0  0  0  0
  2  5  1  0  0  0  0
  1  2  1  0  0  0  0
 21 22  2  0  0  0  0
 21 23  1  0  0  0  0
 19 20  1  0  0  0  0
 17 18  2  0  0  0  0
 17 19  1  0  0  0  0
 14 15  1  0  0  0  0
 14 16  1  0  0  0  0
 14 17  1  0  0  0  0
 11 12  1  0  0  0  0
 11 13  1  0  0  0  0
 11 14  1  0  0  0  0
  9 10  1  0  0  0  0
  9 11  1  0  0  0  0
  9 21  1  0  0  0  0
  7  8  1  0  0  0  0
  7  9  1  0  0  0  0
 25 26  1  0  0  0  0
 25 27  1  0  0  0  0
 25 28  1  0  0  0  0
 23 24  1  0  0  0  0
 23 25  1  0  0  0  0
M  END
$$$$
default_name
  -OEChem-02102213163D

 28 27  0     1  0  0  0  0  0999 V2000
   -3.2133   -3.5565    1.2809 H   0  0  0  0  0  0  0  0  0  0  0  0
   -3.1873   -2.5755    0.8089 C   0  0  0  0  0  0  0  0  0  0  0  0
   -3.8793   -1.9065    1.3169 H   0  0  0  0  0  0  0  0  0  0  0  0
   -3.4623   -2.6685   -0.2401 H   0  0  0  0  0  0  0  0  0  0  0  0
   -1.7863   -2.0195    0.9119 C   0  0  0  0  0  0  0  0  0  0  0  0
   -0.9073   -2.6615    1.4699 O   0  0  0  0  0  0  0  0  0  0  0  0
   -1.5803   -0.8195    0.3749 N   0  0  0  0  0  0  0  0  0  0  0  0
   -2.3603   -0.3345   -0.0451 H   0  0  0  0  0  0  0  0  0  0  0  0
   -0.2933   -0.1205    0.3719 C   0  0  1  0  0  0  0  0  0  0  0  0
    0.4439   -0.7485   -0.1303 H   0  0  0  0  0  0  0  0  0  0  0  0
   -0.4368    1.1924   -0.4246 C   0  0  0  0  0  0  0  0  0  0  0  0
   -0.4509    2.0205    0.2862 H   0  0  0  0  0  0  0  0  0  0  0  0
    0.4318    1.3167   -1.0730 H   0  0  0  0  0  0  0  0  0  0  0  0
   -1.7067    1.2608   -1.2904 C   0  0  0  0  0  0  0  0  0  0  0  0
   -2.5915    1.1824   -0.6585 H   0  0  0  0  0  0  0  0  0  0  0  0
   -1.7290    2.2133   -1.8185 H   0  0  0  0  0  0  0  0  0  0  0  0
   -1.7606    0.1432   -2.3271 C   0  0  0  0  0  0  0  0  0  0  0  0
   -0.8564   -0.6441   -2.5558 O   0  0  0  0  0  0  0  0  0  0  0  0
   -2.9052    0.0594   -3.0303 O   0  0  0  0  0  0  0  0  0  0  0  0
   -2.7745   -0.6717   -3.6366 H   0  0  0  0  0  0  0  0  0  0  0  0
    0.1871    0.1189    1.8122 C   0  0  0  0  0  0  0  0  0  0  0  0
    1.3541   -0.1171    2.1187 O   0  0  0  0  0  0  0  0  0  0  0  0
   -0.7126    0.5740    2.6926 N   0  0  0  0  0  0  0  0  0  0  0  0
   -1.6464    0.7663    2.3621 H   0  0  0  0  0  0  0  0  0  0  0  0
   -0.4191    0.8310    4.1010 C   0  0  0  0  0  0  0  0  0  0  0  0
    0.4022    1.5452    4.1828 H   0  0  0  0  0  0  0  0  0  0  0  0
   -1.2983    1.2366    4.6035 H   0  0  0  0  0  0  0  0  0  0  0  0
   -0.1204   -0.0980    4.5907 H   0  0  0  0  0  0  0  0  0  0  0  0
  5  6  2  0  0  0  0
  5  7  1  0  0  0  0
  2  3  1  0  0  0  0
  2  4  1  0  0  0  0
  2  5  1  0  0  0  0
  1  2  1  0  0  0  0
 21 22  2  0  0  0  0
 21 23  1  0  0  0  0
 19 20  1  0  0  0  0
 17 18  2  0  0  0  0
 17 19  1  0  0  0  0
 14 15  1  0  0  0  0
 14 16  1  0  0  0  0
 14 17  1  0  0  0  0
 11 12  1  0  0  0  0
 11 13  1  0  0  0  0
 11 14  1  0  0  0  0
  9 10  1  0  0  0  0
  9 11  1  0  0  0  0
  9 21  1  0  0  0  0
  7  8  1  0  0  0  0
  7  9  1  0  0  0  0
 25 26  1  0  0  0  0
 25 27  1  0  0  0  0
 25 28  1  0  0  0  0
 23 24  1  0  0  0  0
 23 25  1  0  0  0  0
M  END
$$$$
default_name
  -OEChem-02102213163D

 28 27  0     1  0  0  0  0  0999 V2000
   -3.2133   -3.5565    1.2809 H   0  0  0  0  0  0  0  0  0  0  0  0
   -3.1873   -2.5755    0.8089 C   0  0  0  0  0  0  0  0  0  0  0  0
   -3.8793   -1.9065    1.3169 H   0  0  0  0  0  0  0  0  0  0  0  0
   -3.4623   -2.6685   -0.2401 H   0  0  0  0  0  0  0  0  0  0  0  0
   -1.7863   -2.0195    0.9119 C   0  0  0  0  0  0  0  0  0  0  0  0
   -0.9073   -2.6615    1.4699 O   0  0  0  0  0  0  0  0  0  0  0  0
   -1.5803   -0.8195    0.3749 N   0  0  0  0  0  0  0  0  0  0  0  0
   -2.3603   -0.3345   -0.0451 H   0  0  0  0  0  0  0  0  0  0  0  0
   -0.2933   -0.1205    0.3719 C   0  0  1  0  0  0  0  0  0  0  0  0
    0.4439   -0.7485   -0.1303 H   0  0  0  0  0  0  0  0  0  0  0  0
   -0.4368    1.1924   -0.4246 C   0  0  0  0  0  0  0  0  0  0  0  0
   -0.4509    2.0205    0.2862 H   0  0  0  0  0  0  0  0  0  0  0  0
    0.4318    1.3167   -1.0730 H   0  0  0  0  0  0  0  0  0  0  0  0
   -1.7067    1.2608   -1.2904 C   0  0  0  0  0  0  0  0  0  0  0  0
   -2.5759    1.4495   -0.6602 H   0  0  0  0  0  0  0  0  0  0  0  0
   -1.6056    2.0719   -2.0106 H   0  0  0  0  0  0  0  0  0  0  0  0
   -1.9497   -0.0314   -2.0634 C   0  0  0  0  0  0  0  0  0  0  0  0
   -1.1752   -0.9735   -2.1140 O   0  0  0  0  0  0  0  0  0  0  0  0
   -3.1132   -0.0939   -2.7373 O   0  0  0  0  0  0  0  0  0  0  0  0
   -3.1061   -0.9484   -3.1721 H   0  0  0  0  0  0  0  0  0  0  0  0
    0.1871    0.1189    1.8122 C   0  0  0  0  0  0  0  0  0  0  0  0
    1.3541   -0.1171    2.1187 O   0  0  0  0  0  0  0  0  0  0  0  0
   -0.7126    0.5740    2.6926 N   0  0  0  0  0  0  0  0  0  0  0  0
   -1.6464    0.7663    2.3621 H   0  0  0  0  0  0  0  0  0  0  0  0
   -0.4191    0.8310    4.1010 C   0  0  0  0  0  0  0  0  0  0  0  0
    0.4022    1.5452    4.1828 H   0  0  0  0  0  0  0  0  0  0  0  0
   -1.2983    1.2366    4.6035 H   0  0  0  0  0  0  0  0  0  0  0  0
   -0.1204   -0.0980    4.5907 H   0  0  0  0  0  0  0  0  0  0  0  0
  5  6  2  0  0  0  0
  5  7  1  0  0  0  0
  2  3  1  0  0  0  0
  2  4  1  0  0  0  0
  2  5  1  0  0  0  0
  1  2  1  0  0  0  0
 21 22  2  0  0  0  0
 21 23  1  0  0  0  0
 19 20  1  0  0  0  0
 17 18  2  0  0  0  0
 17 19  1  0  0  0  0
 14 15  1  0  0  0  0
 14 16  1  0  0  0  0
 14 17  1  0  0  0  0
 11 12  1  0  0  0  0
 11 13  1  0  0  0  0
 11 14  1  0  0  0  0
  9 10  1  0  0  0  0
  9 11  1  0  0  0  0
  9 21  1  0  0  0  0
  7  8  1  0  0  0  0
  7  9  1  0  0  0  0
 25 26  1  0  0  0  0
 25 27  1  0  0  0  0
 25 28  1  0  0  0  0
 23 24  1  0  0  0  0
 23 25  1  0  0  0  0
M  END
$$$$
default_name
  -OEChem-02102213163D

 28 27  0     1  0  0  0  0  0999 V2000
   -3.2133   -3.5565    1.2809 H   0  0  0  0  0  0  0  0  0  0  0  0
   -3.1873   -2.5755    0.8089 C   0  0  0  0  0  0  0  0  0  0  0  0
   -3.8793   -1.9065    1.3169 H   0  0  0  0  0  0  0  0  0  0  0  0
   -3.4623   -2.6685   -0.2401 H   0  0  0  0  0  0  0  0  0  0  0  0
   -1.7863   -2.0195    0.9119 C   0  0  0  0  0  0  0  0  0  0  0  0
   -0.9073   -2.6615    1.4699 O   0  0  0  0  0  0  0  0  0  0  0  0
   -1.5803   -0.8195    0.3749 N   0  0  0  0  0  0  0  0  0  0  0  0
   -2.3603   -0.3345   -0.0451 H   0  0  0  0  0  0  0  0  0  0  0  0
   -0.2933   -0.1205    0.3719 C   0  0  1  0  0  0  0  0  0  0  0  0
    0.4439   -0.7485   -0.1303 H   0  0  0  0  0  0  0  0  0  0  0  0
   -0.4368    1.1924   -0.4246 C   0  0  0  0  0  0  0  0  0  0  0  0
   -0.4509    2.0205    0.2862 H   0  0  0  0  0  0  0  0  0  0  0  0
    0.4318    1.3167   -1.0730 H   0  0  0  0  0  0  0  0  0  0  0  0
   -1.7067    1.2608   -1.2904 C   0  0  0  0  0  0  0  0  0  0  0  0
   -2.5220    1.7049   -0.7191 H   0  0  0  0  0  0  0  0  0  0  0  0
   -1.5093    1.8762   -2.1673 H   0  0  0  0  0  0  0  0  0  0  0  0
   -2.1548   -0.1163   -1.7693 C   0  0  0  0  0  0  0  0  0  0  0  0
   -1.5261   -1.1508   -1.6133 O   0  0  0  0  0  0  0  0  0  0  0  0
   -3.3330   -0.1491   -2.4191 O   0  0  0  0  0  0  0  0  0  0  0  0
   -3.4613   -1.0681   -2.6605 H   0  0  0  0  0  0  0  0  0  0  0  0
    0.1871    0.1189    1.8122 C   0  0  0  0  0  0  0  0  0  0  0  0
    1.3541   -0.1171    2.1187 O   0  0  0  0  0  0  0  0  0  0  0  0
   -0.7126    0.5740    2.6926 N   0  0  0  0  0  0  0  0  0  0  0  0
   -1.6464    0.7663    2.3621 H   0  0  0  0  0  0  0  0  0  0  0  0
   -0.4191    0.8310    4.1010 C   0  0  0  0  0  0  0  0  0  0  0  0
    0.4022    1.5452    4.1828 H   0  0  0  0  0  0  0  0  0  0  0  0
   -1.2983    1.2366    4.6035 H   0  0  0  0  0  0  0  0  0  0  0  0
   -0.1204   -0.0980    4.5907 H   0  0  0  0  0  0  0  0  0  0  0  0
  5  6  2  0  0  0  0
  5  7  1  0  0  0  0
  2  3  1  0  0  0  0
  2  4  1  0  0  0  0
  2  5  1  0  0  0  0
  1  2  1  0  0  0  0
 21 22  2  0  0  0  0
 21 23  1  0  0  0  0
 19 20  1  0  0  0  0
 17 18  2  0  0  0  0
 17 19  1  0  0  0  0
 14 15  1  0  0  0  0
 14 16  1  0  0  0  0
 14 17  1  0  0  0  0
 11 12  1  0  0  0  0
 11 13  1  0  0  0  0
 11 14  1  0  0  0  0
  9 10  1  0  0  0  0
  9 11  1  0  0  0  0
  9 21  1  0  0  0  0
  7  8  1  0  0  0  0
  7  9  1  0  0  0  0
 25 26  1  0  0  0  0
 25 27  1  0  0  0  0
 25 28  1  0  0  0  0
 23 24  1  0  0  0  0
 23 25  1  0  0  0  0
M  END
$$$$
default_name
  -OEChem-02102213163D

 28 27  0     1  0  0  0  0  0999 V2000
   -3.2133   -3.5565    1.2809 H   0  0  0  0  0  0  0  0  0  0  0  0
   -3.1873   -2.5755    0.8089 C   0  0  0  0  0  0  0  0  0  0  0  0
   -3.8793   -1.9065    1.3169 H   0  0  0  0  0  0  0  0  0  0  0  0
   -3.4623   -2.6685   -0.2401 H   0  0  0  0  0  0  0  0  0  0  0  0
   -1.7863   -2.0195    0.9119 C   0  0  0  0  0  0  0  0  0  0  0  0
   -0.9073   -2.6615    1.4699 O   0  0  0  0  0  0  0  0  0  0  0  0
   -1.5803   -0.8195    0.3749 N   0  0  0  0  0  0  0  0  0  0  0  0
   -2.3603   -0.3345   -0.0451 H   0  0  0  0  0  0  0  0  0  0  0  0
   -0.2933   -0.1205    0.3719 C   0  0  1  0  0  0  0  0  0  0  0  0
    0.4439   -0.7485   -0.1303 H   0  0  0  0  0  0  0  0  0  0  0  0
   -0.4368    1.1924   -0.4246 C   0  0  0  0  0  0  0  0  0  0  0  0
   -0.4509    2.0205    0.2862 H   0  0  0  0  0  0  0  0  0  0  0  0
    0.4318    1.3167   -1.0730 H   0  0  0  0  0  0  0  0  0  0  0  0
   -1.7067    1.2608   -1.2904 C   0  0  0  0  0  0  0  0  0  0  0  0
   -2.4335    1.9311   -0.8312 H   0  0  0  0  0  0  0  0  0  0  0  0
   -1.4465    1.6396   -2.2781 H   0  0  0  0  0  0  0  0  0  0  0  0
   -2.3618   -0.1056   -1.4647 C   0  0  0  0  0  0  0  0  0  0  0  0
   -1.8851   -1.1641   -1.0877 O   0  0  0  0  0  0  0  0  0  0  0  0
   -3.5498   -0.1025   -2.0975 O   0  0  0  0  0  0  0  0  0  0  0  0
   -3.8160   -1.0228   -2.1367 H   0  0  0  0  0  0  0  0  0  0  0  0
    0.1871    0.1189    1.8122 C   0  0  0  0  0  0  0  0  0  0  0  0
    1.3541   -0.1171    2.1187 O   0  0  0  0  0  0  0  0  0  0  0  0
   -0.7126    0.5740    2.6926 N   0  0  0  0  0  0  0  0  0  0  0  0
   -1.6464    0.7663    2.3621 H   0  0  0  0  0  0  0  0  0  0  0  0
   -0.4191    0.8310    4.1010 C   0  0  0  0  0  0  0  0  0  0  0  0
    0.4022    1.5452    4.1828 H   0  0  0  0  0  0  0  0  0  0  0  0
   -1.2983    1.2366    4.6035 H   0  0  0  0  0  0  0  0  0  0  0  0
   -0.1204   -0.0980    4.5907 H   0  0  0  0  0  0  0  0  0  0  0  0
  5  6  2  0  0  0  0
  5  7  1  0  0  0  0
  2  3  1  0  0  0  0
  2  4  1  0  0  0  0
  2  5  1  0  0  0  0
  1  2  1  0  0  0  0
 21 22  2  0  0  0  0
 21 23  1  0  0  0  0
 19 20  1  0  0  0  0
 17 18  2  0  0  0  0
 17 19  1  0  0  0  0
 14 15  1  0  0  0  0
 14 16  1  0  0  0  0
 14 17  1  0  0  0  0
 11 12  1  0  0  0  0
 11 13  1  0  0  0  0
 11 14  1  0  0  0  0
  9 10  1  0  0  0  0
  9 11  1  0  0  0  0
  9 21  1  0  0  0  0
  7  8  1  0  0  0  0
  7  9  1  0  0  0  0
 25 26  1  0  0  0  0
 25 27  1  0  0  0  0
 25 28  1  0  0  0  0
 23 24  1  0  0  0  0
 23 25  1  0  0  0  0
M  END
$$$$
default_name
  -OEChem-02102213163D

 28 27  0     1  0  0  0  0  0999 V2000
   -3.2133   -3.5565    1.2809 H   0  0  0  0  0  0  0  0  0  0  0  0
   -3.1873   -2.5755    0.8089 C   0  0  0  0  0  0  0  0  0  0  0  0
   -3.8793   -1.9065    1.3169 H   0  0  0  0  0  0  0  0  0  0  0  0
   -3.4623   -2.6685   -0.2401 H   0  0  0  0  0  0  0  0  0  0  0  0
   -1.7863   -2.0195    0.9119 C   0  0  0  0  0  0  0  0  0  0  0  0
   -0.9073   -2.6615    1.4699 O   0  0  0  0  0  0  0  0  0  0  0  0
   -1.5803   -0.8195    0.3749 N   0  0  0  0  0  0  0  0  0  0  0  0
   -2.3603   -0.3345   -0.0451 H   0  0  0  0  0  0  0  0  0  0  0  0
   -0.2933   -0.1205    0.3719 C   0  0  1  0  0  0  0  0  0  0  0  0
    0.4439   -0.7485   -0.1303 H   0  0  0  0  0  0  0  0  0  0  0  0
   -0.4368    1.1924   -0.4246 C   0  0  0  0  0  0  0  0  0  0  0  0
   -0.4509    2.0205    0.2862 H   0  0  0  0  0  0  0  0  0  0  0  0
    0.4318    1.3167   -1.0730 H   0  0  0  0  0  0  0  0  0  0  0  0
   -1.7067    1.2608   -1.2904 C   0  0  0  0  0  0  0  0  0  0  0  0
   -2.3162    2.1127   -0.9888 H   0  0  0  0  0  0  0  0  0  0  0  0
   -1.4216    1.3784   -2.3352 H   0  0  0  0  0  0  0  0  0  0  0  0
   -2.5568    0.0000   -1.1704 C   0  0  0  0  0  0  0  0  0  0  0  0
   -2.2278   -1.0123   -0.5731 O   0  0  0  0  0  0  0  0  0  0  0  0
   -3.7487    0.0429   -1.7943 O   0  0  0  0  0  0  0  0  0  0  0  0
   -4.1459   -0.8153   -1.6363 H   0  0  0  0  0  0  0  0  0  0  0  0
    0.1871    0.1189    1.8122 C   0  0  0  0  0  0  0  0  0  0  0  0
    1.3541   -0.1171    2.1187 O   0  0  0  0  0  0  0  0  0  0  0  0
   -0.7126    0.5740    2.6926 N   0  0  0  0  0  0  0  0  0  0  0  0
   -1.6464    0.7663    2.3621 H   0  0  0  0  0  0  0  0  0  0  0  0
   -0.4191    0.8310    4.1010 C   0  0  0  0  0  0  0  0  0  0  0  0
    0.4022    1.5452    4.1828 H   0  0  0  0  0  0  0  0  0  0  0  0
   -1.2983    1.2366    4.6035 H   0  0  0  0  0  0  0  0  0  0  0  0
   -0.1204   -0.0980    4.5907 H   0  0  0  0  0  0  0  0  0  0  0  0
  5  6  2  0  0  0  0
  5  7  1  0  0  0  0
  2  3  1  0  0  0  0
  2  4  1  0  0  0  0
  2  5  1  0  0  0  0
  1  2  1  0  0  0  0
 21 22  2  0  0  0  0
 21 23  1  0  0  0  0
 19 20  1  0  0  0  0
 17 18  2  0  0  0  0
 17 19  1  0  0  0  0
 14 15  1  0  0  0  0
 14 16  1  0  0  0  0
 14 17  1  0  0  0  0
 11 12  1  0  0  0  0
 11 13  1  0  0  0  0
 11 14  1  0  0  0  0
  9 10  1  0  0  0  0
  9 11  1  0  0  0  0
  9 21  1  0  0  0  0
  7  8  1  0  0  0  0
  7  9  1  0  0  0  0
 25 26  1  0  0  0  0
 25 27  1  0  0  0  0
 25 28  1  0  0  0  0
 23 24  1  0  0  0  0
 23 25  1  0  0  0  0
M  END
$$$$
default_name
  -OEChem-02102213163D

 28 27  0     1  0  0  0  0  0999 V2000
   -3.2133   -3.5565    1.2809 H   0  0  0  0  0  0  0  0  0  0  0  0
   -3.1873   -2.5755    0.8089 C   0  0  0  0  0  0  0  0  0  0  0  0
   -3.8793   -1.9065    1.3169 H   0  0  0  0  0  0  0  0  0  0  0  0
   -3.4623   -2.6685   -0.2401 H   0  0  0  0  0  0  0  0  0  0  0  0
   -1.7863   -2.0195    0.9119 C   0  0  0  0  0  0  0  0  0  0  0  0
   -0.9073   -2.6615    1.4699 O   0  0  0  0  0  0  0  0  0  0  0  0
   -1.5803   -0.8195    0.3749 N   0  0  0  0  0  0  0  0  0  0  0  0
   -2.3603   -0.3345   -0.0451 H   0  0  0  0  0  0  0  0  0  0  0  0
   -0.2933   -0.1205    0.3719 C   0  0  1  0  0  0  0  0  0  0  0  0
    0.4439   -0.7485   -0.1303 H   0  0  0  0  0  0  0  0  0  0  0  0
   -0.4368    1.1924   -0.4246 C   0  0  0  0  0  0  0  0  0  0  0  0
   -0.4509    2.0205    0.2862 H   0  0  0  0  0  0  0  0  0  0  0  0
    0.4318    1.3167   -1.0730 H   0  0  0  0  0  0  0  0  0  0  0  0
   -1.7067    1.2608   -1.2904 C   0  0  0  0  0  0  0  0  0  0  0  0
   -2.1784    2.2375   -1.1812 H   0  0  0  0  0  0  0  0  0  0  0  0
   -1.4363    1.1102   -2.3349 H   0  0  0  0  0  0  0  0  0  0  0  0
   -2.7263    0.1933   -0.9065 C   0  0  0  0  0  0  0  0  0  0  0  0
   -2.5307   -0.7058   -0.1045 O   0  0  0  0  0  0  0  0  0  0  0  0
   -3.9162    0.2770   -1.5301 O   0  0  0  0  0  0  0  0  0  0  0  0
   -4.4287   -0.4600   -1.1935 H   0  0  0  0  0  0  0  0  0  0  0  0
    0.1871    0.1189    1.8122 C   0  0  0  0  0  0  0  0  0  0  0  0
    1.3541   -0.1171    2.1187 O   0  0  0  0  0  0  0  0  0  0  0  0
   -0.7126    0.5740    2.6926 N   0  0  0  0  0  0  0  0  0  0  0  0
   -1.6464    0.7663    2.3621 H   0  0  0  0  0  0  0  0  0  0  0  0
   -0.4191    0.8310    4.1010 C   0  0  0  0  0  0  0  0  0  0  0  0
    0.4022    1.5452    4.1828 H   0  0  0  0  0  0  0  0  0  0  0  0
   -1.2983    1.2366    4.6035 H   0  0  0  0  0  0  0  0  0  0  0  0
   -0.1204   -0.0980    4.5907 H   0  0  0  0  0  0  0  0  0  0  0  0
  5  6  2  0  0  0  0
  5  7  1  0  0  0  0
  2  3  1  0  0  0  0
  2  4  1  0  0  0  0
  2  5  1  0  0  0  0
  1  2  1  0  0  0  0
 21 22  2  0  0  0  0
 21 23  1  0  0  0  0
 19 20  1  0  0  0  0
 17 18  2  0  0  0  0
 17 19  1  0  0  0  0
 14 15  1  0  0  0  0
 14 16  1  0  0  0  0
 14 17  1  0  0  0  0
 11 12  1  0  0  0  0
 11 13  1  0  0  0  0
 11 14  1  0  0  0  0
  9 10  1  0  0  0  0
  9 11  1  0  0  0  0
  9 21  1  0  0  0  0
  7  8  1  0  0  0  0
  7  9  1  0  0  0  0
 25 26  1  0  0  0  0
 25 27  1  0  0  0  0
 25 28  1  0  0  0  0
 23 24  1  0  0  0  0
 23 25  1  0  0  0  0
M  END
$$$$
default_name
  -OEChem-02102213163D

 28 27  0     1  0  0  0  0  0999 V2000
   -3.2133   -3.5565    1.2809 H   0  0  0  0  0  0  0  0  0  0  0  0
   -3.1873   -2.5755    0.8089 C   0  0  0  0  0  0  0  0  0  0  0  0
   -3.8793   -1.9065    1.3169 H   0  0  0  0  0  0  0  0  0  0  0  0
   -3.4623   -2.6685   -0.2401 H   0  0  0  0  0  0  0  0  0  0  0  0
   -1.7863   -2.0195    0.9119 C   0  0  0  0  0  0  0  0  0  0  0  0
   -0.9073   -2.6615    1.4699 O   0  0  0  0  0  0  0  0  0  0  0  0
   -1.5803   -0.8195    0.3749 N   0  0  0  0  0  0  0  0  0  0  0  0
   -2.3603   -0.3345   -0.0451 H   0  0  0  0  0  0  0  0  0  0  0  0
   -0.2933   -0.1205    0.3719 C   0  0  1  0  0  0  0  0  0  0  0  0
    0.4439   -0.7485   -0.1303 H   0  0  0  0  0  0  0  0  0  0  0  0
   -0.4368    1.1924   -0.4246 C   0  0  0  0  0  0  0  0  0  0  0  0
   -0.4509    2.0205    0.2862 H   0  0  0  0  0  0  0  0  0  0  0  0
    0.4318    1.3167   -1.0730 H   0  0  0  0  0  0  0  0  0  0  0  0
   -1.7067    1.2608   -1.2904 C   0  0  0  0  0  0  0  0  0  0  0  0
   -2.0292    2.2968   -1.3953 H   0  0  0  0  0  0  0  0  0  0  0  0
   -1.4895    0.8533   -2.2771 H   0  0  0  0  0  0  0  0  0  0  0  0
   -2.8589    0.4611   -0.6909 C   0  0  0  0  0  0  0  0  0  0  0  0
   -2.7734   -0.2656    0.2861 O   0  0  0  0  0  0  0  0  0  0  0  0
   -4.0408    0.5840   -1.3231 O   0  0  0  0  0  0  0  0  0  0  0  0
   -4.6449    0.0189   -0.8384 H   0  0  0  0  0  0  0  0  0  0  0  0
    0.1871    0.1189    1.8122 C   0  0  0  0  0  0  0  0  0  0  0  0
    1.3541   -0.1171    2.1187 O   0  0  0  0  0  0  0  0  0  0  0  0
   -0.7126    0.5740    2.6926 N   0  0  0  0  0  0  0  0  0  0  0  0
   -1.6464    0.7663    2.3621 H   0  0  0  0  0  0  0  0  0  0  0  0
   -0.4191    0.8310    4.1010 C   0  0  0  0  0  0  0  0  0  0  0  0
    0.4022    1.5452    4.1828 H   0  0  0  0  0  0  0  0  0  0  0  0
   -1.2983    1.2366    4.6035 H   0  0  0  0  0  0  0  0  0  0  0  0
   -0.1204   -0.0980    4.5907 H   0  0  0  0  0  0  0  0  0  0  0  0
  5  6  2  0  0  0  0
  5  7  1  0  0  0  0
  2  3  1  0  0  0  0
  2  4  1  0  0  0  0
  2  5  1  0  0  0  0
  1  2  1  0  0  0  0
 21 22  2  0  0  0  0
 21 23  1  0  0  0  0
 19 20  1  0  0  0  0
 17 18  2  0  0  0  0
 17 19  1  0  0  0  0
 14 15  1  0  0  0  0
 14 16  1  0  0  0  0
 14 17  1  0  0  0  0
 11 12  1  0  0  0  0
 11 13  1  0  0  0  0
 11 14  1  0  0  0  0
  9 10  1  0  0  0  0
  9 11  1  0  0  0  0
  9 21  1  0  0  0  0
  7  8  1  0  0  0  0
  7  9  1  0  0  0  0
 25 26  1  0  0  0  0
 25 27  1  0  0  0  0
 25 28  1  0  0  0  0
 23 24  1  0  0  0  0
 23 25  1  0  0  0  0
M  END
$$$$
default_name
  -OEChem-02102213163D

 28 27  0     1  0  0  0  0  0999 V2000
   -3.2133   -3.5565    1.2809 H   0  0  0  0  0  0  0  0  0  0  0  0
   -3.1873   -2.5755    0.8089 C   0  0  0  0  0  0  0  0  0  0  0  0
   -3.8793   -1.9065    1.3169 H   0  0  0  0  0  0  0  0  0  0  0  0
   -3.4623   -2.6685   -0.2401 H   0  0  0  0  0  0  0  0  0  0  0  0
   -1.7863   -2.0195    0.9119 C   0  0  0  0  0  0  0  0  0  0  0  0
   -0.9073   -2.6615    1.4699 O   0  0  0  0  0  0  0  0  0  0  0  0
   -1.5803   -0.8195    0.3749 N   0  0  0  0  0  0  0  0  0  0  0  0
   -2.3603   -0.3345   -0.0451 H   0  0  0  0  0  0  0  0  0  0  0  0
   -0.2933   -0.1205    0.3719 C   0  0  1  0  0  0  0  0  0  0  0  0
    0.4439   -0.7485   -0.1303 H   0  0  0  0  0  0  0  0  0  0  0  0
   -0.4368    1.1924   -0.4246 C   0  0  0  0  0  0  0  0  0  0  0  0
   -0.4509    2.0205    0.2862 H   0  0  0  0  0  0  0  0  0  0  0  0
    0.4318    1.3167   -1.0730 H   0  0  0  0  0  0  0  0  0  0  0  0
   -1.7067    1.2608   -1.2904 C   0  0  0  0  0  0  0  0  0  0  0  0
   -1.8790    2.2866   -1.6165 H   0  0  0  0  0  0  0  0  0  0  0  0
   -1.5777    0.6253   -2.1657 H   0  0  0  0  0  0  0  0  0  0  0  0
   -2.9455    0.7851   -0.5383 C   0  0  0  0  0  0  0  0  0  0  0  0
   -2.9391    0.2785    0.5722 O   0  0  0  0  0  0  0  0  0  0  0  0
   -4.1140    0.9429   -1.1873 O   0  0  0  0  0  0  0  0  0  0  0  0
   -4.7800    0.5889   -0.5953 H   0  0  0  0  0  0  0  0  0  0  0  0
    0.1871    0.1189    1.8122 C   0  0  0  0  0  0  0  0  0  0  0  0
    1.3541   -0.1171    2.1187 O   0  0  0  0  0  0  0  0  0  0  0  0
   -0.7126    0.5740    2.6926 N   0  0  0  0  0  0  0  0  0  0  0  0
   -1.6464    0.7663    2.3621 H   0  0  0  0  0  0  0  0  0  0  0  0
   -0.4191    0.8310    4.1010 C   0  0  0  0  0  0  0  0  0  0  0  0
    0.4022    1.5452    4.1828 H   0  0  0  0  0  0  0  0  0  0  0  0
   -1.2983    1.2366    4.6035 H   0  0  0  0  0  0  0  0  0  0  0  0
   -0.1204   -0.0980    4.5907 H   0  0  0  0  0  0  0  0  0  0  0  0
  5  6  2  0  0  0  0
  5  7  1  0  0  0  0
  2  3  1  0  0  0  0
  2  4  1  0  0  0  0
  2  5  1  0  0  0  0
  1  2  1  0  0  0  0
 21 22  2  0  0  0  0
 21 23  1  0  0  0  0
 19 20  1  0  0  0  0
 17 18  2  0  0  0  0
 17 19  1  0  0  0  0
 14 15  1  0  0  0  0
 14 16  1  0  0  0  0
 14 17  1  0  0  0  0
 11 12  1  0  0  0  0
 11 13  1  0  0  0  0
 11 14  1  0  0  0  0
  9 10  1  0  0  0  0
  9 11  1  0  0  0  0
  9 21  1  0  0  0  0
  7  8  1  0  0  0  0
  7  9  1  0  0  0  0
 25 26  1  0  0  0  0
 25 27  1  0  0  0  0
 25 28  1  0  0  0  0
 23 24  1  0  0  0  0
 23 25  1  0  0  0  0
M  END
$$$$
default_name
  -OEChem-02102213163D

 28 27  0     1  0  0  0  0  0999 V2000
   -3.2133   -3.5565    1.2809 H   0  0  0  0  0  0  0  0  0  0  0  0
   -3.1873   -2.5755    0.8089 C   0  0  0  0  0  0  0  0  0  0  0  0
   -3.8793   -1.9065    1.3169 H   0  0  0  0  0  0  0  0  0  0  0  0
   -3.4623   -2.6685   -0.2401 H   0  0  0  0  0  0  0  0  0  0  0  0
   -1.7863   -2.0195    0.9119 C   0  0  0  0  0  0  0  0  0  0  0  0
   -0.9073   -2.6615    1.4699 O   0  0  0  0  0  0  0  0  0  0  0  0
   -1.5803   -0.8195    0.3749 N   0  0  0  0  0  0  0  0  0  0  0  0
   -2.3603   -0.3345   -0.0451 H   0  0  0  0  0  0  0  0  0  0  0  0
   -0.2933   -0.1205    0.3719 C   0  0  1  0  0  0  0  0  0  0  0  0
    0.4439   -0.7485   -0.1303 H   0  0  0  0  0  0  0  0  0  0  0  0
   -0.4368    1.1924   -0.4246 C   0  0  0  0  0  0  0  0  0  0  0  0
   -0.4509    2.0205    0.2862 H   0  0  0  0  0  0  0  0  0  0  0  0
    0.4318    1.3167   -1.0730 H   0  0  0  0  0  0  0  0  0  0  0  0
   -1.7067    1.2608   -1.2904 C   0  0  0  0  0  0  0  0  0  0  0  0
   -1.7379    2.2076   -1.8296 H   0  0  0  0  0  0  0  0  0  0  0  0
   -1.6948    0.4417   -2.0085 H   0  0  0  0  0  0  0  0  0  0  0  0
   -2.9802    1.1433   -0.4591 C   0  0  0  0  0  0  0  0  0  0  0  0
   -3.0167    0.8893    0.7342 O   0  0  0  0  0  0  0  0  0  0  0  0
   -4.1310    1.3293   -1.1319 O   0  0  0  0  0  0  0  0  0  0  0  0
   -4.8247    1.2111   -0.4807 H   0  0  0  0  0  0  0  0  0  0  0  0
    0.1871    0.1189    1.8122 C   0  0  0  0  0  0  0  0  0  0  0  0
    1.3541   -0.1171    2.1187 O   0  0  0  0  0  0  0  0  0  0  0  0
   -0.7126    0.5740    2.6926 N   0  0  0  0  0  0  0  0  0  0  0  0
   -1.6464    0.7663    2.3621 H   0  0  0  0  0  0  0  0  0  0  0  0
   -0.4191    0.8310    4.1010 C   0  0  0  0  0  0  0  0  0  0  0  0
    0.4022    1.5452    4.1828 H   0  0  0  0  0  0  0  0  0  0  0  0
   -1.2983    1.2366    4.6035 H   0  0  0  0  0  0  0  0  0  0  0  0
   -0.1204   -0.0980    4.5907 H   0  0  0  0  0  0  0  0  0  0  0  0
  5  6  2  0  0  0  0
  5  7  1  0  0  0  0
  2  3  1  0  0  0  0
  2  4  1  0  0  0  0
  2  5  1  0  0  0  0
  1  2  1  0  0  0  0
 21 22  2  0  0  0  0
 21 23  1  0  0  0  0
 19 20  1  0  0  0  0
 17 18  2  0  0  0  0
 17 19  1  0  0  0  0
 14 15  1  0  0  0  0
 14 16  1  0  0  0  0
 14 17  1  0  0  0  0
 11 12  1  0  0  0  0
 11 13  1  0  0  0  0
 11 14  1  0  0  0  0
  9 10  1  0  0  0  0
  9 11  1  0  0  0  0
  9 21  1  0  0  0  0
  7  8  1  0  0  0  0
  7  9  1  0  0  0  0
 25 26  1  0  0  0  0
 25 27  1  0  0  0  0
 25 28  1  0  0  0  0
 23 24  1  0  0  0  0
 23 25  1  0  0  0  0
M  END
$$$$
default_name
  -OEChem-02102213163D

 28 27  0     1  0  0  0  0  0999 V2000
   -3.2133   -3.5565    1.2809 H   0  0  0  0  0  0  0  0  0  0  0  0
   -3.1873   -2.5755    0.8089 C   0  0  0  0  0  0  0  0  0  0  0  0
   -3.8793   -1.9065    1.3169 H   0  0  0  0  0  0  0  0  0  0  0  0
   -3.4623   -2.6685   -0.2401 H   0  0  0  0  0  0  0  0  0  0  0  0
   -1.7863   -2.0195    0.9119 C   0  0  0  0  0  0  0  0  0  0  0  0
   -0.9073   -2.6615    1.4699 O   0  0  0  0  0  0  0  0  0  0  0  0
   -1.5803   -0.8195    0.3749 N   0  0  0  0  0  0  0  0  0  0  0  0
   -2.3603   -0.3345   -0.0451 H   0  0  0  0  0  0  0  0  0  0  0  0
   -0.2933   -0.1205    0.3719 C   0  0  1  0  0  0  0  0  0  0  0  0
    0.4439   -0.7485   -0.1303 H   0  0  0  0  0  0  0  0  0  0  0  0
   -0.4368    1.1924   -0.4246 C   0  0  0  0  0  0  0  0  0  0  0  0
   -0.4509    2.0205    0.2862 H   0  0  0  0  0  0  0  0  0  0  0  0
    0.4318    1.3167   -1.0730 H   0  0  0  0  0  0  0  0  0  0  0  0
   -1.7067    1.2608   -1.2904 C   0  0  0  0  0  0  0  0  0  0  0  0
   -1.6156    2.0652   -2.0203 H   0  0  0  0  0  0  0  0  0  0  0  0
   -1.8328    0.3150   -1.8160 H   0  0  0  0  0  0  0  0  0  0  0  0
   -2.9606    1.5112   -0.4588 C   0  0  0  0  0  0  0  0  0  0  0  0
   -3.0008    1.5251    0.7611 O   0  0  0  0  0  0  0  0  0  0  0  0
   -4.0904    1.7168   -1.1608 O   0  0  0  0  0  0  0  0  0  0  0  0
   -4.7759    1.8431   -0.5024 H   0  0  0  0  0  0  0  0  0  0  0  0
    0.1871    0.1189    1.8122 C   0  0  0  0  0  0  0  0  0  0  0  0
    1.3541   -0.1171    2.1187 O   0  0  0  0  0  0  0  0  0  0  0  0
   -0.7126    0.5740    2.6926 N   0  0  0  0  0  0  0  0  0  0  0  0
   -1.6464    0.7663    2.3621 H   0  0  0  0  0  0  0  0  0  0  0  0
   -0.4191    0.8310    4.1010 C   0  0  0  0  0  0  0  0  0  0  0  0
    0.4022    1.5452    4.1828 H   0  0  0  0  0  0  0  0  0  0  0  0
   -1.2983    1.2366    4.6035 H   0  0  0  0  0  0  0  0  0  0  0  0
   -0.1204   -0.0980    4.5907 H   0  0  0  0  0  0  0  0  0  0  0  0
  5  6  2  0  0  0  0
  5  7  1  0  0  0  0
  2  3  1  0  0  0  0
  2  4  1  0  0  0  0
  2  5  1  0  0  0  0
  1  2  1  0  0  0  0
 21 22  2  0  0  0  0
 21 23  1  0  0  0  0
 19 20  1  0  0  0  0
 17 18  2  0  0  0  0
 17 19  1  0  0  0  0
 14 15  1  0  0  0  0
 14 16  1  0  0  0  0
 14 17  1  0  0  0  0
 11 12  1  0  0  0  0
 11 13  1  0  0  0  0
 11 14  1  0  0  0  0
  9 10  1  0  0  0  0
  9 11  1  0  0  0  0
  9 21  1  0  0  0  0
  7  8  1  0  0  0  0
  7  9  1  0  0  0  0
 25 26  1  0  0  0  0
 25 27  1  0  0  0  0
 25 28  1  0  0  0  0
 23 24  1  0  0  0  0
 23 25  1  0  0  0  0
M  END
$$$$
default_name
  -OEChem-02102213163D

 28 27  0     1  0  0  0  0  0999 V2000
   -3.2133   -3.5565    1.2809 H   0  0  0  0  0  0  0  0  0  0  0  0
   -3.1873   -2.5755    0.8089 C   0  0  0  0  0  0  0  0  0  0  0  0
   -3.8793   -1.9065    1.3169 H   0  0  0  0  0  0  0  0  0  0  0  0
   -3.4623   -2.6685   -0.2401 H   0  0  0  0  0  0  0  0  0  0  0  0
   -1.7863   -2.0195    0.9119 C   0  0  0  0  0  0  0  0  0  0  0  0
   -0.9073   -2.6615    1.4699 O   0  0  0  0  0  0  0  0  0  0  0  0
   -1.5803   -0.8195    0.3749 N   0  0  0  0  0  0  0  0  0  0  0  0
   -2.3603   -0.3345   -0.0451 H   0  0  0  0  0  0  0  0  0  0  0  0
   -0.2933   -0.1205    0.3719 C   0  0  1  0  0  0  0  0  0  0  0  0
    0.4439   -0.7485   -0.1303 H   0  0  0  0  0  0  0  0  0  0  0  0
   -0.4368    1.1924   -0.4246 C   0  0  0  0  0  0  0  0  0  0  0  0
   -0.4509    2.0205    0.2862 H   0  0  0  0  0  0  0  0  0  0  0  0
    0.4318    1.3167   -1.0730 H   0  0  0  0  0  0  0  0  0  0  0  0
   -1.7067    1.2608   -1.2904 C   0  0  0  0  0  0  0  0  0  0  0  0
   -1.5204    1.8692   -2.1755 H   0  0  0  0  0  0  0  0  0  0  0  0
   -1.9823    0.2538   -1.6015 H   0  0  0  0  0  0  0  0  0  0  0  0
   -2.8881    1.8638   -0.5373 C   0  0  0  0  0  0  0  0  0  0  0  0
   -2.8925    2.1428    0.6510 O   0  0  0  0  0  0  0  0  0  0  0  0
   -3.9952    2.0790   -1.2720 O   0  0  0  0  0  0  0  0  0  0  0  0
   -4.6369    2.4418   -0.6589 H   0  0  0  0  0  0  0  0  0  0  0  0
    0.1871    0.1189    1.8122 C   0  0  0  0  0  0  0  0  0  0  0  0
    1.3541   -0.1171    2.1187 O   0  0  0  0  0  0  0  0  0  0  0  0
   -0.7126    0.5740    2.6926 N   0  0  0  0  0  0  0  0  0  0  0  0
   -1.6464    0.7663    2.3621 H   0  0  0  0  0  0  0  0  0  0  0  0
   -0.4191    0.8310    4.1010 C   0  0  0  0  0  0  0  0  0  0  0  0
    0.4022    1.5452    4.1828 H   0  0  0  0  0  0  0  0  0  0  0  0
   -1.2983    1.2366    4.6035 H   0  0  0  0  0  0  0  0  0  0  0  0
   -0.1204   -0.0980    4.5907 H   0  0  0  0  0  0  0  0  0  0  0  0
  5  6  2  0  0  0  0
  5  7  1  0  0  0  0
  2  3  1  0  0  0  0
  2  4  1  0  0  0  0
  2  5  1  0  0  0  0
  1  2  1  0  0  0  0
 21 22  2  0  0  0  0
 21 23  1  0  0  0  0
 19 20  1  0  0  0  0
 17 18  2  0  0  0  0
 17 19  1  0  0  0  0
 14 15  1  0  0  0  0
 14 16  1  0  0  0  0
 14 17  1  0  0  0  0
 11 12  1  0  0  0  0
 11 13  1  0  0  0  0
 11 14  1  0  0  0  0
  9 10  1  0  0  0  0
  9 11  1  0  0  0  0
  9 21  1  0  0  0  0
  7  8  1  0  0  0  0
  7  9  1  0  0  0  0
 25 26  1  0  0  0  0
 25 27  1  0  0  0  0
 25 28  1  0  0  0  0
 23 24  1  0  0  0  0
 23 25  1  0  0  0  0
M  END
$$$$
default_name
  -OEChem-02102213163D

 28 27  0     1  0  0  0  0  0999 V2000
   -3.2133   -3.5565    1.2809 H   0  0  0  0  0  0  0  0  0  0  0  0
   -3.1873   -2.5755    0.8089 C   0  0  0  0  0  0  0  0  0  0  0  0
   -3.8793   -1.9065    1.3169 H   0  0  0  0  0  0  0  0  0  0  0  0
   -3.4623   -2.6685   -0.2401 H   0  0  0  0  0  0  0  0  0  0  0  0
   -1.7863   -2.0195    0.9119 C   0  0  0  0  0  0  0  0  0  0  0  0
   -0.9073   -2.6615    1.4699 O   0  0  0  0  0  0  0  0  0  0  0  0
   -1.5803   -0.8195    0.3749 N   0  0  0  0  0  0  0  0  0  0  0  0
   -2.3603   -0.3345   -0.0451 H   0  0  0  0  0  0  0  0  0  0  0  0
   -0.2933   -0.1205    0.3719 C   0  0  1  0  0  0  0  0  0  0  0  0
    0.4439   -0.7485   -0.1303 H   0  0  0  0  0  0  0  0  0  0  0  0
   -0.4368    1.1924   -0.4246 C   0  0  0  0  0  0  0  0  0  0  0  0
   -0.4509    2.0205    0.2862 H   0  0  0  0  0  0  0  0  0  0  0  0
    0.4318    1.3167   -1.0730 H   0  0  0  0  0  0  0  0  0  0  0  0
   -1.7067    1.2608   -1.2904 C   0  0  0  0  0  0  0  0  0  0  0  0
   -1.4587    1.6328   -2.2846 H   0  0  0  0  0  0  0  0  0  0  0  0
   -2.1333    0.2624   -1.3794 H   0  0  0  0  0  0  0  0  0  0  0  0
   -2.7676    2.1771   -0.6893 C   0  0  0  0  0  0  0  0  0  0  0  0
   -2.6992    2.7001    0.4115 O   0  0  0  0  0  0  0  0  0  0  0  0
   -3.8517    2.3912   -1.4578 O   0  0  0  0  0  0  0  0  0  0  0  0
   -4.4173    2.9665   -0.9397 H   0  0  0  0  0  0  0  0  0  0  0  0
    0.1871    0.1189    1.8122 C   0  0  0  0  0  0  0  0  0  0  0  0
    1.3541   -0.1171    2.1187 O   0  0  0  0  0  0  0  0  0  0  0  0
   -0.7126    0.5740    2.6926 N   0  0  0  0  0  0  0  0  0  0  0  0
   -1.6464    0.7663    2.3621 H   0  0  0  0  0  0  0  0  0  0  0  0
   -0.4191    0.8310    4.1010 C   0  0  0  0  0  0  0  0  0  0  0  0
    0.4022    1.5452    4.1828 H   0  0  0  0  0  0  0  0  0  0  0  0
   -1.2983    1.2366    4.6035 H   0  0  0  0  0  0  0  0  0  0  0  0
   -0.1204   -0.0980    4.5907 H   0  0  0  0  0  0  0  0  0  0  0  0
  5  6  2  0  0  0  0
  5  7  1  0  0  0  0
  2  3  1  0  0  0  0
  2  4  1  0  0  0  0
  2  5  1  0  0  0  0
  1  2  1  0  0  0  0
 21 22  2  0  0  0  0
 21 23  1  0  0  0  0
 19 20  1  0  0  0  0
 17 18  2  0  0  0  0
 17 19  1  0  0  0  0
 14 15  1  0  0  0  0
 14 16  1  0  0  0  0
 14 17  1  0  0  0  0
 11 12  1  0  0  0  0
 11 13  1  0  0  0  0
 11 14  1  0  0  0  0
  9 10  1  0  0  0  0
  9 11  1  0  0  0  0
  9 21  1  0  0  0  0
  7  8  1  0  0  0  0
  7  9  1  0  0  0  0
 25 26  1  0  0  0  0
 25 27  1  0  0  0  0
 25 28  1  0  0  0  0
 23 24  1  0  0  0  0
 23 25  1  0  0  0  0
M  END
$$$$
default_name
  -OEChem-02102213163D

 28 27  0     1  0  0  0  0  0999 V2000
   -3.2133   -3.5565    1.2809 H   0  0  0  0  0  0  0  0  0  0  0  0
   -3.1873   -2.5755    0.8089 C   0  0  0  0  0  0  0  0  0  0  0  0
   -3.8793   -1.9065    1.3169 H   0  0  0  0  0  0  0  0  0  0  0  0
   -3.4623   -2.6685   -0.2401 H   0  0  0  0  0  0  0  0  0  0  0  0
   -1.7863   -2.0195    0.9119 C   0  0  0  0  0  0  0  0  0  0  0  0
   -0.9073   -2.6615    1.4699 O   0  0  0  0  0  0  0  0  0  0  0  0
   -1.5803   -0.8195    0.3749 N   0  0  0  0  0  0  0  0  0  0  0  0
   -2.3603   -0.3345   -0.0451 H   0  0  0  0  0  0  0  0  0  0  0  0
   -0.2933   -0.1205    0.3719 C   0  0  1  0  0  0  0  0  0  0  0  0
    0.4439   -0.7485   -0.1303 H   0  0  0  0  0  0  0  0  0  0  0  0
   -0.4368    1.1924   -0.4246 C   0  0  0  0  0  0  0  0  0  0  0  0
   -0.4509    2.0205    0.2862 H   0  0  0  0  0  0  0  0  0  0  0  0
    0.4318    1.3167   -1.0730 H   0  0  0  0  0  0  0  0  0  0  0  0
   -1.7067    1.2608   -1.2904 C   0  0  0  0  0  0  0  0  0  0  0  0
   -1.4349    1.3722   -2.3401 H   0  0  0  0  0  0  0  0  0  0  0  0
   -2.2752    0.3400   -1.1650 H   0  0  0  0  0  0  0  0  0  0  0  0
   -2.6074    2.4297   -0.9044 C   0  0  0  0  0  0  0  0  0  0  0  0
   -2.4341    3.1590    0.0588 O   0  0  0  0  0  0  0  0  0  0  0  0
   -3.6697    2.6323   -1.7057 O   0  0  0  0  0  0  0  0  0  0  0  0
   -4.1320    3.3813   -1.3254 H   0  0  0  0  0  0  0  0  0  0  0  0
    0.1871    0.1189    1.8122 C   0  0  0  0  0  0  0  0  0  0  0  0
    1.3541   -0.1171    2.1187 O   0  0  0  0  0  0  0  0  0  0  0  0
   -0.7126    0.5740    2.6926 N   0  0  0  0  0  0  0  0  0  0  0  0
   -1.6464    0.7663    2.3621 H   0  0  0  0  0  0  0  0  0  0  0  0
   -0.4191    0.8310    4.1010 C   0  0  0  0  0  0  0  0  0  0  0  0
    0.4022    1.5452    4.1828 H   0  0  0  0  0  0  0  0  0  0  0  0
   -1.2983    1.2366    4.6035 H   0  0  0  0  0  0  0  0  0  0  0  0
   -0.1204   -0.0980    4.5907 H   0  0  0  0  0  0  0  0  0  0  0  0
  5  6  2  0  0  0  0
  5  7  1  0  0  0  0
  2  3  1  0  0  0  0
  2  4  1  0  0  0  0
  2  5  1  0  0  0  0
  1  2  1  0  0  0  0
 21 22  2  0  0  0  0
 21 23  1  0  0  0  0
 19 20  1  0  0  0  0
 17 18  2  0  0  0  0
 17 19  1  0  0  0  0
 14 15  1  0  0  0  0
 14 16  1  0  0  0  0
 14 17  1  0  0  0  0
 11 12  1  0  0  0  0
 11 13  1  0  0  0  0
 11 14  1  0  0  0  0
  9 10  1  0  0  0  0
  9 11  1  0  0  0  0
  9 21  1  0  0  0  0
  7  8  1  0  0  0  0
  7  9  1  0  0  0  0
 25 26  1  0  0  0  0
 25 27  1  0  0  0  0
 25 28  1  0  0  0  0
 23 24  1  0  0  0  0
 23 25  1  0  0  0  0
M  END
$$$$
default_name
  -OEChem-02102213163D

 28 27  0     1  0  0  0  0  0999 V2000
   -3.2133   -3.5565    1.2809 H   0  0  0  0  0  0  0  0  0  0  0  0
   -3.1873   -2.5755    0.8089 C   0  0  0  0  0  0  0  0  0  0  0  0
   -3.8793   -1.9065    1.3169 H   0  0  0  0  0  0  0  0  0  0  0  0
   -3.4623   -2.6685   -0.2401 H   0  0  0  0  0  0  0  0  0  0  0  0
   -1.7863   -2.0195    0.9119 C   0  0  0  0  0  0  0  0  0  0  0  0
   -0.9073   -2.6615    1.4699 O   0  0  0  0  0  0  0  0  0  0  0  0
   -1.5803   -0.8195    0.3749 N   0  0  0  0  0  0  0  0  0  0  0  0
   -2.3603   -0.3345   -0.0451 H   0  0  0  0  0  0  0  0  0  0  0  0
   -0.2933   -0.1205    0.3719 C   0  0  1  0  0  0  0  0  0  0  0  0
    0.4439   -0.7485   -0.1303 H   0  0  0  0  0  0  0  0  0  0  0  0
   -0.4368    1.1924   -0.4246 C   0  0  0  0  0  0  0  0  0  0  0  0
   -0.4509    2.0205    0.2862 H   0  0  0  0  0  0  0  0  0  0  0  0
    0.4318    1.3167   -1.0730 H   0  0  0  0  0  0  0  0  0  0  0  0
   -1.7067    1.2608   -1.2904 C   0  0  0  0  0  0  0  0  0  0  0  0
   -1.4504    1.1051   -2.3384 H   0  0  0  0  0  0  0  0  0  0  0  0
   -2.3986    0.4815   -0.9729 H   0  0  0  0  0  0  0  0  0  0  0  0
   -2.4183    2.6044   -1.1680 C   0  0  0  0  0  0  0  0  0  0  0  0
   -2.1153    3.4884   -0.3829 O   0  0  0  0  0  0  0  0  0  0  0  0
   -3.4617    2.7856   -1.9987 O   0  0  0  0  0  0  0  0  0  0  0  0
   -3.8005    3.6579   -1.7899 H   0  0  0  0  0  0  0  0  0  0  0  0
    0.1871    0.1189    1.8122 C   0  0  0  0  0  0  0  0  0  0  0  0
    1.3541   -0.1171    2.1187 O   0  0  0  0  0  0  0  0  0  0  0  0
   -0.7126    0.5740    2.6926 N   0  0  0  0  0  0  0  0  0  0  0  0
   -1.6464    0.7663    2.3621 H   0  0  0  0  0  0  0  0  0  0  0  0
   -0.4191    0.8310    4.1010 C   0  0  0  0  0  0  0  0  0  0  0  0
    0.4022    1.5452    4.1828 H   0  0  0  0  0  0  0  0  0  0  0  0
   -1.2983    1.2366    4.6035 H   0  0  0  0  0  0  0  0  0  0  0  0
   -0.1204   -0.0980    4.5907 H   0  0  0  0  0  0  0  0  0  0  0  0
  5  6  2  0  0  0  0
  5  7  1  0  0  0  0
  2  3  1  0  0  0  0
  2  4  1  0  0  0  0
  2  5  1  0  0  0  0
  1  2  1  0  0  0  0
 21 22  2  0  0  0  0
 21 23  1  0  0  0  0
 19 20  1  0  0  0  0
 17 18  2  0  0  0  0
 17 19  1  0  0  0  0
 14 15  1  0  0  0  0
 14 16  1  0  0  0  0
 14 17  1  0  0  0  0
 11 12  1  0  0  0  0
 11 13  1  0  0  0  0
 11 14  1  0  0  0  0
  9 10  1  0  0  0  0
  9 11  1  0  0  0  0
  9 21  1  0  0  0  0
  7  8  1  0  0  0  0
  7  9  1  0  0  0  0
 25 26  1  0  0  0  0
 25 27  1  0  0  0  0
 25 28  1  0  0  0  0
 23 24  1  0  0  0  0
 23 25  1  0  0  0  0
M  END
$$$$
default_name
  -OEChem-02102213163D

 28 27  0     1  0  0  0  0  0999 V2000
   -3.2133   -3.5565    1.2809 H   0  0  0  0  0  0  0  0  0  0  0  0
   -3.1873   -2.5755    0.8089 C   0  0  0  0  0  0  0  0  0  0  0  0
   -3.8793   -1.9065    1.3169 H   0  0  0  0  0  0  0  0  0  0  0  0
   -3.4623   -2.6685   -0.2401 H   0  0  0  0  0  0  0  0  0  0  0  0
   -1.7863   -2.0195    0.9119 C   0  0  0  0  0  0  0  0  0  0  0  0
   -0.9073   -2.6615    1.4699 O   0  0  0  0  0  0  0  0  0  0  0  0
   -1.5803   -0.8195    0.3749 N   0  0  0  0  0  0  0  0  0  0  0  0
   -2.3603   -0.3345   -0.0451 H   0  0  0  0  0  0  0  0  0  0  0  0
   -0.2933   -0.1205    0.3719 C   0  0  1  0  0  0  0  0  0  0  0  0
    0.4439   -0.7485   -0.1303 H   0  0  0  0  0  0  0  0  0  0  0  0
   -0.4368    1.1924   -0.4246 C   0  0  0  0  0  0  0  0  0  0  0  0
   -0.4509    2.0205    0.2862 H   0  0  0  0  0  0  0  0  0  0  0  0
    0.4318    1.3167   -1.0730 H   0  0  0  0  0  0  0  0  0  0  0  0
   -1.7067    1.2608   -1.2904 C   0  0  0  0  0  0  0  0  0  0  0  0
   -1.5043    0.8497   -2.2795 H   0  0  0  0  0  0  0  0  0  0  0  0
   -2.4949    0.6772   -0.8162 H   0  0  0  0  0  0  0  0  0  0  0  0
   -2.2132    2.6892   -1.4622 C   0  0  0  0  0  0  0  0  0  0  0  0
   -1.7644    3.6658   -0.8836 O   0  0  0  0  0  0  0  0  0  0  0  0
   -3.2419    2.8408   -2.3169 O   0  0  0  0  0  0  0  0  0  0  0  0
   -3.4452    3.7777   -2.3016 H   0  0  0  0  0  0  0  0  0  0  0  0
    0.1871    0.1189    1.8122 C   0  0  0  0  0  0  0  0  0  0  0  0
    1.3541   -0.1171    2.1187 O   0  0  0  0  0  0  0  0  0  0  0  0
   -0.7126    0.5740    2.6926 N   0  0  0  0  0  0  0  0  0  0  0  0
   -1.6464    0.7663    2.3621 H   0  0  0  0  0  0  0  0  0  0  0  0
   -0.4191    0.8310    4.1010 C   0  0  0  0  0  0  0  0  0  0  0  0
    0.4022    1.5452    4.1828 H   0  0  0  0  0  0  0  0  0  0  0  0
   -1.2983    1.2366    4.6035 H   0  0  0  0  0  0  0  0  0  0  0  0
   -0.1204   -0.0980    4.5907 H   0  0  0  0  0  0  0  0  0  0  0  0
  5  6  2  0  0  0  0
  5  7  1  0  0  0  0
  2  3  1  0  0  0  0
  2  4  1  0  0  0  0
  2  5  1  0  0  0  0
  1  2  1  0  0  0  0
 21 22  2  0  0  0  0
 21 23  1  0  0  0  0
 19 20  1  0  0  0  0
 17 18  2  0  0  0  0
 17 19  1  0  0  0  0
 14 15  1  0  0  0  0
 14 16  1  0  0  0  0
 14 17  1  0  0  0  0
 11 12  1  0  0  0  0
 11 13  1  0  0  0  0
 11 14  1  0  0  0  0
  9 10  1  0  0  0  0
  9 11  1  0  0  0  0
  9 21  1  0  0  0  0
  7  8  1  0  0  0  0
  7  9  1  0  0  0  0
 25 26  1  0  0  0  0
 25 27  1  0  0  0  0
 25 28  1  0  0  0  0
 23 24  1  0  0  0  0
 23 25  1  0  0  0  0
M  END
$$$$
default_name
  -OEChem-02102213163D

 28 27  0     1  0  0  0  0  0999 V2000
   -3.2133   -3.5565    1.2809 H   0  0  0  0  0  0  0  0  0  0  0  0
   -3.1873   -2.5755    0.8089 C   0  0  0  0  0  0  0  0  0  0  0  0
   -3.8793   -1.9065    1.3169 H   0  0  0  0  0  0  0  0  0  0  0  0
   -3.4623   -2.6685   -0.2401 H   0  0  0  0  0  0  0  0  0  0  0  0
   -1.7863   -2.0195    0.9119 C   0  0  0  0  0  0  0  0  0  0  0  0
   -0.9073   -2.6615    1.4699 O   0  0  0  0  0  0  0  0  0  0  0  0
   -1.5803   -0.8195    0.3749 N   0  0  0  0  0  0  0  0  0  0  0  0
   -2.3603   -0.3345   -0.0451 H   0  0  0  0  0  0  0  0  0  0  0  0
   -0.2933   -0.1205    0.3719 C   0  0  1  0  0  0  0  0  0  0  0  0
    0.4439   -0.7485   -0.1303 H   0  0  0  0  0  0  0  0  0  0  0  0
   -0.4368    1.1924   -0.4246 C   0  0  0  0  0  0  0  0  0  0  0  0
   -0.4509    2.0205    0.2862 H   0  0  0  0  0  0  0  0  0  0  0  0
    0.4318    1.3167   -1.0730 H   0  0  0  0  0  0  0  0  0  0  0  0
   -1.7067    1.2608   -1.2904 C   0  0  0  0  0  0  0  0  0  0  0  0
   -1.5929    0.6235   -2.1674 H   0  0  0  0  0  0  0  0  0  0  0  0
   -2.5577    0.9137   -0.7054 H   0  0  0  0  0  0  0  0  0  0  0  0
   -2.0061    2.6785   -1.7668 C   0  0  0  0  0  0  0  0  0  0  0  0
   -1.4054    3.6790   -1.4092 O   0  0  0  0  0  0  0  0  0  0  0  0
   -3.0251    2.7942   -2.6385 O   0  0  0  0  0  0  0  0  0  0  0  0
   -3.0906    3.7323   -2.8254 H   0  0  0  0  0  0  0  0  0  0  0  0
    0.1871    0.1189    1.8122 C   0  0  0  0  0  0  0  0  0  0  0  0
    1.3541   -0.1171    2.1187 O   0  0  0  0  0  0  0  0  0  0  0  0
   -0.7126    0.5740    2.6926 N   0  0  0  0  0  0  0  0  0  0  0  0
   -1.6464    0.7663    2.3621 H   0  0  0  0  0  0  0  0  0  0  0  0
   -0.4191    0.8310    4.1010 C   0  0  0  0  0  0  0  0  0  0  0  0
    0.4022    1.5452    4.1828 H   0  0  0  0  0  0  0  0  0  0  0  0
   -1.2983    1.2366    4.6035 H   0  0  0  0  0  0  0  0  0  0  0  0
   -0.1204   -0.0980    4.5907 H   0  0  0  0  0  0  0  0  0  0  0  0
  5  6  2  0  0  0  0
  5  7  1  0  0  0  0
  2  3  1  0  0  0  0
  2  4  1  0  0  0  0
  2  5  1  0  0  0  0
  1  2  1  0  0  0  0
 21 22  2  0  0  0  0
 21 23  1  0  0  0  0
 19 20  1  0  0  0  0
 17 18  2  0  0  0  0
 17 19  1  0  0  0  0
 14 15  1  0  0  0  0
 14 16  1  0  0  0  0
 14 17  1  0  0  0  0
 11 12  1  0  0  0  0
 11 13  1  0  0  0  0
 11 14  1  0  0  0  0
  9 10  1  0  0  0  0
  9 11  1  0  0  0  0
  9 21  1  0  0  0  0
  7  8  1  0  0  0  0
  7  9  1  0  0  0  0
 25 26  1  0  0  0  0
 25 27  1  0  0  0  0
 25 28  1  0  0  0  0
 23 24  1  0  0  0  0
 23 25  1  0  0  0  0
M  END
$$$$
default_name
  -OEChem-02102213163D

 28 27  0     1  0  0  0  0  0999 V2000
   -3.2133   -3.5565    1.2809 H   0  0  0  0  0  0  0  0  0  0  0  0
   -3.1873   -2.5755    0.8089 C   0  0  0  0  0  0  0  0  0  0  0  0
   -3.8793   -1.9065    1.3169 H   0  0  0  0  0  0  0  0  0  0  0  0
   -3.4623   -2.6685   -0.2401 H   0  0  0  0  0  0  0  0  0  0  0  0
   -1.7863   -2.0195    0.9119 C   0  0  0  0  0  0  0  0  0  0  0  0
   -0.9073   -2.6615    1.4699 O   0  0  0  0  0  0  0  0  0  0  0  0
   -1.5803   -0.8195    0.3749 N   0  0  0  0  0  0  0  0  0  0  0  0
   -2.3603   -0.3345   -0.0451 H   0  0  0  0  0  0  0  0  0  0  0  0
   -0.2933   -0.1205    0.3719 C   0  0  1  0  0  0  0  0  0  0  0  0
    0.4439   -0.7485   -0.1303 H   0  0  0  0  0  0  0  0  0  0  0  0
   -0.4368    1.1924   -0.4246 C   0  0  0  0  0  0  0  0  0  0  0  0
   -0.1842    2.0211    0.2392 H   0  0  0  0  0  0  0  0  0  0  0  0
    0.2748    1.1912   -1.2516 H   0  0  0  0  0  0  0  0  0  0  0  0
   -1.8470    1.4255   -0.9937 C   0  0  0  0  0  0  0  0  0  0  0  0
   -2.1173    0.6081   -1.6624 H   0  0  0  0  0  0  0  0  0  0  0  0
   -2.5620    1.4657   -0.1728 H   0  0  0  0  0  0  0  0  0  0  0  0
   -1.9472    2.7325   -1.7735 C   0  0  0  0  0  0  0  0  0  0  0  0
   -1.0685    3.5771   -1.8407 O   0  0  0  0  0  0  0  0  0  0  0  0
   -3.1134    2.9381   -2.4132 O   0  0  0  0  0  0  0  0  0  0  0  0
   -3.0206    3.7935   -2.8362 H   0  0  0  0  0  0  0  0  0  0  0  0
    0.1871    0.1189    1.8122 C   0  0  0  0  0  0  0  0  0  0  0  0
    1.3541   -0.1171    2.1187 O   0  0  0  0  0  0  0  0  0  0  0  0
   -0.7126    0.5740    2.6926 N   0  0  0  0  0  0  0  0  0  0  0  0
   -1.6464    0.7663    2.3621 H   0  0  0  0  0  0  0  0  0  0  0  0
   -0.4191    0.8310    4.1010 C   0  0  0  0  0  0  0  0  0  0  0  0
    0.4022    1.5452    4.1828 H   0  0  0  0  0  0  0  0  0  0  0  0
   -1.2983    1.2366    4.6035 H   0  0  0  0  0  0  0  0  0  0  0  0
   -0.1204   -0.0980    4.5907 H   0  0  0  0  0  0  0  0  0  0  0  0
  5  6  2  0  0  0  0
  5  7  1  0  0  0  0
  2  3  1  0  0  0  0
  2  4  1  0  0  0  0
  2  5  1  0  0  0  0
  1  2  1  0  0  0  0
 21 22  2  0  0  0  0
 21 23  1  0  0  0  0
 19 20  1  0  0  0  0
 17 18  2  0  0  0  0
 17 19  1  0  0  0  0
 14 15  1  0  0  0  0
 14 16  1  0  0  0  0
 14 17  1  0  0  0  0
 11 12  1  0  0  0  0
 11 13  1  0  0  0  0
 11 14  1  0  0  0  0
  9 10  1  0  0  0  0
  9 11  1  0  0  0  0
  9 21  1  0  0  0  0
  7  8  1  0  0  0  0
  7  9  1  0  0  0  0
 25 26  1  0  0  0  0
 25 27  1  0  0  0  0
 25 28  1  0  0  0  0
 23 24  1  0  0  0  0
 23 25  1  0  0  0  0
M  END
$$$$
default_name
  -OEChem-02102213163D

 28 27  0     1  0  0  0  0  0999 V2000
   -3.2133   -3.5565    1.2809 H   0  0  0  0  0  0  0  0  0  0  0  0
   -3.1873   -2.5755    0.8089 C   0  0  0  0  0  0  0  0  0  0  0  0
   -3.8793   -1.9065    1.3169 H   0  0  0  0  0  0  0  0  0  0  0  0
   -3.4623   -2.6685   -0.2401 H   0  0  0  0  0  0  0  0  0  0  0  0
   -1.7863   -2.0195    0.9119 C   0  0  0  0  0  0  0  0  0  0  0  0
   -0.9073   -2.6615    1.4699 O   0  0  0  0  0  0  0  0  0  0  0  0
   -1.5803   -0.8195    0.3749 N   0  0  0  0  0  0  0  0  0  0  0  0
   -2.3603   -0.3345   -0.0451 H   0  0  0  0  0  0  0  0  0  0  0  0
   -0.2933   -0.1205    0.3719 C   0  0  1  0  0  0  0  0  0  0  0  0
    0.4439   -0.7485   -0.1303 H   0  0  0  0  0  0  0  0  0  0  0  0
   -0.4368    1.1924   -0.4246 C   0  0  0  0  0  0  0  0  0  0  0  0
   -0.1842    2.0211    0.2392 H   0  0  0  0  0  0  0  0  0  0  0  0
    0.2748    1.1912   -1.2516 H   0  0  0  0  0  0  0  0  0  0  0  0
   -1.8470    1.4255   -0.9937 C   0  0  0  0  0  0  0  0  0  0  0  0
   -2.2241    0.5051   -1.4398 H   0  0  0  0  0  0  0  0  0  0  0  0
   -2.5128    1.7294   -0.1868 H   0  0  0  0  0  0  0  0  0  0  0  0
   -1.8673    2.5155   -2.0604 C   0  0  0  0  0  0  0  0  0  0  0  0
   -0.9199    3.2279   -2.3519 O   0  0  0  0  0  0  0  0  0  0  0  0
   -3.0409    2.6809   -2.6982 O   0  0  0  0  0  0  0  0  0  0  0  0
   -2.8922    3.3990   -3.3159 H   0  0  0  0  0  0  0  0  0  0  0  0
    0.1871    0.1189    1.8122 C   0  0  0  0  0  0  0  0  0  0  0  0
    1.3541   -0.1171    2.1187 O   0  0  0  0  0  0  0  0  0  0  0  0
   -0.7126    0.5740    2.6926 N   0  0  0  0  0  0  0  0  0  0  0  0
   -1.6464    0.7663    2.3621 H   0  0  0  0  0  0  0  0  0  0  0  0
   -0.4191    0.8310    4.1010 C   0  0  0  0  0  0  0  0  0  0  0  0
    0.4022    1.5452    4.1828 H   0  0  0  0  0  0  0  0  0  0  0  0
   -1.2983    1.2366    4.6035 H   0  0  0  0  0  0  0  0  0  0  0  0
   -0.1204   -0.0980    4.5907 H   0  0  0  0  0  0  0  0  0  0  0  0
  5  6  2  0  0  0  0
  5  7  1  0  0  0  0
  2  3  1  0  0  0  0
  2  4  1  0  0  0  0
  2  5  1  0  0  0  0
  1  2  1  0  0  0  0
 21 22  2  0  0  0  0
 21 23  1  0  0  0  0
 19 20  1  0  0  0  0
 17 18  2  0  0  0  0
 17 19  1  0  0  0  0
 14 15  1  0  0  0  0
 14 16  1  0  0  0  0
 14 17  1  0  0  0  0
 11 12  1  0  0  0  0
 11 13  1  0  0  0  0
 11 14  1  0  0  0  0
  9 10  1  0  0  0  0
  9 11  1  0  0  0  0
  9 21  1  0  0  0  0
  7  8  1  0  0  0  0
  7  9  1  0  0  0  0
 25 26  1  0  0  0  0
 25 27  1  0  0  0  0
 25 28  1  0  0  0  0
 23 24  1  0  0  0  0
 23 25  1  0  0  0  0
M  END
$$$$
default_name
  -OEChem-02102213163D

 28 27  0     1  0  0  0  0  0999 V2000
   -3.2133   -3.5565    1.2809 H   0  0  0  0  0  0  0  0  0  0  0  0
   -3.1873   -2.5755    0.8089 C   0  0  0  0  0  0  0  0  0  0  0  0
   -3.8793   -1.9065    1.3169 H   0  0  0  0  0  0  0  0  0  0  0  0
   -3.4623   -2.6685   -0.2401 H   0  0  0  0  0  0  0  0  0  0  0  0
   -1.7863   -2.0195    0.9119 C   0  0  0  0  0  0  0  0  0  0  0  0
   -0.9073   -2.6615    1.4699 O   0  0  0  0  0  0  0  0  0  0  0  0
   -1.5803   -0.8195    0.3749 N   0  0  0  0  0  0  0  0  0  0  0  0
   -2.3603   -0.3345   -0.0451 H   0  0  0  0  0  0  0  0  0  0  0  0
   -0.2933   -0.1205    0.3719 C   0  0  1  0  0  0  0  0  0  0  0  0
    0.4439   -0.7485   -0.1303 H   0  0  0  0  0  0  0  0  0  0  0  0
   -0.4368    1.1924   -0.4246 C   0  0  0  0  0  0  0  0  0  0  0  0
   -0.1842    2.0211    0.2392 H   0  0  0  0  0  0  0  0  0  0  0  0
    0.2748    1.1912   -1.2516 H   0  0  0  0  0  0  0  0  0  0  0  0
   -1.8470    1.4255   -0.9937 C   0  0  0  0  0  0  0  0  0  0  0  0
   -2.3285    0.4686   -1.1961 H   0  0  0  0  0  0  0  0  0  0  0  0
   -2.4406    1.9761   -0.2648 H   0  0  0  0  0  0  0  0  0  0  0  0
   -1.8221    2.2302   -2.2892 C   0  0  0  0  0  0  0  0  0  0  0  0
   -0.8299    2.7551   -2.7686 O   0  0  0  0  0  0  0  0  0  0  0  0
   -3.0067    2.3579   -2.9153 O   0  0  0  0  0  0  0  0  0  0  0  0
   -2.8247    2.8918   -3.6907 H   0  0  0  0  0  0  0  0  0  0  0  0
    0.1871    0.1189    1.8122 C   0  0  0  0  0  0  0  0  0  0  0  0
    1.3541   -0.1171    2.1187 O   0  0  0  0  0  0  0  0  0  0  0  0
   -0.7126    0.5740    2.6926 N   0  0  0  0  0  0  0  0  0  0  0  0
   -1.6464    0.7663    2.3621 H   0  0  0  0  0  0  0  0  0  0  0  0
   -0.4191    0.8310    4.1010 C   0  0  0  0  0  0  0  0  0  0  0  0
    0.4022    1.5452    4.1828 H   0  0  0  0  0  0  0  0  0  0  0  0
   -1.2983    1.2366    4.6035 H   0  0  0  0  0  0  0  0  0  0  0  0
   -0.1204   -0.0980    4.5907 H   0  0  0  0  0  0  0  0  0  0  0  0
  5  6  2  0  0  0  0
  5  7  1  0  0  0  0
  2  3  1  0  0  0  0
  2  4  1  0  0  0  0
  2  5  1  0  0  0  0
  1  2  1  0  0  0  0
 21 22  2  0  0  0  0
 21 23  1  0  0  0  0
 19 20  1  0  0  0  0
 17 18  2  0  0  0  0
 17 19  1  0  0  0  0
 14 15  1  0  0  0  0
 14 16  1  0  0  0  0
 14 17  1  0  0  0  0
 11 12  1  0  0  0  0
 11 13  1  0  0  0  0
 11 14  1  0  0  0  0
  9 10  1  0  0  0  0
  9 11  1  0  0  0  0
  9 21  1  0  0  0  0
  7  8  1  0  0  0  0
  7  9  1  0  0  0  0
 25 26  1  0  0  0  0
 25 27  1  0  0  0  0
 25 28  1  0  0  0  0
 23 24  1  0  0  0  0
 23 25  1  0  0  0  0
M  END
$$$$
default_name
  -OEChem-02102213163D

 28 27  0     1  0  0  0  0  0999 V2000
   -3.2133   -3.5565    1.2809 H   0  0  0  0  0  0  0  0  0  0  0  0
   -3.1873   -2.5755    0.8089 C   0  0  0  0  0  0  0  0  0  0  0  0
   -3.8793   -1.9065    1.3169 H   0  0  0  0  0  0  0  0  0  0  0  0
   -3.4623   -2.6685   -0.2401 H   0  0  0  0  0  0  0  0  0  0  0  0
   -1.7863   -2.0195    0.9119 C   0  0  0  0  0  0  0  0  0  0  0  0
   -0.9073   -2.6615    1.4699 O   0  0  0  0  0  0  0  0  0  0  0  0
   -1.5803   -0.8195    0.3749 N   0  0  0  0  0  0  0  0  0  0  0  0
   -2.3603   -0.3345   -0.0451 H   0  0  0  0  0  0  0  0  0  0  0  0
   -0.2933   -0.1205    0.3719 C   0  0  1  0  0  0  0  0  0  0  0  0
    0.4439   -0.7485   -0.1303 H   0  0  0  0  0  0  0  0  0  0  0  0
   -0.4368    1.1924   -0.4246 C   0  0  0  0  0  0  0  0  0  0  0  0
   -0.1842    2.0211    0.2392 H   0  0  0  0  0  0  0  0  0  0  0  0
    0.2748    1.1912   -1.2516 H   0  0  0  0  0  0  0  0  0  0  0  0
   -1.8470    1.4255   -0.9937 C   0  0  0  0  0  0  0  0  0  0  0  0
   -2.4232    0.5012   -0.9480 H   0  0  0  0  0  0  0  0  0  0  0  0
   -2.3502    2.1889   -0.4015 H   0  0  0  0  0  0  0  0  0  0  0  0
   -1.8147    1.8961   -2.4442 C   0  0  0  0  0  0  0  0  0  0  0  0
   -0.8045    2.1910   -3.0625 O   0  0  0  0  0  0  0  0  0  0  0  0
   -3.0130    1.9912   -3.0497 O   0  0  0  0  0  0  0  0  0  0  0  0
   -2.8229    2.3065   -3.9350 H   0  0  0  0  0  0  0  0  0  0  0  0
    0.1871    0.1189    1.8122 C   0  0  0  0  0  0  0  0  0  0  0  0
    1.3541   -0.1171    2.1187 O   0  0  0  0  0  0  0  0  0  0  0  0
   -0.7126    0.5740    2.6926 N   0  0  0  0  0  0  0  0  0  0  0  0
   -1.6464    0.7663    2.3621 H   0  0  0  0  0  0  0  0  0  0  0  0
   -0.4191    0.8310    4.1010 C   0  0  0  0  0  0  0  0  0  0  0  0
    0.4022    1.5452    4.1828 H   0  0  0  0  0  0  0  0  0  0  0  0
   -1.2983    1.2366    4.6035 H   0  0  0  0  0  0  0  0  0  0  0  0
   -0.1204   -0.0980    4.5907 H   0  0  0  0  0  0  0  0  0  0  0  0
  5  6  2  0  0  0  0
  5  7  1  0  0  0  0
  2  3  1  0  0  0  0
  2  4  1  0  0  0  0
  2  5  1  0  0  0  0
  1  2  1  0  0  0  0
 21 22  2  0  0  0  0
 21 23  1  0  0  0  0
 19 20  1  0  0  0  0
 17 18  2  0  0  0  0
 17 19  1  0  0  0  0
 14 15  1  0  0  0  0
 14 16  1  0  0  0  0
 14 17  1  0  0  0  0
 11 12  1  0  0  0  0
 11 13  1  0  0  0  0
 11 14  1  0  0  0  0
  9 10  1  0  0  0  0
  9 11  1  0  0  0  0
  9 21  1  0  0  0  0
  7  8  1  0  0  0  0
  7  9  1  0  0  0  0
 25 26  1  0  0  0  0
 25 27  1  0  0  0  0
 25 28  1  0  0  0  0
 23 24  1  0  0  0  0
 23 25  1  0  0  0  0
M  END
$$$$
default_name
  -OEChem-02102213163D

 28 27  0     1  0  0  0  0  0999 V2000
   -3.2133   -3.5565    1.2809 H   0  0  0  0  0  0  0  0  0  0  0  0
   -3.1873   -2.5755    0.8089 C   0  0  0  0  0  0  0  0  0  0  0  0
   -3.8793   -1.9065    1.3169 H   0  0  0  0  0  0  0  0  0  0  0  0
   -3.4623   -2.6685   -0.2401 H   0  0  0  0  0  0  0  0  0  0  0  0
   -1.7863   -2.0195    0.9119 C   0  0  0  0  0  0  0  0  0  0  0  0
   -0.9073   -2.6615    1.4699 O   0  0  0  0  0  0  0  0  0  0  0  0
   -1.5803   -0.8195    0.3749 N   0  0  0  0  0  0  0  0  0  0  0  0
   -2.3603   -0.3345   -0.0451 H   0  0  0  0  0  0  0  0  0  0  0  0
   -0.2933   -0.1205    0.3719 C   0  0  1  0  0  0  0  0  0  0  0  0
    0.4439   -0.7485   -0.1303 H   0  0  0  0  0  0  0  0  0  0  0  0
   -0.4368    1.1924   -0.4246 C   0  0  0  0  0  0  0  0  0  0  0  0
   -0.1842    2.0211    0.2392 H   0  0  0  0  0  0  0  0  0  0  0  0
    0.2748    1.1912   -1.2516 H   0  0  0  0  0  0  0  0  0  0  0  0
   -1.8470    1.4255   -0.9937 C   0  0  0  0  0  0  0  0  0  0  0  0
   -2.5018    0.6006   -0.7124 H   0  0  0  0  0  0  0  0  0  0  0  0
   -2.2480    2.3534   -0.5876 H   0  0  0  0  0  0  0  0  0  0  0  0
   -1.8457    1.5358   -2.5150 C   0  0  0  0  0  0  0  0  0  0  0  0
   -0.8455    1.5739   -3.2136 O   0  0  0  0  0  0  0  0  0  0  0  0
   -3.0596    1.6056   -3.0923 O   0  0  0  0  0  0  0  0  0  0  0  0
   -2.8866    1.6830   -4.0322 H   0  0  0  0  0  0  0  0  0  0  0  0
    0.1871    0.1189    1.8122 C   0  0  0  0  0  0  0  0  0  0  0  0
    1.3541   -0.1171    2.1187 O   0  0  0  0  0  0  0  0  0  0  0  0
   -0.7126    0.5740    2.6926 N   0  0  0  0  0  0  0  0  0  0  0  0
   -1.6464    0.7663    2.3621 H   0  0  0  0  0  0  0  0  0  0  0  0
   -0.4191    0.8310    4.1010 C   0  0  0  0  0  0  0  0  0  0  0  0
    0.4022    1.5452    4.1828 H   0  0  0  0  0  0  0  0  0  0  0  0
   -1.2983    1.2366    4.6035 H   0  0  0  0  0  0  0  0  0  0  0  0
   -0.1204   -0.0980    4.5907 H   0  0  0  0  0  0  0  0  0  0  0  0
  5  6  2  0  0  0  0
  5  7  1  0  0  0  0
  2  3  1  0  0  0  0
  2  4  1  0  0  0  0
  2  5  1  0  0  0  0
  1  2  1  0  0  0  0
 21 22  2  0  0  0  0
 21 23  1  0  0  0  0
 19 20  1  0  0  0  0
 17 18  2  0  0  0  0
 17 19  1  0  0  0  0
 14 15  1  0  0  0  0
 14 16  1  0  0  0  0
 14 17  1  0  0  0  0
 11 12  1  0  0  0  0
 11 13  1  0  0  0  0
 11 14  1  0  0  0  0
  9 10  1  0  0  0  0
  9 11  1  0  0  0  0
  9 21  1  0  0  0  0
  7  8  1  0  0  0  0
  7  9  1  0  0  0  0
 25 26  1  0  0  0  0
 25 27  1  0  0  0  0
 25 28  1  0  0  0  0
 23 24  1  0  0  0  0
 23 25  1  0  0  0  0
M  END
$$$$
default_name
  -OEChem-02102213163D

 28 27  0     1  0  0  0  0  0999 V2000
   -3.2133   -3.5565    1.2809 H   0  0  0  0  0  0  0  0  0  0  0  0
   -3.1873   -2.5755    0.8089 C   0  0  0  0  0  0  0  0  0  0  0  0
   -3.8793   -1.9065    1.3169 H   0  0  0  0  0  0  0  0  0  0  0  0
   -3.4623   -2.6685   -0.2401 H   0  0  0  0  0  0  0  0  0  0  0  0
   -1.7863   -2.0195    0.9119 C   0  0  0  0  0  0  0  0  0  0  0  0
   -0.9073   -2.6615    1.4699 O   0  0  0  0  0  0  0  0  0  0  0  0
   -1.5803   -0.8195    0.3749 N   0  0  0  0  0  0  0  0  0  0  0  0
   -2.3603   -0.3345   -0.0451 H   0  0  0  0  0  0  0  0  0  0  0  0
   -0.2933   -0.1205    0.3719 C   0  0  1  0  0  0  0  0  0  0  0  0
    0.4439   -0.7485   -0.1303 H   0  0  0  0  0  0  0  0  0  0  0  0
   -0.4368    1.1924   -0.4246 C   0  0  0  0  0  0  0  0  0  0  0  0
   -0.1842    2.0211    0.2392 H   0  0  0  0  0  0  0  0  0  0  0  0
    0.2748    1.1912   -1.2516 H   0  0  0  0  0  0  0  0  0  0  0  0
   -1.8470    1.4255   -0.9937 C   0  0  0  0  0  0  0  0  0  0  0  0
   -2.5591    0.7601   -0.5053 H   0  0  0  0  0  0  0  0  0  0  0  0
   -2.1407    2.4584   -0.8104 H   0  0  0  0  0  0  0  0  0  0  0  0
   -1.9129    1.1740   -2.4967 C   0  0  0  0  0  0  0  0  0  0  0  0
   -0.9501    0.9459   -3.2114 O   0  0  0  0  0  0  0  0  0  0  0  0
   -3.1431    1.2275   -3.0402 O   0  0  0  0  0  0  0  0  0  0  0  0
   -3.0118    1.0638   -3.9757 H   0  0  0  0  0  0  0  0  0  0  0  0
    0.1871    0.1189    1.8122 C   0  0  0  0  0  0  0  0  0  0  0  0
    1.3541   -0.1171    2.1187 O   0  0  0  0  0  0  0  0  0  0  0  0
   -0.7126    0.5740    2.6926 N   0  0  0  0  0  0  0  0  0  0  0  0
   -1.6464    0.7663    2.3621 H   0  0  0  0  0  0  0  0  0  0  0  0
   -0.4191    0.8310    4.1010 C   0  0  0  0  0  0  0  0  0  0  0  0
    0.4022    1.5452    4.1828 H   0  0  0  0  0  0  0  0  0  0  0  0
   -1.2983    1.2366    4.6035 H   0  0  0  0  0  0  0  0  0  0  0  0
   -0.1204   -0.0980    4.5907 H   0  0  0  0  0  0  0  0  0  0  0  0
  5  6  2  0  0  0  0
  5  7  1  0  0  0  0
  2  3  1  0  0  0  0
  2  4  1  0  0  0  0
  2  5  1  0  0  0  0
  1  2  1  0  0  0  0
 21 22  2  0  0  0  0
 21 23  1  0  0  0  0
 19 20  1  0  0  0  0
 17 18  2  0  0  0  0
 17 19  1  0  0  0  0
 14 15  1  0  0  0  0
 14 16  1  0  0  0  0
 14 17  1  0  0  0  0
 11 12  1  0  0  0  0
 11 13  1  0  0  0  0
 11 14  1  0  0  0  0
  9 10  1  0  0  0  0
  9 11  1  0  0  0  0
  9 21  1  0  0  0  0
  7  8  1  0  0  0  0
  7  9  1  0  0  0  0
 25 26  1  0  0  0  0
 25 27  1  0  0  0  0
 25 28  1  0  0  0  0
 23 24  1  0  0  0  0
 23 25  1  0  0  0  0
M  END
$$$$
default_name
  -OEChem-02102213163D

 28 27  0     1  0  0  0  0  0999 V2000
   -3.2133   -3.5565    1.2809 H   0  0  0  0  0  0  0  0  0  0  0  0
   -3.1873   -2.5755    0.8089 C   0  0  0  0  0  0  0  0  0  0  0  0
   -3.8793   -1.9065    1.3169 H   0  0  0  0  0  0  0  0  0  0  0  0
   -3.4623   -2.6685   -0.2401 H   0  0  0  0  0  0  0  0  0  0  0  0
   -1.7863   -2.0195    0.9119 C   0  0  0  0  0  0  0  0  0  0  0  0
   -0.9073   -2.6615    1.4699 O   0  0  0  0  0  0  0  0  0  0  0  0
   -1.5803   -0.8195    0.3749 N   0  0  0  0  0  0  0  0  0  0  0  0
   -2.3603   -0.3345   -0.0451 H   0  0  0  0  0  0  0  0  0  0  0  0
   -0.2933   -0.1205    0.3719 C   0  0  1  0  0  0  0  0  0  0  0  0
    0.4439   -0.7485   -0.1303 H   0  0  0  0  0  0  0  0  0  0  0  0
   -0.4368    1.1924   -0.4246 C   0  0  0  0  0  0  0  0  0  0  0  0
   -0.1842    2.0211    0.2392 H   0  0  0  0  0  0  0  0  0  0  0  0
    0.2748    1.1912   -1.2516 H   0  0  0  0  0  0  0  0  0  0  0  0
   -1.8470    1.4255   -0.9937 C   0  0  0  0  0  0  0  0  0  0  0  0
   -2.5910    0.9687   -0.3409 H   0  0  0  0  0  0  0  0  0  0  0  0
   -2.0358    2.4966   -1.0547 H   0  0  0  0  0  0  0  0  0  0  0  0
   -2.0117    0.8352   -2.3905 C   0  0  0  0  0  0  0  0  0  0  0  0
   -1.1112    0.3498   -3.0563 O   0  0  0  0  0  0  0  0  0  0  0  0
   -3.2579    0.8827   -2.8968 O   0  0  0  0  0  0  0  0  0  0  0  0
   -3.1897    0.4910   -3.7693 H   0  0  0  0  0  0  0  0  0  0  0  0
    0.1871    0.1189    1.8122 C   0  0  0  0  0  0  0  0  0  0  0  0
    1.3541   -0.1171    2.1187 O   0  0  0  0  0  0  0  0  0  0  0  0
   -0.7126    0.5740    2.6926 N   0  0  0  0  0  0  0  0  0  0  0  0
   -1.6464    0.7663    2.3621 H   0  0  0  0  0  0  0  0  0  0  0  0
   -0.4191    0.8310    4.1010 C   0  0  0  0  0  0  0  0  0  0  0  0
    0.4022    1.5452    4.1828 H   0  0  0  0  0  0  0  0  0  0  0  0
   -1.2983    1.2366    4.6035 H   0  0  0  0  0  0  0  0  0  0  0  0
   -0.1204   -0.0980    4.5907 H   0  0  0  0  0  0  0  0  0  0  0  0
  5  6  2  0  0  0  0
  5  7  1  0  0  0  0
  2  3  1  0  0  0  0
  2  4  1  0  0  0  0
  2  5  1  0  0  0  0
  1  2  1  0  0  0  0
 21 22  2  0  0  0  0
 21 23  1  0  0  0  0
 19 20  1  0  0  0  0
 17 18  2  0  0  0  0
 17 19  1  0  0  0  0
 14 15  1  0  0  0  0
 14 16  1  0  0  0  0
 14 17  1  0  0  0  0
 11 12  1  0  0  0  0
 11 13  1  0  0  0  0
 11 14  1  0  0  0  0
  9 10  1  0  0  0  0
  9 11  1  0  0  0  0
  9 21  1  0  0  0  0
  7  8  1  0  0  0  0
  7  9  1  0  0  0  0
 25 26  1  0  0  0  0
 25 27  1  0  0  0  0
 25 28  1  0  0  0  0
 23 24  1  0  0  0  0
 23 25  1  0  0  0  0
M  END
$$$$
default_name
  -OEChem-02102213163D

 28 27  0     1  0  0  0  0  0999 V2000
   -3.2133   -3.5565    1.2809 H   0  0  0  0  0  0  0  0  0  0  0  0
   -3.1873   -2.5755    0.8089 C   0  0  0  0  0  0  0  0  0  0  0  0
   -3.8793   -1.9065    1.3169 H   0  0  0  0  0  0  0  0  0  0  0  0
   -3.4623   -2.6685   -0.2401 H   0  0  0  0  0  0  0  0  0  0  0  0
   -1.7863   -2.0195    0.9119 C   0  0  0  0  0  0  0  0  0  0  0  0
   -0.9073   -2.6615    1.4699 O   0  0  0  0  0  0  0  0  0  0  0  0
   -1.5803   -0.8195    0.3749 N   0  0  0  0  0  0  0  0  0  0  0  0
   -2.3603   -0.3345   -0.0451 H   0  0  0  0  0  0  0  0  0  0  0  0
   -0.2933   -0.1205    0.3719 C   0  0  1  0  0  0  0  0  0  0  0  0
    0.4439   -0.7485   -0.1303 H   0  0  0  0  0  0  0  0  0  0  0  0
   -0.4368    1.1924   -0.4246 C   0  0  0  0  0  0  0  0  0  0  0  0
   -0.1842    2.0211    0.2392 H   0  0  0  0  0  0  0  0  0  0  0  0
    0.2748    1.1912   -1.2516 H   0  0  0  0  0  0  0  0  0  0  0  0
   -1.8470    1.4255   -0.9937 C   0  0  0  0  0  0  0  0  0  0  0  0
   -2.5953    1.2123   -0.2303 H   0  0  0  0  0  0  0  0  0  0  0  0
   -1.9404    2.4655   -1.3039 H   0  0  0  0  0  0  0  0  0  0  0  0
   -2.1354    0.5427   -2.2037 C   0  0  0  0  0  0  0  0  0  0  0  0
   -1.3177   -0.1737   -2.7588 O   0  0  0  0  0  0  0  0  0  0  0  0
   -3.3962    0.5947   -2.6720 O   0  0  0  0  0  0  0  0  0  0  0  0
   -3.4083    0.0038   -3.4271 H   0  0  0  0  0  0  0  0  0  0  0  0
    0.1871    0.1189    1.8122 C   0  0  0  0  0  0  0  0  0  0  0  0
    1.3541   -0.1171    2.1187 O   0  0  0  0  0  0  0  0  0  0  0  0
   -0.7126    0.5740    2.6926 N   0  0  0  0  0  0  0  0  0  0  0  0
   -1.6464    0.7663    2.3621 H   0  0  0  0  0  0  0  0  0  0  0  0
   -0.4191    0.8310    4.1010 C   0  0  0  0  0  0  0  0  0  0  0  0
    0.4022    1.5452    4.1828 H   0  0  0  0  0  0  0  0  0  0  0  0
   -1.2983    1.2366    4.6035 H   0  0  0  0  0  0  0  0  0  0  0  0
   -0.1204   -0.0980    4.5907 H   0  0  0  0  0  0  0  0  0  0  0  0
  5  6  2  0  0  0  0
  5  7  1  0  0  0  0
  2  3  1  0  0  0  0
  2  4  1  0  0  0  0
  2  5  1  0  0  0  0
  1  2  1  0  0  0  0
 21 22  2  0  0  0  0
 21 23  1  0  0  0  0
 19 20  1  0  0  0  0
 17 18  2  0  0  0  0
 17 19  1  0  0  0  0
 14 15  1  0  0  0  0
 14 16  1  0  0  0  0
 14 17  1  0  0  0  0
 11 12  1  0  0  0  0
 11 13  1  0  0  0  0
 11 14  1  0  0  0  0
  9 10  1  0  0  0  0
  9 11  1  0  0  0  0
  9 21  1  0  0  0  0
  7  8  1  0  0  0  0
  7  9  1  0  0  0  0
 25 26  1  0  0  0  0
 25 27  1  0  0  0  0
 25 28  1  0  0  0  0
 23 24  1  0  0  0  0
 23 25  1  0  0  0  0
M  END
$$$$
default_name
  -OEChem-02102213163D

 28 27  0     1  0  0  0  0  0999 V2000
   -3.2133   -3.5565    1.2809 H   0  0  0  0  0  0  0  0  0  0  0  0
   -3.1873   -2.5755    0.8089 C   0  0  0  0  0  0  0  0  0  0  0  0
   -3.8793   -1.9065    1.3169 H   0  0  0  0  0  0  0  0  0  0  0  0
   -3.4623   -2.6685   -0.2401 H   0  0  0  0  0  0  0  0  0  0  0  0
   -1.7863   -2.0195    0.9119 C   0  0  0  0  0  0  0  0  0  0  0  0
   -0.9073   -2.6615    1.4699 O   0  0  0  0  0  0  0  0  0  0  0  0
   -1.5803   -0.8195    0.3749 N   0  0  0  0  0  0  0  0  0  0  0  0
   -2.3603   -0.3345   -0.0451 H   0  0  0  0  0  0  0  0  0  0  0  0
   -0.2933   -0.1205    0.3719 C   0  0  1  0  0  0  0  0  0  0  0  0
    0.4439   -0.7485   -0.1303 H   0  0  0  0  0  0  0  0  0  0  0  0
   -0.4368    1.1924   -0.4246 C   0  0  0  0  0  0  0  0  0  0  0  0
   -0.1842    2.0211    0.2392 H   0  0  0  0  0  0  0  0  0  0  0  0
    0.2748    1.1912   -1.2516 H   0  0  0  0  0  0  0  0  0  0  0  0
   -1.8470    1.4255   -0.9937 C   0  0  0  0  0  0  0  0  0  0  0  0
   -2.5719    1.4742   -0.1811 H   0  0  0  0  0  0  0  0  0  0  0  0
   -1.8610    2.3673   -1.5409 H   0  0  0  0  0  0  0  0  0  0  0  0
   -2.2755    0.3163   -1.9490 C   0  0  0  0  0  0  0  0  0  0  0  0
   -1.5557   -0.5890   -2.3390 O   0  0  0  0  0  0  0  0  0  0  0  0
   -3.5485    0.3830   -2.3812 O   0  0  0  0  0  0  0  0  0  0  0  0
   -3.6526   -0.3646   -2.9723 H   0  0  0  0  0  0  0  0  0  0  0  0
    0.1871    0.1189    1.8122 C   0  0  0  0  0  0  0  0  0  0  0  0
    1.3541   -0.1171    2.1187 O   0  0  0  0  0  0  0  0  0  0  0  0
   -0.7126    0.5740    2.6926 N   0  0  0  0  0  0  0  0  0  0  0  0
   -1.6464    0.7663    2.3621 H   0  0  0  0  0  0  0  0  0  0  0  0
   -0.4191    0.8310    4.1010 C   0  0  0  0  0  0  0  0  0  0  0  0
    0.4022    1.5452    4.1828 H   0  0  0  0  0  0  0  0  0  0  0  0
   -1.2983    1.2366    4.6035 H   0  0  0  0  0  0  0  0  0  0  0  0
   -0.1204   -0.0980    4.5907 H   0  0  0  0  0  0  0  0  0  0  0  0
  5  6  2  0  0  0  0
  5  7  1  0  0  0  0
  2  3  1  0  0  0  0
  2  4  1  0  0  0  0
  2  5  1  0  0  0  0
  1  2  1  0  0  0  0
 21 22  2  0  0  0  0
 21 23  1  0  0  0  0
 19 20  1  0  0  0  0
 17 18  2  0  0  0  0
 17 19  1  0  0  0  0
 14 15  1  0  0  0  0
 14 16  1  0  0  0  0
 14 17  1  0  0  0  0
 11 12  1  0  0  0  0
 11 13  1  0  0  0  0
 11 14  1  0  0  0  0
  9 10  1  0  0  0  0
  9 11  1  0  0  0  0
  9 21  1  0  0  0  0
  7  8  1  0  0  0  0
  7  9  1  0  0  0  0
 25 26  1  0  0  0  0
 25 27  1  0  0  0  0
 25 28  1  0  0  0  0
 23 24  1  0  0  0  0
 23 25  1  0  0  0  0
M  END
$$$$
default_name
  -OEChem-02102213163D

 28 27  0     1  0  0  0  0  0999 V2000
   -3.2133   -3.5565    1.2809 H   0  0  0  0  0  0  0  0  0  0  0  0
   -3.1873   -2.5755    0.8089 C   0  0  0  0  0  0  0  0  0  0  0  0
   -3.8793   -1.9065    1.3169 H   0  0  0  0  0  0  0  0  0  0  0  0
   -3.4623   -2.6685   -0.2401 H   0  0  0  0  0  0  0  0  0  0  0  0
   -1.7863   -2.0195    0.9119 C   0  0  0  0  0  0  0  0  0  0  0  0
   -0.9073   -2.6615    1.4699 O   0  0  0  0  0  0  0  0  0  0  0  0
   -1.5803   -0.8195    0.3749 N   0  0  0  0  0  0  0  0  0  0  0  0
   -2.3603   -0.3345   -0.0451 H   0  0  0  0  0  0  0  0  0  0  0  0
   -0.2933   -0.1205    0.3719 C   0  0  1  0  0  0  0  0  0  0  0  0
    0.4439   -0.7485   -0.1303 H   0  0  0  0  0  0  0  0  0  0  0  0
   -0.4368    1.1924   -0.4246 C   0  0  0  0  0  0  0  0  0  0  0  0
   -0.1842    2.0211    0.2392 H   0  0  0  0  0  0  0  0  0  0  0  0
    0.2748    1.1912   -1.2516 H   0  0  0  0  0  0  0  0  0  0  0  0
   -1.8470    1.4255   -0.9937 C   0  0  0  0  0  0  0  0  0  0  0  0
   -2.5223    1.7367   -0.1966 H   0  0  0  0  0  0  0  0  0  0  0  0
   -1.8030    2.2086   -1.7497 H   0  0  0  0  0  0  0  0  0  0  0  0
   -2.4226    0.1715   -1.6438 C   0  0  0  0  0  0  0  0  0  0  0  0
   -1.8089   -0.8678   -1.8257 O   0  0  0  0  0  0  0  0  0  0  0  0
   -3.7045    0.2621   -2.0440 O   0  0  0  0  0  0  0  0  0  0  0  0
   -3.9061   -0.5893   -2.4361 H   0  0  0  0  0  0  0  0  0  0  0  0
    0.1871    0.1189    1.8122 C   0  0  0  0  0  0  0  0  0  0  0  0
    1.3541   -0.1171    2.1187 O   0  0  0  0  0  0  0  0  0  0  0  0
   -0.7126    0.5740    2.6926 N   0  0  0  0  0  0  0  0  0  0  0  0
   -1.6464    0.7663    2.3621 H   0  0  0  0  0  0  0  0  0  0  0  0
   -0.4191    0.8310    4.1010 C   0  0  0  0  0  0  0  0  0  0  0  0
    0.4022    1.5452    4.1828 H   0  0  0  0  0  0  0  0  0  0  0  0
   -1.2983    1.2366    4.6035 H   0  0  0  0  0  0  0  0  0  0  0  0
   -0.1204   -0.0980    4.5907 H   0  0  0  0  0  0  0  0  0  0  0  0
  5  6  2  0  0  0  0
  5  7  1  0  0  0  0
  2  3  1  0  0  0  0
  2  4  1  0  0  0  0
  2  5  1  0  0  0  0
  1  2  1  0  0  0  0
 21 22  2  0  0  0  0
 21 23  1  0  0  0  0
 19 20  1  0  0  0  0
 17 18  2  0  0  0  0
 17 19  1  0  0  0  0
 14 15  1  0  0  0  0
 14 16  1  0  0  0  0
 14 17  1  0  0  0  0
 11 12  1  0  0  0  0
 11 13  1  0  0  0  0
 11 14  1  0  0  0  0
  9 10  1  0  0  0  0
  9 11  1  0  0  0  0
  9 21  1  0  0  0  0
  7  8  1  0  0  0  0
  7  9  1  0  0  0  0
 25 26  1  0  0  0  0
 25 27  1  0  0  0  0
 25 28  1  0  0  0  0
 23 24  1  0  0  0  0
 23 25  1  0  0  0  0
M  END
$$$$
default_name
  -OEChem-02102213163D

 28 27  0     1  0  0  0  0  0999 V2000
   -3.2133   -3.5565    1.2809 H   0  0  0  0  0  0  0  0  0  0  0  0
   -3.1873   -2.5755    0.8089 C   0  0  0  0  0  0  0  0  0  0  0  0
   -3.8793   -1.9065    1.3169 H   0  0  0  0  0  0  0  0  0  0  0  0
   -3.4623   -2.6685   -0.2401 H   0  0  0  0  0  0  0  0  0  0  0  0
   -1.7863   -2.0195    0.9119 C   0  0  0  0  0  0  0  0  0  0  0  0
   -0.9073   -2.6615    1.4699 O   0  0  0  0  0  0  0  0  0  0  0  0
   -1.5803   -0.8195    0.3749 N   0  0  0  0  0  0  0  0  0  0  0  0
   -2.3603   -0.3345   -0.0451 H   0  0  0  0  0  0  0  0  0  0  0  0
   -0.2933   -0.1205    0.3719 C   0  0  1  0  0  0  0  0  0  0  0  0
    0.4439   -0.7485   -0.1303 H   0  0  0  0  0  0  0  0  0  0  0  0
   -0.4368    1.1924   -0.4246 C   0  0  0  0  0  0  0  0  0  0  0  0
   -0.1842    2.0211    0.2392 H   0  0  0  0  0  0  0  0  0  0  0  0
    0.2748    1.1912   -1.2516 H   0  0  0  0  0  0  0  0  0  0  0  0
   -1.8470    1.4255   -0.9937 C   0  0  0  0  0  0  0  0  0  0  0  0
   -2.4499    1.9817   -0.2758 H   0  0  0  0  0  0  0  0  0  0  0  0
   -1.7703    2.0002   -1.9160 H   0  0  0  0  0  0  0  0  0  0  0  0
   -2.5666    0.1180   -1.3089 C   0  0  0  0  0  0  0  0  0  0  0  0
   -2.0601   -0.9911   -1.2539 O   0  0  0  0  0  0  0  0  0  0  0  0
   -3.8536    0.2403   -1.6835 O   0  0  0  0  0  0  0  0  0  0  0  0
   -4.1515   -0.6548   -1.8549 H   0  0  0  0  0  0  0  0  0  0  0  0
    0.1871    0.1189    1.8122 C   0  0  0  0  0  0  0  0  0  0  0  0
    1.3541   -0.1171    2.1187 O   0  0  0  0  0  0  0  0  0  0  0  0
   -0.7126    0.5740    2.6926 N   0  0  0  0  0  0  0  0  0  0  0  0
   -1.6464    0.7663    2.3621 H   0  0  0  0  0  0  0  0  0  0  0  0
   -0.4191    0.8310    4.1010 C   0  0  0  0  0  0  0  0  0  0  0  0
    0.4022    1.5452    4.1828 H   0  0  0  0  0  0  0  0  0  0  0  0
   -1.2983    1.2366    4.6035 H   0  0  0  0  0  0  0  0  0  0  0  0
   -0.1204   -0.0980    4.5907 H   0  0  0  0  0  0  0  0  0  0  0  0
  5  6  2  0  0  0  0
  5  7  1  0  0  0  0
  2  3  1  0  0  0  0
  2  4  1  0  0  0  0
  2  5  1  0  0  0  0
  1  2  1  0  0  0  0
 21 22  2  0  0  0  0
 21 23  1  0  0  0  0
 19 20  1  0  0  0  0
 17 18  2  0  0  0  0
 17 19  1  0  0  0  0
 14 15  1  0  0  0  0
 14 16  1  0  0  0  0
 14 17  1  0  0  0  0
 11 12  1  0  0  0  0
 11 13  1  0  0  0  0
 11 14  1  0  0  0  0
  9 10  1  0  0  0  0
  9 11  1  0  0  0  0
  9 21  1  0  0  0  0
  7  8  1  0  0  0  0
  7  9  1  0  0  0  0
 25 26  1  0  0  0  0
 25 27  1  0  0  0  0
 25 28  1  0  0  0  0
 23 24  1  0  0  0  0
 23 25  1  0  0  0  0
M  END
$$$$
default_name
  -OEChem-02102213163D

 28 27  0     1  0  0  0  0  0999 V2000
   -3.2133   -3.5565    1.2809 H   0  0  0  0  0  0  0  0  0  0  0  0
   -3.1873   -2.5755    0.8089 C   0  0  0  0  0  0  0  0  0  0  0  0
   -3.8793   -1.9065    1.3169 H   0  0  0  0  0  0  0  0  0  0  0  0
   -3.4623   -2.6685   -0.2401 H   0  0  0  0  0  0  0  0  0  0  0  0
   -1.7863   -2.0195    0.9119 C   0  0  0  0  0  0  0  0  0  0  0  0
   -0.9073   -2.6615    1.4699 O   0  0  0  0  0  0  0  0  0  0  0  0
   -1.5803   -0.8195    0.3749 N   0  0  0  0  0  0  0  0  0  0  0  0
   -2.3603   -0.3345   -0.0451 H   0  0  0  0  0  0  0  0  0  0  0  0
   -0.2933   -0.1205    0.3719 C   0  0  1  0  0  0  0  0  0  0  0  0
    0.4439   -0.7485   -0.1303 H   0  0  0  0  0  0  0  0  0  0  0  0
   -0.4368    1.1924   -0.4246 C   0  0  0  0  0  0  0  0  0  0  0  0
   -0.1842    2.0211    0.2392 H   0  0  0  0  0  0  0  0  0  0  0  0
    0.2748    1.1912   -1.2516 H   0  0  0  0  0  0  0  0  0  0  0  0
   -1.8470    1.4255   -0.9937 C   0  0  0  0  0  0  0  0  0  0  0  0
   -2.3595    2.1927   -0.4133 H   0  0  0  0  0  0  0  0  0  0  0  0
   -1.7652    1.7563   -2.0284 H   0  0  0  0  0  0  0  0  0  0  0  0
   -2.6977    0.1597   -0.9671 C   0  0  0  0  0  0  0  0  0  0  0  0
   -2.2920   -0.9505   -0.6624 O   0  0  0  0  0  0  0  0  0  0  0  0
   -3.9855    0.3190   -1.3243 O   0  0  0  0  0  0  0  0  0  0  0  0
   -4.3719   -0.5567   -1.2684 H   0  0  0  0  0  0  0  0  0  0  0  0
    0.1871    0.1189    1.8122 C   0  0  0  0  0  0  0  0  0  0  0  0
    1.3541   -0.1171    2.1187 O   0  0  0  0  0  0  0  0  0  0  0  0
   -0.7126    0.5740    2.6926 N   0  0  0  0  0  0  0  0  0  0  0  0
   -1.6464    0.7663    2.3621 H   0  0  0  0  0  0  0  0  0  0  0  0
   -0.4191    0.8310    4.1010 C   0  0  0  0  0  0  0  0  0  0  0  0
    0.4022    1.5452    4.1828 H   0  0  0  0  0  0  0  0  0  0  0  0
   -1.2983    1.2366    4.6035 H   0  0  0  0  0  0  0  0  0  0  0  0
   -0.1204   -0.0980    4.5907 H   0  0  0  0  0  0  0  0  0  0  0  0
  5  6  2  0  0  0  0
  5  7  1  0  0  0  0
  2  3  1  0  0  0  0
  2  4  1  0  0  0  0
  2  5  1  0  0  0  0
  1  2  1  0  0  0  0
 21 22  2  0  0  0  0
 21 23  1  0  0  0  0
 19 20  1  0  0  0  0
 17 18  2  0  0  0  0
 17 19  1  0  0  0  0
 14 15  1  0  0  0  0
 14 16  1  0  0  0  0
 14 17  1  0  0  0  0
 11 12  1  0  0  0  0
 11 13  1  0  0  0  0
 11 14  1  0  0  0  0
  9 10  1  0  0  0  0
  9 11  1  0  0  0  0
  9 21  1  0  0  0  0
  7  8  1  0  0  0  0
  7  9  1  0  0  0  0
 25 26  1  0  0  0  0
 25 27  1  0  0  0  0
 25 28  1  0  0  0  0
 23 24  1  0  0  0  0
 23 25  1  0  0  0  0
M  END
$$$$
default_name
  -OEChem-02102213163D

 28 27  0     1  0  0  0  0  0999 V2000
   -3.2133   -3.5565    1.2809 H   0  0  0  0  0  0  0  0  0  0  0  0
   -3.1873   -2.5755    0.8089 C   0  0  0  0  0  0  0  0  0  0  0  0
   -3.8793   -1.9065    1.3169 H   0  0  0  0  0  0  0  0  0  0  0  0
   -3.4623   -2.6685   -0.2401 H   0  0  0  0  0  0  0  0  0  0  0  0
   -1.7863   -2.0195    0.9119 C   0  0  0  0  0  0  0  0  0  0  0  0
   -0.9073   -2.6615    1.4699 O   0  0  0  0  0  0  0  0  0  0  0  0
   -1.5803   -0.8195    0.3749 N   0  0  0  0  0  0  0  0  0  0  0  0
   -2.3603   -0.3345   -0.0451 H   0  0  0  0  0  0  0  0  0  0  0  0
   -0.2933   -0.1205    0.3719 C   0  0  1  0  0  0  0  0  0  0  0  0
    0.4439   -0.7485   -0.1303 H   0  0  0  0  0  0  0  0  0  0  0  0
   -0.4368    1.1924   -0.4246 C   0  0  0  0  0  0  0  0  0  0  0  0
   -0.1842    2.0211    0.2392 H   0  0  0  0  0  0  0  0  0  0  0  0
    0.2748    1.1912   -1.2516 H   0  0  0  0  0  0  0  0  0  0  0  0
   -1.8470    1.4255   -0.9937 C   0  0  0  0  0  0  0  0  0  0  0  0
   -2.2574    2.3553   -0.5997 H   0  0  0  0  0  0  0  0  0  0  0  0
   -1.7881    1.4935   -2.0793 H   0  0  0  0  0  0  0  0  0  0  0  0
   -2.8069    0.2935   -0.6416 C   0  0  0  0  0  0  0  0  0  0  0  0
   -2.4890   -0.7487   -0.0916 O   0  0  0  0  0  0  0  0  0  0  0  0
   -4.0914    0.4928   -0.9909 O   0  0  0  0  0  0  0  0  0  0  0  0
   -4.5525   -0.3017   -0.7165 H   0  0  0  0  0  0  0  0  0  0  0  0
    0.1871    0.1189    1.8122 C   0  0  0  0  0  0  0  0  0  0  0  0
    1.3541   -0.1171    2.1187 O   0  0  0  0  0  0  0  0  0  0  0  0
   -0.7126    0.5740    2.6926 N   0  0  0  0  0  0  0  0  0  0  0  0
   -1.6464    0.7663    2.3621 H   0  0  0  0  0  0  0  0  0  0  0  0
   -0.4191    0.8310    4.1010 C   0  0  0  0  0  0  0  0  0  0  0  0
    0.4022    1.5452    4.1828 H   0  0  0  0  0  0  0  0  0  0  0  0
   -1.2983    1.2366    4.6035 H   0  0  0  0  0  0  0  0  0  0  0  0
   -0.1204   -0.0980    4.5907 H   0  0  0  0  0  0  0  0  0  0  0  0
  5  6  2  0  0  0  0
  5  7  1  0  0  0  0
  2  3  1  0  0  0  0
  2  4  1  0  0  0  0
  2  5  1  0  0  0  0
  1  2  1  0  0  0  0
 21 22  2  0  0  0  0
 21 23  1  0  0  0  0
 19 20  1  0  0  0  0
 17 18  2  0  0  0  0
 17 19  1  0  0  0  0
 14 15  1  0  0  0  0
 14 16  1  0  0  0  0
 14 17  1  0  0  0  0
 11 12  1  0  0  0  0
 11 13  1  0  0  0  0
 11 14  1  0  0  0  0
  9 10  1  0  0  0  0
  9 11  1  0  0  0  0
  9 21  1  0  0  0  0
  7  8  1  0  0  0  0
  7  9  1  0  0  0  0
 25 26  1  0  0  0  0
 25 27  1  0  0  0  0
 25 28  1  0  0  0  0
 23 24  1  0  0  0  0
 23 25  1  0  0  0  0
M  END
$$$$
default_name
  -OEChem-02102213163D

 28 27  0     1  0  0  0  0  0999 V2000
   -3.2133   -3.5565    1.2809 H   0  0  0  0  0  0  0  0  0  0  0  0
   -3.1873   -2.5755    0.8089 C   0  0  0  0  0  0  0  0  0  0  0  0
   -3.8793   -1.9065    1.3169 H   0  0  0  0  0  0  0  0  0  0  0  0
   -3.4623   -2.6685   -0.2401 H   0  0  0  0  0  0  0  0  0  0  0  0
   -1.7863   -2.0195    0.9119 C   0  0  0  0  0  0  0  0  0  0  0  0
   -0.9073   -2.6615    1.4699 O   0  0  0  0  0  0  0  0  0  0  0  0
   -1.5803   -0.8195    0.3749 N   0  0  0  0  0  0  0  0  0  0  0  0
   -2.3603   -0.3345   -0.0451 H   0  0  0  0  0  0  0  0  0  0  0  0
   -0.2933   -0.1205    0.3719 C   0  0  1  0  0  0  0  0  0  0  0  0
    0.4439   -0.7485   -0.1303 H   0  0  0  0  0  0  0  0  0  0  0  0
   -0.4368    1.1924   -0.4246 C   0  0  0  0  0  0  0  0  0  0  0  0
   -0.1842    2.0211    0.2392 H   0  0  0  0  0  0  0  0  0  0  0  0
    0.2748    1.1912   -1.2516 H   0  0  0  0  0  0  0  0  0  0  0  0
   -1.8470    1.4255   -0.9937 C   0  0  0  0  0  0  0  0  0  0  0  0
   -2.1506    2.4583   -0.8223 H   0  0  0  0  0  0  0  0  0  0  0  0
   -1.8373    1.2299   -2.0653 H   0  0  0  0  0  0  0  0  0  0  0  0
   -2.8868    0.5105   -0.3547 C   0  0  0  0  0  0  0  0  0  0  0  0
   -2.6376   -0.3995    0.4195 O   0  0  0  0  0  0  0  0  0  0  0  0
   -4.1639    0.7500   -0.7059 O   0  0  0  0  0  0  0  0  0  0  0  0
   -4.6809    0.0928   -0.2368 H   0  0  0  0  0  0  0  0  0  0  0  0
    0.1871    0.1189    1.8122 C   0  0  0  0  0  0  0  0  0  0  0  0
    1.3541   -0.1171    2.1187 O   0  0  0  0  0  0  0  0  0  0  0  0
   -0.7126    0.5740    2.6926 N   0  0  0  0  0  0  0  0  0  0  0  0
   -1.6464    0.7663    2.3621 H   0  0  0  0  0  0  0  0  0  0  0  0
   -0.4191    0.8310    4.1010 C   0  0  0  0  0  0  0  0  0  0  0  0
    0.4022    1.5452    4.1828 H   0  0  0  0  0  0  0  0  0  0  0  0
   -1.2983    1.2366    4.6035 H   0  0  0  0  0  0  0  0  0  0  0  0
   -0.1204   -0.0980    4.5907 H   0  0  0  0  0  0  0  0  0  0  0  0
  5  6  2  0  0  0  0
  5  7  1  0  0  0  0
  2  3  1  0  0  0  0
  2  4  1  0  0  0  0
  2  5  1  0  0  0  0
  1  2  1  0  0  0  0
 21 22  2  0  0  0  0
 21 23  1  0  0  0  0
 19 20  1  0  0  0  0
 17 18  2  0  0  0  0
 17 19  1  0  0  0  0
 14 15  1  0  0  0  0
 14 16  1  0  0  0  0
 14 17  1  0  0  0  0
 11 12  1  0  0  0  0
 11 13  1  0  0  0  0
 11 14  1  0  0  0  0
  9 10  1  0  0  0  0
  9 11  1  0  0  0  0
  9 21  1  0  0  0  0
  7  8  1  0  0  0  0
  7  9  1  0  0  0  0
 25 26  1  0  0  0  0
 25 27  1  0  0  0  0
 25 28  1  0  0  0  0
 23 24  1  0  0  0  0
 23 25  1  0  0  0  0
M  END
$$$$
default_name
  -OEChem-02102213163D

 28 27  0     1  0  0  0  0  0999 V2000
   -3.2133   -3.5565    1.2809 H   0  0  0  0  0  0  0  0  0  0  0  0
   -3.1873   -2.5755    0.8089 C   0  0  0  0  0  0  0  0  0  0  0  0
   -3.8793   -1.9065    1.3169 H   0  0  0  0  0  0  0  0  0  0  0  0
   -3.4623   -2.6685   -0.2401 H   0  0  0  0  0  0  0  0  0  0  0  0
   -1.7863   -2.0195    0.9119 C   0  0  0  0  0  0  0  0  0  0  0  0
   -0.9073   -2.6615    1.4699 O   0  0  0  0  0  0  0  0  0  0  0  0
   -1.5803   -0.8195    0.3749 N   0  0  0  0  0  0  0  0  0  0  0  0
   -2.3603   -0.3345   -0.0451 H   0  0  0  0  0  0  0  0  0  0  0  0
   -0.2933   -0.1205    0.3719 C   0  0  1  0  0  0  0  0  0  0  0  0
    0.4439   -0.7485   -0.1303 H   0  0  0  0  0  0  0  0  0  0  0  0
   -0.4368    1.1924   -0.4246 C   0  0  0  0  0  0  0  0  0  0  0  0
   -0.1842    2.0211    0.2392 H   0  0  0  0  0  0  0  0  0  0  0  0
    0.2748    1.1912   -1.2516 H   0  0  0  0  0  0  0  0  0  0  0  0
   -1.8470    1.4255   -0.9937 C   0  0  0  0  0  0  0  0  0  0  0  0
   -2.0463    2.4947   -1.0659 H   0  0  0  0  0  0  0  0  0  0  0  0
   -1.9095    0.9832   -1.9873 H   0  0  0  0  0  0  0  0  0  0  0  0
   -2.9320    0.7958   -0.1260 C   0  0  0  0  0  0  0  0  0  0  0  0
   -2.7276    0.0732    0.8363 O   0  0  0  0  0  0  0  0  0  0  0  0
   -4.1981    1.0730   -0.4888 O   0  0  0  0  0  0  0  0  0  0  0  0
   -4.7483    0.6000    0.1380 H   0  0  0  0  0  0  0  0  0  0  0  0
    0.1871    0.1189    1.8122 C   0  0  0  0  0  0  0  0  0  0  0  0
    1.3541   -0.1171    2.1187 O   0  0  0  0  0  0  0  0  0  0  0  0
   -0.7126    0.5740    2.6926 N   0  0  0  0  0  0  0  0  0  0  0  0
   -1.6464    0.7663    2.3621 H   0  0  0  0  0  0  0  0  0  0  0  0
   -0.4191    0.8310    4.1010 C   0  0  0  0  0  0  0  0  0  0  0  0
    0.4022    1.5452    4.1828 H   0  0  0  0  0  0  0  0  0  0  0  0
   -1.2983    1.2366    4.6035 H   0  0  0  0  0  0  0  0  0  0  0  0
   -0.1204   -0.0980    4.5907 H   0  0  0  0  0  0  0  0  0  0  0  0
  5  6  2  0  0  0  0
  5  7  1  0  0  0  0
  2  3  1  0  0  0  0
  2  4  1  0  0  0  0
  2  5  1  0  0  0  0
  1  2  1  0  0  0  0
 21 22  2  0  0  0  0
 21 23  1  0  0  0  0
 19 20  1  0  0  0  0
 17 18  2  0  0  0  0
 17 19  1  0  0  0  0
 14 15  1  0  0  0  0
 14 16  1  0  0  0  0
 14 17  1  0  0  0  0
 11 12  1  0  0  0  0
 11 13  1  0  0  0  0
 11 14  1  0  0  0  0
  9 10  1  0  0  0  0
  9 11  1  0  0  0  0
  9 21  1  0  0  0  0
  7  8  1  0  0  0  0
  7  9  1  0  0  0  0
 25 26  1  0  0  0  0
 25 27  1  0  0  0  0
 25 28  1  0  0  0  0
 23 24  1  0  0  0  0
 23 25  1  0  0  0  0
M  END
$$$$
default_name
  -OEChem-02102213163D

 28 27  0     1  0  0  0  0  0999 V2000
   -3.2133   -3.5565    1.2809 H   0  0  0  0  0  0  0  0  0  0  0  0
   -3.1873   -2.5755    0.8089 C   0  0  0  0  0  0  0  0  0  0  0  0
   -3.8793   -1.9065    1.3169 H   0  0  0  0  0  0  0  0  0  0  0  0
   -3.4623   -2.6685   -0.2401 H   0  0  0  0  0  0  0  0  0  0  0  0
   -1.7863   -2.0195    0.9119 C   0  0  0  0  0  0  0  0  0  0  0  0
   -0.9073   -2.6615    1.4699 O   0  0  0  0  0  0  0  0  0  0  0  0
   -1.5803   -0.8195    0.3749 N   0  0  0  0  0  0  0  0  0  0  0  0
   -2.3603   -0.3345   -0.0451 H   0  0  0  0  0  0  0  0  0  0  0  0
   -0.2933   -0.1205    0.3719 C   0  0  1  0  0  0  0  0  0  0  0  0
    0.4439   -0.7485   -0.1303 H   0  0  0  0  0  0  0  0  0  0  0  0
   -0.4368    1.1924   -0.4246 C   0  0  0  0  0  0  0  0  0  0  0  0
   -0.1842    2.0211    0.2392 H   0  0  0  0  0  0  0  0  0  0  0  0
    0.2748    1.1912   -1.2516 H   0  0  0  0  0  0  0  0  0  0  0  0
   -1.8470    1.4255   -0.9937 C   0  0  0  0  0  0  0  0  0  0  0  0
   -1.9515    2.4621   -1.3140 H   0  0  0  0  0  0  0  0  0  0  0  0
   -1.9999    0.7704   -1.8506 H   0  0  0  0  0  0  0  0  0  0  0  0
   -2.9393    1.1300    0.0291 C   0  0  0  0  0  0  0  0  0  0  0  0
   -2.7530    0.6374    1.1302 O   0  0  0  0  0  0  0  0  0  0  0  0
   -4.1918    1.4398   -0.3543 O   0  0  0  0  0  0  0  0  0  0  0  0
   -4.7502    1.1853    0.3823 H   0  0  0  0  0  0  0  0  0  0  0  0
    0.1871    0.1189    1.8122 C   0  0  0  0  0  0  0  0  0  0  0  0
    1.3541   -0.1171    2.1187 O   0  0  0  0  0  0  0  0  0  0  0  0
   -0.7126    0.5740    2.6926 N   0  0  0  0  0  0  0  0  0  0  0  0
   -1.6464    0.7663    2.3621 H   0  0  0  0  0  0  0  0  0  0  0  0
   -0.4191    0.8310    4.1010 C   0  0  0  0  0  0  0  0  0  0  0  0
    0.4022    1.5452    4.1828 H   0  0  0  0  0  0  0  0  0  0  0  0
   -1.2983    1.2366    4.6035 H   0  0  0  0  0  0  0  0  0  0  0  0
   -0.1204   -0.0980    4.5907 H   0  0  0  0  0  0  0  0  0  0  0  0
  5  6  2  0  0  0  0
  5  7  1  0  0  0  0
  2  3  1  0  0  0  0
  2  4  1  0  0  0  0
  2  5  1  0  0  0  0
  1  2  1  0  0  0  0
 21 22  2  0  0  0  0
 21 23  1  0  0  0  0
 19 20  1  0  0  0  0
 17 18  2  0  0  0  0
 17 19  1  0  0  0  0
 14 15  1  0  0  0  0
 14 16  1  0  0  0  0
 14 17  1  0  0  0  0
 11 12  1  0  0  0  0
 11 13  1  0  0  0  0
 11 14  1  0  0  0  0
  9 10  1  0  0  0  0
  9 11  1  0  0  0  0
  9 21  1  0  0  0  0
  7  8  1  0  0  0  0
  7  9  1  0  0  0  0
 25 26  1  0  0  0  0
 25 27  1  0  0  0  0
 25 28  1  0  0  0  0
 23 24  1  0  0  0  0
 23 25  1  0  0  0  0
M  END
$$$$
default_name
  -OEChem-02102213163D

 28 27  0     1  0  0  0  0  0999 V2000
   -3.2133   -3.5565    1.2809 H   0  0  0  0  0  0  0  0  0  0  0  0
   -3.1873   -2.5755    0.8089 C   0  0  0  0  0  0  0  0  0  0  0  0
   -3.8793   -1.9065    1.3169 H   0  0  0  0  0  0  0  0  0  0  0  0
   -3.4623   -2.6685   -0.2401 H   0  0  0  0  0  0  0  0  0  0  0  0
   -1.7863   -2.0195    0.9119 C   0  0  0  0  0  0  0  0  0  0  0  0
   -0.9073   -2.6615    1.4699 O   0  0  0  0  0  0  0  0  0  0  0  0
   -1.5803   -0.8195    0.3749 N   0  0  0  0  0  0  0  0  0  0  0  0
   -2.3603   -0.3345   -0.0451 H   0  0  0  0  0  0  0  0  0  0  0  0
   -0.2933   -0.1205    0.3719 C   0  0  1  0  0  0  0  0  0  0  0  0
    0.4439   -0.7485   -0.1303 H   0  0  0  0  0  0  0  0  0  0  0  0
   -0.4368    1.1924   -0.4246 C   0  0  0  0  0  0  0  0  0  0  0  0
   -0.1842    2.0211    0.2392 H   0  0  0  0  0  0  0  0  0  0  0  0
    0.2748    1.1912   -1.2516 H   0  0  0  0  0  0  0  0  0  0  0  0
   -1.8470    1.4255   -0.9937 C   0  0  0  0  0  0  0  0  0  0  0  0
   -1.8729    2.3627   -1.5496 H   0  0  0  0  0  0  0  0  0  0  0  0
   -2.1021    0.6059   -1.6645 H   0  0  0  0  0  0  0  0  0  0  0  0
   -2.9084    1.4902    0.0998 C   0  0  0  0  0  0  0  0  0  0  0  0
   -2.7120    1.2545    1.2812 O   0  0  0  0  0  0  0  0  0  0  0  0
   -4.1453    1.8253   -0.3118 O   0  0  0  0  0  0  0  0  0  0  0  0
   -4.6864    1.8088    0.4795 H   0  0  0  0  0  0  0  0  0  0  0  0
    0.1871    0.1189    1.8122 C   0  0  0  0  0  0  0  0  0  0  0  0
    1.3541   -0.1171    2.1187 O   0  0  0  0  0  0  0  0  0  0  0  0
   -0.7126    0.5740    2.6926 N   0  0  0  0  0  0  0  0  0  0  0  0
   -1.6464    0.7663    2.3621 H   0  0  0  0  0  0  0  0  0  0  0  0
   -0.4191    0.8310    4.1010 C   0  0  0  0  0  0  0  0  0  0  0  0
    0.4022    1.5452    4.1828 H   0  0  0  0  0  0  0  0  0  0  0  0
   -1.2983    1.2366    4.6035 H   0  0  0  0  0  0  0  0  0  0  0  0
   -0.1204   -0.0980    4.5907 H   0  0  0  0  0  0  0  0  0  0  0  0
  5  6  2  0  0  0  0
  5  7  1  0  0  0  0
  2  3  1  0  0  0  0
  2  4  1  0  0  0  0
  2  5  1  0  0  0  0
  1  2  1  0  0  0  0
 21 22  2  0  0  0  0
 21 23  1  0  0  0  0
 19 20  1  0  0  0  0
 17 18  2  0  0  0  0
 17 19  1  0  0  0  0
 14 15  1  0  0  0  0
 14 16  1  0  0  0  0
 14 17  1  0  0  0  0
 11 12  1  0  0  0  0
 11 13  1  0  0  0  0
 11 14  1  0  0  0  0
  9 10  1  0  0  0  0
  9 11  1  0  0  0  0
  9 21  1  0  0  0  0
  7  8  1  0  0  0  0
  7  9  1  0  0  0  0
 25 26  1  0  0  0  0
 25 27  1  0  0  0  0
 25 28  1  0  0  0  0
 23 24  1  0  0  0  0
 23 25  1  0  0  0  0
M  END
$$$$
default_name
  -OEChem-02102213163D

 28 27  0     1  0  0  0  0  0999 V2000
   -3.2133   -3.5565    1.2809 H   0  0  0  0  0  0  0  0  0  0  0  0
   -3.1873   -2.5755    0.8089 C   0  0  0  0  0  0  0  0  0  0  0  0
   -3.8793   -1.9065    1.3169 H   0  0  0  0  0  0  0  0  0  0  0  0
   -3.4623   -2.6685   -0.2401 H   0  0  0  0  0  0  0  0  0  0  0  0
   -1.7863   -2.0195    0.9119 C   0  0  0  0  0  0  0  0  0  0  0  0
   -0.9073   -2.6615    1.4699 O   0  0  0  0  0  0  0  0  0  0  0  0
   -1.5803   -0.8195    0.3749 N   0  0  0  0  0  0  0  0  0  0  0  0
   -2.3603   -0.3345   -0.0451 H   0  0  0  0  0  0  0  0  0  0  0  0
   -0.2933   -0.1205    0.3719 C   0  0  1  0  0  0  0  0  0  0  0  0
    0.4439   -0.7485   -0.1303 H   0  0  0  0  0  0  0  0  0  0  0  0
   -0.4368    1.1924   -0.4246 C   0  0  0  0  0  0  0  0  0  0  0  0
   -0.1842    2.0211    0.2392 H   0  0  0  0  0  0  0  0  0  0  0  0
    0.2748    1.1912   -1.2516 H   0  0  0  0  0  0  0  0  0  0  0  0
   -1.8470    1.4255   -0.9937 C   0  0  0  0  0  0  0  0  0  0  0  0
   -1.8156    2.2033   -1.7567 H   0  0  0  0  0  0  0  0  0  0  0  0
   -2.2094    0.5009   -1.4417 H   0  0  0  0  0  0  0  0  0  0  0  0
   -2.8412    1.8521    0.0815 C   0  0  0  0  0  0  0  0  0  0  0  0
   -2.6074    1.8824    1.2791 O   0  0  0  0  0  0  0  0  0  0  0  0
   -4.0618    2.2034   -0.3639 O   0  0  0  0  0  0  0  0  0  0  0  0
   -4.5613    2.4280    0.4230 H   0  0  0  0  0  0  0  0  0  0  0  0
    0.1871    0.1189    1.8122 C   0  0  0  0  0  0  0  0  0  0  0  0
    1.3541   -0.1171    2.1187 O   0  0  0  0  0  0  0  0  0  0  0  0
   -0.7126    0.5740    2.6926 N   0  0  0  0  0  0  0  0  0  0  0  0
   -1.6464    0.7663    2.3621 H   0  0  0  0  0  0  0  0  0  0  0  0
   -0.4191    0.8310    4.1010 C   0  0  0  0  0  0  0  0  0  0  0  0
    0.4022    1.5452    4.1828 H   0  0  0  0  0  0  0  0  0  0  0  0
   -1.2983    1.2366    4.6035 H   0  0  0  0  0  0  0  0  0  0  0  0
   -0.1204   -0.0980    4.5907 H   0  0  0  0  0  0  0  0  0  0  0  0
  5  6  2  0  0  0  0
  5  7  1  0  0  0  0
  2  3  1  0  0  0  0
  2  4  1  0  0  0  0
  2  5  1  0  0  0  0
  1  2  1  0  0  0  0
 21 22  2  0  0  0  0
 21 23  1  0  0  0  0
 19 20  1  0  0  0  0
 17 18  2  0  0  0  0
 17 19  1  0  0  0  0
 14 15  1  0  0  0  0
 14 16  1  0  0  0  0
 14 17  1  0  0  0  0
 11 12  1  0  0  0  0
 11 13  1  0  0  0  0
 11 14  1  0  0  0  0
  9 10  1  0  0  0  0
  9 11  1  0  0  0  0
  9 21  1  0  0  0  0
  7  8  1  0  0  0  0
  7  9  1  0  0  0  0
 25 26  1  0  0  0  0
 25 27  1  0  0  0  0
 25 28  1  0  0  0  0
 23 24  1  0  0  0  0
 23 25  1  0  0  0  0
M  END
$$$$
default_name
  -OEChem-02102213163D

 28 27  0     1  0  0  0  0  0999 V2000
   -3.2133   -3.5565    1.2809 H   0  0  0  0  0  0  0  0  0  0  0  0
   -3.1873   -2.5755    0.8089 C   0  0  0  0  0  0  0  0  0  0  0  0
   -3.8793   -1.9065    1.3169 H   0  0  0  0  0  0  0  0  0  0  0  0
   -3.4623   -2.6685   -0.2401 H   0  0  0  0  0  0  0  0  0  0  0  0
   -1.7863   -2.0195    0.9119 C   0  0  0  0  0  0  0  0  0  0  0  0
   -0.9073   -2.6615    1.4699 O   0  0  0  0  0  0  0  0  0  0  0  0
   -1.5803   -0.8195    0.3749 N   0  0  0  0  0  0  0  0  0  0  0  0
   -2.3603   -0.3345   -0.0451 H   0  0  0  0  0  0  0  0  0  0  0  0
   -0.2933   -0.1205    0.3719 C   0  0  1  0  0  0  0  0  0  0  0  0
    0.4439   -0.7485   -0.1303 H   0  0  0  0  0  0  0  0  0  0  0  0
   -0.4368    1.1924   -0.4246 C   0  0  0  0  0  0  0  0  0  0  0  0
   -0.1842    2.0211    0.2392 H   0  0  0  0  0  0  0  0  0  0  0  0
    0.2748    1.1912   -1.2516 H   0  0  0  0  0  0  0  0  0  0  0  0
   -1.8470    1.4255   -0.9937 C   0  0  0  0  0  0  0  0  0  0  0  0
   -1.7838    1.9947   -1.9212 H   0  0  0  0  0  0  0  0  0  0  0  0
   -2.3143    0.4627   -1.1974 H   0  0  0  0  0  0  0  0  0  0  0  0
   -2.7424    2.1908   -0.0246 C   0  0  0  0  0  0  0  0  0  0  0  0
   -2.4463    2.4785    1.1240 O   0  0  0  0  0  0  0  0  0  0  0  0
   -3.9469    2.5482   -0.5073 O   0  0  0  0  0  0  0  0  0  0  0  0
   -4.3834    3.0007    0.2166 H   0  0  0  0  0  0  0  0  0  0  0  0
    0.1871    0.1189    1.8122 C   0  0  0  0  0  0  0  0  0  0  0  0
    1.3541   -0.1171    2.1187 O   0  0  0  0  0  0  0  0  0  0  0  0
   -0.7126    0.5740    2.6926 N   0  0  0  0  0  0  0  0  0  0  0  0
   -1.6464    0.7663    2.3621 H   0  0  0  0  0  0  0  0  0  0  0  0
   -0.4191    0.8310    4.1010 C   0  0  0  0  0  0  0  0  0  0  0  0
    0.4022    1.5452    4.1828 H   0  0  0  0  0  0  0  0  0  0  0  0
   -1.2983    1.2366    4.6035 H   0  0  0  0  0  0  0  0  0  0  0  0
   -0.1204   -0.0980    4.5907 H   0  0  0  0  0  0  0  0  0  0  0  0
  5  6  2  0  0  0  0
  5  7  1  0  0  0  0
  2  3  1  0  0  0  0
  2  4  1  0  0  0  0
  2  5  1  0  0  0  0
  1  2  1  0  0  0  0
 21 22  2  0  0  0  0
 21 23  1  0  0  0  0
 19 20  1  0  0  0  0
 17 18  2  0  0  0  0
 17 19  1  0  0  0  0
 14 15  1  0  0  0  0
 14 16  1  0  0  0  0
 14 17  1  0  0  0  0
 11 12  1  0  0  0  0
 11 13  1  0  0  0  0
 11 14  1  0  0  0  0
  9 10  1  0  0  0  0
  9 11  1  0  0  0  0
  9 21  1  0  0  0  0
  7  8  1  0  0  0  0
  7  9  1  0  0  0  0
 25 26  1  0  0  0  0
 25 27  1  0  0  0  0
 25 28  1  0  0  0  0
 23 24  1  0  0  0  0
 23 25  1  0  0  0  0
M  END
$$$$
default_name
  -OEChem-02102213163D

 28 27  0     1  0  0  0  0  0999 V2000
   -3.2133   -3.5565    1.2809 H   0  0  0  0  0  0  0  0  0  0  0  0
   -3.1873   -2.5755    0.8089 C   0  0  0  0  0  0  0  0  0  0  0  0
   -3.8793   -1.9065    1.3169 H   0  0  0  0  0  0  0  0  0  0  0  0
   -3.4623   -2.6685   -0.2401 H   0  0  0  0  0  0  0  0  0  0  0  0
   -1.7863   -2.0195    0.9119 C   0  0  0  0  0  0  0  0  0  0  0  0
   -0.9073   -2.6615    1.4699 O   0  0  0  0  0  0  0  0  0  0  0  0
   -1.5803   -0.8195    0.3749 N   0  0  0  0  0  0  0  0  0  0  0  0
   -2.3603   -0.3345   -0.0451 H   0  0  0  0  0  0  0  0  0  0  0  0
   -0.2933   -0.1205    0.3719 C   0  0  1  0  0  0  0  0  0  0  0  0
    0.4439   -0.7485   -0.1303 H   0  0  0  0  0  0  0  0  0  0  0  0
   -0.4368    1.1924   -0.4246 C   0  0  0  0  0  0  0  0  0  0  0  0
   -0.1842    2.0211    0.2392 H   0  0  0  0  0  0  0  0  0  0  0  0
    0.2748    1.1912   -1.2516 H   0  0  0  0  0  0  0  0  0  0  0  0
   -1.8470    1.4255   -0.9937 C   0  0  0  0  0  0  0  0  0  0  0  0
   -1.7794    1.7511   -2.0318 H   0  0  0  0  0  0  0  0  0  0  0  0
   -2.4097    0.4937   -0.9483 H   0  0  0  0  0  0  0  0  0  0  0  0
   -2.6187    2.4833   -0.2114 C   0  0  0  0  0  0  0  0  0  0  0  0
   -2.2398    3.0020    0.8264 O   0  0  0  0  0  0  0  0  0  0  0  0
   -3.8086    2.8363   -0.7320 O   0  0  0  0  0  0  0  0  0  0  0  0
   -4.1648    3.4880   -0.1256 H   0  0  0  0  0  0  0  0  0  0  0  0
    0.1871    0.1189    1.8122 C   0  0  0  0  0  0  0  0  0  0  0  0
    1.3541   -0.1171    2.1187 O   0  0  0  0  0  0  0  0  0  0  0  0
   -0.7126    0.5740    2.6926 N   0  0  0  0  0  0  0  0  0  0  0  0
   -1.6464    0.7663    2.3621 H   0  0  0  0  0  0  0  0  0  0  0  0
   -0.4191    0.8310    4.1010 C   0  0  0  0  0  0  0  0  0  0  0  0
    0.4022    1.5452    4.1828 H   0  0  0  0  0  0  0  0  0  0  0  0
   -1.2983    1.2366    4.6035 H   0  0  0  0  0  0  0  0  0  0  0  0
   -0.1204   -0.0980    4.5907 H   0  0  0  0  0  0  0  0  0  0  0  0
  5  6  2  0  0  0  0
  5  7  1  0  0  0  0
  2  3  1  0  0  0  0
  2  4  1  0  0  0  0
  2  5  1  0  0  0  0
  1  2  1  0  0  0  0
 21 22  2  0  0  0  0
 21 23  1  0  0  0  0
 19 20  1  0  0  0  0
 17 18  2  0  0  0  0
 17 19  1  0  0  0  0
 14 15  1  0  0  0  0
 14 16  1  0  0  0  0
 14 17  1  0  0  0  0
 11 12  1  0  0  0  0
 11 13  1  0  0  0  0
 11 14  1  0  0  0  0
  9 10  1  0  0  0  0
  9 11  1  0  0  0  0
  9 21  1  0  0  0  0
  7  8  1  0  0  0  0
  7  9  1  0  0  0  0
 25 26  1  0  0  0  0
 25 27  1  0  0  0  0
 25 28  1  0  0  0  0
 23 24  1  0  0  0  0
 23 25  1  0  0  0  0
M  END
$$$$
default_name
  -OEChem-02102213163D

 28 27  0     1  0  0  0  0  0999 V2000
   -3.2133   -3.5565    1.2809 H   0  0  0  0  0  0  0  0  0  0  0  0
   -3.1873   -2.5755    0.8089 C   0  0  0  0  0  0  0  0  0  0  0  0
   -3.8793   -1.9065    1.3169 H   0  0  0  0  0  0  0  0  0  0  0  0
   -3.4623   -2.6685   -0.2401 H   0  0  0  0  0  0  0  0  0  0  0  0
   -1.7863   -2.0195    0.9119 C   0  0  0  0  0  0  0  0  0  0  0  0
   -0.9073   -2.6615    1.4699 O   0  0  0  0  0  0  0  0  0  0  0  0
   -1.5803   -0.8195    0.3749 N   0  0  0  0  0  0  0  0  0  0  0  0
   -2.3603   -0.3345   -0.0451 H   0  0  0  0  0  0  0  0  0  0  0  0
   -0.2933   -0.1205    0.3719 C   0  0  1  0  0  0  0  0  0  0  0  0
    0.4439   -0.7485   -0.1303 H   0  0  0  0  0  0  0  0  0  0  0  0
   -0.4368    1.1924   -0.4246 C   0  0  0  0  0  0  0  0  0  0  0  0
   -0.1842    2.0211    0.2392 H   0  0  0  0  0  0  0  0  0  0  0  0
    0.2748    1.1912   -1.2516 H   0  0  0  0  0  0  0  0  0  0  0  0
   -1.8470    1.4255   -0.9937 C   0  0  0  0  0  0  0  0  0  0  0  0
   -1.8028    1.4892   -2.0810 H   0  0  0  0  0  0  0  0  0  0  0  0
   -2.4891    0.5920   -0.7112 H   0  0  0  0  0  0  0  0  0  0  0  0
   -2.4785    2.7097   -0.4661 C   0  0  0  0  0  0  0  0  0  0  0  0
   -2.0018    3.4174    0.4067 O   0  0  0  0  0  0  0  0  0  0  0  0
   -3.6563    3.0480   -1.0229 O   0  0  0  0  0  0  0  0  0  0  0  0
   -3.9205    3.8564   -0.5803 H   0  0  0  0  0  0  0  0  0  0  0  0
    0.1871    0.1189    1.8122 C   0  0  0  0  0  0  0  0  0  0  0  0
    1.3541   -0.1171    2.1187 O   0  0  0  0  0  0  0  0  0  0  0  0
   -0.7126    0.5740    2.6926 N   0  0  0  0  0  0  0  0  0  0  0  0
   -1.6464    0.7663    2.3621 H   0  0  0  0  0  0  0  0  0  0  0  0
   -0.4191    0.8310    4.1010 C   0  0  0  0  0  0  0  0  0  0  0  0
    0.4022    1.5452    4.1828 H   0  0  0  0  0  0  0  0  0  0  0  0
   -1.2983    1.2366    4.6035 H   0  0  0  0  0  0  0  0  0  0  0  0
   -0.1204   -0.0980    4.5907 H   0  0  0  0  0  0  0  0  0  0  0  0
  5  6  2  0  0  0  0
  5  7  1  0  0  0  0
  2  3  1  0  0  0  0
  2  4  1  0  0  0  0
  2  5  1  0  0  0  0
  1  2  1  0  0  0  0
 21 22  2  0  0  0  0
 21 23  1  0  0  0  0
 19 20  1  0  0  0  0
 17 18  2  0  0  0  0
 17 19  1  0  0  0  0
 14 15  1  0  0  0  0
 14 16  1  0  0  0  0
 14 17  1  0  0  0  0
 11 12  1  0  0  0  0
 11 13  1  0  0  0  0
 11 14  1  0  0  0  0
  9 10  1  0  0  0  0
  9 11  1  0  0  0  0
  9 21  1  0  0  0  0
  7  8  1  0  0  0  0
  7  9  1  0  0  0  0
 25 26  1  0  0  0  0
 25 27  1  0  0  0  0
 25 28  1  0  0  0  0
 23 24  1  0  0  0  0
 23 25  1  0  0  0  0
M  END
$$$$
default_name
  -OEChem-02102213163D

 28 27  0     1  0  0  0  0  0999 V2000
   -3.2133   -3.5565    1.2809 H   0  0  0  0  0  0  0  0  0  0  0  0
   -3.1873   -2.5755    0.8089 C   0  0  0  0  0  0  0  0  0  0  0  0
   -3.8793   -1.9065    1.3169 H   0  0  0  0  0  0  0  0  0  0  0  0
   -3.4623   -2.6685   -0.2401 H   0  0  0  0  0  0  0  0  0  0  0  0
   -1.7863   -2.0195    0.9119 C   0  0  0  0  0  0  0  0  0  0  0  0
   -0.9073   -2.6615    1.4699 O   0  0  0  0  0  0  0  0  0  0  0  0
   -1.5803   -0.8195    0.3749 N   0  0  0  0  0  0  0  0  0  0  0  0
   -2.3603   -0.3345   -0.0451 H   0  0  0  0  0  0  0  0  0  0  0  0
   -0.2933   -0.1205    0.3719 C   0  0  1  0  0  0  0  0  0  0  0  0
    0.4439   -0.7485   -0.1303 H   0  0  0  0  0  0  0  0  0  0  0  0
   -0.4368    1.1924   -0.4246 C   0  0  0  0  0  0  0  0  0  0  0  0
   -0.1842    2.0211    0.2392 H   0  0  0  0  0  0  0  0  0  0  0  0
    0.2748    1.1912   -1.2516 H   0  0  0  0  0  0  0  0  0  0  0  0
   -1.8470    1.4255   -0.9937 C   0  0  0  0  0  0  0  0  0  0  0  0
   -1.8524    1.2267   -2.0655 H   0  0  0  0  0  0  0  0  0  0  0  0
   -2.5471    0.7507   -0.5024 H   0  0  0  0  0  0  0  0  0  0  0  0
   -2.3314    2.8546   -0.7713 C   0  0  0  0  0  0  0  0  0  0  0  0
   -1.7486    3.6962   -0.1066 O   0  0  0  0  0  0  0  0  0  0  0  0
   -3.5003    3.1688   -1.3601 O   0  0  0  0  0  0  0  0  0  0  0  0
   -3.6670    4.0811   -1.1166 H   0  0  0  0  0  0  0  0  0  0  0  0
    0.1871    0.1189    1.8122 C   0  0  0  0  0  0  0  0  0  0  0  0
    1.3541   -0.1171    2.1187 O   0  0  0  0  0  0  0  0  0  0  0  0
   -0.7126    0.5740    2.6926 N   0  0  0  0  0  0  0  0  0  0  0  0
   -1.6464    0.7663    2.3621 H   0  0  0  0  0  0  0  0  0  0  0  0
   -0.4191    0.8310    4.1010 C   0  0  0  0  0  0  0  0  0  0  0  0
    0.4022    1.5452    4.1828 H   0  0  0  0  0  0  0  0  0  0  0  0
   -1.2983    1.2366    4.6035 H   0  0  0  0  0  0  0  0  0  0  0  0
   -0.1204   -0.0980    4.5907 H   0  0  0  0  0  0  0  0  0  0  0  0
  5  6  2  0  0  0  0
  5  7  1  0  0  0  0
  2  3  1  0  0  0  0
  2  4  1  0  0  0  0
  2  5  1  0  0  0  0
  1  2  1  0  0  0  0
 21 22  2  0  0  0  0
 21 23  1  0  0  0  0
 19 20  1  0  0  0  0
 17 18  2  0  0  0  0
 17 19  1  0  0  0  0
 14 15  1  0  0  0  0
 14 16  1  0  0  0  0
 14 17  1  0  0  0  0
 11 12  1  0  0  0  0
 11 13  1  0  0  0  0
 11 14  1  0  0  0  0
  9 10  1  0  0  0  0
  9 11  1  0  0  0  0
  9 21  1  0  0  0  0
  7  8  1  0  0  0  0
  7  9  1  0  0  0  0
 25 26  1  0  0  0  0
 25 27  1  0  0  0  0
 25 28  1  0  0  0  0
 23 24  1  0  0  0  0
 23 25  1  0  0  0  0
M  END
$$$$
default_name
  -OEChem-02102213163D

 28 27  0     1  0  0  0  0  0999 V2000
   -3.2133   -3.5565    1.2809 H   0  0  0  0  0  0  0  0  0  0  0  0
   -3.1873   -2.5755    0.8089 C   0  0  0  0  0  0  0  0  0  0  0  0
   -3.8793   -1.9065    1.3169 H   0  0  0  0  0  0  0  0  0  0  0  0
   -3.4623   -2.6685   -0.2401 H   0  0  0  0  0  0  0  0  0  0  0  0
   -1.7863   -2.0195    0.9119 C   0  0  0  0  0  0  0  0  0  0  0  0
   -0.9073   -2.6615    1.4699 O   0  0  0  0  0  0  0  0  0  0  0  0
   -1.5803   -0.8195    0.3749 N   0  0  0  0  0  0  0  0  0  0  0  0
   -2.3603   -0.3345   -0.0451 H   0  0  0  0  0  0  0  0  0  0  0  0
   -0.2933   -0.1205    0.3719 C   0  0  1  0  0  0  0  0  0  0  0  0
    0.4439   -0.7485   -0.1303 H   0  0  0  0  0  0  0  0  0  0  0  0
   -0.4368    1.1924   -0.4246 C   0  0  0  0  0  0  0  0  0  0  0  0
   -0.1842    2.0211    0.2392 H   0  0  0  0  0  0  0  0  0  0  0  0
    0.2748    1.1912   -1.2516 H   0  0  0  0  0  0  0  0  0  0  0  0
   -1.8470    1.4255   -0.9937 C   0  0  0  0  0  0  0  0  0  0  0  0
   -1.9249    0.9816   -1.9863 H   0  0  0  0  0  0  0  0  0  0  0  0
   -2.5798    0.9591   -0.3362 H   0  0  0  0  0  0  0  0  0  0  0  0
   -2.1874    2.9080   -1.1062 C   0  0  0  0  0  0  0  0  0  0  0  0
   -1.4975    3.8195   -0.6784 O   0  0  0  0  0  0  0  0  0  0  0  0
   -3.3512    3.1907   -1.7205 O   0  0  0  0  0  0  0  0  0  0  0  0
   -3.4216    4.1466   -1.6977 H   0  0  0  0  0  0  0  0  0  0  0  0
    0.1871    0.1189    1.8122 C   0  0  0  0  0  0  0  0  0  0  0  0
    1.3541   -0.1171    2.1187 O   0  0  0  0  0  0  0  0  0  0  0  0
   -0.7126    0.5740    2.6926 N   0  0  0  0  0  0  0  0  0  0  0  0
   -1.6464    0.7663    2.3621 H   0  0  0  0  0  0  0  0  0  0  0  0
   -0.4191    0.8310    4.1010 C   0  0  0  0  0  0  0  0  0  0  0  0
    0.4022    1.5452    4.1828 H   0  0  0  0  0  0  0  0  0  0  0  0
   -1.2983    1.2366    4.6035 H   0  0  0  0  0  0  0  0  0  0  0  0
   -0.1204   -0.0980    4.5907 H   0  0  0  0  0  0  0  0  0  0  0  0
  5  6  2  0  0  0  0
  5  7  1  0  0  0  0
  2  3  1  0  0  0  0
  2  4  1  0  0  0  0
  2  5  1  0  0  0  0
  1  2  1  0  0  0  0
 21 22  2  0  0  0  0
 21 23  1  0  0  0  0
 19 20  1  0  0  0  0
 17 18  2  0  0  0  0
 17 19  1  0  0  0  0
 14 15  1  0  0  0  0
 14 16  1  0  0  0  0
 14 17  1  0  0  0  0
 11 12  1  0  0  0  0
 11 13  1  0  0  0  0
 11 14  1  0  0  0  0
  9 10  1  0  0  0  0
  9 11  1  0  0  0  0
  9 21  1  0  0  0  0
  7  8  1  0  0  0  0
  7  9  1  0  0  0  0
 25 26  1  0  0  0  0
 25 27  1  0  0  0  0
 25 28  1  0  0  0  0
 23 24  1  0  0  0  0
 23 25  1  0  0  0  0
M  END
$$$$
default_name
  -OEChem-02102213163D

 28 27  0     1  0  0  0  0  0999 V2000
   -3.2133   -3.5565    1.2809 H   0  0  0  0  0  0  0  0  0  0  0  0
   -3.1873   -2.5755    0.8089 C   0  0  0  0  0  0  0  0  0  0  0  0
   -3.8793   -1.9065    1.3169 H   0  0  0  0  0  0  0  0  0  0  0  0
   -3.4623   -2.6685   -0.2401 H   0  0  0  0  0  0  0  0  0  0  0  0
   -1.7863   -2.0195    0.9119 C   0  0  0  0  0  0  0  0  0  0  0  0
   -0.9073   -2.6615    1.4699 O   0  0  0  0  0  0  0  0  0  0  0  0
   -1.5803   -0.8195    0.3749 N   0  0  0  0  0  0  0  0  0  0  0  0
   -2.3603   -0.3345   -0.0451 H   0  0  0  0  0  0  0  0  0  0  0  0
   -0.2933   -0.1205    0.3719 C   0  0  1  0  0  0  0  0  0  0  0  0
    0.4439   -0.7485   -0.1303 H   0  0  0  0  0  0  0  0  0  0  0  0
   -0.4368    1.1924   -0.4246 C   0  0  0  0  0  0  0  0  0  0  0  0
   -0.1842    2.0211    0.2392 H   0  0  0  0  0  0  0  0  0  0  0  0
    0.2748    1.1912   -1.2516 H   0  0  0  0  0  0  0  0  0  0  0  0
   -1.8470    1.4255   -0.9937 C   0  0  0  0  0  0  0  0  0  0  0  0
   -2.0152    0.7706   -1.8488 H   0  0  0  0  0  0  0  0  0  0  0  0
   -2.5849    1.2030   -0.2237 H   0  0  0  0  0  0  0  0  0  0  0  0
   -2.0564    2.8664   -1.4481 C   0  0  0  0  0  0  0  0  0  0  0  0
   -1.2655    3.7788   -1.2699 O   0  0  0  0  0  0  0  0  0  0  0  0
   -3.2193    3.1120   -2.0797 O   0  0  0  0  0  0  0  0  0  0  0  0
   -3.2011    4.0485   -2.2843 H   0  0  0  0  0  0  0  0  0  0  0  0
    0.1871    0.1189    1.8122 C   0  0  0  0  0  0  0  0  0  0  0  0
    1.3541   -0.1171    2.1187 O   0  0  0  0  0  0  0  0  0  0  0  0
   -0.7126    0.5740    2.6926 N   0  0  0  0  0  0  0  0  0  0  0  0
   -1.6464    0.7663    2.3621 H   0  0  0  0  0  0  0  0  0  0  0  0
   -0.4191    0.8310    4.1010 C   0  0  0  0  0  0  0  0  0  0  0  0
    0.4022    1.5452    4.1828 H   0  0  0  0  0  0  0  0  0  0  0  0
   -1.2983    1.2366    4.6035 H   0  0  0  0  0  0  0  0  0  0  0  0
   -0.1204   -0.0980    4.5907 H   0  0  0  0  0  0  0  0  0  0  0  0
  5  6  2  0  0  0  0
  5  7  1  0  0  0  0
  2  3  1  0  0  0  0
  2  4  1  0  0  0  0
  2  5  1  0  0  0  0
  1  2  1  0  0  0  0
 21 22  2  0  0  0  0
 21 23  1  0  0  0  0
 19 20  1  0  0  0  0
 17 18  2  0  0  0  0
 17 19  1  0  0  0  0
 14 15  1  0  0  0  0
 14 16  1  0  0  0  0
 14 17  1  0  0  0  0
 11 12  1  0  0  0  0
 11 13  1  0  0  0  0
 11 14  1  0  0  0  0
  9 10  1  0  0  0  0
  9 11  1  0  0  0  0
  9 21  1  0  0  0  0
  7  8  1  0  0  0  0
  7  9  1  0  0  0  0
 25 26  1  0  0  0  0
 25 27  1  0  0  0  0
 25 28  1  0  0  0  0
 23 24  1  0  0  0  0
 23 25  1  0  0  0  0
M  END
$$$$
default_name
  -OEChem-02102213163D

 28 27  0     1  0  0  0  0  0999 V2000
   -3.2133   -3.5565    1.2809 H   0  0  0  0  0  0  0  0  0  0  0  0
   -3.1873   -2.5755    0.8089 C   0  0  0  0  0  0  0  0  0  0  0  0
   -3.8793   -1.9065    1.3169 H   0  0  0  0  0  0  0  0  0  0  0  0
   -3.4623   -2.6685   -0.2401 H   0  0  0  0  0  0  0  0  0  0  0  0
   -1.7863   -2.0195    0.9119 C   0  0  0  0  0  0  0  0  0  0  0  0
   -0.9073   -2.6615    1.4699 O   0  0  0  0  0  0  0  0  0  0  0  0
   -1.5803   -0.8195    0.3749 N   0  0  0  0  0  0  0  0  0  0  0  0
   -2.3603   -0.3345   -0.0451 H   0  0  0  0  0  0  0  0  0  0  0  0
   -0.2933   -0.1205    0.3719 C   0  0  1  0  0  0  0  0  0  0  0  0
    0.4439   -0.7485   -0.1303 H   0  0  0  0  0  0  0  0  0  0  0  0
   -0.4368    1.1924   -0.4246 C   0  0  0  0  0  0  0  0  0  0  0  0
    0.0631    1.9849    0.1350 H   0  0  0  0  0  0  0  0  0  0  0  0
    0.0670    1.0867   -1.3865 H   0  0  0  0  0  0  0  0  0  0  0  0
   -1.8952    1.6104   -0.6802 C   0  0  0  0  0  0  0  0  0  0  0  0
   -2.4118    0.8315   -1.2411 H   0  0  0  0  0  0  0  0  0  0  0  0
   -2.3985    1.7553    0.2750 H   0  0  0  0  0  0  0  0  0  0  0  0
   -1.9938    2.9117   -1.4697 C   0  0  0  0  0  0  0  0  0  0  0  0
   -1.0492    3.6280   -1.7603 O   0  0  0  0  0  0  0  0  0  0  0  0
   -3.2358    3.2686   -1.8464 O   0  0  0  0  0  0  0  0  0  0  0  0
   -3.1279    4.0995   -2.3125 H   0  0  0  0  0  0  0  0  0  0  0  0
    0.1871    0.1189    1.8122 C   0  0  0  0  0  0  0  0  0  0  0  0
    1.3541   -0.1171    2.1187 O   0  0  0  0  0  0  0  0  0  0  0  0
   -0.7126    0.5740    2.6926 N   0  0  0  0  0  0  0  0  0  0  0  0
   -1.6464    0.7663    2.3621 H   0  0  0  0  0  0  0  0  0  0  0  0
   -0.4191    0.8310    4.1010 C   0  0  0  0  0  0  0  0  0  0  0  0
    0.4022    1.5452    4.1828 H   0  0  0  0  0  0  0  0  0  0  0  0
   -1.2983    1.2366    4.6035 H   0  0  0  0  0  0  0  0  0  0  0  0
   -0.1204   -0.0980    4.5907 H   0  0  0  0  0  0  0  0  0  0  0  0
  5  6  2  0  0  0  0
  5  7  1  0  0  0  0
  2  3  1  0  0  0  0
  2  4  1  0  0  0  0
  2  5  1  0  0  0  0
  1  2  1  0  0  0  0
 21 22  2  0  0  0  0
 21 23  1  0  0  0  0
 19 20  1  0  0  0  0
 17 18  2  0  0  0  0
 17 19  1  0  0  0  0
 14 15  1  0  0  0  0
 14 16  1  0  0  0  0
 14 17  1  0  0  0  0
 11 12  1  0  0  0  0
 11 13  1  0  0  0  0
 11 14  1  0  0  0  0
  9 10  1  0  0  0  0
  9 11  1  0  0  0  0
  9 21  1  0  0  0  0
  7  8  1  0  0  0  0
  7  9  1  0  0  0  0
 25 26  1  0  0  0  0
 25 27  1  0  0  0  0
 25 28  1  0  0  0  0
 23 24  1  0  0  0  0
 23 25  1  0  0  0  0
M  END
$$$$
default_name
  -OEChem-02102213163D

 28 27  0     1  0  0  0  0  0999 V2000
   -3.2133   -3.5565    1.2809 H   0  0  0  0  0  0  0  0  0  0  0  0
   -3.1873   -2.5755    0.8089 C   0  0  0  0  0  0  0  0  0  0  0  0
   -3.8793   -1.9065    1.3169 H   0  0  0  0  0  0  0  0  0  0  0  0
   -3.4623   -2.6685   -0.2401 H   0  0  0  0  0  0  0  0  0  0  0  0
   -1.7863   -2.0195    0.9119 C   0  0  0  0  0  0  0  0  0  0  0  0
   -0.9073   -2.6615    1.4699 O   0  0  0  0  0  0  0  0  0  0  0  0
   -1.5803   -0.8195    0.3749 N   0  0  0  0  0  0  0  0  0  0  0  0
   -2.3603   -0.3345   -0.0451 H   0  0  0  0  0  0  0  0  0  0  0  0
   -0.2933   -0.1205    0.3719 C   0  0  1  0  0  0  0  0  0  0  0  0
    0.4439   -0.7485   -0.1303 H   0  0  0  0  0  0  0  0  0  0  0  0
   -0.4368    1.1924   -0.4246 C   0  0  0  0  0  0  0  0  0  0  0  0
    0.0631    1.9849    0.1350 H   0  0  0  0  0  0  0  0  0  0  0  0
    0.0670    1.0867   -1.3865 H   0  0  0  0  0  0  0  0  0  0  0  0
   -1.8952    1.6104   -0.6802 C   0  0  0  0  0  0  0  0  0  0  0  0
   -2.4791    0.7460   -0.9967 H   0  0  0  0  0  0  0  0  0  0  0  0
   -2.3195    2.0097    0.2403 H   0  0  0  0  0  0  0  0  0  0  0  0
   -2.0087    2.6833   -1.7584 C   0  0  0  0  0  0  0  0  0  0  0  0
   -1.0648    3.2571   -2.2775 O   0  0  0  0  0  0  0  0  0  0  0  0
   -3.2627    3.0014   -2.1300 O   0  0  0  0  0  0  0  0  0  0  0  0
   -3.1620    3.6868   -2.7929 H   0  0  0  0  0  0  0  0  0  0  0  0
    0.1871    0.1189    1.8122 C   0  0  0  0  0  0  0  0  0  0  0  0
    1.3541   -0.1171    2.1187 O   0  0  0  0  0  0  0  0  0  0  0  0
   -0.7126    0.5740    2.6926 N   0  0  0  0  0  0  0  0  0  0  0  0
   -1.6464    0.7663    2.3621 H   0  0  0  0  0  0  0  0  0  0  0  0
   -0.4191    0.8310    4.1010 C   0  0  0  0  0  0  0  0  0  0  0  0
    0.4022    1.5452    4.1828 H   0  0  0  0  0  0  0  0  0  0  0  0
   -1.2983    1.2366    4.6035 H   0  0  0  0  0  0  0  0  0  0  0  0
   -0.1204   -0.0980    4.5907 H   0  0  0  0  0  0  0  0  0  0  0  0
  5  6  2  0  0  0  0
  5  7  1  0  0  0  0
  2  3  1  0  0  0  0
  2  4  1  0  0  0  0
  2  5  1  0  0  0  0
  1  2  1  0  0  0  0
 21 22  2  0  0  0  0
 21 23  1  0  0  0  0
 19 20  1  0  0  0  0
 17 18  2  0  0  0  0
 17 19  1  0  0  0  0
 14 15  1  0  0  0  0
 14 16  1  0  0  0  0
 14 17  1  0  0  0  0
 11 12  1  0  0  0  0
 11 13  1  0  0  0  0
 11 14  1  0  0  0  0
  9 10  1  0  0  0  0
  9 11  1  0  0  0  0
  9 21  1  0  0  0  0
  7  8  1  0  0  0  0
  7  9  1  0  0  0  0
 25 26  1  0  0  0  0
 25 27  1  0  0  0  0
 25 28  1  0  0  0  0
 23 24  1  0  0  0  0
 23 25  1  0  0  0  0
M  END
$$$$
default_name
  -OEChem-02102213163D

 28 27  0     1  0  0  0  0  0999 V2000
   -3.2133   -3.5565    1.2809 H   0  0  0  0  0  0  0  0  0  0  0  0
   -3.1873   -2.5755    0.8089 C   0  0  0  0  0  0  0  0  0  0  0  0
   -3.8793   -1.9065    1.3169 H   0  0  0  0  0  0  0  0  0  0  0  0
   -3.4623   -2.6685   -0.2401 H   0  0  0  0  0  0  0  0  0  0  0  0
   -1.7863   -2.0195    0.9119 C   0  0  0  0  0  0  0  0  0  0  0  0
   -0.9073   -2.6615    1.4699 O   0  0  0  0  0  0  0  0  0  0  0  0
   -1.5803   -0.8195    0.3749 N   0  0  0  0  0  0  0  0  0  0  0  0
   -2.3603   -0.3345   -0.0451 H   0  0  0  0  0  0  0  0  0  0  0  0
   -0.2933   -0.1205    0.3719 C   0  0  1  0  0  0  0  0  0  0  0  0
    0.4439   -0.7485   -0.1303 H   0  0  0  0  0  0  0  0  0  0  0  0
   -0.4368    1.1924   -0.4246 C   0  0  0  0  0  0  0  0  0  0  0  0
    0.0631    1.9849    0.1350 H   0  0  0  0  0  0  0  0  0  0  0  0
    0.0670    1.0867   -1.3865 H   0  0  0  0  0  0  0  0  0  0  0  0
   -1.8952    1.6104   -0.6802 C   0  0  0  0  0  0  0  0  0  0  0  0
   -2.5306    0.7264   -0.7349 H   0  0  0  0  0  0  0  0  0  0  0  0
   -2.2348    2.2434    0.1388 H   0  0  0  0  0  0  0  0  0  0  0  0
   -2.0532    2.3924   -1.9802 C   0  0  0  0  0  0  0  0  0  0  0  0
   -1.1322    2.7727   -2.6851 O   0  0  0  0  0  0  0  0  0  0  0  0
   -3.3201    2.6748   -2.3366 O   0  0  0  0  0  0  0  0  0  0  0  0
   -3.2464    3.1717   -3.1532 H   0  0  0  0  0  0  0  0  0  0  0  0
    0.1871    0.1189    1.8122 C   0  0  0  0  0  0  0  0  0  0  0  0
    1.3541   -0.1171    2.1187 O   0  0  0  0  0  0  0  0  0  0  0  0
   -0.7126    0.5740    2.6926 N   0  0  0  0  0  0  0  0  0  0  0  0
   -1.6464    0.7663    2.3621 H   0  0  0  0  0  0  0  0  0  0  0  0
   -0.4191    0.8310    4.1010 C   0  0  0  0  0  0  0  0  0  0  0  0
    0.4022    1.5452    4.1828 H   0  0  0  0  0  0  0  0  0  0  0  0
   -1.2983    1.2366    4.6035 H   0  0  0  0  0  0  0  0  0  0  0  0
   -0.1204   -0.0980    4.5907 H   0  0  0  0  0  0  0  0  0  0  0  0
  5  6  2  0  0  0  0
  5  7  1  0  0  0  0
  2  3  1  0  0  0  0
  2  4  1  0  0  0  0
  2  5  1  0  0  0  0
  1  2  1  0  0  0  0
 21 22  2  0  0  0  0
 21 23  1  0  0  0  0
 19 20  1  0  0  0  0
 17 18  2  0  0  0  0
 17 19  1  0  0  0  0
 14 15  1  0  0  0  0
 14 16  1  0  0  0  0
 14 17  1  0  0  0  0
 11 12  1  0  0  0  0
 11 13  1  0  0  0  0
 11 14  1  0  0  0  0
  9 10  1  0  0  0  0
  9 11  1  0  0  0  0
  9 21  1  0  0  0  0
  7  8  1  0  0  0  0
  7  9  1  0  0  0  0
 25 26  1  0  0  0  0
 25 27  1  0  0  0  0
 25 28  1  0  0  0  0
 23 24  1  0  0  0  0
 23 25  1  0  0  0  0
M  END
$$$$
default_name
  -OEChem-02102213163D

 28 27  0     1  0  0  0  0  0999 V2000
   -3.2133   -3.5565    1.2809 H   0  0  0  0  0  0  0  0  0  0  0  0
   -3.1873   -2.5755    0.8089 C   0  0  0  0  0  0  0  0  0  0  0  0
   -3.8793   -1.9065    1.3169 H   0  0  0  0  0  0  0  0  0  0  0  0
   -3.4623   -2.6685   -0.2401 H   0  0  0  0  0  0  0  0  0  0  0  0
   -1.7863   -2.0195    0.9119 C   0  0  0  0  0  0  0  0  0  0  0  0
   -0.9073   -2.6615    1.4699 O   0  0  0  0  0  0  0  0  0  0  0  0
   -1.5803   -0.8195    0.3749 N   0  0  0  0  0  0  0  0  0  0  0  0
   -2.3603   -0.3345   -0.0451 H   0  0  0  0  0  0  0  0  0  0  0  0
   -0.2933   -0.1205    0.3719 C   0  0  1  0  0  0  0  0  0  0  0  0
    0.4439   -0.7485   -0.1303 H   0  0  0  0  0  0  0  0  0  0  0  0
   -0.4368    1.1924   -0.4246 C   0  0  0  0  0  0  0  0  0  0  0  0
    0.0631    1.9849    0.1350 H   0  0  0  0  0  0  0  0  0  0  0  0
    0.0670    1.0867   -1.3865 H   0  0  0  0  0  0  0  0  0  0  0  0
   -1.8952    1.6104   -0.6802 C   0  0  0  0  0  0  0  0  0  0  0  0
   -2.5628    0.7738   -0.4736 H   0  0  0  0  0  0  0  0  0  0  0  0
   -2.1500    2.4407   -0.0226 H   0  0  0  0  0  0  0  0  0  0  0  0
   -2.1243    2.0590   -2.1199 C   0  0  0  0  0  0  0  0  0  0  0  0
   -1.2468    2.2077   -2.9552 O   0  0  0  0  0  0  0  0  0  0  0  0
   -3.4041    2.3111   -2.4520 O   0  0  0  0  0  0  0  0  0  0  0  0
   -3.3755    2.5895   -3.3690 H   0  0  0  0  0  0  0  0  0  0  0  0
    0.1871    0.1189    1.8122 C   0  0  0  0  0  0  0  0  0  0  0  0
    1.3541   -0.1171    2.1187 O   0  0  0  0  0  0  0  0  0  0  0  0
   -0.7126    0.5740    2.6926 N   0  0  0  0  0  0  0  0  0  0  0  0
   -1.6464    0.7663    2.3621 H   0  0  0  0  0  0  0  0  0  0  0  0
   -0.4191    0.8310    4.1010 C   0  0  0  0  0  0  0  0  0  0  0  0
    0.4022    1.5452    4.1828 H   0  0  0  0  0  0  0  0  0  0  0  0
   -1.2983    1.2366    4.6035 H   0  0  0  0  0  0  0  0  0  0  0  0
   -0.1204   -0.0980    4.5907 H   0  0  0  0  0  0  0  0  0  0  0  0
  5  6  2  0  0  0  0
  5  7  1  0  0  0  0
  2  3  1  0  0  0  0
  2  4  1  0  0  0  0
  2  5  1  0  0  0  0
  1  2  1  0  0  0  0
 21 22  2  0  0  0  0
 21 23  1  0  0  0  0
 19 20  1  0  0  0  0
 17 18  2  0  0  0  0
 17 19  1  0  0  0  0
 14 15  1  0  0  0  0
 14 16  1  0  0  0  0
 14 17  1  0  0  0  0
 11 12  1  0  0  0  0
 11 13  1  0  0  0  0
 11 14  1  0  0  0  0
  9 10  1  0  0  0  0
  9 11  1  0  0  0  0
  9 21  1  0  0  0  0
  7  8  1  0  0  0  0
  7  9  1  0  0  0  0
 25 26  1  0  0  0  0
 25 27  1  0  0  0  0
 25 28  1  0  0  0  0
 23 24  1  0  0  0  0
 23 25  1  0  0  0  0
M  END
$$$$
default_name
  -OEChem-02102213163D

 28 27  0     1  0  0  0  0  0999 V2000
   -3.2133   -3.5565    1.2809 H   0  0  0  0  0  0  0  0  0  0  0  0
   -3.1873   -2.5755    0.8089 C   0  0  0  0  0  0  0  0  0  0  0  0
   -3.8793   -1.9065    1.3169 H   0  0  0  0  0  0  0  0  0  0  0  0
   -3.4623   -2.6685   -0.2401 H   0  0  0  0  0  0  0  0  0  0  0  0
   -1.7863   -2.0195    0.9119 C   0  0  0  0  0  0  0  0  0  0  0  0
   -0.9073   -2.6615    1.4699 O   0  0  0  0  0  0  0  0  0  0  0  0
   -1.5803   -0.8195    0.3749 N   0  0  0  0  0  0  0  0  0  0  0  0
   -2.3603   -0.3345   -0.0451 H   0  0  0  0  0  0  0  0  0  0  0  0
   -0.2933   -0.1205    0.3719 C   0  0  1  0  0  0  0  0  0  0  0  0
    0.4439   -0.7485   -0.1303 H   0  0  0  0  0  0  0  0  0  0  0  0
   -0.4368    1.1924   -0.4246 C   0  0  0  0  0  0  0  0  0  0  0  0
    0.0631    1.9849    0.1350 H   0  0  0  0  0  0  0  0  0  0  0  0
    0.0670    1.0867   -1.3865 H   0  0  0  0  0  0  0  0  0  0  0  0
   -1.8952    1.6104   -0.6802 C   0  0  0  0  0  0  0  0  0  0  0  0
   -2.5735    0.8852   -0.2305 H   0  0  0  0  0  0  0  0  0  0  0  0
   -2.0709    2.5880   -0.2328 H   0  0  0  0  0  0  0  0  0  0  0  0
   -2.2171    1.7057   -2.1681 C   0  0  0  0  0  0  0  0  0  0  0  0
   -1.4008    1.6007   -3.0694 O   0  0  0  0  0  0  0  0  0  0  0  0
   -3.5090    1.9351   -2.4682 O   0  0  0  0  0  0  0  0  0  0  0  0
   -3.5404    1.9796   -3.4255 H   0  0  0  0  0  0  0  0  0  0  0  0
    0.1871    0.1189    1.8122 C   0  0  0  0  0  0  0  0  0  0  0  0
    1.3541   -0.1171    2.1187 O   0  0  0  0  0  0  0  0  0  0  0  0
   -0.7126    0.5740    2.6926 N   0  0  0  0  0  0  0  0  0  0  0  0
   -1.6464    0.7663    2.3621 H   0  0  0  0  0  0  0  0  0  0  0  0
   -0.4191    0.8310    4.1010 C   0  0  0  0  0  0  0  0  0  0  0  0
    0.4022    1.5452    4.1828 H   0  0  0  0  0  0  0  0  0  0  0  0
   -1.2983    1.2366    4.6035 H   0  0  0  0  0  0  0  0  0  0  0  0
   -0.1204   -0.0980    4.5907 H   0  0  0  0  0  0  0  0  0  0  0  0
  5  6  2  0  0  0  0
  5  7  1  0  0  0  0
  2  3  1  0  0  0  0
  2  4  1  0  0  0  0
  2  5  1  0  0  0  0
  1  2  1  0  0  0  0
 21 22  2  0  0  0  0
 21 23  1  0  0  0  0
 19 20  1  0  0  0  0
 17 18  2  0  0  0  0
 17 19  1  0  0  0  0
 14 15  1  0  0  0  0
 14 16  1  0  0  0  0
 14 17  1  0  0  0  0
 11 12  1  0  0  0  0
 11 13  1  0  0  0  0
 11 14  1  0  0  0  0
  9 10  1  0  0  0  0
  9 11  1  0  0  0  0
  9 21  1  0  0  0  0
  7  8  1  0  0  0  0
  7  9  1  0  0  0  0
 25 26  1  0  0  0  0
 25 27  1  0  0  0  0
 25 28  1  0  0  0  0
 23 24  1  0  0  0  0
 23 25  1  0  0  0  0
M  END
$$$$
default_name
  -OEChem-02102213163D

 28 27  0     1  0  0  0  0  0999 V2000
   -3.2133   -3.5565    1.2809 H   0  0  0  0  0  0  0  0  0  0  0  0
   -3.1873   -2.5755    0.8089 C   0  0  0  0  0  0  0  0  0  0  0  0
   -3.8793   -1.9065    1.3169 H   0  0  0  0  0  0  0  0  0  0  0  0
   -3.4623   -2.6685   -0.2401 H   0  0  0  0  0  0  0  0  0  0  0  0
   -1.7863   -2.0195    0.9119 C   0  0  0  0  0  0  0  0  0  0  0  0
   -0.9073   -2.6615    1.4699 O   0  0  0  0  0  0  0  0  0  0  0  0
   -1.5803   -0.8195    0.3749 N   0  0  0  0  0  0  0  0  0  0  0  0
   -2.3603   -0.3345   -0.0451 H   0  0  0  0  0  0  0  0  0  0  0  0
   -0.2933   -0.1205    0.3719 C   0  0  1  0  0  0  0  0  0  0  0  0
    0.4439   -0.7485   -0.1303 H   0  0  0  0  0  0  0  0  0  0  0  0
   -0.4368    1.1924   -0.4246 C   0  0  0  0  0  0  0  0  0  0  0  0
    0.0631    1.9849    0.1350 H   0  0  0  0  0  0  0  0  0  0  0  0
    0.0670    1.0867   -1.3865 H   0  0  0  0  0  0  0  0  0  0  0  0
   -1.8952    1.6104   -0.6802 C   0  0  0  0  0  0  0  0  0  0  0  0
   -2.5619    1.0528   -0.0223 H   0  0  0  0  0  0  0  0  0  0  0  0
   -2.0030    2.6753   -0.4776 H   0  0  0  0  0  0  0  0  0  0  0  0
   -2.3253    1.3566   -2.1214 C   0  0  0  0  0  0  0  0  0  0  0  0
   -1.5836    0.9929   -3.0199 O   0  0  0  0  0  0  0  0  0  0  0  0
   -3.6276    1.5725   -2.3844 O   0  0  0  0  0  0  0  0  0  0  0  0
   -3.7298    1.3838   -3.3188 H   0  0  0  0  0  0  0  0  0  0  0  0
    0.1871    0.1189    1.8122 C   0  0  0  0  0  0  0  0  0  0  0  0
    1.3541   -0.1171    2.1187 O   0  0  0  0  0  0  0  0  0  0  0  0
   -0.7126    0.5740    2.6926 N   0  0  0  0  0  0  0  0  0  0  0  0
   -1.6464    0.7663    2.3621 H   0  0  0  0  0  0  0  0  0  0  0  0
   -0.4191    0.8310    4.1010 C   0  0  0  0  0  0  0  0  0  0  0  0
    0.4022    1.5452    4.1828 H   0  0  0  0  0  0  0  0  0  0  0  0
   -1.2983    1.2366    4.6035 H   0  0  0  0  0  0  0  0  0  0  0  0
   -0.1204   -0.0980    4.5907 H   0  0  0  0  0  0  0  0  0  0  0  0
  5  6  2  0  0  0  0
  5  7  1  0  0  0  0
  2  3  1  0  0  0  0
  2  4  1  0  0  0  0
  2  5  1  0  0  0  0
  1  2  1  0  0  0  0
 21 22  2  0  0  0  0
 21 23  1  0  0  0  0
 19 20  1  0  0  0  0
 17 18  2  0  0  0  0
 17 19  1  0  0  0  0
 14 15  1  0  0  0  0
 14 16  1  0  0  0  0
 14 17  1  0  0  0  0
 11 12  1  0  0  0  0
 11 13  1  0  0  0  0
 11 14  1  0  0  0  0
  9 10  1  0  0  0  0
  9 11  1  0  0  0  0
  9 21  1  0  0  0  0
  7  8  1  0  0  0  0
  7  9  1  0  0  0  0
 25 26  1  0  0  0  0
 25 27  1  0  0  0  0
 25 28  1  0  0  0  0
 23 24  1  0  0  0  0
 23 25  1  0  0  0  0
M  END
$$$$
default_name
  -OEChem-02102213163D

 28 27  0     1  0  0  0  0  0999 V2000
   -3.2133   -3.5565    1.2809 H   0  0  0  0  0  0  0  0  0  0  0  0
   -3.1873   -2.5755    0.8089 C   0  0  0  0  0  0  0  0  0  0  0  0
   -3.8793   -1.9065    1.3169 H   0  0  0  0  0  0  0  0  0  0  0  0
   -3.4623   -2.6685   -0.2401 H   0  0  0  0  0  0  0  0  0  0  0  0
   -1.7863   -2.0195    0.9119 C   0  0  0  0  0  0  0  0  0  0  0  0
   -0.9073   -2.6615    1.4699 O   0  0  0  0  0  0  0  0  0  0  0  0
   -1.5803   -0.8195    0.3749 N   0  0  0  0  0  0  0  0  0  0  0  0
   -2.3603   -0.3345   -0.0451 H   0  0  0  0  0  0  0  0  0  0  0  0
   -0.2933   -0.1205    0.3719 C   0  0  1  0  0  0  0  0  0  0  0  0
    0.4439   -0.7485   -0.1303 H   0  0  0  0  0  0  0  0  0  0  0  0
   -0.4368    1.1924   -0.4246 C   0  0  0  0  0  0  0  0  0  0  0  0
    0.0631    1.9849    0.1350 H   0  0  0  0  0  0  0  0  0  0  0  0
    0.0670    1.0867   -1.3865 H   0  0  0  0  0  0  0  0  0  0  0  0
   -1.8952    1.6104   -0.6802 C   0  0  0  0  0  0  0  0  0  0  0  0
   -2.5289    1.2653    0.1369 H   0  0  0  0  0  0  0  0  0  0  0  0
   -1.9508    2.6967   -0.7402 H   0  0  0  0  0  0  0  0  0  0  0  0
   -2.4416    1.0355   -1.9830 C   0  0  0  0  0  0  0  0  0  0  0  0
   -1.7829    0.4258   -2.8102 O   0  0  0  0  0  0  0  0  0  0  0  0
   -3.7519    1.2479   -2.2060 O   0  0  0  0  0  0  0  0  0  0  0  0
   -3.9309    0.8426   -3.0563 H   0  0  0  0  0  0  0  0  0  0  0  0
    0.1871    0.1189    1.8122 C   0  0  0  0  0  0  0  0  0  0  0  0
    1.3541   -0.1171    2.1187 O   0  0  0  0  0  0  0  0  0  0  0  0
   -0.7126    0.5740    2.6926 N   0  0  0  0  0  0  0  0  0  0  0  0
   -1.6464    0.7663    2.3621 H   0  0  0  0  0  0  0  0  0  0  0  0
   -0.4191    0.8310    4.1010 C   0  0  0  0  0  0  0  0  0  0  0  0
    0.4022    1.5452    4.1828 H   0  0  0  0  0  0  0  0  0  0  0  0
   -1.2983    1.2366    4.6035 H   0  0  0  0  0  0  0  0  0  0  0  0
   -0.1204   -0.0980    4.5907 H   0  0  0  0  0  0  0  0  0  0  0  0
  5  6  2  0  0  0  0
  5  7  1  0  0  0  0
  2  3  1  0  0  0  0
  2  4  1  0  0  0  0
  2  5  1  0  0  0  0
  1  2  1  0  0  0  0
 21 22  2  0  0  0  0
 21 23  1  0  0  0  0
 19 20  1  0  0  0  0
 17 18  2  0  0  0  0
 17 19  1  0  0  0  0
 14 15  1  0  0  0  0
 14 16  1  0  0  0  0
 14 17  1  0  0  0  0
 11 12  1  0  0  0  0
 11 13  1  0  0  0  0
 11 14  1  0  0  0  0
  9 10  1  0  0  0  0
  9 11  1  0  0  0  0
  9 21  1  0  0  0  0
  7  8  1  0  0  0  0
  7  9  1  0  0  0  0
 25 26  1  0  0  0  0
 25 27  1  0  0  0  0
 25 28  1  0  0  0  0
 23 24  1  0  0  0  0
 23 25  1  0  0  0  0
M  END
$$$$
default_name
  -OEChem-02102213163D

 28 27  0     1  0  0  0  0  0999 V2000
   -3.2133   -3.5565    1.2809 H   0  0  0  0  0  0  0  0  0  0  0  0
   -3.1873   -2.5755    0.8089 C   0  0  0  0  0  0  0  0  0  0  0  0
   -3.8793   -1.9065    1.3169 H   0  0  0  0  0  0  0  0  0  0  0  0
   -3.4623   -2.6685   -0.2401 H   0  0  0  0  0  0  0  0  0  0  0  0
   -1.7863   -2.0195    0.9119 C   0  0  0  0  0  0  0  0  0  0  0  0
   -0.9073   -2.6615    1.4699 O   0  0  0  0  0  0  0  0  0  0  0  0
   -1.5803   -0.8195    0.3749 N   0  0  0  0  0  0  0  0  0  0  0  0
   -2.3603   -0.3345   -0.0451 H   0  0  0  0  0  0  0  0  0  0  0  0
   -0.2933   -0.1205    0.3719 C   0  0  1  0  0  0  0  0  0  0  0  0
    0.4439   -0.7485   -0.1303 H   0  0  0  0  0  0  0  0  0  0  0  0
   -0.4368    1.1924   -0.4246 C   0  0  0  0  0  0  0  0  0  0  0  0
    0.0631    1.9849    0.1350 H   0  0  0  0  0  0  0  0  0  0  0  0
    0.0670    1.0867   -1.3865 H   0  0  0  0  0  0  0  0  0  0  0  0
   -1.8952    1.6104   -0.6802 C   0  0  0  0  0  0  0  0  0  0  0  0
   -2.4767    1.5082    0.2361 H   0  0  0  0  0  0  0  0  0  0  0  0
   -1.9180    2.6507   -1.0028 H   0  0  0  0  0  0  0  0  0  0  0  0
   -2.5580    0.7643   -1.7624 C   0  0  0  0  0  0  0  0  0  0  0  0
   -1.9850   -0.0620   -2.4544 O   0  0  0  0  0  0  0  0  0  0  0  0
   -3.8733    0.9834   -1.9454 O   0  0  0  0  0  0  0  0  0  0  0  0
   -4.1300    0.3929   -2.6558 H   0  0  0  0  0  0  0  0  0  0  0  0
    0.1871    0.1189    1.8122 C   0  0  0  0  0  0  0  0  0  0  0  0
    1.3541   -0.1171    2.1187 O   0  0  0  0  0  0  0  0  0  0  0  0
   -0.7126    0.5740    2.6926 N   0  0  0  0  0  0  0  0  0  0  0  0
   -1.6464    0.7663    2.3621 H   0  0  0  0  0  0  0  0  0  0  0  0
   -0.4191    0.8310    4.1010 C   0  0  0  0  0  0  0  0  0  0  0  0
    0.4022    1.5452    4.1828 H   0  0  0  0  0  0  0  0  0  0  0  0
   -1.2983    1.2366    4.6035 H   0  0  0  0  0  0  0  0  0  0  0  0
   -0.1204   -0.0980    4.5907 H   0  0  0  0  0  0  0  0  0  0  0  0
  5  6  2  0  0  0  0
  5  7  1  0  0  0  0
  2  3  1  0  0  0  0
  2  4  1  0  0  0  0
  2  5  1  0  0  0  0
  1  2  1  0  0  0  0
 21 22  2  0  0  0  0
 21 23  1  0  0  0  0
 19 20  1  0  0  0  0
 17 18  2  0  0  0  0
 17 19  1  0  0  0  0
 14 15  1  0  0  0  0
 14 16  1  0  0  0  0
 14 17  1  0  0  0  0
 11 12  1  0  0  0  0
 11 13  1  0  0  0  0
 11 14  1  0  0  0  0
  9 10  1  0  0  0  0
  9 11  1  0  0  0  0
  9 21  1  0  0  0  0
  7  8  1  0  0  0  0
  7  9  1  0  0  0  0
 25 26  1  0  0  0  0
 25 27  1  0  0  0  0
 25 28  1  0  0  0  0
 23 24  1  0  0  0  0
 23 25  1  0  0  0  0
M  END
$$$$
default_name
  -OEChem-02102213163D

 28 27  0     1  0  0  0  0  0999 V2000
   -3.2133   -3.5565    1.2809 H   0  0  0  0  0  0  0  0  0  0  0  0
   -3.1873   -2.5755    0.8089 C   0  0  0  0  0  0  0  0  0  0  0  0
   -3.8793   -1.9065    1.3169 H   0  0  0  0  0  0  0  0  0  0  0  0
   -3.4623   -2.6685   -0.2401 H   0  0  0  0  0  0  0  0  0  0  0  0
   -1.7863   -2.0195    0.9119 C   0  0  0  0  0  0  0  0  0  0  0  0
   -0.9073   -2.6615    1.4699 O   0  0  0  0  0  0  0  0  0  0  0  0
   -1.5803   -0.8195    0.3749 N   0  0  0  0  0  0  0  0  0  0  0  0
   -2.3603   -0.3345   -0.0451 H   0  0  0  0  0  0  0  0  0  0  0  0
   -0.2933   -0.1205    0.3719 C   0  0  1  0  0  0  0  0  0  0  0  0
    0.4439   -0.7485   -0.1303 H   0  0  0  0  0  0  0  0  0  0  0  0
   -0.4368    1.1924   -0.4246 C   0  0  0  0  0  0  0  0  0  0  0  0
    0.0631    1.9849    0.1350 H   0  0  0  0  0  0  0  0  0  0  0  0
    0.0670    1.0867   -1.3865 H   0  0  0  0  0  0  0  0  0  0  0  0
   -1.8952    1.6104   -0.6802 C   0  0  0  0  0  0  0  0  0  0  0  0
   -2.4088    1.7649    0.2688 H   0  0  0  0  0  0  0  0  0  0  0  0
   -1.9068    2.5403   -1.2475 H   0  0  0  0  0  0  0  0  0  0  0  0
   -2.6665    0.5614   -1.4746 C   0  0  0  0  0  0  0  0  0  0  0  0
   -2.1762   -0.4371   -1.9769 O   0  0  0  0  0  0  0  0  0  0  0  0
   -3.9837    0.7971   -1.6202 O   0  0  0  0  0  0  0  0  0  0  0  0
   -4.3134    0.0653   -2.1446 H   0  0  0  0  0  0  0  0  0  0  0  0
    0.1871    0.1189    1.8122 C   0  0  0  0  0  0  0  0  0  0  0  0
    1.3541   -0.1171    2.1187 O   0  0  0  0  0  0  0  0  0  0  0  0
   -0.7126    0.5740    2.6926 N   0  0  0  0  0  0  0  0  0  0  0  0
   -1.6464    0.7663    2.3621 H   0  0  0  0  0  0  0  0  0  0  0  0
   -0.4191    0.8310    4.1010 C   0  0  0  0  0  0  0  0  0  0  0  0
    0.4022    1.5452    4.1828 H   0  0  0  0  0  0  0  0  0  0  0  0
   -1.2983    1.2366    4.6035 H   0  0  0  0  0  0  0  0  0  0  0  0
   -0.1204   -0.0980    4.5907 H   0  0  0  0  0  0  0  0  0  0  0  0
  5  6  2  0  0  0  0
  5  7  1  0  0  0  0
  2  3  1  0  0  0  0
  2  4  1  0  0  0  0
  2  5  1  0  0  0  0
  1  2  1  0  0  0  0
 21 22  2  0  0  0  0
 21 23  1  0  0  0  0
 19 20  1  0  0  0  0
 17 18  2  0  0  0  0
 17 19  1  0  0  0  0
 14 15  1  0  0  0  0
 14 16  1  0  0  0  0
 14 17  1  0  0  0  0
 11 12  1  0  0  0  0
 11 13  1  0  0  0  0
 11 14  1  0  0  0  0
  9 10  1  0  0  0  0
  9 11  1  0  0  0  0
  9 21  1  0  0  0  0
  7  8  1  0  0  0  0
  7  9  1  0  0  0  0
 25 26  1  0  0  0  0
 25 27  1  0  0  0  0
 25 28  1  0  0  0  0
 23 24  1  0  0  0  0
 23 25  1  0  0  0  0
M  END
$$$$
default_name
  -OEChem-02102213163D

 28 27  0     1  0  0  0  0  0999 V2000
   -3.2133   -3.5565    1.2809 H   0  0  0  0  0  0  0  0  0  0  0  0
   -3.1873   -2.5755    0.8089 C   0  0  0  0  0  0  0  0  0  0  0  0
   -3.8793   -1.9065    1.3169 H   0  0  0  0  0  0  0  0  0  0  0  0
   -3.4623   -2.6685   -0.2401 H   0  0  0  0  0  0  0  0  0  0  0  0
   -1.7863   -2.0195    0.9119 C   0  0  0  0  0  0  0  0  0  0  0  0
   -0.9073   -2.6615    1.4699 O   0  0  0  0  0  0  0  0  0  0  0  0
   -1.5803   -0.8195    0.3749 N   0  0  0  0  0  0  0  0  0  0  0  0
   -2.3603   -0.3345   -0.0451 H   0  0  0  0  0  0  0  0  0  0  0  0
   -0.2933   -0.1205    0.3719 C   0  0  1  0  0  0  0  0  0  0  0  0
    0.4439   -0.7485   -0.1303 H   0  0  0  0  0  0  0  0  0  0  0  0
   -0.4368    1.1924   -0.4246 C   0  0  0  0  0  0  0  0  0  0  0  0
    0.0631    1.9849    0.1350 H   0  0  0  0  0  0  0  0  0  0  0  0
    0.0670    1.0867   -1.3865 H   0  0  0  0  0  0  0  0  0  0  0  0
   -1.8952    1.6104   -0.6802 C   0  0  0  0  0  0  0  0  0  0  0  0
   -2.3300    2.0180    0.2325 H   0  0  0  0  0  0  0  0  0  0  0  0
   -1.9178    2.3733   -1.4575 H   0  0  0  0  0  0  0  0  0  0  0  0
   -2.7599    0.4408   -1.1392 C   0  0  0  0  0  0  0  0  0  0  0  0
   -2.3434   -0.6741   -1.4102 O   0  0  0  0  0  0  0  0  0  0  0  0
   -4.0754    0.7017   -1.2526 O   0  0  0  0  0  0  0  0  0  0  0  0
   -4.4687   -0.1178   -1.5576 H   0  0  0  0  0  0  0  0  0  0  0  0
    0.1871    0.1189    1.8122 C   0  0  0  0  0  0  0  0  0  0  0  0
    1.3541   -0.1171    2.1187 O   0  0  0  0  0  0  0  0  0  0  0  0
   -0.7126    0.5740    2.6926 N   0  0  0  0  0  0  0  0  0  0  0  0
   -1.6464    0.7663    2.3621 H   0  0  0  0  0  0  0  0  0  0  0  0
   -0.4191    0.8310    4.1010 C   0  0  0  0  0  0  0  0  0  0  0  0
    0.4022    1.5452    4.1828 H   0  0  0  0  0  0  0  0  0  0  0  0
   -1.2983    1.2366    4.6035 H   0  0  0  0  0  0  0  0  0  0  0  0
   -0.1204   -0.0980    4.5907 H   0  0  0  0  0  0  0  0  0  0  0  0
  5  6  2  0  0  0  0
  5  7  1  0  0  0  0
  2  3  1  0  0  0  0
  2  4  1  0  0  0  0
  2  5  1  0  0  0  0
  1  2  1  0  0  0  0
 21 22  2  0  0  0  0
 21 23  1  0  0  0  0
 19 20  1  0  0  0  0
 17 18  2  0  0  0  0
 17 19  1  0  0  0  0
 14 15  1  0  0  0  0
 14 16  1  0  0  0  0
 14 17  1  0  0  0  0
 11 12  1  0  0  0  0
 11 13  1  0  0  0  0
 11 14  1  0  0  0  0
  9 10  1  0  0  0  0
  9 11  1  0  0  0  0
  9 21  1  0  0  0  0
  7  8  1  0  0  0  0
  7  9  1  0  0  0  0
 25 26  1  0  0  0  0
 25 27  1  0  0  0  0
 25 28  1  0  0  0  0
 23 24  1  0  0  0  0
 23 25  1  0  0  0  0
M  END
$$$$
default_name
  -OEChem-02102213163D

 28 27  0     1  0  0  0  0  0999 V2000
   -3.2133   -3.5565    1.2809 H   0  0  0  0  0  0  0  0  0  0  0  0
   -3.1873   -2.5755    0.8089 C   0  0  0  0  0  0  0  0  0  0  0  0
   -3.8793   -1.9065    1.3169 H   0  0  0  0  0  0  0  0  0  0  0  0
   -3.4623   -2.6685   -0.2401 H   0  0  0  0  0  0  0  0  0  0  0  0
   -1.7863   -2.0195    0.9119 C   0  0  0  0  0  0  0  0  0  0  0  0
   -0.9073   -2.6615    1.4699 O   0  0  0  0  0  0  0  0  0  0  0  0
   -1.5803   -0.8195    0.3749 N   0  0  0  0  0  0  0  0  0  0  0  0
   -2.3603   -0.3345   -0.0451 H   0  0  0  0  0  0  0  0  0  0  0  0
   -0.2933   -0.1205    0.3719 C   0  0  1  0  0  0  0  0  0  0  0  0
    0.4439   -0.7485   -0.1303 H   0  0  0  0  0  0  0  0  0  0  0  0
   -0.4368    1.1924   -0.4246 C   0  0  0  0  0  0  0  0  0  0  0  0
    0.0631    1.9849    0.1350 H   0  0  0  0  0  0  0  0  0  0  0  0
    0.0670    1.0867   -1.3865 H   0  0  0  0  0  0  0  0  0  0  0  0
   -1.8952    1.6104   -0.6802 C   0  0  0  0  0  0  0  0  0  0  0  0
   -2.2454    2.2502    0.1299 H   0  0  0  0  0  0  0  0  0  0  0  0
   -1.9505    2.1609   -1.6186 H   0  0  0  0  0  0  0  0  0  0  0  0
   -2.8317    0.4105   -0.7791 C   0  0  0  0  0  0  0  0  0  0  0  0
   -2.4753   -0.7568   -0.7929 O   0  0  0  0  0  0  0  0  0  0  0  0
   -4.1423    0.7037   -0.8677 O   0  0  0  0  0  0  0  0  0  0  0  0
   -4.5854   -0.1439   -0.9347 H   0  0  0  0  0  0  0  0  0  0  0  0
    0.1871    0.1189    1.8122 C   0  0  0  0  0  0  0  0  0  0  0  0
    1.3541   -0.1171    2.1187 O   0  0  0  0  0  0  0  0  0  0  0  0
   -0.7126    0.5740    2.6926 N   0  0  0  0  0  0  0  0  0  0  0  0
   -1.6464    0.7663    2.3621 H   0  0  0  0  0  0  0  0  0  0  0  0
   -0.4191    0.8310    4.1010 C   0  0  0  0  0  0  0  0  0  0  0  0
    0.4022    1.5452    4.1828 H   0  0  0  0  0  0  0  0  0  0  0  0
   -1.2983    1.2366    4.6035 H   0  0  0  0  0  0  0  0  0  0  0  0
   -0.1204   -0.0980    4.5907 H   0  0  0  0  0  0  0  0  0  0  0  0
  5  6  2  0  0  0  0
  5  7  1  0  0  0  0
  2  3  1  0  0  0  0
  2  4  1  0  0  0  0
  2  5  1  0  0  0  0
  1  2  1  0  0  0  0
 21 22  2  0  0  0  0
 21 23  1  0  0  0  0
 19 20  1  0  0  0  0
 17 18  2  0  0  0  0
 17 19  1  0  0  0  0
 14 15  1  0  0  0  0
 14 16  1  0  0  0  0
 14 17  1  0  0  0  0
 11 12  1  0  0  0  0
 11 13  1  0  0  0  0
 11 14  1  0  0  0  0
  9 10  1  0  0  0  0
  9 11  1  0  0  0  0
  9 21  1  0  0  0  0
  7  8  1  0  0  0  0
  7  9  1  0  0  0  0
 25 26  1  0  0  0  0
 25 27  1  0  0  0  0
 25 28  1  0  0  0  0
 23 24  1  0  0  0  0
 23 25  1  0  0  0  0
M  END
$$$$
default_name
  -OEChem-02102213163D

 28 27  0     1  0  0  0  0  0999 V2000
   -3.2133   -3.5565    1.2809 H   0  0  0  0  0  0  0  0  0  0  0  0
   -3.1873   -2.5755    0.8089 C   0  0  0  0  0  0  0  0  0  0  0  0
   -3.8793   -1.9065    1.3169 H   0  0  0  0  0  0  0  0  0  0  0  0
   -3.4623   -2.6685   -0.2401 H   0  0  0  0  0  0  0  0  0  0  0  0
   -1.7863   -2.0195    0.9119 C   0  0  0  0  0  0  0  0  0  0  0  0
   -0.9073   -2.6615    1.4699 O   0  0  0  0  0  0  0  0  0  0  0  0
   -1.5803   -0.8195    0.3749 N   0  0  0  0  0  0  0  0  0  0  0  0
   -2.3603   -0.3345   -0.0451 H   0  0  0  0  0  0  0  0  0  0  0  0
   -0.2933   -0.1205    0.3719 C   0  0  1  0  0  0  0  0  0  0  0  0
    0.4439   -0.7485   -0.1303 H   0  0  0  0  0  0  0  0  0  0  0  0
   -0.4368    1.1924   -0.4246 C   0  0  0  0  0  0  0  0  0  0  0  0
    0.0631    1.9849    0.1350 H   0  0  0  0  0  0  0  0  0  0  0  0
    0.0670    1.0867   -1.3865 H   0  0  0  0  0  0  0  0  0  0  0  0
   -1.8952    1.6104   -0.6802 C   0  0  0  0  0  0  0  0  0  0  0  0
   -2.1610    2.4456   -0.0322 H   0  0  0  0  0  0  0  0  0  0  0  0
   -2.0025    1.9176   -1.7198 H   0  0  0  0  0  0  0  0  0  0  0  0
   -2.8770    0.4728   -0.4188 C   0  0  0  0  0  0  0  0  0  0  0  0
   -2.5628   -0.6795   -0.1671 O   0  0  0  0  0  0  0  0  0  0  0  0
   -4.1798    0.8029   -0.4917 O   0  0  0  0  0  0  0  0  0  0  0  0
   -4.6554   -0.0114   -0.3184 H   0  0  0  0  0  0  0  0  0  0  0  0
    0.1871    0.1189    1.8122 C   0  0  0  0  0  0  0  0  0  0  0  0
    1.3541   -0.1171    2.1187 O   0  0  0  0  0  0  0  0  0  0  0  0
   -0.7126    0.5740    2.6926 N   0  0  0  0  0  0  0  0  0  0  0  0
   -1.6464    0.7663    2.3621 H   0  0  0  0  0  0  0  0  0  0  0  0
   -0.4191    0.8310    4.1010 C   0  0  0  0  0  0  0  0  0  0  0  0
    0.4022    1.5452    4.1828 H   0  0  0  0  0  0  0  0  0  0  0  0
   -1.2983    1.2366    4.6035 H   0  0  0  0  0  0  0  0  0  0  0  0
   -0.1204   -0.0980    4.5907 H   0  0  0  0  0  0  0  0  0  0  0  0
  5  6  2  0  0  0  0
  5  7  1  0  0  0  0
  2  3  1  0  0  0  0
  2  4  1  0  0  0  0
  2  5  1  0  0  0  0
  1  2  1  0  0  0  0
 21 22  2  0  0  0  0
 21 23  1  0  0  0  0
 19 20  1  0  0  0  0
 17 18  2  0  0  0  0
 17 19  1  0  0  0  0
 14 15  1  0  0  0  0
 14 16  1  0  0  0  0
 14 17  1  0  0  0  0
 11 12  1  0  0  0  0
 11 13  1  0  0  0  0
 11 14  1  0  0  0  0
  9 10  1  0  0  0  0
  9 11  1  0  0  0  0
  9 21  1  0  0  0  0
  7  8  1  0  0  0  0
  7  9  1  0  0  0  0
 25 26  1  0  0  0  0
 25 27  1  0  0  0  0
 25 28  1  0  0  0  0
 23 24  1  0  0  0  0
 23 25  1  0  0  0  0
M  END
$$$$
default_name
  -OEChem-02102213163D

 28 27  0     1  0  0  0  0  0999 V2000
   -3.2133   -3.5565    1.2809 H   0  0  0  0  0  0  0  0  0  0  0  0
   -3.1873   -2.5755    0.8089 C   0  0  0  0  0  0  0  0  0  0  0  0
   -3.8793   -1.9065    1.3169 H   0  0  0  0  0  0  0  0  0  0  0  0
   -3.4623   -2.6685   -0.2401 H   0  0  0  0  0  0  0  0  0  0  0  0
   -1.7863   -2.0195    0.9119 C   0  0  0  0  0  0  0  0  0  0  0  0
   -0.9073   -2.6615    1.4699 O   0  0  0  0  0  0  0  0  0  0  0  0
   -1.5803   -0.8195    0.3749 N   0  0  0  0  0  0  0  0  0  0  0  0
   -2.3603   -0.3345   -0.0451 H   0  0  0  0  0  0  0  0  0  0  0  0
   -0.2933   -0.1205    0.3719 C   0  0  1  0  0  0  0  0  0  0  0  0
    0.4439   -0.7485   -0.1303 H   0  0  0  0  0  0  0  0  0  0  0  0
   -0.4368    1.1924   -0.4246 C   0  0  0  0  0  0  0  0  0  0  0  0
    0.0631    1.9849    0.1350 H   0  0  0  0  0  0  0  0  0  0  0  0
    0.0670    1.0867   -1.3865 H   0  0  0  0  0  0  0  0  0  0  0  0
   -1.8952    1.6104   -0.6802 C   0  0  0  0  0  0  0  0  0  0  0  0
   -2.0825    2.5910   -0.2426 H   0  0  0  0  0  0  0  0  0  0  0  0
   -2.0703    1.6599   -1.7542 H   0  0  0  0  0  0  0  0  0  0  0  0
   -2.8927    0.6232   -0.0828 C   0  0  0  0  0  0  0  0  0  0  0  0
   -2.6000   -0.4476    0.4246 O   0  0  0  0  0  0  0  0  0  0  0  0
   -4.1852    0.9926   -0.1502 O   0  0  0  0  0  0  0  0  0  0  0  0
   -4.6740    0.2709    0.2492 H   0  0  0  0  0  0  0  0  0  0  0  0
    0.1871    0.1189    1.8122 C   0  0  0  0  0  0  0  0  0  0  0  0
    1.3541   -0.1171    2.1187 O   0  0  0  0  0  0  0  0  0  0  0  0
   -0.7126    0.5740    2.6926 N   0  0  0  0  0  0  0  0  0  0  0  0
   -1.6464    0.7663    2.3621 H   0  0  0  0  0  0  0  0  0  0  0  0
   -0.4191    0.8310    4.1010 C   0  0  0  0  0  0  0  0  0  0  0  0
    0.4022    1.5452    4.1828 H   0  0  0  0  0  0  0  0  0  0  0  0
   -1.2983    1.2366    4.6035 H   0  0  0  0  0  0  0  0  0  0  0  0
   -0.1204   -0.0980    4.5907 H   0  0  0  0  0  0  0  0  0  0  0  0
  5  6  2  0  0  0  0
  5  7  1  0  0  0  0
  2  3  1  0  0  0  0
  2  4  1  0  0  0  0
  2  5  1  0  0  0  0
  1  2  1  0  0  0  0
 21 22  2  0  0  0  0
 21 23  1  0  0  0  0
 19 20  1  0  0  0  0
 17 18  2  0  0  0  0
 17 19  1  0  0  0  0
 14 15  1  0  0  0  0
 14 16  1  0  0  0  0
 14 17  1  0  0  0  0
 11 12  1  0  0  0  0
 11 13  1  0  0  0  0
 11 14  1  0  0  0  0
  9 10  1  0  0  0  0
  9 11  1  0  0  0  0
  9 21  1  0  0  0  0
  7  8  1  0  0  0  0
  7  9  1  0  0  0  0
 25 26  1  0  0  0  0
 25 27  1  0  0  0  0
 25 28  1  0  0  0  0
 23 24  1  0  0  0  0
 23 25  1  0  0  0  0
M  END
$$$$
default_name
  -OEChem-02102213163D

 28 27  0     1  0  0  0  0  0999 V2000
   -3.2133   -3.5565    1.2809 H   0  0  0  0  0  0  0  0  0  0  0  0
   -3.1873   -2.5755    0.8089 C   0  0  0  0  0  0  0  0  0  0  0  0
   -3.8793   -1.9065    1.3169 H   0  0  0  0  0  0  0  0  0  0  0  0
   -3.4623   -2.6685   -0.2401 H   0  0  0  0  0  0  0  0  0  0  0  0
   -1.7863   -2.0195    0.9119 C   0  0  0  0  0  0  0  0  0  0  0  0
   -0.9073   -2.6615    1.4699 O   0  0  0  0  0  0  0  0  0  0  0  0
   -1.5803   -0.8195    0.3749 N   0  0  0  0  0  0  0  0  0  0  0  0
   -2.3603   -0.3345   -0.0451 H   0  0  0  0  0  0  0  0  0  0  0  0
   -0.2933   -0.1205    0.3719 C   0  0  1  0  0  0  0  0  0  0  0  0
    0.4439   -0.7485   -0.1303 H   0  0  0  0  0  0  0  0  0  0  0  0
   -0.4368    1.1924   -0.4246 C   0  0  0  0  0  0  0  0  0  0  0  0
    0.0631    1.9849    0.1350 H   0  0  0  0  0  0  0  0  0  0  0  0
    0.0670    1.0867   -1.3865 H   0  0  0  0  0  0  0  0  0  0  0  0
   -1.8952    1.6104   -0.6802 C   0  0  0  0  0  0  0  0  0  0  0  0
   -2.0152    2.6765   -0.4870 H   0  0  0  0  0  0  0  0  0  0  0  0
   -2.1493    1.4056   -1.7195 H   0  0  0  0  0  0  0  0  0  0  0  0
   -2.8778    0.8517    0.2059 C   0  0  0  0  0  0  0  0  0  0  0  0
   -2.5844   -0.0768    0.9419 O   0  0  0  0  0  0  0  0  0  0  0  0
   -4.1584    1.2599    0.1335 O   0  0  0  0  0  0  0  0  0  0  0  0
   -4.6399    0.6836    0.7296 H   0  0  0  0  0  0  0  0  0  0  0  0
    0.1871    0.1189    1.8122 C   0  0  0  0  0  0  0  0  0  0  0  0
    1.3541   -0.1171    2.1187 O   0  0  0  0  0  0  0  0  0  0  0  0
   -0.7126    0.5740    2.6926 N   0  0  0  0  0  0  0  0  0  0  0  0
   -1.6464    0.7663    2.3621 H   0  0  0  0  0  0  0  0  0  0  0  0
   -0.4191    0.8310    4.1010 C   0  0  0  0  0  0  0  0  0  0  0  0
    0.4022    1.5452    4.1828 H   0  0  0  0  0  0  0  0  0  0  0  0
   -1.2983    1.2366    4.6035 H   0  0  0  0  0  0  0  0  0  0  0  0
   -0.1204   -0.0980    4.5907 H   0  0  0  0  0  0  0  0  0  0  0  0
  5  6  2  0  0  0  0
  5  7  1  0  0  0  0
  2  3  1  0  0  0  0
  2  4  1  0  0  0  0
  2  5  1  0  0  0  0
  1  2  1  0  0  0  0
 21 22  2  0  0  0  0
 21 23  1  0  0  0  0
 19 20  1  0  0  0  0
 17 18  2  0  0  0  0
 17 19  1  0  0  0  0
 14 15  1  0  0  0  0
 14 16  1  0  0  0  0
 14 17  1  0  0  0  0
 11 12  1  0  0  0  0
 11 13  1  0  0  0  0
 11 14  1  0  0  0  0
  9 10  1  0  0  0  0
  9 11  1  0  0  0  0
  9 21  1  0  0  0  0
  7  8  1  0  0  0  0
  7  9  1  0  0  0  0
 25 26  1  0  0  0  0
 25 27  1  0  0  0  0
 25 28  1  0  0  0  0
 23 24  1  0  0  0  0
 23 25  1  0  0  0  0
M  END
$$$$
default_name
  -OEChem-02102213163D

 28 27  0     1  0  0  0  0  0999 V2000
   -3.2133   -3.5565    1.2809 H   0  0  0  0  0  0  0  0  0  0  0  0
   -3.1873   -2.5755    0.8089 C   0  0  0  0  0  0  0  0  0  0  0  0
   -3.8793   -1.9065    1.3169 H   0  0  0  0  0  0  0  0  0  0  0  0
   -3.4623   -2.6685   -0.2401 H   0  0  0  0  0  0  0  0  0  0  0  0
   -1.7863   -2.0195    0.9119 C   0  0  0  0  0  0  0  0  0  0  0  0
   -0.9073   -2.6615    1.4699 O   0  0  0  0  0  0  0  0  0  0  0  0
   -1.5803   -0.8195    0.3749 N   0  0  0  0  0  0  0  0  0  0  0  0
   -2.3603   -0.3345   -0.0451 H   0  0  0  0  0  0  0  0  0  0  0  0
   -0.2933   -0.1205    0.3719 C   0  0  1  0  0  0  0  0  0  0  0  0
    0.4439   -0.7485   -0.1303 H   0  0  0  0  0  0  0  0  0  0  0  0
   -0.4368    1.1924   -0.4246 C   0  0  0  0  0  0  0  0  0  0  0  0
    0.0631    1.9849    0.1350 H   0  0  0  0  0  0  0  0  0  0  0  0
    0.0670    1.0867   -1.3865 H   0  0  0  0  0  0  0  0  0  0  0  0
   -1.8952    1.6104   -0.6802 C   0  0  0  0  0  0  0  0  0  0  0  0
   -1.9637    2.6962   -0.7488 H   0  0  0  0  0  0  0  0  0  0  0  0
   -2.2340    1.1718   -1.6180 H   0  0  0  0  0  0  0  0  0  0  0  0
   -2.8333    1.1425    0.4277 C   0  0  0  0  0  0  0  0  0  0  0  0
   -2.5170    0.4076    1.3495 O   0  0  0  0  0  0  0  0  0  0  0  0
   -4.1010    1.5865    0.3400 O   0  0  0  0  0  0  0  0  0  0  0  0
   -4.5554    1.1987    1.0899 H   0  0  0  0  0  0  0  0  0  0  0  0
    0.1871    0.1189    1.8122 C   0  0  0  0  0  0  0  0  0  0  0  0
    1.3541   -0.1171    2.1187 O   0  0  0  0  0  0  0  0  0  0  0  0
   -0.7126    0.5740    2.6926 N   0  0  0  0  0  0  0  0  0  0  0  0
   -1.6464    0.7663    2.3621 H   0  0  0  0  0  0  0  0  0  0  0  0
   -0.4191    0.8310    4.1010 C   0  0  0  0  0  0  0  0  0  0  0  0
    0.4022    1.5452    4.1828 H   0  0  0  0  0  0  0  0  0  0  0  0
   -1.2983    1.2366    4.6035 H   0  0  0  0  0  0  0  0  0  0  0  0
   -0.1204   -0.0980    4.5907 H   0  0  0  0  0  0  0  0  0  0  0  0
  5  6  2  0  0  0  0
  5  7  1  0  0  0  0
  2  3  1  0  0  0  0
  2  4  1  0  0  0  0
  2  5  1  0  0  0  0
  1  2  1  0  0  0  0
 21 22  2  0  0  0  0
 21 23  1  0  0  0  0
 19 20  1  0  0  0  0
 17 18  2  0  0  0  0
 17 19  1  0  0  0  0
 14 15  1  0  0  0  0
 14 16  1  0  0  0  0
 14 17  1  0  0  0  0
 11 12  1  0  0  0  0
 11 13  1  0  0  0  0
 11 14  1  0  0  0  0
  9 10  1  0  0  0  0
  9 11  1  0  0  0  0
  9 21  1  0  0  0  0
  7  8  1  0  0  0  0
  7  9  1  0  0  0  0
 25 26  1  0  0  0  0
 25 27  1  0  0  0  0
 25 28  1  0  0  0  0
 23 24  1  0  0  0  0
 23 25  1  0  0  0  0
M  END
$$$$
default_name
  -OEChem-02102213163D

 28 27  0     1  0  0  0  0  0999 V2000
   -3.2133   -3.5565    1.2809 H   0  0  0  0  0  0  0  0  0  0  0  0
   -3.1873   -2.5755    0.8089 C   0  0  0  0  0  0  0  0  0  0  0  0
   -3.8793   -1.9065    1.3169 H   0  0  0  0  0  0  0  0  0  0  0  0
   -3.4623   -2.6685   -0.2401 H   0  0  0  0  0  0  0  0  0  0  0  0
   -1.7863   -2.0195    0.9119 C   0  0  0  0  0  0  0  0  0  0  0  0
   -0.9073   -2.6615    1.4699 O   0  0  0  0  0  0  0  0  0  0  0  0
   -1.5803   -0.8195    0.3749 N   0  0  0  0  0  0  0  0  0  0  0  0
   -2.3603   -0.3345   -0.0451 H   0  0  0  0  0  0  0  0  0  0  0  0
   -0.2933   -0.1205    0.3719 C   0  0  1  0  0  0  0  0  0  0  0  0
    0.4439   -0.7485   -0.1303 H   0  0  0  0  0  0  0  0  0  0  0  0
   -0.4368    1.1924   -0.4246 C   0  0  0  0  0  0  0  0  0  0  0  0
    0.0631    1.9849    0.1350 H   0  0  0  0  0  0  0  0  0  0  0  0
    0.0670    1.0867   -1.3865 H   0  0  0  0  0  0  0  0  0  0  0  0
   -1.8952    1.6104   -0.6802 C   0  0  0  0  0  0  0  0  0  0  0  0
   -1.9315    2.6487   -1.0101 H   0  0  0  0  0  0  0  0  0  0  0  0
   -2.3188    0.9745   -1.4566 H   0  0  0  0  0  0  0  0  0  0  0  0
   -2.7623    1.4760    0.5674 C   0  0  0  0  0  0  0  0  0  0  0  0
   -2.4024    0.9726    1.6196 O   0  0  0  0  0  0  0  0  0  0  0  0
   -4.0169    1.9502    0.4554 O   0  0  0  0  0  0  0  0  0  0  0  0
   -4.4263    1.7810    1.3057 H   0  0  0  0  0  0  0  0  0  0  0  0
    0.1871    0.1189    1.8122 C   0  0  0  0  0  0  0  0  0  0  0  0
    1.3541   -0.1171    2.1187 O   0  0  0  0  0  0  0  0  0  0  0  0
   -0.7126    0.5740    2.6926 N   0  0  0  0  0  0  0  0  0  0  0  0
   -1.6464    0.7663    2.3621 H   0  0  0  0  0  0  0  0  0  0  0  0
   -0.4191    0.8310    4.1010 C   0  0  0  0  0  0  0  0  0  0  0  0
    0.4022    1.5452    4.1828 H   0  0  0  0  0  0  0  0  0  0  0  0
   -1.2983    1.2366    4.6035 H   0  0  0  0  0  0  0  0  0  0  0  0
   -0.1204   -0.0980    4.5907 H   0  0  0  0  0  0  0  0  0  0  0  0
  5  6  2  0  0  0  0
  5  7  1  0  0  0  0
  2  3  1  0  0  0  0
  2  4  1  0  0  0  0
  2  5  1  0  0  0  0
  1  2  1  0  0  0  0
 21 22  2  0  0  0  0
 21 23  1  0  0  0  0
 19 20  1  0  0  0  0
 17 18  2  0  0  0  0
 17 19  1  0  0  0  0
 14 15  1  0  0  0  0
 14 16  1  0  0  0  0
 14 17  1  0  0  0  0
 11 12  1  0  0  0  0
 11 13  1  0  0  0  0
 11 14  1  0  0  0  0
  9 10  1  0  0  0  0
  9 11  1  0  0  0  0
  9 21  1  0  0  0  0
  7  8  1  0  0  0  0
  7  9  1  0  0  0  0
 25 26  1  0  0  0  0
 25 27  1  0  0  0  0
 25 28  1  0  0  0  0
 23 24  1  0  0  0  0
 23 25  1  0  0  0  0
M  END
$$$$
default_name
  -OEChem-02102213163D

 28 27  0     1  0  0  0  0  0999 V2000
   -3.2133   -3.5565    1.2809 H   0  0  0  0  0  0  0  0  0  0  0  0
   -3.1873   -2.5755    0.8089 C   0  0  0  0  0  0  0  0  0  0  0  0
   -3.8793   -1.9065    1.3169 H   0  0  0  0  0  0  0  0  0  0  0  0
   -3.4623   -2.6685   -0.2401 H   0  0  0  0  0  0  0  0  0  0  0  0
   -1.7863   -2.0195    0.9119 C   0  0  0  0  0  0  0  0  0  0  0  0
   -0.9073   -2.6615    1.4699 O   0  0  0  0  0  0  0  0  0  0  0  0
   -1.5803   -0.8195    0.3749 N   0  0  0  0  0  0  0  0  0  0  0  0
   -2.3603   -0.3345   -0.0451 H   0  0  0  0  0  0  0  0  0  0  0  0
   -0.2933   -0.1205    0.3719 C   0  0  1  0  0  0  0  0  0  0  0  0
    0.4439   -0.7485   -0.1303 H   0  0  0  0  0  0  0  0  0  0  0  0
   -0.4368    1.1924   -0.4246 C   0  0  0  0  0  0  0  0  0  0  0  0
    0.0631    1.9849    0.1350 H   0  0  0  0  0  0  0  0  0  0  0  0
    0.0670    1.0867   -1.3865 H   0  0  0  0  0  0  0  0  0  0  0  0
   -1.8952    1.6104   -0.6802 C   0  0  0  0  0  0  0  0  0  0  0  0
   -1.9208    2.5374   -1.2532 H   0  0  0  0  0  0  0  0  0  0  0  0
   -2.3979    0.8272   -1.2464 H   0  0  0  0  0  0  0  0  0  0  0  0
   -2.6695    1.8293    0.6156 C   0  0  0  0  0  0  0  0  0  0  0  0
   -2.2484    1.5797    1.7338 O   0  0  0  0  0  0  0  0  0  0  0  0
   -3.9121    2.3262    0.4717 O   0  0  0  0  0  0  0  0  0  0  0  0
   -4.2615    2.3908    1.3622 H   0  0  0  0  0  0  0  0  0  0  0  0
    0.1871    0.1189    1.8122 C   0  0  0  0  0  0  0  0  0  0  0  0
    1.3541   -0.1171    2.1187 O   0  0  0  0  0  0  0  0  0  0  0  0
   -0.7126    0.5740    2.6926 N   0  0  0  0  0  0  0  0  0  0  0  0
   -1.6464    0.7663    2.3621 H   0  0  0  0  0  0  0  0  0  0  0  0
   -0.4191    0.8310    4.1010 C   0  0  0  0  0  0  0  0  0  0  0  0
    0.4022    1.5452    4.1828 H   0  0  0  0  0  0  0  0  0  0  0  0
   -1.2983    1.2366    4.6035 H   0  0  0  0  0  0  0  0  0  0  0  0
   -0.1204   -0.0980    4.5907 H   0  0  0  0  0  0  0  0  0  0  0  0
  5  6  2  0  0  0  0
  5  7  1  0  0  0  0
  2  3  1  0  0  0  0
  2  4  1  0  0  0  0
  2  5  1  0  0  0  0
  1  2  1  0  0  0  0
 21 22  2  0  0  0  0
 21 23  1  0  0  0  0
 19 20  1  0  0  0  0
 17 18  2  0  0  0  0
 17 19  1  0  0  0  0
 14 15  1  0  0  0  0
 14 16  1  0  0  0  0
 14 17  1  0  0  0  0
 11 12  1  0  0  0  0
 11 13  1  0  0  0  0
 11 14  1  0  0  0  0
  9 10  1  0  0  0  0
  9 11  1  0  0  0  0
  9 21  1  0  0  0  0
  7  8  1  0  0  0  0
  7  9  1  0  0  0  0
 25 26  1  0  0  0  0
 25 27  1  0  0  0  0
 25 28  1  0  0  0  0
 23 24  1  0  0  0  0
 23 25  1  0  0  0  0
M  END
$$$$
default_name
  -OEChem-02102213163D

 28 27  0     1  0  0  0  0  0999 V2000
   -3.2133   -3.5565    1.2809 H   0  0  0  0  0  0  0  0  0  0  0  0
   -3.1873   -2.5755    0.8089 C   0  0  0  0  0  0  0  0  0  0  0  0
   -3.8793   -1.9065    1.3169 H   0  0  0  0  0  0  0  0  0  0  0  0
   -3.4623   -2.6685   -0.2401 H   0  0  0  0  0  0  0  0  0  0  0  0
   -1.7863   -2.0195    0.9119 C   0  0  0  0  0  0  0  0  0  0  0  0
   -0.9073   -2.6615    1.4699 O   0  0  0  0  0  0  0  0  0  0  0  0
   -1.5803   -0.8195    0.3749 N   0  0  0  0  0  0  0  0  0  0  0  0
   -2.3603   -0.3345   -0.0451 H   0  0  0  0  0  0  0  0  0  0  0  0
   -0.2933   -0.1205    0.3719 C   0  0  1  0  0  0  0  0  0  0  0  0
    0.4439   -0.7485   -0.1303 H   0  0  0  0  0  0  0  0  0  0  0  0
   -0.4368    1.1924   -0.4246 C   0  0  0  0  0  0  0  0  0  0  0  0
    0.0631    1.9849    0.1350 H   0  0  0  0  0  0  0  0  0  0  0  0
    0.0670    1.0867   -1.3865 H   0  0  0  0  0  0  0  0  0  0  0  0
   -1.8952    1.6104   -0.6802 C   0  0  0  0  0  0  0  0  0  0  0  0
   -1.9323    2.3697   -1.4614 H   0  0  0  0  0  0  0  0  0  0  0  0
   -2.4658    0.7399   -1.0016 H   0  0  0  0  0  0  0  0  0  0  0  0
   -2.5612    2.1784    0.5689 C   0  0  0  0  0  0  0  0  0  0  0  0
   -2.0656    2.1875    1.6843 O   0  0  0  0  0  0  0  0  0  0  0  0
   -3.7934    2.6888    0.3878 O   0  0  0  0  0  0  0  0  0  0  0  0
   -4.0720    2.9866    1.2555 H   0  0  0  0  0  0  0  0  0  0  0  0
    0.1871    0.1189    1.8122 C   0  0  0  0  0  0  0  0  0  0  0  0
    1.3541   -0.1171    2.1187 O   0  0  0  0  0  0  0  0  0  0  0  0
   -0.7126    0.5740    2.6926 N   0  0  0  0  0  0  0  0  0  0  0  0
   -1.6464    0.7663    2.3621 H   0  0  0  0  0  0  0  0  0  0  0  0
   -0.4191    0.8310    4.1010 C   0  0  0  0  0  0  0  0  0  0  0  0
    0.4022    1.5452    4.1828 H   0  0  0  0  0  0  0  0  0  0  0  0
   -1.2983    1.2366    4.6035 H   0  0  0  0  0  0  0  0  0  0  0  0
   -0.1204   -0.0980    4.5907 H   0  0  0  0  0  0  0  0  0  0  0  0
  5  6  2  0  0  0  0
  5  7  1  0  0  0  0
  2  3  1  0  0  0  0
  2  4  1  0  0  0  0
  2  5  1  0  0  0  0
  1  2  1  0  0  0  0
 21 22  2  0  0  0  0
 21 23  1  0  0  0  0
 19 20  1  0  0  0  0
 17 18  2  0  0  0  0
 17 19  1  0  0  0  0
 14 15  1  0  0  0  0
 14 16  1  0  0  0  0
 14 17  1  0  0  0  0
 11 12  1  0  0  0  0
 11 13  1  0  0  0  0
 11 14  1  0  0  0  0
  9 10  1  0  0  0  0
  9 11  1  0  0  0  0
  9 21  1  0  0  0  0
  7  8  1  0  0  0  0
  7  9  1  0  0  0  0
 25 26  1  0  0  0  0
 25 27  1  0  0  0  0
 25 28  1  0  0  0  0
 23 24  1  0  0  0  0
 23 25  1  0  0  0  0
M  END
$$$$
default_name
  -OEChem-02102213163D

 28 27  0     1  0  0  0  0  0999 V2000
   -3.2133   -3.5565    1.2809 H   0  0  0  0  0  0  0  0  0  0  0  0
   -3.1873   -2.5755    0.8089 C   0  0  0  0  0  0  0  0  0  0  0  0
   -3.8793   -1.9065    1.3169 H   0  0  0  0  0  0  0  0  0  0  0  0
   -3.4623   -2.6685   -0.2401 H   0  0  0  0  0  0  0  0  0  0  0  0
   -1.7863   -2.0195    0.9119 C   0  0  0  0  0  0  0  0  0  0  0  0
   -0.9073   -2.6615    1.4699 O   0  0  0  0  0  0  0  0  0  0  0  0
   -1.5803   -0.8195    0.3749 N   0  0  0  0  0  0  0  0  0  0  0  0
   -2.3603   -0.3345   -0.0451 H   0  0  0  0  0  0  0  0  0  0  0  0
   -0.2933   -0.1205    0.3719 C   0  0  1  0  0  0  0  0  0  0  0  0
    0.4439   -0.7485   -0.1303 H   0  0  0  0  0  0  0  0  0  0  0  0
   -0.4368    1.1924   -0.4246 C   0  0  0  0  0  0  0  0  0  0  0  0
    0.0631    1.9849    0.1350 H   0  0  0  0  0  0  0  0  0  0  0  0
    0.0670    1.0867   -1.3865 H   0  0  0  0  0  0  0  0  0  0  0  0
   -1.8952    1.6104   -0.6802 C   0  0  0  0  0  0  0  0  0  0  0  0
   -1.9654    2.1572   -1.6206 H   0  0  0  0  0  0  0  0  0  0  0  0
   -2.5180    0.7185   -0.7390 H   0  0  0  0  0  0  0  0  0  0  0  0
   -2.4450    2.4995    0.4306 C   0  0  0  0  0  0  0  0  0  0  0  0
   -1.8663    2.7546    1.4745 O   0  0  0  0  0  0  0  0  0  0  0  0
   -3.6691    3.0134    0.2095 O   0  0  0  0  0  0  0  0  0  0  0  0
   -3.8709    3.5278    0.9930 H   0  0  0  0  0  0  0  0  0  0  0  0
    0.1871    0.1189    1.8122 C   0  0  0  0  0  0  0  0  0  0  0  0
    1.3541   -0.1171    2.1187 O   0  0  0  0  0  0  0  0  0  0  0  0
   -0.7126    0.5740    2.6926 N   0  0  0  0  0  0  0  0  0  0  0  0
   -1.6464    0.7663    2.3621 H   0  0  0  0  0  0  0  0  0  0  0  0
   -0.4191    0.8310    4.1010 C   0  0  0  0  0  0  0  0  0  0  0  0
    0.4022    1.5452    4.1828 H   0  0  0  0  0  0  0  0  0  0  0  0
   -1.2983    1.2366    4.6035 H   0  0  0  0  0  0  0  0  0  0  0  0
   -0.1204   -0.0980    4.5907 H   0  0  0  0  0  0  0  0  0  0  0  0
  5  6  2  0  0  0  0
  5  7  1  0  0  0  0
  2  3  1  0  0  0  0
  2  4  1  0  0  0  0
  2  5  1  0  0  0  0
  1  2  1  0  0  0  0
 21 22  2  0  0  0  0
 21 23  1  0  0  0  0
 19 20  1  0  0  0  0
 17 18  2  0  0  0  0
 17 19  1  0  0  0  0
 14 15  1  0  0  0  0
 14 16  1  0  0  0  0
 14 17  1  0  0  0  0
 11 12  1  0  0  0  0
 11 13  1  0  0  0  0
 11 14  1  0  0  0  0
  9 10  1  0  0  0  0
  9 11  1  0  0  0  0
  9 21  1  0  0  0  0
  7  8  1  0  0  0  0
  7  9  1  0  0  0  0
 25 26  1  0  0  0  0
 25 27  1  0  0  0  0
 25 28  1  0  0  0  0
 23 24  1  0  0  0  0
 23 25  1  0  0  0  0
M  END
$$$$
default_name
  -OEChem-02102213163D

 28 27  0     1  0  0  0  0  0999 V2000
   -3.2133   -3.5565    1.2809 H   0  0  0  0  0  0  0  0  0  0  0  0
   -3.1873   -2.5755    0.8089 C   0  0  0  0  0  0  0  0  0  0  0  0
   -3.8793   -1.9065    1.3169 H   0  0  0  0  0  0  0  0  0  0  0  0
   -3.4623   -2.6685   -0.2401 H   0  0  0  0  0  0  0  0  0  0  0  0
   -1.7863   -2.0195    0.9119 C   0  0  0  0  0  0  0  0  0  0  0  0
   -0.9073   -2.6615    1.4699 O   0  0  0  0  0  0  0  0  0  0  0  0
   -1.5803   -0.8195    0.3749 N   0  0  0  0  0  0  0  0  0  0  0  0
   -2.3603   -0.3345   -0.0451 H   0  0  0  0  0  0  0  0  0  0  0  0
   -0.2933   -0.1205    0.3719 C   0  0  1  0  0  0  0  0  0  0  0  0
    0.4439   -0.7485   -0.1303 H   0  0  0  0  0  0  0  0  0  0  0  0
   -0.4368    1.1924   -0.4246 C   0  0  0  0  0  0  0  0  0  0  0  0
    0.0631    1.9849    0.1350 H   0  0  0  0  0  0  0  0  0  0  0  0
    0.0670    1.0867   -1.3865 H   0  0  0  0  0  0  0  0  0  0  0  0
   -1.8952    1.6104   -0.6802 C   0  0  0  0  0  0  0  0  0  0  0  0
   -2.0176    1.9143   -1.7199 H   0  0  0  0  0  0  0  0  0  0  0  0
   -2.5508    0.7646   -0.4764 H   0  0  0  0  0  0  0  0  0  0  0  0
   -2.3286    2.7707    0.2100 C   0  0  0  0  0  0  0  0  0  0  0  0
   -1.6642    3.2423    1.1188 O   0  0  0  0  0  0  0  0  0  0  0  0
   -3.5477    3.2779   -0.0512 O   0  0  0  0  0  0  0  0  0  0  0  0
   -3.6719    3.9775    0.5925 H   0  0  0  0  0  0  0  0  0  0  0  0
    0.1871    0.1189    1.8122 C   0  0  0  0  0  0  0  0  0  0  0  0
    1.3541   -0.1171    2.1187 O   0  0  0  0  0  0  0  0  0  0  0  0
   -0.7126    0.5740    2.6926 N   0  0  0  0  0  0  0  0  0  0  0  0
   -1.6464    0.7663    2.3621 H   0  0  0  0  0  0  0  0  0  0  0  0
   -0.4191    0.8310    4.1010 C   0  0  0  0  0  0  0  0  0  0  0  0
    0.4022    1.5452    4.1828 H   0  0  0  0  0  0  0  0  0  0  0  0
   -1.2983    1.2366    4.6035 H   0  0  0  0  0  0  0  0  0  0  0  0
   -0.1204   -0.0980    4.5907 H   0  0  0  0  0  0  0  0  0  0  0  0
  5  6  2  0  0  0  0
  5  7  1  0  0  0  0
  2  3  1  0  0  0  0
  2  4  1  0  0  0  0
  2  5  1  0  0  0  0
  1  2  1  0  0  0  0
 21 22  2  0  0  0  0
 21 23  1  0  0  0  0
 19 20  1  0  0  0  0
 17 18  2  0  0  0  0
 17 19  1  0  0  0  0
 14 15  1  0  0  0  0
 14 16  1  0  0  0  0
 14 17  1  0  0  0  0
 11 12  1  0  0  0  0
 11 13  1  0  0  0  0
 11 14  1  0  0  0  0
  9 10  1  0  0  0  0
  9 11  1  0  0  0  0
  9 21  1  0  0  0  0
  7  8  1  0  0  0  0
  7  9  1  0  0  0  0
 25 26  1  0  0  0  0
 25 27  1  0  0  0  0
 25 28  1  0  0  0  0
 23 24  1  0  0  0  0
 23 25  1  0  0  0  0
M  END
$$$$
default_name
  -OEChem-02102213163D

 28 27  0     1  0  0  0  0  0999 V2000
   -3.2133   -3.5565    1.2809 H   0  0  0  0  0  0  0  0  0  0  0  0
   -3.1873   -2.5755    0.8089 C   0  0  0  0  0  0  0  0  0  0  0  0
   -3.8793   -1.9065    1.3169 H   0  0  0  0  0  0  0  0  0  0  0  0
   -3.4623   -2.6685   -0.2401 H   0  0  0  0  0  0  0  0  0  0  0  0
   -1.7863   -2.0195    0.9119 C   0  0  0  0  0  0  0  0  0  0  0  0
   -0.9073   -2.6615    1.4699 O   0  0  0  0  0  0  0  0  0  0  0  0
   -1.5803   -0.8195    0.3749 N   0  0  0  0  0  0  0  0  0  0  0  0
   -2.3603   -0.3345   -0.0451 H   0  0  0  0  0  0  0  0  0  0  0  0
   -0.2933   -0.1205    0.3719 C   0  0  1  0  0  0  0  0  0  0  0  0
    0.4439   -0.7485   -0.1303 H   0  0  0  0  0  0  0  0  0  0  0  0
   -0.4368    1.1924   -0.4246 C   0  0  0  0  0  0  0  0  0  0  0  0
    0.0631    1.9849    0.1350 H   0  0  0  0  0  0  0  0  0  0  0  0
    0.0670    1.0867   -1.3865 H   0  0  0  0  0  0  0  0  0  0  0  0
   -1.8952    1.6104   -0.6802 C   0  0  0  0  0  0  0  0  0  0  0  0
   -2.0854    1.6576   -1.7525 H   0  0  0  0  0  0  0  0  0  0  0  0
   -2.5620    0.8749   -0.2318 H   0  0  0  0  0  0  0  0  0  0  0  0
   -2.2200    2.9735   -0.0778 C   0  0  0  0  0  0  0  0  0  0  0  0
   -1.4730    3.6175    0.6413 O   0  0  0  0  0  0  0  0  0  0  0  0
   -3.4373    3.4642   -0.3764 O   0  0  0  0  0  0  0  0  0  0  0  0
   -3.4884    4.3051    0.0813 H   0  0  0  0  0  0  0  0  0  0  0  0
    0.1871    0.1189    1.8122 C   0  0  0  0  0  0  0  0  0  0  0  0
    1.3541   -0.1171    2.1187 O   0  0  0  0  0  0  0  0  0  0  0  0
   -0.7126    0.5740    2.6926 N   0  0  0  0  0  0  0  0  0  0  0  0
   -1.6464    0.7663    2.3621 H   0  0  0  0  0  0  0  0  0  0  0  0
   -0.4191    0.8310    4.1010 C   0  0  0  0  0  0  0  0  0  0  0  0
    0.4022    1.5452    4.1828 H   0  0  0  0  0  0  0  0  0  0  0  0
   -1.2983    1.2366    4.6035 H   0  0  0  0  0  0  0  0  0  0  0  0
   -0.1204   -0.0980    4.5907 H   0  0  0  0  0  0  0  0  0  0  0  0
  5  6  2  0  0  0  0
  5  7  1  0  0  0  0
  2  3  1  0  0  0  0
  2  4  1  0  0  0  0
  2  5  1  0  0  0  0
  1  2  1  0  0  0  0
 21 22  2  0  0  0  0
 21 23  1  0  0  0  0
 19 20  1  0  0  0  0
 17 18  2  0  0  0  0
 17 19  1  0  0  0  0
 14 15  1  0  0  0  0
 14 16  1  0  0  0  0
 14 17  1  0  0  0  0
 11 12  1  0  0  0  0
 11 13  1  0  0  0  0
 11 14  1  0  0  0  0
  9 10  1  0  0  0  0
  9 11  1  0  0  0  0
  9 21  1  0  0  0  0
  7  8  1  0  0  0  0
  7  9  1  0  0  0  0
 25 26  1  0  0  0  0
 25 27  1  0  0  0  0
 25 28  1  0  0  0  0
 23 24  1  0  0  0  0
 23 25  1  0  0  0  0
M  END
$$$$
default_name
  -OEChem-02102213163D

 28 27  0     1  0  0  0  0  0999 V2000
   -3.2133   -3.5565    1.2809 H   0  0  0  0  0  0  0  0  0  0  0  0
   -3.1873   -2.5755    0.8089 C   0  0  0  0  0  0  0  0  0  0  0  0
   -3.8793   -1.9065    1.3169 H   0  0  0  0  0  0  0  0  0  0  0  0
   -3.4623   -2.6685   -0.2401 H   0  0  0  0  0  0  0  0  0  0  0  0
   -1.7863   -2.0195    0.9119 C   0  0  0  0  0  0  0  0  0  0  0  0
   -0.9073   -2.6615    1.4699 O   0  0  0  0  0  0  0  0  0  0  0  0
   -1.5803   -0.8195    0.3749 N   0  0  0  0  0  0  0  0  0  0  0  0
   -2.3603   -0.3345   -0.0451 H   0  0  0  0  0  0  0  0  0  0  0  0
   -0.2933   -0.1205    0.3719 C   0  0  1  0  0  0  0  0  0  0  0  0
    0.4439   -0.7485   -0.1303 H   0  0  0  0  0  0  0  0  0  0  0  0
   -0.4368    1.1924   -0.4246 C   0  0  0  0  0  0  0  0  0  0  0  0
    0.0631    1.9849    0.1350 H   0  0  0  0  0  0  0  0  0  0  0  0
    0.0670    1.0867   -1.3865 H   0  0  0  0  0  0  0  0  0  0  0  0
   -1.8952    1.6104   -0.6802 C   0  0  0  0  0  0  0  0  0  0  0  0
   -2.1643    1.4045   -1.7162 H   0  0  0  0  0  0  0  0  0  0  0  0
   -2.5510    1.0419   -0.0218 H   0  0  0  0  0  0  0  0  0  0  0  0
   -2.1267    3.0942   -0.4132 C   0  0  0  0  0  0  0  0  0  0  0  0
   -1.3058    3.8545    0.0746 O   0  0  0  0  0  0  0  0  0  0  0  0
   -3.3456    3.5596   -0.7440 O   0  0  0  0  0  0  0  0  0  0  0  0
   -3.3331    4.4882   -0.5057 H   0  0  0  0  0  0  0  0  0  0  0  0
    0.1871    0.1189    1.8122 C   0  0  0  0  0  0  0  0  0  0  0  0
    1.3541   -0.1171    2.1187 O   0  0  0  0  0  0  0  0  0  0  0  0
   -0.7126    0.5740    2.6926 N   0  0  0  0  0  0  0  0  0  0  0  0
   -1.6464    0.7663    2.3621 H   0  0  0  0  0  0  0  0  0  0  0  0
   -0.4191    0.8310    4.1010 C   0  0  0  0  0  0  0  0  0  0  0  0
    0.4022    1.5452    4.1828 H   0  0  0  0  0  0  0  0  0  0  0  0
   -1.2983    1.2366    4.6035 H   0  0  0  0  0  0  0  0  0  0  0  0
   -0.1204   -0.0980    4.5907 H   0  0  0  0  0  0  0  0  0  0  0  0
  5  6  2  0  0  0  0
  5  7  1  0  0  0  0
  2  3  1  0  0  0  0
  2  4  1  0  0  0  0
  2  5  1  0  0  0  0
  1  2  1  0  0  0  0
 21 22  2  0  0  0  0
 21 23  1  0  0  0  0
 19 20  1  0  0  0  0
 17 18  2  0  0  0  0
 17 19  1  0  0  0  0
 14 15  1  0  0  0  0
 14 16  1  0  0  0  0
 14 17  1  0  0  0  0
 11 12  1  0  0  0  0
 11 13  1  0  0  0  0
 11 14  1  0  0  0  0
  9 10  1  0  0  0  0
  9 11  1  0  0  0  0
  9 21  1  0  0  0  0
  7  8  1  0  0  0  0
  7  9  1  0  0  0  0
 25 26  1  0  0  0  0
 25 27  1  0  0  0  0
 25 28  1  0  0  0  0
 23 24  1  0  0  0  0
 23 25  1  0  0  0  0
M  END
$$$$
default_name
  -OEChem-02102213163D

 28 27  0     1  0  0  0  0  0999 V2000
   -3.2133   -3.5565    1.2809 H   0  0  0  0  0  0  0  0  0  0  0  0
   -3.1873   -2.5755    0.8089 C   0  0  0  0  0  0  0  0  0  0  0  0
   -3.8793   -1.9065    1.3169 H   0  0  0  0  0  0  0  0  0  0  0  0
   -3.4623   -2.6685   -0.2401 H   0  0  0  0  0  0  0  0  0  0  0  0
   -1.7863   -2.0195    0.9119 C   0  0  0  0  0  0  0  0  0  0  0  0
   -0.9073   -2.6615    1.4699 O   0  0  0  0  0  0  0  0  0  0  0  0
   -1.5803   -0.8195    0.3749 N   0  0  0  0  0  0  0  0  0  0  0  0
   -2.3603   -0.3345   -0.0451 H   0  0  0  0  0  0  0  0  0  0  0  0
   -0.2933   -0.1205    0.3719 C   0  0  1  0  0  0  0  0  0  0  0  0
    0.4439   -0.7485   -0.1303 H   0  0  0  0  0  0  0  0  0  0  0  0
   -0.4368    1.1924   -0.4246 C   0  0  0  0  0  0  0  0  0  0  0  0
    0.0631    1.9849    0.1350 H   0  0  0  0  0  0  0  0  0  0  0  0
    0.0670    1.0867   -1.3865 H   0  0  0  0  0  0  0  0  0  0  0  0
   -1.8952    1.6104   -0.6802 C   0  0  0  0  0  0  0  0  0  0  0  0
   -2.2488    1.1723   -1.6136 H   0  0  0  0  0  0  0  0  0  0  0  0
   -2.5183    1.2544    0.1394 H   0  0  0  0  0  0  0  0  0  0  0  0
   -2.0549    3.1244   -0.7734 C   0  0  0  0  0  0  0  0  0  0  0  0
   -1.1739    3.9371   -0.5427 O   0  0  0  0  0  0  0  0  0  0  0  0
   -3.2787    3.5576   -1.1289 O   0  0  0  0  0  0  0  0  0  0  0  0
   -3.2165    4.5143   -1.1286 H   0  0  0  0  0  0  0  0  0  0  0  0
    0.1871    0.1189    1.8122 C   0  0  0  0  0  0  0  0  0  0  0  0
    1.3541   -0.1171    2.1187 O   0  0  0  0  0  0  0  0  0  0  0  0
   -0.7126    0.5740    2.6926 N   0  0  0  0  0  0  0  0  0  0  0  0
   -1.6464    0.7663    2.3621 H   0  0  0  0  0  0  0  0  0  0  0  0
   -0.4191    0.8310    4.1010 C   0  0  0  0  0  0  0  0  0  0  0  0
    0.4022    1.5452    4.1828 H   0  0  0  0  0  0  0  0  0  0  0  0
   -1.2983    1.2366    4.6035 H   0  0  0  0  0  0  0  0  0  0  0  0
   -0.1204   -0.0980    4.5907 H   0  0  0  0  0  0  0  0  0  0  0  0
  5  6  2  0  0  0  0
  5  7  1  0  0  0  0
  2  3  1  0  0  0  0
  2  4  1  0  0  0  0
  2  5  1  0  0  0  0
  1  2  1  0  0  0  0
 21 22  2  0  0  0  0
 21 23  1  0  0  0  0
 19 20  1  0  0  0  0
 17 18  2  0  0  0  0
 17 19  1  0  0  0  0
 14 15  1  0  0  0  0
 14 16  1  0  0  0  0
 14 17  1  0  0  0  0
 11 12  1  0  0  0  0
 11 13  1  0  0  0  0
 11 14  1  0  0  0  0
  9 10  1  0  0  0  0
  9 11  1  0  0  0  0
  9 21  1  0  0  0  0
  7  8  1  0  0  0  0
  7  9  1  0  0  0  0
 25 26  1  0  0  0  0
 25 27  1  0  0  0  0
 25 28  1  0  0  0  0
 23 24  1  0  0  0  0
 23 25  1  0  0  0  0
M  END
$$$$
default_name
  -OEChem-02102213163D

 28 27  0     1  0  0  0  0  0999 V2000
   -3.2133   -3.5565    1.2809 H   0  0  0  0  0  0  0  0  0  0  0  0
   -3.1873   -2.5755    0.8089 C   0  0  0  0  0  0  0  0  0  0  0  0
   -3.8793   -1.9065    1.3169 H   0  0  0  0  0  0  0  0  0  0  0  0
   -3.4623   -2.6685   -0.2401 H   0  0  0  0  0  0  0  0  0  0  0  0
   -1.7863   -2.0195    0.9119 C   0  0  0  0  0  0  0  0  0  0  0  0
   -0.9073   -2.6615    1.4699 O   0  0  0  0  0  0  0  0  0  0  0  0
   -1.5803   -0.8195    0.3749 N   0  0  0  0  0  0  0  0  0  0  0  0
   -2.3603   -0.3345   -0.0451 H   0  0  0  0  0  0  0  0  0  0  0  0
   -0.2933   -0.1205    0.3719 C   0  0  1  0  0  0  0  0  0  0  0  0
    0.4439   -0.7485   -0.1303 H   0  0  0  0  0  0  0  0  0  0  0  0
   -0.4368    1.1924   -0.4246 C   0  0  0  0  0  0  0  0  0  0  0  0
    0.0631    1.9849    0.1350 H   0  0  0  0  0  0  0  0  0  0  0  0
    0.0670    1.0867   -1.3865 H   0  0  0  0  0  0  0  0  0  0  0  0
   -1.8952    1.6104   -0.6802 C   0  0  0  0  0  0  0  0  0  0  0  0
   -2.3332    0.9769   -1.4516 H   0  0  0  0  0  0  0  0  0  0  0  0
   -2.4663    1.4977    0.2406 H   0  0  0  0  0  0  0  0  0  0  0  0
   -2.0096    3.0622   -1.1337 C   0  0  0  0  0  0  0  0  0  0  0  0
   -1.0864    3.8599   -1.1686 O   0  0  0  0  0  0  0  0  0  0  0  0
   -3.2412    3.4584   -1.5049 O   0  0  0  0  0  0  0  0  0  0  0  0
   -3.1465    4.3818   -1.7448 H   0  0  0  0  0  0  0  0  0  0  0  0
    0.1871    0.1189    1.8122 C   0  0  0  0  0  0  0  0  0  0  0  0
    1.3541   -0.1171    2.1187 O   0  0  0  0  0  0  0  0  0  0  0  0
   -0.7126    0.5740    2.6926 N   0  0  0  0  0  0  0  0  0  0  0  0
   -1.6464    0.7663    2.3621 H   0  0  0  0  0  0  0  0  0  0  0  0
   -0.4191    0.8310    4.1010 C   0  0  0  0  0  0  0  0  0  0  0  0
    0.4022    1.5452    4.1828 H   0  0  0  0  0  0  0  0  0  0  0  0
   -1.2983    1.2366    4.6035 H   0  0  0  0  0  0  0  0  0  0  0  0
   -0.1204   -0.0980    4.5907 H   0  0  0  0  0  0  0  0  0  0  0  0
  5  6  2  0  0  0  0
  5  7  1  0  0  0  0
  2  3  1  0  0  0  0
  2  4  1  0  0  0  0
  2  5  1  0  0  0  0
  1  2  1  0  0  0  0
 21 22  2  0  0  0  0
 21 23  1  0  0  0  0
 19 20  1  0  0  0  0
 17 18  2  0  0  0  0
 17 19  1  0  0  0  0
 14 15  1  0  0  0  0
 14 16  1  0  0  0  0
 14 17  1  0  0  0  0
 11 12  1  0  0  0  0
 11 13  1  0  0  0  0
 11 14  1  0  0  0  0
  9 10  1  0  0  0  0
  9 11  1  0  0  0  0
  9 21  1  0  0  0  0
  7  8  1  0  0  0  0
  7  9  1  0  0  0  0
 25 26  1  0  0  0  0
 25 27  1  0  0  0  0
 25 28  1  0  0  0  0
 23 24  1  0  0  0  0
 23 25  1  0  0  0  0
M  END
$$$$
default_name
  -OEChem-02102213163D

 28 27  0     1  0  0  0  0  0999 V2000
   -3.2133   -3.5565    1.2809 H   0  0  0  0  0  0  0  0  0  0  0  0
   -3.1873   -2.5755    0.8089 C   0  0  0  0  0  0  0  0  0  0  0  0
   -3.8793   -1.9065    1.3169 H   0  0  0  0  0  0  0  0  0  0  0  0
   -3.4623   -2.6685   -0.2401 H   0  0  0  0  0  0  0  0  0  0  0  0
   -1.7863   -2.0195    0.9119 C   0  0  0  0  0  0  0  0  0  0  0  0
   -0.9073   -2.6615    1.4699 O   0  0  0  0  0  0  0  0  0  0  0  0
   -1.5803   -0.8195    0.3749 N   0  0  0  0  0  0  0  0  0  0  0  0
   -2.3603   -0.3345   -0.0451 H   0  0  0  0  0  0  0  0  0  0  0  0
   -0.2933   -0.1205    0.3719 C   0  0  1  0  0  0  0  0  0  0  0  0
    0.4439   -0.7485   -0.1303 H   0  0  0  0  0  0  0  0  0  0  0  0
   -0.4368    1.1924   -0.4246 C   0  0  0  0  0  0  0  0  0  0  0  0
    0.2742    1.9144   -0.0193 H   0  0  0  0  0  0  0  0  0  0  0  0
   -0.1773    1.0102   -1.4685 H   0  0  0  0  0  0  0  0  0  0  0  0
   -1.8479    1.8030   -0.3712 C   0  0  0  0  0  0  0  0  0  0  0  0
   -2.5736    1.0968   -0.7748 H   0  0  0  0  0  0  0  0  0  0  0  0
   -2.1033    2.0239    0.6645 H   0  0  0  0  0  0  0  0  0  0  0  0
   -1.9480    3.0984   -1.1702 C   0  0  0  0  0  0  0  0  0  0  0  0
   -1.0060    3.6765   -1.6881 O   0  0  0  0  0  0  0  0  0  0  0  0
   -3.1849    3.6179   -1.2798 O   0  0  0  0  0  0  0  0  0  0  0  0
   -3.0753    4.4220   -1.7904 H   0  0  0  0  0  0  0  0  0  0  0  0
    0.1871    0.1189    1.8122 C   0  0  0  0  0  0  0  0  0  0  0  0
    1.3541   -0.1171    2.1187 O   0  0  0  0  0  0  0  0  0  0  0  0
   -0.7126    0.5740    2.6926 N   0  0  0  0  0  0  0  0  0  0  0  0
   -1.6464    0.7663    2.3621 H   0  0  0  0  0  0  0  0  0  0  0  0
   -0.4191    0.8310    4.1010 C   0  0  0  0  0  0  0  0  0  0  0  0
    0.4022    1.5452    4.1828 H   0  0  0  0  0  0  0  0  0  0  0  0
   -1.2983    1.2366    4.6035 H   0  0  0  0  0  0  0  0  0  0  0  0
   -0.1204   -0.0980    4.5907 H   0  0  0  0  0  0  0  0  0  0  0  0
  5  6  2  0  0  0  0
  5  7  1  0  0  0  0
  2  3  1  0  0  0  0
  2  4  1  0  0  0  0
  2  5  1  0  0  0  0
  1  2  1  0  0  0  0
 21 22  2  0  0  0  0
 21 23  1  0  0  0  0
 19 20  1  0  0  0  0
 17 18  2  0  0  0  0
 17 19  1  0  0  0  0
 14 15  1  0  0  0  0
 14 16  1  0  0  0  0
 14 17  1  0  0  0  0
 11 12  1  0  0  0  0
 11 13  1  0  0  0  0
 11 14  1  0  0  0  0
  9 10  1  0  0  0  0
  9 11  1  0  0  0  0
  9 21  1  0  0  0  0
  7  8  1  0  0  0  0
  7  9  1  0  0  0  0
 25 26  1  0  0  0  0
 25 27  1  0  0  0  0
 25 28  1  0  0  0  0
 23 24  1  0  0  0  0
 23 25  1  0  0  0  0
M  END
$$$$
default_name
  -OEChem-02102213163D

 28 27  0     1  0  0  0  0  0999 V2000
   -3.2133   -3.5565    1.2809 H   0  0  0  0  0  0  0  0  0  0  0  0
   -3.1873   -2.5755    0.8089 C   0  0  0  0  0  0  0  0  0  0  0  0
   -3.8793   -1.9065    1.3169 H   0  0  0  0  0  0  0  0  0  0  0  0
   -3.4623   -2.6685   -0.2401 H   0  0  0  0  0  0  0  0  0  0  0  0
   -1.7863   -2.0195    0.9119 C   0  0  0  0  0  0  0  0  0  0  0  0
   -0.9073   -2.6615    1.4699 O   0  0  0  0  0  0  0  0  0  0  0  0
   -1.5803   -0.8195    0.3749 N   0  0  0  0  0  0  0  0  0  0  0  0
   -2.3603   -0.3345   -0.0451 H   0  0  0  0  0  0  0  0  0  0  0  0
   -0.2933   -0.1205    0.3719 C   0  0  1  0  0  0  0  0  0  0  0  0
    0.4439   -0.7485   -0.1303 H   0  0  0  0  0  0  0  0  0  0  0  0
   -0.4368    1.1924   -0.4246 C   0  0  0  0  0  0  0  0  0  0  0  0
    0.2742    1.9144   -0.0193 H   0  0  0  0  0  0  0  0  0  0  0  0
   -0.1773    1.0102   -1.4685 H   0  0  0  0  0  0  0  0  0  0  0  0
   -1.8479    1.8030   -0.3712 C   0  0  0  0  0  0  0  0  0  0  0  0
   -2.5955    1.0235   -0.5184 H   0  0  0  0  0  0  0  0  0  0  0  0
   -2.0013    2.2648    0.6035 H   0  0  0  0  0  0  0  0  0  0  0  0
   -2.0564    2.8715   -1.4395 C   0  0  0  0  0  0  0  0  0  0  0  0
   -1.1844    3.3066   -2.1745 O   0  0  0  0  0  0  0  0  0  0  0  0
   -3.3088    3.3543   -1.5401 O   0  0  0  0  0  0  0  0  0  0  0  0
   -3.2689    4.0135   -2.2352 H   0  0  0  0  0  0  0  0  0  0  0  0
    0.1871    0.1189    1.8122 C   0  0  0  0  0  0  0  0  0  0  0  0
    1.3541   -0.1171    2.1187 O   0  0  0  0  0  0  0  0  0  0  0  0
   -0.7126    0.5740    2.6926 N   0  0  0  0  0  0  0  0  0  0  0  0
   -1.6464    0.7663    2.3621 H   0  0  0  0  0  0  0  0  0  0  0  0
   -0.4191    0.8310    4.1010 C   0  0  0  0  0  0  0  0  0  0  0  0
    0.4022    1.5452    4.1828 H   0  0  0  0  0  0  0  0  0  0  0  0
   -1.2983    1.2366    4.6035 H   0  0  0  0  0  0  0  0  0  0  0  0
   -0.1204   -0.0980    4.5907 H   0  0  0  0  0  0  0  0  0  0  0  0
  5  6  2  0  0  0  0
  5  7  1  0  0  0  0
  2  3  1  0  0  0  0
  2  4  1  0  0  0  0
  2  5  1  0  0  0  0
  1  2  1  0  0  0  0
 21 22  2  0  0  0  0
 21 23  1  0  0  0  0
 19 20  1  0  0  0  0
 17 18  2  0  0  0  0
 17 19  1  0  0  0  0
 14 15  1  0  0  0  0
 14 16  1  0  0  0  0
 14 17  1  0  0  0  0
 11 12  1  0  0  0  0
 11 13  1  0  0  0  0
 11 14  1  0  0  0  0
  9 10  1  0  0  0  0
  9 11  1  0  0  0  0
  9 21  1  0  0  0  0
  7  8  1  0  0  0  0
  7  9  1  0  0  0  0
 25 26  1  0  0  0  0
 25 27  1  0  0  0  0
 25 28  1  0  0  0  0
 23 24  1  0  0  0  0
 23 25  1  0  0  0  0
M  END
$$$$
default_name
  -OEChem-02102213163D

 28 27  0     1  0  0  0  0  0999 V2000
   -3.2133   -3.5565    1.2809 H   0  0  0  0  0  0  0  0  0  0  0  0
   -3.1873   -2.5755    0.8089 C   0  0  0  0  0  0  0  0  0  0  0  0
   -3.8793   -1.9065    1.3169 H   0  0  0  0  0  0  0  0  0  0  0  0
   -3.4623   -2.6685   -0.2401 H   0  0  0  0  0  0  0  0  0  0  0  0
   -1.7863   -2.0195    0.9119 C   0  0  0  0  0  0  0  0  0  0  0  0
   -0.9073   -2.6615    1.4699 O   0  0  0  0  0  0  0  0  0  0  0  0
   -1.5803   -0.8195    0.3749 N   0  0  0  0  0  0  0  0  0  0  0  0
   -2.3603   -0.3345   -0.0451 H   0  0  0  0  0  0  0  0  0  0  0  0
   -0.2933   -0.1205    0.3719 C   0  0  1  0  0  0  0  0  0  0  0  0
    0.4439   -0.7485   -0.1303 H   0  0  0  0  0  0  0  0  0  0  0  0
   -0.4368    1.1924   -0.4246 C   0  0  0  0  0  0  0  0  0  0  0  0
    0.2742    1.9144   -0.0193 H   0  0  0  0  0  0  0  0  0  0  0  0
   -0.1773    1.0102   -1.4685 H   0  0  0  0  0  0  0  0  0  0  0  0
   -1.8479    1.8030   -0.3712 C   0  0  0  0  0  0  0  0  0  0  0  0
   -2.5898    1.0135   -0.2511 H   0  0  0  0  0  0  0  0  0  0  0  0
   -1.9113    2.4839    0.4768 H   0  0  0  0  0  0  0  0  0  0  0  0
   -2.1867    2.5875   -1.6347 C   0  0  0  0  0  0  0  0  0  0  0  0
   -1.4035    2.8322   -2.5383 O   0  0  0  0  0  0  0  0  0  0  0  0
   -3.4529    3.0367   -1.7162 O   0  0  0  0  0  0  0  0  0  0  0  0
   -3.4979    3.5115   -2.5479 H   0  0  0  0  0  0  0  0  0  0  0  0
    0.1871    0.1189    1.8122 C   0  0  0  0  0  0  0  0  0  0  0  0
    1.3541   -0.1171    2.1187 O   0  0  0  0  0  0  0  0  0  0  0  0
   -0.7126    0.5740    2.6926 N   0  0  0  0  0  0  0  0  0  0  0  0
   -1.6464    0.7663    2.3621 H   0  0  0  0  0  0  0  0  0  0  0  0
   -0.4191    0.8310    4.1010 C   0  0  0  0  0  0  0  0  0  0  0  0
    0.4022    1.5452    4.1828 H   0  0  0  0  0  0  0  0  0  0  0  0
   -1.2983    1.2366    4.6035 H   0  0  0  0  0  0  0  0  0  0  0  0
   -0.1204   -0.0980    4.5907 H   0  0  0  0  0  0  0  0  0  0  0  0
  5  6  2  0  0  0  0
  5  7  1  0  0  0  0
  2  3  1  0  0  0  0
  2  4  1  0  0  0  0
  2  5  1  0  0  0  0
  1  2  1  0  0  0  0
 21 22  2  0  0  0  0
 21 23  1  0  0  0  0
 19 20  1  0  0  0  0
 17 18  2  0  0  0  0
 17 19  1  0  0  0  0
 14 15  1  0  0  0  0
 14 16  1  0  0  0  0
 14 17  1  0  0  0  0
 11 12  1  0  0  0  0
 11 13  1  0  0  0  0
 11 14  1  0  0  0  0
  9 10  1  0  0  0  0
  9 11  1  0  0  0  0
  9 21  1  0  0  0  0
  7  8  1  0  0  0  0
  7  9  1  0  0  0  0
 25 26  1  0  0  0  0
 25 27  1  0  0  0  0
 25 28  1  0  0  0  0
 23 24  1  0  0  0  0
 23 25  1  0  0  0  0
M  END
$$$$
default_name
  -OEChem-02102213163D

 28 27  0     1  0  0  0  0  0999 V2000
   -3.2133   -3.5565    1.2809 H   0  0  0  0  0  0  0  0  0  0  0  0
   -3.1873   -2.5755    0.8089 C   0  0  0  0  0  0  0  0  0  0  0  0
   -3.8793   -1.9065    1.3169 H   0  0  0  0  0  0  0  0  0  0  0  0
   -3.4623   -2.6685   -0.2401 H   0  0  0  0  0  0  0  0  0  0  0  0
   -1.7863   -2.0195    0.9119 C   0  0  0  0  0  0  0  0  0  0  0  0
   -0.9073   -2.6615    1.4699 O   0  0  0  0  0  0  0  0  0  0  0  0
   -1.5803   -0.8195    0.3749 N   0  0  0  0  0  0  0  0  0  0  0  0
   -2.3603   -0.3345   -0.0451 H   0  0  0  0  0  0  0  0  0  0  0  0
   -0.2933   -0.1205    0.3719 C   0  0  1  0  0  0  0  0  0  0  0  0
    0.4439   -0.7485   -0.1303 H   0  0  0  0  0  0  0  0  0  0  0  0
   -0.4368    1.1924   -0.4246 C   0  0  0  0  0  0  0  0  0  0  0  0
    0.2742    1.9144   -0.0193 H   0  0  0  0  0  0  0  0  0  0  0  0
   -0.1773    1.0102   -1.4685 H   0  0  0  0  0  0  0  0  0  0  0  0
   -1.8479    1.8030   -0.3712 C   0  0  0  0  0  0  0  0  0  0  0  0
   -2.5567    1.0672    0.0089 H   0  0  0  0  0  0  0  0  0  0  0  0
   -1.8394    2.6663    0.2932 H   0  0  0  0  0  0  0  0  0  0  0  0
   -2.3301    2.2656   -1.7423 C   0  0  0  0  0  0  0  0  0  0  0  0
   -1.6481    2.2857   -2.7545 O   0  0  0  0  0  0  0  0  0  0  0  0
   -3.6073    2.6868   -1.7961 O   0  0  0  0  0  0  0  0  0  0  0  0
   -3.7468    2.9503   -2.7074 H   0  0  0  0  0  0  0  0  0  0  0  0
    0.1871    0.1189    1.8122 C   0  0  0  0  0  0  0  0  0  0  0  0
    1.3541   -0.1171    2.1187 O   0  0  0  0  0  0  0  0  0  0  0  0
   -0.7126    0.5740    2.6926 N   0  0  0  0  0  0  0  0  0  0  0  0
   -1.6464    0.7663    2.3621 H   0  0  0  0  0  0  0  0  0  0  0  0
   -0.4191    0.8310    4.1010 C   0  0  0  0  0  0  0  0  0  0  0  0
    0.4022    1.5452    4.1828 H   0  0  0  0  0  0  0  0  0  0  0  0
   -1.2983    1.2366    4.6035 H   0  0  0  0  0  0  0  0  0  0  0  0
   -0.1204   -0.0980    4.5907 H   0  0  0  0  0  0  0  0  0  0  0  0
  5  6  2  0  0  0  0
  5  7  1  0  0  0  0
  2  3  1  0  0  0  0
  2  4  1  0  0  0  0
  2  5  1  0  0  0  0
  1  2  1  0  0  0  0
 21 22  2  0  0  0  0
 21 23  1  0  0  0  0
 19 20  1  0  0  0  0
 17 18  2  0  0  0  0
 17 19  1  0  0  0  0
 14 15  1  0  0  0  0
 14 16  1  0  0  0  0
 14 17  1  0  0  0  0
 11 12  1  0  0  0  0
 11 13  1  0  0  0  0
 11 14  1  0  0  0  0
  9 10  1  0  0  0  0
  9 11  1  0  0  0  0
  9 21  1  0  0  0  0
  7  8  1  0  0  0  0
  7  9  1  0  0  0  0
 25 26  1  0  0  0  0
 25 27  1  0  0  0  0
 25 28  1  0  0  0  0
 23 24  1  0  0  0  0
 23 25  1  0  0  0  0
M  END
$$$$
default_name
  -OEChem-02102213163D

 28 27  0     1  0  0  0  0  0999 V2000
   -3.2133   -3.5565    1.2809 H   0  0  0  0  0  0  0  0  0  0  0  0
   -3.1873   -2.5755    0.8089 C   0  0  0  0  0  0  0  0  0  0  0  0
   -3.8793   -1.9065    1.3169 H   0  0  0  0  0  0  0  0  0  0  0  0
   -3.4623   -2.6685   -0.2401 H   0  0  0  0  0  0  0  0  0  0  0  0
   -1.7863   -2.0195    0.9119 C   0  0  0  0  0  0  0  0  0  0  0  0
   -0.9073   -2.6615    1.4699 O   0  0  0  0  0  0  0  0  0  0  0  0
   -1.5803   -0.8195    0.3749 N   0  0  0  0  0  0  0  0  0  0  0  0
   -2.3603   -0.3345   -0.0451 H   0  0  0  0  0  0  0  0  0  0  0  0
   -0.2933   -0.1205    0.3719 C   0  0  1  0  0  0  0  0  0  0  0  0
    0.4439   -0.7485   -0.1303 H   0  0  0  0  0  0  0  0  0  0  0  0
   -0.4368    1.1924   -0.4246 C   0  0  0  0  0  0  0  0  0  0  0  0
    0.2742    1.9144   -0.0193 H   0  0  0  0  0  0  0  0  0  0  0  0
   -0.1773    1.0102   -1.4685 H   0  0  0  0  0  0  0  0  0  0  0  0
   -1.8479    1.8030   -0.3712 C   0  0  0  0  0  0  0  0  0  0  0  0
   -2.4985    1.1812    0.2439 H   0  0  0  0  0  0  0  0  0  0  0  0
   -1.7903    2.7995    0.0652 H   0  0  0  0  0  0  0  0  0  0  0  0
   -2.4767    1.9278   -1.7552 C   0  0  0  0  0  0  0  0  0  0  0  0
   -1.9017    1.7042   -2.8084 O   0  0  0  0  0  0  0  0  0  0  0  0
   -3.7615    2.3285   -1.7744 O   0  0  0  0  0  0  0  0  0  0  0  0
   -3.9985    2.3682   -2.7026 H   0  0  0  0  0  0  0  0  0  0  0  0
    0.1871    0.1189    1.8122 C   0  0  0  0  0  0  0  0  0  0  0  0
    1.3541   -0.1171    2.1187 O   0  0  0  0  0  0  0  0  0  0  0  0
   -0.7126    0.5740    2.6926 N   0  0  0  0  0  0  0  0  0  0  0  0
   -1.6464    0.7663    2.3621 H   0  0  0  0  0  0  0  0  0  0  0  0
   -0.4191    0.8310    4.1010 C   0  0  0  0  0  0  0  0  0  0  0  0
    0.4022    1.5452    4.1828 H   0  0  0  0  0  0  0  0  0  0  0  0
   -1.2983    1.2366    4.6035 H   0  0  0  0  0  0  0  0  0  0  0  0
   -0.1204   -0.0980    4.5907 H   0  0  0  0  0  0  0  0  0  0  0  0
  5  6  2  0  0  0  0
  5  7  1  0  0  0  0
  2  3  1  0  0  0  0
  2  4  1  0  0  0  0
  2  5  1  0  0  0  0
  1  2  1  0  0  0  0
 21 22  2  0  0  0  0
 21 23  1  0  0  0  0
 19 20  1  0  0  0  0
 17 18  2  0  0  0  0
 17 19  1  0  0  0  0
 14 15  1  0  0  0  0
 14 16  1  0  0  0  0
 14 17  1  0  0  0  0
 11 12  1  0  0  0  0
 11 13  1  0  0  0  0
 11 14  1  0  0  0  0
  9 10  1  0  0  0  0
  9 11  1  0  0  0  0
  9 21  1  0  0  0  0
  7  8  1  0  0  0  0
  7  9  1  0  0  0  0
 25 26  1  0  0  0  0
 25 27  1  0  0  0  0
 25 28  1  0  0  0  0
 23 24  1  0  0  0  0
 23 25  1  0  0  0  0
M  END
$$$$
default_name
  -OEChem-02102213163D

 28 27  0     1  0  0  0  0  0999 V2000
   -3.2133   -3.5565    1.2809 H   0  0  0  0  0  0  0  0  0  0  0  0
   -3.1873   -2.5755    0.8089 C   0  0  0  0  0  0  0  0  0  0  0  0
   -3.8793   -1.9065    1.3169 H   0  0  0  0  0  0  0  0  0  0  0  0
   -3.4623   -2.6685   -0.2401 H   0  0  0  0  0  0  0  0  0  0  0  0
   -1.7863   -2.0195    0.9119 C   0  0  0  0  0  0  0  0  0  0  0  0
   -0.9073   -2.6615    1.4699 O   0  0  0  0  0  0  0  0  0  0  0  0
   -1.5803   -0.8195    0.3749 N   0  0  0  0  0  0  0  0  0  0  0  0
   -2.3603   -0.3345   -0.0451 H   0  0  0  0  0  0  0  0  0  0  0  0
   -0.2933   -0.1205    0.3719 C   0  0  1  0  0  0  0  0  0  0  0  0
    0.4439   -0.7485   -0.1303 H   0  0  0  0  0  0  0  0  0  0  0  0
   -0.4368    1.1924   -0.4246 C   0  0  0  0  0  0  0  0  0  0  0  0
    0.2742    1.9144   -0.0193 H   0  0  0  0  0  0  0  0  0  0  0  0
   -0.1773    1.0102   -1.4685 H   0  0  0  0  0  0  0  0  0  0  0  0
   -1.8479    1.8030   -0.3712 C   0  0  0  0  0  0  0  0  0  0  0  0
   -2.4191    1.3476    0.4378 H   0  0  0  0  0  0  0  0  0  0  0  0
   -1.7676    2.8745   -0.1917 H   0  0  0  0  0  0  0  0  0  0  0  0
   -2.6166    1.5972   -1.6724 C   0  0  0  0  0  0  0  0  0  0  0  0
   -2.1470    1.1275   -2.6965 O   0  0  0  0  0  0  0  0  0  0  0  0
   -3.9050    1.9862   -1.6525 O   0  0  0  0  0  0  0  0  0  0  0  0
   -4.2359    1.8048   -2.5339 H   0  0  0  0  0  0  0  0  0  0  0  0
    0.1871    0.1189    1.8122 C   0  0  0  0  0  0  0  0  0  0  0  0
    1.3541   -0.1171    2.1187 O   0  0  0  0  0  0  0  0  0  0  0  0
   -0.7126    0.5740    2.6926 N   0  0  0  0  0  0  0  0  0  0  0  0
   -1.6464    0.7663    2.3621 H   0  0  0  0  0  0  0  0  0  0  0  0
   -0.4191    0.8310    4.1010 C   0  0  0  0  0  0  0  0  0  0  0  0
    0.4022    1.5452    4.1828 H   0  0  0  0  0  0  0  0  0  0  0  0
   -1.2983    1.2366    4.6035 H   0  0  0  0  0  0  0  0  0  0  0  0
   -0.1204   -0.0980    4.5907 H   0  0  0  0  0  0  0  0  0  0  0  0
  5  6  2  0  0  0  0
  5  7  1  0  0  0  0
  2  3  1  0  0  0  0
  2  4  1  0  0  0  0
  2  5  1  0  0  0  0
  1  2  1  0  0  0  0
 21 22  2  0  0  0  0
 21 23  1  0  0  0  0
 19 20  1  0  0  0  0
 17 18  2  0  0  0  0
 17 19  1  0  0  0  0
 14 15  1  0  0  0  0
 14 16  1  0  0  0  0
 14 17  1  0  0  0  0
 11 12  1  0  0  0  0
 11 13  1  0  0  0  0
 11 14  1  0  0  0  0
  9 10  1  0  0  0  0
  9 11  1  0  0  0  0
  9 21  1  0  0  0  0
  7  8  1  0  0  0  0
  7  9  1  0  0  0  0
 25 26  1  0  0  0  0
 25 27  1  0  0  0  0
 25 28  1  0  0  0  0
 23 24  1  0  0  0  0
 23 25  1  0  0  0  0
M  END
$$$$
default_name
  -OEChem-02102213163D

 28 27  0     1  0  0  0  0  0999 V2000
   -3.2133   -3.5565    1.2809 H   0  0  0  0  0  0  0  0  0  0  0  0
   -3.1873   -2.5755    0.8089 C   0  0  0  0  0  0  0  0  0  0  0  0
   -3.8793   -1.9065    1.3169 H   0  0  0  0  0  0  0  0  0  0  0  0
   -3.4623   -2.6685   -0.2401 H   0  0  0  0  0  0  0  0  0  0  0  0
   -1.7863   -2.0195    0.9119 C   0  0  0  0  0  0  0  0  0  0  0  0
   -0.9073   -2.6615    1.4699 O   0  0  0  0  0  0  0  0  0  0  0  0
   -1.5803   -0.8195    0.3749 N   0  0  0  0  0  0  0  0  0  0  0  0
   -2.3603   -0.3345   -0.0451 H   0  0  0  0  0  0  0  0  0  0  0  0
   -0.2933   -0.1205    0.3719 C   0  0  1  0  0  0  0  0  0  0  0  0
    0.4439   -0.7485   -0.1303 H   0  0  0  0  0  0  0  0  0  0  0  0
   -0.4368    1.1924   -0.4246 C   0  0  0  0  0  0  0  0  0  0  0  0
    0.2742    1.9144   -0.0193 H   0  0  0  0  0  0  0  0  0  0  0  0
   -0.1773    1.0102   -1.4685 H   0  0  0  0  0  0  0  0  0  0  0  0
   -1.8479    1.8030   -0.3712 C   0  0  0  0  0  0  0  0  0  0  0  0
   -2.3241    1.5550    0.5775 H   0  0  0  0  0  0  0  0  0  0  0  0
   -1.7727    2.8862   -0.4600 H   0  0  0  0  0  0  0  0  0  0  0  0
   -2.7403    1.2962   -1.4995 C   0  0  0  0  0  0  0  0  0  0  0  0
   -2.3673    0.5948   -2.4263 O   0  0  0  0  0  0  0  0  0  0  0  0
   -4.0280    1.6832   -1.4387 O   0  0  0  0  0  0  0  0  0  0  0  0
   -4.4428    1.2984   -2.2128 H   0  0  0  0  0  0  0  0  0  0  0  0
    0.1871    0.1189    1.8122 C   0  0  0  0  0  0  0  0  0  0  0  0
    1.3541   -0.1171    2.1187 O   0  0  0  0  0  0  0  0  0  0  0  0
   -0.7126    0.5740    2.6926 N   0  0  0  0  0  0  0  0  0  0  0  0
   -1.6464    0.7663    2.3621 H   0  0  0  0  0  0  0  0  0  0  0  0
   -0.4191    0.8310    4.1010 C   0  0  0  0  0  0  0  0  0  0  0  0
    0.4022    1.5452    4.1828 H   0  0  0  0  0  0  0  0  0  0  0  0
   -1.2983    1.2366    4.6035 H   0  0  0  0  0  0  0  0  0  0  0  0
   -0.1204   -0.0980    4.5907 H   0  0  0  0  0  0  0  0  0  0  0  0
  5  6  2  0  0  0  0
  5  7  1  0  0  0  0
  2  3  1  0  0  0  0
  2  4  1  0  0  0  0
  2  5  1  0  0  0  0
  1  2  1  0  0  0  0
 21 22  2  0  0  0  0
 21 23  1  0  0  0  0
 19 20  1  0  0  0  0
 17 18  2  0  0  0  0
 17 19  1  0  0  0  0
 14 15  1  0  0  0  0
 14 16  1  0  0  0  0
 14 17  1  0  0  0  0
 11 12  1  0  0  0  0
 11 13  1  0  0  0  0
 11 14  1  0  0  0  0
  9 10  1  0  0  0  0
  9 11  1  0  0  0  0
  9 21  1  0  0  0  0
  7  8  1  0  0  0  0
  7  9  1  0  0  0  0
 25 26  1  0  0  0  0
 25 27  1  0  0  0  0
 25 28  1  0  0  0  0
 23 24  1  0  0  0  0
 23 25  1  0  0  0  0
M  END
$$$$
default_name
  -OEChem-02102213163D

 28 27  0     1  0  0  0  0  0999 V2000
   -3.2133   -3.5565    1.2809 H   0  0  0  0  0  0  0  0  0  0  0  0
   -3.1873   -2.5755    0.8089 C   0  0  0  0  0  0  0  0  0  0  0  0
   -3.8793   -1.9065    1.3169 H   0  0  0  0  0  0  0  0  0  0  0  0
   -3.4623   -2.6685   -0.2401 H   0  0  0  0  0  0  0  0  0  0  0  0
   -1.7863   -2.0195    0.9119 C   0  0  0  0  0  0  0  0  0  0  0  0
   -0.9073   -2.6615    1.4699 O   0  0  0  0  0  0  0  0  0  0  0  0
   -1.5803   -0.8195    0.3749 N   0  0  0  0  0  0  0  0  0  0  0  0
   -2.3603   -0.3345   -0.0451 H   0  0  0  0  0  0  0  0  0  0  0  0
   -0.2933   -0.1205    0.3719 C   0  0  1  0  0  0  0  0  0  0  0  0
    0.4439   -0.7485   -0.1303 H   0  0  0  0  0  0  0  0  0  0  0  0
   -0.4368    1.1924   -0.4246 C   0  0  0  0  0  0  0  0  0  0  0  0
    0.2742    1.9144   -0.0193 H   0  0  0  0  0  0  0  0  0  0  0  0
   -0.1773    1.0102   -1.4685 H   0  0  0  0  0  0  0  0  0  0  0  0
   -1.8479    1.8030   -0.3712 C   0  0  0  0  0  0  0  0  0  0  0  0
   -2.2198    1.7894    0.6534 H   0  0  0  0  0  0  0  0  0  0  0  0
   -1.8053    2.8337   -0.7214 H   0  0  0  0  0  0  0  0  0  0  0  0
   -2.8393    1.0454   -1.2484 C   0  0  0  0  0  0  0  0  0  0  0  0
   -2.5475    0.1425   -2.0162 O   0  0  0  0  0  0  0  0  0  0  0  0
   -4.1222    1.4402   -1.1477 O   0  0  0  0  0  0  0  0  0  0  0  0
   -4.6051    0.8837   -1.7612 H   0  0  0  0  0  0  0  0  0  0  0  0
    0.1871    0.1189    1.8122 C   0  0  0  0  0  0  0  0  0  0  0  0
    1.3541   -0.1171    2.1187 O   0  0  0  0  0  0  0  0  0  0  0  0
   -0.7126    0.5740    2.6926 N   0  0  0  0  0  0  0  0  0  0  0  0
   -1.6464    0.7663    2.3621 H   0  0  0  0  0  0  0  0  0  0  0  0
   -0.4191    0.8310    4.1010 C   0  0  0  0  0  0  0  0  0  0  0  0
    0.4022    1.5452    4.1828 H   0  0  0  0  0  0  0  0  0  0  0  0
   -1.2983    1.2366    4.6035 H   0  0  0  0  0  0  0  0  0  0  0  0
   -0.1204   -0.0980    4.5907 H   0  0  0  0  0  0  0  0  0  0  0  0
  5  6  2  0  0  0  0
  5  7  1  0  0  0  0
  2  3  1  0  0  0  0
  2  4  1  0  0  0  0
  2  5  1  0  0  0  0
  1  2  1  0  0  0  0
 21 22  2  0  0  0  0
 21 23  1  0  0  0  0
 19 20  1  0  0  0  0
 17 18  2  0  0  0  0
 17 19  1  0  0  0  0
 14 15  1  0  0  0  0
 14 16  1  0  0  0  0
 14 17  1  0  0  0  0
 11 12  1  0  0  0  0
 11 13  1  0  0  0  0
 11 14  1  0  0  0  0
  9 10  1  0  0  0  0
  9 11  1  0  0  0  0
  9 21  1  0  0  0  0
  7  8  1  0  0  0  0
  7  9  1  0  0  0  0
 25 26  1  0  0  0  0
 25 27  1  0  0  0  0
 25 28  1  0  0  0  0
 23 24  1  0  0  0  0
 23 25  1  0  0  0  0
M  END
$$$$
default_name
  -OEChem-02102213163D

 28 27  0     1  0  0  0  0  0999 V2000
   -3.2133   -3.5565    1.2809 H   0  0  0  0  0  0  0  0  0  0  0  0
   -3.1873   -2.5755    0.8089 C   0  0  0  0  0  0  0  0  0  0  0  0
   -3.8793   -1.9065    1.3169 H   0  0  0  0  0  0  0  0  0  0  0  0
   -3.4623   -2.6685   -0.2401 H   0  0  0  0  0  0  0  0  0  0  0  0
   -1.7863   -2.0195    0.9119 C   0  0  0  0  0  0  0  0  0  0  0  0
   -0.9073   -2.6615    1.4699 O   0  0  0  0  0  0  0  0  0  0  0  0
   -1.5803   -0.8195    0.3749 N   0  0  0  0  0  0  0  0  0  0  0  0
   -2.3603   -0.3345   -0.0451 H   0  0  0  0  0  0  0  0  0  0  0  0
   -0.2933   -0.1205    0.3719 C   0  0  1  0  0  0  0  0  0  0  0  0
    0.4439   -0.7485   -0.1303 H   0  0  0  0  0  0  0  0  0  0  0  0
   -0.4368    1.1924   -0.4246 C   0  0  0  0  0  0  0  0  0  0  0  0
    0.2742    1.9144   -0.0193 H   0  0  0  0  0  0  0  0  0  0  0  0
   -0.1773    1.0102   -1.4685 H   0  0  0  0  0  0  0  0  0  0  0  0
   -1.8479    1.8030   -0.3712 C   0  0  0  0  0  0  0  0  0  0  0  0
   -2.1133    2.0348    0.6603 H   0  0  0  0  0  0  0  0  0  0  0  0
   -1.8632    2.7207   -0.9581 H   0  0  0  0  0  0  0  0  0  0  0  0
   -2.9069    0.8619   -0.9361 C   0  0  0  0  0  0  0  0  0  0  0  0
   -2.6754   -0.1987   -1.4941 O   0  0  0  0  0  0  0  0  0  0  0  0
   -4.1810    1.2736   -0.7992 O   0  0  0  0  0  0  0  0  0  0  0  0
   -4.7118    0.5889   -1.2099 H   0  0  0  0  0  0  0  0  0  0  0  0
    0.1871    0.1189    1.8122 C   0  0  0  0  0  0  0  0  0  0  0  0
    1.3541   -0.1171    2.1187 O   0  0  0  0  0  0  0  0  0  0  0  0
   -0.7126    0.5740    2.6926 N   0  0  0  0  0  0  0  0  0  0  0  0
   -1.6464    0.7663    2.3621 H   0  0  0  0  0  0  0  0  0  0  0  0
   -0.4191    0.8310    4.1010 C   0  0  0  0  0  0  0  0  0  0  0  0
    0.4022    1.5452    4.1828 H   0  0  0  0  0  0  0  0  0  0  0  0
   -1.2983    1.2366    4.6035 H   0  0  0  0  0  0  0  0  0  0  0  0
   -0.1204   -0.0980    4.5907 H   0  0  0  0  0  0  0  0  0  0  0  0
  5  6  2  0  0  0  0
  5  7  1  0  0  0  0
  2  3  1  0  0  0  0
  2  4  1  0  0  0  0
  2  5  1  0  0  0  0
  1  2  1  0  0  0  0
 21 22  2  0  0  0  0
 21 23  1  0  0  0  0
 19 20  1  0  0  0  0
 17 18  2  0  0  0  0
 17 19  1  0  0  0  0
 14 15  1  0  0  0  0
 14 16  1  0  0  0  0
 14 17  1  0  0  0  0
 11 12  1  0  0  0  0
 11 13  1  0  0  0  0
 11 14  1  0  0  0  0
  9 10  1  0  0  0  0
  9 11  1  0  0  0  0
  9 21  1  0  0  0  0
  7  8  1  0  0  0  0
  7  9  1  0  0  0  0
 25 26  1  0  0  0  0
 25 27  1  0  0  0  0
 25 28  1  0  0  0  0
 23 24  1  0  0  0  0
 23 25  1  0  0  0  0
M  END
$$$$
default_name
  -OEChem-02102213163D

 28 27  0     1  0  0  0  0  0999 V2000
   -3.2133   -3.5565    1.2809 H   0  0  0  0  0  0  0  0  0  0  0  0
   -3.1873   -2.5755    0.8089 C   0  0  0  0  0  0  0  0  0  0  0  0
   -3.8793   -1.9065    1.3169 H   0  0  0  0  0  0  0  0  0  0  0  0
   -3.4623   -2.6685   -0.2401 H   0  0  0  0  0  0  0  0  0  0  0  0
   -1.7863   -2.0195    0.9119 C   0  0  0  0  0  0  0  0  0  0  0  0
   -0.9073   -2.6615    1.4699 O   0  0  0  0  0  0  0  0  0  0  0  0
   -1.5803   -0.8195    0.3749 N   0  0  0  0  0  0  0  0  0  0  0  0
   -2.3603   -0.3345   -0.0451 H   0  0  0  0  0  0  0  0  0  0  0  0
   -0.2933   -0.1205    0.3719 C   0  0  1  0  0  0  0  0  0  0  0  0
    0.4439   -0.7485   -0.1303 H   0  0  0  0  0  0  0  0  0  0  0  0
   -0.4368    1.1924   -0.4246 C   0  0  0  0  0  0  0  0  0  0  0  0
    0.2742    1.9144   -0.0193 H   0  0  0  0  0  0  0  0  0  0  0  0
   -0.1773    1.0102   -1.4685 H   0  0  0  0  0  0  0  0  0  0  0  0
   -1.8479    1.8030   -0.3712 C   0  0  0  0  0  0  0  0  0  0  0  0
   -2.0120    2.2744    0.5979 H   0  0  0  0  0  0  0  0  0  0  0  0
   -1.9424    2.5548   -1.1539 H   0  0  0  0  0  0  0  0  0  0  0  0
   -2.9385    0.7581   -0.5840 C   0  0  0  0  0  0  0  0  0  0  0  0
   -2.7422   -0.4056   -0.8957 O   0  0  0  0  0  0  0  0  0  0  0  0
   -4.2006    1.1950   -0.4170 O   0  0  0  0  0  0  0  0  0  0  0  0
   -4.7556    0.4341   -0.5964 H   0  0  0  0  0  0  0  0  0  0  0  0
    0.1871    0.1189    1.8122 C   0  0  0  0  0  0  0  0  0  0  0  0
    1.3541   -0.1171    2.1187 O   0  0  0  0  0  0  0  0  0  0  0  0
   -0.7126    0.5740    2.6926 N   0  0  0  0  0  0  0  0  0  0  0  0
   -1.6464    0.7663    2.3621 H   0  0  0  0  0  0  0  0  0  0  0  0
   -0.4191    0.8310    4.1010 C   0  0  0  0  0  0  0  0  0  0  0  0
    0.4022    1.5452    4.1828 H   0  0  0  0  0  0  0  0  0  0  0  0
   -1.2983    1.2366    4.6035 H   0  0  0  0  0  0  0  0  0  0  0  0
   -0.1204   -0.0980    4.5907 H   0  0  0  0  0  0  0  0  0  0  0  0
  5  6  2  0  0  0  0
  5  7  1  0  0  0  0
  2  3  1  0  0  0  0
  2  4  1  0  0  0  0
  2  5  1  0  0  0  0
  1  2  1  0  0  0  0
 21 22  2  0  0  0  0
 21 23  1  0  0  0  0
 19 20  1  0  0  0  0
 17 18  2  0  0  0  0
 17 19  1  0  0  0  0
 14 15  1  0  0  0  0
 14 16  1  0  0  0  0
 14 17  1  0  0  0  0
 11 12  1  0  0  0  0
 11 13  1  0  0  0  0
 11 14  1  0  0  0  0
  9 10  1  0  0  0  0
  9 11  1  0  0  0  0
  9 21  1  0  0  0  0
  7  8  1  0  0  0  0
  7  9  1  0  0  0  0
 25 26  1  0  0  0  0
 25 27  1  0  0  0  0
 25 28  1  0  0  0  0
 23 24  1  0  0  0  0
 23 25  1  0  0  0  0
M  END
$$$$
default_name
  -OEChem-02102213163D

 28 27  0     1  0  0  0  0  0999 V2000
   -3.2133   -3.5565    1.2809 H   0  0  0  0  0  0  0  0  0  0  0  0
   -3.1873   -2.5755    0.8089 C   0  0  0  0  0  0  0  0  0  0  0  0
   -3.8793   -1.9065    1.3169 H   0  0  0  0  0  0  0  0  0  0  0  0
   -3.4623   -2.6685   -0.2401 H   0  0  0  0  0  0  0  0  0  0  0  0
   -1.7863   -2.0195    0.9119 C   0  0  0  0  0  0  0  0  0  0  0  0
   -0.9073   -2.6615    1.4699 O   0  0  0  0  0  0  0  0  0  0  0  0
   -1.5803   -0.8195    0.3749 N   0  0  0  0  0  0  0  0  0  0  0  0
   -2.3603   -0.3345   -0.0451 H   0  0  0  0  0  0  0  0  0  0  0  0
   -0.2933   -0.1205    0.3719 C   0  0  1  0  0  0  0  0  0  0  0  0
    0.4439   -0.7485   -0.1303 H   0  0  0  0  0  0  0  0  0  0  0  0
   -0.4368    1.1924   -0.4246 C   0  0  0  0  0  0  0  0  0  0  0  0
    0.2742    1.9144   -0.0193 H   0  0  0  0  0  0  0  0  0  0  0  0
   -0.1773    1.0102   -1.4685 H   0  0  0  0  0  0  0  0  0  0  0  0
   -1.8479    1.8030   -0.3712 C   0  0  0  0  0  0  0  0  0  0  0  0
   -1.9227    2.4920    0.4703 H   0  0  0  0  0  0  0  0  0  0  0  0
   -2.0375    2.3473   -1.2956 H   0  0  0  0  0  0  0  0  0  0  0  0
   -2.9318    0.7412   -0.2160 C   0  0  0  0  0  0  0  0  0  0  0  0
   -2.7434   -0.4639   -0.2618 O   0  0  0  0  0  0  0  0  0  0  0  0
   -4.1795    1.2096   -0.0272 O   0  0  0  0  0  0  0  0  0  0  0  0
   -4.7335    0.4297    0.0374 H   0  0  0  0  0  0  0  0  0  0  0  0
    0.1871    0.1189    1.8122 C   0  0  0  0  0  0  0  0  0  0  0  0
    1.3541   -0.1171    2.1187 O   0  0  0  0  0  0  0  0  0  0  0  0
   -0.7126    0.5740    2.6926 N   0  0  0  0  0  0  0  0  0  0  0  0
   -1.6464    0.7663    2.3621 H   0  0  0  0  0  0  0  0  0  0  0  0
   -0.4191    0.8310    4.1010 C   0  0  0  0  0  0  0  0  0  0  0  0
    0.4022    1.5452    4.1828 H   0  0  0  0  0  0  0  0  0  0  0  0
   -1.2983    1.2366    4.6035 H   0  0  0  0  0  0  0  0  0  0  0  0
   -0.1204   -0.0980    4.5907 H   0  0  0  0  0  0  0  0  0  0  0  0
  5  6  2  0  0  0  0
  5  7  1  0  0  0  0
  2  3  1  0  0  0  0
  2  4  1  0  0  0  0
  2  5  1  0  0  0  0
  1  2  1  0  0  0  0
 21 22  2  0  0  0  0
 21 23  1  0  0  0  0
 19 20  1  0  0  0  0
 17 18  2  0  0  0  0
 17 19  1  0  0  0  0
 14 15  1  0  0  0  0
 14 16  1  0  0  0  0
 14 17  1  0  0  0  0
 11 12  1  0  0  0  0
 11 13  1  0  0  0  0
 11 14  1  0  0  0  0
  9 10  1  0  0  0  0
  9 11  1  0  0  0  0
  9 21  1  0  0  0  0
  7  8  1  0  0  0  0
  7  9  1  0  0  0  0
 25 26  1  0  0  0  0
 25 27  1  0  0  0  0
 25 28  1  0  0  0  0
 23 24  1  0  0  0  0
 23 25  1  0  0  0  0
M  END
$$$$
default_name
  -OEChem-02102213163D

 28 27  0     1  0  0  0  0  0999 V2000
   -3.2133   -3.5565    1.2809 H   0  0  0  0  0  0  0  0  0  0  0  0
   -3.1873   -2.5755    0.8089 C   0  0  0  0  0  0  0  0  0  0  0  0
   -3.8793   -1.9065    1.3169 H   0  0  0  0  0  0  0  0  0  0  0  0
   -3.4623   -2.6685   -0.2401 H   0  0  0  0  0  0  0  0  0  0  0  0
   -1.7863   -2.0195    0.9119 C   0  0  0  0  0  0  0  0  0  0  0  0
   -0.9073   -2.6615    1.4699 O   0  0  0  0  0  0  0  0  0  0  0  0
   -1.5803   -0.8195    0.3749 N   0  0  0  0  0  0  0  0  0  0  0  0
   -2.3603   -0.3345   -0.0451 H   0  0  0  0  0  0  0  0  0  0  0  0
   -0.2933   -0.1205    0.3719 C   0  0  1  0  0  0  0  0  0  0  0  0
    0.4439   -0.7485   -0.1303 H   0  0  0  0  0  0  0  0  0  0  0  0
   -0.4368    1.1924   -0.4246 C   0  0  0  0  0  0  0  0  0  0  0  0
    0.2742    1.9144   -0.0193 H   0  0  0  0  0  0  0  0  0  0  0  0
   -0.1773    1.0102   -1.4685 H   0  0  0  0  0  0  0  0  0  0  0  0
   -1.8479    1.8030   -0.3712 C   0  0  0  0  0  0  0  0  0  0  0  0
   -1.8515    2.6726    0.2862 H   0  0  0  0  0  0  0  0  0  0  0  0
   -2.1421    2.1125   -1.3734 H   0  0  0  0  0  0  0  0  0  0  0  0
   -2.8875    0.8123    0.1428 C   0  0  0  0  0  0  0  0  0  0  0  0
   -2.6790   -0.3697    0.3645 O   0  0  0  0  0  0  0  0  0  0  0  0
   -4.1192    1.3164    0.3437 O   0  0  0  0  0  0  0  0  0  0  0  0
   -4.6470    0.5762    0.6484 H   0  0  0  0  0  0  0  0  0  0  0  0
    0.1871    0.1189    1.8122 C   0  0  0  0  0  0  0  0  0  0  0  0
    1.3541   -0.1171    2.1187 O   0  0  0  0  0  0  0  0  0  0  0  0
   -0.7126    0.5740    2.6926 N   0  0  0  0  0  0  0  0  0  0  0  0
   -1.6464    0.7663    2.3621 H   0  0  0  0  0  0  0  0  0  0  0  0
   -0.4191    0.8310    4.1010 C   0  0  0  0  0  0  0  0  0  0  0  0
    0.4022    1.5452    4.1828 H   0  0  0  0  0  0  0  0  0  0  0  0
   -1.2983    1.2366    4.6035 H   0  0  0  0  0  0  0  0  0  0  0  0
   -0.1204   -0.0980    4.5907 H   0  0  0  0  0  0  0  0  0  0  0  0
  5  6  2  0  0  0  0
  5  7  1  0  0  0  0
  2  3  1  0  0  0  0
  2  4  1  0  0  0  0
  2  5  1  0  0  0  0
  1  2  1  0  0  0  0
 21 22  2  0  0  0  0
 21 23  1  0  0  0  0
 19 20  1  0  0  0  0
 17 18  2  0  0  0  0
 17 19  1  0  0  0  0
 14 15  1  0  0  0  0
 14 16  1  0  0  0  0
 14 17  1  0  0  0  0
 11 12  1  0  0  0  0
 11 13  1  0  0  0  0
 11 14  1  0  0  0  0
  9 10  1  0  0  0  0
  9 11  1  0  0  0  0
  9 21  1  0  0  0  0
  7  8  1  0  0  0  0
  7  9  1  0  0  0  0
 25 26  1  0  0  0  0
 25 27  1  0  0  0  0
 25 28  1  0  0  0  0
 23 24  1  0  0  0  0
 23 25  1  0  0  0  0
M  END
$$$$
default_name
  -OEChem-02102213163D

 28 27  0     1  0  0  0  0  0999 V2000
   -3.2133   -3.5565    1.2809 H   0  0  0  0  0  0  0  0  0  0  0  0
   -3.1873   -2.5755    0.8089 C   0  0  0  0  0  0  0  0  0  0  0  0
   -3.8793   -1.9065    1.3169 H   0  0  0  0  0  0  0  0  0  0  0  0
   -3.4623   -2.6685   -0.2401 H   0  0  0  0  0  0  0  0  0  0  0  0
   -1.7863   -2.0195    0.9119 C   0  0  0  0  0  0  0  0  0  0  0  0
   -0.9073   -2.6615    1.4699 O   0  0  0  0  0  0  0  0  0  0  0  0
   -1.5803   -0.8195    0.3749 N   0  0  0  0  0  0  0  0  0  0  0  0
   -2.3603   -0.3345   -0.0451 H   0  0  0  0  0  0  0  0  0  0  0  0
   -0.2933   -0.1205    0.3719 C   0  0  1  0  0  0  0  0  0  0  0  0
    0.4439   -0.7485   -0.1303 H   0  0  0  0  0  0  0  0  0  0  0  0
   -0.4368    1.1924   -0.4246 C   0  0  0  0  0  0  0  0  0  0  0  0
    0.2742    1.9144   -0.0193 H   0  0  0  0  0  0  0  0  0  0  0  0
   -0.1773    1.0102   -1.4685 H   0  0  0  0  0  0  0  0  0  0  0  0
   -1.8479    1.8030   -0.3712 C   0  0  0  0  0  0  0  0  0  0  0  0
   -1.8033    2.8040    0.0582 H   0  0  0  0  0  0  0  0  0  0  0  0
   -2.2490    1.8662   -1.3821 H   0  0  0  0  0  0  0  0  0  0  0  0
   -2.8084    0.9666    0.4680 C   0  0  0  0  0  0  0  0  0  0  0  0
   -2.5532   -0.1295    0.9405 O   0  0  0  0  0  0  0  0  0  0  0  0
   -4.0239    1.5082    0.6705 O   0  0  0  0  0  0  0  0  0  0  0  0
   -4.5020    0.8635    1.1950 H   0  0  0  0  0  0  0  0  0  0  0  0
    0.1871    0.1189    1.8122 C   0  0  0  0  0  0  0  0  0  0  0  0
    1.3541   -0.1171    2.1187 O   0  0  0  0  0  0  0  0  0  0  0  0
   -0.7126    0.5740    2.6926 N   0  0  0  0  0  0  0  0  0  0  0  0
   -1.6464    0.7663    2.3621 H   0  0  0  0  0  0  0  0  0  0  0  0
   -0.4191    0.8310    4.1010 C   0  0  0  0  0  0  0  0  0  0  0  0
    0.4022    1.5452    4.1828 H   0  0  0  0  0  0  0  0  0  0  0  0
   -1.2983    1.2366    4.6035 H   0  0  0  0  0  0  0  0  0  0  0  0
   -0.1204   -0.0980    4.5907 H   0  0  0  0  0  0  0  0  0  0  0  0
  5  6  2  0  0  0  0
  5  7  1  0  0  0  0
  2  3  1  0  0  0  0
  2  4  1  0  0  0  0
  2  5  1  0  0  0  0
  1  2  1  0  0  0  0
 21 22  2  0  0  0  0
 21 23  1  0  0  0  0
 19 20  1  0  0  0  0
 17 18  2  0  0  0  0
 17 19  1  0  0  0  0
 14 15  1  0  0  0  0
 14 16  1  0  0  0  0
 14 17  1  0  0  0  0
 11 12  1  0  0  0  0
 11 13  1  0  0  0  0
 11 14  1  0  0  0  0
  9 10  1  0  0  0  0
  9 11  1  0  0  0  0
  9 21  1  0  0  0  0
  7  8  1  0  0  0  0
  7  9  1  0  0  0  0
 25 26  1  0  0  0  0
 25 27  1  0  0  0  0
 25 28  1  0  0  0  0
 23 24  1  0  0  0  0
 23 25  1  0  0  0  0
M  END
$$$$
default_name
  -OEChem-02102213163D

 28 27  0     1  0  0  0  0  0999 V2000
   -3.2133   -3.5565    1.2809 H   0  0  0  0  0  0  0  0  0  0  0  0
   -3.1873   -2.5755    0.8089 C   0  0  0  0  0  0  0  0  0  0  0  0
   -3.8793   -1.9065    1.3169 H   0  0  0  0  0  0  0  0  0  0  0  0
   -3.4623   -2.6685   -0.2401 H   0  0  0  0  0  0  0  0  0  0  0  0
   -1.7863   -2.0195    0.9119 C   0  0  0  0  0  0  0  0  0  0  0  0
   -0.9073   -2.6615    1.4699 O   0  0  0  0  0  0  0  0  0  0  0  0
   -1.5803   -0.8195    0.3749 N   0  0  0  0  0  0  0  0  0  0  0  0
   -2.3603   -0.3345   -0.0451 H   0  0  0  0  0  0  0  0  0  0  0  0
   -0.2933   -0.1205    0.3719 C   0  0  1  0  0  0  0  0  0  0  0  0
    0.4439   -0.7485   -0.1303 H   0  0  0  0  0  0  0  0  0  0  0  0
   -0.4368    1.1924   -0.4246 C   0  0  0  0  0  0  0  0  0  0  0  0
    0.2742    1.9144   -0.0193 H   0  0  0  0  0  0  0  0  0  0  0  0
   -0.1773    1.0102   -1.4685 H   0  0  0  0  0  0  0  0  0  0  0  0
   -1.8479    1.8030   -0.3712 C   0  0  0  0  0  0  0  0  0  0  0  0
   -1.7813    2.8772   -0.1982 H   0  0  0  0  0  0  0  0  0  0  0  0
   -2.3509    1.6253   -1.3210 H   0  0  0  0  0  0  0  0  0  0  0  0
   -2.7001    1.1935    0.7373 C   0  0  0  0  0  0  0  0  0  0  0  0
   -2.3748    0.2404    1.4270 O   0  0  0  0  0  0  0  0  0  0  0  0
   -3.8999    1.7718    0.9307 O   0  0  0  0  0  0  0  0  0  0  0  0
   -4.3083    1.2721    1.6398 H   0  0  0  0  0  0  0  0  0  0  0  0
    0.1871    0.1189    1.8122 C   0  0  0  0  0  0  0  0  0  0  0  0
    1.3541   -0.1171    2.1187 O   0  0  0  0  0  0  0  0  0  0  0  0
   -0.7126    0.5740    2.6926 N   0  0  0  0  0  0  0  0  0  0  0  0
   -1.6464    0.7663    2.3621 H   0  0  0  0  0  0  0  0  0  0  0  0
   -0.4191    0.8310    4.1010 C   0  0  0  0  0  0  0  0  0  0  0  0
    0.4022    1.5452    4.1828 H   0  0  0  0  0  0  0  0  0  0  0  0
   -1.2983    1.2366    4.6035 H   0  0  0  0  0  0  0  0  0  0  0  0
   -0.1204   -0.0980    4.5907 H   0  0  0  0  0  0  0  0  0  0  0  0
  5  6  2  0  0  0  0
  5  7  1  0  0  0  0
  2  3  1  0  0  0  0
  2  4  1  0  0  0  0
  2  5  1  0  0  0  0
  1  2  1  0  0  0  0
 21 22  2  0  0  0  0
 21 23  1  0  0  0  0
 19 20  1  0  0  0  0
 17 18  2  0  0  0  0
 17 19  1  0  0  0  0
 14 15  1  0  0  0  0
 14 16  1  0  0  0  0
 14 17  1  0  0  0  0
 11 12  1  0  0  0  0
 11 13  1  0  0  0  0
 11 14  1  0  0  0  0
  9 10  1  0  0  0  0
  9 11  1  0  0  0  0
  9 21  1  0  0  0  0
  7  8  1  0  0  0  0
  7  9  1  0  0  0  0
 25 26  1  0  0  0  0
 25 27  1  0  0  0  0
 25 28  1  0  0  0  0
 23 24  1  0  0  0  0
 23 25  1  0  0  0  0
M  END
$$$$
default_name
  -OEChem-02102213163D

 28 27  0     1  0  0  0  0  0999 V2000
   -3.2133   -3.5565    1.2809 H   0  0  0  0  0  0  0  0  0  0  0  0
   -3.1873   -2.5755    0.8089 C   0  0  0  0  0  0  0  0  0  0  0  0
   -3.8793   -1.9065    1.3169 H   0  0  0  0  0  0  0  0  0  0  0  0
   -3.4623   -2.6685   -0.2401 H   0  0  0  0  0  0  0  0  0  0  0  0
   -1.7863   -2.0195    0.9119 C   0  0  0  0  0  0  0  0  0  0  0  0
   -0.9073   -2.6615    1.4699 O   0  0  0  0  0  0  0  0  0  0  0  0
   -1.5803   -0.8195    0.3749 N   0  0  0  0  0  0  0  0  0  0  0  0
   -2.3603   -0.3345   -0.0451 H   0  0  0  0  0  0  0  0  0  0  0  0
   -0.2933   -0.1205    0.3719 C   0  0  1  0  0  0  0  0  0  0  0  0
    0.4439   -0.7485   -0.1303 H   0  0  0  0  0  0  0  0  0  0  0  0
   -0.4368    1.1924   -0.4246 C   0  0  0  0  0  0  0  0  0  0  0  0
    0.2742    1.9144   -0.0193 H   0  0  0  0  0  0  0  0  0  0  0  0
   -0.1773    1.0102   -1.4685 H   0  0  0  0  0  0  0  0  0  0  0  0
   -1.8479    1.8030   -0.3712 C   0  0  0  0  0  0  0  0  0  0  0  0
   -1.7871    2.8873   -0.4655 H   0  0  0  0  0  0  0  0  0  0  0  0
   -2.4409    1.4062   -1.1944 H   0  0  0  0  0  0  0  0  0  0  0  0
   -2.5697    1.4775    0.9324 C   0  0  0  0  0  0  0  0  0  0  0  0
   -2.1557    0.7148    1.7907 O   0  0  0  0  0  0  0  0  0  0  0  0
   -3.7559    2.0894    1.1068 O   0  0  0  0  0  0  0  0  0  0  0  0
   -4.0793    1.7740    1.9525 H   0  0  0  0  0  0  0  0  0  0  0  0
    0.1871    0.1189    1.8122 C   0  0  0  0  0  0  0  0  0  0  0  0
    1.3541   -0.1171    2.1187 O   0  0  0  0  0  0  0  0  0  0  0  0
   -0.7126    0.5740    2.6926 N   0  0  0  0  0  0  0  0  0  0  0  0
   -1.6464    0.7663    2.3621 H   0  0  0  0  0  0  0  0  0  0  0  0
   -0.4191    0.8310    4.1010 C   0  0  0  0  0  0  0  0  0  0  0  0
    0.4022    1.5452    4.1828 H   0  0  0  0  0  0  0  0  0  0  0  0
   -1.2983    1.2366    4.6035 H   0  0  0  0  0  0  0  0  0  0  0  0
   -0.1204   -0.0980    4.5907 H   0  0  0  0  0  0  0  0  0  0  0  0
  5  6  2  0  0  0  0
  5  7  1  0  0  0  0
  2  3  1  0  0  0  0
  2  4  1  0  0  0  0
  2  5  1  0  0  0  0
  1  2  1  0  0  0  0
 21 22  2  0  0  0  0
 21 23  1  0  0  0  0
 19 20  1  0  0  0  0
 17 18  2  0  0  0  0
 17 19  1  0  0  0  0
 14 15  1  0  0  0  0
 14 16  1  0  0  0  0
 14 17  1  0  0  0  0
 11 12  1  0  0  0  0
 11 13  1  0  0  0  0
 11 14  1  0  0  0  0
  9 10  1  0  0  0  0
  9 11  1  0  0  0  0
  9 21  1  0  0  0  0
  7  8  1  0  0  0  0
  7  9  1  0  0  0  0
 25 26  1  0  0  0  0
 25 27  1  0  0  0  0
 25 28  1  0  0  0  0
 23 24  1  0  0  0  0
 23 25  1  0  0  0  0
M  END
$$$$
default_name
  -OEChem-02102213163D

 28 27  0     1  0  0  0  0  0999 V2000
   -3.2133   -3.5565    1.2809 H   0  0  0  0  0  0  0  0  0  0  0  0
   -3.1873   -2.5755    0.8089 C   0  0  0  0  0  0  0  0  0  0  0  0
   -3.8793   -1.9065    1.3169 H   0  0  0  0  0  0  0  0  0  0  0  0
   -3.4623   -2.6685   -0.2401 H   0  0  0  0  0  0  0  0  0  0  0  0
   -1.7863   -2.0195    0.9119 C   0  0  0  0  0  0  0  0  0  0  0  0
   -0.9073   -2.6615    1.4699 O   0  0  0  0  0  0  0  0  0  0  0  0
   -1.5803   -0.8195    0.3749 N   0  0  0  0  0  0  0  0  0  0  0  0
   -2.3603   -0.3345   -0.0451 H   0  0  0  0  0  0  0  0  0  0  0  0
   -0.2933   -0.1205    0.3719 C   0  0  1  0  0  0  0  0  0  0  0  0
    0.4439   -0.7485   -0.1303 H   0  0  0  0  0  0  0  0  0  0  0  0
   -0.4368    1.1924   -0.4246 C   0  0  0  0  0  0  0  0  0  0  0  0
    0.2742    1.9144   -0.0193 H   0  0  0  0  0  0  0  0  0  0  0  0
   -0.1773    1.0102   -1.4685 H   0  0  0  0  0  0  0  0  0  0  0  0
   -1.8479    1.8030   -0.3712 C   0  0  0  0  0  0  0  0  0  0  0  0
   -1.8202    2.8335   -0.7255 H   0  0  0  0  0  0  0  0  0  0  0  0
   -2.5129    1.2238   -1.0108 H   0  0  0  0  0  0  0  0  0  0  0  0
   -2.4264    1.7994    1.0401 C   0  0  0  0  0  0  0  0  0  0  0  0
   -1.9111    1.2613    2.0069 O   0  0  0  0  0  0  0  0  0  0  0  0
   -3.6014    2.4393    1.1867 O   0  0  0  0  0  0  0  0  0  0  0  0
   -3.8304    2.3352    2.1119 H   0  0  0  0  0  0  0  0  0  0  0  0
    0.1871    0.1189    1.8122 C   0  0  0  0  0  0  0  0  0  0  0  0
    1.3541   -0.1171    2.1187 O   0  0  0  0  0  0  0  0  0  0  0  0
   -0.7126    0.5740    2.6926 N   0  0  0  0  0  0  0  0  0  0  0  0
   -1.6464    0.7663    2.3621 H   0  0  0  0  0  0  0  0  0  0  0  0
   -0.4191    0.8310    4.1010 C   0  0  0  0  0  0  0  0  0  0  0  0
    0.4022    1.5452    4.1828 H   0  0  0  0  0  0  0  0  0  0  0  0
   -1.2983    1.2366    4.6035 H   0  0  0  0  0  0  0  0  0  0  0  0
   -0.1204   -0.0980    4.5907 H   0  0  0  0  0  0  0  0  0  0  0  0
  5  6  2  0  0  0  0
  5  7  1  0  0  0  0
  2  3  1  0  0  0  0
  2  4  1  0  0  0  0
  2  5  1  0  0  0  0
  1  2  1  0  0  0  0
 21 22  2  0  0  0  0
 21 23  1  0  0  0  0
 19 20  1  0  0  0  0
 17 18  2  0  0  0  0
 17 19  1  0  0  0  0
 14 15  1  0  0  0  0
 14 16  1  0  0  0  0
 14 17  1  0  0  0  0
 11 12  1  0  0  0  0
 11 13  1  0  0  0  0
 11 14  1  0  0  0  0
  9 10  1  0  0  0  0
  9 11  1  0  0  0  0
  9 21  1  0  0  0  0
  7  8  1  0  0  0  0
  7  9  1  0  0  0  0
 25 26  1  0  0  0  0
 25 27  1  0  0  0  0
 25 28  1  0  0  0  0
 23 24  1  0  0  0  0
 23 25  1  0  0  0  0
M  END
$$$$
default_name
  -OEChem-02102213163D

 28 27  0     1  0  0  0  0  0999 V2000
   -3.2133   -3.5565    1.2809 H   0  0  0  0  0  0  0  0  0  0  0  0
   -3.1873   -2.5755    0.8089 C   0  0  0  0  0  0  0  0  0  0  0  0
   -3.8793   -1.9065    1.3169 H   0  0  0  0  0  0  0  0  0  0  0  0
   -3.4623   -2.6685   -0.2401 H   0  0  0  0  0  0  0  0  0  0  0  0
   -1.7863   -2.0195    0.9119 C   0  0  0  0  0  0  0  0  0  0  0  0
   -0.9073   -2.6615    1.4699 O   0  0  0  0  0  0  0  0  0  0  0  0
   -1.5803   -0.8195    0.3749 N   0  0  0  0  0  0  0  0  0  0  0  0
   -2.3603   -0.3345   -0.0451 H   0  0  0  0  0  0  0  0  0  0  0  0
   -0.2933   -0.1205    0.3719 C   0  0  1  0  0  0  0  0  0  0  0  0
    0.4439   -0.7485   -0.1303 H   0  0  0  0  0  0  0  0  0  0  0  0
   -0.4368    1.1924   -0.4246 C   0  0  0  0  0  0  0  0  0  0  0  0
    0.2742    1.9144   -0.0193 H   0  0  0  0  0  0  0  0  0  0  0  0
   -0.1773    1.0102   -1.4685 H   0  0  0  0  0  0  0  0  0  0  0  0
   -1.8479    1.8030   -0.3712 C   0  0  0  0  0  0  0  0  0  0  0  0
   -1.8784    2.7196   -0.9605 H   0  0  0  0  0  0  0  0  0  0  0  0
   -2.5619    1.0906   -0.7828 H   0  0  0  0  0  0  0  0  0  0  0  0
   -2.2797    2.1372    1.0530 C   0  0  0  0  0  0  0  0  0  0  0  0
   -1.6574    1.8427    2.0609 O   0  0  0  0  0  0  0  0  0  0  0  0
   -3.4472    2.7976    1.1650 O   0  0  0  0  0  0  0  0  0  0  0  0
   -3.5787    2.9174    2.1071 H   0  0  0  0  0  0  0  0  0  0  0  0
    0.1871    0.1189    1.8122 C   0  0  0  0  0  0  0  0  0  0  0  0
    1.3541   -0.1171    2.1187 O   0  0  0  0  0  0  0  0  0  0  0  0
   -0.7126    0.5740    2.6926 N   0  0  0  0  0  0  0  0  0  0  0  0
   -1.6464    0.7663    2.3621 H   0  0  0  0  0  0  0  0  0  0  0  0
   -0.4191    0.8310    4.1010 C   0  0  0  0  0  0  0  0  0  0  0  0
    0.4022    1.5452    4.1828 H   0  0  0  0  0  0  0  0  0  0  0  0
   -1.2983    1.2366    4.6035 H   0  0  0  0  0  0  0  0  0  0  0  0
   -0.1204   -0.0980    4.5907 H   0  0  0  0  0  0  0  0  0  0  0  0
  5  6  2  0  0  0  0
  5  7  1  0  0  0  0
  2  3  1  0  0  0  0
  2  4  1  0  0  0  0
  2  5  1  0  0  0  0
  1  2  1  0  0  0  0
 21 22  2  0  0  0  0
 21 23  1  0  0  0  0
 19 20  1  0  0  0  0
 17 18  2  0  0  0  0
 17 19  1  0  0  0  0
 14 15  1  0  0  0  0
 14 16  1  0  0  0  0
 14 17  1  0  0  0  0
 11 12  1  0  0  0  0
 11 13  1  0  0  0  0
 11 14  1  0  0  0  0
  9 10  1  0  0  0  0
  9 11  1  0  0  0  0
  9 21  1  0  0  0  0
  7  8  1  0  0  0  0
  7  9  1  0  0  0  0
 25 26  1  0  0  0  0
 25 27  1  0  0  0  0
 25 28  1  0  0  0  0
 23 24  1  0  0  0  0
 23 25  1  0  0  0  0
M  END
$$$$
default_name
  -OEChem-02102213163D

 28 27  0     1  0  0  0  0  0999 V2000
   -3.2133   -3.5565    1.2809 H   0  0  0  0  0  0  0  0  0  0  0  0
   -3.1873   -2.5755    0.8089 C   0  0  0  0  0  0  0  0  0  0  0  0
   -3.8793   -1.9065    1.3169 H   0  0  0  0  0  0  0  0  0  0  0  0
   -3.4623   -2.6685   -0.2401 H   0  0  0  0  0  0  0  0  0  0  0  0
   -1.7863   -2.0195    0.9119 C   0  0  0  0  0  0  0  0  0  0  0  0
   -0.9073   -2.6615    1.4699 O   0  0  0  0  0  0  0  0  0  0  0  0
   -1.5803   -0.8195    0.3749 N   0  0  0  0  0  0  0  0  0  0  0  0
   -2.3603   -0.3345   -0.0451 H   0  0  0  0  0  0  0  0  0  0  0  0
   -0.2933   -0.1205    0.3719 C   0  0  1  0  0  0  0  0  0  0  0  0
    0.4439   -0.7485   -0.1303 H   0  0  0  0  0  0  0  0  0  0  0  0
   -0.4368    1.1924   -0.4246 C   0  0  0  0  0  0  0  0  0  0  0  0
    0.2742    1.9144   -0.0193 H   0  0  0  0  0  0  0  0  0  0  0  0
   -0.1773    1.0102   -1.4685 H   0  0  0  0  0  0  0  0  0  0  0  0
   -1.8479    1.8030   -0.3712 C   0  0  0  0  0  0  0  0  0  0  0  0
   -1.9578    2.5532   -1.1544 H   0  0  0  0  0  0  0  0  0  0  0  0
   -2.5846    1.0156   -0.5258 H   0  0  0  0  0  0  0  0  0  0  0  0
   -2.1398    2.4679    0.9702 C   0  0  0  0  0  0  0  0  0  0  0  0
   -1.4121    2.4194    1.9489 O   0  0  0  0  0  0  0  0  0  0  0  0
   -3.3037    3.1399    1.0431 O   0  0  0  0  0  0  0  0  0  0  0  0
   -3.3413    3.4808    1.9385 H   0  0  0  0  0  0  0  0  0  0  0  0
    0.1871    0.1189    1.8122 C   0  0  0  0  0  0  0  0  0  0  0  0
    1.3541   -0.1171    2.1187 O   0  0  0  0  0  0  0  0  0  0  0  0
   -0.7126    0.5740    2.6926 N   0  0  0  0  0  0  0  0  0  0  0  0
   -1.6464    0.7663    2.3621 H   0  0  0  0  0  0  0  0  0  0  0  0
   -0.4191    0.8310    4.1010 C   0  0  0  0  0  0  0  0  0  0  0  0
    0.4022    1.5452    4.1828 H   0  0  0  0  0  0  0  0  0  0  0  0
   -1.2983    1.2366    4.6035 H   0  0  0  0  0  0  0  0  0  0  0  0
   -0.1204   -0.0980    4.5907 H   0  0  0  0  0  0  0  0  0  0  0  0
  5  6  2  0  0  0  0
  5  7  1  0  0  0  0
  2  3  1  0  0  0  0
  2  4  1  0  0  0  0
  2  5  1  0  0  0  0
  1  2  1  0  0  0  0
 21 22  2  0  0  0  0
 21 23  1  0  0  0  0
 19 20  1  0  0  0  0
 17 18  2  0  0  0  0
 17 19  1  0  0  0  0
 14 15  1  0  0  0  0
 14 16  1  0  0  0  0
 14 17  1  0  0  0  0
 11 12  1  0  0  0  0
 11 13  1  0  0  0  0
 11 14  1  0  0  0  0
  9 10  1  0  0  0  0
  9 11  1  0  0  0  0
  9 21  1  0  0  0  0
  7  8  1  0  0  0  0
  7  9  1  0  0  0  0
 25 26  1  0  0  0  0
 25 27  1  0  0  0  0
 25 28  1  0  0  0  0
 23 24  1  0  0  0  0
 23 25  1  0  0  0  0
M  END
$$$$
default_name
  -OEChem-02102213163D

 28 27  0     1  0  0  0  0  0999 V2000
   -3.2133   -3.5565    1.2809 H   0  0  0  0  0  0  0  0  0  0  0  0
   -3.1873   -2.5755    0.8089 C   0  0  0  0  0  0  0  0  0  0  0  0
   -3.8793   -1.9065    1.3169 H   0  0  0  0  0  0  0  0  0  0  0  0
   -3.4623   -2.6685   -0.2401 H   0  0  0  0  0  0  0  0  0  0  0  0
   -1.7863   -2.0195    0.9119 C   0  0  0  0  0  0  0  0  0  0  0  0
   -0.9073   -2.6615    1.4699 O   0  0  0  0  0  0  0  0  0  0  0  0
   -1.5803   -0.8195    0.3749 N   0  0  0  0  0  0  0  0  0  0  0  0
   -2.3603   -0.3345   -0.0451 H   0  0  0  0  0  0  0  0  0  0  0  0
   -0.2933   -0.1205    0.3719 C   0  0  1  0  0  0  0  0  0  0  0  0
    0.4439   -0.7485   -0.1303 H   0  0  0  0  0  0  0  0  0  0  0  0
   -0.4368    1.1924   -0.4246 C   0  0  0  0  0  0  0  0  0  0  0  0
    0.2742    1.9144   -0.0193 H   0  0  0  0  0  0  0  0  0  0  0  0
   -0.1773    1.0102   -1.4685 H   0  0  0  0  0  0  0  0  0  0  0  0
   -1.8479    1.8030   -0.3712 C   0  0  0  0  0  0  0  0  0  0  0  0
   -2.0528    2.3457   -1.2941 H   0  0  0  0  0  0  0  0  0  0  0  0
   -2.5795    1.0039   -0.2575 H   0  0  0  0  0  0  0  0  0  0  0  0
   -2.0161    2.7688    0.7973 C   0  0  0  0  0  0  0  0  0  0  0  0
   -1.1919    2.9521    1.6787 O   0  0  0  0  0  0  0  0  0  0  0  0
   -3.1807    3.4429    0.8294 O   0  0  0  0  0  0  0  0  0  0  0  0
   -3.1344    3.9871    1.6174 H   0  0  0  0  0  0  0  0  0  0  0  0
    0.1871    0.1189    1.8122 C   0  0  0  0  0  0  0  0  0  0  0  0
    1.3541   -0.1171    2.1187 O   0  0  0  0  0  0  0  0  0  0  0  0
   -0.7126    0.5740    2.6926 N   0  0  0  0  0  0  0  0  0  0  0  0
   -1.6464    0.7663    2.3621 H   0  0  0  0  0  0  0  0  0  0  0  0
   -0.4191    0.8310    4.1010 C   0  0  0  0  0  0  0  0  0  0  0  0
    0.4022    1.5452    4.1828 H   0  0  0  0  0  0  0  0  0  0  0  0
   -1.2983    1.2366    4.6035 H   0  0  0  0  0  0  0  0  0  0  0  0
   -0.1204   -0.0980    4.5907 H   0  0  0  0  0  0  0  0  0  0  0  0
  5  6  2  0  0  0  0
  5  7  1  0  0  0  0
  2  3  1  0  0  0  0
  2  4  1  0  0  0  0
  2  5  1  0  0  0  0
  1  2  1  0  0  0  0
 21 22  2  0  0  0  0
 21 23  1  0  0  0  0
 19 20  1  0  0  0  0
 17 18  2  0  0  0  0
 17 19  1  0  0  0  0
 14 15  1  0  0  0  0
 14 16  1  0  0  0  0
 14 17  1  0  0  0  0
 11 12  1  0  0  0  0
 11 13  1  0  0  0  0
 11 14  1  0  0  0  0
  9 10  1  0  0  0  0
  9 11  1  0  0  0  0
  9 21  1  0  0  0  0
  7  8  1  0  0  0  0
  7  9  1  0  0  0  0
 25 26  1  0  0  0  0
 25 27  1  0  0  0  0
 25 28  1  0  0  0  0
 23 24  1  0  0  0  0
 23 25  1  0  0  0  0
M  END
$$$$
default_name
  -OEChem-02102213163D

 28 27  0     1  0  0  0  0  0999 V2000
   -3.2133   -3.5565    1.2809 H   0  0  0  0  0  0  0  0  0  0  0  0
   -3.1873   -2.5755    0.8089 C   0  0  0  0  0  0  0  0  0  0  0  0
   -3.8793   -1.9065    1.3169 H   0  0  0  0  0  0  0  0  0  0  0  0
   -3.4623   -2.6685   -0.2401 H   0  0  0  0  0  0  0  0  0  0  0  0
   -1.7863   -2.0195    0.9119 C   0  0  0  0  0  0  0  0  0  0  0  0
   -0.9073   -2.6615    1.4699 O   0  0  0  0  0  0  0  0  0  0  0  0
   -1.5803   -0.8195    0.3749 N   0  0  0  0  0  0  0  0  0  0  0  0
   -2.3603   -0.3345   -0.0451 H   0  0  0  0  0  0  0  0  0  0  0  0
   -0.2933   -0.1205    0.3719 C   0  0  1  0  0  0  0  0  0  0  0  0
    0.4439   -0.7485   -0.1303 H   0  0  0  0  0  0  0  0  0  0  0  0
   -0.4368    1.1924   -0.4246 C   0  0  0  0  0  0  0  0  0  0  0  0
    0.2742    1.9144   -0.0193 H   0  0  0  0  0  0  0  0  0  0  0  0
   -0.1773    1.0102   -1.4685 H   0  0  0  0  0  0  0  0  0  0  0  0
   -1.8479    1.8030   -0.3712 C   0  0  0  0  0  0  0  0  0  0  0  0
   -2.1571    2.1113   -1.3700 H   0  0  0  0  0  0  0  0  0  0  0  0
   -2.5469    1.0564    0.0039 H   0  0  0  0  0  0  0  0  0  0  0  0
   -1.9171    3.0196    0.5462 C   0  0  0  0  0  0  0  0  0  0  0  0
   -1.0117    3.4045    1.2686 O   0  0  0  0  0  0  0  0  0  0  0  0
   -3.0866    3.6859    0.5383 O   0  0  0  0  0  0  0  0  0  0  0  0
   -2.9721    4.4018    1.1658 H   0  0  0  0  0  0  0  0  0  0  0  0
    0.1871    0.1189    1.8122 C   0  0  0  0  0  0  0  0  0  0  0  0
    1.3541   -0.1171    2.1187 O   0  0  0  0  0  0  0  0  0  0  0  0
   -0.7126    0.5740    2.6926 N   0  0  0  0  0  0  0  0  0  0  0  0
   -1.6464    0.7663    2.3621 H   0  0  0  0  0  0  0  0  0  0  0  0
   -0.4191    0.8310    4.1010 C   0  0  0  0  0  0  0  0  0  0  0  0
    0.4022    1.5452    4.1828 H   0  0  0  0  0  0  0  0  0  0  0  0
   -1.2983    1.2366    4.6035 H   0  0  0  0  0  0  0  0  0  0  0  0
   -0.1204   -0.0980    4.5907 H   0  0  0  0  0  0  0  0  0  0  0  0
  5  6  2  0  0  0  0
  5  7  1  0  0  0  0
  2  3  1  0  0  0  0
  2  4  1  0  0  0  0
  2  5  1  0  0  0  0
  1  2  1  0  0  0  0
 21 22  2  0  0  0  0
 21 23  1  0  0  0  0
 19 20  1  0  0  0  0
 17 18  2  0  0  0  0
 17 19  1  0  0  0  0
 14 15  1  0  0  0  0
 14 16  1  0  0  0  0
 14 17  1  0  0  0  0
 11 12  1  0  0  0  0
 11 13  1  0  0  0  0
 11 14  1  0  0  0  0
  9 10  1  0  0  0  0
  9 11  1  0  0  0  0
  9 21  1  0  0  0  0
  7  8  1  0  0  0  0
  7  9  1  0  0  0  0
 25 26  1  0  0  0  0
 25 27  1  0  0  0  0
 25 28  1  0  0  0  0
 23 24  1  0  0  0  0
 23 25  1  0  0  0  0
M  END
$$$$
default_name
  -OEChem-02102213163D

 28 27  0     1  0  0  0  0  0999 V2000
   -3.2133   -3.5565    1.2809 H   0  0  0  0  0  0  0  0  0  0  0  0
   -3.1873   -2.5755    0.8089 C   0  0  0  0  0  0  0  0  0  0  0  0
   -3.8793   -1.9065    1.3169 H   0  0  0  0  0  0  0  0  0  0  0  0
   -3.4623   -2.6685   -0.2401 H   0  0  0  0  0  0  0  0  0  0  0  0
   -1.7863   -2.0195    0.9119 C   0  0  0  0  0  0  0  0  0  0  0  0
   -0.9073   -2.6615    1.4699 O   0  0  0  0  0  0  0  0  0  0  0  0
   -1.5803   -0.8195    0.3749 N   0  0  0  0  0  0  0  0  0  0  0  0
   -2.3603   -0.3345   -0.0451 H   0  0  0  0  0  0  0  0  0  0  0  0
   -0.2933   -0.1205    0.3719 C   0  0  1  0  0  0  0  0  0  0  0  0
    0.4439   -0.7485   -0.1303 H   0  0  0  0  0  0  0  0  0  0  0  0
   -0.4368    1.1924   -0.4246 C   0  0  0  0  0  0  0  0  0  0  0  0
    0.2742    1.9144   -0.0193 H   0  0  0  0  0  0  0  0  0  0  0  0
   -0.1773    1.0102   -1.4685 H   0  0  0  0  0  0  0  0  0  0  0  0
   -1.8479    1.8030   -0.3712 C   0  0  0  0  0  0  0  0  0  0  0  0
   -2.2635    1.8660   -1.3769 H   0  0  0  0  0  0  0  0  0  0  0  0
   -2.4890    1.1694    0.2405 H   0  0  0  0  0  0  0  0  0  0  0  0
   -1.8495    3.2032    0.2339 C   0  0  0  0  0  0  0  0  0  0  0  0
   -0.8838    3.7457    0.7466 O   0  0  0  0  0  0  0  0  0  0  0  0
   -3.0277    3.8525    0.1899 O   0  0  0  0  0  0  0  0  0  0  0  0
   -2.8654    4.6966    0.6145 H   0  0  0  0  0  0  0  0  0  0  0  0
    0.1871    0.1189    1.8122 C   0  0  0  0  0  0  0  0  0  0  0  0
    1.3541   -0.1171    2.1187 O   0  0  0  0  0  0  0  0  0  0  0  0
   -0.7126    0.5740    2.6926 N   0  0  0  0  0  0  0  0  0  0  0  0
   -1.6464    0.7663    2.3621 H   0  0  0  0  0  0  0  0  0  0  0  0
   -0.4191    0.8310    4.1010 C   0  0  0  0  0  0  0  0  0  0  0  0
    0.4022    1.5452    4.1828 H   0  0  0  0  0  0  0  0  0  0  0  0
   -1.2983    1.2366    4.6035 H   0  0  0  0  0  0  0  0  0  0  0  0
   -0.1204   -0.0980    4.5907 H   0  0  0  0  0  0  0  0  0  0  0  0
  5  6  2  0  0  0  0
  5  7  1  0  0  0  0
  2  3  1  0  0  0  0
  2  4  1  0  0  0  0
  2  5  1  0  0  0  0
  1  2  1  0  0  0  0
 21 22  2  0  0  0  0
 21 23  1  0  0  0  0
 19 20  1  0  0  0  0
 17 18  2  0  0  0  0
 17 19  1  0  0  0  0
 14 15  1  0  0  0  0
 14 16  1  0  0  0  0
 14 17  1  0  0  0  0
 11 12  1  0  0  0  0
 11 13  1  0  0  0  0
 11 14  1  0  0  0  0
  9 10  1  0  0  0  0
  9 11  1  0  0  0  0
  9 21  1  0  0  0  0
  7  8  1  0  0  0  0
  7  9  1  0  0  0  0
 25 26  1  0  0  0  0
 25 27  1  0  0  0  0
 25 28  1  0  0  0  0
 23 24  1  0  0  0  0
 23 25  1  0  0  0  0
M  END
$$$$
default_name
  -OEChem-02102213163D

 28 27  0     1  0  0  0  0  0999 V2000
   -3.2133   -3.5565    1.2809 H   0  0  0  0  0  0  0  0  0  0  0  0
   -3.1873   -2.5755    0.8089 C   0  0  0  0  0  0  0  0  0  0  0  0
   -3.8793   -1.9065    1.3169 H   0  0  0  0  0  0  0  0  0  0  0  0
   -3.4623   -2.6685   -0.2401 H   0  0  0  0  0  0  0  0  0  0  0  0
   -1.7863   -2.0195    0.9119 C   0  0  0  0  0  0  0  0  0  0  0  0
   -0.9073   -2.6615    1.4699 O   0  0  0  0  0  0  0  0  0  0  0  0
   -1.5803   -0.8195    0.3749 N   0  0  0  0  0  0  0  0  0  0  0  0
   -2.3603   -0.3345   -0.0451 H   0  0  0  0  0  0  0  0  0  0  0  0
   -0.2933   -0.1205    0.3719 C   0  0  1  0  0  0  0  0  0  0  0  0
    0.4439   -0.7485   -0.1303 H   0  0  0  0  0  0  0  0  0  0  0  0
   -0.4368    1.1924   -0.4246 C   0  0  0  0  0  0  0  0  0  0  0  0
    0.2742    1.9144   -0.0193 H   0  0  0  0  0  0  0  0  0  0  0  0
   -0.1773    1.0102   -1.4685 H   0  0  0  0  0  0  0  0  0  0  0  0
   -1.8479    1.8030   -0.3712 C   0  0  0  0  0  0  0  0  0  0  0  0
   -2.3649    1.6264   -1.3145 H   0  0  0  0  0  0  0  0  0  0  0  0
   -2.4098    1.3353    0.4364 H   0  0  0  0  0  0  0  0  0  0  0  0
   -1.8180    3.3069   -0.1182 C   0  0  0  0  0  0  0  0  0  0  0  0
   -0.8170    3.9525    0.1482 O   0  0  0  0  0  0  0  0  0  0  0  0
   -3.0082    3.9311   -0.1923 O   0  0  0  0  0  0  0  0  0  0  0  0
   -2.8216    4.8515    0.0010 H   0  0  0  0  0  0  0  0  0  0  0  0
    0.1871    0.1189    1.8122 C   0  0  0  0  0  0  0  0  0  0  0  0
    1.3541   -0.1171    2.1187 O   0  0  0  0  0  0  0  0  0  0  0  0
   -0.7126    0.5740    2.6926 N   0  0  0  0  0  0  0  0  0  0  0  0
   -1.6464    0.7663    2.3621 H   0  0  0  0  0  0  0  0  0  0  0  0
   -0.4191    0.8310    4.1010 C   0  0  0  0  0  0  0  0  0  0  0  0
    0.4022    1.5452    4.1828 H   0  0  0  0  0  0  0  0  0  0  0  0
   -1.2983    1.2366    4.6035 H   0  0  0  0  0  0  0  0  0  0  0  0
   -0.1204   -0.0980    4.5907 H   0  0  0  0  0  0  0  0  0  0  0  0
  5  6  2  0  0  0  0
  5  7  1  0  0  0  0
  2  3  1  0  0  0  0
  2  4  1  0  0  0  0
  2  5  1  0  0  0  0
  1  2  1  0  0  0  0
 21 22  2  0  0  0  0
 21 23  1  0  0  0  0
 19 20  1  0  0  0  0
 17 18  2  0  0  0  0
 17 19  1  0  0  0  0
 14 15  1  0  0  0  0
 14 16  1  0  0  0  0
 14 17  1  0  0  0  0
 11 12  1  0  0  0  0
 11 13  1  0  0  0  0
 11 14  1  0  0  0  0
  9 10  1  0  0  0  0
  9 11  1  0  0  0  0
  9 21  1  0  0  0  0
  7  8  1  0  0  0  0
  7  9  1  0  0  0  0
 25 26  1  0  0  0  0
 25 27  1  0  0  0  0
 25 28  1  0  0  0  0
 23 24  1  0  0  0  0
 23 25  1  0  0  0  0
M  END
$$$$
default_name
  -OEChem-02102213163D

 28 27  0     1  0  0  0  0  0999 V2000
   -3.2133   -3.5565    1.2809 H   0  0  0  0  0  0  0  0  0  0  0  0
   -3.1873   -2.5755    0.8089 C   0  0  0  0  0  0  0  0  0  0  0  0
   -3.8793   -1.9065    1.3169 H   0  0  0  0  0  0  0  0  0  0  0  0
   -3.4623   -2.6685   -0.2401 H   0  0  0  0  0  0  0  0  0  0  0  0
   -1.7863   -2.0195    0.9119 C   0  0  0  0  0  0  0  0  0  0  0  0
   -0.9073   -2.6615    1.4699 O   0  0  0  0  0  0  0  0  0  0  0  0
   -1.5803   -0.8195    0.3749 N   0  0  0  0  0  0  0  0  0  0  0  0
   -2.3603   -0.3345   -0.0451 H   0  0  0  0  0  0  0  0  0  0  0  0
   -0.2933   -0.1205    0.3719 C   0  0  1  0  0  0  0  0  0  0  0  0
    0.4439   -0.7485   -0.1303 H   0  0  0  0  0  0  0  0  0  0  0  0
   -0.4368    1.1924   -0.4246 C   0  0  0  0  0  0  0  0  0  0  0  0
    0.2742    1.9144   -0.0193 H   0  0  0  0  0  0  0  0  0  0  0  0
   -0.1773    1.0102   -1.4685 H   0  0  0  0  0  0  0  0  0  0  0  0
   -1.8479    1.8030   -0.3712 C   0  0  0  0  0  0  0  0  0  0  0  0
   -2.4541    1.4088   -1.1869 H   0  0  0  0  0  0  0  0  0  0  0  0
   -2.3147    1.5428    0.5781 H   0  0  0  0  0  0  0  0  0  0  0  0
   -1.8246    3.3238   -0.4862 C   0  0  0  0  0  0  0  0  0  0  0  0
   -0.8157    4.0108   -0.4858 O   0  0  0  0  0  0  0  0  0  0  0  0
   -3.0292    3.9165   -0.5822 O   0  0  0  0  0  0  0  0  0  0  0  0
   -2.8437    4.8558   -0.6329 H   0  0  0  0  0  0  0  0  0  0  0  0
    0.1871    0.1189    1.8122 C   0  0  0  0  0  0  0  0  0  0  0  0
    1.3541   -0.1171    2.1187 O   0  0  0  0  0  0  0  0  0  0  0  0
   -0.7126    0.5740    2.6926 N   0  0  0  0  0  0  0  0  0  0  0  0
   -1.6464    0.7663    2.3621 H   0  0  0  0  0  0  0  0  0  0  0  0
   -0.4191    0.8310    4.1010 C   0  0  0  0  0  0  0  0  0  0  0  0
    0.4022    1.5452    4.1828 H   0  0  0  0  0  0  0  0  0  0  0  0
   -1.2983    1.2366    4.6035 H   0  0  0  0  0  0  0  0  0  0  0  0
   -0.1204   -0.0980    4.5907 H   0  0  0  0  0  0  0  0  0  0  0  0
  5  6  2  0  0  0  0
  5  7  1  0  0  0  0
  2  3  1  0  0  0  0
  2  4  1  0  0  0  0
  2  5  1  0  0  0  0
  1  2  1  0  0  0  0
 21 22  2  0  0  0  0
 21 23  1  0  0  0  0
 19 20  1  0  0  0  0
 17 18  2  0  0  0  0
 17 19  1  0  0  0  0
 14 15  1  0  0  0  0
 14 16  1  0  0  0  0
 14 17  1  0  0  0  0
 11 12  1  0  0  0  0
 11 13  1  0  0  0  0
 11 14  1  0  0  0  0
  9 10  1  0  0  0  0
  9 11  1  0  0  0  0
  9 21  1  0  0  0  0
  7  8  1  0  0  0  0
  7  9  1  0  0  0  0
 25 26  1  0  0  0  0
 25 27  1  0  0  0  0
 25 28  1  0  0  0  0
 23 24  1  0  0  0  0
 23 25  1  0  0  0  0
M  END
$$$$
default_name
  -OEChem-02102213163D

 28 27  0     1  0  0  0  0  0999 V2000
   -3.2133   -3.5565    1.2809 H   0  0  0  0  0  0  0  0  0  0  0  0
   -3.1873   -2.5755    0.8089 C   0  0  0  0  0  0  0  0  0  0  0  0
   -3.8793   -1.9065    1.3169 H   0  0  0  0  0  0  0  0  0  0  0  0
   -3.4623   -2.6685   -0.2401 H   0  0  0  0  0  0  0  0  0  0  0  0
   -1.7863   -2.0195    0.9119 C   0  0  0  0  0  0  0  0  0  0  0  0
   -0.9073   -2.6615    1.4699 O   0  0  0  0  0  0  0  0  0  0  0  0
   -1.5803   -0.8195    0.3749 N   0  0  0  0  0  0  0  0  0  0  0  0
   -2.3603   -0.3345   -0.0451 H   0  0  0  0  0  0  0  0  0  0  0  0
   -0.2933   -0.1205    0.3719 C   0  0  1  0  0  0  0  0  0  0  0  0
    0.4439   -0.7485   -0.1303 H   0  0  0  0  0  0  0  0  0  0  0  0
   -0.4368    1.1924   -0.4246 C   0  0  0  0  0  0  0  0  0  0  0  0
    0.2742    1.9144   -0.0193 H   0  0  0  0  0  0  0  0  0  0  0  0
   -0.1773    1.0102   -1.4685 H   0  0  0  0  0  0  0  0  0  0  0  0
   -1.8479    1.8030   -0.3712 C   0  0  0  0  0  0  0  0  0  0  0  0
   -2.5253    1.2282   -1.0028 H   0  0  0  0  0  0  0  0  0  0  0  0
   -2.2101    1.7776    0.6559 H   0  0  0  0  0  0  0  0  0  0  0  0
   -1.8690    3.2527   -0.8450 C   0  0  0  0  0  0  0  0  0  0  0  0
   -0.8802    3.9167   -1.1121 O   0  0  0  0  0  0  0  0  0  0  0  0
   -3.0895    3.8097   -0.9531 O   0  0  0  0  0  0  0  0  0  0  0  0
   -2.9302    4.7094   -1.2439 H   0  0  0  0  0  0  0  0  0  0  0  0
    0.1871    0.1189    1.8122 C   0  0  0  0  0  0  0  0  0  0  0  0
    1.3541   -0.1171    2.1187 O   0  0  0  0  0  0  0  0  0  0  0  0
   -0.7126    0.5740    2.6926 N   0  0  0  0  0  0  0  0  0  0  0  0
   -1.6464    0.7663    2.3621 H   0  0  0  0  0  0  0  0  0  0  0  0
   -0.4191    0.8310    4.1010 C   0  0  0  0  0  0  0  0  0  0  0  0
    0.4022    1.5452    4.1828 H   0  0  0  0  0  0  0  0  0  0  0  0
   -1.2983    1.2366    4.6035 H   0  0  0  0  0  0  0  0  0  0  0  0
   -0.1204   -0.0980    4.5907 H   0  0  0  0  0  0  0  0  0  0  0  0
  5  6  2  0  0  0  0
  5  7  1  0  0  0  0
  2  3  1  0  0  0  0
  2  4  1  0  0  0  0
  2  5  1  0  0  0  0
  1  2  1  0  0  0  0
 21 22  2  0  0  0  0
 21 23  1  0  0  0  0
 19 20  1  0  0  0  0
 17 18  2  0  0  0  0
 17 19  1  0  0  0  0
 14 15  1  0  0  0  0
 14 16  1  0  0  0  0
 14 17  1  0  0  0  0
 11 12  1  0  0  0  0
 11 13  1  0  0  0  0
 11 14  1  0  0  0  0
  9 10  1  0  0  0  0
  9 11  1  0  0  0  0
  9 21  1  0  0  0  0
  7  8  1  0  0  0  0
  7  9  1  0  0  0  0
 25 26  1  0  0  0  0
 25 27  1  0  0  0  0
 25 28  1  0  0  0  0
 23 24  1  0  0  0  0
 23 25  1  0  0  0  0
M  END
$$$$
default_name
  -OEChem-02102213163D

 28 27  0     1  0  0  0  0  0999 V2000
   -3.2133   -3.5565    1.2809 H   0  0  0  0  0  0  0  0  0  0  0  0
   -3.1873   -2.5755    0.8089 C   0  0  0  0  0  0  0  0  0  0  0  0
   -3.8793   -1.9065    1.3169 H   0  0  0  0  0  0  0  0  0  0  0  0
   -3.4623   -2.6685   -0.2401 H   0  0  0  0  0  0  0  0  0  0  0  0
   -1.7863   -2.0195    0.9119 C   0  0  0  0  0  0  0  0  0  0  0  0
   -0.9073   -2.6615    1.4699 O   0  0  0  0  0  0  0  0  0  0  0  0
   -1.5803   -0.8195    0.3749 N   0  0  0  0  0  0  0  0  0  0  0  0
   -2.3603   -0.3345   -0.0451 H   0  0  0  0  0  0  0  0  0  0  0  0
   -0.2933   -0.1205    0.3719 C   0  0  1  0  0  0  0  0  0  0  0  0
    0.4439   -0.7485   -0.1303 H   0  0  0  0  0  0  0  0  0  0  0  0
   -0.4368    1.1924   -0.4246 C   0  0  0  0  0  0  0  0  0  0  0  0
    0.4347    1.8144   -0.2131 H   0  0  0  0  0  0  0  0  0  0  0  0
   -0.4417    0.9671   -1.4920 H   0  0  0  0  0  0  0  0  0  0  0  0
   -1.7084    1.9902   -0.0878 C   0  0  0  0  0  0  0  0  0  0  0  0
   -2.5916    1.3859   -0.2950 H   0  0  0  0  0  0  0  0  0  0  0  0
   -1.6963    2.2533    0.9693 H   0  0  0  0  0  0  0  0  0  0  0  0
   -1.8128    3.2799   -0.8955 C   0  0  0  0  0  0  0  0  0  0  0  0
   -0.9418    3.7193   -1.6291 O   0  0  0  0  0  0  0  0  0  0  0  0
   -2.9642    3.9621   -0.7522 O   0  0  0  0  0  0  0  0  0  0  0  0
   -2.8663    4.7391   -1.3054 H   0  0  0  0  0  0  0  0  0  0  0  0
    0.1871    0.1189    1.8122 C   0  0  0  0  0  0  0  0  0  0  0  0
    1.3541   -0.1171    2.1187 O   0  0  0  0  0  0  0  0  0  0  0  0
   -0.7126    0.5740    2.6926 N   0  0  0  0  0  0  0  0  0  0  0  0
   -1.6464    0.7663    2.3621 H   0  0  0  0  0  0  0  0  0  0  0  0
   -0.4191    0.8310    4.1010 C   0  0  0  0  0  0  0  0  0  0  0  0
    0.4022    1.5452    4.1828 H   0  0  0  0  0  0  0  0  0  0  0  0
   -1.2983    1.2366    4.6035 H   0  0  0  0  0  0  0  0  0  0  0  0
   -0.1204   -0.0980    4.5907 H   0  0  0  0  0  0  0  0  0  0  0  0
  5  6  2  0  0  0  0
  5  7  1  0  0  0  0
  2  3  1  0  0  0  0
  2  4  1  0  0  0  0
  2  5  1  0  0  0  0
  1  2  1  0  0  0  0
 21 22  2  0  0  0  0
 21 23  1  0  0  0  0
 19 20  1  0  0  0  0
 17 18  2  0  0  0  0
 17 19  1  0  0  0  0
 14 15  1  0  0  0  0
 14 16  1  0  0  0  0
 14 17  1  0  0  0  0
 11 12  1  0  0  0  0
 11 13  1  0  0  0  0
 11 14  1  0  0  0  0
  9 10  1  0  0  0  0
  9 11  1  0  0  0  0
  9 21  1  0  0  0  0
  7  8  1  0  0  0  0
  7  9  1  0  0  0  0
 25 26  1  0  0  0  0
 25 27  1  0  0  0  0
 25 28  1  0  0  0  0
 23 24  1  0  0  0  0
 23 25  1  0  0  0  0
M  END
$$$$
default_name
  -OEChem-02102213163D

 28 27  0     1  0  0  0  0  0999 V2000
   -3.2133   -3.5565    1.2809 H   0  0  0  0  0  0  0  0  0  0  0  0
   -3.1873   -2.5755    0.8089 C   0  0  0  0  0  0  0  0  0  0  0  0
   -3.8793   -1.9065    1.3169 H   0  0  0  0  0  0  0  0  0  0  0  0
   -3.4623   -2.6685   -0.2401 H   0  0  0  0  0  0  0  0  0  0  0  0
   -1.7863   -2.0195    0.9119 C   0  0  0  0  0  0  0  0  0  0  0  0
   -0.9073   -2.6615    1.4699 O   0  0  0  0  0  0  0  0  0  0  0  0
   -1.5803   -0.8195    0.3749 N   0  0  0  0  0  0  0  0  0  0  0  0
   -2.3603   -0.3345   -0.0451 H   0  0  0  0  0  0  0  0  0  0  0  0
   -0.2933   -0.1205    0.3719 C   0  0  1  0  0  0  0  0  0  0  0  0
    0.4439   -0.7485   -0.1303 H   0  0  0  0  0  0  0  0  0  0  0  0
   -0.4368    1.1924   -0.4246 C   0  0  0  0  0  0  0  0  0  0  0  0
    0.4347    1.8144   -0.2131 H   0  0  0  0  0  0  0  0  0  0  0  0
   -0.4417    0.9671   -1.4920 H   0  0  0  0  0  0  0  0  0  0  0  0
   -1.7084    1.9902   -0.0878 C   0  0  0  0  0  0  0  0  0  0  0  0
   -2.5655    1.3187   -0.0373 H   0  0  0  0  0  0  0  0  0  0  0  0
   -1.5799    2.4774    0.8780 H   0  0  0  0  0  0  0  0  0  0  0  0
   -2.0070    3.0674   -1.1256 C   0  0  0  0  0  0  0  0  0  0  0  0
   -1.2707    3.3728   -2.0499 O   0  0  0  0  0  0  0  0  0  0  0  0
   -3.1762    3.7155   -0.9686 O   0  0  0  0  0  0  0  0  0  0  0  0
   -3.2056    4.3567   -1.6808 H   0  0  0  0  0  0  0  0  0  0  0  0
    0.1871    0.1189    1.8122 C   0  0  0  0  0  0  0  0  0  0  0  0
    1.3541   -0.1171    2.1187 O   0  0  0  0  0  0  0  0  0  0  0  0
   -0.7126    0.5740    2.6926 N   0  0  0  0  0  0  0  0  0  0  0  0
   -1.6464    0.7663    2.3621 H   0  0  0  0  0  0  0  0  0  0  0  0
   -0.4191    0.8310    4.1010 C   0  0  0  0  0  0  0  0  0  0  0  0
    0.4022    1.5452    4.1828 H   0  0  0  0  0  0  0  0  0  0  0  0
   -1.2983    1.2366    4.6035 H   0  0  0  0  0  0  0  0  0  0  0  0
   -0.1204   -0.0980    4.5907 H   0  0  0  0  0  0  0  0  0  0  0  0
  5  6  2  0  0  0  0
  5  7  1  0  0  0  0
  2  3  1  0  0  0  0
  2  4  1  0  0  0  0
  2  5  1  0  0  0  0
  1  2  1  0  0  0  0
 21 22  2  0  0  0  0
 21 23  1  0  0  0  0
 19 20  1  0  0  0  0
 17 18  2  0  0  0  0
 17 19  1  0  0  0  0
 14 15  1  0  0  0  0
 14 16  1  0  0  0  0
 14 17  1  0  0  0  0
 11 12  1  0  0  0  0
 11 13  1  0  0  0  0
 11 14  1  0  0  0  0
  9 10  1  0  0  0  0
  9 11  1  0  0  0  0
  9 21  1  0  0  0  0
  7  8  1  0  0  0  0
  7  9  1  0  0  0  0
 25 26  1  0  0  0  0
 25 27  1  0  0  0  0
 25 28  1  0  0  0  0
 23 24  1  0  0  0  0
 23 25  1  0  0  0  0
M  END
$$$$
default_name
  -OEChem-02102213163D

 28 27  0     1  0  0  0  0  0999 V2000
   -3.2133   -3.5565    1.2809 H   0  0  0  0  0  0  0  0  0  0  0  0
   -3.1873   -2.5755    0.8089 C   0  0  0  0  0  0  0  0  0  0  0  0
   -3.8793   -1.9065    1.3169 H   0  0  0  0  0  0  0  0  0  0  0  0
   -3.4623   -2.6685   -0.2401 H   0  0  0  0  0  0  0  0  0  0  0  0
   -1.7863   -2.0195    0.9119 C   0  0  0  0  0  0  0  0  0  0  0  0
   -0.9073   -2.6615    1.4699 O   0  0  0  0  0  0  0  0  0  0  0  0
   -1.5803   -0.8195    0.3749 N   0  0  0  0  0  0  0  0  0  0  0  0
   -2.3603   -0.3345   -0.0451 H   0  0  0  0  0  0  0  0  0  0  0  0
   -0.2933   -0.1205    0.3719 C   0  0  1  0  0  0  0  0  0  0  0  0
    0.4439   -0.7485   -0.1303 H   0  0  0  0  0  0  0  0  0  0  0  0
   -0.4368    1.1924   -0.4246 C   0  0  0  0  0  0  0  0  0  0  0  0
    0.4347    1.8144   -0.2131 H   0  0  0  0  0  0  0  0  0  0  0  0
   -0.4417    0.9671   -1.4920 H   0  0  0  0  0  0  0  0  0  0  0  0
   -1.7084    1.9902   -0.0878 C   0  0  0  0  0  0  0  0  0  0  0  0
   -2.5020    1.3103    0.2224 H   0  0  0  0  0  0  0  0  0  0  0  0
   -1.4923    2.6811    0.7263 H   0  0  0  0  0  0  0  0  0  0  0  0
   -2.2135    2.8020   -1.2762 C   0  0  0  0  0  0  0  0  0  0  0  0
   -1.6252    2.9294   -2.3381 O   0  0  0  0  0  0  0  0  0  0  0  0
   -3.3961    3.4189   -1.0964 O   0  0  0  0  0  0  0  0  0  0  0  0
   -3.5621    3.8879   -1.9160 H   0  0  0  0  0  0  0  0  0  0  0  0
    0.1871    0.1189    1.8122 C   0  0  0  0  0  0  0  0  0  0  0  0
    1.3541   -0.1171    2.1187 O   0  0  0  0  0  0  0  0  0  0  0  0
   -0.7126    0.5740    2.6926 N   0  0  0  0  0  0  0  0  0  0  0  0
   -1.6464    0.7663    2.3621 H   0  0  0  0  0  0  0  0  0  0  0  0
   -0.4191    0.8310    4.1010 C   0  0  0  0  0  0  0  0  0  0  0  0
    0.4022    1.5452    4.1828 H   0  0  0  0  0  0  0  0  0  0  0  0
   -1.2983    1.2366    4.6035 H   0  0  0  0  0  0  0  0  0  0  0  0
   -0.1204   -0.0980    4.5907 H   0  0  0  0  0  0  0  0  0  0  0  0
  5  6  2  0  0  0  0
  5  7  1  0  0  0  0
  2  3  1  0  0  0  0
  2  4  1  0  0  0  0
  2  5  1  0  0  0  0
  1  2  1  0  0  0  0
 21 22  2  0  0  0  0
 21 23  1  0  0  0  0
 19 20  1  0  0  0  0
 17 18  2  0  0  0  0
 17 19  1  0  0  0  0
 14 15  1  0  0  0  0
 14 16  1  0  0  0  0
 14 17  1  0  0  0  0
 11 12  1  0  0  0  0
 11 13  1  0  0  0  0
 11 14  1  0  0  0  0
  9 10  1  0  0  0  0
  9 11  1  0  0  0  0
  9 21  1  0  0  0  0
  7  8  1  0  0  0  0
  7  9  1  0  0  0  0
 25 26  1  0  0  0  0
 25 27  1  0  0  0  0
 25 28  1  0  0  0  0
 23 24  1  0  0  0  0
 23 25  1  0  0  0  0
M  END
$$$$
default_name
  -OEChem-02102213163D

 28 27  0     1  0  0  0  0  0999 V2000
   -3.2133   -3.5565    1.2809 H   0  0  0  0  0  0  0  0  0  0  0  0
   -3.1873   -2.5755    0.8089 C   0  0  0  0  0  0  0  0  0  0  0  0
   -3.8793   -1.9065    1.3169 H   0  0  0  0  0  0  0  0  0  0  0  0
   -3.4623   -2.6685   -0.2401 H   0  0  0  0  0  0  0  0  0  0  0  0
   -1.7863   -2.0195    0.9119 C   0  0  0  0  0  0  0  0  0  0  0  0
   -0.9073   -2.6615    1.4699 O   0  0  0  0  0  0  0  0  0  0  0  0
   -1.5803   -0.8195    0.3749 N   0  0  0  0  0  0  0  0  0  0  0  0
   -2.3603   -0.3345   -0.0451 H   0  0  0  0  0  0  0  0  0  0  0  0
   -0.2933   -0.1205    0.3719 C   0  0  1  0  0  0  0  0  0  0  0  0
    0.4439   -0.7485   -0.1303 H   0  0  0  0  0  0  0  0  0  0  0  0
   -0.4368    1.1924   -0.4246 C   0  0  0  0  0  0  0  0  0  0  0  0
    0.4347    1.8144   -0.2131 H   0  0  0  0  0  0  0  0  0  0  0  0
   -0.4417    0.9671   -1.4920 H   0  0  0  0  0  0  0  0  0  0  0  0
   -1.7084    1.9902   -0.0878 C   0  0  0  0  0  0  0  0  0  0  0  0
   -2.4052    1.3614    0.4666 H   0  0  0  0  0  0  0  0  0  0  0  0
   -1.4396    2.8502    0.5245 H   0  0  0  0  0  0  0  0  0  0  0  0
   -2.4180    2.5017   -1.3373 C   0  0  0  0  0  0  0  0  0  0  0  0
   -1.9811    2.4194   -2.4740 O   0  0  0  0  0  0  0  0  0  0  0  0
   -3.6089    3.0927   -1.1269 O   0  0  0  0  0  0  0  0  0  0  0  0
   -3.9114    3.3644   -1.9951 H   0  0  0  0  0  0  0  0  0  0  0  0
    0.1871    0.1189    1.8122 C   0  0  0  0  0  0  0  0  0  0  0  0
    1.3541   -0.1171    2.1187 O   0  0  0  0  0  0  0  0  0  0  0  0
   -0.7126    0.5740    2.6926 N   0  0  0  0  0  0  0  0  0  0  0  0
   -1.6464    0.7663    2.3621 H   0  0  0  0  0  0  0  0  0  0  0  0
   -0.4191    0.8310    4.1010 C   0  0  0  0  0  0  0  0  0  0  0  0
    0.4022    1.5452    4.1828 H   0  0  0  0  0  0  0  0  0  0  0  0
   -1.2983    1.2366    4.6035 H   0  0  0  0  0  0  0  0  0  0  0  0
   -0.1204   -0.0980    4.5907 H   0  0  0  0  0  0  0  0  0  0  0  0
  5  6  2  0  0  0  0
  5  7  1  0  0  0  0
  2  3  1  0  0  0  0
  2  4  1  0  0  0  0
  2  5  1  0  0  0  0
  1  2  1  0  0  0  0
 21 22  2  0  0  0  0
 21 23  1  0  0  0  0
 19 20  1  0  0  0  0
 17 18  2  0  0  0  0
 17 19  1  0  0  0  0
 14 15  1  0  0  0  0
 14 16  1  0  0  0  0
 14 17  1  0  0  0  0
 11 12  1  0  0  0  0
 11 13  1  0  0  0  0
 11 14  1  0  0  0  0
  9 10  1  0  0  0  0
  9 11  1  0  0  0  0
  9 21  1  0  0  0  0
  7  8  1  0  0  0  0
  7  9  1  0  0  0  0
 25 26  1  0  0  0  0
 25 27  1  0  0  0  0
 25 28  1  0  0  0  0
 23 24  1  0  0  0  0
 23 25  1  0  0  0  0
M  END
$$$$
default_name
  -OEChem-02102213163D

 28 27  0     1  0  0  0  0  0999 V2000
   -3.2133   -3.5565    1.2809 H   0  0  0  0  0  0  0  0  0  0  0  0
   -3.1873   -2.5755    0.8089 C   0  0  0  0  0  0  0  0  0  0  0  0
   -3.8793   -1.9065    1.3169 H   0  0  0  0  0  0  0  0  0  0  0  0
   -3.4623   -2.6685   -0.2401 H   0  0  0  0  0  0  0  0  0  0  0  0
   -1.7863   -2.0195    0.9119 C   0  0  0  0  0  0  0  0  0  0  0  0
   -0.9073   -2.6615    1.4699 O   0  0  0  0  0  0  0  0  0  0  0  0
   -1.5803   -0.8195    0.3749 N   0  0  0  0  0  0  0  0  0  0  0  0
   -2.3603   -0.3345   -0.0451 H   0  0  0  0  0  0  0  0  0  0  0  0
   -0.2933   -0.1205    0.3719 C   0  0  1  0  0  0  0  0  0  0  0  0
    0.4439   -0.7485   -0.1303 H   0  0  0  0  0  0  0  0  0  0  0  0
   -0.4368    1.1924   -0.4246 C   0  0  0  0  0  0  0  0  0  0  0  0
    0.4347    1.8144   -0.2131 H   0  0  0  0  0  0  0  0  0  0  0  0
   -0.4417    0.9671   -1.4920 H   0  0  0  0  0  0  0  0  0  0  0  0
   -1.7084    1.9902   -0.0878 C   0  0  0  0  0  0  0  0  0  0  0  0
   -2.2819    1.4685    0.6785 H   0  0  0  0  0  0  0  0  0  0  0  0
   -1.4254    2.9735    0.2862 H   0  0  0  0  0  0  0  0  0  0  0  0
   -2.6068    2.1870   -1.3046 C   0  0  0  0  0  0  0  0  0  0  0  0
   -2.3143    1.8775   -2.4485 O   0  0  0  0  0  0  0  0  0  0  0  0
   -3.8000    2.7590   -1.0579 O   0  0  0  0  0  0  0  0  0  0  0  0
   -4.2298    2.8221   -1.9127 H   0  0  0  0  0  0  0  0  0  0  0  0
    0.1871    0.1189    1.8122 C   0  0  0  0  0  0  0  0  0  0  0  0
    1.3541   -0.1171    2.1187 O   0  0  0  0  0  0  0  0  0  0  0  0
   -0.7126    0.5740    2.6926 N   0  0  0  0  0  0  0  0  0  0  0  0
   -1.6464    0.7663    2.3621 H   0  0  0  0  0  0  0  0  0  0  0  0
   -0.4191    0.8310    4.1010 C   0  0  0  0  0  0  0  0  0  0  0  0
    0.4022    1.5452    4.1828 H   0  0  0  0  0  0  0  0  0  0  0  0
   -1.2983    1.2366    4.6035 H   0  0  0  0  0  0  0  0  0  0  0  0
   -0.1204   -0.0980    4.5907 H   0  0  0  0  0  0  0  0  0  0  0  0
  5  6  2  0  0  0  0
  5  7  1  0  0  0  0
  2  3  1  0  0  0  0
  2  4  1  0  0  0  0
  2  5  1  0  0  0  0
  1  2  1  0  0  0  0
 21 22  2  0  0  0  0
 21 23  1  0  0  0  0
 19 20  1  0  0  0  0
 17 18  2  0  0  0  0
 17 19  1  0  0  0  0
 14 15  1  0  0  0  0
 14 16  1  0  0  0  0
 14 17  1  0  0  0  0
 11 12  1  0  0  0  0
 11 13  1  0  0  0  0
 11 14  1  0  0  0  0
  9 10  1  0  0  0  0
  9 11  1  0  0  0  0
  9 21  1  0  0  0  0
  7  8  1  0  0  0  0
  7  9  1  0  0  0  0
 25 26  1  0  0  0  0
 25 27  1  0  0  0  0
 25 28  1  0  0  0  0
 23 24  1  0  0  0  0
 23 25  1  0  0  0  0
M  END
$$$$
default_name
  -OEChem-02102213163D

 28 27  0     1  0  0  0  0  0999 V2000
   -3.2133   -3.5565    1.2809 H   0  0  0  0  0  0  0  0  0  0  0  0
   -3.1873   -2.5755    0.8089 C   0  0  0  0  0  0  0  0  0  0  0  0
   -3.8793   -1.9065    1.3169 H   0  0  0  0  0  0  0  0  0  0  0  0
   -3.4623   -2.6685   -0.2401 H   0  0  0  0  0  0  0  0  0  0  0  0
   -1.7863   -2.0195    0.9119 C   0  0  0  0  0  0  0  0  0  0  0  0
   -0.9073   -2.6615    1.4699 O   0  0  0  0  0  0  0  0  0  0  0  0
   -1.5803   -0.8195    0.3749 N   0  0  0  0  0  0  0  0  0  0  0  0
   -2.3603   -0.3345   -0.0451 H   0  0  0  0  0  0  0  0  0  0  0  0
   -0.2933   -0.1205    0.3719 C   0  0  1  0  0  0  0  0  0  0  0  0
    0.4439   -0.7485   -0.1303 H   0  0  0  0  0  0  0  0  0  0  0  0
   -0.4368    1.1924   -0.4246 C   0  0  0  0  0  0  0  0  0  0  0  0
    0.4347    1.8144   -0.2131 H   0  0  0  0  0  0  0  0  0  0  0  0
   -0.4417    0.9671   -1.4920 H   0  0  0  0  0  0  0  0  0  0  0  0
   -1.7084    1.9902   -0.0878 C   0  0  0  0  0  0  0  0  0  0  0  0
   -2.1404    1.6243    0.8437 H   0  0  0  0  0  0  0  0  0  0  0  0
   -1.4507    3.0423    0.0278 H   0  0  0  0  0  0  0  0  0  0  0  0
   -2.7669    1.8793   -1.1803 C   0  0  0  0  0  0  0  0  0  0  0  0
   -2.6020    1.3407   -2.2632 O   0  0  0  0  0  0  0  0  0  0  0  0
   -3.9564    2.4405   -0.8943 O   0  0  0  0  0  0  0  0  0  0  0  0
   -4.4955    2.2979   -1.6743 H   0  0  0  0  0  0  0  0  0  0  0  0
    0.1871    0.1189    1.8122 C   0  0  0  0  0  0  0  0  0  0  0  0
    1.3541   -0.1171    2.1187 O   0  0  0  0  0  0  0  0  0  0  0  0
   -0.7126    0.5740    2.6926 N   0  0  0  0  0  0  0  0  0  0  0  0
   -1.6464    0.7663    2.3621 H   0  0  0  0  0  0  0  0  0  0  0  0
   -0.4191    0.8310    4.1010 C   0  0  0  0  0  0  0  0  0  0  0  0
    0.4022    1.5452    4.1828 H   0  0  0  0  0  0  0  0  0  0  0  0
   -1.2983    1.2366    4.6035 H   0  0  0  0  0  0  0  0  0  0  0  0
   -0.1204   -0.0980    4.5907 H   0  0  0  0  0  0  0  0  0  0  0  0
  5  6  2  0  0  0  0
  5  7  1  0  0  0  0
  2  3  1  0  0  0  0
  2  4  1  0  0  0  0
  2  5  1  0  0  0  0
  1  2  1  0  0  0  0
 21 22  2  0  0  0  0
 21 23  1  0  0  0  0
 19 20  1  0  0  0  0
 17 18  2  0  0  0  0
 17 19  1  0  0  0  0
 14 15  1  0  0  0  0
 14 16  1  0  0  0  0
 14 17  1  0  0  0  0
 11 12  1  0  0  0  0
 11 13  1  0  0  0  0
 11 14  1  0  0  0  0
  9 10  1  0  0  0  0
  9 11  1  0  0  0  0
  9 21  1  0  0  0  0
  7  8  1  0  0  0  0
  7  9  1  0  0  0  0
 25 26  1  0  0  0  0
 25 27  1  0  0  0  0
 25 28  1  0  0  0  0
 23 24  1  0  0  0  0
 23 25  1  0  0  0  0
M  END
$$$$
default_name
  -OEChem-02102213163D

 28 27  0     1  0  0  0  0  0999 V2000
   -3.2133   -3.5565    1.2809 H   0  0  0  0  0  0  0  0  0  0  0  0
   -3.1873   -2.5755    0.8089 C   0  0  0  0  0  0  0  0  0  0  0  0
   -3.8793   -1.9065    1.3169 H   0  0  0  0  0  0  0  0  0  0  0  0
   -3.4623   -2.6685   -0.2401 H   0  0  0  0  0  0  0  0  0  0  0  0
   -1.7863   -2.0195    0.9119 C   0  0  0  0  0  0  0  0  0  0  0  0
   -0.9073   -2.6615    1.4699 O   0  0  0  0  0  0  0  0  0  0  0  0
   -1.5803   -0.8195    0.3749 N   0  0  0  0  0  0  0  0  0  0  0  0
   -2.3603   -0.3345   -0.0451 H   0  0  0  0  0  0  0  0  0  0  0  0
   -0.2933   -0.1205    0.3719 C   0  0  1  0  0  0  0  0  0  0  0  0
    0.4439   -0.7485   -0.1303 H   0  0  0  0  0  0  0  0  0  0  0  0
   -0.4368    1.1924   -0.4246 C   0  0  0  0  0  0  0  0  0  0  0  0
    0.4347    1.8144   -0.2131 H   0  0  0  0  0  0  0  0  0  0  0  0
   -0.4417    0.9671   -1.4920 H   0  0  0  0  0  0  0  0  0  0  0  0
   -1.7084    1.9902   -0.0878 C   0  0  0  0  0  0  0  0  0  0  0  0
   -1.9904    1.8181    0.9510 H   0  0  0  0  0  0  0  0  0  0  0  0
   -1.5136    3.0521   -0.2331 H   0  0  0  0  0  0  0  0  0  0  0  0
   -2.8875    1.5996   -0.9730 C   0  0  0  0  0  0  0  0  0  0  0  0
   -2.8246    0.8455   -1.9307 O   0  0  0  0  0  0  0  0  0  0  0  0
   -4.0675    2.1591   -0.6472 O   0  0  0  0  0  0  0  0  0  0  0  0
   -4.6905    1.8275   -1.2962 H   0  0  0  0  0  0  0  0  0  0  0  0
    0.1871    0.1189    1.8122 C   0  0  0  0  0  0  0  0  0  0  0  0
    1.3541   -0.1171    2.1187 O   0  0  0  0  0  0  0  0  0  0  0  0
   -0.7126    0.5740    2.6926 N   0  0  0  0  0  0  0  0  0  0  0  0
   -1.6464    0.7663    2.3621 H   0  0  0  0  0  0  0  0  0  0  0  0
   -0.4191    0.8310    4.1010 C   0  0  0  0  0  0  0  0  0  0  0  0
    0.4022    1.5452    4.1828 H   0  0  0  0  0  0  0  0  0  0  0  0
   -1.2983    1.2366    4.6035 H   0  0  0  0  0  0  0  0  0  0  0  0
   -0.1204   -0.0980    4.5907 H   0  0  0  0  0  0  0  0  0  0  0  0
  5  6  2  0  0  0  0
  5  7  1  0  0  0  0
  2  3  1  0  0  0  0
  2  4  1  0  0  0  0
  2  5  1  0  0  0  0
  1  2  1  0  0  0  0
 21 22  2  0  0  0  0
 21 23  1  0  0  0  0
 19 20  1  0  0  0  0
 17 18  2  0  0  0  0
 17 19  1  0  0  0  0
 14 15  1  0  0  0  0
 14 16  1  0  0  0  0
 14 17  1  0  0  0  0
 11 12  1  0  0  0  0
 11 13  1  0  0  0  0
 11 14  1  0  0  0  0
  9 10  1  0  0  0  0
  9 11  1  0  0  0  0
  9 21  1  0  0  0  0
  7  8  1  0  0  0  0
  7  9  1  0  0  0  0
 25 26  1  0  0  0  0
 25 27  1  0  0  0  0
 25 28  1  0  0  0  0
 23 24  1  0  0  0  0
 23 25  1  0  0  0  0
M  END
$$$$
default_name
  -OEChem-02102213163D

 28 27  0     1  0  0  0  0  0999 V2000
   -3.2133   -3.5565    1.2809 H   0  0  0  0  0  0  0  0  0  0  0  0
   -3.1873   -2.5755    0.8089 C   0  0  0  0  0  0  0  0  0  0  0  0
   -3.8793   -1.9065    1.3169 H   0  0  0  0  0  0  0  0  0  0  0  0
   -3.4623   -2.6685   -0.2401 H   0  0  0  0  0  0  0  0  0  0  0  0
   -1.7863   -2.0195    0.9119 C   0  0  0  0  0  0  0  0  0  0  0  0
   -0.9073   -2.6615    1.4699 O   0  0  0  0  0  0  0  0  0  0  0  0
   -1.5803   -0.8195    0.3749 N   0  0  0  0  0  0  0  0  0  0  0  0
   -2.3603   -0.3345   -0.0451 H   0  0  0  0  0  0  0  0  0  0  0  0
   -0.2933   -0.1205    0.3719 C   0  0  1  0  0  0  0  0  0  0  0  0
    0.4439   -0.7485   -0.1303 H   0  0  0  0  0  0  0  0  0  0  0  0
   -0.4368    1.1924   -0.4246 C   0  0  0  0  0  0  0  0  0  0  0  0
    0.4347    1.8144   -0.2131 H   0  0  0  0  0  0  0  0  0  0  0  0
   -0.4417    0.9671   -1.4920 H   0  0  0  0  0  0  0  0  0  0  0  0
   -1.7084    1.9902   -0.0878 C   0  0  0  0  0  0  0  0  0  0  0  0
   -1.8421    2.0368    0.9931 H   0  0  0  0  0  0  0  0  0  0  0  0
   -1.6100    3.0022   -0.4788 H   0  0  0  0  0  0  0  0  0  0  0  0
   -2.9603    1.3669   -0.6967 C   0  0  0  0  0  0  0  0  0  0  0  0
   -2.9670    0.4257   -1.4738 O   0  0  0  0  0  0  0  0  0  0  0  0
   -4.1257    1.9338   -0.3334 O   0  0  0  0  0  0  0  0  0  0  0  0
   -4.8014    1.4429   -0.8042 H   0  0  0  0  0  0  0  0  0  0  0  0
    0.1871    0.1189    1.8122 C   0  0  0  0  0  0  0  0  0  0  0  0
    1.3541   -0.1171    2.1187 O   0  0  0  0  0  0  0  0  0  0  0  0
   -0.7126    0.5740    2.6926 N   0  0  0  0  0  0  0  0  0  0  0  0
   -1.6464    0.7663    2.3621 H   0  0  0  0  0  0  0  0  0  0  0  0
   -0.4191    0.8310    4.1010 C   0  0  0  0  0  0  0  0  0  0  0  0
    0.4022    1.5452    4.1828 H   0  0  0  0  0  0  0  0  0  0  0  0
   -1.2983    1.2366    4.6035 H   0  0  0  0  0  0  0  0  0  0  0  0
   -0.1204   -0.0980    4.5907 H   0  0  0  0  0  0  0  0  0  0  0  0
  5  6  2  0  0  0  0
  5  7  1  0  0  0  0
  2  3  1  0  0  0  0
  2  4  1  0  0  0  0
  2  5  1  0  0  0  0
  1  2  1  0  0  0  0
 21 22  2  0  0  0  0
 21 23  1  0  0  0  0
 19 20  1  0  0  0  0
 17 18  2  0  0  0  0
 17 19  1  0  0  0  0
 14 15  1  0  0  0  0
 14 16  1  0  0  0  0
 14 17  1  0  0  0  0
 11 12  1  0  0  0  0
 11 13  1  0  0  0  0
 11 14  1  0  0  0  0
  9 10  1  0  0  0  0
  9 11  1  0  0  0  0
  9 21  1  0  0  0  0
  7  8  1  0  0  0  0
  7  9  1  0  0  0  0
 25 26  1  0  0  0  0
 25 27  1  0  0  0  0
 25 28  1  0  0  0  0
 23 24  1  0  0  0  0
 23 25  1  0  0  0  0
M  END
$$$$
default_name
  -OEChem-02102213163D

 28 27  0     1  0  0  0  0  0999 V2000
   -3.2133   -3.5565    1.2809 H   0  0  0  0  0  0  0  0  0  0  0  0
   -3.1873   -2.5755    0.8089 C   0  0  0  0  0  0  0  0  0  0  0  0
   -3.8793   -1.9065    1.3169 H   0  0  0  0  0  0  0  0  0  0  0  0
   -3.4623   -2.6685   -0.2401 H   0  0  0  0  0  0  0  0  0  0  0  0
   -1.7863   -2.0195    0.9119 C   0  0  0  0  0  0  0  0  0  0  0  0
   -0.9073   -2.6615    1.4699 O   0  0  0  0  0  0  0  0  0  0  0  0
   -1.5803   -0.8195    0.3749 N   0  0  0  0  0  0  0  0  0  0  0  0
   -2.3603   -0.3345   -0.0451 H   0  0  0  0  0  0  0  0  0  0  0  0
   -0.2933   -0.1205    0.3719 C   0  0  1  0  0  0  0  0  0  0  0  0
    0.4439   -0.7485   -0.1303 H   0  0  0  0  0  0  0  0  0  0  0  0
   -0.4368    1.1924   -0.4246 C   0  0  0  0  0  0  0  0  0  0  0  0
    0.4347    1.8144   -0.2131 H   0  0  0  0  0  0  0  0  0  0  0  0
   -0.4417    0.9671   -1.4920 H   0  0  0  0  0  0  0  0  0  0  0  0
   -1.7084    1.9902   -0.0878 C   0  0  0  0  0  0  0  0  0  0  0  0
   -1.7056    2.2654    0.9670 H   0  0  0  0  0  0  0  0  0  0  0  0
   -1.7333    2.8960   -0.6925 H   0  0  0  0  0  0  0  0  0  0  0  0
   -2.9803    1.1972   -0.3703 C   0  0  0  0  0  0  0  0  0  0  0  0
   -3.0193    0.1099   -0.9235 O   0  0  0  0  0  0  0  0  0  0  0  0
   -4.1270    1.7801    0.0258 O   0  0  0  0  0  0  0  0  0  0  0  0
   -4.8208    1.1704   -0.2318 H   0  0  0  0  0  0  0  0  0  0  0  0
    0.1871    0.1189    1.8122 C   0  0  0  0  0  0  0  0  0  0  0  0
    1.3541   -0.1171    2.1187 O   0  0  0  0  0  0  0  0  0  0  0  0
   -0.7126    0.5740    2.6926 N   0  0  0  0  0  0  0  0  0  0  0  0
   -1.6464    0.7663    2.3621 H   0  0  0  0  0  0  0  0  0  0  0  0
   -0.4191    0.8310    4.1010 C   0  0  0  0  0  0  0  0  0  0  0  0
    0.4022    1.5452    4.1828 H   0  0  0  0  0  0  0  0  0  0  0  0
   -1.2983    1.2366    4.6035 H   0  0  0  0  0  0  0  0  0  0  0  0
   -0.1204   -0.0980    4.5907 H   0  0  0  0  0  0  0  0  0  0  0  0
  5  6  2  0  0  0  0
  5  7  1  0  0  0  0
  2  3  1  0  0  0  0
  2  4  1  0  0  0  0
  2  5  1  0  0  0  0
  1  2  1  0  0  0  0
 21 22  2  0  0  0  0
 21 23  1  0  0  0  0
 19 20  1  0  0  0  0
 17 18  2  0  0  0  0
 17 19  1  0  0  0  0
 14 15  1  0  0  0  0
 14 16  1  0  0  0  0
 14 17  1  0  0  0  0
 11 12  1  0  0  0  0
 11 13  1  0  0  0  0
 11 14  1  0  0  0  0
  9 10  1  0  0  0  0
  9 11  1  0  0  0  0
  9 21  1  0  0  0  0
  7  8  1  0  0  0  0
  7  9  1  0  0  0  0
 25 26  1  0  0  0  0
 25 27  1  0  0  0  0
 25 28  1  0  0  0  0
 23 24  1  0  0  0  0
 23 25  1  0  0  0  0
M  END
$$$$
default_name
  -OEChem-02102213163D

 28 27  0     1  0  0  0  0  0999 V2000
   -3.2133   -3.5565    1.2809 H   0  0  0  0  0  0  0  0  0  0  0  0
   -3.1873   -2.5755    0.8089 C   0  0  0  0  0  0  0  0  0  0  0  0
   -3.8793   -1.9065    1.3169 H   0  0  0  0  0  0  0  0  0  0  0  0
   -3.4623   -2.6685   -0.2401 H   0  0  0  0  0  0  0  0  0  0  0  0
   -1.7863   -2.0195    0.9119 C   0  0  0  0  0  0  0  0  0  0  0  0
   -0.9073   -2.6615    1.4699 O   0  0  0  0  0  0  0  0  0  0  0  0
   -1.5803   -0.8195    0.3749 N   0  0  0  0  0  0  0  0  0  0  0  0
   -2.3603   -0.3345   -0.0451 H   0  0  0  0  0  0  0  0  0  0  0  0
   -0.2933   -0.1205    0.3719 C   0  0  1  0  0  0  0  0  0  0  0  0
    0.4439   -0.7485   -0.1303 H   0  0  0  0  0  0  0  0  0  0  0  0
   -0.4368    1.1924   -0.4246 C   0  0  0  0  0  0  0  0  0  0  0  0
    0.4347    1.8144   -0.2131 H   0  0  0  0  0  0  0  0  0  0  0  0
   -0.4417    0.9671   -1.4920 H   0  0  0  0  0  0  0  0  0  0  0  0
   -1.7084    1.9902   -0.0878 C   0  0  0  0  0  0  0  0  0  0  0  0
   -1.5902    2.4884    0.8746 H   0  0  0  0  0  0  0  0  0  0  0  0
   -1.8750    2.7407   -0.8597 H   0  0  0  0  0  0  0  0  0  0  0  0
   -2.9462    1.1019   -0.0160 C   0  0  0  0  0  0  0  0  0  0  0  0
   -2.9782   -0.0805   -0.3174 O   0  0  0  0  0  0  0  0  0  0  0  0
   -4.0714    1.7083    0.4058 O   0  0  0  0  0  0  0  0  0  0  0  0
   -4.7472    1.0286    0.3820 H   0  0  0  0  0  0  0  0  0  0  0  0
    0.1871    0.1189    1.8122 C   0  0  0  0  0  0  0  0  0  0  0  0
    1.3541   -0.1171    2.1187 O   0  0  0  0  0  0  0  0  0  0  0  0
   -0.7126    0.5740    2.6926 N   0  0  0  0  0  0  0  0  0  0  0  0
   -1.6464    0.7663    2.3621 H   0  0  0  0  0  0  0  0  0  0  0  0
   -0.4191    0.8310    4.1010 C   0  0  0  0  0  0  0  0  0  0  0  0
    0.4022    1.5452    4.1828 H   0  0  0  0  0  0  0  0  0  0  0  0
   -1.2983    1.2366    4.6035 H   0  0  0  0  0  0  0  0  0  0  0  0
   -0.1204   -0.0980    4.5907 H   0  0  0  0  0  0  0  0  0  0  0  0
  5  6  2  0  0  0  0
  5  7  1  0  0  0  0
  2  3  1  0  0  0  0
  2  4  1  0  0  0  0
  2  5  1  0  0  0  0
  1  2  1  0  0  0  0
 21 22  2  0  0  0  0
 21 23  1  0  0  0  0
 19 20  1  0  0  0  0
 17 18  2  0  0  0  0
 17 19  1  0  0  0  0
 14 15  1  0  0  0  0
 14 16  1  0  0  0  0
 14 17  1  0  0  0  0
 11 12  1  0  0  0  0
 11 13  1  0  0  0  0
 11 14  1  0  0  0  0
  9 10  1  0  0  0  0
  9 11  1  0  0  0  0
  9 21  1  0  0  0  0
  7  8  1  0  0  0  0
  7  9  1  0  0  0  0
 25 26  1  0  0  0  0
 25 27  1  0  0  0  0
 25 28  1  0  0  0  0
 23 24  1  0  0  0  0
 23 25  1  0  0  0  0
M  END
$$$$
default_name
  -OEChem-02102213163D

 28 27  0     1  0  0  0  0  0999 V2000
   -3.2133   -3.5565    1.2809 H   0  0  0  0  0  0  0  0  0  0  0  0
   -3.1873   -2.5755    0.8089 C   0  0  0  0  0  0  0  0  0  0  0  0
   -3.8793   -1.9065    1.3169 H   0  0  0  0  0  0  0  0  0  0  0  0
   -3.4623   -2.6685   -0.2401 H   0  0  0  0  0  0  0  0  0  0  0  0
   -1.7863   -2.0195    0.9119 C   0  0  0  0  0  0  0  0  0  0  0  0
   -0.9073   -2.6615    1.4699 O   0  0  0  0  0  0  0  0  0  0  0  0
   -1.5803   -0.8195    0.3749 N   0  0  0  0  0  0  0  0  0  0  0  0
   -2.3603   -0.3345   -0.0451 H   0  0  0  0  0  0  0  0  0  0  0  0
   -0.2933   -0.1205    0.3719 C   0  0  1  0  0  0  0  0  0  0  0  0
    0.4439   -0.7485   -0.1303 H   0  0  0  0  0  0  0  0  0  0  0  0
   -0.4368    1.1924   -0.4246 C   0  0  0  0  0  0  0  0  0  0  0  0
    0.4347    1.8144   -0.2131 H   0  0  0  0  0  0  0  0  0  0  0  0
   -0.4417    0.9671   -1.4920 H   0  0  0  0  0  0  0  0  0  0  0  0
   -1.7084    1.9902   -0.0878 C   0  0  0  0  0  0  0  0  0  0  0  0
   -1.5037    2.6905    0.7221 H   0  0  0  0  0  0  0  0  0  0  0  0
   -2.0255    2.5469   -0.9689 H   0  0  0  0  0  0  0  0  0  0  0  0
   -2.8603    1.0876    0.3421 C   0  0  0  0  0  0  0  0  0  0  0  0
   -2.8463   -0.1323    0.3033 O   0  0  0  0  0  0  0  0  0  0  0  0
   -3.9626    1.7234    0.7807 O   0  0  0  0  0  0  0  0  0  0  0  0
   -4.5857    1.0270    0.9953 H   0  0  0  0  0  0  0  0  0  0  0  0
    0.1871    0.1189    1.8122 C   0  0  0  0  0  0  0  0  0  0  0  0
    1.3541   -0.1171    2.1187 O   0  0  0  0  0  0  0  0  0  0  0  0
   -0.7126    0.5740    2.6926 N   0  0  0  0  0  0  0  0  0  0  0  0
   -1.6464    0.7663    2.3621 H   0  0  0  0  0  0  0  0  0  0  0  0
   -0.4191    0.8310    4.1010 C   0  0  0  0  0  0  0  0  0  0  0  0
    0.4022    1.5452    4.1828 H   0  0  0  0  0  0  0  0  0  0  0  0
   -1.2983    1.2366    4.6035 H   0  0  0  0  0  0  0  0  0  0  0  0
   -0.1204   -0.0980    4.5907 H   0  0  0  0  0  0  0  0  0  0  0  0
  5  6  2  0  0  0  0
  5  7  1  0  0  0  0
  2  3  1  0  0  0  0
  2  4  1  0  0  0  0
  2  5  1  0  0  0  0
  1  2  1  0  0  0  0
 21 22  2  0  0  0  0
 21 23  1  0  0  0  0
 19 20  1  0  0  0  0
 17 18  2  0  0  0  0
 17 19  1  0  0  0  0
 14 15  1  0  0  0  0
 14 16  1  0  0  0  0
 14 17  1  0  0  0  0
 11 12  1  0  0  0  0
 11 13  1  0  0  0  0
 11 14  1  0  0  0  0
  9 10  1  0  0  0  0
  9 11  1  0  0  0  0
  9 21  1  0  0  0  0
  7  8  1  0  0  0  0
  7  9  1  0  0  0  0
 25 26  1  0  0  0  0
 25 27  1  0  0  0  0
 25 28  1  0  0  0  0
 23 24  1  0  0  0  0
 23 25  1  0  0  0  0
M  END
$$$$
default_name
  -OEChem-02102213163D

 28 27  0     1  0  0  0  0  0999 V2000
   -3.2133   -3.5565    1.2809 H   0  0  0  0  0  0  0  0  0  0  0  0
   -3.1873   -2.5755    0.8089 C   0  0  0  0  0  0  0  0  0  0  0  0
   -3.8793   -1.9065    1.3169 H   0  0  0  0  0  0  0  0  0  0  0  0
   -3.4623   -2.6685   -0.2401 H   0  0  0  0  0  0  0  0  0  0  0  0
   -1.7863   -2.0195    0.9119 C   0  0  0  0  0  0  0  0  0  0  0  0
   -0.9073   -2.6615    1.4699 O   0  0  0  0  0  0  0  0  0  0  0  0
   -1.5803   -0.8195    0.3749 N   0  0  0  0  0  0  0  0  0  0  0  0
   -2.3603   -0.3345   -0.0451 H   0  0  0  0  0  0  0  0  0  0  0  0
   -0.2933   -0.1205    0.3719 C   0  0  1  0  0  0  0  0  0  0  0  0
    0.4439   -0.7485   -0.1303 H   0  0  0  0  0  0  0  0  0  0  0  0
   -0.4368    1.1924   -0.4246 C   0  0  0  0  0  0  0  0  0  0  0  0
    0.4347    1.8144   -0.2131 H   0  0  0  0  0  0  0  0  0  0  0  0
   -0.4417    0.9671   -1.4920 H   0  0  0  0  0  0  0  0  0  0  0  0
   -1.7084    1.9902   -0.0878 C   0  0  0  0  0  0  0  0  0  0  0  0
   -1.4521    2.8581    0.5200 H   0  0  0  0  0  0  0  0  0  0  0  0
   -2.1746    2.3278   -1.0127 H   0  0  0  0  0  0  0  0  0  0  0  0
   -2.7285    1.1552    0.6794 C   0  0  0  0  0  0  0  0  0  0  0  0
   -2.6327   -0.0421    0.8962 O   0  0  0  0  0  0  0  0  0  0  0  0
   -3.8081    1.8244    1.1250 O   0  0  0  0  0  0  0  0  0  0  0  0
   -4.3473    1.1659    1.5664 H   0  0  0  0  0  0  0  0  0  0  0  0
    0.1871    0.1189    1.8122 C   0  0  0  0  0  0  0  0  0  0  0  0
    1.3541   -0.1171    2.1187 O   0  0  0  0  0  0  0  0  0  0  0  0
   -0.7126    0.5740    2.6926 N   0  0  0  0  0  0  0  0  0  0  0  0
   -1.6464    0.7663    2.3621 H   0  0  0  0  0  0  0  0  0  0  0  0
   -0.4191    0.8310    4.1010 C   0  0  0  0  0  0  0  0  0  0  0  0
    0.4022    1.5452    4.1828 H   0  0  0  0  0  0  0  0  0  0  0  0
   -1.2983    1.2366    4.6035 H   0  0  0  0  0  0  0  0  0  0  0  0
   -0.1204   -0.0980    4.5907 H   0  0  0  0  0  0  0  0  0  0  0  0
  5  6  2  0  0  0  0
  5  7  1  0  0  0  0
  2  3  1  0  0  0  0
  2  4  1  0  0  0  0
  2  5  1  0  0  0  0
  1  2  1  0  0  0  0
 21 22  2  0  0  0  0
 21 23  1  0  0  0  0
 19 20  1  0  0  0  0
 17 18  2  0  0  0  0
 17 19  1  0  0  0  0
 14 15  1  0  0  0  0
 14 16  1  0  0  0  0
 14 17  1  0  0  0  0
 11 12  1  0  0  0  0
 11 13  1  0  0  0  0
 11 14  1  0  0  0  0
  9 10  1  0  0  0  0
  9 11  1  0  0  0  0
  9 21  1  0  0  0  0
  7  8  1  0  0  0  0
  7  9  1  0  0  0  0
 25 26  1  0  0  0  0
 25 27  1  0  0  0  0
 25 28  1  0  0  0  0
 23 24  1  0  0  0  0
 23 25  1  0  0  0  0
M  END
$$$$
default_name
  -OEChem-02102213163D

 28 27  0     1  0  0  0  0  0999 V2000
   -3.2133   -3.5565    1.2809 H   0  0  0  0  0  0  0  0  0  0  0  0
   -3.1873   -2.5755    0.8089 C   0  0  0  0  0  0  0  0  0  0  0  0
   -3.8793   -1.9065    1.3169 H   0  0  0  0  0  0  0  0  0  0  0  0
   -3.4623   -2.6685   -0.2401 H   0  0  0  0  0  0  0  0  0  0  0  0
   -1.7863   -2.0195    0.9119 C   0  0  0  0  0  0  0  0  0  0  0  0
   -0.9073   -2.6615    1.4699 O   0  0  0  0  0  0  0  0  0  0  0  0
   -1.5803   -0.8195    0.3749 N   0  0  0  0  0  0  0  0  0  0  0  0
   -2.3603   -0.3345   -0.0451 H   0  0  0  0  0  0  0  0  0  0  0  0
   -0.2933   -0.1205    0.3719 C   0  0  1  0  0  0  0  0  0  0  0  0
    0.4439   -0.7485   -0.1303 H   0  0  0  0  0  0  0  0  0  0  0  0
   -0.4368    1.1924   -0.4246 C   0  0  0  0  0  0  0  0  0  0  0  0
    0.4347    1.8144   -0.2131 H   0  0  0  0  0  0  0  0  0  0  0  0
   -0.4417    0.9671   -1.4920 H   0  0  0  0  0  0  0  0  0  0  0  0
   -1.7084    1.9902   -0.0878 C   0  0  0  0  0  0  0  0  0  0  0  0
   -1.4389    2.9796    0.2820 H   0  0  0  0  0  0  0  0  0  0  0  0
   -2.3120    2.0983   -0.9882 H   0  0  0  0  0  0  0  0  0  0  0  0
   -2.5598    1.3002    0.9731 C   0  0  0  0  0  0  0  0  0  0  0  0
   -2.3519    0.1839    1.4209 O   0  0  0  0  0  0  0  0  0  0  0  0
   -3.6183    2.0043    1.4152 O   0  0  0  0  0  0  0  0  0  0  0  0
   -4.0482    1.4357    2.0563 H   0  0  0  0  0  0  0  0  0  0  0  0
    0.1871    0.1189    1.8122 C   0  0  0  0  0  0  0  0  0  0  0  0
    1.3541   -0.1171    2.1187 O   0  0  0  0  0  0  0  0  0  0  0  0
   -0.7126    0.5740    2.6926 N   0  0  0  0  0  0  0  0  0  0  0  0
   -1.6464    0.7663    2.3621 H   0  0  0  0  0  0  0  0  0  0  0  0
   -0.4191    0.8310    4.1010 C   0  0  0  0  0  0  0  0  0  0  0  0
    0.4022    1.5452    4.1828 H   0  0  0  0  0  0  0  0  0  0  0  0
   -1.2983    1.2366    4.6035 H   0  0  0  0  0  0  0  0  0  0  0  0
   -0.1204   -0.0980    4.5907 H   0  0  0  0  0  0  0  0  0  0  0  0
  5  6  2  0  0  0  0
  5  7  1  0  0  0  0
  2  3  1  0  0  0  0
  2  4  1  0  0  0  0
  2  5  1  0  0  0  0
  1  2  1  0  0  0  0
 21 22  2  0  0  0  0
 21 23  1  0  0  0  0
 19 20  1  0  0  0  0
 17 18  2  0  0  0  0
 17 19  1  0  0  0  0
 14 15  1  0  0  0  0
 14 16  1  0  0  0  0
 14 17  1  0  0  0  0
 11 12  1  0  0  0  0
 11 13  1  0  0  0  0
 11 14  1  0  0  0  0
  9 10  1  0  0  0  0
  9 11  1  0  0  0  0
  9 21  1  0  0  0  0
  7  8  1  0  0  0  0
  7  9  1  0  0  0  0
 25 26  1  0  0  0  0
 25 27  1  0  0  0  0
 25 28  1  0  0  0  0
 23 24  1  0  0  0  0
 23 25  1  0  0  0  0
M  END
$$$$
default_name
  -OEChem-02102213163D

 28 27  0     1  0  0  0  0  0999 V2000
   -3.2133   -3.5565    1.2809 H   0  0  0  0  0  0  0  0  0  0  0  0
   -3.1873   -2.5755    0.8089 C   0  0  0  0  0  0  0  0  0  0  0  0
   -3.8793   -1.9065    1.3169 H   0  0  0  0  0  0  0  0  0  0  0  0
   -3.4623   -2.6685   -0.2401 H   0  0  0  0  0  0  0  0  0  0  0  0
   -1.7863   -2.0195    0.9119 C   0  0  0  0  0  0  0  0  0  0  0  0
   -0.9073   -2.6615    1.4699 O   0  0  0  0  0  0  0  0  0  0  0  0
   -1.5803   -0.8195    0.3749 N   0  0  0  0  0  0  0  0  0  0  0  0
   -2.3603   -0.3345   -0.0451 H   0  0  0  0  0  0  0  0  0  0  0  0
   -0.2933   -0.1205    0.3719 C   0  0  1  0  0  0  0  0  0  0  0  0
    0.4439   -0.7485   -0.1303 H   0  0  0  0  0  0  0  0  0  0  0  0
   -0.4368    1.1924   -0.4246 C   0  0  0  0  0  0  0  0  0  0  0  0
    0.4347    1.8144   -0.2131 H   0  0  0  0  0  0  0  0  0  0  0  0
   -0.4417    0.9671   -1.4920 H   0  0  0  0  0  0  0  0  0  0  0  0
   -1.7084    1.9902   -0.0878 C   0  0  0  0  0  0  0  0  0  0  0  0
   -1.4650    3.0468    0.0243 H   0  0  0  0  0  0  0  0  0  0  0  0
   -2.4285    1.8741   -0.8969 H   0  0  0  0  0  0  0  0  0  0  0  0
   -2.3656    1.5127    1.2032 C   0  0  0  0  0  0  0  0  0  0  0  0
   -2.0230    0.5305    1.8417 O   0  0  0  0  0  0  0  0  0  0  0  0
   -3.4062    2.2510    1.6316 O   0  0  0  0  0  0  0  0  0  0  0  0
   -3.7089    1.8181    2.4317 H   0  0  0  0  0  0  0  0  0  0  0  0
    0.1871    0.1189    1.8122 C   0  0  0  0  0  0  0  0  0  0  0  0
    1.3541   -0.1171    2.1187 O   0  0  0  0  0  0  0  0  0  0  0  0
   -0.7126    0.5740    2.6926 N   0  0  0  0  0  0  0  0  0  0  0  0
   -1.6464    0.7663    2.3621 H   0  0  0  0  0  0  0  0  0  0  0  0
   -0.4191    0.8310    4.1010 C   0  0  0  0  0  0  0  0  0  0  0  0
    0.4022    1.5452    4.1828 H   0  0  0  0  0  0  0  0  0  0  0  0
   -1.2983    1.2366    4.6035 H   0  0  0  0  0  0  0  0  0  0  0  0
   -0.1204   -0.0980    4.5907 H   0  0  0  0  0  0  0  0  0  0  0  0
  5  6  2  0  0  0  0
  5  7  1  0  0  0  0
  2  3  1  0  0  0  0
  2  4  1  0  0  0  0
  2  5  1  0  0  0  0
  1  2  1  0  0  0  0
 21 22  2  0  0  0  0
 21 23  1  0  0  0  0
 19 20  1  0  0  0  0
 17 18  2  0  0  0  0
 17 19  1  0  0  0  0
 14 15  1  0  0  0  0
 14 16  1  0  0  0  0
 14 17  1  0  0  0  0
 11 12  1  0  0  0  0
 11 13  1  0  0  0  0
 11 14  1  0  0  0  0
  9 10  1  0  0  0  0
  9 11  1  0  0  0  0
  9 21  1  0  0  0  0
  7  8  1  0  0  0  0
  7  9  1  0  0  0  0
 25 26  1  0  0  0  0
 25 27  1  0  0  0  0
 25 28  1  0  0  0  0
 23 24  1  0  0  0  0
 23 25  1  0  0  0  0
M  END
$$$$
default_name
  -OEChem-02102213163D

 28 27  0     1  0  0  0  0  0999 V2000
   -3.2133   -3.5565    1.2809 H   0  0  0  0  0  0  0  0  0  0  0  0
   -3.1873   -2.5755    0.8089 C   0  0  0  0  0  0  0  0  0  0  0  0
   -3.8793   -1.9065    1.3169 H   0  0  0  0  0  0  0  0  0  0  0  0
   -3.4623   -2.6685   -0.2401 H   0  0  0  0  0  0  0  0  0  0  0  0
   -1.7863   -2.0195    0.9119 C   0  0  0  0  0  0  0  0  0  0  0  0
   -0.9073   -2.6615    1.4699 O   0  0  0  0  0  0  0  0  0  0  0  0
   -1.5803   -0.8195    0.3749 N   0  0  0  0  0  0  0  0  0  0  0  0
   -2.3603   -0.3345   -0.0451 H   0  0  0  0  0  0  0  0  0  0  0  0
   -0.2933   -0.1205    0.3719 C   0  0  1  0  0  0  0  0  0  0  0  0
    0.4439   -0.7485   -0.1303 H   0  0  0  0  0  0  0  0  0  0  0  0
   -0.4368    1.1924   -0.4246 C   0  0  0  0  0  0  0  0  0  0  0  0
    0.4347    1.8144   -0.2131 H   0  0  0  0  0  0  0  0  0  0  0  0
   -0.4417    0.9671   -1.4920 H   0  0  0  0  0  0  0  0  0  0  0  0
   -1.7084    1.9902   -0.0878 C   0  0  0  0  0  0  0  0  0  0  0  0
   -1.5286    3.0552   -0.2354 H   0  0  0  0  0  0  0  0  0  0  0  0
   -2.5161    1.6705   -0.7452 H   0  0  0  0  0  0  0  0  0  0  0  0
   -2.1591    1.7781    1.3538 C   0  0  0  0  0  0  0  0  0  0  0  0
   -1.6685    0.9738    2.1299 O   0  0  0  0  0  0  0  0  0  0  0  0
   -3.1863    2.5476    1.7594 O   0  0  0  0  0  0  0  0  0  0  0  0
   -3.3525    2.2869    2.6670 H   0  0  0  0  0  0  0  0  0  0  0  0
    0.1871    0.1189    1.8122 C   0  0  0  0  0  0  0  0  0  0  0  0
    1.3541   -0.1171    2.1187 O   0  0  0  0  0  0  0  0  0  0  0  0
   -0.7126    0.5740    2.6926 N   0  0  0  0  0  0  0  0  0  0  0  0
   -1.6464    0.7663    2.3621 H   0  0  0  0  0  0  0  0  0  0  0  0
   -0.4191    0.8310    4.1010 C   0  0  0  0  0  0  0  0  0  0  0  0
    0.4022    1.5452    4.1828 H   0  0  0  0  0  0  0  0  0  0  0  0
   -1.2983    1.2366    4.6035 H   0  0  0  0  0  0  0  0  0  0  0  0
   -0.1204   -0.0980    4.5907 H   0  0  0  0  0  0  0  0  0  0  0  0
  5  6  2  0  0  0  0
  5  7  1  0  0  0  0
  2  3  1  0  0  0  0
  2  4  1  0  0  0  0
  2  5  1  0  0  0  0
  1  2  1  0  0  0  0
 21 22  2  0  0  0  0
 21 23  1  0  0  0  0
 19 20  1  0  0  0  0
 17 18  2  0  0  0  0
 17 19  1  0  0  0  0
 14 15  1  0  0  0  0
 14 16  1  0  0  0  0
 14 17  1  0  0  0  0
 11 12  1  0  0  0  0
 11 13  1  0  0  0  0
 11 14  1  0  0  0  0
  9 10  1  0  0  0  0
  9 11  1  0  0  0  0
  9 21  1  0  0  0  0
  7  8  1  0  0  0  0
  7  9  1  0  0  0  0
 25 26  1  0  0  0  0
 25 27  1  0  0  0  0
 25 28  1  0  0  0  0
 23 24  1  0  0  0  0
 23 25  1  0  0  0  0
M  END
$$$$
default_name
  -OEChem-02102213163D

 28 27  0     1  0  0  0  0  0999 V2000
   -3.2133   -3.5565    1.2809 H   0  0  0  0  0  0  0  0  0  0  0  0
   -3.1873   -2.5755    0.8089 C   0  0  0  0  0  0  0  0  0  0  0  0
   -3.8793   -1.9065    1.3169 H   0  0  0  0  0  0  0  0  0  0  0  0
   -3.4623   -2.6685   -0.2401 H   0  0  0  0  0  0  0  0  0  0  0  0
   -1.7863   -2.0195    0.9119 C   0  0  0  0  0  0  0  0  0  0  0  0
   -0.9073   -2.6615    1.4699 O   0  0  0  0  0  0  0  0  0  0  0  0
   -1.5803   -0.8195    0.3749 N   0  0  0  0  0  0  0  0  0  0  0  0
   -2.3603   -0.3345   -0.0451 H   0  0  0  0  0  0  0  0  0  0  0  0
   -0.2933   -0.1205    0.3719 C   0  0  1  0  0  0  0  0  0  0  0  0
    0.4439   -0.7485   -0.1303 H   0  0  0  0  0  0  0  0  0  0  0  0
   -0.4368    1.1924   -0.4246 C   0  0  0  0  0  0  0  0  0  0  0  0
    0.4347    1.8144   -0.2131 H   0  0  0  0  0  0  0  0  0  0  0  0
   -0.4417    0.9671   -1.4920 H   0  0  0  0  0  0  0  0  0  0  0  0
   -1.7084    1.9902   -0.0878 C   0  0  0  0  0  0  0  0  0  0  0  0
   -1.6253    3.0041   -0.4796 H   0  0  0  0  0  0  0  0  0  0  0  0
   -2.5687    1.5013   -0.5433 H   0  0  0  0  0  0  0  0  0  0  0  0
   -1.9546    2.0784    1.4149 C   0  0  0  0  0  0  0  0  0  0  0  0
   -1.3125    1.4838    2.2659 O   0  0  0  0  0  0  0  0  0  0  0  0
   -2.9736    2.8738    1.7898 O   0  0  0  0  0  0  0  0  0  0  0  0
   -3.0031    2.8104    2.7461 H   0  0  0  0  0  0  0  0  0  0  0  0
    0.1871    0.1189    1.8122 C   0  0  0  0  0  0  0  0  0  0  0  0
    1.3541   -0.1171    2.1187 O   0  0  0  0  0  0  0  0  0  0  0  0
   -0.7126    0.5740    2.6926 N   0  0  0  0  0  0  0  0  0  0  0  0
   -1.6464    0.7663    2.3621 H   0  0  0  0  0  0  0  0  0  0  0  0
   -0.4191    0.8310    4.1010 C   0  0  0  0  0  0  0  0  0  0  0  0
    0.4022    1.5452    4.1828 H   0  0  0  0  0  0  0  0  0  0  0  0
   -1.2983    1.2366    4.6035 H   0  0  0  0  0  0  0  0  0  0  0  0
   -0.1204   -0.0980    4.5907 H   0  0  0  0  0  0  0  0  0  0  0  0
  5  6  2  0  0  0  0
  5  7  1  0  0  0  0
  2  3  1  0  0  0  0
  2  4  1  0  0  0  0
  2  5  1  0  0  0  0
  1  2  1  0  0  0  0
 21 22  2  0  0  0  0
 21 23  1  0  0  0  0
 19 20  1  0  0  0  0
 17 18  2  0  0  0  0
 17 19  1  0  0  0  0
 14 15  1  0  0  0  0
 14 16  1  0  0  0  0
 14 17  1  0  0  0  0
 11 12  1  0  0  0  0
 11 13  1  0  0  0  0
 11 14  1  0  0  0  0
  9 10  1  0  0  0  0
  9 11  1  0  0  0  0
  9 21  1  0  0  0  0
  7  8  1  0  0  0  0
  7  9  1  0  0  0  0
 25 26  1  0  0  0  0
 25 27  1  0  0  0  0
 25 28  1  0  0  0  0
 23 24  1  0  0  0  0
 23 25  1  0  0  0  0
M  END
$$$$
default_name
  -OEChem-02102213163D

 28 27  0     1  0  0  0  0  0999 V2000
   -3.2133   -3.5565    1.2809 H   0  0  0  0  0  0  0  0  0  0  0  0
   -3.1873   -2.5755    0.8089 C   0  0  0  0  0  0  0  0  0  0  0  0
   -3.8793   -1.9065    1.3169 H   0  0  0  0  0  0  0  0  0  0  0  0
   -3.4623   -2.6685   -0.2401 H   0  0  0  0  0  0  0  0  0  0  0  0
   -1.7863   -2.0195    0.9119 C   0  0  0  0  0  0  0  0  0  0  0  0
   -0.9073   -2.6615    1.4699 O   0  0  0  0  0  0  0  0  0  0  0  0
   -1.5803   -0.8195    0.3749 N   0  0  0  0  0  0  0  0  0  0  0  0
   -2.3603   -0.3345   -0.0451 H   0  0  0  0  0  0  0  0  0  0  0  0
   -0.2933   -0.1205    0.3719 C   0  0  1  0  0  0  0  0  0  0  0  0
    0.4439   -0.7485   -0.1303 H   0  0  0  0  0  0  0  0  0  0  0  0
   -0.4368    1.1924   -0.4246 C   0  0  0  0  0  0  0  0  0  0  0  0
    0.4347    1.8144   -0.2131 H   0  0  0  0  0  0  0  0  0  0  0  0
   -0.4417    0.9671   -1.4920 H   0  0  0  0  0  0  0  0  0  0  0  0
   -1.7084    1.9902   -0.0878 C   0  0  0  0  0  0  0  0  0  0  0  0
   -1.7486    2.8970   -0.6915 H   0  0  0  0  0  0  0  0  0  0  0  0
   -2.5829    1.3781   -0.3051 H   0  0  0  0  0  0  0  0  0  0  0  0
   -1.7658    2.3931    1.3822 C   0  0  0  0  0  0  0  0  0  0  0  0
   -0.9794    2.0257    2.2403 O   0  0  0  0  0  0  0  0  0  0  0  0
   -2.7825    3.2075    1.7209 O   0  0  0  0  0  0  0  0  0  0  0  0
   -2.6847    3.3527    2.6636 H   0  0  0  0  0  0  0  0  0  0  0  0
    0.1871    0.1189    1.8122 C   0  0  0  0  0  0  0  0  0  0  0  0
    1.3541   -0.1171    2.1187 O   0  0  0  0  0  0  0  0  0  0  0  0
   -0.7126    0.5740    2.6926 N   0  0  0  0  0  0  0  0  0  0  0  0
   -1.6464    0.7663    2.3621 H   0  0  0  0  0  0  0  0  0  0  0  0
   -0.4191    0.8310    4.1010 C   0  0  0  0  0  0  0  0  0  0  0  0
    0.4022    1.5452    4.1828 H   0  0  0  0  0  0  0  0  0  0  0  0
   -1.2983    1.2366    4.6035 H   0  0  0  0  0  0  0  0  0  0  0  0
   -0.1204   -0.0980    4.5907 H   0  0  0  0  0  0  0  0  0  0  0  0
  5  6  2  0  0  0  0
  5  7  1  0  0  0  0
  2  3  1  0  0  0  0
  2  4  1  0  0  0  0
  2  5  1  0  0  0  0
  1  2  1  0  0  0  0
 21 22  2  0  0  0  0
 21 23  1  0  0  0  0
 19 20  1  0  0  0  0
 17 18  2  0  0  0  0
 17 19  1  0  0  0  0
 14 15  1  0  0  0  0
 14 16  1  0  0  0  0
 14 17  1  0  0  0  0
 11 12  1  0  0  0  0
 11 13  1  0  0  0  0
 11 14  1  0  0  0  0
  9 10  1  0  0  0  0
  9 11  1  0  0  0  0
  9 21  1  0  0  0  0
  7  8  1  0  0  0  0
  7  9  1  0  0  0  0
 25 26  1  0  0  0  0
 25 27  1  0  0  0  0
 25 28  1  0  0  0  0
 23 24  1  0  0  0  0
 23 25  1  0  0  0  0
M  END
$$$$
default_name
  -OEChem-02102213163D

 28 27  0     1  0  0  0  0  0999 V2000
   -3.2133   -3.5565    1.2809 H   0  0  0  0  0  0  0  0  0  0  0  0
   -3.1873   -2.5755    0.8089 C   0  0  0  0  0  0  0  0  0  0  0  0
   -3.8793   -1.9065    1.3169 H   0  0  0  0  0  0  0  0  0  0  0  0
   -3.4623   -2.6685   -0.2401 H   0  0  0  0  0  0  0  0  0  0  0  0
   -1.7863   -2.0195    0.9119 C   0  0  0  0  0  0  0  0  0  0  0  0
   -0.9073   -2.6615    1.4699 O   0  0  0  0  0  0  0  0  0  0  0  0
   -1.5803   -0.8195    0.3749 N   0  0  0  0  0  0  0  0  0  0  0  0
   -2.3603   -0.3345   -0.0451 H   0  0  0  0  0  0  0  0  0  0  0  0
   -0.2933   -0.1205    0.3719 C   0  0  1  0  0  0  0  0  0  0  0  0
    0.4439   -0.7485   -0.1303 H   0  0  0  0  0  0  0  0  0  0  0  0
   -0.4368    1.1924   -0.4246 C   0  0  0  0  0  0  0  0  0  0  0  0
    0.4347    1.8144   -0.2131 H   0  0  0  0  0  0  0  0  0  0  0  0
   -0.4417    0.9671   -1.4920 H   0  0  0  0  0  0  0  0  0  0  0  0
   -1.7084    1.9902   -0.0878 C   0  0  0  0  0  0  0  0  0  0  0  0
   -1.8901    2.7412   -0.8567 H   0  0  0  0  0  0  0  0  0  0  0  0
   -2.5577    1.3092   -0.0467 H   0  0  0  0  0  0  0  0  0  0  0  0
   -1.6057    2.7008    1.2579 C   0  0  0  0  0  0  0  0  0  0  0  0
   -0.6917    2.5625    2.0550 O   0  0  0  0  0  0  0  0  0  0  0  0
   -2.6261    3.5259    1.5573 O   0  0  0  0  0  0  0  0  0  0  0  0
   -2.4190    3.8769    2.4252 H   0  0  0  0  0  0  0  0  0  0  0  0
    0.1871    0.1189    1.8122 C   0  0  0  0  0  0  0  0  0  0  0  0
    1.3541   -0.1171    2.1187 O   0  0  0  0  0  0  0  0  0  0  0  0
   -0.7126    0.5740    2.6926 N   0  0  0  0  0  0  0  0  0  0  0  0
   -1.6464    0.7663    2.3621 H   0  0  0  0  0  0  0  0  0  0  0  0
   -0.4191    0.8310    4.1010 C   0  0  0  0  0  0  0  0  0  0  0  0
    0.4022    1.5452    4.1828 H   0  0  0  0  0  0  0  0  0  0  0  0
   -1.2983    1.2366    4.6035 H   0  0  0  0  0  0  0  0  0  0  0  0
   -0.1204   -0.0980    4.5907 H   0  0  0  0  0  0  0  0  0  0  0  0
  5  6  2  0  0  0  0
  5  7  1  0  0  0  0
  2  3  1  0  0  0  0
  2  4  1  0  0  0  0
  2  5  1  0  0  0  0
  1  2  1  0  0  0  0
 21 22  2  0  0  0  0
 21 23  1  0  0  0  0
 19 20  1  0  0  0  0
 17 18  2  0  0  0  0
 17 19  1  0  0  0  0
 14 15  1  0  0  0  0
 14 16  1  0  0  0  0
 14 17  1  0  0  0  0
 11 12  1  0  0  0  0
 11 13  1  0  0  0  0
 11 14  1  0  0  0  0
  9 10  1  0  0  0  0
  9 11  1  0  0  0  0
  9 21  1  0  0  0  0
  7  8  1  0  0  0  0
  7  9  1  0  0  0  0
 25 26  1  0  0  0  0
 25 27  1  0  0  0  0
 25 28  1  0  0  0  0
 23 24  1  0  0  0  0
 23 25  1  0  0  0  0
M  END
$$$$
default_name
  -OEChem-02102213163D

 28 27  0     1  0  0  0  0  0999 V2000
   -3.2133   -3.5565    1.2809 H   0  0  0  0  0  0  0  0  0  0  0  0
   -3.1873   -2.5755    0.8089 C   0  0  0  0  0  0  0  0  0  0  0  0
   -3.8793   -1.9065    1.3169 H   0  0  0  0  0  0  0  0  0  0  0  0
   -3.4623   -2.6685   -0.2401 H   0  0  0  0  0  0  0  0  0  0  0  0
   -1.7863   -2.0195    0.9119 C   0  0  0  0  0  0  0  0  0  0  0  0
   -0.9073   -2.6615    1.4699 O   0  0  0  0  0  0  0  0  0  0  0  0
   -1.5803   -0.8195    0.3749 N   0  0  0  0  0  0  0  0  0  0  0  0
   -2.3603   -0.3345   -0.0451 H   0  0  0  0  0  0  0  0  0  0  0  0
   -0.2933   -0.1205    0.3719 C   0  0  1  0  0  0  0  0  0  0  0  0
    0.4439   -0.7485   -0.1303 H   0  0  0  0  0  0  0  0  0  0  0  0
   -0.4368    1.1924   -0.4246 C   0  0  0  0  0  0  0  0  0  0  0  0
    0.4347    1.8144   -0.2131 H   0  0  0  0  0  0  0  0  0  0  0  0
   -0.4417    0.9671   -1.4920 H   0  0  0  0  0  0  0  0  0  0  0  0
   -1.7084    1.9902   -0.0878 C   0  0  0  0  0  0  0  0  0  0  0  0
   -2.0402    2.5474   -0.9640 H   0  0  0  0  0  0  0  0  0  0  0  0
   -2.4947    1.2994    0.2142 H   0  0  0  0  0  0  0  0  0  0  0  0
   -1.4851    2.9805    1.0506 C   0  0  0  0  0  0  0  0  0  0  0  0
   -0.4691    3.0577    1.7226 O   0  0  0  0  0  0  0  0  0  0  0  0
   -2.5150    3.8074    1.3102 O   0  0  0  0  0  0  0  0  0  0  0  0
   -2.2240    4.3473    2.0471 H   0  0  0  0  0  0  0  0  0  0  0  0
    0.1871    0.1189    1.8122 C   0  0  0  0  0  0  0  0  0  0  0  0
    1.3541   -0.1171    2.1187 O   0  0  0  0  0  0  0  0  0  0  0  0
   -0.7126    0.5740    2.6926 N   0  0  0  0  0  0  0  0  0  0  0  0
   -1.6464    0.7663    2.3621 H   0  0  0  0  0  0  0  0  0  0  0  0
   -0.4191    0.8310    4.1010 C   0  0  0  0  0  0  0  0  0  0  0  0
    0.4022    1.5452    4.1828 H   0  0  0  0  0  0  0  0  0  0  0  0
   -1.2983    1.2366    4.6035 H   0  0  0  0  0  0  0  0  0  0  0  0
   -0.1204   -0.0980    4.5907 H   0  0  0  0  0  0  0  0  0  0  0  0
  5  6  2  0  0  0  0
  5  7  1  0  0  0  0
  2  3  1  0  0  0  0
  2  4  1  0  0  0  0
  2  5  1  0  0  0  0
  1  2  1  0  0  0  0
 21 22  2  0  0  0  0
 21 23  1  0  0  0  0
 19 20  1  0  0  0  0
 17 18  2  0  0  0  0
 17 19  1  0  0  0  0
 14 15  1  0  0  0  0
 14 16  1  0  0  0  0
 14 17  1  0  0  0  0
 11 12  1  0  0  0  0
 11 13  1  0  0  0  0
 11 14  1  0  0  0  0
  9 10  1  0  0  0  0
  9 11  1  0  0  0  0
  9 21  1  0  0  0  0
  7  8  1  0  0  0  0
  7  9  1  0  0  0  0
 25 26  1  0  0  0  0
 25 27  1  0  0  0  0
 25 28  1  0  0  0  0
 23 24  1  0  0  0  0
 23 25  1  0  0  0  0
M  END
$$$$
default_name
  -OEChem-02102213163D

 28 27  0     1  0  0  0  0  0999 V2000
   -3.2133   -3.5565    1.2809 H   0  0  0  0  0  0  0  0  0  0  0  0
   -3.1873   -2.5755    0.8089 C   0  0  0  0  0  0  0  0  0  0  0  0
   -3.8793   -1.9065    1.3169 H   0  0  0  0  0  0  0  0  0  0  0  0
   -3.4623   -2.6685   -0.2401 H   0  0  0  0  0  0  0  0  0  0  0  0
   -1.7863   -2.0195    0.9119 C   0  0  0  0  0  0  0  0  0  0  0  0
   -0.9073   -2.6615    1.4699 O   0  0  0  0  0  0  0  0  0  0  0  0
   -1.5803   -0.8195    0.3749 N   0  0  0  0  0  0  0  0  0  0  0  0
   -2.3603   -0.3345   -0.0451 H   0  0  0  0  0  0  0  0  0  0  0  0
   -0.2933   -0.1205    0.3719 C   0  0  1  0  0  0  0  0  0  0  0  0
    0.4439   -0.7485   -0.1303 H   0  0  0  0  0  0  0  0  0  0  0  0
   -0.4368    1.1924   -0.4246 C   0  0  0  0  0  0  0  0  0  0  0  0
    0.4347    1.8144   -0.2131 H   0  0  0  0  0  0  0  0  0  0  0  0
   -0.4417    0.9671   -1.4920 H   0  0  0  0  0  0  0  0  0  0  0  0
   -1.7084    1.9902   -0.0878 C   0  0  0  0  0  0  0  0  0  0  0  0
   -2.1885    2.3287   -1.0060 H   0  0  0  0  0  0  0  0  0  0  0  0
   -2.3983    1.3493    0.4599 H   0  0  0  0  0  0  0  0  0  0  0  0
   -1.4123    3.2132    0.7743 C   0  0  0  0  0  0  0  0  0  0  0  0
   -0.3267    3.4775    1.2656 O   0  0  0  0  0  0  0  0  0  0  0  0
   -2.4568    4.0327    0.9964 O   0  0  0  0  0  0  0  0  0  0  0  0
   -2.1131    4.7319    1.5551 H   0  0  0  0  0  0  0  0  0  0  0  0
    0.1871    0.1189    1.8122 C   0  0  0  0  0  0  0  0  0  0  0  0
    1.3541   -0.1171    2.1187 O   0  0  0  0  0  0  0  0  0  0  0  0
   -0.7126    0.5740    2.6926 N   0  0  0  0  0  0  0  0  0  0  0  0
   -1.6464    0.7663    2.3621 H   0  0  0  0  0  0  0  0  0  0  0  0
   -0.4191    0.8310    4.1010 C   0  0  0  0  0  0  0  0  0  0  0  0
    0.4022    1.5452    4.1828 H   0  0  0  0  0  0  0  0  0  0  0  0
   -1.2983    1.2366    4.6035 H   0  0  0  0  0  0  0  0  0  0  0  0
   -0.1204   -0.0980    4.5907 H   0  0  0  0  0  0  0  0  0  0  0  0
  5  6  2  0  0  0  0
  5  7  1  0  0  0  0
  2  3  1  0  0  0  0
  2  4  1  0  0  0  0
  2  5  1  0  0  0  0
  1  2  1  0  0  0  0
 21 22  2  0  0  0  0
 21 23  1  0  0  0  0
 19 20  1  0  0  0  0
 17 18  2  0  0  0  0
 17 19  1  0  0  0  0
 14 15  1  0  0  0  0
 14 16  1  0  0  0  0
 14 17  1  0  0  0  0
 11 12  1  0  0  0  0
 11 13  1  0  0  0  0
 11 14  1  0  0  0  0
  9 10  1  0  0  0  0
  9 11  1  0  0  0  0
  9 21  1  0  0  0  0
  7  8  1  0  0  0  0
  7  9  1  0  0  0  0
 25 26  1  0  0  0  0
 25 27  1  0  0  0  0
 25 28  1  0  0  0  0
 23 24  1  0  0  0  0
 23 25  1  0  0  0  0
M  END
$$$$
default_name
  -OEChem-02102213163D

 28 27  0     1  0  0  0  0  0999 V2000
   -3.2133   -3.5565    1.2809 H   0  0  0  0  0  0  0  0  0  0  0  0
   -3.1873   -2.5755    0.8089 C   0  0  0  0  0  0  0  0  0  0  0  0
   -3.8793   -1.9065    1.3169 H   0  0  0  0  0  0  0  0  0  0  0  0
   -3.4623   -2.6685   -0.2401 H   0  0  0  0  0  0  0  0  0  0  0  0
   -1.7863   -2.0195    0.9119 C   0  0  0  0  0  0  0  0  0  0  0  0
   -0.9073   -2.6615    1.4699 O   0  0  0  0  0  0  0  0  0  0  0  0
   -1.5803   -0.8195    0.3749 N   0  0  0  0  0  0  0  0  0  0  0  0
   -2.3603   -0.3345   -0.0451 H   0  0  0  0  0  0  0  0  0  0  0  0
   -0.2933   -0.1205    0.3719 C   0  0  1  0  0  0  0  0  0  0  0  0
    0.4439   -0.7485   -0.1303 H   0  0  0  0  0  0  0  0  0  0  0  0
   -0.4368    1.1924   -0.4246 C   0  0  0  0  0  0  0  0  0  0  0  0
    0.4347    1.8144   -0.2131 H   0  0  0  0  0  0  0  0  0  0  0  0
   -0.4417    0.9671   -1.4920 H   0  0  0  0  0  0  0  0  0  0  0  0
   -1.7084    1.9902   -0.0878 C   0  0  0  0  0  0  0  0  0  0  0  0
   -2.3250    2.1001   -0.9800 H   0  0  0  0  0  0  0  0  0  0  0  0
   -2.2751    1.4556    0.6736 H   0  0  0  0  0  0  0  0  0  0  0  0
   -1.3923    3.3829    0.4479 C   0  0  0  0  0  0  0  0  0  0  0  0
   -0.2743    3.7934    0.7153 O   0  0  0  0  0  0  0  0  0  0  0  0
   -2.4554    4.1864    0.6372 O   0  0  0  0  0  0  0  0  0  0  0  0
   -2.0938    5.0044    0.9827 H   0  0  0  0  0  0  0  0  0  0  0  0
    0.1871    0.1189    1.8122 C   0  0  0  0  0  0  0  0  0  0  0  0
    1.3541   -0.1171    2.1187 O   0  0  0  0  0  0  0  0  0  0  0  0
   -0.7126    0.5740    2.6926 N   0  0  0  0  0  0  0  0  0  0  0  0
   -1.6464    0.7663    2.3621 H   0  0  0  0  0  0  0  0  0  0  0  0
   -0.4191    0.8310    4.1010 C   0  0  0  0  0  0  0  0  0  0  0  0
    0.4022    1.5452    4.1828 H   0  0  0  0  0  0  0  0  0  0  0  0
   -1.2983    1.2366    4.6035 H   0  0  0  0  0  0  0  0  0  0  0  0
   -0.1204   -0.0980    4.5907 H   0  0  0  0  0  0  0  0  0  0  0  0
  5  6  2  0  0  0  0
  5  7  1  0  0  0  0
  2  3  1  0  0  0  0
  2  4  1  0  0  0  0
  2  5  1  0  0  0  0
  1  2  1  0  0  0  0
 21 22  2  0  0  0  0
 21 23  1  0  0  0  0
 19 20  1  0  0  0  0
 17 18  2  0  0  0  0
 17 19  1  0  0  0  0
 14 15  1  0  0  0  0
 14 16  1  0  0  0  0
 14 17  1  0  0  0  0
 11 12  1  0  0  0  0
 11 13  1  0  0  0  0
 11 14  1  0  0  0  0
  9 10  1  0  0  0  0
  9 11  1  0  0  0  0
  9 21  1  0  0  0  0
  7  8  1  0  0  0  0
  7  9  1  0  0  0  0
 25 26  1  0  0  0  0
 25 27  1  0  0  0  0
 25 28  1  0  0  0  0
 23 24  1  0  0  0  0
 23 25  1  0  0  0  0
M  END
$$$$
default_name
  -OEChem-02102213163D

 28 27  0     1  0  0  0  0  0999 V2000
   -3.2133   -3.5565    1.2809 H   0  0  0  0  0  0  0  0  0  0  0  0
   -3.1873   -2.5755    0.8089 C   0  0  0  0  0  0  0  0  0  0  0  0
   -3.8793   -1.9065    1.3169 H   0  0  0  0  0  0  0  0  0  0  0  0
   -3.4623   -2.6685   -0.2401 H   0  0  0  0  0  0  0  0  0  0  0  0
   -1.7863   -2.0195    0.9119 C   0  0  0  0  0  0  0  0  0  0  0  0
   -0.9073   -2.6615    1.4699 O   0  0  0  0  0  0  0  0  0  0  0  0
   -1.5803   -0.8195    0.3749 N   0  0  0  0  0  0  0  0  0  0  0  0
   -2.3603   -0.3345   -0.0451 H   0  0  0  0  0  0  0  0  0  0  0  0
   -0.2933   -0.1205    0.3719 C   0  0  1  0  0  0  0  0  0  0  0  0
    0.4439   -0.7485   -0.1303 H   0  0  0  0  0  0  0  0  0  0  0  0
   -0.4368    1.1924   -0.4246 C   0  0  0  0  0  0  0  0  0  0  0  0
    0.4347    1.8144   -0.2131 H   0  0  0  0  0  0  0  0  0  0  0  0
   -0.4417    0.9671   -1.4920 H   0  0  0  0  0  0  0  0  0  0  0  0
   -1.7084    1.9902   -0.0878 C   0  0  0  0  0  0  0  0  0  0  0  0
   -2.4404    1.8771   -0.8876 H   0  0  0  0  0  0  0  0  0  0  0  0
   -2.1334    1.6109    0.8408 H   0  0  0  0  0  0  0  0  0  0  0  0
   -1.4264    3.4782    0.0936 C   0  0  0  0  0  0  0  0  0  0  0  0
   -0.3155    3.9837    0.1092 O   0  0  0  0  0  0  0  0  0  0  0  0
   -2.5111    4.2582    0.2572 O   0  0  0  0  0  0  0  0  0  0  0  0
   -2.1673    5.1462    0.3690 H   0  0  0  0  0  0  0  0  0  0  0  0
    0.1871    0.1189    1.8122 C   0  0  0  0  0  0  0  0  0  0  0  0
    1.3541   -0.1171    2.1187 O   0  0  0  0  0  0  0  0  0  0  0  0
   -0.7126    0.5740    2.6926 N   0  0  0  0  0  0  0  0  0  0  0  0
   -1.6464    0.7663    2.3621 H   0  0  0  0  0  0  0  0  0  0  0  0
   -0.4191    0.8310    4.1010 C   0  0  0  0  0  0  0  0  0  0  0  0
    0.4022    1.5452    4.1828 H   0  0  0  0  0  0  0  0  0  0  0  0
   -1.2983    1.2366    4.6035 H   0  0  0  0  0  0  0  0  0  0  0  0
   -0.1204   -0.0980    4.5907 H   0  0  0  0  0  0  0  0  0  0  0  0
  5  6  2  0  0  0  0
  5  7  1  0  0  0  0
  2  3  1  0  0  0  0
  2  4  1  0  0  0  0
  2  5  1  0  0  0  0
  1  2  1  0  0  0  0
 21 22  2  0  0  0  0
 21 23  1  0  0  0  0
 19 20  1  0  0  0  0
 17 18  2  0  0  0  0
 17 19  1  0  0  0  0
 14 15  1  0  0  0  0
 14 16  1  0  0  0  0
 14 17  1  0  0  0  0
 11 12  1  0  0  0  0
 11 13  1  0  0  0  0
 11 14  1  0  0  0  0
  9 10  1  0  0  0  0
  9 11  1  0  0  0  0
  9 21  1  0  0  0  0
  7  8  1  0  0  0  0
  7  9  1  0  0  0  0
 25 26  1  0  0  0  0
 25 27  1  0  0  0  0
 25 28  1  0  0  0  0
 23 24  1  0  0  0  0
 23 25  1  0  0  0  0
M  END
$$$$
default_name
  -OEChem-02102213163D

 28 27  0     1  0  0  0  0  0999 V2000
   -3.2133   -3.5565    1.2809 H   0  0  0  0  0  0  0  0  0  0  0  0
   -3.1873   -2.5755    0.8089 C   0  0  0  0  0  0  0  0  0  0  0  0
   -3.8793   -1.9065    1.3169 H   0  0  0  0  0  0  0  0  0  0  0  0
   -3.4623   -2.6685   -0.2401 H   0  0  0  0  0  0  0  0  0  0  0  0
   -1.7863   -2.0195    0.9119 C   0  0  0  0  0  0  0  0  0  0  0  0
   -0.9073   -2.6615    1.4699 O   0  0  0  0  0  0  0  0  0  0  0  0
   -1.5803   -0.8195    0.3749 N   0  0  0  0  0  0  0  0  0  0  0  0
   -2.3603   -0.3345   -0.0451 H   0  0  0  0  0  0  0  0  0  0  0  0
   -0.2933   -0.1205    0.3719 C   0  0  1  0  0  0  0  0  0  0  0  0
    0.4439   -0.7485   -0.1303 H   0  0  0  0  0  0  0  0  0  0  0  0
   -0.4368    1.1924   -0.4246 C   0  0  0  0  0  0  0  0  0  0  0  0
    0.4347    1.8144   -0.2131 H   0  0  0  0  0  0  0  0  0  0  0  0
   -0.4417    0.9671   -1.4920 H   0  0  0  0  0  0  0  0  0  0  0  0
   -1.7084    1.9902   -0.0878 C   0  0  0  0  0  0  0  0  0  0  0  0
   -2.5268    1.6750   -0.7351 H   0  0  0  0  0  0  0  0  0  0  0  0
   -1.9828    1.8047    0.9500 H   0  0  0  0  0  0  0  0  0  0  0  0
   -1.5123    3.4925   -0.2644 C   0  0  0  0  0  0  0  0  0  0  0  0
   -0.4474    4.0355   -0.5114 O   0  0  0  0  0  0  0  0  0  0  0  0
   -2.6199    4.2431   -0.1177 O   0  0  0  0  0  0  0  0  0  0  0  0
   -2.3288    5.1478   -0.2444 H   0  0  0  0  0  0  0  0  0  0  0  0
    0.1871    0.1189    1.8122 C   0  0  0  0  0  0  0  0  0  0  0  0
    1.3541   -0.1171    2.1187 O   0  0  0  0  0  0  0  0  0  0  0  0
   -0.7126    0.5740    2.6926 N   0  0  0  0  0  0  0  0  0  0  0  0
   -1.6464    0.7663    2.3621 H   0  0  0  0  0  0  0  0  0  0  0  0
   -0.4191    0.8310    4.1010 C   0  0  0  0  0  0  0  0  0  0  0  0
    0.4022    1.5452    4.1828 H   0  0  0  0  0  0  0  0  0  0  0  0
   -1.2983    1.2366    4.6035 H   0  0  0  0  0  0  0  0  0  0  0  0
   -0.1204   -0.0980    4.5907 H   0  0  0  0  0  0  0  0  0  0  0  0
  5  6  2  0  0  0  0
  5  7  1  0  0  0  0
  2  3  1  0  0  0  0
  2  4  1  0  0  0  0
  2  5  1  0  0  0  0
  1  2  1  0  0  0  0
 21 22  2  0  0  0  0
 21 23  1  0  0  0  0
 19 20  1  0  0  0  0
 17 18  2  0  0  0  0
 17 19  1  0  0  0  0
 14 15  1  0  0  0  0
 14 16  1  0  0  0  0
 14 17  1  0  0  0  0
 11 12  1  0  0  0  0
 11 13  1  0  0  0  0
 11 14  1  0  0  0  0
  9 10  1  0  0  0  0
  9 11  1  0  0  0  0
  9 21  1  0  0  0  0
  7  8  1  0  0  0  0
  7  9  1  0  0  0  0
 25 26  1  0  0  0  0
 25 27  1  0  0  0  0
 25 28  1  0  0  0  0
 23 24  1  0  0  0  0
 23 25  1  0  0  0  0
M  END
$$$$
default_name
  -OEChem-02102213163D

 28 27  0     1  0  0  0  0  0999 V2000
   -3.2133   -3.5565    1.2809 H   0  0  0  0  0  0  0  0  0  0  0  0
   -3.1873   -2.5755    0.8089 C   0  0  0  0  0  0  0  0  0  0  0  0
   -3.8793   -1.9065    1.3169 H   0  0  0  0  0  0  0  0  0  0  0  0
   -3.4623   -2.6685   -0.2401 H   0  0  0  0  0  0  0  0  0  0  0  0
   -1.7863   -2.0195    0.9119 C   0  0  0  0  0  0  0  0  0  0  0  0
   -0.9073   -2.6615    1.4699 O   0  0  0  0  0  0  0  0  0  0  0  0
   -1.5803   -0.8195    0.3749 N   0  0  0  0  0  0  0  0  0  0  0  0
   -2.3603   -0.3345   -0.0451 H   0  0  0  0  0  0  0  0  0  0  0  0
   -0.2933   -0.1205    0.3719 C   0  0  1  0  0  0  0  0  0  0  0  0
    0.4439   -0.7485   -0.1303 H   0  0  0  0  0  0  0  0  0  0  0  0
   -0.4368    1.1924   -0.4246 C   0  0  0  0  0  0  0  0  0  0  0  0
    0.4347    1.8144   -0.2131 H   0  0  0  0  0  0  0  0  0  0  0  0
   -0.4417    0.9671   -1.4920 H   0  0  0  0  0  0  0  0  0  0  0  0
   -1.7084    1.9902   -0.0878 C   0  0  0  0  0  0  0  0  0  0  0  0
   -2.5784    1.5074   -0.5330 H   0  0  0  0  0  0  0  0  0  0  0  0
   -1.8338    2.0238    0.9938 H   0  0  0  0  0  0  0  0  0  0  0  0
   -1.6441    3.4248   -0.6018 C   0  0  0  0  0  0  0  0  0  0  0  0
   -0.6610    3.9453   -1.1043 O   0  0  0  0  0  0  0  0  0  0  0  0
   -2.7744    4.1421   -0.4620 O   0  0  0  0  0  0  0  0  0  0  0  0
   -2.5672    5.0089   -0.8155 H   0  0  0  0  0  0  0  0  0  0  0  0
    0.1871    0.1189    1.8122 C   0  0  0  0  0  0  0  0  0  0  0  0
    1.3541   -0.1171    2.1187 O   0  0  0  0  0  0  0  0  0  0  0  0
   -0.7126    0.5740    2.6926 N   0  0  0  0  0  0  0  0  0  0  0  0
   -1.6464    0.7663    2.3621 H   0  0  0  0  0  0  0  0  0  0  0  0
   -0.4191    0.8310    4.1010 C   0  0  0  0  0  0  0  0  0  0  0  0
    0.4022    1.5452    4.1828 H   0  0  0  0  0  0  0  0  0  0  0  0
   -1.2983    1.2366    4.6035 H   0  0  0  0  0  0  0  0  0  0  0  0
   -0.1204   -0.0980    4.5907 H   0  0  0  0  0  0  0  0  0  0  0  0
  5  6  2  0  0  0  0
  5  7  1  0  0  0  0
  2  3  1  0  0  0  0
  2  4  1  0  0  0  0
  2  5  1  0  0  0  0
  1  2  1  0  0  0  0
 21 22  2  0  0  0  0
 21 23  1  0  0  0  0
 19 20  1  0  0  0  0
 17 18  2  0  0  0  0
 17 19  1  0  0  0  0
 14 15  1  0  0  0  0
 14 16  1  0  0  0  0
 14 17  1  0  0  0  0
 11 12  1  0  0  0  0
 11 13  1  0  0  0  0
 11 14  1  0  0  0  0
  9 10  1  0  0  0  0
  9 11  1  0  0  0  0
  9 21  1  0  0  0  0
  7  8  1  0  0  0  0
  7  9  1  0  0  0  0
 25 26  1  0  0  0  0
 25 27  1  0  0  0  0
 25 28  1  0  0  0  0
 23 24  1  0  0  0  0
 23 25  1  0  0  0  0
M  END
$$$$
default_name
  -OEChem-02102213163D

 28 27  0     1  0  0  0  0  0999 V2000
   -3.2133   -3.5565    1.2809 H   0  0  0  0  0  0  0  0  0  0  0  0
   -3.1873   -2.5755    0.8089 C   0  0  0  0  0  0  0  0  0  0  0  0
   -3.8793   -1.9065    1.3169 H   0  0  0  0  0  0  0  0  0  0  0  0
   -3.4623   -2.6685   -0.2401 H   0  0  0  0  0  0  0  0  0  0  0  0
   -1.7863   -2.0195    0.9119 C   0  0  0  0  0  0  0  0  0  0  0  0
   -0.9073   -2.6615    1.4699 O   0  0  0  0  0  0  0  0  0  0  0  0
   -1.5803   -0.8195    0.3749 N   0  0  0  0  0  0  0  0  0  0  0  0
   -2.3603   -0.3345   -0.0451 H   0  0  0  0  0  0  0  0  0  0  0  0
   -0.2933   -0.1205    0.3719 C   0  0  1  0  0  0  0  0  0  0  0  0
    0.4439   -0.7485   -0.1303 H   0  0  0  0  0  0  0  0  0  0  0  0
   -0.4368    1.1924   -0.4246 C   0  0  0  0  0  0  0  0  0  0  0  0
    0.5337    1.6916   -0.4332 H   0  0  0  0  0  0  0  0  0  0  0  0
   -0.7079    0.9601   -1.4555 H   0  0  0  0  0  0  0  0  0  0  0  0
   -1.4862    2.1592    0.1507 C   0  0  0  0  0  0  0  0  0  0  0  0
   -2.4647    1.6791    0.1654 H   0  0  0  0  0  0  0  0  0  0  0  0
   -1.2055    2.4277    1.1685 H   0  0  0  0  0  0  0  0  0  0  0  0
   -1.5975    3.4436   -0.6644 C   0  0  0  0  0  0  0  0  0  0  0  0
   -0.8612    3.7535   -1.5872 O   0  0  0  0  0  0  0  0  0  0  0  0
   -2.5888    4.2778   -0.2995 O   0  0  0  0  0  0  0  0  0  0  0  0
   -2.5152    5.0291   -0.8906 H   0  0  0  0  0  0  0  0  0  0  0  0
    0.1871    0.1189    1.8122 C   0  0  0  0  0  0  0  0  0  0  0  0
    1.3541   -0.1171    2.1187 O   0  0  0  0  0  0  0  0  0  0  0  0
   -0.7126    0.5740    2.6926 N   0  0  0  0  0  0  0  0  0  0  0  0
   -1.6464    0.7663    2.3621 H   0  0  0  0  0  0  0  0  0  0  0  0
   -0.4191    0.8310    4.1010 C   0  0  0  0  0  0  0  0  0  0  0  0
    0.4022    1.5452    4.1828 H   0  0  0  0  0  0  0  0  0  0  0  0
   -1.2983    1.2366    4.6035 H   0  0  0  0  0  0  0  0  0  0  0  0
   -0.1204   -0.0980    4.5907 H   0  0  0  0  0  0  0  0  0  0  0  0
  5  6  2  0  0  0  0
  5  7  1  0  0  0  0
  2  3  1  0  0  0  0
  2  4  1  0  0  0  0
  2  5  1  0  0  0  0
  1  2  1  0  0  0  0
 21 22  2  0  0  0  0
 21 23  1  0  0  0  0
 19 20  1  0  0  0  0
 17 18  2  0  0  0  0
 17 19  1  0  0  0  0
 14 15  1  0  0  0  0
 14 16  1  0  0  0  0
 14 17  1  0  0  0  0
 11 12  1  0  0  0  0
 11 13  1  0  0  0  0
 11 14  1  0  0  0  0
  9 10  1  0  0  0  0
  9 11  1  0  0  0  0
  9 21  1  0  0  0  0
  7  8  1  0  0  0  0
  7  9  1  0  0  0  0
 25 26  1  0  0  0  0
 25 27  1  0  0  0  0
 25 28  1  0  0  0  0
 23 24  1  0  0  0  0
 23 25  1  0  0  0  0
M  END
$$$$
default_name
  -OEChem-02102213163D

 28 27  0     1  0  0  0  0  0999 V2000
   -3.2133   -3.5565    1.2809 H   0  0  0  0  0  0  0  0  0  0  0  0
   -3.1873   -2.5755    0.8089 C   0  0  0  0  0  0  0  0  0  0  0  0
   -3.8793   -1.9065    1.3169 H   0  0  0  0  0  0  0  0  0  0  0  0
   -3.4623   -2.6685   -0.2401 H   0  0  0  0  0  0  0  0  0  0  0  0
   -1.7863   -2.0195    0.9119 C   0  0  0  0  0  0  0  0  0  0  0  0
   -0.9073   -2.6615    1.4699 O   0  0  0  0  0  0  0  0  0  0  0  0
   -1.5803   -0.8195    0.3749 N   0  0  0  0  0  0  0  0  0  0  0  0
   -2.3603   -0.3345   -0.0451 H   0  0  0  0  0  0  0  0  0  0  0  0
   -0.2933   -0.1205    0.3719 C   0  0  1  0  0  0  0  0  0  0  0  0
    0.4439   -0.7485   -0.1303 H   0  0  0  0  0  0  0  0  0  0  0  0
   -0.4368    1.1924   -0.4246 C   0  0  0  0  0  0  0  0  0  0  0  0
    0.5337    1.6916   -0.4332 H   0  0  0  0  0  0  0  0  0  0  0  0
   -0.7079    0.9601   -1.4555 H   0  0  0  0  0  0  0  0  0  0  0  0
   -1.4862    2.1592    0.1507 C   0  0  0  0  0  0  0  0  0  0  0  0
   -2.3911    1.6113    0.4136 H   0  0  0  0  0  0  0  0  0  0  0  0
   -1.0838    2.6331    1.0453 H   0  0  0  0  0  0  0  0  0  0  0  0
   -1.8640    3.2576   -0.8379 C   0  0  0  0  0  0  0  0  0  0  0  0
   -1.3177    3.4512   -1.9121 O   0  0  0  0  0  0  0  0  0  0  0  0
   -2.8740    4.0604   -0.4545 O   0  0  0  0  0  0  0  0  0  0  0  0
   -2.9764    4.6932   -1.1675 H   0  0  0  0  0  0  0  0  0  0  0  0
    0.1871    0.1189    1.8122 C   0  0  0  0  0  0  0  0  0  0  0  0
    1.3541   -0.1171    2.1187 O   0  0  0  0  0  0  0  0  0  0  0  0
   -0.7126    0.5740    2.6926 N   0  0  0  0  0  0  0  0  0  0  0  0
   -1.6464    0.7663    2.3621 H   0  0  0  0  0  0  0  0  0  0  0  0
   -0.4191    0.8310    4.1010 C   0  0  0  0  0  0  0  0  0  0  0  0
    0.4022    1.5452    4.1828 H   0  0  0  0  0  0  0  0  0  0  0  0
   -1.2983    1.2366    4.6035 H   0  0  0  0  0  0  0  0  0  0  0  0
   -0.1204   -0.0980    4.5907 H   0  0  0  0  0  0  0  0  0  0  0  0
  5  6  2  0  0  0  0
  5  7  1  0  0  0  0
  2  3  1  0  0  0  0
  2  4  1  0  0  0  0
  2  5  1  0  0  0  0
  1  2  1  0  0  0  0
 21 22  2  0  0  0  0
 21 23  1  0  0  0  0
 19 20  1  0  0  0  0
 17 18  2  0  0  0  0
 17 19  1  0  0  0  0
 14 15  1  0  0  0  0
 14 16  1  0  0  0  0
 14 17  1  0  0  0  0
 11 12  1  0  0  0  0
 11 13  1  0  0  0  0
 11 14  1  0  0  0  0
  9 10  1  0  0  0  0
  9 11  1  0  0  0  0
  9 21  1  0  0  0  0
  7  8  1  0  0  0  0
  7  9  1  0  0  0  0
 25 26  1  0  0  0  0
 25 27  1  0  0  0  0
 25 28  1  0  0  0  0
 23 24  1  0  0  0  0
 23 25  1  0  0  0  0
M  END
$$$$
default_name
  -OEChem-02102213163D

 28 27  0     1  0  0  0  0  0999 V2000
   -3.2133   -3.5565    1.2809 H   0  0  0  0  0  0  0  0  0  0  0  0
   -3.1873   -2.5755    0.8089 C   0  0  0  0  0  0  0  0  0  0  0  0
   -3.8793   -1.9065    1.3169 H   0  0  0  0  0  0  0  0  0  0  0  0
   -3.4623   -2.6685   -0.2401 H   0  0  0  0  0  0  0  0  0  0  0  0
   -1.7863   -2.0195    0.9119 C   0  0  0  0  0  0  0  0  0  0  0  0
   -0.9073   -2.6615    1.4699 O   0  0  0  0  0  0  0  0  0  0  0  0
   -1.5803   -0.8195    0.3749 N   0  0  0  0  0  0  0  0  0  0  0  0
   -2.3603   -0.3345   -0.0451 H   0  0  0  0  0  0  0  0  0  0  0  0
   -0.2933   -0.1205    0.3719 C   0  0  1  0  0  0  0  0  0  0  0  0
    0.4439   -0.7485   -0.1303 H   0  0  0  0  0  0  0  0  0  0  0  0
   -0.4368    1.1924   -0.4246 C   0  0  0  0  0  0  0  0  0  0  0  0
    0.5337    1.6916   -0.4332 H   0  0  0  0  0  0  0  0  0  0  0  0
   -0.7079    0.9601   -1.4555 H   0  0  0  0  0  0  0  0  0  0  0  0
   -1.4862    2.1592    0.1507 C   0  0  0  0  0  0  0  0  0  0  0  0
   -2.2732    1.5967    0.6533 H   0  0  0  0  0  0  0  0  0  0  0  0
   -1.0062    2.8215    0.8703 H   0  0  0  0  0  0  0  0  0  0  0  0
   -2.1317    3.0214   -0.9293 C   0  0  0  0  0  0  0  0  0  0  0  0
   -1.7822    3.0578   -2.0982 O   0  0  0  0  0  0  0  0  0  0  0  0
   -3.1537    3.7955   -0.5194 O   0  0  0  0  0  0  0  0  0  0  0  0
   -3.4345    4.2752   -1.3006 H   0  0  0  0  0  0  0  0  0  0  0  0
    0.1871    0.1189    1.8122 C   0  0  0  0  0  0  0  0  0  0  0  0
    1.3541   -0.1171    2.1187 O   0  0  0  0  0  0  0  0  0  0  0  0
   -0.7126    0.5740    2.6926 N   0  0  0  0  0  0  0  0  0  0  0  0
   -1.6464    0.7663    2.3621 H   0  0  0  0  0  0  0  0  0  0  0  0
   -0.4191    0.8310    4.1010 C   0  0  0  0  0  0  0  0  0  0  0  0
    0.4022    1.5452    4.1828 H   0  0  0  0  0  0  0  0  0  0  0  0
   -1.2983    1.2366    4.6035 H   0  0  0  0  0  0  0  0  0  0  0  0
   -0.1204   -0.0980    4.5907 H   0  0  0  0  0  0  0  0  0  0  0  0
  5  6  2  0  0  0  0
  5  7  1  0  0  0  0
  2  3  1  0  0  0  0
  2  4  1  0  0  0  0
  2  5  1  0  0  0  0
  1  2  1  0  0  0  0
 21 22  2  0  0  0  0
 21 23  1  0  0  0  0
 19 20  1  0  0  0  0
 17 18  2  0  0  0  0
 17 19  1  0  0  0  0
 14 15  1  0  0  0  0
 14 16  1  0  0  0  0
 14 17  1  0  0  0  0
 11 12  1  0  0  0  0
 11 13  1  0  0  0  0
 11 14  1  0  0  0  0
  9 10  1  0  0  0  0
  9 11  1  0  0  0  0
  9 21  1  0  0  0  0
  7  8  1  0  0  0  0
  7  9  1  0  0  0  0
 25 26  1  0  0  0  0
 25 27  1  0  0  0  0
 25 28  1  0  0  0  0
 23 24  1  0  0  0  0
 23 25  1  0  0  0  0
M  END
$$$$
default_name
  -OEChem-02102213163D

 28 27  0     1  0  0  0  0  0999 V2000
   -3.2133   -3.5565    1.2809 H   0  0  0  0  0  0  0  0  0  0  0  0
   -3.1873   -2.5755    0.8089 C   0  0  0  0  0  0  0  0  0  0  0  0
   -3.8793   -1.9065    1.3169 H   0  0  0  0  0  0  0  0  0  0  0  0
   -3.4623   -2.6685   -0.2401 H   0  0  0  0  0  0  0  0  0  0  0  0
   -1.7863   -2.0195    0.9119 C   0  0  0  0  0  0  0  0  0  0  0  0
   -0.9073   -2.6615    1.4699 O   0  0  0  0  0  0  0  0  0  0  0  0
   -1.5803   -0.8195    0.3749 N   0  0  0  0  0  0  0  0  0  0  0  0
   -2.3603   -0.3345   -0.0451 H   0  0  0  0  0  0  0  0  0  0  0  0
   -0.2933   -0.1205    0.3719 C   0  0  1  0  0  0  0  0  0  0  0  0
    0.4439   -0.7485   -0.1303 H   0  0  0  0  0  0  0  0  0  0  0  0
   -0.4368    1.1924   -0.4246 C   0  0  0  0  0  0  0  0  0  0  0  0
    0.5337    1.6916   -0.4332 H   0  0  0  0  0  0  0  0  0  0  0  0
   -0.7079    0.9601   -1.4555 H   0  0  0  0  0  0  0  0  0  0  0  0
   -1.4862    2.1592    0.1507 C   0  0  0  0  0  0  0  0  0  0  0  0
   -2.1188    1.6364    0.8682 H   0  0  0  0  0  0  0  0  0  0  0  0
   -0.9780    2.9801    0.6553 H   0  0  0  0  0  0  0  0  0  0  0  0
   -2.3822    2.7513   -0.9324 C   0  0  0  0  0  0  0  0  0  0  0  0
   -2.2232    2.5999   -2.1330 O   0  0  0  0  0  0  0  0  0  0  0  0
   -3.4087    3.5010   -0.4898 O   0  0  0  0  0  0  0  0  0  0  0  0
   -3.8581    3.8036   -1.2809 H   0  0  0  0  0  0  0  0  0  0  0  0
    0.1871    0.1189    1.8122 C   0  0  0  0  0  0  0  0  0  0  0  0
    1.3541   -0.1171    2.1187 O   0  0  0  0  0  0  0  0  0  0  0  0
   -0.7126    0.5740    2.6926 N   0  0  0  0  0  0  0  0  0  0  0  0
   -1.6464    0.7663    2.3621 H   0  0  0  0  0  0  0  0  0  0  0  0
   -0.4191    0.8310    4.1010 C   0  0  0  0  0  0  0  0  0  0  0  0
    0.4022    1.5452    4.1828 H   0  0  0  0  0  0  0  0  0  0  0  0
   -1.2983    1.2366    4.6035 H   0  0  0  0  0  0  0  0  0  0  0  0
   -0.1204   -0.0980    4.5907 H   0  0  0  0  0  0  0  0  0  0  0  0
  5  6  2  0  0  0  0
  5  7  1  0  0  0  0
  2  3  1  0  0  0  0
  2  4  1  0  0  0  0
  2  5  1  0  0  0  0
  1  2  1  0  0  0  0
 21 22  2  0  0  0  0
 21 23  1  0  0  0  0
 19 20  1  0  0  0  0
 17 18  2  0  0  0  0
 17 19  1  0  0  0  0
 14 15  1  0  0  0  0
 14 16  1  0  0  0  0
 14 17  1  0  0  0  0
 11 12  1  0  0  0  0
 11 13  1  0  0  0  0
 11 14  1  0  0  0  0
  9 10  1  0  0  0  0
  9 11  1  0  0  0  0
  9 21  1  0  0  0  0
  7  8  1  0  0  0  0
  7  9  1  0  0  0  0
 25 26  1  0  0  0  0
 25 27  1  0  0  0  0
 25 28  1  0  0  0  0
 23 24  1  0  0  0  0
 23 25  1  0  0  0  0
M  END
$$$$
default_name
  -OEChem-02102213163D

 28 27  0     1  0  0  0  0  0999 V2000
   -3.2133   -3.5565    1.2809 H   0  0  0  0  0  0  0  0  0  0  0  0
   -3.1873   -2.5755    0.8089 C   0  0  0  0  0  0  0  0  0  0  0  0
   -3.8793   -1.9065    1.3169 H   0  0  0  0  0  0  0  0  0  0  0  0
   -3.4623   -2.6685   -0.2401 H   0  0  0  0  0  0  0  0  0  0  0  0
   -1.7863   -2.0195    0.9119 C   0  0  0  0  0  0  0  0  0  0  0  0
   -0.9073   -2.6615    1.4699 O   0  0  0  0  0  0  0  0  0  0  0  0
   -1.5803   -0.8195    0.3749 N   0  0  0  0  0  0  0  0  0  0  0  0
   -2.3603   -0.3345   -0.0451 H   0  0  0  0  0  0  0  0  0  0  0  0
   -0.2933   -0.1205    0.3719 C   0  0  1  0  0  0  0  0  0  0  0  0
    0.4439   -0.7485   -0.1303 H   0  0  0  0  0  0  0  0  0  0  0  0
   -0.4368    1.1924   -0.4246 C   0  0  0  0  0  0  0  0  0  0  0  0
    0.5337    1.6916   -0.4332 H   0  0  0  0  0  0  0  0  0  0  0  0
   -0.7079    0.9601   -1.4555 H   0  0  0  0  0  0  0  0  0  0  0  0
   -1.4862    2.1592    0.1507 C   0  0  0  0  0  0  0  0  0  0  0  0
   -1.9386    1.7276    1.0436 H   0  0  0  0  0  0  0  0  0  0  0  0
   -1.0010    3.0980    0.4151 H   0  0  0  0  0  0  0  0  0  0  0  0
   -2.5986    2.4656   -0.8469 C   0  0  0  0  0  0  0  0  0  0  0  0
   -2.6104    2.1087   -2.0141 O   0  0  0  0  0  0  0  0  0  0  0  0
   -3.6218    3.1971   -0.3678 O   0  0  0  0  0  0  0  0  0  0  0  0
   -4.2185    3.3106   -1.1097 H   0  0  0  0  0  0  0  0  0  0  0  0
    0.1871    0.1189    1.8122 C   0  0  0  0  0  0  0  0  0  0  0  0
    1.3541   -0.1171    2.1187 O   0  0  0  0  0  0  0  0  0  0  0  0
   -0.7126    0.5740    2.6926 N   0  0  0  0  0  0  0  0  0  0  0  0
   -1.6464    0.7663    2.3621 H   0  0  0  0  0  0  0  0  0  0  0  0
   -0.4191    0.8310    4.1010 C   0  0  0  0  0  0  0  0  0  0  0  0
    0.4022    1.5452    4.1828 H   0  0  0  0  0  0  0  0  0  0  0  0
   -1.2983    1.2366    4.6035 H   0  0  0  0  0  0  0  0  0  0  0  0
   -0.1204   -0.0980    4.5907 H   0  0  0  0  0  0  0  0  0  0  0  0
  5  6  2  0  0  0  0
  5  7  1  0  0  0  0
  2  3  1  0  0  0  0
  2  4  1  0  0  0  0
  2  5  1  0  0  0  0
  1  2  1  0  0  0  0
 21 22  2  0  0  0  0
 21 23  1  0  0  0  0
 19 20  1  0  0  0  0
 17 18  2  0  0  0  0
 17 19  1  0  0  0  0
 14 15  1  0  0  0  0
 14 16  1  0  0  0  0
 14 17  1  0  0  0  0
 11 12  1  0  0  0  0
 11 13  1  0  0  0  0
 11 14  1  0  0  0  0
  9 10  1  0  0  0  0
  9 11  1  0  0  0  0
  9 21  1  0  0  0  0
  7  8  1  0  0  0  0
  7  9  1  0  0  0  0
 25 26  1  0  0  0  0
 25 27  1  0  0  0  0
 25 28  1  0  0  0  0
 23 24  1  0  0  0  0
 23 25  1  0  0  0  0
M  END
$$$$
default_name
  -OEChem-02102213163D

 28 27  0     1  0  0  0  0  0999 V2000
   -3.2133   -3.5565    1.2809 H   0  0  0  0  0  0  0  0  0  0  0  0
   -3.1873   -2.5755    0.8089 C   0  0  0  0  0  0  0  0  0  0  0  0
   -3.8793   -1.9065    1.3169 H   0  0  0  0  0  0  0  0  0  0  0  0
   -3.4623   -2.6685   -0.2401 H   0  0  0  0  0  0  0  0  0  0  0  0
   -1.7863   -2.0195    0.9119 C   0  0  0  0  0  0  0  0  0  0  0  0
   -0.9073   -2.6615    1.4699 O   0  0  0  0  0  0  0  0  0  0  0  0
   -1.5803   -0.8195    0.3749 N   0  0  0  0  0  0  0  0  0  0  0  0
   -2.3603   -0.3345   -0.0451 H   0  0  0  0  0  0  0  0  0  0  0  0
   -0.2933   -0.1205    0.3719 C   0  0  1  0  0  0  0  0  0  0  0  0
    0.4439   -0.7485   -0.1303 H   0  0  0  0  0  0  0  0  0  0  0  0
   -0.4368    1.1924   -0.4246 C   0  0  0  0  0  0  0  0  0  0  0  0
    0.5337    1.6916   -0.4332 H   0  0  0  0  0  0  0  0  0  0  0  0
   -0.7079    0.9601   -1.4555 H   0  0  0  0  0  0  0  0  0  0  0  0
   -1.4862    2.1592    0.1507 C   0  0  0  0  0  0  0  0  0  0  0  0
   -1.7448    1.8641    1.1677 H   0  0  0  0  0  0  0  0  0  0  0  0
   -1.0737    3.1674    0.1660 H   0  0  0  0  0  0  0  0  0  0  0  0
   -2.7660    2.1837   -0.6787 C   0  0  0  0  0  0  0  0  0  0  0  0
   -2.9175    1.6179   -1.7495 O   0  0  0  0  0  0  0  0  0  0  0  0
   -3.7783    2.9045   -0.1617 O   0  0  0  0  0  0  0  0  0  0  0  0
   -4.4910    2.8297   -0.7987 H   0  0  0  0  0  0  0  0  0  0  0  0
    0.1871    0.1189    1.8122 C   0  0  0  0  0  0  0  0  0  0  0  0
    1.3541   -0.1171    2.1187 O   0  0  0  0  0  0  0  0  0  0  0  0
   -0.7126    0.5740    2.6926 N   0  0  0  0  0  0  0  0  0  0  0  0
   -1.6464    0.7663    2.3621 H   0  0  0  0  0  0  0  0  0  0  0  0
   -0.4191    0.8310    4.1010 C   0  0  0  0  0  0  0  0  0  0  0  0
    0.4022    1.5452    4.1828 H   0  0  0  0  0  0  0  0  0  0  0  0
   -1.2983    1.2366    4.6035 H   0  0  0  0  0  0  0  0  0  0  0  0
   -0.1204   -0.0980    4.5907 H   0  0  0  0  0  0  0  0  0  0  0  0
  5  6  2  0  0  0  0
  5  7  1  0  0  0  0
  2  3  1  0  0  0  0
  2  4  1  0  0  0  0
  2  5  1  0  0  0  0
  1  2  1  0  0  0  0
 21 22  2  0  0  0  0
 21 23  1  0  0  0  0
 19 20  1  0  0  0  0
 17 18  2  0  0  0  0
 17 19  1  0  0  0  0
 14 15  1  0  0  0  0
 14 16  1  0  0  0  0
 14 17  1  0  0  0  0
 11 12  1  0  0  0  0
 11 13  1  0  0  0  0
 11 14  1  0  0  0  0
  9 10  1  0  0  0  0
  9 11  1  0  0  0  0
  9 21  1  0  0  0  0
  7  8  1  0  0  0  0
  7  9  1  0  0  0  0
 25 26  1  0  0  0  0
 25 27  1  0  0  0  0
 25 28  1  0  0  0  0
 23 24  1  0  0  0  0
 23 25  1  0  0  0  0
M  END
$$$$
default_name
  -OEChem-02102213163D

 28 27  0     1  0  0  0  0  0999 V2000
   -3.2133   -3.5565    1.2809 H   0  0  0  0  0  0  0  0  0  0  0  0
   -3.1873   -2.5755    0.8089 C   0  0  0  0  0  0  0  0  0  0  0  0
   -3.8793   -1.9065    1.3169 H   0  0  0  0  0  0  0  0  0  0  0  0
   -3.4623   -2.6685   -0.2401 H   0  0  0  0  0  0  0  0  0  0  0  0
   -1.7863   -2.0195    0.9119 C   0  0  0  0  0  0  0  0  0  0  0  0
   -0.9073   -2.6615    1.4699 O   0  0  0  0  0  0  0  0  0  0  0  0
   -1.5803   -0.8195    0.3749 N   0  0  0  0  0  0  0  0  0  0  0  0
   -2.3603   -0.3345   -0.0451 H   0  0  0  0  0  0  0  0  0  0  0  0
   -0.2933   -0.1205    0.3719 C   0  0  1  0  0  0  0  0  0  0  0  0
    0.4439   -0.7485   -0.1303 H   0  0  0  0  0  0  0  0  0  0  0  0
   -0.4368    1.1924   -0.4246 C   0  0  0  0  0  0  0  0  0  0  0  0
    0.5337    1.6916   -0.4332 H   0  0  0  0  0  0  0  0  0  0  0  0
   -0.7079    0.9601   -1.4555 H   0  0  0  0  0  0  0  0  0  0  0  0
   -1.4862    2.1592    0.1507 C   0  0  0  0  0  0  0  0  0  0  0  0
   -1.5506    2.0366    1.2320 H   0  0  0  0  0  0  0  0  0  0  0  0
   -1.1912    3.1833   -0.0750 H   0  0  0  0  0  0  0  0  0  0  0  0
   -2.8731    1.9250   -0.4393 C   0  0  0  0  0  0  0  0  0  0  0  0
   -3.1237    1.1607   -1.3574 O   0  0  0  0  0  0  0  0  0  0  0  0
   -3.8677    2.6431    0.1146 O   0  0  0  0  0  0  0  0  0  0  0  0
   -4.6571    2.3937   -0.3690 H   0  0  0  0  0  0  0  0  0  0  0  0
    0.1871    0.1189    1.8122 C   0  0  0  0  0  0  0  0  0  0  0  0
    1.3541   -0.1171    2.1187 O   0  0  0  0  0  0  0  0  0  0  0  0
   -0.7126    0.5740    2.6926 N   0  0  0  0  0  0  0  0  0  0  0  0
   -1.6464    0.7663    2.3621 H   0  0  0  0  0  0  0  0  0  0  0  0
   -0.4191    0.8310    4.1010 C   0  0  0  0  0  0  0  0  0  0  0  0
    0.4022    1.5452    4.1828 H   0  0  0  0  0  0  0  0  0  0  0  0
   -1.2983    1.2366    4.6035 H   0  0  0  0  0  0  0  0  0  0  0  0
   -0.1204   -0.0980    4.5907 H   0  0  0  0  0  0  0  0  0  0  0  0
  5  6  2  0  0  0  0
  5  7  1  0  0  0  0
  2  3  1  0  0  0  0
  2  4  1  0  0  0  0
  2  5  1  0  0  0  0
  1  2  1  0  0  0  0
 21 22  2  0  0  0  0
 21 23  1  0  0  0  0
 19 20  1  0  0  0  0
 17 18  2  0  0  0  0
 17 19  1  0  0  0  0
 14 15  1  0  0  0  0
 14 16  1  0  0  0  0
 14 17  1  0  0  0  0
 11 12  1  0  0  0  0
 11 13  1  0  0  0  0
 11 14  1  0  0  0  0
  9 10  1  0  0  0  0
  9 11  1  0  0  0  0
  9 21  1  0  0  0  0
  7  8  1  0  0  0  0
  7  9  1  0  0  0  0
 25 26  1  0  0  0  0
 25 27  1  0  0  0  0
 25 28  1  0  0  0  0
 23 24  1  0  0  0  0
 23 25  1  0  0  0  0
M  END
$$$$
default_name
  -OEChem-02102213163D

 28 27  0     1  0  0  0  0  0999 V2000
   -3.2133   -3.5565    1.2809 H   0  0  0  0  0  0  0  0  0  0  0  0
   -3.1873   -2.5755    0.8089 C   0  0  0  0  0  0  0  0  0  0  0  0
   -3.8793   -1.9065    1.3169 H   0  0  0  0  0  0  0  0  0  0  0  0
   -3.4623   -2.6685   -0.2401 H   0  0  0  0  0  0  0  0  0  0  0  0
   -1.7863   -2.0195    0.9119 C   0  0  0  0  0  0  0  0  0  0  0  0
   -0.9073   -2.6615    1.4699 O   0  0  0  0  0  0  0  0  0  0  0  0
   -1.5803   -0.8195    0.3749 N   0  0  0  0  0  0  0  0  0  0  0  0
   -2.3603   -0.3345   -0.0451 H   0  0  0  0  0  0  0  0  0  0  0  0
   -0.2933   -0.1205    0.3719 C   0  0  1  0  0  0  0  0  0  0  0  0
    0.4439   -0.7485   -0.1303 H   0  0  0  0  0  0  0  0  0  0  0  0
   -0.4368    1.1924   -0.4246 C   0  0  0  0  0  0  0  0  0  0  0  0
    0.5337    1.6916   -0.4332 H   0  0  0  0  0  0  0  0  0  0  0  0
   -0.7079    0.9601   -1.4555 H   0  0  0  0  0  0  0  0  0  0  0  0
   -1.4862    2.1592    0.1507 C   0  0  0  0  0  0  0  0  0  0  0  0
   -1.3694    2.2334    1.2320 H   0  0  0  0  0  0  0  0  0  0  0  0
   -1.3454    3.1448   -0.2915 H   0  0  0  0  0  0  0  0  0  0  0  0
   -2.9126    1.7069   -0.1449 C   0  0  0  0  0  0  0  0  0  0  0  0
   -3.2148    0.7684   -0.8643 O   0  0  0  0  0  0  0  0  0  0  0  0
   -3.8837    2.4308    0.4421 O   0  0  0  0  0  0  0  0  0  0  0  0
   -4.7054    2.0323    0.1500 H   0  0  0  0  0  0  0  0  0  0  0  0
    0.1871    0.1189    1.8122 C   0  0  0  0  0  0  0  0  0  0  0  0
    1.3541   -0.1171    2.1187 O   0  0  0  0  0  0  0  0  0  0  0  0
   -0.7126    0.5740    2.6926 N   0  0  0  0  0  0  0  0  0  0  0  0
   -1.6464    0.7663    2.3621 H   0  0  0  0  0  0  0  0  0  0  0  0
   -0.4191    0.8310    4.1010 C   0  0  0  0  0  0  0  0  0  0  0  0
    0.4022    1.5452    4.1828 H   0  0  0  0  0  0  0  0  0  0  0  0
   -1.2983    1.2366    4.6035 H   0  0  0  0  0  0  0  0  0  0  0  0
   -0.1204   -0.0980    4.5907 H   0  0  0  0  0  0  0  0  0  0  0  0
  5  6  2  0  0  0  0
  5  7  1  0  0  0  0
  2  3  1  0  0  0  0
  2  4  1  0  0  0  0
  2  5  1  0  0  0  0
  1  2  1  0  0  0  0
 21 22  2  0  0  0  0
 21 23  1  0  0  0  0
 19 20  1  0  0  0  0
 17 18  2  0  0  0  0
 17 19  1  0  0  0  0
 14 15  1  0  0  0  0
 14 16  1  0  0  0  0
 14 17  1  0  0  0  0
 11 12  1  0  0  0  0
 11 13  1  0  0  0  0
 11 14  1  0  0  0  0
  9 10  1  0  0  0  0
  9 11  1  0  0  0  0
  9 21  1  0  0  0  0
  7  8  1  0  0  0  0
  7  9  1  0  0  0  0
 25 26  1  0  0  0  0
 25 27  1  0  0  0  0
 25 28  1  0  0  0  0
 23 24  1  0  0  0  0
 23 25  1  0  0  0  0
M  END
$$$$
default_name
  -OEChem-02102213163D

 28 27  0     1  0  0  0  0  0999 V2000
   -3.2133   -3.5565    1.2809 H   0  0  0  0  0  0  0  0  0  0  0  0
   -3.1873   -2.5755    0.8089 C   0  0  0  0  0  0  0  0  0  0  0  0
   -3.8793   -1.9065    1.3169 H   0  0  0  0  0  0  0  0  0  0  0  0
   -3.4623   -2.6685   -0.2401 H   0  0  0  0  0  0  0  0  0  0  0  0
   -1.7863   -2.0195    0.9119 C   0  0  0  0  0  0  0  0  0  0  0  0
   -0.9073   -2.6615    1.4699 O   0  0  0  0  0  0  0  0  0  0  0  0
   -1.5803   -0.8195    0.3749 N   0  0  0  0  0  0  0  0  0  0  0  0
   -2.3603   -0.3345   -0.0451 H   0  0  0  0  0  0  0  0  0  0  0  0
   -0.2933   -0.1205    0.3719 C   0  0  1  0  0  0  0  0  0  0  0  0
    0.4439   -0.7485   -0.1303 H   0  0  0  0  0  0  0  0  0  0  0  0
   -0.4368    1.1924   -0.4246 C   0  0  0  0  0  0  0  0  0  0  0  0
    0.5337    1.6916   -0.4332 H   0  0  0  0  0  0  0  0  0  0  0  0
   -0.7079    0.9601   -1.4555 H   0  0  0  0  0  0  0  0  0  0  0  0
   -1.4862    2.1592    0.1507 C   0  0  0  0  0  0  0  0  0  0  0  0
   -1.2133    2.4410    1.1678 H   0  0  0  0  0  0  0  0  0  0  0  0
   -1.5258    3.0544   -0.4688 H   0  0  0  0  0  0  0  0  0  0  0  0
   -2.8817    1.5445    0.1844 C   0  0  0  0  0  0  0  0  0  0  0  0
   -3.1846    0.4677   -0.3040 O   0  0  0  0  0  0  0  0  0  0  0  0
   -3.8255    2.2819    0.7986 O   0  0  0  0  0  0  0  0  0  0  0  0
   -4.6328    1.7702    0.7229 H   0  0  0  0  0  0  0  0  0  0  0  0
    0.1871    0.1189    1.8122 C   0  0  0  0  0  0  0  0  0  0  0  0
    1.3541   -0.1171    2.1187 O   0  0  0  0  0  0  0  0  0  0  0  0
   -0.7126    0.5740    2.6926 N   0  0  0  0  0  0  0  0  0  0  0  0
   -1.6464    0.7663    2.3621 H   0  0  0  0  0  0  0  0  0  0  0  0
   -0.4191    0.8310    4.1010 C   0  0  0  0  0  0  0  0  0  0  0  0
    0.4022    1.5452    4.1828 H   0  0  0  0  0  0  0  0  0  0  0  0
   -1.2983    1.2366    4.6035 H   0  0  0  0  0  0  0  0  0  0  0  0
   -0.1204   -0.0980    4.5907 H   0  0  0  0  0  0  0  0  0  0  0  0
  5  6  2  0  0  0  0
  5  7  1  0  0  0  0
  2  3  1  0  0  0  0
  2  4  1  0  0  0  0
  2  5  1  0  0  0  0
  1  2  1  0  0  0  0
 21 22  2  0  0  0  0
 21 23  1  0  0  0  0
 19 20  1  0  0  0  0
 17 18  2  0  0  0  0
 17 19  1  0  0  0  0
 14 15  1  0  0  0  0
 14 16  1  0  0  0  0
 14 17  1  0  0  0  0
 11 12  1  0  0  0  0
 11 13  1  0  0  0  0
 11 14  1  0  0  0  0
  9 10  1  0  0  0  0
  9 11  1  0  0  0  0
  9 21  1  0  0  0  0
  7  8  1  0  0  0  0
  7  9  1  0  0  0  0
 25 26  1  0  0  0  0
 25 27  1  0  0  0  0
 25 28  1  0  0  0  0
 23 24  1  0  0  0  0
 23 25  1  0  0  0  0
M  END
$$$$
default_name
  -OEChem-02102213163D

 28 27  0     1  0  0  0  0  0999 V2000
   -3.2133   -3.5565    1.2809 H   0  0  0  0  0  0  0  0  0  0  0  0
   -3.1873   -2.5755    0.8089 C   0  0  0  0  0  0  0  0  0  0  0  0
   -3.8793   -1.9065    1.3169 H   0  0  0  0  0  0  0  0  0  0  0  0
   -3.4623   -2.6685   -0.2401 H   0  0  0  0  0  0  0  0  0  0  0  0
   -1.7863   -2.0195    0.9119 C   0  0  0  0  0  0  0  0  0  0  0  0
   -0.9073   -2.6615    1.4699 O   0  0  0  0  0  0  0  0  0  0  0  0
   -1.5803   -0.8195    0.3749 N   0  0  0  0  0  0  0  0  0  0  0  0
   -2.3603   -0.3345   -0.0451 H   0  0  0  0  0  0  0  0  0  0  0  0
   -0.2933   -0.1205    0.3719 C   0  0  1  0  0  0  0  0  0  0  0  0
    0.4439   -0.7485   -0.1303 H   0  0  0  0  0  0  0  0  0  0  0  0
   -0.4368    1.1924   -0.4246 C   0  0  0  0  0  0  0  0  0  0  0  0
    0.5337    1.6916   -0.4332 H   0  0  0  0  0  0  0  0  0  0  0  0
   -0.7079    0.9601   -1.4555 H   0  0  0  0  0  0  0  0  0  0  0  0
   -1.4862    2.1592    0.1507 C   0  0  0  0  0  0  0  0  0  0  0  0
   -1.0931    2.6453    1.0437 H   0  0  0  0  0  0  0  0  0  0  0  0
   -1.7202    2.9183   -0.5947 H   0  0  0  0  0  0  0  0  0  0  0  0
   -2.7826    1.4487    0.5261 C   0  0  0  0  0  0  0  0  0  0  0  0
   -3.0353    0.2790    0.2854 O   0  0  0  0  0  0  0  0  0  0  0  0
   -3.6968    2.2067    1.1597 O   0  0  0  0  0  0  0  0  0  0  0  0
   -4.4440    1.6252    1.3108 H   0  0  0  0  0  0  0  0  0  0  0  0
    0.1871    0.1189    1.8122 C   0  0  0  0  0  0  0  0  0  0  0  0
    1.3541   -0.1171    2.1187 O   0  0  0  0  0  0  0  0  0  0  0  0
   -0.7126    0.5740    2.6926 N   0  0  0  0  0  0  0  0  0  0  0  0
   -1.6464    0.7663    2.3621 H   0  0  0  0  0  0  0  0  0  0  0  0
   -0.4191    0.8310    4.1010 C   0  0  0  0  0  0  0  0  0  0  0  0
    0.4022    1.5452    4.1828 H   0  0  0  0  0  0  0  0  0  0  0  0
   -1.2983    1.2366    4.6035 H   0  0  0  0  0  0  0  0  0  0  0  0
   -0.1204   -0.0980    4.5907 H   0  0  0  0  0  0  0  0  0  0  0  0
  5  6  2  0  0  0  0
  5  7  1  0  0  0  0
  2  3  1  0  0  0  0
  2  4  1  0  0  0  0
  2  5  1  0  0  0  0
  1  2  1  0  0  0  0
 21 22  2  0  0  0  0
 21 23  1  0  0  0  0
 19 20  1  0  0  0  0
 17 18  2  0  0  0  0
 17 19  1  0  0  0  0
 14 15  1  0  0  0  0
 14 16  1  0  0  0  0
 14 17  1  0  0  0  0
 11 12  1  0  0  0  0
 11 13  1  0  0  0  0
 11 14  1  0  0  0  0
  9 10  1  0  0  0  0
  9 11  1  0  0  0  0
  9 21  1  0  0  0  0
  7  8  1  0  0  0  0
  7  9  1  0  0  0  0
 25 26  1  0  0  0  0
 25 27  1  0  0  0  0
 25 28  1  0  0  0  0
 23 24  1  0  0  0  0
 23 25  1  0  0  0  0
M  END
$$$$
default_name
  -OEChem-02102213163D

 28 27  0     1  0  0  0  0  0999 V2000
   -3.2133   -3.5565    1.2809 H   0  0  0  0  0  0  0  0  0  0  0  0
   -3.1873   -2.5755    0.8089 C   0  0  0  0  0  0  0  0  0  0  0  0
   -3.8793   -1.9065    1.3169 H   0  0  0  0  0  0  0  0  0  0  0  0
   -3.4623   -2.6685   -0.2401 H   0  0  0  0  0  0  0  0  0  0  0  0
   -1.7863   -2.0195    0.9119 C   0  0  0  0  0  0  0  0  0  0  0  0
   -0.9073   -2.6615    1.4699 O   0  0  0  0  0  0  0  0  0  0  0  0
   -1.5803   -0.8195    0.3749 N   0  0  0  0  0  0  0  0  0  0  0  0
   -2.3603   -0.3345   -0.0451 H   0  0  0  0  0  0  0  0  0  0  0  0
   -0.2933   -0.1205    0.3719 C   0  0  1  0  0  0  0  0  0  0  0  0
    0.4439   -0.7485   -0.1303 H   0  0  0  0  0  0  0  0  0  0  0  0
   -0.4368    1.1924   -0.4246 C   0  0  0  0  0  0  0  0  0  0  0  0
    0.5337    1.6916   -0.4332 H   0  0  0  0  0  0  0  0  0  0  0  0
   -0.7079    0.9601   -1.4555 H   0  0  0  0  0  0  0  0  0  0  0  0
   -1.4862    2.1592    0.1507 C   0  0  0  0  0  0  0  0  0  0  0  0
   -1.0169    2.8324    0.8683 H   0  0  0  0  0  0  0  0  0  0  0  0
   -1.9152    2.7459   -0.6607 H   0  0  0  0  0  0  0  0  0  0  0  0
   -2.6220    1.4261    0.8570 C   0  0  0  0  0  0  0  0  0  0  0  0
   -2.7769    0.2153    0.8637 O   0  0  0  0  0  0  0  0  0  0  0  0
   -3.5064    2.2102    1.5009 O   0  0  0  0  0  0  0  0  0  0  0  0
   -4.1520    1.6073    1.8736 H   0  0  0  0  0  0  0  0  0  0  0  0
    0.1871    0.1189    1.8122 C   0  0  0  0  0  0  0  0  0  0  0  0
    1.3541   -0.1171    2.1187 O   0  0  0  0  0  0  0  0  0  0  0  0
   -0.7126    0.5740    2.6926 N   0  0  0  0  0  0  0  0  0  0  0  0
   -1.6464    0.7663    2.3621 H   0  0  0  0  0  0  0  0  0  0  0  0
   -0.4191    0.8310    4.1010 C   0  0  0  0  0  0  0  0  0  0  0  0
    0.4022    1.5452    4.1828 H   0  0  0  0  0  0  0  0  0  0  0  0
   -1.2983    1.2366    4.6035 H   0  0  0  0  0  0  0  0  0  0  0  0
   -0.1204   -0.0980    4.5907 H   0  0  0  0  0  0  0  0  0  0  0  0
  5  6  2  0  0  0  0
  5  7  1  0  0  0  0
  2  3  1  0  0  0  0
  2  4  1  0  0  0  0
  2  5  1  0  0  0  0
  1  2  1  0  0  0  0
 21 22  2  0  0  0  0
 21 23  1  0  0  0  0
 19 20  1  0  0  0  0
 17 18  2  0  0  0  0
 17 19  1  0  0  0  0
 14 15  1  0  0  0  0
 14 16  1  0  0  0  0
 14 17  1  0  0  0  0
 11 12  1  0  0  0  0
 11 13  1  0  0  0  0
 11 14  1  0  0  0  0
  9 10  1  0  0  0  0
  9 11  1  0  0  0  0
  9 21  1  0  0  0  0
  7  8  1  0  0  0  0
  7  9  1  0  0  0  0
 25 26  1  0  0  0  0
 25 27  1  0  0  0  0
 25 28  1  0  0  0  0
 23 24  1  0  0  0  0
 23 25  1  0  0  0  0
M  END
$$$$
default_name
  -OEChem-02102213163D

 28 27  0     1  0  0  0  0  0999 V2000
   -3.2133   -3.5565    1.2809 H   0  0  0  0  0  0  0  0  0  0  0  0
   -3.1873   -2.5755    0.8089 C   0  0  0  0  0  0  0  0  0  0  0  0
   -3.8793   -1.9065    1.3169 H   0  0  0  0  0  0  0  0  0  0  0  0
   -3.4623   -2.6685   -0.2401 H   0  0  0  0  0  0  0  0  0  0  0  0
   -1.7863   -2.0195    0.9119 C   0  0  0  0  0  0  0  0  0  0  0  0
   -0.9073   -2.6615    1.4699 O   0  0  0  0  0  0  0  0  0  0  0  0
   -1.5803   -0.8195    0.3749 N   0  0  0  0  0  0  0  0  0  0  0  0
   -2.3603   -0.3345   -0.0451 H   0  0  0  0  0  0  0  0  0  0  0  0
   -0.2933   -0.1205    0.3719 C   0  0  1  0  0  0  0  0  0  0  0  0
    0.4439   -0.7485   -0.1303 H   0  0  0  0  0  0  0  0  0  0  0  0
   -0.4368    1.1924   -0.4246 C   0  0  0  0  0  0  0  0  0  0  0  0
    0.5337    1.6916   -0.4332 H   0  0  0  0  0  0  0  0  0  0  0  0
   -0.7079    0.9601   -1.4555 H   0  0  0  0  0  0  0  0  0  0  0  0
   -1.4862    2.1592    0.1507 C   0  0  0  0  0  0  0  0  0  0  0  0
   -0.9900    2.9895    0.6534 H   0  0  0  0  0  0  0  0  0  0  0  0
   -2.0977    2.5488   -0.6623 H   0  0  0  0  0  0  0  0  0  0  0  0
   -2.4109    1.4782    1.1545 C   0  0  0  0  0  0  0  0  0  0  0  0
   -2.4270    0.2809    1.3916 O   0  0  0  0  0  0  0  0  0  0  0  0
   -3.2675    2.2923    1.7988 O   0  0  0  0  0  0  0  0  0  0  0  0
   -3.7768    1.7175    2.3729 H   0  0  0  0  0  0  0  0  0  0  0  0
    0.1871    0.1189    1.8122 C   0  0  0  0  0  0  0  0  0  0  0  0
    1.3541   -0.1171    2.1187 O   0  0  0  0  0  0  0  0  0  0  0  0
   -0.7126    0.5740    2.6926 N   0  0  0  0  0  0  0  0  0  0  0  0
   -1.6464    0.7663    2.3621 H   0  0  0  0  0  0  0  0  0  0  0  0
   -0.4191    0.8310    4.1010 C   0  0  0  0  0  0  0  0  0  0  0  0
    0.4022    1.5452    4.1828 H   0  0  0  0  0  0  0  0  0  0  0  0
   -1.2983    1.2366    4.6035 H   0  0  0  0  0  0  0  0  0  0  0  0
   -0.1204   -0.0980    4.5907 H   0  0  0  0  0  0  0  0  0  0  0  0
  5  6  2  0  0  0  0
  5  7  1  0  0  0  0
  2  3  1  0  0  0  0
  2  4  1  0  0  0  0
  2  5  1  0  0  0  0
  1  2  1  0  0  0  0
 21 22  2  0  0  0  0
 21 23  1  0  0  0  0
 19 20  1  0  0  0  0
 17 18  2  0  0  0  0
 17 19  1  0  0  0  0
 14 15  1  0  0  0  0
 14 16  1  0  0  0  0
 14 17  1  0  0  0  0
 11 12  1  0  0  0  0
 11 13  1  0  0  0  0
 11 14  1  0  0  0  0
  9 10  1  0  0  0  0
  9 11  1  0  0  0  0
  9 21  1  0  0  0  0
  7  8  1  0  0  0  0
  7  9  1  0  0  0  0
 25 26  1  0  0  0  0
 25 27  1  0  0  0  0
 25 28  1  0  0  0  0
 23 24  1  0  0  0  0
 23 25  1  0  0  0  0
M  END
$$$$
default_name
  -OEChem-02102213163D

 28 27  0     1  0  0  0  0  0999 V2000
   -3.2133   -3.5565    1.2809 H   0  0  0  0  0  0  0  0  0  0  0  0
   -3.1873   -2.5755    0.8089 C   0  0  0  0  0  0  0  0  0  0  0  0
   -3.8793   -1.9065    1.3169 H   0  0  0  0  0  0  0  0  0  0  0  0
   -3.4623   -2.6685   -0.2401 H   0  0  0  0  0  0  0  0  0  0  0  0
   -1.7863   -2.0195    0.9119 C   0  0  0  0  0  0  0  0  0  0  0  0
   -0.9073   -2.6615    1.4699 O   0  0  0  0  0  0  0  0  0  0  0  0
   -1.5803   -0.8195    0.3749 N   0  0  0  0  0  0  0  0  0  0  0  0
   -2.3603   -0.3345   -0.0451 H   0  0  0  0  0  0  0  0  0  0  0  0
   -0.2933   -0.1205    0.3719 C   0  0  1  0  0  0  0  0  0  0  0  0
    0.4439   -0.7485   -0.1303 H   0  0  0  0  0  0  0  0  0  0  0  0
   -0.4368    1.1924   -0.4246 C   0  0  0  0  0  0  0  0  0  0  0  0
    0.5337    1.6916   -0.4332 H   0  0  0  0  0  0  0  0  0  0  0  0
   -0.7079    0.9601   -1.4555 H   0  0  0  0  0  0  0  0  0  0  0  0
   -1.4862    2.1592    0.1507 C   0  0  0  0  0  0  0  0  0  0  0  0
   -1.0142    3.1059    0.4137 H   0  0  0  0  0  0  0  0  0  0  0  0
   -2.2551    2.3404   -0.5994 H   0  0  0  0  0  0  0  0  0  0  0  0
   -2.1637    1.6014    1.3983 C   0  0  0  0  0  0  0  0  0  0  0  0
   -2.0096    0.4713    1.8330 O   0  0  0  0  0  0  0  0  0  0  0  0
   -2.9961    2.4473    2.0333 O   0  0  0  0  0  0  0  0  0  0  0  0
   -3.3437    1.9485    2.7746 H   0  0  0  0  0  0  0  0  0  0  0  0
    0.1871    0.1189    1.8122 C   0  0  0  0  0  0  0  0  0  0  0  0
    1.3541   -0.1171    2.1187 O   0  0  0  0  0  0  0  0  0  0  0  0
   -0.7126    0.5740    2.6926 N   0  0  0  0  0  0  0  0  0  0  0  0
   -1.6464    0.7663    2.3621 H   0  0  0  0  0  0  0  0  0  0  0  0
   -0.4191    0.8310    4.1010 C   0  0  0  0  0  0  0  0  0  0  0  0
    0.4022    1.5452    4.1828 H   0  0  0  0  0  0  0  0  0  0  0  0
   -1.2983    1.2366    4.6035 H   0  0  0  0  0  0  0  0  0  0  0  0
   -0.1204   -0.0980    4.5907 H   0  0  0  0  0  0  0  0  0  0  0  0
  5  6  2  0  0  0  0
  5  7  1  0  0  0  0
  2  3  1  0  0  0  0
  2  4  1  0  0  0  0
  2  5  1  0  0  0  0
  1  2  1  0  0  0  0
 21 22  2  0  0  0  0
 21 23  1  0  0  0  0
 19 20  1  0  0  0  0
 17 18  2  0  0  0  0
 17 19  1  0  0  0  0
 14 15  1  0  0  0  0
 14 16  1  0  0  0  0
 14 17  1  0  0  0  0
 11 12  1  0  0  0  0
 11 13  1  0  0  0  0
 11 14  1  0  0  0  0
  9 10  1  0  0  0  0
  9 11  1  0  0  0  0
  9 21  1  0  0  0  0
  7  8  1  0  0  0  0
  7  9  1  0  0  0  0
 25 26  1  0  0  0  0
 25 27  1  0  0  0  0
 25 28  1  0  0  0  0
 23 24  1  0  0  0  0
 23 25  1  0  0  0  0
M  END
$$$$
default_name
  -OEChem-02102213163D

 28 27  0     1  0  0  0  0  0999 V2000
   -3.2133   -3.5565    1.2809 H   0  0  0  0  0  0  0  0  0  0  0  0
   -3.1873   -2.5755    0.8089 C   0  0  0  0  0  0  0  0  0  0  0  0
   -3.8793   -1.9065    1.3169 H   0  0  0  0  0  0  0  0  0  0  0  0
   -3.4623   -2.6685   -0.2401 H   0  0  0  0  0  0  0  0  0  0  0  0
   -1.7863   -2.0195    0.9119 C   0  0  0  0  0  0  0  0  0  0  0  0
   -0.9073   -2.6615    1.4699 O   0  0  0  0  0  0  0  0  0  0  0  0
   -1.5803   -0.8195    0.3749 N   0  0  0  0  0  0  0  0  0  0  0  0
   -2.3603   -0.3345   -0.0451 H   0  0  0  0  0  0  0  0  0  0  0  0
   -0.2933   -0.1205    0.3719 C   0  0  1  0  0  0  0  0  0  0  0  0
    0.4439   -0.7485   -0.1303 H   0  0  0  0  0  0  0  0  0  0  0  0
   -0.4368    1.1924   -0.4246 C   0  0  0  0  0  0  0  0  0  0  0  0
    0.5337    1.6916   -0.4332 H   0  0  0  0  0  0  0  0  0  0  0  0
   -0.7079    0.9601   -1.4555 H   0  0  0  0  0  0  0  0  0  0  0  0
   -1.4862    2.1592    0.1507 C   0  0  0  0  0  0  0  0  0  0  0  0
   -1.0878    3.1737    0.1656 H   0  0  0  0  0  0  0  0  0  0  0  0
   -2.3768    2.1351   -0.4762 H   0  0  0  0  0  0  0  0  0  0  0  0
   -1.8972    1.7875    1.5718 C   0  0  0  0  0  0  0  0  0  0  0  0
   -1.5531    0.7736    2.1578 O   0  0  0  0  0  0  0  0  0  0  0  0
   -2.7109    2.6647    2.1882 O   0  0  0  0  0  0  0  0  0  0  0  0
   -2.8825    2.2844    3.0515 H   0  0  0  0  0  0  0  0  0  0  0  0
    0.1871    0.1189    1.8122 C   0  0  0  0  0  0  0  0  0  0  0  0
    1.3541   -0.1171    2.1187 O   0  0  0  0  0  0  0  0  0  0  0  0
   -0.7126    0.5740    2.6926 N   0  0  0  0  0  0  0  0  0  0  0  0
   -1.6464    0.7663    2.3621 H   0  0  0  0  0  0  0  0  0  0  0  0
   -0.4191    0.8310    4.1010 C   0  0  0  0  0  0  0  0  0  0  0  0
    0.4022    1.5452    4.1828 H   0  0  0  0  0  0  0  0  0  0  0  0
   -1.2983    1.2366    4.6035 H   0  0  0  0  0  0  0  0  0  0  0  0
   -0.1204   -0.0980    4.5907 H   0  0  0  0  0  0  0  0  0  0  0  0
  5  6  2  0  0  0  0
  5  7  1  0  0  0  0
  2  3  1  0  0  0  0
  2  4  1  0  0  0  0
  2  5  1  0  0  0  0
  1  2  1  0  0  0  0
 21 22  2  0  0  0  0
 21 23  1  0  0  0  0
 19 20  1  0  0  0  0
 17 18  2  0  0  0  0
 17 19  1  0  0  0  0
 14 15  1  0  0  0  0
 14 16  1  0  0  0  0
 14 17  1  0  0  0  0
 11 12  1  0  0  0  0
 11 13  1  0  0  0  0
 11 14  1  0  0  0  0
  9 10  1  0  0  0  0
  9 11  1  0  0  0  0
  9 21  1  0  0  0  0
  7  8  1  0  0  0  0
  7  9  1  0  0  0  0
 25 26  1  0  0  0  0
 25 27  1  0  0  0  0
 25 28  1  0  0  0  0
 23 24  1  0  0  0  0
 23 25  1  0  0  0  0
M  END
$$$$
default_name
  -OEChem-02102213163D

 28 27  0     1  0  0  0  0  0999 V2000
   -3.2133   -3.5565    1.2809 H   0  0  0  0  0  0  0  0  0  0  0  0
   -3.1873   -2.5755    0.8089 C   0  0  0  0  0  0  0  0  0  0  0  0
   -3.8793   -1.9065    1.3169 H   0  0  0  0  0  0  0  0  0  0  0  0
   -3.4623   -2.6685   -0.2401 H   0  0  0  0  0  0  0  0  0  0  0  0
   -1.7863   -2.0195    0.9119 C   0  0  0  0  0  0  0  0  0  0  0  0
   -0.9073   -2.6615    1.4699 O   0  0  0  0  0  0  0  0  0  0  0  0
   -1.5803   -0.8195    0.3749 N   0  0  0  0  0  0  0  0  0  0  0  0
   -2.3603   -0.3345   -0.0451 H   0  0  0  0  0  0  0  0  0  0  0  0
   -0.2933   -0.1205    0.3719 C   0  0  1  0  0  0  0  0  0  0  0  0
    0.4439   -0.7485   -0.1303 H   0  0  0  0  0  0  0  0  0  0  0  0
   -0.4368    1.1924   -0.4246 C   0  0  0  0  0  0  0  0  0  0  0  0
    0.5337    1.6916   -0.4332 H   0  0  0  0  0  0  0  0  0  0  0  0
   -0.7079    0.9601   -1.4555 H   0  0  0  0  0  0  0  0  0  0  0  0
   -1.4862    2.1592    0.1507 C   0  0  0  0  0  0  0  0  0  0  0  0
   -1.2057    3.1883   -0.0741 H   0  0  0  0  0  0  0  0  0  0  0  0
   -2.4544    1.9467   -0.3012 H   0  0  0  0  0  0  0  0  0  0  0  0
   -1.6295    2.0236    1.6632 C   0  0  0  0  0  0  0  0  0  0  0  0
   -1.0885    1.1671    2.3440 O   0  0  0  0  0  0  0  0  0  0  0  0
   -2.4312    2.9297    2.2532 O   0  0  0  0  0  0  0  0  0  0  0  0
   -2.4244    2.7024    3.1846 H   0  0  0  0  0  0  0  0  0  0  0  0
    0.1871    0.1189    1.8122 C   0  0  0  0  0  0  0  0  0  0  0  0
    1.3541   -0.1171    2.1187 O   0  0  0  0  0  0  0  0  0  0  0  0
   -0.7126    0.5740    2.6926 N   0  0  0  0  0  0  0  0  0  0  0  0
   -1.6464    0.7663    2.3621 H   0  0  0  0  0  0  0  0  0  0  0  0
   -0.4191    0.8310    4.1010 C   0  0  0  0  0  0  0  0  0  0  0  0
    0.4022    1.5452    4.1828 H   0  0  0  0  0  0  0  0  0  0  0  0
   -1.2983    1.2366    4.6035 H   0  0  0  0  0  0  0  0  0  0  0  0
   -0.1204   -0.0980    4.5907 H   0  0  0  0  0  0  0  0  0  0  0  0
  5  6  2  0  0  0  0
  5  7  1  0  0  0  0
  2  3  1  0  0  0  0
  2  4  1  0  0  0  0
  2  5  1  0  0  0  0
  1  2  1  0  0  0  0
 21 22  2  0  0  0  0
 21 23  1  0  0  0  0
 19 20  1  0  0  0  0
 17 18  2  0  0  0  0
 17 19  1  0  0  0  0
 14 15  1  0  0  0  0
 14 16  1  0  0  0  0
 14 17  1  0  0  0  0
 11 12  1  0  0  0  0
 11 13  1  0  0  0  0
 11 14  1  0  0  0  0
  9 10  1  0  0  0  0
  9 11  1  0  0  0  0
  9 21  1  0  0  0  0
  7  8  1  0  0  0  0
  7  9  1  0  0  0  0
 25 26  1  0  0  0  0
 25 27  1  0  0  0  0
 25 28  1  0  0  0  0
 23 24  1  0  0  0  0
 23 25  1  0  0  0  0
M  END
$$$$
default_name
  -OEChem-02102213163D

 28 27  0     1  0  0  0  0  0999 V2000
   -3.2133   -3.5565    1.2809 H   0  0  0  0  0  0  0  0  0  0  0  0
   -3.1873   -2.5755    0.8089 C   0  0  0  0  0  0  0  0  0  0  0  0
   -3.8793   -1.9065    1.3169 H   0  0  0  0  0  0  0  0  0  0  0  0
   -3.4623   -2.6685   -0.2401 H   0  0  0  0  0  0  0  0  0  0  0  0
   -1.7863   -2.0195    0.9119 C   0  0  0  0  0  0  0  0  0  0  0  0
   -0.9073   -2.6615    1.4699 O   0  0  0  0  0  0  0  0  0  0  0  0
   -1.5803   -0.8195    0.3749 N   0  0  0  0  0  0  0  0  0  0  0  0
   -2.3603   -0.3345   -0.0451 H   0  0  0  0  0  0  0  0  0  0  0  0
   -0.2933   -0.1205    0.3719 C   0  0  1  0  0  0  0  0  0  0  0  0
    0.4439   -0.7485   -0.1303 H   0  0  0  0  0  0  0  0  0  0  0  0
   -0.4368    1.1924   -0.4246 C   0  0  0  0  0  0  0  0  0  0  0  0
    0.5337    1.6916   -0.4332 H   0  0  0  0  0  0  0  0  0  0  0  0
   -0.7079    0.9601   -1.4555 H   0  0  0  0  0  0  0  0  0  0  0  0
   -1.4862    2.1592    0.1507 C   0  0  0  0  0  0  0  0  0  0  0  0
   -1.3601    3.1486   -0.2890 H   0  0  0  0  0  0  0  0  0  0  0  0
   -2.4826    1.7881   -0.0862 H   0  0  0  0  0  0  0  0  0  0  0  0
   -1.3790    2.2938    1.6663 C   0  0  0  0  0  0  0  0  0  0  0  0
   -0.6476    1.6250    2.3788 O   0  0  0  0  0  0  0  0  0  0  0  0
   -2.1762    3.2241    2.2236 O   0  0  0  0  0  0  0  0  0  0  0  0
   -2.0008    3.1740    3.1649 H   0  0  0  0  0  0  0  0  0  0  0  0
    0.1871    0.1189    1.8122 C   0  0  0  0  0  0  0  0  0  0  0  0
    1.3541   -0.1171    2.1187 O   0  0  0  0  0  0  0  0  0  0  0  0
   -0.7126    0.5740    2.6926 N   0  0  0  0  0  0  0  0  0  0  0  0
   -1.6464    0.7663    2.3621 H   0  0  0  0  0  0  0  0  0  0  0  0
   -0.4191    0.8310    4.1010 C   0  0  0  0  0  0  0  0  0  0  0  0
    0.4022    1.5452    4.1828 H   0  0  0  0  0  0  0  0  0  0  0  0
   -1.2983    1.2366    4.6035 H   0  0  0  0  0  0  0  0  0  0  0  0
   -0.1204   -0.0980    4.5907 H   0  0  0  0  0  0  0  0  0  0  0  0
  5  6  2  0  0  0  0
  5  7  1  0  0  0  0
  2  3  1  0  0  0  0
  2  4  1  0  0  0  0
  2  5  1  0  0  0  0
  1  2  1  0  0  0  0
 21 22  2  0  0  0  0
 21 23  1  0  0  0  0
 19 20  1  0  0  0  0
 17 18  2  0  0  0  0
 17 19  1  0  0  0  0
 14 15  1  0  0  0  0
 14 16  1  0  0  0  0
 14 17  1  0  0  0  0
 11 12  1  0  0  0  0
 11 13  1  0  0  0  0
 11 14  1  0  0  0  0
  9 10  1  0  0  0  0
  9 11  1  0  0  0  0
  9 21  1  0  0  0  0
  7  8  1  0  0  0  0
  7  9  1  0  0  0  0
 25 26  1  0  0  0  0
 25 27  1  0  0  0  0
 25 28  1  0  0  0  0
 23 24  1  0  0  0  0
 23 25  1  0  0  0  0
M  END
$$$$
default_name
  -OEChem-02102213163D

 28 27  0     1  0  0  0  0  0999 V2000
   -3.2133   -3.5565    1.2809 H   0  0  0  0  0  0  0  0  0  0  0  0
   -3.1873   -2.5755    0.8089 C   0  0  0  0  0  0  0  0  0  0  0  0
   -3.8793   -1.9065    1.3169 H   0  0  0  0  0  0  0  0  0  0  0  0
   -3.4623   -2.6685   -0.2401 H   0  0  0  0  0  0  0  0  0  0  0  0
   -1.7863   -2.0195    0.9119 C   0  0  0  0  0  0  0  0  0  0  0  0
   -0.9073   -2.6615    1.4699 O   0  0  0  0  0  0  0  0  0  0  0  0
   -1.5803   -0.8195    0.3749 N   0  0  0  0  0  0  0  0  0  0  0  0
   -2.3603   -0.3345   -0.0451 H   0  0  0  0  0  0  0  0  0  0  0  0
   -0.2933   -0.1205    0.3719 C   0  0  1  0  0  0  0  0  0  0  0  0
    0.4439   -0.7485   -0.1303 H   0  0  0  0  0  0  0  0  0  0  0  0
   -0.4368    1.1924   -0.4246 C   0  0  0  0  0  0  0  0  0  0  0  0
    0.5337    1.6916   -0.4332 H   0  0  0  0  0  0  0  0  0  0  0  0
   -0.7079    0.9601   -1.4555 H   0  0  0  0  0  0  0  0  0  0  0  0
   -1.4862    2.1592    0.1507 C   0  0  0  0  0  0  0  0  0  0  0  0
   -1.5403    3.0575   -0.4645 H   0  0  0  0  0  0  0  0  0  0  0  0
   -2.4596    1.6701    0.1540 H   0  0  0  0  0  0  0  0  0  0  0  0
   -1.1626    2.5795    1.5808 C   0  0  0  0  0  0  0  0  0  0  0  0
   -0.2604    2.1161    2.2598 O   0  0  0  0  0  0  0  0  0  0  0  0
   -1.9631    3.5280    2.1016 O   0  0  0  0  0  0  0  0  0  0  0  0
   -1.6404    3.6670    2.9937 H   0  0  0  0  0  0  0  0  0  0  0  0
    0.1871    0.1189    1.8122 C   0  0  0  0  0  0  0  0  0  0  0  0
    1.3541   -0.1171    2.1187 O   0  0  0  0  0  0  0  0  0  0  0  0
   -0.7126    0.5740    2.6926 N   0  0  0  0  0  0  0  0  0  0  0  0
   -1.6464    0.7663    2.3621 H   0  0  0  0  0  0  0  0  0  0  0  0
   -0.4191    0.8310    4.1010 C   0  0  0  0  0  0  0  0  0  0  0  0
    0.4022    1.5452    4.1828 H   0  0  0  0  0  0  0  0  0  0  0  0
   -1.2983    1.2366    4.6035 H   0  0  0  0  0  0  0  0  0  0  0  0
   -0.1204   -0.0980    4.5907 H   0  0  0  0  0  0  0  0  0  0  0  0
  5  6  2  0  0  0  0
  5  7  1  0  0  0  0
  2  3  1  0  0  0  0
  2  4  1  0  0  0  0
  2  5  1  0  0  0  0
  1  2  1  0  0  0  0
 21 22  2  0  0  0  0
 21 23  1  0  0  0  0
 19 20  1  0  0  0  0
 17 18  2  0  0  0  0
 17 19  1  0  0  0  0
 14 15  1  0  0  0  0
 14 16  1  0  0  0  0
 14 17  1  0  0  0  0
 11 12  1  0  0  0  0
 11 13  1  0  0  0  0
 11 14  1  0  0  0  0
  9 10  1  0  0  0  0
  9 11  1  0  0  0  0
  9 21  1  0  0  0  0
  7  8  1  0  0  0  0
  7  9  1  0  0  0  0
 25 26  1  0  0  0  0
 25 27  1  0  0  0  0
 25 28  1  0  0  0  0
 23 24  1  0  0  0  0
 23 25  1  0  0  0  0
M  END
$$$$
default_name
  -OEChem-02102213163D

 28 27  0     1  0  0  0  0  0999 V2000
   -3.2133   -3.5565    1.2809 H   0  0  0  0  0  0  0  0  0  0  0  0
   -3.1873   -2.5755    0.8089 C   0  0  0  0  0  0  0  0  0  0  0  0
   -3.8793   -1.9065    1.3169 H   0  0  0  0  0  0  0  0  0  0  0  0
   -3.4623   -2.6685   -0.2401 H   0  0  0  0  0  0  0  0  0  0  0  0
   -1.7863   -2.0195    0.9119 C   0  0  0  0  0  0  0  0  0  0  0  0
   -0.9073   -2.6615    1.4699 O   0  0  0  0  0  0  0  0  0  0  0  0
   -1.5803   -0.8195    0.3749 N   0  0  0  0  0  0  0  0  0  0  0  0
   -2.3603   -0.3345   -0.0451 H   0  0  0  0  0  0  0  0  0  0  0  0
   -0.2933   -0.1205    0.3719 C   0  0  1  0  0  0  0  0  0  0  0  0
    0.4439   -0.7485   -0.1303 H   0  0  0  0  0  0  0  0  0  0  0  0
   -0.4368    1.1924   -0.4246 C   0  0  0  0  0  0  0  0  0  0  0  0
    0.5337    1.6916   -0.4332 H   0  0  0  0  0  0  0  0  0  0  0  0
   -0.7079    0.9601   -1.4555 H   0  0  0  0  0  0  0  0  0  0  0  0
   -1.4862    2.1592    0.1507 C   0  0  0  0  0  0  0  0  0  0  0  0
   -1.7341    2.9209   -0.5886 H   0  0  0  0  0  0  0  0  0  0  0  0
   -2.3869    1.6008    0.4031 H   0  0  0  0  0  0  0  0  0  0  0  0
   -0.9952    2.8614    1.4126 C   0  0  0  0  0  0  0  0  0  0  0  0
    0.0468    2.6070    1.9953 O   0  0  0  0  0  0  0  0  0  0  0  0
   -1.8066    3.8206    1.8954 O   0  0  0  0  0  0  0  0  0  0  0  0
   -1.3679    4.1479    2.6827 H   0  0  0  0  0  0  0  0  0  0  0  0
    0.1871    0.1189    1.8122 C   0  0  0  0  0  0  0  0  0  0  0  0
    1.3541   -0.1171    2.1187 O   0  0  0  0  0  0  0  0  0  0  0  0
   -0.7126    0.5740    2.6926 N   0  0  0  0  0  0  0  0  0  0  0  0
   -1.6464    0.7663    2.3621 H   0  0  0  0  0  0  0  0  0  0  0  0
   -0.4191    0.8310    4.1010 C   0  0  0  0  0  0  0  0  0  0  0  0
    0.4022    1.5452    4.1828 H   0  0  0  0  0  0  0  0  0  0  0  0
   -1.2983    1.2366    4.6035 H   0  0  0  0  0  0  0  0  0  0  0  0
   -0.1204   -0.0980    4.5907 H   0  0  0  0  0  0  0  0  0  0  0  0
  5  6  2  0  0  0  0
  5  7  1  0  0  0  0
  2  3  1  0  0  0  0
  2  4  1  0  0  0  0
  2  5  1  0  0  0  0
  1  2  1  0  0  0  0
 21 22  2  0  0  0  0
 21 23  1  0  0  0  0
 19 20  1  0  0  0  0
 17 18  2  0  0  0  0
 17 19  1  0  0  0  0
 14 15  1  0  0  0  0
 14 16  1  0  0  0  0
 14 17  1  0  0  0  0
 11 12  1  0  0  0  0
 11 13  1  0  0  0  0
 11 14  1  0  0  0  0
  9 10  1  0  0  0  0
  9 11  1  0  0  0  0
  9 21  1  0  0  0  0
  7  8  1  0  0  0  0
  7  9  1  0  0  0  0
 25 26  1  0  0  0  0
 25 27  1  0  0  0  0
 25 28  1  0  0  0  0
 23 24  1  0  0  0  0
 23 25  1  0  0  0  0
M  END
$$$$
default_name
  -OEChem-02102213163D

 28 27  0     1  0  0  0  0  0999 V2000
   -3.2133   -3.5565    1.2809 H   0  0  0  0  0  0  0  0  0  0  0  0
   -3.1873   -2.5755    0.8089 C   0  0  0  0  0  0  0  0  0  0  0  0
   -3.8793   -1.9065    1.3169 H   0  0  0  0  0  0  0  0  0  0  0  0
   -3.4623   -2.6685   -0.2401 H   0  0  0  0  0  0  0  0  0  0  0  0
   -1.7863   -2.0195    0.9119 C   0  0  0  0  0  0  0  0  0  0  0  0
   -0.9073   -2.6615    1.4699 O   0  0  0  0  0  0  0  0  0  0  0  0
   -1.5803   -0.8195    0.3749 N   0  0  0  0  0  0  0  0  0  0  0  0
   -2.3603   -0.3345   -0.0451 H   0  0  0  0  0  0  0  0  0  0  0  0
   -0.2933   -0.1205    0.3719 C   0  0  1  0  0  0  0  0  0  0  0  0
    0.4439   -0.7485   -0.1303 H   0  0  0  0  0  0  0  0  0  0  0  0
   -0.4368    1.1924   -0.4246 C   0  0  0  0  0  0  0  0  0  0  0  0
    0.5337    1.6916   -0.4332 H   0  0  0  0  0  0  0  0  0  0  0  0
   -0.7079    0.9601   -1.4555 H   0  0  0  0  0  0  0  0  0  0  0  0
   -1.4862    2.1592    0.1507 C   0  0  0  0  0  0  0  0  0  0  0  0
   -1.9282    2.7484   -0.6528 H   0  0  0  0  0  0  0  0  0  0  0  0
   -2.2694    1.5849    0.6441 H   0  0  0  0  0  0  0  0  0  0  0  0
   -0.8881    3.1201    1.1732 C   0  0  0  0  0  0  0  0  0  0  0  0
    0.2529    3.0642    1.6031 O   0  0  0  0  0  0  0  0  0  0  0  0
   -1.7172    4.0820    1.6192 O   0  0  0  0  0  0  0  0  0  0  0  0
   -1.2018    4.5839    2.2530 H   0  0  0  0  0  0  0  0  0  0  0  0
    0.1871    0.1189    1.8122 C   0  0  0  0  0  0  0  0  0  0  0  0
    1.3541   -0.1171    2.1187 O   0  0  0  0  0  0  0  0  0  0  0  0
   -0.7126    0.5740    2.6926 N   0  0  0  0  0  0  0  0  0  0  0  0
   -1.6464    0.7663    2.3621 H   0  0  0  0  0  0  0  0  0  0  0  0
   -0.4191    0.8310    4.1010 C   0  0  0  0  0  0  0  0  0  0  0  0
    0.4022    1.5452    4.1828 H   0  0  0  0  0  0  0  0  0  0  0  0
   -1.2983    1.2366    4.6035 H   0  0  0  0  0  0  0  0  0  0  0  0
   -0.1204   -0.0980    4.5907 H   0  0  0  0  0  0  0  0  0  0  0  0
  5  6  2  0  0  0  0
  5  7  1  0  0  0  0
  2  3  1  0  0  0  0
  2  4  1  0  0  0  0
  2  5  1  0  0  0  0
  1  2  1  0  0  0  0
 21 22  2  0  0  0  0
 21 23  1  0  0  0  0
 19 20  1  0  0  0  0
 17 18  2  0  0  0  0
 17 19  1  0  0  0  0
 14 15  1  0  0  0  0
 14 16  1  0  0  0  0
 14 17  1  0  0  0  0
 11 12  1  0  0  0  0
 11 13  1  0  0  0  0
 11 14  1  0  0  0  0
  9 10  1  0  0  0  0
  9 11  1  0  0  0  0
  9 21  1  0  0  0  0
  7  8  1  0  0  0  0
  7  9  1  0  0  0  0
 25 26  1  0  0  0  0
 25 27  1  0  0  0  0
 25 28  1  0  0  0  0
 23 24  1  0  0  0  0
 23 25  1  0  0  0  0
M  END
$$$$
default_name
  -OEChem-02102213163D

 28 27  0     1  0  0  0  0  0999 V2000
   -3.2133   -3.5565    1.2809 H   0  0  0  0  0  0  0  0  0  0  0  0
   -3.1873   -2.5755    0.8089 C   0  0  0  0  0  0  0  0  0  0  0  0
   -3.8793   -1.9065    1.3169 H   0  0  0  0  0  0  0  0  0  0  0  0
   -3.4623   -2.6685   -0.2401 H   0  0  0  0  0  0  0  0  0  0  0  0
   -1.7863   -2.0195    0.9119 C   0  0  0  0  0  0  0  0  0  0  0  0
   -0.9073   -2.6615    1.4699 O   0  0  0  0  0  0  0  0  0  0  0  0
   -1.5803   -0.8195    0.3749 N   0  0  0  0  0  0  0  0  0  0  0  0
   -2.3603   -0.3345   -0.0451 H   0  0  0  0  0  0  0  0  0  0  0  0
   -0.2933   -0.1205    0.3719 C   0  0  1  0  0  0  0  0  0  0  0  0
    0.4439   -0.7485   -0.1303 H   0  0  0  0  0  0  0  0  0  0  0  0
   -0.4368    1.1924   -0.4246 C   0  0  0  0  0  0  0  0  0  0  0  0
    0.5337    1.6916   -0.4332 H   0  0  0  0  0  0  0  0  0  0  0  0
   -0.7079    0.9601   -1.4555 H   0  0  0  0  0  0  0  0  0  0  0  0
   -1.4862    2.1592    0.1507 C   0  0  0  0  0  0  0  0  0  0  0  0
   -2.1095    2.5516   -0.6528 H   0  0  0  0  0  0  0  0  0  0  0  0
   -2.1152    1.6234    0.8606 H   0  0  0  0  0  0  0  0  0  0  0  0
   -0.8486    3.3382    0.8788 C   0  0  0  0  0  0  0  0  0  0  0  0
    0.3440    3.4565    1.1101 O   0  0  0  0  0  0  0  0  0  0  0  0
   -1.7011    4.2944    1.2917 O   0  0  0  0  0  0  0  0  0  0  0  0
   -1.1535    4.9453    1.7340 H   0  0  0  0  0  0  0  0  0  0  0  0
    0.1871    0.1189    1.8122 C   0  0  0  0  0  0  0  0  0  0  0  0
    1.3541   -0.1171    2.1187 O   0  0  0  0  0  0  0  0  0  0  0  0
   -0.7126    0.5740    2.6926 N   0  0  0  0  0  0  0  0  0  0  0  0
   -1.6464    0.7663    2.3621 H   0  0  0  0  0  0  0  0  0  0  0  0
   -0.4191    0.8310    4.1010 C   0  0  0  0  0  0  0  0  0  0  0  0
    0.4022    1.5452    4.1828 H   0  0  0  0  0  0  0  0  0  0  0  0
   -1.2983    1.2366    4.6035 H   0  0  0  0  0  0  0  0  0  0  0  0
   -0.1204   -0.0980    4.5907 H   0  0  0  0  0  0  0  0  0  0  0  0
  5  6  2  0  0  0  0
  5  7  1  0  0  0  0
  2  3  1  0  0  0  0
  2  4  1  0  0  0  0
  2  5  1  0  0  0  0
  1  2  1  0  0  0  0
 21 22  2  0  0  0  0
 21 23  1  0  0  0  0
 19 20  1  0  0  0  0
 17 18  2  0  0  0  0
 17 19  1  0  0  0  0
 14 15  1  0  0  0  0
 14 16  1  0  0  0  0
 14 17  1  0  0  0  0
 11 12  1  0  0  0  0
 11 13  1  0  0  0  0
 11 14  1  0  0  0  0
  9 10  1  0  0  0  0
  9 11  1  0  0  0  0
  9 21  1  0  0  0  0
  7  8  1  0  0  0  0
  7  9  1  0  0  0  0
 25 26  1  0  0  0  0
 25 27  1  0  0  0  0
 25 28  1  0  0  0  0
 23 24  1  0  0  0  0
 23 25  1  0  0  0  0
M  END
$$$$
default_name
  -OEChem-02102213163D

 28 27  0     1  0  0  0  0  0999 V2000
   -3.2133   -3.5565    1.2809 H   0  0  0  0  0  0  0  0  0  0  0  0
   -3.1873   -2.5755    0.8089 C   0  0  0  0  0  0  0  0  0  0  0  0
   -3.8793   -1.9065    1.3169 H   0  0  0  0  0  0  0  0  0  0  0  0
   -3.4623   -2.6685   -0.2401 H   0  0  0  0  0  0  0  0  0  0  0  0
   -1.7863   -2.0195    0.9119 C   0  0  0  0  0  0  0  0  0  0  0  0
   -0.9073   -2.6615    1.4699 O   0  0  0  0  0  0  0  0  0  0  0  0
   -1.5803   -0.8195    0.3749 N   0  0  0  0  0  0  0  0  0  0  0  0
   -2.3603   -0.3345   -0.0451 H   0  0  0  0  0  0  0  0  0  0  0  0
   -0.2933   -0.1205    0.3719 C   0  0  1  0  0  0  0  0  0  0  0  0
    0.4439   -0.7485   -0.1303 H   0  0  0  0  0  0  0  0  0  0  0  0
   -0.4368    1.1924   -0.4246 C   0  0  0  0  0  0  0  0  0  0  0  0
    0.5337    1.6916   -0.4332 H   0  0  0  0  0  0  0  0  0  0  0  0
   -0.7079    0.9601   -1.4555 H   0  0  0  0  0  0  0  0  0  0  0  0
   -1.4862    2.1592    0.1507 C   0  0  0  0  0  0  0  0  0  0  0  0
   -2.2656    2.3440   -0.5886 H   0  0  0  0  0  0  0  0  0  0  0  0
   -1.9348    1.7138    1.0379 H   0  0  0  0  0  0  0  0  0  0  0  0
   -0.8795    3.5006    0.5495 C   0  0  0  0  0  0  0  0  0  0  0  0
    0.3138    3.7572    0.5498 O   0  0  0  0  0  0  0  0  0  0  0  0
   -1.7594    4.4433    0.9352 O   0  0  0  0  0  0  0  0  0  0  0  0
   -1.2262    5.2074    1.1611 H   0  0  0  0  0  0  0  0  0  0  0  0
    0.1871    0.1189    1.8122 C   0  0  0  0  0  0  0  0  0  0  0  0
    1.3541   -0.1171    2.1187 O   0  0  0  0  0  0  0  0  0  0  0  0
   -0.7126    0.5740    2.6926 N   0  0  0  0  0  0  0  0  0  0  0  0
   -1.6464    0.7663    2.3621 H   0  0  0  0  0  0  0  0  0  0  0  0
   -0.4191    0.8310    4.1010 C   0  0  0  0  0  0  0  0  0  0  0  0
    0.4022    1.5452    4.1828 H   0  0  0  0  0  0  0  0  0  0  0  0
   -1.2983    1.2366    4.6035 H   0  0  0  0  0  0  0  0  0  0  0  0
   -0.1204   -0.0980    4.5907 H   0  0  0  0  0  0  0  0  0  0  0  0
  5  6  2  0  0  0  0
  5  7  1  0  0  0  0
  2  3  1  0  0  0  0
  2  4  1  0  0  0  0
  2  5  1  0  0  0  0
  1  2  1  0  0  0  0
 21 22  2  0  0  0  0
 21 23  1  0  0  0  0
 19 20  1  0  0  0  0
 17 18  2  0  0  0  0
 17 19  1  0  0  0  0
 14 15  1  0  0  0  0
 14 16  1  0  0  0  0
 14 17  1  0  0  0  0
 11 12  1  0  0  0  0
 11 13  1  0  0  0  0
 11 14  1  0  0  0  0
  9 10  1  0  0  0  0
  9 11  1  0  0  0  0
  9 21  1  0  0  0  0
  7  8  1  0  0  0  0
  7  9  1  0  0  0  0
 25 26  1  0  0  0  0
 25 27  1  0  0  0  0
 25 28  1  0  0  0  0
 23 24  1  0  0  0  0
 23 25  1  0  0  0  0
M  END
$$$$
default_name
  -OEChem-02102213163D

 28 27  0     1  0  0  0  0  0999 V2000
   -3.2133   -3.5565    1.2809 H   0  0  0  0  0  0  0  0  0  0  0  0
   -3.1873   -2.5755    0.8089 C   0  0  0  0  0  0  0  0  0  0  0  0
   -3.8793   -1.9065    1.3169 H   0  0  0  0  0  0  0  0  0  0  0  0
   -3.4623   -2.6685   -0.2401 H   0  0  0  0  0  0  0  0  0  0  0  0
   -1.7863   -2.0195    0.9119 C   0  0  0  0  0  0  0  0  0  0  0  0
   -0.9073   -2.6615    1.4699 O   0  0  0  0  0  0  0  0  0  0  0  0
   -1.5803   -0.8195    0.3749 N   0  0  0  0  0  0  0  0  0  0  0  0
   -2.3603   -0.3345   -0.0451 H   0  0  0  0  0  0  0  0  0  0  0  0
   -0.2933   -0.1205    0.3719 C   0  0  1  0  0  0  0  0  0  0  0  0
    0.4439   -0.7485   -0.1303 H   0  0  0  0  0  0  0  0  0  0  0  0
   -0.4368    1.1924   -0.4246 C   0  0  0  0  0  0  0  0  0  0  0  0
    0.5337    1.6916   -0.4332 H   0  0  0  0  0  0  0  0  0  0  0  0
   -0.7079    0.9601   -1.4555 H   0  0  0  0  0  0  0  0  0  0  0  0
   -1.4862    2.1592    0.1507 C   0  0  0  0  0  0  0  0  0  0  0  0
   -2.3858    2.1397   -0.4646 H   0  0  0  0  0  0  0  0  0  0  0  0
   -1.7404    1.8498    1.1638 H   0  0  0  0  0  0  0  0  0  0  0  0
   -0.9786    3.5964    0.2078 C   0  0  0  0  0  0  0  0  0  0  0  0
    0.1645    3.9458   -0.0397 O   0  0  0  0  0  0  0  0  0  0  0  0
   -1.8881    4.5185    0.5741 O   0  0  0  0  0  0  0  0  0  0  0  0
   -1.4149    5.3524    0.5732 H   0  0  0  0  0  0  0  0  0  0  0  0
    0.1871    0.1189    1.8122 C   0  0  0  0  0  0  0  0  0  0  0  0
    1.3541   -0.1171    2.1187 O   0  0  0  0  0  0  0  0  0  0  0  0
   -0.7126    0.5740    2.6926 N   0  0  0  0  0  0  0  0  0  0  0  0
   -1.6464    0.7663    2.3621 H   0  0  0  0  0  0  0  0  0  0  0  0
   -0.4191    0.8310    4.1010 C   0  0  0  0  0  0  0  0  0  0  0  0
    0.4022    1.5452    4.1828 H   0  0  0  0  0  0  0  0  0  0  0  0
   -1.2983    1.2366    4.6035 H   0  0  0  0  0  0  0  0  0  0  0  0
   -0.1204   -0.0980    4.5907 H   0  0  0  0  0  0  0  0  0  0  0  0
  5  6  2  0  0  0  0
  5  7  1  0  0  0  0
  2  3  1  0  0  0  0
  2  4  1  0  0  0  0
  2  5  1  0  0  0  0
  1  2  1  0  0  0  0
 21 22  2  0  0  0  0
 21 23  1  0  0  0  0
 19 20  1  0  0  0  0
 17 18  2  0  0  0  0
 17 19  1  0  0  0  0
 14 15  1  0  0  0  0
 14 16  1  0  0  0  0
 14 17  1  0  0  0  0
 11 12  1  0  0  0  0
 11 13  1  0  0  0  0
 11 14  1  0  0  0  0
  9 10  1  0  0  0  0
  9 11  1  0  0  0  0
  9 21  1  0  0  0  0
  7  8  1  0  0  0  0
  7  9  1  0  0  0  0
 25 26  1  0  0  0  0
 25 27  1  0  0  0  0
 25 28  1  0  0  0  0
 23 24  1  0  0  0  0
 23 25  1  0  0  0  0
M  END
$$$$
default_name
  -OEChem-02102213163D

 28 27  0     1  0  0  0  0  0999 V2000
   -3.2133   -3.5565    1.2809 H   0  0  0  0  0  0  0  0  0  0  0  0
   -3.1873   -2.5755    0.8089 C   0  0  0  0  0  0  0  0  0  0  0  0
   -3.8793   -1.9065    1.3169 H   0  0  0  0  0  0  0  0  0  0  0  0
   -3.4623   -2.6685   -0.2401 H   0  0  0  0  0  0  0  0  0  0  0  0
   -1.7863   -2.0195    0.9119 C   0  0  0  0  0  0  0  0  0  0  0  0
   -0.9073   -2.6615    1.4699 O   0  0  0  0  0  0  0  0  0  0  0  0
   -1.5803   -0.8195    0.3749 N   0  0  0  0  0  0  0  0  0  0  0  0
   -2.3603   -0.3345   -0.0451 H   0  0  0  0  0  0  0  0  0  0  0  0
   -0.2933   -0.1205    0.3719 C   0  0  1  0  0  0  0  0  0  0  0  0
    0.4439   -0.7485   -0.1303 H   0  0  0  0  0  0  0  0  0  0  0  0
   -0.4368    1.1924   -0.4246 C   0  0  0  0  0  0  0  0  0  0  0  0
    0.5337    1.6916   -0.4332 H   0  0  0  0  0  0  0  0  0  0  0  0
   -0.7079    0.9601   -1.4555 H   0  0  0  0  0  0  0  0  0  0  0  0
   -1.4862    2.1592    0.1507 C   0  0  0  0  0  0  0  0  0  0  0  0
   -2.4620    1.9526   -0.2891 H   0  0  0  0  0  0  0  0  0  0  0  0
   -1.5453    2.0223    1.2298 H   0  0  0  0  0  0  0  0  0  0  0  0
   -1.1391    3.6190   -0.1231 C   0  0  0  0  0  0  0  0  0  0  0  0
   -0.0939    4.0095   -0.6180 O   0  0  0  0  0  0  0  0  0  0  0  0
   -2.0784    4.5149    0.2329 O   0  0  0  0  0  0  0  0  0  0  0  0
   -1.7069    5.3703    0.0104 H   0  0  0  0  0  0  0  0  0  0  0  0
    0.1871    0.1189    1.8122 C   0  0  0  0  0  0  0  0  0  0  0  0
    1.3541   -0.1171    2.1187 O   0  0  0  0  0  0  0  0  0  0  0  0
   -0.7126    0.5740    2.6926 N   0  0  0  0  0  0  0  0  0  0  0  0
   -1.6464    0.7663    2.3621 H   0  0  0  0  0  0  0  0  0  0  0  0
   -0.4191    0.8310    4.1010 C   0  0  0  0  0  0  0  0  0  0  0  0
    0.4022    1.5452    4.1828 H   0  0  0  0  0  0  0  0  0  0  0  0
   -1.2983    1.2366    4.6035 H   0  0  0  0  0  0  0  0  0  0  0  0
   -0.1204   -0.0980    4.5907 H   0  0  0  0  0  0  0  0  0  0  0  0
  5  6  2  0  0  0  0
  5  7  1  0  0  0  0
  2  3  1  0  0  0  0
  2  4  1  0  0  0  0
  2  5  1  0  0  0  0
  1  2  1  0  0  0  0
 21 22  2  0  0  0  0
 21 23  1  0  0  0  0
 19 20  1  0  0  0  0
 17 18  2  0  0  0  0
 17 19  1  0  0  0  0
 14 15  1  0  0  0  0
 14 16  1  0  0  0  0
 14 17  1  0  0  0  0
 11 12  1  0  0  0  0
 11 13  1  0  0  0  0
 11 14  1  0  0  0  0
  9 10  1  0  0  0  0
  9 11  1  0  0  0  0
  9 21  1  0  0  0  0
  7  8  1  0  0  0  0
  7  9  1  0  0  0  0
 25 26  1  0  0  0  0
 25 27  1  0  0  0  0
 25 28  1  0  0  0  0
 23 24  1  0  0  0  0
 23 25  1  0  0  0  0
M  END
$$$$
default_name
  -OEChem-02102213163D

 28 27  0     1  0  0  0  0  0999 V2000
   -3.2133   -3.5565    1.2809 H   0  0  0  0  0  0  0  0  0  0  0  0
   -3.1873   -2.5755    0.8089 C   0  0  0  0  0  0  0  0  0  0  0  0
   -3.8793   -1.9065    1.3169 H   0  0  0  0  0  0  0  0  0  0  0  0
   -3.4623   -2.6685   -0.2401 H   0  0  0  0  0  0  0  0  0  0  0  0
   -1.7863   -2.0195    0.9119 C   0  0  0  0  0  0  0  0  0  0  0  0
   -0.9073   -2.6615    1.4699 O   0  0  0  0  0  0  0  0  0  0  0  0
   -1.5803   -0.8195    0.3749 N   0  0  0  0  0  0  0  0  0  0  0  0
   -2.3603   -0.3345   -0.0451 H   0  0  0  0  0  0  0  0  0  0  0  0
   -0.2933   -0.1205    0.3719 C   0  0  1  0  0  0  0  0  0  0  0  0
    0.4439   -0.7485   -0.1303 H   0  0  0  0  0  0  0  0  0  0  0  0
   -0.4368    1.1924   -0.4246 C   0  0  0  0  0  0  0  0  0  0  0  0
    0.5337    1.6916   -0.4332 H   0  0  0  0  0  0  0  0  0  0  0  0
   -0.7079    0.9601   -1.4555 H   0  0  0  0  0  0  0  0  0  0  0  0
   -1.4862    2.1592    0.1507 C   0  0  0  0  0  0  0  0  0  0  0  0
   -2.4889    1.7955   -0.0742 H   0  0  0  0  0  0  0  0  0  0  0  0
   -1.3629    2.2194    1.2314 H   0  0  0  0  0  0  0  0  0  0  0  0
   -1.3502    3.5669   -0.4206 C   0  0  0  0  0  0  0  0  0  0  0  0
   -0.4438    3.9439   -1.1458 O   0  0  0  0  0  0  0  0  0  0  0  0
   -2.3174    4.4328   -0.0651 O   0  0  0  0  0  0  0  0  0  0  0  0
   -2.0822    5.2601   -0.4889 H   0  0  0  0  0  0  0  0  0  0  0  0
    0.1871    0.1189    1.8122 C   0  0  0  0  0  0  0  0  0  0  0  0
    1.3541   -0.1171    2.1187 O   0  0  0  0  0  0  0  0  0  0  0  0
   -0.7126    0.5740    2.6926 N   0  0  0  0  0  0  0  0  0  0  0  0
   -1.6464    0.7663    2.3621 H   0  0  0  0  0  0  0  0  0  0  0  0
   -0.4191    0.8310    4.1010 C   0  0  0  0  0  0  0  0  0  0  0  0
    0.4022    1.5452    4.1828 H   0  0  0  0  0  0  0  0  0  0  0  0
   -1.2983    1.2366    4.6035 H   0  0  0  0  0  0  0  0  0  0  0  0
   -0.1204   -0.0980    4.5907 H   0  0  0  0  0  0  0  0  0  0  0  0
  5  6  2  0  0  0  0
  5  7  1  0  0  0  0
  2  3  1  0  0  0  0
  2  4  1  0  0  0  0
  2  5  1  0  0  0  0
  1  2  1  0  0  0  0
 21 22  2  0  0  0  0
 21 23  1  0  0  0  0
 19 20  1  0  0  0  0
 17 18  2  0  0  0  0
 17 19  1  0  0  0  0
 14 15  1  0  0  0  0
 14 16  1  0  0  0  0
 14 17  1  0  0  0  0
 11 12  1  0  0  0  0
 11 13  1  0  0  0  0
 11 14  1  0  0  0  0
  9 10  1  0  0  0  0
  9 11  1  0  0  0  0
  9 21  1  0  0  0  0
  7  8  1  0  0  0  0
  7  9  1  0  0  0  0
 25 26  1  0  0  0  0
 25 27  1  0  0  0  0
 25 28  1  0  0  0  0
 23 24  1  0  0  0  0
 23 25  1  0  0  0  0
M  END
$$$$
default_name
  -OEChem-02102213163D

 28 27  0     1  0  0  0  0  0999 V2000
   -3.2133   -3.5565    1.2809 H   0  0  0  0  0  0  0  0  0  0  0  0
   -3.1873   -2.5755    0.8089 C   0  0  0  0  0  0  0  0  0  0  0  0
   -3.8793   -1.9065    1.3169 H   0  0  0  0  0  0  0  0  0  0  0  0
   -3.4623   -2.6685   -0.2401 H   0  0  0  0  0  0  0  0  0  0  0  0
   -1.7863   -2.0195    0.9119 C   0  0  0  0  0  0  0  0  0  0  0  0
   -0.9073   -2.6615    1.4699 O   0  0  0  0  0  0  0  0  0  0  0  0
   -1.5803   -0.8195    0.3749 N   0  0  0  0  0  0  0  0  0  0  0  0
   -2.3603   -0.3345   -0.0451 H   0  0  0  0  0  0  0  0  0  0  0  0
   -0.2933   -0.1205    0.3719 C   0  0  1  0  0  0  0  0  0  0  0  0
    0.4439   -0.7485   -0.1303 H   0  0  0  0  0  0  0  0  0  0  0  0
   -0.4368    1.1924   -0.4246 C   0  0  0  0  0  0  0  0  0  0  0  0
    0.5644    1.5545   -0.6647 H   0  0  0  0  0  0  0  0  0  0  0  0
   -0.9580    0.9899   -1.3614 H   0  0  0  0  0  0  0  0  0  0  0  0
   -1.1964    2.2985    0.3281 C   0  0  0  0  0  0  0  0  0  0  0  0
   -2.2015    1.9564    0.5752 H   0  0  0  0  0  0  0  0  0  0  0  0
   -0.6641    2.5355    1.2485 H   0  0  0  0  0  0  0  0  0  0  0  0
   -1.3166    3.5786   -0.4925 C   0  0  0  0  0  0  0  0  0  0  0  0
   -0.7694    3.7768   -1.5654 O   0  0  0  0  0  0  0  0  0  0  0  0
   -2.0842    4.5435    0.0475 O   0  0  0  0  0  0  0  0  0  0  0  0
   -2.0459    5.2723   -0.5743 H   0  0  0  0  0  0  0  0  0  0  0  0
    0.1871    0.1189    1.8122 C   0  0  0  0  0  0  0  0  0  0  0  0
    1.3541   -0.1171    2.1187 O   0  0  0  0  0  0  0  0  0  0  0  0
   -0.7126    0.5740    2.6926 N   0  0  0  0  0  0  0  0  0  0  0  0
   -1.6464    0.7663    2.3621 H   0  0  0  0  0  0  0  0  0  0  0  0
   -0.4191    0.8310    4.1010 C   0  0  0  0  0  0  0  0  0  0  0  0
    0.4022    1.5452    4.1828 H   0  0  0  0  0  0  0  0  0  0  0  0
   -1.2983    1.2366    4.6035 H   0  0  0  0  0  0  0  0  0  0  0  0
   -0.1204   -0.0980    4.5907 H   0  0  0  0  0  0  0  0  0  0  0  0
  5  6  2  0  0  0  0
  5  7  1  0  0  0  0
  2  3  1  0  0  0  0
  2  4  1  0  0  0  0
  2  5  1  0  0  0  0
  1  2  1  0  0  0  0
 21 22  2  0  0  0  0
 21 23  1  0  0  0  0
 19 20  1  0  0  0  0
 17 18  2  0  0  0  0
 17 19  1  0  0  0  0
 14 15  1  0  0  0  0
 14 16  1  0  0  0  0
 14 17  1  0  0  0  0
 11 12  1  0  0  0  0
 11 13  1  0  0  0  0
 11 14  1  0  0  0  0
  9 10  1  0  0  0  0
  9 11  1  0  0  0  0
  9 21  1  0  0  0  0
  7  8  1  0  0  0  0
  7  9  1  0  0  0  0
 25 26  1  0  0  0  0
 25 27  1  0  0  0  0
 25 28  1  0  0  0  0
 23 24  1  0  0  0  0
 23 25  1  0  0  0  0
M  END
$$$$
default_name
  -OEChem-02102213163D

 28 27  0     1  0  0  0  0  0999 V2000
   -3.2133   -3.5565    1.2809 H   0  0  0  0  0  0  0  0  0  0  0  0
   -3.1873   -2.5755    0.8089 C   0  0  0  0  0  0  0  0  0  0  0  0
   -3.8793   -1.9065    1.3169 H   0  0  0  0  0  0  0  0  0  0  0  0
   -3.4623   -2.6685   -0.2401 H   0  0  0  0  0  0  0  0  0  0  0  0
   -1.7863   -2.0195    0.9119 C   0  0  0  0  0  0  0  0  0  0  0  0
   -0.9073   -2.6615    1.4699 O   0  0  0  0  0  0  0  0  0  0  0  0
   -1.5803   -0.8195    0.3749 N   0  0  0  0  0  0  0  0  0  0  0  0
   -2.3603   -0.3345   -0.0451 H   0  0  0  0  0  0  0  0  0  0  0  0
   -0.2933   -0.1205    0.3719 C   0  0  1  0  0  0  0  0  0  0  0  0
    0.4439   -0.7485   -0.1303 H   0  0  0  0  0  0  0  0  0  0  0  0
   -0.4368    1.1924   -0.4246 C   0  0  0  0  0  0  0  0  0  0  0  0
    0.5644    1.5545   -0.6647 H   0  0  0  0  0  0  0  0  0  0  0  0
   -0.9580    0.9899   -1.3614 H   0  0  0  0  0  0  0  0  0  0  0  0
   -1.1964    2.2985    0.3281 C   0  0  0  0  0  0  0  0  0  0  0  0
   -2.0842    1.8815    0.8037 H   0  0  0  0  0  0  0  0  0  0  0  0
   -0.5470    2.7212    1.0938 H   0  0  0  0  0  0  0  0  0  0  0  0
   -1.6370    3.4291   -0.5961 C   0  0  0  0  0  0  0  0  0  0  0  0
   -1.3222    3.5367   -1.7705 O   0  0  0  0  0  0  0  0  0  0  0  0
   -2.4227    4.3656   -0.0328 O   0  0  0  0  0  0  0  0  0  0  0  0
   -2.5970    4.9999   -0.7303 H   0  0  0  0  0  0  0  0  0  0  0  0
    0.1871    0.1189    1.8122 C   0  0  0  0  0  0  0  0  0  0  0  0
    1.3541   -0.1171    2.1187 O   0  0  0  0  0  0  0  0  0  0  0  0
   -0.7126    0.5740    2.6926 N   0  0  0  0  0  0  0  0  0  0  0  0
   -1.6464    0.7663    2.3621 H   0  0  0  0  0  0  0  0  0  0  0  0
   -0.4191    0.8310    4.1010 C   0  0  0  0  0  0  0  0  0  0  0  0
    0.4022    1.5452    4.1828 H   0  0  0  0  0  0  0  0  0  0  0  0
   -1.2983    1.2366    4.6035 H   0  0  0  0  0  0  0  0  0  0  0  0
   -0.1204   -0.0980    4.5907 H   0  0  0  0  0  0  0  0  0  0  0  0
  5  6  2  0  0  0  0
  5  7  1  0  0  0  0
  2  3  1  0  0  0  0
  2  4  1  0  0  0  0
  2  5  1  0  0  0  0
  1  2  1  0  0  0  0
 21 22  2  0  0  0  0
 21 23  1  0  0  0  0
 19 20  1  0  0  0  0
 17 18  2  0  0  0  0
 17 19  1  0  0  0  0
 14 15  1  0  0  0  0
 14 16  1  0  0  0  0
 14 17  1  0  0  0  0
 11 12  1  0  0  0  0
 11 13  1  0  0  0  0
 11 14  1  0  0  0  0
  9 10  1  0  0  0  0
  9 11  1  0  0  0  0
  9 21  1  0  0  0  0
  7  8  1  0  0  0  0
  7  9  1  0  0  0  0
 25 26  1  0  0  0  0
 25 27  1  0  0  0  0
 25 28  1  0  0  0  0
 23 24  1  0  0  0  0
 23 25  1  0  0  0  0
M  END
$$$$
default_name
  -OEChem-02102213163D

 28 27  0     1  0  0  0  0  0999 V2000
   -3.2133   -3.5565    1.2809 H   0  0  0  0  0  0  0  0  0  0  0  0
   -3.1873   -2.5755    0.8089 C   0  0  0  0  0  0  0  0  0  0  0  0
   -3.8793   -1.9065    1.3169 H   0  0  0  0  0  0  0  0  0  0  0  0
   -3.4623   -2.6685   -0.2401 H   0  0  0  0  0  0  0  0  0  0  0  0
   -1.7863   -2.0195    0.9119 C   0  0  0  0  0  0  0  0  0  0  0  0
   -0.9073   -2.6615    1.4699 O   0  0  0  0  0  0  0  0  0  0  0  0
   -1.5803   -0.8195    0.3749 N   0  0  0  0  0  0  0  0  0  0  0  0
   -2.3603   -0.3345   -0.0451 H   0  0  0  0  0  0  0  0  0  0  0  0
   -0.2933   -0.1205    0.3719 C   0  0  1  0  0  0  0  0  0  0  0  0
    0.4439   -0.7485   -0.1303 H   0  0  0  0  0  0  0  0  0  0  0  0
   -0.4368    1.1924   -0.4246 C   0  0  0  0  0  0  0  0  0  0  0  0
    0.5644    1.5545   -0.6647 H   0  0  0  0  0  0  0  0  0  0  0  0
   -0.9580    0.9899   -1.3614 H   0  0  0  0  0  0  0  0  0  0  0  0
   -1.1964    2.2985    0.3281 C   0  0  0  0  0  0  0  0  0  0  0  0
   -1.9189    1.8532    1.0121 H   0  0  0  0  0  0  0  0  0  0  0  0
   -0.4862    2.8956    0.8988 H   0  0  0  0  0  0  0  0  0  0  0  0
   -1.9469    3.2308   -0.6175 C   0  0  0  0  0  0  0  0  0  0  0  0
   -1.8640    3.2085   -1.8350 O   0  0  0  0  0  0  0  0  0  0  0  0
   -2.7420    4.1407   -0.0246 O   0  0  0  0  0  0  0  0  0  0  0  0
   -3.1239    4.6471   -0.7436 H   0  0  0  0  0  0  0  0  0  0  0  0
    0.1871    0.1189    1.8122 C   0  0  0  0  0  0  0  0  0  0  0  0
    1.3541   -0.1171    2.1187 O   0  0  0  0  0  0  0  0  0  0  0  0
   -0.7126    0.5740    2.6926 N   0  0  0  0  0  0  0  0  0  0  0  0
   -1.6464    0.7663    2.3621 H   0  0  0  0  0  0  0  0  0  0  0  0
   -0.4191    0.8310    4.1010 C   0  0  0  0  0  0  0  0  0  0  0  0
    0.4022    1.5452    4.1828 H   0  0  0  0  0  0  0  0  0  0  0  0
   -1.2983    1.2366    4.6035 H   0  0  0  0  0  0  0  0  0  0  0  0
   -0.1204   -0.0980    4.5907 H   0  0  0  0  0  0  0  0  0  0  0  0
  5  6  2  0  0  0  0
  5  7  1  0  0  0  0
  2  3  1  0  0  0  0
  2  4  1  0  0  0  0
  2  5  1  0  0  0  0
  1  2  1  0  0  0  0
 21 22  2  0  0  0  0
 21 23  1  0  0  0  0
 19 20  1  0  0  0  0
 17 18  2  0  0  0  0
 17 19  1  0  0  0  0
 14 15  1  0  0  0  0
 14 16  1  0  0  0  0
 14 17  1  0  0  0  0
 11 12  1  0  0  0  0
 11 13  1  0  0  0  0
 11 14  1  0  0  0  0
  9 10  1  0  0  0  0
  9 11  1  0  0  0  0
  9 21  1  0  0  0  0
  7  8  1  0  0  0  0
  7  9  1  0  0  0  0
 25 26  1  0  0  0  0
 25 27  1  0  0  0  0
 25 28  1  0  0  0  0
 23 24  1  0  0  0  0
 23 25  1  0  0  0  0
M  END
$$$$
default_name
  -OEChem-02102213163D

 28 27  0     1  0  0  0  0  0999 V2000
   -3.2133   -3.5565    1.2809 H   0  0  0  0  0  0  0  0  0  0  0  0
   -3.1873   -2.5755    0.8089 C   0  0  0  0  0  0  0  0  0  0  0  0
   -3.8793   -1.9065    1.3169 H   0  0  0  0  0  0  0  0  0  0  0  0
   -3.4623   -2.6685   -0.2401 H   0  0  0  0  0  0  0  0  0  0  0  0
   -1.7863   -2.0195    0.9119 C   0  0  0  0  0  0  0  0  0  0  0  0
   -0.9073   -2.6615    1.4699 O   0  0  0  0  0  0  0  0  0  0  0  0
   -1.5803   -0.8195    0.3749 N   0  0  0  0  0  0  0  0  0  0  0  0
   -2.3603   -0.3345   -0.0451 H   0  0  0  0  0  0  0  0  0  0  0  0
   -0.2933   -0.1205    0.3719 C   0  0  1  0  0  0  0  0  0  0  0  0
    0.4439   -0.7485   -0.1303 H   0  0  0  0  0  0  0  0  0  0  0  0
   -0.4368    1.1924   -0.4246 C   0  0  0  0  0  0  0  0  0  0  0  0
    0.5644    1.5545   -0.6647 H   0  0  0  0  0  0  0  0  0  0  0  0
   -0.9580    0.9899   -1.3614 H   0  0  0  0  0  0  0  0  0  0  0  0
   -1.1964    2.2985    0.3281 C   0  0  0  0  0  0  0  0  0  0  0  0
   -1.7169    1.8734    1.1864 H   0  0  0  0  0  0  0  0  0  0  0  0
   -0.4859    3.0469    0.6769 H   0  0  0  0  0  0  0  0  0  0  0  0
   -2.2250    2.9973   -0.5551 C   0  0  0  0  0  0  0  0  0  0  0  0
   -2.3577    2.8147   -1.7547 O   0  0  0  0  0  0  0  0  0  0  0  0
   -3.0204    3.8841    0.0715 O   0  0  0  0  0  0  0  0  0  0  0  0
   -3.5906    4.2379   -0.6133 H   0  0  0  0  0  0  0  0  0  0  0  0
    0.1871    0.1189    1.8122 C   0  0  0  0  0  0  0  0  0  0  0  0
    1.3541   -0.1171    2.1187 O   0  0  0  0  0  0  0  0  0  0  0  0
   -0.7126    0.5740    2.6926 N   0  0  0  0  0  0  0  0  0  0  0  0
   -1.6464    0.7663    2.3621 H   0  0  0  0  0  0  0  0  0  0  0  0
   -0.4191    0.8310    4.1010 C   0  0  0  0  0  0  0  0  0  0  0  0
    0.4022    1.5452    4.1828 H   0  0  0  0  0  0  0  0  0  0  0  0
   -1.2983    1.2366    4.6035 H   0  0  0  0  0  0  0  0  0  0  0  0
   -0.1204   -0.0980    4.5907 H   0  0  0  0  0  0  0  0  0  0  0  0
  5  6  2  0  0  0  0
  5  7  1  0  0  0  0
  2  3  1  0  0  0  0
  2  4  1  0  0  0  0
  2  5  1  0  0  0  0
  1  2  1  0  0  0  0
 21 22  2  0  0  0  0
 21 23  1  0  0  0  0
 19 20  1  0  0  0  0
 17 18  2  0  0  0  0
 17 19  1  0  0  0  0
 14 15  1  0  0  0  0
 14 16  1  0  0  0  0
 14 17  1  0  0  0  0
 11 12  1  0  0  0  0
 11 13  1  0  0  0  0
 11 14  1  0  0  0  0
  9 10  1  0  0  0  0
  9 11  1  0  0  0  0
  9 21  1  0  0  0  0
  7  8  1  0  0  0  0
  7  9  1  0  0  0  0
 25 26  1  0  0  0  0
 25 27  1  0  0  0  0
 25 28  1  0  0  0  0
 23 24  1  0  0  0  0
 23 25  1  0  0  0  0
M  END
$$$$
default_name
  -OEChem-02102213163D

 28 27  0     1  0  0  0  0  0999 V2000
   -3.2133   -3.5565    1.2809 H   0  0  0  0  0  0  0  0  0  0  0  0
   -3.1873   -2.5755    0.8089 C   0  0  0  0  0  0  0  0  0  0  0  0
   -3.8793   -1.9065    1.3169 H   0  0  0  0  0  0  0  0  0  0  0  0
   -3.4623   -2.6685   -0.2401 H   0  0  0  0  0  0  0  0  0  0  0  0
   -1.7863   -2.0195    0.9119 C   0  0  0  0  0  0  0  0  0  0  0  0
   -0.9073   -2.6615    1.4699 O   0  0  0  0  0  0  0  0  0  0  0  0
   -1.5803   -0.8195    0.3749 N   0  0  0  0  0  0  0  0  0  0  0  0
   -2.3603   -0.3345   -0.0451 H   0  0  0  0  0  0  0  0  0  0  0  0
   -0.2933   -0.1205    0.3719 C   0  0  1  0  0  0  0  0  0  0  0  0
    0.4439   -0.7485   -0.1303 H   0  0  0  0  0  0  0  0  0  0  0  0
   -0.4368    1.1924   -0.4246 C   0  0  0  0  0  0  0  0  0  0  0  0
    0.5644    1.5545   -0.6647 H   0  0  0  0  0  0  0  0  0  0  0  0
   -0.9580    0.9899   -1.3614 H   0  0  0  0  0  0  0  0  0  0  0  0
   -1.1964    2.2985    0.3281 C   0  0  0  0  0  0  0  0  0  0  0  0
   -1.4919    1.9407    1.3145 H   0  0  0  0  0  0  0  0  0  0  0  0
   -0.5460    3.1647    0.4431 H   0  0  0  0  0  0  0  0  0  0  0  0
   -2.4525    2.7446   -0.4133 C   0  0  0  0  0  0  0  0  0  0  0  0
   -2.7697    2.3821   -1.5348 O   0  0  0  0  0  0  0  0  0  0  0  0
   -3.2390    3.6132    0.2490 O   0  0  0  0  0  0  0  0  0  0  0  0
   -3.9654    3.8002   -0.3483 H   0  0  0  0  0  0  0  0  0  0  0  0
    0.1871    0.1189    1.8122 C   0  0  0  0  0  0  0  0  0  0  0  0
    1.3541   -0.1171    2.1187 O   0  0  0  0  0  0  0  0  0  0  0  0
   -0.7126    0.5740    2.6926 N   0  0  0  0  0  0  0  0  0  0  0  0
   -1.6464    0.7663    2.3621 H   0  0  0  0  0  0  0  0  0  0  0  0
   -0.4191    0.8310    4.1010 C   0  0  0  0  0  0  0  0  0  0  0  0
    0.4022    1.5452    4.1828 H   0  0  0  0  0  0  0  0  0  0  0  0
   -1.2983    1.2366    4.6035 H   0  0  0  0  0  0  0  0  0  0  0  0
   -0.1204   -0.0980    4.5907 H   0  0  0  0  0  0  0  0  0  0  0  0
  5  6  2  0  0  0  0
  5  7  1  0  0  0  0
  2  3  1  0  0  0  0
  2  4  1  0  0  0  0
  2  5  1  0  0  0  0
  1  2  1  0  0  0  0
 21 22  2  0  0  0  0
 21 23  1  0  0  0  0
 19 20  1  0  0  0  0
 17 18  2  0  0  0  0
 17 19  1  0  0  0  0
 14 15  1  0  0  0  0
 14 16  1  0  0  0  0
 14 17  1  0  0  0  0
 11 12  1  0  0  0  0
 11 13  1  0  0  0  0
 11 14  1  0  0  0  0
  9 10  1  0  0  0  0
  9 11  1  0  0  0  0
  9 21  1  0  0  0  0
  7  8  1  0  0  0  0
  7  9  1  0  0  0  0
 25 26  1  0  0  0  0
 25 27  1  0  0  0  0
 25 28  1  0  0  0  0
 23 24  1  0  0  0  0
 23 25  1  0  0  0  0
M  END
$$$$
default_name
  -OEChem-02102213163D

 28 27  0     1  0  0  0  0  0999 V2000
   -3.2133   -3.5565    1.2809 H   0  0  0  0  0  0  0  0  0  0  0  0
   -3.1873   -2.5755    0.8089 C   0  0  0  0  0  0  0  0  0  0  0  0
   -3.8793   -1.9065    1.3169 H   0  0  0  0  0  0  0  0  0  0  0  0
   -3.4623   -2.6685   -0.2401 H   0  0  0  0  0  0  0  0  0  0  0  0
   -1.7863   -2.0195    0.9119 C   0  0  0  0  0  0  0  0  0  0  0  0
   -0.9073   -2.6615    1.4699 O   0  0  0  0  0  0  0  0  0  0  0  0
   -1.5803   -0.8195    0.3749 N   0  0  0  0  0  0  0  0  0  0  0  0
   -2.3603   -0.3345   -0.0451 H   0  0  0  0  0  0  0  0  0  0  0  0
   -0.2933   -0.1205    0.3719 C   0  0  1  0  0  0  0  0  0  0  0  0
    0.4439   -0.7485   -0.1303 H   0  0  0  0  0  0  0  0  0  0  0  0
   -0.4368    1.1924   -0.4246 C   0  0  0  0  0  0  0  0  0  0  0  0
    0.5644    1.5545   -0.6647 H   0  0  0  0  0  0  0  0  0  0  0  0
   -0.9580    0.9899   -1.3614 H   0  0  0  0  0  0  0  0  0  0  0  0
   -1.1964    2.2985    0.3281 C   0  0  0  0  0  0  0  0  0  0  0  0
   -1.2592    2.0507    1.3877 H   0  0  0  0  0  0  0  0  0  0  0  0
   -0.6624    3.2411    0.2134 H   0  0  0  0  0  0  0  0  0  0  0  0
   -2.6139    2.4897   -0.2017 C   0  0  0  0  0  0  0  0  0  0  0  0
   -3.0721    1.9401   -1.1905 O   0  0  0  0  0  0  0  0  0  0  0  0
   -3.3828    3.3465    0.4956 O   0  0  0  0  0  0  0  0  0  0  0  0
   -4.2226    3.3638    0.0333 H   0  0  0  0  0  0  0  0  0  0  0  0
    0.1871    0.1189    1.8122 C   0  0  0  0  0  0  0  0  0  0  0  0
    1.3541   -0.1171    2.1187 O   0  0  0  0  0  0  0  0  0  0  0  0
   -0.7126    0.5740    2.6926 N   0  0  0  0  0  0  0  0  0  0  0  0
   -1.6464    0.7663    2.3621 H   0  0  0  0  0  0  0  0  0  0  0  0
   -0.4191    0.8310    4.1010 C   0  0  0  0  0  0  0  0  0  0  0  0
    0.4022    1.5452    4.1828 H   0  0  0  0  0  0  0  0  0  0  0  0
   -1.2983    1.2366    4.6035 H   0  0  0  0  0  0  0  0  0  0  0  0
   -0.1204   -0.0980    4.5907 H   0  0  0  0  0  0  0  0  0  0  0  0
  5  6  2  0  0  0  0
  5  7  1  0  0  0  0
  2  3  1  0  0  0  0
  2  4  1  0  0  0  0
  2  5  1  0  0  0  0
  1  2  1  0  0  0  0
 21 22  2  0  0  0  0
 21 23  1  0  0  0  0
 19 20  1  0  0  0  0
 17 18  2  0  0  0  0
 17 19  1  0  0  0  0
 14 15  1  0  0  0  0
 14 16  1  0  0  0  0
 14 17  1  0  0  0  0
 11 12  1  0  0  0  0
 11 13  1  0  0  0  0
 11 14  1  0  0  0  0
  9 10  1  0  0  0  0
  9 11  1  0  0  0  0
  9 21  1  0  0  0  0
  7  8  1  0  0  0  0
  7  9  1  0  0  0  0
 25 26  1  0  0  0  0
 25 27  1  0  0  0  0
 25 28  1  0  0  0  0
 23 24  1  0  0  0  0
 23 25  1  0  0  0  0
M  END
$$$$
default_name
  -OEChem-02102213163D

 28 27  0     1  0  0  0  0  0999 V2000
   -3.2133   -3.5565    1.2809 H   0  0  0  0  0  0  0  0  0  0  0  0
   -3.1873   -2.5755    0.8089 C   0  0  0  0  0  0  0  0  0  0  0  0
   -3.8793   -1.9065    1.3169 H   0  0  0  0  0  0  0  0  0  0  0  0
   -3.4623   -2.6685   -0.2401 H   0  0  0  0  0  0  0  0  0  0  0  0
   -1.7863   -2.0195    0.9119 C   0  0  0  0  0  0  0  0  0  0  0  0
   -0.9073   -2.6615    1.4699 O   0  0  0  0  0  0  0  0  0  0  0  0
   -1.5803   -0.8195    0.3749 N   0  0  0  0  0  0  0  0  0  0  0  0
   -2.3603   -0.3345   -0.0451 H   0  0  0  0  0  0  0  0  0  0  0  0
   -0.2933   -0.1205    0.3719 C   0  0  1  0  0  0  0  0  0  0  0  0
    0.4439   -0.7485   -0.1303 H   0  0  0  0  0  0  0  0  0  0  0  0
   -0.4368    1.1924   -0.4246 C   0  0  0  0  0  0  0  0  0  0  0  0
    0.5644    1.5545   -0.6647 H   0  0  0  0  0  0  0  0  0  0  0  0
   -0.9580    0.9899   -1.3614 H   0  0  0  0  0  0  0  0  0  0  0  0
   -1.1964    2.2985    0.3281 C   0  0  0  0  0  0  0  0  0  0  0  0
   -1.0348    2.1957    1.4012 H   0  0  0  0  0  0  0  0  0  0  0  0
   -0.8273    3.2707    0.0035 H   0  0  0  0  0  0  0  0  0  0  0  0
   -2.6981    2.2502    0.0653 C   0  0  0  0  0  0  0  0  0  0  0  0
   -3.2441    1.5189   -0.7452 O   0  0  0  0  0  0  0  0  0  0  0  0
   -3.4421    3.1023    0.7947 O   0  0  0  0  0  0  0  0  0  0  0  0
   -4.3449    2.9584    0.5056 H   0  0  0  0  0  0  0  0  0  0  0  0
    0.1871    0.1189    1.8122 C   0  0  0  0  0  0  0  0  0  0  0  0
    1.3541   -0.1171    2.1187 O   0  0  0  0  0  0  0  0  0  0  0  0
   -0.7126    0.5740    2.6926 N   0  0  0  0  0  0  0  0  0  0  0  0
   -1.6464    0.7663    2.3621 H   0  0  0  0  0  0  0  0  0  0  0  0
   -0.4191    0.8310    4.1010 C   0  0  0  0  0  0  0  0  0  0  0  0
    0.4022    1.5452    4.1828 H   0  0  0  0  0  0  0  0  0  0  0  0
   -1.2983    1.2366    4.6035 H   0  0  0  0  0  0  0  0  0  0  0  0
   -0.1204   -0.0980    4.5907 H   0  0  0  0  0  0  0  0  0  0  0  0
  5  6  2  0  0  0  0
  5  7  1  0  0  0  0
  2  3  1  0  0  0  0
  2  4  1  0  0  0  0
  2  5  1  0  0  0  0
  1  2  1  0  0  0  0
 21 22  2  0  0  0  0
 21 23  1  0  0  0  0
 19 20  1  0  0  0  0
 17 18  2  0  0  0  0
 17 19  1  0  0  0  0
 14 15  1  0  0  0  0
 14 16  1  0  0  0  0
 14 17  1  0  0  0  0
 11 12  1  0  0  0  0
 11 13  1  0  0  0  0
 11 14  1  0  0  0  0
  9 10  1  0  0  0  0
  9 11  1  0  0  0  0
  9 21  1  0  0  0  0
  7  8  1  0  0  0  0
  7  9  1  0  0  0  0
 25 26  1  0  0  0  0
 25 27  1  0  0  0  0
 25 28  1  0  0  0  0
 23 24  1  0  0  0  0
 23 25  1  0  0  0  0
M  END
$$$$
default_name
  -OEChem-02102213163D

 28 27  0     1  0  0  0  0  0999 V2000
   -3.2133   -3.5565    1.2809 H   0  0  0  0  0  0  0  0  0  0  0  0
   -3.1873   -2.5755    0.8089 C   0  0  0  0  0  0  0  0  0  0  0  0
   -3.8793   -1.9065    1.3169 H   0  0  0  0  0  0  0  0  0  0  0  0
   -3.4623   -2.6685   -0.2401 H   0  0  0  0  0  0  0  0  0  0  0  0
   -1.7863   -2.0195    0.9119 C   0  0  0  0  0  0  0  0  0  0  0  0
   -0.9073   -2.6615    1.4699 O   0  0  0  0  0  0  0  0  0  0  0  0
   -1.5803   -0.8195    0.3749 N   0  0  0  0  0  0  0  0  0  0  0  0
   -2.3603   -0.3345   -0.0451 H   0  0  0  0  0  0  0  0  0  0  0  0
   -0.2933   -0.1205    0.3719 C   0  0  1  0  0  0  0  0  0  0  0  0
    0.4439   -0.7485   -0.1303 H   0  0  0  0  0  0  0  0  0  0  0  0
   -0.4368    1.1924   -0.4246 C   0  0  0  0  0  0  0  0  0  0  0  0
    0.5644    1.5545   -0.6647 H   0  0  0  0  0  0  0  0  0  0  0  0
   -0.9580    0.9899   -1.3614 H   0  0  0  0  0  0  0  0  0  0  0  0
   -1.1964    2.2985    0.3281 C   0  0  0  0  0  0  0  0  0  0  0  0
   -0.8338    2.3659    1.3539 H   0  0  0  0  0  0  0  0  0  0  0  0
   -1.0294    3.2516   -0.1724 H   0  0  0  0  0  0  0  0  0  0  0  0
   -2.6995    2.0423    0.3695 C   0  0  0  0  0  0  0  0  0  0  0  0
   -3.2741    1.1472   -0.2293 O   0  0  0  0  0  0  0  0  0  0  0  0
   -3.4128    2.8971    1.1259 O   0  0  0  0  0  0  0  0  0  0  0  0
   -4.3237    2.6118    1.0363 H   0  0  0  0  0  0  0  0  0  0  0  0
    0.1871    0.1189    1.8122 C   0  0  0  0  0  0  0  0  0  0  0  0
    1.3541   -0.1171    2.1187 O   0  0  0  0  0  0  0  0  0  0  0  0
   -0.7126    0.5740    2.6926 N   0  0  0  0  0  0  0  0  0  0  0  0
   -1.6464    0.7663    2.3621 H   0  0  0  0  0  0  0  0  0  0  0  0
   -0.4191    0.8310    4.1010 C   0  0  0  0  0  0  0  0  0  0  0  0
    0.4022    1.5452    4.1828 H   0  0  0  0  0  0  0  0  0  0  0  0
   -1.2983    1.2366    4.6035 H   0  0  0  0  0  0  0  0  0  0  0  0
   -0.1204   -0.0980    4.5907 H   0  0  0  0  0  0  0  0  0  0  0  0
  5  6  2  0  0  0  0
  5  7  1  0  0  0  0
  2  3  1  0  0  0  0
  2  4  1  0  0  0  0
  2  5  1  0  0  0  0
  1  2  1  0  0  0  0
 21 22  2  0  0  0  0
 21 23  1  0  0  0  0
 19 20  1  0  0  0  0
 17 18  2  0  0  0  0
 17 19  1  0  0  0  0
 14 15  1  0  0  0  0
 14 16  1  0  0  0  0
 14 17  1  0  0  0  0
 11 12  1  0  0  0  0
 11 13  1  0  0  0  0
 11 14  1  0  0  0  0
  9 10  1  0  0  0  0
  9 11  1  0  0  0  0
  9 21  1  0  0  0  0
  7  8  1  0  0  0  0
  7  9  1  0  0  0  0
 25 26  1  0  0  0  0
 25 27  1  0  0  0  0
 25 28  1  0  0  0  0
 23 24  1  0  0  0  0
 23 25  1  0  0  0  0
M  END
$$$$
default_name
  -OEChem-02102213163D

 28 27  0     1  0  0  0  0  0999 V2000
   -3.2133   -3.5565    1.2809 H   0  0  0  0  0  0  0  0  0  0  0  0
   -3.1873   -2.5755    0.8089 C   0  0  0  0  0  0  0  0  0  0  0  0
   -3.8793   -1.9065    1.3169 H   0  0  0  0  0  0  0  0  0  0  0  0
   -3.4623   -2.6685   -0.2401 H   0  0  0  0  0  0  0  0  0  0  0  0
   -1.7863   -2.0195    0.9119 C   0  0  0  0  0  0  0  0  0  0  0  0
   -0.9073   -2.6615    1.4699 O   0  0  0  0  0  0  0  0  0  0  0  0
   -1.5803   -0.8195    0.3749 N   0  0  0  0  0  0  0  0  0  0  0  0
   -2.3603   -0.3345   -0.0451 H   0  0  0  0  0  0  0  0  0  0  0  0
   -0.2933   -0.1205    0.3719 C   0  0  1  0  0  0  0  0  0  0  0  0
    0.4439   -0.7485   -0.1303 H   0  0  0  0  0  0  0  0  0  0  0  0
   -0.4368    1.1924   -0.4246 C   0  0  0  0  0  0  0  0  0  0  0  0
    0.5644    1.5545   -0.6647 H   0  0  0  0  0  0  0  0  0  0  0  0
   -0.9580    0.9899   -1.3614 H   0  0  0  0  0  0  0  0  0  0  0  0
   -1.1964    2.2985    0.3281 C   0  0  0  0  0  0  0  0  0  0  0  0
   -0.6701    2.5497    1.2490 H   0  0  0  0  0  0  0  0  0  0  0  0
   -1.2550    3.1850   -0.3023 H   0  0  0  0  0  0  0  0  0  0  0  0
   -2.6178    1.8801    0.6901 C   0  0  0  0  0  0  0  0  0  0  0  0
   -3.1600    0.8503    0.3222 O   0  0  0  0  0  0  0  0  0  0  0  0
   -3.2968    2.7449    1.4665 O   0  0  0  0  0  0  0  0  0  0  0  0
   -4.1606    2.3474    1.5893 H   0  0  0  0  0  0  0  0  0  0  0  0
    0.1871    0.1189    1.8122 C   0  0  0  0  0  0  0  0  0  0  0  0
    1.3541   -0.1171    2.1187 O   0  0  0  0  0  0  0  0  0  0  0  0
   -0.7126    0.5740    2.6926 N   0  0  0  0  0  0  0  0  0  0  0  0
   -1.6464    0.7663    2.3621 H   0  0  0  0  0  0  0  0  0  0  0  0
   -0.4191    0.8310    4.1010 C   0  0  0  0  0  0  0  0  0  0  0  0
    0.4022    1.5452    4.1828 H   0  0  0  0  0  0  0  0  0  0  0  0
   -1.2983    1.2366    4.6035 H   0  0  0  0  0  0  0  0  0  0  0  0
   -0.1204   -0.0980    4.5907 H   0  0  0  0  0  0  0  0  0  0  0  0
  5  6  2  0  0  0  0
  5  7  1  0  0  0  0
  2  3  1  0  0  0  0
  2  4  1  0  0  0  0
  2  5  1  0  0  0  0
  1  2  1  0  0  0  0
 21 22  2  0  0  0  0
 21 23  1  0  0  0  0
 19 20  1  0  0  0  0
 17 18  2  0  0  0  0
 17 19  1  0  0  0  0
 14 15  1  0  0  0  0
 14 16  1  0  0  0  0
 14 17  1  0  0  0  0
 11 12  1  0  0  0  0
 11 13  1  0  0  0  0
 11 14  1  0  0  0  0
  9 10  1  0  0  0  0
  9 11  1  0  0  0  0
  9 21  1  0  0  0  0
  7  8  1  0  0  0  0
  7  9  1  0  0  0  0
 25 26  1  0  0  0  0
 25 27  1  0  0  0  0
 25 28  1  0  0  0  0
 23 24  1  0  0  0  0
 23 25  1  0  0  0  0
M  END
$$$$
default_name
  -OEChem-02102213163D

 28 27  0     1  0  0  0  0  0999 V2000
   -3.2133   -3.5565    1.2809 H   0  0  0  0  0  0  0  0  0  0  0  0
   -3.1873   -2.5755    0.8089 C   0  0  0  0  0  0  0  0  0  0  0  0
   -3.8793   -1.9065    1.3169 H   0  0  0  0  0  0  0  0  0  0  0  0
   -3.4623   -2.6685   -0.2401 H   0  0  0  0  0  0  0  0  0  0  0  0
   -1.7863   -2.0195    0.9119 C   0  0  0  0  0  0  0  0  0  0  0  0
   -0.9073   -2.6615    1.4699 O   0  0  0  0  0  0  0  0  0  0  0  0
   -1.5803   -0.8195    0.3749 N   0  0  0  0  0  0  0  0  0  0  0  0
   -2.3603   -0.3345   -0.0451 H   0  0  0  0  0  0  0  0  0  0  0  0
   -0.2933   -0.1205    0.3719 C   0  0  1  0  0  0  0  0  0  0  0  0
    0.4439   -0.7485   -0.1303 H   0  0  0  0  0  0  0  0  0  0  0  0
   -0.4368    1.1924   -0.4246 C   0  0  0  0  0  0  0  0  0  0  0  0
    0.5644    1.5545   -0.6647 H   0  0  0  0  0  0  0  0  0  0  0  0
   -0.9580    0.9899   -1.3614 H   0  0  0  0  0  0  0  0  0  0  0  0
   -1.1964    2.2985    0.3281 C   0  0  0  0  0  0  0  0  0  0  0  0
   -0.5547    2.7346    1.0938 H   0  0  0  0  0  0  0  0  0  0  0  0
   -1.4885    3.0756   -0.3772 H   0  0  0  0  0  0  0  0  0  0  0  0
   -2.4588    1.7748    1.0054 C   0  0  0  0  0  0  0  0  0  0  0  0
   -2.9095    0.6484    0.8716 O   0  0  0  0  0  0  0  0  0  0  0  0
   -3.1022    2.6561    1.7934 O   0  0  0  0  0  0  0  0  0  0  0  0
   -3.8668    2.1834    2.1269 H   0  0  0  0  0  0  0  0  0  0  0  0
    0.1871    0.1189    1.8122 C   0  0  0  0  0  0  0  0  0  0  0  0
    1.3541   -0.1171    2.1187 O   0  0  0  0  0  0  0  0  0  0  0  0
   -0.7126    0.5740    2.6926 N   0  0  0  0  0  0  0  0  0  0  0  0
   -1.6464    0.7663    2.3621 H   0  0  0  0  0  0  0  0  0  0  0  0
   -0.4191    0.8310    4.1010 C   0  0  0  0  0  0  0  0  0  0  0  0
    0.4022    1.5452    4.1828 H   0  0  0  0  0  0  0  0  0  0  0  0
   -1.2983    1.2366    4.6035 H   0  0  0  0  0  0  0  0  0  0  0  0
   -0.1204   -0.0980    4.5907 H   0  0  0  0  0  0  0  0  0  0  0  0
  5  6  2  0  0  0  0
  5  7  1  0  0  0  0
  2  3  1  0  0  0  0
  2  4  1  0  0  0  0
  2  5  1  0  0  0  0
  1  2  1  0  0  0  0
 21 22  2  0  0  0  0
 21 23  1  0  0  0  0
 19 20  1  0  0  0  0
 17 18  2  0  0  0  0
 17 19  1  0  0  0  0
 14 15  1  0  0  0  0
 14 16  1  0  0  0  0
 14 17  1  0  0  0  0
 11 12  1  0  0  0  0
 11 13  1  0  0  0  0
 11 14  1  0  0  0  0
  9 10  1  0  0  0  0
  9 11  1  0  0  0  0
  9 21  1  0  0  0  0
  7  8  1  0  0  0  0
  7  9  1  0  0  0  0
 25 26  1  0  0  0  0
 25 27  1  0  0  0  0
 25 28  1  0  0  0  0
 23 24  1  0  0  0  0
 23 25  1  0  0  0  0
M  END
$$$$
default_name
  -OEChem-02102213163D

 28 27  0     1  0  0  0  0  0999 V2000
   -3.2133   -3.5565    1.2809 H   0  0  0  0  0  0  0  0  0  0  0  0
   -3.1873   -2.5755    0.8089 C   0  0  0  0  0  0  0  0  0  0  0  0
   -3.8793   -1.9065    1.3169 H   0  0  0  0  0  0  0  0  0  0  0  0
   -3.4623   -2.6685   -0.2401 H   0  0  0  0  0  0  0  0  0  0  0  0
   -1.7863   -2.0195    0.9119 C   0  0  0  0  0  0  0  0  0  0  0  0
   -0.9073   -2.6615    1.4699 O   0  0  0  0  0  0  0  0  0  0  0  0
   -1.5803   -0.8195    0.3749 N   0  0  0  0  0  0  0  0  0  0  0  0
   -2.3603   -0.3345   -0.0451 H   0  0  0  0  0  0  0  0  0  0  0  0
   -0.2933   -0.1205    0.3719 C   0  0  1  0  0  0  0  0  0  0  0  0
    0.4439   -0.7485   -0.1303 H   0  0  0  0  0  0  0  0  0  0  0  0
   -0.4368    1.1924   -0.4246 C   0  0  0  0  0  0  0  0  0  0  0  0
    0.5644    1.5545   -0.6647 H   0  0  0  0  0  0  0  0  0  0  0  0
   -0.9580    0.9899   -1.3614 H   0  0  0  0  0  0  0  0  0  0  0  0
   -1.1964    2.2985    0.3281 C   0  0  0  0  0  0  0  0  0  0  0  0
   -0.4956    2.9079    0.8988 H   0  0  0  0  0  0  0  0  0  0  0  0
   -1.7143    2.9308   -0.3922 H   0  0  0  0  0  0  0  0  0  0  0  0
   -2.2332    1.7335    1.2937 C   0  0  0  0  0  0  0  0  0  0  0  0
   -2.5398    0.5553    1.3814 O   0  0  0  0  0  0  0  0  0  0  0  0
   -2.8421    2.6368    2.0843 O   0  0  0  0  0  0  0  0  0  0  0  0
   -3.4621    2.1309    2.6124 H   0  0  0  0  0  0  0  0  0  0  0  0
    0.1871    0.1189    1.8122 C   0  0  0  0  0  0  0  0  0  0  0  0
    1.3541   -0.1171    2.1187 O   0  0  0  0  0  0  0  0  0  0  0  0
   -0.7126    0.5740    2.6926 N   0  0  0  0  0  0  0  0  0  0  0  0
   -1.6464    0.7663    2.3621 H   0  0  0  0  0  0  0  0  0  0  0  0
   -0.4191    0.8310    4.1010 C   0  0  0  0  0  0  0  0  0  0  0  0
    0.4022    1.5452    4.1828 H   0  0  0  0  0  0  0  0  0  0  0  0
   -1.2983    1.2366    4.6035 H   0  0  0  0  0  0  0  0  0  0  0  0
   -0.1204   -0.0980    4.5907 H   0  0  0  0  0  0  0  0  0  0  0  0
  5  6  2  0  0  0  0
  5  7  1  0  0  0  0
  2  3  1  0  0  0  0
  2  4  1  0  0  0  0
  2  5  1  0  0  0  0
  1  2  1  0  0  0  0
 21 22  2  0  0  0  0
 21 23  1  0  0  0  0
 19 20  1  0  0  0  0
 17 18  2  0  0  0  0
 17 19  1  0  0  0  0
 14 15  1  0  0  0  0
 14 16  1  0  0  0  0
 14 17  1  0  0  0  0
 11 12  1  0  0  0  0
 11 13  1  0  0  0  0
 11 14  1  0  0  0  0
  9 10  1  0  0  0  0
  9 11  1  0  0  0  0
  9 21  1  0  0  0  0
  7  8  1  0  0  0  0
  7  9  1  0  0  0  0
 25 26  1  0  0  0  0
 25 27  1  0  0  0  0
 25 28  1  0  0  0  0
 23 24  1  0  0  0  0
 23 25  1  0  0  0  0
M  END
$$$$
default_name
  -OEChem-02102213163D

 28 27  0     1  0  0  0  0  0999 V2000
   -3.2133   -3.5565    1.2809 H   0  0  0  0  0  0  0  0  0  0  0  0
   -3.1873   -2.5755    0.8089 C   0  0  0  0  0  0  0  0  0  0  0  0
   -3.8793   -1.9065    1.3169 H   0  0  0  0  0  0  0  0  0  0  0  0
   -3.4623   -2.6685   -0.2401 H   0  0  0  0  0  0  0  0  0  0  0  0
   -1.7863   -2.0195    0.9119 C   0  0  0  0  0  0  0  0  0  0  0  0
   -0.9073   -2.6615    1.4699 O   0  0  0  0  0  0  0  0  0  0  0  0
   -1.5803   -0.8195    0.3749 N   0  0  0  0  0  0  0  0  0  0  0  0
   -2.3603   -0.3345   -0.0451 H   0  0  0  0  0  0  0  0  0  0  0  0
   -0.2933   -0.1205    0.3719 C   0  0  1  0  0  0  0  0  0  0  0  0
    0.4439   -0.7485   -0.1303 H   0  0  0  0  0  0  0  0  0  0  0  0
   -0.4368    1.1924   -0.4246 C   0  0  0  0  0  0  0  0  0  0  0  0
    0.5644    1.5545   -0.6647 H   0  0  0  0  0  0  0  0  0  0  0  0
   -0.9580    0.9899   -1.3614 H   0  0  0  0  0  0  0  0  0  0  0  0
   -1.1964    2.2985    0.3281 C   0  0  0  0  0  0  0  0  0  0  0  0
   -0.4967    3.0579    0.6772 H   0  0  0  0  0  0  0  0  0  0  0  0
   -1.9167    2.7604   -0.3461 H   0  0  0  0  0  0  0  0  0  0  0  0
   -1.9564    1.7591    1.5356 C   0  0  0  0  0  0  0  0  0  0  0  0
   -2.0761    0.5774    1.8170 O   0  0  0  0  0  0  0  0  0  0  0  0
   -2.5343    2.6882    2.3193 O   0  0  0  0  0  0  0  0  0  0  0  0
   -2.9743    2.1935    3.0128 H   0  0  0  0  0  0  0  0  0  0  0  0
    0.1871    0.1189    1.8122 C   0  0  0  0  0  0  0  0  0  0  0  0
    1.3541   -0.1171    2.1187 O   0  0  0  0  0  0  0  0  0  0  0  0
   -0.7126    0.5740    2.6926 N   0  0  0  0  0  0  0  0  0  0  0  0
   -1.6464    0.7663    2.3621 H   0  0  0  0  0  0  0  0  0  0  0  0
   -0.4191    0.8310    4.1010 C   0  0  0  0  0  0  0  0  0  0  0  0
    0.4022    1.5452    4.1828 H   0  0  0  0  0  0  0  0  0  0  0  0
   -1.2983    1.2366    4.6035 H   0  0  0  0  0  0  0  0  0  0  0  0
   -0.1204   -0.0980    4.5907 H   0  0  0  0  0  0  0  0  0  0  0  0
  5  6  2  0  0  0  0
  5  7  1  0  0  0  0
  2  3  1  0  0  0  0
  2  4  1  0  0  0  0
  2  5  1  0  0  0  0
  1  2  1  0  0  0  0
 21 22  2  0  0  0  0
 21 23  1  0  0  0  0
 19 20  1  0  0  0  0
 17 18  2  0  0  0  0
 17 19  1  0  0  0  0
 14 15  1  0  0  0  0
 14 16  1  0  0  0  0
 14 17  1  0  0  0  0
 11 12  1  0  0  0  0
 11 13  1  0  0  0  0
 11 14  1  0  0  0  0
  9 10  1  0  0  0  0
  9 11  1  0  0  0  0
  9 21  1  0  0  0  0
  7  8  1  0  0  0  0
  7  9  1  0  0  0  0
 25 26  1  0  0  0  0
 25 27  1  0  0  0  0
 25 28  1  0  0  0  0
 23 24  1  0  0  0  0
 23 25  1  0  0  0  0
M  END
$$$$
default_name
  -OEChem-02102213163D

 28 27  0     1  0  0  0  0  0999 V2000
   -3.2133   -3.5565    1.2809 H   0  0  0  0  0  0  0  0  0  0  0  0
   -3.1873   -2.5755    0.8089 C   0  0  0  0  0  0  0  0  0  0  0  0
   -3.8793   -1.9065    1.3169 H   0  0  0  0  0  0  0  0  0  0  0  0
   -3.4623   -2.6685   -0.2401 H   0  0  0  0  0  0  0  0  0  0  0  0
   -1.7863   -2.0195    0.9119 C   0  0  0  0  0  0  0  0  0  0  0  0
   -0.9073   -2.6615    1.4699 O   0  0  0  0  0  0  0  0  0  0  0  0
   -1.5803   -0.8195    0.3749 N   0  0  0  0  0  0  0  0  0  0  0  0
   -2.3603   -0.3345   -0.0451 H   0  0  0  0  0  0  0  0  0  0  0  0
   -0.2933   -0.1205    0.3719 C   0  0  1  0  0  0  0  0  0  0  0  0
    0.4439   -0.7485   -0.1303 H   0  0  0  0  0  0  0  0  0  0  0  0
   -0.4368    1.1924   -0.4246 C   0  0  0  0  0  0  0  0  0  0  0  0
    0.5644    1.5545   -0.6647 H   0  0  0  0  0  0  0  0  0  0  0  0
   -0.9580    0.9899   -1.3614 H   0  0  0  0  0  0  0  0  0  0  0  0
   -1.1964    2.2985    0.3281 C   0  0  0  0  0  0  0  0  0  0  0  0
   -0.5580    3.1744    0.4443 H   0  0  0  0  0  0  0  0  0  0  0  0
   -2.0821    2.5760   -0.2422 H   0  0  0  0  0  0  0  0  0  0  0  0
   -1.6472    1.8497    1.7144 C   0  0  0  0  0  0  0  0  0  0  0  0
   -1.5499    0.7131    2.1487 O   0  0  0  0  0  0  0  0  0  0  0  0
   -2.1998    2.8069    2.4825 O   0  0  0  0  0  0  0  0  0  0  0  0
   -2.4364    2.3669    3.3009 H   0  0  0  0  0  0  0  0  0  0  0  0
    0.1871    0.1189    1.8122 C   0  0  0  0  0  0  0  0  0  0  0  0
    1.3541   -0.1171    2.1187 O   0  0  0  0  0  0  0  0  0  0  0  0
   -0.7126    0.5740    2.6926 N   0  0  0  0  0  0  0  0  0  0  0  0
   -1.6464    0.7663    2.3621 H   0  0  0  0  0  0  0  0  0  0  0  0
   -0.4191    0.8310    4.1010 C   0  0  0  0  0  0  0  0  0  0  0  0
    0.4022    1.5452    4.1828 H   0  0  0  0  0  0  0  0  0  0  0  0
   -1.2983    1.2366    4.6035 H   0  0  0  0  0  0  0  0  0  0  0  0
   -0.1204   -0.0980    4.5907 H   0  0  0  0  0  0  0  0  0  0  0  0
  5  6  2  0  0  0  0
  5  7  1  0  0  0  0
  2  3  1  0  0  0  0
  2  4  1  0  0  0  0
  2  5  1  0  0  0  0
  1  2  1  0  0  0  0
 21 22  2  0  0  0  0
 21 23  1  0  0  0  0
 19 20  1  0  0  0  0
 17 18  2  0  0  0  0
 17 19  1  0  0  0  0
 14 15  1  0  0  0  0
 14 16  1  0  0  0  0
 14 17  1  0  0  0  0
 11 12  1  0  0  0  0
 11 13  1  0  0  0  0
 11 14  1  0  0  0  0
  9 10  1  0  0  0  0
  9 11  1  0  0  0  0
  9 21  1  0  0  0  0
  7  8  1  0  0  0  0
  7  9  1  0  0  0  0
 25 26  1  0  0  0  0
 25 27  1  0  0  0  0
 25 28  1  0  0  0  0
 23 24  1  0  0  0  0
 23 25  1  0  0  0  0
M  END
$$$$
default_name
  -OEChem-02102213163D

 28 27  0     1  0  0  0  0  0999 V2000
   -3.2133   -3.5565    1.2809 H   0  0  0  0  0  0  0  0  0  0  0  0
   -3.1873   -2.5755    0.8089 C   0  0  0  0  0  0  0  0  0  0  0  0
   -3.8793   -1.9065    1.3169 H   0  0  0  0  0  0  0  0  0  0  0  0
   -3.4623   -2.6685   -0.2401 H   0  0  0  0  0  0  0  0  0  0  0  0
   -1.7863   -2.0195    0.9119 C   0  0  0  0  0  0  0  0  0  0  0  0
   -0.9073   -2.6615    1.4699 O   0  0  0  0  0  0  0  0  0  0  0  0
   -1.5803   -0.8195    0.3749 N   0  0  0  0  0  0  0  0  0  0  0  0
   -2.3603   -0.3345   -0.0451 H   0  0  0  0  0  0  0  0  0  0  0  0
   -0.2933   -0.1205    0.3719 C   0  0  1  0  0  0  0  0  0  0  0  0
    0.4439   -0.7485   -0.1303 H   0  0  0  0  0  0  0  0  0  0  0  0
   -0.4368    1.1924   -0.4246 C   0  0  0  0  0  0  0  0  0  0  0  0
    0.5644    1.5545   -0.6647 H   0  0  0  0  0  0  0  0  0  0  0  0
   -0.9580    0.9899   -1.3614 H   0  0  0  0  0  0  0  0  0  0  0  0
   -1.1964    2.2985    0.3281 C   0  0  0  0  0  0  0  0  0  0  0  0
   -0.6753    3.2493    0.2158 H   0  0  0  0  0  0  0  0  0  0  0  0
   -2.1992    2.3903   -0.0875 H   0  0  0  0  0  0  0  0  0  0  0  0
   -1.3268    1.9992    1.8180 C   0  0  0  0  0  0  0  0  0  0  0  0
   -0.9971    0.9532    2.3538 O   0  0  0  0  0  0  0  0  0  0  0  0
   -1.8613    2.9848    2.5628 O   0  0  0  0  0  0  0  0  0  0  0  0
   -1.8853    2.6393    3.4568 H   0  0  0  0  0  0  0  0  0  0  0  0
    0.1871    0.1189    1.8122 C   0  0  0  0  0  0  0  0  0  0  0  0
    1.3541   -0.1171    2.1187 O   0  0  0  0  0  0  0  0  0  0  0  0
   -0.7126    0.5740    2.6926 N   0  0  0  0  0  0  0  0  0  0  0  0
   -1.6464    0.7663    2.3621 H   0  0  0  0  0  0  0  0  0  0  0  0
   -0.4191    0.8310    4.1010 C   0  0  0  0  0  0  0  0  0  0  0  0
    0.4022    1.5452    4.1828 H   0  0  0  0  0  0  0  0  0  0  0  0
   -1.2983    1.2366    4.6035 H   0  0  0  0  0  0  0  0  0  0  0  0
   -0.1204   -0.0980    4.5907 H   0  0  0  0  0  0  0  0  0  0  0  0
  5  6  2  0  0  0  0
  5  7  1  0  0  0  0
  2  3  1  0  0  0  0
  2  4  1  0  0  0  0
  2  5  1  0  0  0  0
  1  2  1  0  0  0  0
 21 22  2  0  0  0  0
 21 23  1  0  0  0  0
 19 20  1  0  0  0  0
 17 18  2  0  0  0  0
 17 19  1  0  0  0  0
 14 15  1  0  0  0  0
 14 16  1  0  0  0  0
 14 17  1  0  0  0  0
 11 12  1  0  0  0  0
 11 13  1  0  0  0  0
 11 14  1  0  0  0  0
  9 10  1  0  0  0  0
  9 11  1  0  0  0  0
  9 21  1  0  0  0  0
  7  8  1  0  0  0  0
  7  9  1  0  0  0  0
 25 26  1  0  0  0  0
 25 27  1  0  0  0  0
 25 28  1  0  0  0  0
 23 24  1  0  0  0  0
 23 25  1  0  0  0  0
M  END
$$$$
default_name
  -OEChem-02102213163D

 28 27  0     1  0  0  0  0  0999 V2000
   -3.2133   -3.5565    1.2809 H   0  0  0  0  0  0  0  0  0  0  0  0
   -3.1873   -2.5755    0.8089 C   0  0  0  0  0  0  0  0  0  0  0  0
   -3.8793   -1.9065    1.3169 H   0  0  0  0  0  0  0  0  0  0  0  0
   -3.4623   -2.6685   -0.2401 H   0  0  0  0  0  0  0  0  0  0  0  0
   -1.7863   -2.0195    0.9119 C   0  0  0  0  0  0  0  0  0  0  0  0
   -0.9073   -2.6615    1.4699 O   0  0  0  0  0  0  0  0  0  0  0  0
   -1.5803   -0.8195    0.3749 N   0  0  0  0  0  0  0  0  0  0  0  0
   -2.3603   -0.3345   -0.0451 H   0  0  0  0  0  0  0  0  0  0  0  0
   -0.2933   -0.1205    0.3719 C   0  0  1  0  0  0  0  0  0  0  0  0
    0.4439   -0.7485   -0.1303 H   0  0  0  0  0  0  0  0  0  0  0  0
   -0.4368    1.1924   -0.4246 C   0  0  0  0  0  0  0  0  0  0  0  0
    0.5644    1.5545   -0.6647 H   0  0  0  0  0  0  0  0  0  0  0  0
   -0.9580    0.9899   -1.3614 H   0  0  0  0  0  0  0  0  0  0  0  0
   -1.1964    2.2985    0.3281 C   0  0  0  0  0  0  0  0  0  0  0  0
   -0.8406    3.2776    0.0073 H   0  0  0  0  0  0  0  0  0  0  0  0
   -2.2600    2.2159    0.1075 H   0  0  0  0  0  0  0  0  0  0  0  0
   -1.0170    2.1975    1.8394 C   0  0  0  0  0  0  0  0  0  0  0  0
   -0.4553    1.2814    2.4183 O   0  0  0  0  0  0  0  0  0  0  0  0
   -1.5420    3.2097    2.5546 O   0  0  0  0  0  0  0  0  0  0  0  0
   -1.3584    2.9921    3.4701 H   0  0  0  0  0  0  0  0  0  0  0  0
    0.1871    0.1189    1.8122 C   0  0  0  0  0  0  0  0  0  0  0  0
    1.3541   -0.1171    2.1187 O   0  0  0  0  0  0  0  0  0  0  0  0
   -0.7126    0.5740    2.6926 N   0  0  0  0  0  0  0  0  0  0  0  0
   -1.6464    0.7663    2.3621 H   0  0  0  0  0  0  0  0  0  0  0  0
   -0.4191    0.8310    4.1010 C   0  0  0  0  0  0  0  0  0  0  0  0
    0.4022    1.5452    4.1828 H   0  0  0  0  0  0  0  0  0  0  0  0
   -1.2983    1.2366    4.6035 H   0  0  0  0  0  0  0  0  0  0  0  0
   -0.1204   -0.0980    4.5907 H   0  0  0  0  0  0  0  0  0  0  0  0
  5  6  2  0  0  0  0
  5  7  1  0  0  0  0
  2  3  1  0  0  0  0
  2  4  1  0  0  0  0
  2  5  1  0  0  0  0
  1  2  1  0  0  0  0
 21 22  2  0  0  0  0
 21 23  1  0  0  0  0
 19 20  1  0  0  0  0
 17 18  2  0  0  0  0
 17 19  1  0  0  0  0
 14 15  1  0  0  0  0
 14 16  1  0  0  0  0
 14 17  1  0  0  0  0
 11 12  1  0  0  0  0
 11 13  1  0  0  0  0
 11 14  1  0  0  0  0
  9 10  1  0  0  0  0
  9 11  1  0  0  0  0
  9 21  1  0  0  0  0
  7  8  1  0  0  0  0
  7  9  1  0  0  0  0
 25 26  1  0  0  0  0
 25 27  1  0  0  0  0
 25 28  1  0  0  0  0
 23 24  1  0  0  0  0
 23 25  1  0  0  0  0
M  END
$$$$
default_name
  -OEChem-02102213163D

 28 27  0     1  0  0  0  0  0999 V2000
   -3.2133   -3.5565    1.2809 H   0  0  0  0  0  0  0  0  0  0  0  0
   -3.1873   -2.5755    0.8089 C   0  0  0  0  0  0  0  0  0  0  0  0
   -3.8793   -1.9065    1.3169 H   0  0  0  0  0  0  0  0  0  0  0  0
   -3.4623   -2.6685   -0.2401 H   0  0  0  0  0  0  0  0  0  0  0  0
   -1.7863   -2.0195    0.9119 C   0  0  0  0  0  0  0  0  0  0  0  0
   -0.9073   -2.6615    1.4699 O   0  0  0  0  0  0  0  0  0  0  0  0
   -1.5803   -0.8195    0.3749 N   0  0  0  0  0  0  0  0  0  0  0  0
   -2.3603   -0.3345   -0.0451 H   0  0  0  0  0  0  0  0  0  0  0  0
   -0.2933   -0.1205    0.3719 C   0  0  1  0  0  0  0  0  0  0  0  0
    0.4439   -0.7485   -0.1303 H   0  0  0  0  0  0  0  0  0  0  0  0
   -0.4368    1.1924   -0.4246 C   0  0  0  0  0  0  0  0  0  0  0  0
    0.5644    1.5545   -0.6647 H   0  0  0  0  0  0  0  0  0  0  0  0
   -0.9580    0.9899   -1.3614 H   0  0  0  0  0  0  0  0  0  0  0  0
   -1.1964    2.2985    0.3281 C   0  0  0  0  0  0  0  0  0  0  0  0
   -1.0426    3.2574   -0.1669 H   0  0  0  0  0  0  0  0  0  0  0  0
   -2.2604    2.0646    0.3295 H   0  0  0  0  0  0  0  0  0  0  0  0
   -0.7388    2.4310    1.7771 C   0  0  0  0  0  0  0  0  0  0  0  0
    0.0384    1.6752    2.3380 O   0  0  0  0  0  0  0  0  0  0  0  0
   -1.2635    3.4663    2.4585 O   0  0  0  0  0  0  0  0  0  0  0  0
   -0.8917    3.4013    3.3398 H   0  0  0  0  0  0  0  0  0  0  0  0
    0.1871    0.1189    1.8122 C   0  0  0  0  0  0  0  0  0  0  0  0
    1.3541   -0.1171    2.1187 O   0  0  0  0  0  0  0  0  0  0  0  0
   -0.7126    0.5740    2.6926 N   0  0  0  0  0  0  0  0  0  0  0  0
   -1.6464    0.7663    2.3621 H   0  0  0  0  0  0  0  0  0  0  0  0
   -0.4191    0.8310    4.1010 C   0  0  0  0  0  0  0  0  0  0  0  0
    0.4022    1.5452    4.1828 H   0  0  0  0  0  0  0  0  0  0  0  0
   -1.2983    1.2366    4.6035 H   0  0  0  0  0  0  0  0  0  0  0  0
   -0.1204   -0.0980    4.5907 H   0  0  0  0  0  0  0  0  0  0  0  0
  5  6  2  0  0  0  0
  5  7  1  0  0  0  0
  2  3  1  0  0  0  0
  2  4  1  0  0  0  0
  2  5  1  0  0  0  0
  1  2  1  0  0  0  0
 21 22  2  0  0  0  0
 21 23  1  0  0  0  0
 19 20  1  0  0  0  0
 17 18  2  0  0  0  0
 17 19  1  0  0  0  0
 14 15  1  0  0  0  0
 14 16  1  0  0  0  0
 14 17  1  0  0  0  0
 11 12  1  0  0  0  0
 11 13  1  0  0  0  0
 11 14  1  0  0  0  0
  9 10  1  0  0  0  0
  9 11  1  0  0  0  0
  9 21  1  0  0  0  0
  7  8  1  0  0  0  0
  7  9  1  0  0  0  0
 25 26  1  0  0  0  0
 25 27  1  0  0  0  0
 25 28  1  0  0  0  0
 23 24  1  0  0  0  0
 23 25  1  0  0  0  0
M  END
$$$$
default_name
  -OEChem-02102213163D

 28 27  0     1  0  0  0  0  0999 V2000
   -3.2133   -3.5565    1.2809 H   0  0  0  0  0  0  0  0  0  0  0  0
   -3.1873   -2.5755    0.8089 C   0  0  0  0  0  0  0  0  0  0  0  0
   -3.8793   -1.9065    1.3169 H   0  0  0  0  0  0  0  0  0  0  0  0
   -3.4623   -2.6685   -0.2401 H   0  0  0  0  0  0  0  0  0  0  0  0
   -1.7863   -2.0195    0.9119 C   0  0  0  0  0  0  0  0  0  0  0  0
   -0.9073   -2.6615    1.4699 O   0  0  0  0  0  0  0  0  0  0  0  0
   -1.5803   -0.8195    0.3749 N   0  0  0  0  0  0  0  0  0  0  0  0
   -2.3603   -0.3345   -0.0451 H   0  0  0  0  0  0  0  0  0  0  0  0
   -0.2933   -0.1205    0.3719 C   0  0  1  0  0  0  0  0  0  0  0  0
    0.4439   -0.7485   -0.1303 H   0  0  0  0  0  0  0  0  0  0  0  0
   -0.4368    1.1924   -0.4246 C   0  0  0  0  0  0  0  0  0  0  0  0
    0.5644    1.5545   -0.6647 H   0  0  0  0  0  0  0  0  0  0  0  0
   -0.9580    0.9899   -1.3614 H   0  0  0  0  0  0  0  0  0  0  0  0
   -1.1964    2.2985    0.3281 C   0  0  0  0  0  0  0  0  0  0  0  0
   -1.2676    3.1901   -0.2950 H   0  0  0  0  0  0  0  0  0  0  0  0
   -2.2003    1.9467    0.5632 H   0  0  0  0  0  0  0  0  0  0  0  0
   -0.5113    2.6837    1.6352 C   0  0  0  0  0  0  0  0  0  0  0  0
    0.4504    2.1078    2.1181 O   0  0  0  0  0  0  0  0  0  0  0  0
   -1.0450    3.7372    2.2810 O   0  0  0  0  0  0  0  0  0  0  0  0
   -0.5170    3.8390    3.0748 H   0  0  0  0  0  0  0  0  0  0  0  0
    0.1871    0.1189    1.8122 C   0  0  0  0  0  0  0  0  0  0  0  0
    1.3541   -0.1171    2.1187 O   0  0  0  0  0  0  0  0  0  0  0  0
   -0.7126    0.5740    2.6926 N   0  0  0  0  0  0  0  0  0  0  0  0
   -1.6464    0.7663    2.3621 H   0  0  0  0  0  0  0  0  0  0  0  0
   -0.4191    0.8310    4.1010 C   0  0  0  0  0  0  0  0  0  0  0  0
    0.4022    1.5452    4.1828 H   0  0  0  0  0  0  0  0  0  0  0  0
   -1.2983    1.2366    4.6035 H   0  0  0  0  0  0  0  0  0  0  0  0
   -0.1204   -0.0980    4.5907 H   0  0  0  0  0  0  0  0  0  0  0  0
  5  6  2  0  0  0  0
  5  7  1  0  0  0  0
  2  3  1  0  0  0  0
  2  4  1  0  0  0  0
  2  5  1  0  0  0  0
  1  2  1  0  0  0  0
 21 22  2  0  0  0  0
 21 23  1  0  0  0  0
 19 20  1  0  0  0  0
 17 18  2  0  0  0  0
 17 19  1  0  0  0  0
 14 15  1  0  0  0  0
 14 16  1  0  0  0  0
 14 17  1  0  0  0  0
 11 12  1  0  0  0  0
 11 13  1  0  0  0  0
 11 14  1  0  0  0  0
  9 10  1  0  0  0  0
  9 11  1  0  0  0  0
  9 21  1  0  0  0  0
  7  8  1  0  0  0  0
  7  9  1  0  0  0  0
 25 26  1  0  0  0  0
 25 27  1  0  0  0  0
 25 28  1  0  0  0  0
 23 24  1  0  0  0  0
 23 25  1  0  0  0  0
M  END
$$$$
default_name
  -OEChem-02102213163D

 28 27  0     1  0  0  0  0  0999 V2000
   -3.2133   -3.5565    1.2809 H   0  0  0  0  0  0  0  0  0  0  0  0
   -3.1873   -2.5755    0.8089 C   0  0  0  0  0  0  0  0  0  0  0  0
   -3.8793   -1.9065    1.3169 H   0  0  0  0  0  0  0  0  0  0  0  0
   -3.4623   -2.6685   -0.2401 H   0  0  0  0  0  0  0  0  0  0  0  0
   -1.7863   -2.0195    0.9119 C   0  0  0  0  0  0  0  0  0  0  0  0
   -0.9073   -2.6615    1.4699 O   0  0  0  0  0  0  0  0  0  0  0  0
   -1.5803   -0.8195    0.3749 N   0  0  0  0  0  0  0  0  0  0  0  0
   -2.3603   -0.3345   -0.0451 H   0  0  0  0  0  0  0  0  0  0  0  0
   -0.2933   -0.1205    0.3719 C   0  0  1  0  0  0  0  0  0  0  0  0
    0.4439   -0.7485   -0.1303 H   0  0  0  0  0  0  0  0  0  0  0  0
   -0.4368    1.1924   -0.4246 C   0  0  0  0  0  0  0  0  0  0  0  0
    0.5644    1.5545   -0.6647 H   0  0  0  0  0  0  0  0  0  0  0  0
   -0.9580    0.9899   -1.3614 H   0  0  0  0  0  0  0  0  0  0  0  0
   -1.1964    2.2985    0.3281 C   0  0  0  0  0  0  0  0  0  0  0  0
   -1.5003    3.0801   -0.3683 H   0  0  0  0  0  0  0  0  0  0  0  0
   -2.0838    1.8704    0.7929 H   0  0  0  0  0  0  0  0  0  0  0  0
   -0.3499    2.9386    1.4236 C   0  0  0  0  0  0  0  0  0  0  0  0
    0.7528    2.5498    1.7738 O   0  0  0  0  0  0  0  0  0  0  0  0
   -0.9011    4.0039    2.0344 O   0  0  0  0  0  0  0  0  0  0  0  0
   -0.2597    4.2754    2.6932 H   0  0  0  0  0  0  0  0  0  0  0  0
    0.1871    0.1189    1.8122 C   0  0  0  0  0  0  0  0  0  0  0  0
    1.3541   -0.1171    2.1187 O   0  0  0  0  0  0  0  0  0  0  0  0
   -0.7126    0.5740    2.6926 N   0  0  0  0  0  0  0  0  0  0  0  0
   -1.6464    0.7663    2.3621 H   0  0  0  0  0  0  0  0  0  0  0  0
   -0.4191    0.8310    4.1010 C   0  0  0  0  0  0  0  0  0  0  0  0
    0.4022    1.5452    4.1828 H   0  0  0  0  0  0  0  0  0  0  0  0
   -1.2983    1.2366    4.6035 H   0  0  0  0  0  0  0  0  0  0  0  0
   -0.1204   -0.0980    4.5907 H   0  0  0  0  0  0  0  0  0  0  0  0
  5  6  2  0  0  0  0
  5  7  1  0  0  0  0
  2  3  1  0  0  0  0
  2  4  1  0  0  0  0
  2  5  1  0  0  0  0
  1  2  1  0  0  0  0
 21 22  2  0  0  0  0
 21 23  1  0  0  0  0
 19 20  1  0  0  0  0
 17 18  2  0  0  0  0
 17 19  1  0  0  0  0
 14 15  1  0  0  0  0
 14 16  1  0  0  0  0
 14 17  1  0  0  0  0
 11 12  1  0  0  0  0
 11 13  1  0  0  0  0
 11 14  1  0  0  0  0
  9 10  1  0  0  0  0
  9 11  1  0  0  0  0
  9 21  1  0  0  0  0
  7  8  1  0  0  0  0
  7  9  1  0  0  0  0
 25 26  1  0  0  0  0
 25 27  1  0  0  0  0
 25 28  1  0  0  0  0
 23 24  1  0  0  0  0
 23 25  1  0  0  0  0
M  END
$$$$
default_name
  -OEChem-02102213163D

 28 27  0     1  0  0  0  0  0999 V2000
   -3.2133   -3.5565    1.2809 H   0  0  0  0  0  0  0  0  0  0  0  0
   -3.1873   -2.5755    0.8089 C   0  0  0  0  0  0  0  0  0  0  0  0
   -3.8793   -1.9065    1.3169 H   0  0  0  0  0  0  0  0  0  0  0  0
   -3.4623   -2.6685   -0.2401 H   0  0  0  0  0  0  0  0  0  0  0  0
   -1.7863   -2.0195    0.9119 C   0  0  0  0  0  0  0  0  0  0  0  0
   -0.9073   -2.6615    1.4699 O   0  0  0  0  0  0  0  0  0  0  0  0
   -1.5803   -0.8195    0.3749 N   0  0  0  0  0  0  0  0  0  0  0  0
   -2.3603   -0.3345   -0.0451 H   0  0  0  0  0  0  0  0  0  0  0  0
   -0.2933   -0.1205    0.3719 C   0  0  1  0  0  0  0  0  0  0  0  0
    0.4439   -0.7485   -0.1303 H   0  0  0  0  0  0  0  0  0  0  0  0
   -0.4368    1.1924   -0.4246 C   0  0  0  0  0  0  0  0  0  0  0  0
    0.5644    1.5545   -0.6647 H   0  0  0  0  0  0  0  0  0  0  0  0
   -0.9580    0.9899   -1.3614 H   0  0  0  0  0  0  0  0  0  0  0  0
   -1.1964    2.2985    0.3281 C   0  0  0  0  0  0  0  0  0  0  0  0
   -1.7247    2.9351   -0.3817 H   0  0  0  0  0  0  0  0  0  0  0  0
   -1.9189    1.8408    1.0029 H   0  0  0  0  0  0  0  0  0  0  0  0
   -0.2657    3.1781    1.1566 C   0  0  0  0  0  0  0  0  0  0  0  0
    0.9248    2.9710    1.3285 O   0  0  0  0  0  0  0  0  0  0  0  0
   -0.8419    4.2481    1.7353 O   0  0  0  0  0  0  0  0  0  0  0  0
   -0.1375    4.6808    2.2210 H   0  0  0  0  0  0  0  0  0  0  0  0
    0.1871    0.1189    1.8122 C   0  0  0  0  0  0  0  0  0  0  0  0
    1.3541   -0.1171    2.1187 O   0  0  0  0  0  0  0  0  0  0  0  0
   -0.7126    0.5740    2.6926 N   0  0  0  0  0  0  0  0  0  0  0  0
   -1.6464    0.7663    2.3621 H   0  0  0  0  0  0  0  0  0  0  0  0
   -0.4191    0.8310    4.1010 C   0  0  0  0  0  0  0  0  0  0  0  0
    0.4022    1.5452    4.1828 H   0  0  0  0  0  0  0  0  0  0  0  0
   -1.2983    1.2366    4.6035 H   0  0  0  0  0  0  0  0  0  0  0  0
   -0.1204   -0.0980    4.5907 H   0  0  0  0  0  0  0  0  0  0  0  0
  5  6  2  0  0  0  0
  5  7  1  0  0  0  0
  2  3  1  0  0  0  0
  2  4  1  0  0  0  0
  2  5  1  0  0  0  0
  1  2  1  0  0  0  0
 21 22  2  0  0  0  0
 21 23  1  0  0  0  0
 19 20  1  0  0  0  0
 17 18  2  0  0  0  0
 17 19  1  0  0  0  0
 14 15  1  0  0  0  0
 14 16  1  0  0  0  0
 14 17  1  0  0  0  0
 11 12  1  0  0  0  0
 11 13  1  0  0  0  0
 11 14  1  0  0  0  0
  9 10  1  0  0  0  0
  9 11  1  0  0  0  0
  9 21  1  0  0  0  0
  7  8  1  0  0  0  0
  7  9  1  0  0  0  0
 25 26  1  0  0  0  0
 25 27  1  0  0  0  0
 25 28  1  0  0  0  0
 23 24  1  0  0  0  0
 23 25  1  0  0  0  0
M  END
$$$$
default_name
  -OEChem-02102213163D

 28 27  0     1  0  0  0  0  0999 V2000
   -3.2133   -3.5565    1.2809 H   0  0  0  0  0  0  0  0  0  0  0  0
   -3.1873   -2.5755    0.8089 C   0  0  0  0  0  0  0  0  0  0  0  0
   -3.8793   -1.9065    1.3169 H   0  0  0  0  0  0  0  0  0  0  0  0
   -3.4623   -2.6685   -0.2401 H   0  0  0  0  0  0  0  0  0  0  0  0
   -1.7863   -2.0195    0.9119 C   0  0  0  0  0  0  0  0  0  0  0  0
   -0.9073   -2.6615    1.4699 O   0  0  0  0  0  0  0  0  0  0  0  0
   -1.5803   -0.8195    0.3749 N   0  0  0  0  0  0  0  0  0  0  0  0
   -2.3603   -0.3345   -0.0451 H   0  0  0  0  0  0  0  0  0  0  0  0
   -0.2933   -0.1205    0.3719 C   0  0  1  0  0  0  0  0  0  0  0  0
    0.4439   -0.7485   -0.1303 H   0  0  0  0  0  0  0  0  0  0  0  0
   -0.4368    1.1924   -0.4246 C   0  0  0  0  0  0  0  0  0  0  0  0
    0.5644    1.5545   -0.6647 H   0  0  0  0  0  0  0  0  0  0  0  0
   -0.9580    0.9899   -1.3614 H   0  0  0  0  0  0  0  0  0  0  0  0
   -1.1964    2.2985    0.3281 C   0  0  0  0  0  0  0  0  0  0  0  0
   -1.9257    2.7649   -0.3344 H   0  0  0  0  0  0  0  0  0  0  0  0
   -1.7168    1.8599    1.1787 H   0  0  0  0  0  0  0  0  0  0  0  0
   -0.2644    3.3861    0.8525 C   0  0  0  0  0  0  0  0  0  0  0  0
    0.9548    3.3427    0.8126 O   0  0  0  0  0  0  0  0  0  0  0  0
   -0.8712    4.4533    1.4041 O   0  0  0  0  0  0  0  0  0  0  0  0
   -0.1586    5.0274    1.6903 H   0  0  0  0  0  0  0  0  0  0  0  0
    0.1871    0.1189    1.8122 C   0  0  0  0  0  0  0  0  0  0  0  0
    1.3541   -0.1171    2.1187 O   0  0  0  0  0  0  0  0  0  0  0  0
   -0.7126    0.5740    2.6926 N   0  0  0  0  0  0  0  0  0  0  0  0
   -1.6464    0.7663    2.3621 H   0  0  0  0  0  0  0  0  0  0  0  0
   -0.4191    0.8310    4.1010 C   0  0  0  0  0  0  0  0  0  0  0  0
    0.4022    1.5452    4.1828 H   0  0  0  0  0  0  0  0  0  0  0  0
   -1.2983    1.2366    4.6035 H   0  0  0  0  0  0  0  0  0  0  0  0
   -0.1204   -0.0980    4.5907 H   0  0  0  0  0  0  0  0  0  0  0  0
  5  6  2  0  0  0  0
  5  7  1  0  0  0  0
  2  3  1  0  0  0  0
  2  4  1  0  0  0  0
  2  5  1  0  0  0  0
  1  2  1  0  0  0  0
 21 22  2  0  0  0  0
 21 23  1  0  0  0  0
 19 20  1  0  0  0  0
 17 18  2  0  0  0  0
 17 19  1  0  0  0  0
 14 15  1  0  0  0  0
 14 16  1  0  0  0  0
 14 17  1  0  0  0  0
 11 12  1  0  0  0  0
 11 13  1  0  0  0  0
 11 14  1  0  0  0  0
  9 10  1  0  0  0  0
  9 11  1  0  0  0  0
  9 21  1  0  0  0  0
  7  8  1  0  0  0  0
  7  9  1  0  0  0  0
 25 26  1  0  0  0  0
 25 27  1  0  0  0  0
 25 28  1  0  0  0  0
 23 24  1  0  0  0  0
 23 25  1  0  0  0  0
M  END
$$$$
default_name
  -OEChem-02102213163D

 28 27  0     1  0  0  0  0  0999 V2000
   -3.2133   -3.5565    1.2809 H   0  0  0  0  0  0  0  0  0  0  0  0
   -3.1873   -2.5755    0.8089 C   0  0  0  0  0  0  0  0  0  0  0  0
   -3.8793   -1.9065    1.3169 H   0  0  0  0  0  0  0  0  0  0  0  0
   -3.4623   -2.6685   -0.2401 H   0  0  0  0  0  0  0  0  0  0  0  0
   -1.7863   -2.0195    0.9119 C   0  0  0  0  0  0  0  0  0  0  0  0
   -0.9073   -2.6615    1.4699 O   0  0  0  0  0  0  0  0  0  0  0  0
   -1.5803   -0.8195    0.3749 N   0  0  0  0  0  0  0  0  0  0  0  0
   -2.3603   -0.3345   -0.0451 H   0  0  0  0  0  0  0  0  0  0  0  0
   -0.2933   -0.1205    0.3719 C   0  0  1  0  0  0  0  0  0  0  0  0
    0.4439   -0.7485   -0.1303 H   0  0  0  0  0  0  0  0  0  0  0  0
   -0.4368    1.1924   -0.4246 C   0  0  0  0  0  0  0  0  0  0  0  0
    0.5644    1.5545   -0.6647 H   0  0  0  0  0  0  0  0  0  0  0  0
   -0.9580    0.9899   -1.3614 H   0  0  0  0  0  0  0  0  0  0  0  0
   -1.1964    2.2985    0.3281 C   0  0  0  0  0  0  0  0  0  0  0  0
   -2.0894    2.5811   -0.2296 H   0  0  0  0  0  0  0  0  0  0  0  0
   -1.4913    1.9265    1.3086 H   0  0  0  0  0  0  0  0  0  0  0  0
   -0.3460    3.5482    0.5318 C   0  0  0  0  0  0  0  0  0  0  0  0
    0.8407    3.6396    0.2611 O   0  0  0  0  0  0  0  0  0  0  0  0
   -0.9872    4.6055    1.0635 O   0  0  0  0  0  0  0  0  0  0  0  0
   -0.3217    5.2918    1.1373 H   0  0  0  0  0  0  0  0  0  0  0  0
    0.1871    0.1189    1.8122 C   0  0  0  0  0  0  0  0  0  0  0  0
    1.3541   -0.1171    2.1187 O   0  0  0  0  0  0  0  0  0  0  0  0
   -0.7126    0.5740    2.6926 N   0  0  0  0  0  0  0  0  0  0  0  0
   -1.6464    0.7663    2.3621 H   0  0  0  0  0  0  0  0  0  0  0  0
   -0.4191    0.8310    4.1010 C   0  0  0  0  0  0  0  0  0  0  0  0
    0.4022    1.5452    4.1828 H   0  0  0  0  0  0  0  0  0  0  0  0
   -1.2983    1.2366    4.6035 H   0  0  0  0  0  0  0  0  0  0  0  0
   -0.1204   -0.0980    4.5907 H   0  0  0  0  0  0  0  0  0  0  0  0
  5  6  2  0  0  0  0
  5  7  1  0  0  0  0
  2  3  1  0  0  0  0
  2  4  1  0  0  0  0
  2  5  1  0  0  0  0
  1  2  1  0  0  0  0
 21 22  2  0  0  0  0
 21 23  1  0  0  0  0
 19 20  1  0  0  0  0
 17 18  2  0  0  0  0
 17 19  1  0  0  0  0
 14 15  1  0  0  0  0
 14 16  1  0  0  0  0
 14 17  1  0  0  0  0
 11 12  1  0  0  0  0
 11 13  1  0  0  0  0
 11 14  1  0  0  0  0
  9 10  1  0  0  0  0
  9 11  1  0  0  0  0
  9 21  1  0  0  0  0
  7  8  1  0  0  0  0
  7  9  1  0  0  0  0
 25 26  1  0  0  0  0
 25 27  1  0  0  0  0
 25 28  1  0  0  0  0
 23 24  1  0  0  0  0
 23 25  1  0  0  0  0
M  END
$$$$
default_name
  -OEChem-02102213163D

 28 27  0     1  0  0  0  0  0999 V2000
   -3.2133   -3.5565    1.2809 H   0  0  0  0  0  0  0  0  0  0  0  0
   -3.1873   -2.5755    0.8089 C   0  0  0  0  0  0  0  0  0  0  0  0
   -3.8793   -1.9065    1.3169 H   0  0  0  0  0  0  0  0  0  0  0  0
   -3.4623   -2.6685   -0.2401 H   0  0  0  0  0  0  0  0  0  0  0  0
   -1.7863   -2.0195    0.9119 C   0  0  0  0  0  0  0  0  0  0  0  0
   -0.9073   -2.6615    1.4699 O   0  0  0  0  0  0  0  0  0  0  0  0
   -1.5803   -0.8195    0.3749 N   0  0  0  0  0  0  0  0  0  0  0  0
   -2.3603   -0.3345   -0.0451 H   0  0  0  0  0  0  0  0  0  0  0  0
   -0.2933   -0.1205    0.3719 C   0  0  1  0  0  0  0  0  0  0  0  0
    0.4439   -0.7485   -0.1303 H   0  0  0  0  0  0  0  0  0  0  0  0
   -0.4368    1.1924   -0.4246 C   0  0  0  0  0  0  0  0  0  0  0  0
    0.5644    1.5545   -0.6647 H   0  0  0  0  0  0  0  0  0  0  0  0
   -0.9580    0.9899   -1.3614 H   0  0  0  0  0  0  0  0  0  0  0  0
   -1.1964    2.2985    0.3281 C   0  0  0  0  0  0  0  0  0  0  0  0
   -2.2048    2.3962   -0.0743 H   0  0  0  0  0  0  0  0  0  0  0  0
   -1.2577    2.0359    1.3836 H   0  0  0  0  0  0  0  0  0  0  0  0
   -0.5051    3.6535    0.2166 C   0  0  0  0  0  0  0  0  0  0  0  0
    0.5902    3.8415   -0.2883 O   0  0  0  0  0  0  0  0  0  0  0  0
   -1.1818    4.6943    0.7366 O   0  0  0  0  0  0  0  0  0  0  0  0
   -0.6156    5.4558    0.5997 H   0  0  0  0  0  0  0  0  0  0  0  0
    0.1871    0.1189    1.8122 C   0  0  0  0  0  0  0  0  0  0  0  0
    1.3541   -0.1171    2.1187 O   0  0  0  0  0  0  0  0  0  0  0  0
   -0.7126    0.5740    2.6926 N   0  0  0  0  0  0  0  0  0  0  0  0
   -1.6464    0.7663    2.3621 H   0  0  0  0  0  0  0  0  0  0  0  0
   -0.4191    0.8310    4.1010 C   0  0  0  0  0  0  0  0  0  0  0  0
    0.4022    1.5452    4.1828 H   0  0  0  0  0  0  0  0  0  0  0  0
   -1.2983    1.2366    4.6035 H   0  0  0  0  0  0  0  0  0  0  0  0
   -0.1204   -0.0980    4.5907 H   0  0  0  0  0  0  0  0  0  0  0  0
  5  6  2  0  0  0  0
  5  7  1  0  0  0  0
  2  3  1  0  0  0  0
  2  4  1  0  0  0  0
  2  5  1  0  0  0  0
  1  2  1  0  0  0  0
 21 22  2  0  0  0  0
 21 23  1  0  0  0  0
 19 20  1  0  0  0  0
 17 18  2  0  0  0  0
 17 19  1  0  0  0  0
 14 15  1  0  0  0  0
 14 16  1  0  0  0  0
 14 17  1  0  0  0  0
 11 12  1  0  0  0  0
 11 13  1  0  0  0  0
 11 14  1  0  0  0  0
  9 10  1  0  0  0  0
  9 11  1  0  0  0  0
  9 21  1  0  0  0  0
  7  8  1  0  0  0  0
  7  9  1  0  0  0  0
 25 26  1  0  0  0  0
 25 27  1  0  0  0  0
 25 28  1  0  0  0  0
 23 24  1  0  0  0  0
 23 25  1  0  0  0  0
M  END
$$$$
default_name
  -OEChem-02102213163D

 28 27  0     1  0  0  0  0  0999 V2000
   -3.2133   -3.5565    1.2809 H   0  0  0  0  0  0  0  0  0  0  0  0
   -3.1873   -2.5755    0.8089 C   0  0  0  0  0  0  0  0  0  0  0  0
   -3.8793   -1.9065    1.3169 H   0  0  0  0  0  0  0  0  0  0  0  0
   -3.4623   -2.6685   -0.2401 H   0  0  0  0  0  0  0  0  0  0  0  0
   -1.7863   -2.0195    0.9119 C   0  0  0  0  0  0  0  0  0  0  0  0
   -0.9073   -2.6615    1.4699 O   0  0  0  0  0  0  0  0  0  0  0  0
   -1.5803   -0.8195    0.3749 N   0  0  0  0  0  0  0  0  0  0  0  0
   -2.3603   -0.3345   -0.0451 H   0  0  0  0  0  0  0  0  0  0  0  0
   -0.2933   -0.1205    0.3719 C   0  0  1  0  0  0  0  0  0  0  0  0
    0.4439   -0.7485   -0.1303 H   0  0  0  0  0  0  0  0  0  0  0  0
   -0.4368    1.1924   -0.4246 C   0  0  0  0  0  0  0  0  0  0  0  0
    0.5644    1.5545   -0.6647 H   0  0  0  0  0  0  0  0  0  0  0  0
   -0.9580    0.9899   -1.3614 H   0  0  0  0  0  0  0  0  0  0  0  0
   -1.1964    2.2985    0.3281 C   0  0  0  0  0  0  0  0  0  0  0  0
   -2.2639    2.2229    0.1207 H   0  0  0  0  0  0  0  0  0  0  0  0
   -1.0320    2.1807    1.3985 H   0  0  0  0  0  0  0  0  0  0  0  0
   -0.7307    3.6948   -0.0718 C   0  0  0  0  0  0  0  0  0  0  0  0
    0.2205    3.9346   -0.7981 O   0  0  0  0  0  0  0  0  0  0  0  0
   -1.4419    4.7136    0.4457 O   0  0  0  0  0  0  0  0  0  0  0  0
   -1.0202    5.5083    0.1141 H   0  0  0  0  0  0  0  0  0  0  0  0
    0.1871    0.1189    1.8122 C   0  0  0  0  0  0  0  0  0  0  0  0
    1.3541   -0.1171    2.1187 O   0  0  0  0  0  0  0  0  0  0  0  0
   -0.7126    0.5740    2.6926 N   0  0  0  0  0  0  0  0  0  0  0  0
   -1.6464    0.7663    2.3621 H   0  0  0  0  0  0  0  0  0  0  0  0
   -0.4191    0.8310    4.1010 C   0  0  0  0  0  0  0  0  0  0  0  0
    0.4022    1.5452    4.1828 H   0  0  0  0  0  0  0  0  0  0  0  0
   -1.2983    1.2366    4.6035 H   0  0  0  0  0  0  0  0  0  0  0  0
   -0.1204   -0.0980    4.5907 H   0  0  0  0  0  0  0  0  0  0  0  0
  5  6  2  0  0  0  0
  5  7  1  0  0  0  0
  2  3  1  0  0  0  0
  2  4  1  0  0  0  0
  2  5  1  0  0  0  0
  1  2  1  0  0  0  0
 21 22  2  0  0  0  0
 21 23  1  0  0  0  0
 19 20  1  0  0  0  0
 17 18  2  0  0  0  0
 17 19  1  0  0  0  0
 14 15  1  0  0  0  0
 14 16  1  0  0  0  0
 14 17  1  0  0  0  0
 11 12  1  0  0  0  0
 11 13  1  0  0  0  0
 11 14  1  0  0  0  0
  9 10  1  0  0  0  0
  9 11  1  0  0  0  0
  9 21  1  0  0  0  0
  7  8  1  0  0  0  0
  7  9  1  0  0  0  0
 25 26  1  0  0  0  0
 25 27  1  0  0  0  0
 25 28  1  0  0  0  0
 23 24  1  0  0  0  0
 23 25  1  0  0  0  0
M  END
$$$$
default_name
  -OEChem-02102213163D

 28 27  0     1  0  0  0  0  0999 V2000
   -3.2133   -3.5565    1.2809 H   0  0  0  0  0  0  0  0  0  0  0  0
   -3.1873   -2.5755    0.8089 C   0  0  0  0  0  0  0  0  0  0  0  0
   -3.8793   -1.9065    1.3169 H   0  0  0  0  0  0  0  0  0  0  0  0
   -3.4623   -2.6685   -0.2401 H   0  0  0  0  0  0  0  0  0  0  0  0
   -1.7863   -2.0195    0.9119 C   0  0  0  0  0  0  0  0  0  0  0  0
   -0.9073   -2.6615    1.4699 O   0  0  0  0  0  0  0  0  0  0  0  0
   -1.5803   -0.8195    0.3749 N   0  0  0  0  0  0  0  0  0  0  0  0
   -2.3603   -0.3345   -0.0451 H   0  0  0  0  0  0  0  0  0  0  0  0
   -0.2933   -0.1205    0.3719 C   0  0  1  0  0  0  0  0  0  0  0  0
    0.4439   -0.7485   -0.1303 H   0  0  0  0  0  0  0  0  0  0  0  0
   -0.4368    1.1924   -0.4246 C   0  0  0  0  0  0  0  0  0  0  0  0
    0.5644    1.5545   -0.6647 H   0  0  0  0  0  0  0  0  0  0  0  0
   -0.9580    0.9899   -1.3614 H   0  0  0  0  0  0  0  0  0  0  0  0
   -1.1964    2.2985    0.3281 C   0  0  0  0  0  0  0  0  0  0  0  0
   -2.2628    2.0729    0.3422 H   0  0  0  0  0  0  0  0  0  0  0  0
   -0.8295    2.3511    1.3525 H   0  0  0  0  0  0  0  0  0  0  0  0
   -1.0075    3.6692   -0.3136 C   0  0  0  0  0  0  0  0  0  0  0  0
   -0.2432    3.9125   -1.2337 O   0  0  0  0  0  0  0  0  0  0  0  0
   -1.7497    4.6622    0.2107 O   0  0  0  0  0  0  0  0  0  0  0  0
   -1.5081    5.4457   -0.2863 H   0  0  0  0  0  0  0  0  0  0  0  0
    0.1871    0.1189    1.8122 C   0  0  0  0  0  0  0  0  0  0  0  0
    1.3541   -0.1171    2.1187 O   0  0  0  0  0  0  0  0  0  0  0  0
   -0.7126    0.5740    2.6926 N   0  0  0  0  0  0  0  0  0  0  0  0
   -1.6464    0.7663    2.3621 H   0  0  0  0  0  0  0  0  0  0  0  0
   -0.4191    0.8310    4.1010 C   0  0  0  0  0  0  0  0  0  0  0  0
    0.4022    1.5452    4.1828 H   0  0  0  0  0  0  0  0  0  0  0  0
   -1.2983    1.2366    4.6035 H   0  0  0  0  0  0  0  0  0  0  0  0
   -0.1204   -0.0980    4.5907 H   0  0  0  0  0  0  0  0  0  0  0  0
  5  6  2  0  0  0  0
  5  7  1  0  0  0  0
  2  3  1  0  0  0  0
  2  4  1  0  0  0  0
  2  5  1  0  0  0  0
  1  2  1  0  0  0  0
 21 22  2  0  0  0  0
 21 23  1  0  0  0  0
 19 20  1  0  0  0  0
 17 18  2  0  0  0  0
 17 19  1  0  0  0  0
 14 15  1  0  0  0  0
 14 16  1  0  0  0  0
 14 17  1  0  0  0  0
 11 12  1  0  0  0  0
 11 13  1  0  0  0  0
 11 14  1  0  0  0  0
  9 10  1  0  0  0  0
  9 11  1  0  0  0  0
  9 21  1  0  0  0  0
  7  8  1  0  0  0  0
  7  9  1  0  0  0  0
 25 26  1  0  0  0  0
 25 27  1  0  0  0  0
 25 28  1  0  0  0  0
 23 24  1  0  0  0  0
 23 25  1  0  0  0  0
M  END
$$$$
default_name
  -OEChem-02102213163D

 28 27  0     1  0  0  0  0  0999 V2000
   -3.2133   -3.5565    1.2809 H   0  0  0  0  0  0  0  0  0  0  0  0
   -3.1873   -2.5755    0.8089 C   0  0  0  0  0  0  0  0  0  0  0  0
   -3.8793   -1.9065    1.3169 H   0  0  0  0  0  0  0  0  0  0  0  0
   -3.4623   -2.6685   -0.2401 H   0  0  0  0  0  0  0  0  0  0  0  0
   -1.7863   -2.0195    0.9119 C   0  0  0  0  0  0  0  0  0  0  0  0
   -0.9073   -2.6615    1.4699 O   0  0  0  0  0  0  0  0  0  0  0  0
   -1.5803   -0.8195    0.3749 N   0  0  0  0  0  0  0  0  0  0  0  0
   -2.3603   -0.3345   -0.0451 H   0  0  0  0  0  0  0  0  0  0  0  0
   -0.2933   -0.1205    0.3719 C   0  0  1  0  0  0  0  0  0  0  0  0
    0.4439   -0.7485   -0.1303 H   0  0  0  0  0  0  0  0  0  0  0  0
   -0.4368    1.1924   -0.4246 C   0  0  0  0  0  0  0  0  0  0  0  0
    0.5247    1.4124   -0.8918 H   0  0  0  0  0  0  0  0  0  0  0  0
   -1.1748    1.0544   -1.2161 H   0  0  0  0  0  0  0  0  0  0  0  0
   -0.8588    2.3986    0.4322 C   0  0  0  0  0  0  0  0  0  0  0  0
   -1.8199    2.1990    0.9063 H   0  0  0  0  0  0  0  0  0  0  0  0
   -0.1092    2.5691    1.2040 H   0  0  0  0  0  0  0  0  0  0  0  0
   -0.9894    3.6756   -0.3916 C   0  0  0  0  0  0  0  0  0  0  0  0
   -0.6729    3.7875   -1.5651 O   0  0  0  0  0  0  0  0  0  0  0  0
   -1.4849    4.7410    0.2651 O   0  0  0  0  0  0  0  0  0  0  0  0
   -1.4904    5.4521   -0.3780 H   0  0  0  0  0  0  0  0  0  0  0  0
    0.1871    0.1189    1.8122 C   0  0  0  0  0  0  0  0  0  0  0  0
    1.3541   -0.1171    2.1187 O   0  0  0  0  0  0  0  0  0  0  0  0
   -0.7126    0.5740    2.6926 N   0  0  0  0  0  0  0  0  0  0  0  0
   -1.6464    0.7663    2.3621 H   0  0  0  0  0  0  0  0  0  0  0  0
   -0.4191    0.8310    4.1010 C   0  0  0  0  0  0  0  0  0  0  0  0
    0.4022    1.5452    4.1828 H   0  0  0  0  0  0  0  0  0  0  0  0
   -1.2983    1.2366    4.6035 H   0  0  0  0  0  0  0  0  0  0  0  0
   -0.1204   -0.0980    4.5907 H   0  0  0  0  0  0  0  0  0  0  0  0
  5  6  2  0  0  0  0
  5  7  1  0  0  0  0
  2  3  1  0  0  0  0
  2  4  1  0  0  0  0
  2  5  1  0  0  0  0
  1  2  1  0  0  0  0
 21 22  2  0  0  0  0
 21 23  1  0  0  0  0
 19 20  1  0  0  0  0
 17 18  2  0  0  0  0
 17 19  1  0  0  0  0
 14 15  1  0  0  0  0
 14 16  1  0  0  0  0
 14 17  1  0  0  0  0
 11 12  1  0  0  0  0
 11 13  1  0  0  0  0
 11 14  1  0  0  0  0
  9 10  1  0  0  0  0
  9 11  1  0  0  0  0
  9 21  1  0  0  0  0
  7  8  1  0  0  0  0
  7  9  1  0  0  0  0
 25 26  1  0  0  0  0
 25 27  1  0  0  0  0
 25 28  1  0  0  0  0
 23 24  1  0  0  0  0
 23 25  1  0  0  0  0
M  END
$$$$
default_name
  -OEChem-02102213163D

 28 27  0     1  0  0  0  0  0999 V2000
   -3.2133   -3.5565    1.2809 H   0  0  0  0  0  0  0  0  0  0  0  0
   -3.1873   -2.5755    0.8089 C   0  0  0  0  0  0  0  0  0  0  0  0
   -3.8793   -1.9065    1.3169 H   0  0  0  0  0  0  0  0  0  0  0  0
   -3.4623   -2.6685   -0.2401 H   0  0  0  0  0  0  0  0  0  0  0  0
   -1.7863   -2.0195    0.9119 C   0  0  0  0  0  0  0  0  0  0  0  0
   -0.9073   -2.6615    1.4699 O   0  0  0  0  0  0  0  0  0  0  0  0
   -1.5803   -0.8195    0.3749 N   0  0  0  0  0  0  0  0  0  0  0  0
   -2.3603   -0.3345   -0.0451 H   0  0  0  0  0  0  0  0  0  0  0  0
   -0.2933   -0.1205    0.3719 C   0  0  1  0  0  0  0  0  0  0  0  0
    0.4439   -0.7485   -0.1303 H   0  0  0  0  0  0  0  0  0  0  0  0
   -0.4368    1.1924   -0.4246 C   0  0  0  0  0  0  0  0  0  0  0  0
    0.5247    1.4124   -0.8918 H   0  0  0  0  0  0  0  0  0  0  0  0
   -1.1748    1.0544   -1.2161 H   0  0  0  0  0  0  0  0  0  0  0  0
   -0.8588    2.3986    0.4322 C   0  0  0  0  0  0  0  0  0  0  0  0
   -1.6657    2.1109    1.1063 H   0  0  0  0  0  0  0  0  0  0  0  0
   -0.0060    2.7357    1.0203 H   0  0  0  0  0  0  0  0  0  0  0  0
   -1.3416    3.5702   -0.4167 C   0  0  0  0  0  0  0  0  0  0  0  0
   -1.2840    3.6232   -1.6348 O   0  0  0  0  0  0  0  0  0  0  0  0
   -1.8530    4.6102    0.2678 O   0  0  0  0  0  0  0  0  0  0  0  0
   -2.0932    5.2560   -0.3989 H   0  0  0  0  0  0  0  0  0  0  0  0
    0.1871    0.1189    1.8122 C   0  0  0  0  0  0  0  0  0  0  0  0
    1.3541   -0.1171    2.1187 O   0  0  0  0  0  0  0  0  0  0  0  0
   -0.7126    0.5740    2.6926 N   0  0  0  0  0  0  0  0  0  0  0  0
   -1.6464    0.7663    2.3621 H   0  0  0  0  0  0  0  0  0  0  0  0
   -0.4191    0.8310    4.1010 C   0  0  0  0  0  0  0  0  0  0  0  0
    0.4022    1.5452    4.1828 H   0  0  0  0  0  0  0  0  0  0  0  0
   -1.2983    1.2366    4.6035 H   0  0  0  0  0  0  0  0  0  0  0  0
   -0.1204   -0.0980    4.5907 H   0  0  0  0  0  0  0  0  0  0  0  0
  5  6  2  0  0  0  0
  5  7  1  0  0  0  0
  2  3  1  0  0  0  0
  2  4  1  0  0  0  0
  2  5  1  0  0  0  0
  1  2  1  0  0  0  0
 21 22  2  0  0  0  0
 21 23  1  0  0  0  0
 19 20  1  0  0  0  0
 17 18  2  0  0  0  0
 17 19  1  0  0  0  0
 14 15  1  0  0  0  0
 14 16  1  0  0  0  0
 14 17  1  0  0  0  0
 11 12  1  0  0  0  0
 11 13  1  0  0  0  0
 11 14  1  0  0  0  0
  9 10  1  0  0  0  0
  9 11  1  0  0  0  0
  9 21  1  0  0  0  0
  7  8  1  0  0  0  0
  7  9  1  0  0  0  0
 25 26  1  0  0  0  0
 25 27  1  0  0  0  0
 25 28  1  0  0  0  0
 23 24  1  0  0  0  0
 23 25  1  0  0  0  0
M  END
$$$$
default_name
  -OEChem-02102213163D

 28 27  0     1  0  0  0  0  0999 V2000
   -3.2133   -3.5565    1.2809 H   0  0  0  0  0  0  0  0  0  0  0  0
   -3.1873   -2.5755    0.8089 C   0  0  0  0  0  0  0  0  0  0  0  0
   -3.8793   -1.9065    1.3169 H   0  0  0  0  0  0  0  0  0  0  0  0
   -3.4623   -2.6685   -0.2401 H   0  0  0  0  0  0  0  0  0  0  0  0
   -1.7863   -2.0195    0.9119 C   0  0  0  0  0  0  0  0  0  0  0  0
   -0.9073   -2.6615    1.4699 O   0  0  0  0  0  0  0  0  0  0  0  0
   -1.5803   -0.8195    0.3749 N   0  0  0  0  0  0  0  0  0  0  0  0
   -2.3603   -0.3345   -0.0451 H   0  0  0  0  0  0  0  0  0  0  0  0
   -0.2933   -0.1205    0.3719 C   0  0  1  0  0  0  0  0  0  0  0  0
    0.4439   -0.7485   -0.1303 H   0  0  0  0  0  0  0  0  0  0  0  0
   -0.4368    1.1924   -0.4246 C   0  0  0  0  0  0  0  0  0  0  0  0
    0.5247    1.4124   -0.8918 H   0  0  0  0  0  0  0  0  0  0  0  0
   -1.1748    1.0544   -1.2161 H   0  0  0  0  0  0  0  0  0  0  0  0
   -0.8588    2.3986    0.4322 C   0  0  0  0  0  0  0  0  0  0  0  0
   -1.4634    2.0622    1.2746 H   0  0  0  0  0  0  0  0  0  0  0  0
    0.0323    2.8984    0.8100 H   0  0  0  0  0  0  0  0  0  0  0  0
   -1.6717    3.4159   -0.3620 C   0  0  0  0  0  0  0  0  0  0  0  0
   -1.8647    3.3714   -1.5664 O   0  0  0  0  0  0  0  0  0  0  0  0
   -2.1892    4.4310    0.3544 O   0  0  0  0  0  0  0  0  0  0  0  0
   -2.6515    4.9782   -0.2829 H   0  0  0  0  0  0  0  0  0  0  0  0
    0.1871    0.1189    1.8122 C   0  0  0  0  0  0  0  0  0  0  0  0
    1.3541   -0.1171    2.1187 O   0  0  0  0  0  0  0  0  0  0  0  0
   -0.7126    0.5740    2.6926 N   0  0  0  0  0  0  0  0  0  0  0  0
   -1.6464    0.7663    2.3621 H   0  0  0  0  0  0  0  0  0  0  0  0
   -0.4191    0.8310    4.1010 C   0  0  0  0  0  0  0  0  0  0  0  0
    0.4022    1.5452    4.1828 H   0  0  0  0  0  0  0  0  0  0  0  0
   -1.2983    1.2366    4.6035 H   0  0  0  0  0  0  0  0  0  0  0  0
   -0.1204   -0.0980    4.5907 H   0  0  0  0  0  0  0  0  0  0  0  0
  5  6  2  0  0  0  0
  5  7  1  0  0  0  0
  2  3  1  0  0  0  0
  2  4  1  0  0  0  0
  2  5  1  0  0  0  0
  1  2  1  0  0  0  0
 21 22  2  0  0  0  0
 21 23  1  0  0  0  0
 19 20  1  0  0  0  0
 17 18  2  0  0  0  0
 17 19  1  0  0  0  0
 14 15  1  0  0  0  0
 14 16  1  0  0  0  0
 14 17  1  0  0  0  0
 11 12  1  0  0  0  0
 11 13  1  0  0  0  0
 11 14  1  0  0  0  0
  9 10  1  0  0  0  0
  9 11  1  0  0  0  0
  9 21  1  0  0  0  0
  7  8  1  0  0  0  0
  7  9  1  0  0  0  0
 25 26  1  0  0  0  0
 25 27  1  0  0  0  0
 25 28  1  0  0  0  0
 23 24  1  0  0  0  0
 23 25  1  0  0  0  0
M  END
$$$$
default_name
  -OEChem-02102213163D

 28 27  0     1  0  0  0  0  0999 V2000
   -3.2133   -3.5565    1.2809 H   0  0  0  0  0  0  0  0  0  0  0  0
   -3.1873   -2.5755    0.8089 C   0  0  0  0  0  0  0  0  0  0  0  0
   -3.8793   -1.9065    1.3169 H   0  0  0  0  0  0  0  0  0  0  0  0
   -3.4623   -2.6685   -0.2401 H   0  0  0  0  0  0  0  0  0  0  0  0
   -1.7863   -2.0195    0.9119 C   0  0  0  0  0  0  0  0  0  0  0  0
   -0.9073   -2.6615    1.4699 O   0  0  0  0  0  0  0  0  0  0  0  0
   -1.5803   -0.8195    0.3749 N   0  0  0  0  0  0  0  0  0  0  0  0
   -2.3603   -0.3345   -0.0451 H   0  0  0  0  0  0  0  0  0  0  0  0
   -0.2933   -0.1205    0.3719 C   0  0  1  0  0  0  0  0  0  0  0  0
    0.4439   -0.7485   -0.1303 H   0  0  0  0  0  0  0  0  0  0  0  0
   -0.4368    1.1924   -0.4246 C   0  0  0  0  0  0  0  0  0  0  0  0
    0.5247    1.4124   -0.8918 H   0  0  0  0  0  0  0  0  0  0  0  0
   -1.1748    1.0544   -1.2161 H   0  0  0  0  0  0  0  0  0  0  0  0
   -0.8588    2.3986    0.4322 C   0  0  0  0  0  0  0  0  0  0  0  0
   -1.2269    2.0562    1.3995 H   0  0  0  0  0  0  0  0  0  0  0  0
    0.0032    3.0462    0.5877 H   0  0  0  0  0  0  0  0  0  0  0  0
   -1.9572    3.2231   -0.2313 C   0  0  0  0  0  0  0  0  0  0  0  0
   -2.3755    3.0494   -1.3647 O   0  0  0  0  0  0  0  0  0  0  0  0
   -2.4705    4.2156    0.5190 O   0  0  0  0  0  0  0  0  0  0  0  0
   -3.1271    4.6377   -0.0378 H   0  0  0  0  0  0  0  0  0  0  0  0
    0.1871    0.1189    1.8122 C   0  0  0  0  0  0  0  0  0  0  0  0
    1.3541   -0.1171    2.1187 O   0  0  0  0  0  0  0  0  0  0  0  0
   -0.7126    0.5740    2.6926 N   0  0  0  0  0  0  0  0  0  0  0  0
   -1.6464    0.7663    2.3621 H   0  0  0  0  0  0  0  0  0  0  0  0
   -0.4191    0.8310    4.1010 C   0  0  0  0  0  0  0  0  0  0  0  0
    0.4022    1.5452    4.1828 H   0  0  0  0  0  0  0  0  0  0  0  0
   -1.2983    1.2366    4.6035 H   0  0  0  0  0  0  0  0  0  0  0  0
   -0.1204   -0.0980    4.5907 H   0  0  0  0  0  0  0  0  0  0  0  0
  5  6  2  0  0  0  0
  5  7  1  0  0  0  0
  2  3  1  0  0  0  0
  2  4  1  0  0  0  0
  2  5  1  0  0  0  0
  1  2  1  0  0  0  0
 21 22  2  0  0  0  0
 21 23  1  0  0  0  0
 19 20  1  0  0  0  0
 17 18  2  0  0  0  0
 17 19  1  0  0  0  0
 14 15  1  0  0  0  0
 14 16  1  0  0  0  0
 14 17  1  0  0  0  0
 11 12  1  0  0  0  0
 11 13  1  0  0  0  0
 11 14  1  0  0  0  0
  9 10  1  0  0  0  0
  9 11  1  0  0  0  0
  9 21  1  0  0  0  0
  7  8  1  0  0  0  0
  7  9  1  0  0  0  0
 25 26  1  0  0  0  0
 25 27  1  0  0  0  0
 25 28  1  0  0  0  0
 23 24  1  0  0  0  0
 23 25  1  0  0  0  0
M  END
$$$$
default_name
  -OEChem-02102213163D

 28 27  0     1  0  0  0  0  0999 V2000
   -3.2133   -3.5565    1.2809 H   0  0  0  0  0  0  0  0  0  0  0  0
   -3.1873   -2.5755    0.8089 C   0  0  0  0  0  0  0  0  0  0  0  0
   -3.8793   -1.9065    1.3169 H   0  0  0  0  0  0  0  0  0  0  0  0
   -3.4623   -2.6685   -0.2401 H   0  0  0  0  0  0  0  0  0  0  0  0
   -1.7863   -2.0195    0.9119 C   0  0  0  0  0  0  0  0  0  0  0  0
   -0.9073   -2.6615    1.4699 O   0  0  0  0  0  0  0  0  0  0  0  0
   -1.5803   -0.8195    0.3749 N   0  0  0  0  0  0  0  0  0  0  0  0
   -2.3603   -0.3345   -0.0451 H   0  0  0  0  0  0  0  0  0  0  0  0
   -0.2933   -0.1205    0.3719 C   0  0  1  0  0  0  0  0  0  0  0  0
    0.4439   -0.7485   -0.1303 H   0  0  0  0  0  0  0  0  0  0  0  0
   -0.4368    1.1924   -0.4246 C   0  0  0  0  0  0  0  0  0  0  0  0
    0.5247    1.4124   -0.8918 H   0  0  0  0  0  0  0  0  0  0  0  0
   -1.1748    1.0544   -1.2161 H   0  0  0  0  0  0  0  0  0  0  0  0
   -0.8588    2.3986    0.4322 C   0  0  0  0  0  0  0  0  0  0  0  0
   -0.9722    2.0934    1.4725 H   0  0  0  0  0  0  0  0  0  0  0  0
   -0.0914    3.1690    0.3683 H   0  0  0  0  0  0  0  0  0  0  0  0
   -2.1786    3.0050   -0.0334 C   0  0  0  0  0  0  0  0  0  0  0  0
   -2.7815    2.6790   -1.0434 O   0  0  0  0  0  0  0  0  0  0  0  0
   -2.6778    3.9787    0.7504 O   0  0  0  0  0  0  0  0  0  0  0  0
   -3.4877    4.2576    0.3196 H   0  0  0  0  0  0  0  0  0  0  0  0
    0.1871    0.1189    1.8122 C   0  0  0  0  0  0  0  0  0  0  0  0
    1.3541   -0.1171    2.1187 O   0  0  0  0  0  0  0  0  0  0  0  0
   -0.7126    0.5740    2.6926 N   0  0  0  0  0  0  0  0  0  0  0  0
   -1.6464    0.7663    2.3621 H   0  0  0  0  0  0  0  0  0  0  0  0
   -0.4191    0.8310    4.1010 C   0  0  0  0  0  0  0  0  0  0  0  0
    0.4022    1.5452    4.1828 H   0  0  0  0  0  0  0  0  0  0  0  0
   -1.2983    1.2366    4.6035 H   0  0  0  0  0  0  0  0  0  0  0  0
   -0.1204   -0.0980    4.5907 H   0  0  0  0  0  0  0  0  0  0  0  0
  5  6  2  0  0  0  0
  5  7  1  0  0  0  0
  2  3  1  0  0  0  0
  2  4  1  0  0  0  0
  2  5  1  0  0  0  0
  1  2  1  0  0  0  0
 21 22  2  0  0  0  0
 21 23  1  0  0  0  0
 19 20  1  0  0  0  0
 17 18  2  0  0  0  0
 17 19  1  0  0  0  0
 14 15  1  0  0  0  0
 14 16  1  0  0  0  0
 14 17  1  0  0  0  0
 11 12  1  0  0  0  0
 11 13  1  0  0  0  0
 11 14  1  0  0  0  0
  9 10  1  0  0  0  0
  9 11  1  0  0  0  0
  9 21  1  0  0  0  0
  7  8  1  0  0  0  0
  7  9  1  0  0  0  0
 25 26  1  0  0  0  0
 25 27  1  0  0  0  0
 25 28  1  0  0  0  0
 23 24  1  0  0  0  0
 23 25  1  0  0  0  0
M  END
$$$$
default_name
  -OEChem-02102213163D

 28 27  0     1  0  0  0  0  0999 V2000
   -3.2133   -3.5565    1.2809 H   0  0  0  0  0  0  0  0  0  0  0  0
   -3.1873   -2.5755    0.8089 C   0  0  0  0  0  0  0  0  0  0  0  0
   -3.8793   -1.9065    1.3169 H   0  0  0  0  0  0  0  0  0  0  0  0
   -3.4623   -2.6685   -0.2401 H   0  0  0  0  0  0  0  0  0  0  0  0
   -1.7863   -2.0195    0.9119 C   0  0  0  0  0  0  0  0  0  0  0  0
   -0.9073   -2.6615    1.4699 O   0  0  0  0  0  0  0  0  0  0  0  0
   -1.5803   -0.8195    0.3749 N   0  0  0  0  0  0  0  0  0  0  0  0
   -2.3603   -0.3345   -0.0451 H   0  0  0  0  0  0  0  0  0  0  0  0
   -0.2933   -0.1205    0.3719 C   0  0  1  0  0  0  0  0  0  0  0  0
    0.4439   -0.7485   -0.1303 H   0  0  0  0  0  0  0  0  0  0  0  0
   -0.4368    1.1924   -0.4246 C   0  0  0  0  0  0  0  0  0  0  0  0
    0.5247    1.4124   -0.8918 H   0  0  0  0  0  0  0  0  0  0  0  0
   -1.1748    1.0544   -1.2161 H   0  0  0  0  0  0  0  0  0  0  0  0
   -0.8588    2.3986    0.4322 C   0  0  0  0  0  0  0  0  0  0  0  0
   -0.7168    2.1712    1.4888 H   0  0  0  0  0  0  0  0  0  0  0  0
   -0.2449    3.2584    0.1668 H   0  0  0  0  0  0  0  0  0  0  0  0
   -2.3210    2.7765    0.2182 C   0  0  0  0  0  0  0  0  0  0  0  0
   -3.0552    2.2855   -0.6243 O   0  0  0  0  0  0  0  0  0  0  0  0
   -2.7969    3.7364    1.0328 O   0  0  0  0  0  0  0  0  0  0  0  0
   -3.7087    3.8638    0.7650 H   0  0  0  0  0  0  0  0  0  0  0  0
    0.1871    0.1189    1.8122 C   0  0  0  0  0  0  0  0  0  0  0  0
    1.3541   -0.1171    2.1187 O   0  0  0  0  0  0  0  0  0  0  0  0
   -0.7126    0.5740    2.6926 N   0  0  0  0  0  0  0  0  0  0  0  0
   -1.6464    0.7663    2.3621 H   0  0  0  0  0  0  0  0  0  0  0  0
   -0.4191    0.8310    4.1010 C   0  0  0  0  0  0  0  0  0  0  0  0
    0.4022    1.5452    4.1828 H   0  0  0  0  0  0  0  0  0  0  0  0
   -1.2983    1.2366    4.6035 H   0  0  0  0  0  0  0  0  0  0  0  0
   -0.1204   -0.0980    4.5907 H   0  0  0  0  0  0  0  0  0  0  0  0
  5  6  2  0  0  0  0
  5  7  1  0  0  0  0
  2  3  1  0  0  0  0
  2  4  1  0  0  0  0
  2  5  1  0  0  0  0
  1  2  1  0  0  0  0
 21 22  2  0  0  0  0
 21 23  1  0  0  0  0
 19 20  1  0  0  0  0
 17 18  2  0  0  0  0
 17 19  1  0  0  0  0
 14 15  1  0  0  0  0
 14 16  1  0  0  0  0
 14 17  1  0  0  0  0
 11 12  1  0  0  0  0
 11 13  1  0  0  0  0
 11 14  1  0  0  0  0
  9 10  1  0  0  0  0
  9 11  1  0  0  0  0
  9 21  1  0  0  0  0
  7  8  1  0  0  0  0
  7  9  1  0  0  0  0
 25 26  1  0  0  0  0
 25 27  1  0  0  0  0
 25 28  1  0  0  0  0
 23 24  1  0  0  0  0
 23 25  1  0  0  0  0
M  END
$$$$
default_name
  -OEChem-02102213163D

 28 27  0     1  0  0  0  0  0999 V2000
   -3.2133   -3.5565    1.2809 H   0  0  0  0  0  0  0  0  0  0  0  0
   -3.1873   -2.5755    0.8089 C   0  0  0  0  0  0  0  0  0  0  0  0
   -3.8793   -1.9065    1.3169 H   0  0  0  0  0  0  0  0  0  0  0  0
   -3.4623   -2.6685   -0.2401 H   0  0  0  0  0  0  0  0  0  0  0  0
   -1.7863   -2.0195    0.9119 C   0  0  0  0  0  0  0  0  0  0  0  0
   -0.9073   -2.6615    1.4699 O   0  0  0  0  0  0  0  0  0  0  0  0
   -1.5803   -0.8195    0.3749 N   0  0  0  0  0  0  0  0  0  0  0  0
   -2.3603   -0.3345   -0.0451 H   0  0  0  0  0  0  0  0  0  0  0  0
   -0.2933   -0.1205    0.3719 C   0  0  1  0  0  0  0  0  0  0  0  0
    0.4439   -0.7485   -0.1303 H   0  0  0  0  0  0  0  0  0  0  0  0
   -0.4368    1.1924   -0.4246 C   0  0  0  0  0  0  0  0  0  0  0  0
    0.5247    1.4124   -0.8918 H   0  0  0  0  0  0  0  0  0  0  0  0
   -1.1748    1.0544   -1.2161 H   0  0  0  0  0  0  0  0  0  0  0  0
   -0.8588    2.3986    0.4322 C   0  0  0  0  0  0  0  0  0  0  0  0
   -0.4779    2.2844    1.4472 H   0  0  0  0  0  0  0  0  0  0  0  0
   -0.4469    3.3083   -0.0030 H   0  0  0  0  0  0  0  0  0  0  0  0
   -2.3745    2.5531    0.5063 C   0  0  0  0  0  0  0  0  0  0  0  0
   -3.1777    1.8958   -0.1361 O   0  0  0  0  0  0  0  0  0  0  0  0
   -2.8198    3.5053    1.3469 O   0  0  0  0  0  0  0  0  0  0  0  0
   -3.7751    3.4832    1.2680 H   0  0  0  0  0  0  0  0  0  0  0  0
    0.1871    0.1189    1.8122 C   0  0  0  0  0  0  0  0  0  0  0  0
    1.3541   -0.1171    2.1187 O   0  0  0  0  0  0  0  0  0  0  0  0
   -0.7126    0.5740    2.6926 N   0  0  0  0  0  0  0  0  0  0  0  0
   -1.6464    0.7663    2.3621 H   0  0  0  0  0  0  0  0  0  0  0  0
   -0.4191    0.8310    4.1010 C   0  0  0  0  0  0  0  0  0  0  0  0
    0.4022    1.5452    4.1828 H   0  0  0  0  0  0  0  0  0  0  0  0
   -1.2983    1.2366    4.6035 H   0  0  0  0  0  0  0  0  0  0  0  0
   -0.1204   -0.0980    4.5907 H   0  0  0  0  0  0  0  0  0  0  0  0
  5  6  2  0  0  0  0
  5  7  1  0  0  0  0
  2  3  1  0  0  0  0
  2  4  1  0  0  0  0
  2  5  1  0  0  0  0
  1  2  1  0  0  0  0
 21 22  2  0  0  0  0
 21 23  1  0  0  0  0
 19 20  1  0  0  0  0
 17 18  2  0  0  0  0
 17 19  1  0  0  0  0
 14 15  1  0  0  0  0
 14 16  1  0  0  0  0
 14 17  1  0  0  0  0
 11 12  1  0  0  0  0
 11 13  1  0  0  0  0
 11 14  1  0  0  0  0
  9 10  1  0  0  0  0
  9 11  1  0  0  0  0
  9 21  1  0  0  0  0
  7  8  1  0  0  0  0
  7  9  1  0  0  0  0
 25 26  1  0  0  0  0
 25 27  1  0  0  0  0
 25 28  1  0  0  0  0
 23 24  1  0  0  0  0
 23 25  1  0  0  0  0
M  END
$$$$
default_name
  -OEChem-02102213163D

 28 27  0     1  0  0  0  0  0999 V2000
   -3.2133   -3.5565    1.2809 H   0  0  0  0  0  0  0  0  0  0  0  0
   -3.1873   -2.5755    0.8089 C   0  0  0  0  0  0  0  0  0  0  0  0
   -3.8793   -1.9065    1.3169 H   0  0  0  0  0  0  0  0  0  0  0  0
   -3.4623   -2.6685   -0.2401 H   0  0  0  0  0  0  0  0  0  0  0  0
   -1.7863   -2.0195    0.9119 C   0  0  0  0  0  0  0  0  0  0  0  0
   -0.9073   -2.6615    1.4699 O   0  0  0  0  0  0  0  0  0  0  0  0
   -1.5803   -0.8195    0.3749 N   0  0  0  0  0  0  0  0  0  0  0  0
   -2.3603   -0.3345   -0.0451 H   0  0  0  0  0  0  0  0  0  0  0  0
   -0.2933   -0.1205    0.3719 C   0  0  1  0  0  0  0  0  0  0  0  0
    0.4439   -0.7485   -0.1303 H   0  0  0  0  0  0  0  0  0  0  0  0
   -0.4368    1.1924   -0.4246 C   0  0  0  0  0  0  0  0  0  0  0  0
    0.5247    1.4124   -0.8918 H   0  0  0  0  0  0  0  0  0  0  0  0
   -1.1748    1.0544   -1.2161 H   0  0  0  0  0  0  0  0  0  0  0  0
   -0.8588    2.3986    0.4322 C   0  0  0  0  0  0  0  0  0  0  0  0
   -0.2720    2.4252    1.3504 H   0  0  0  0  0  0  0  0  0  0  0  0
   -0.6838    3.3154   -0.1295 H   0  0  0  0  0  0  0  0  0  0  0  0
   -2.3355    2.3501    0.8113 C   0  0  0  0  0  0  0  0  0  0  0  0
   -3.1408    1.5363    0.3881 O   0  0  0  0  0  0  0  0  0  0  0  0
   -2.7448    3.3010    1.6713 O   0  0  0  0  0  0  0  0  0  0  0  0
   -3.6823    3.1418    1.7944 H   0  0  0  0  0  0  0  0  0  0  0  0
    0.1871    0.1189    1.8122 C   0  0  0  0  0  0  0  0  0  0  0  0
    1.3541   -0.1171    2.1187 O   0  0  0  0  0  0  0  0  0  0  0  0
   -0.7126    0.5740    2.6926 N   0  0  0  0  0  0  0  0  0  0  0  0
   -1.6464    0.7663    2.3621 H   0  0  0  0  0  0  0  0  0  0  0  0
   -0.4191    0.8310    4.1010 C   0  0  0  0  0  0  0  0  0  0  0  0
    0.4022    1.5452    4.1828 H   0  0  0  0  0  0  0  0  0  0  0  0
   -1.2983    1.2366    4.6035 H   0  0  0  0  0  0  0  0  0  0  0  0
   -0.1204   -0.0980    4.5907 H   0  0  0  0  0  0  0  0  0  0  0  0
  5  6  2  0  0  0  0
  5  7  1  0  0  0  0
  2  3  1  0  0  0  0
  2  4  1  0  0  0  0
  2  5  1  0  0  0  0
  1  2  1  0  0  0  0
 21 22  2  0  0  0  0
 21 23  1  0  0  0  0
 19 20  1  0  0  0  0
 17 18  2  0  0  0  0
 17 19  1  0  0  0  0
 14 15  1  0  0  0  0
 14 16  1  0  0  0  0
 14 17  1  0  0  0  0
 11 12  1  0  0  0  0
 11 13  1  0  0  0  0
 11 14  1  0  0  0  0
  9 10  1  0  0  0  0
  9 11  1  0  0  0  0
  9 21  1  0  0  0  0
  7  8  1  0  0  0  0
  7  9  1  0  0  0  0
 25 26  1  0  0  0  0
 25 27  1  0  0  0  0
 25 28  1  0  0  0  0
 23 24  1  0  0  0  0
 23 25  1  0  0  0  0
M  END
$$$$
default_name
  -OEChem-02102213163D

 28 27  0     1  0  0  0  0  0999 V2000
   -3.2133   -3.5565    1.2809 H   0  0  0  0  0  0  0  0  0  0  0  0
   -3.1873   -2.5755    0.8089 C   0  0  0  0  0  0  0  0  0  0  0  0
   -3.8793   -1.9065    1.3169 H   0  0  0  0  0  0  0  0  0  0  0  0
   -3.4623   -2.6685   -0.2401 H   0  0  0  0  0  0  0  0  0  0  0  0
   -1.7863   -2.0195    0.9119 C   0  0  0  0  0  0  0  0  0  0  0  0
   -0.9073   -2.6615    1.4699 O   0  0  0  0  0  0  0  0  0  0  0  0
   -1.5803   -0.8195    0.3749 N   0  0  0  0  0  0  0  0  0  0  0  0
   -2.3603   -0.3345   -0.0451 H   0  0  0  0  0  0  0  0  0  0  0  0
   -0.2933   -0.1205    0.3719 C   0  0  1  0  0  0  0  0  0  0  0  0
    0.4439   -0.7485   -0.1303 H   0  0  0  0  0  0  0  0  0  0  0  0
   -0.4368    1.1924   -0.4246 C   0  0  0  0  0  0  0  0  0  0  0  0
    0.5247    1.4124   -0.8918 H   0  0  0  0  0  0  0  0  0  0  0  0
   -1.1748    1.0544   -1.2161 H   0  0  0  0  0  0  0  0  0  0  0  0
   -0.8588    2.3986    0.4322 C   0  0  0  0  0  0  0  0  0  0  0  0
   -0.1130    2.5840    1.2052 H   0  0  0  0  0  0  0  0  0  0  0  0
   -0.9392    3.2790   -0.2042 H   0  0  0  0  0  0  0  0  0  0  0  0
   -2.2067    2.1812    1.1124 C   0  0  0  0  0  0  0  0  0  0  0  0
   -2.9470    1.2316    0.9124 O   0  0  0  0  0  0  0  0  0  0  0  0
   -2.5771    3.1376    1.9841 O   0  0  0  0  0  0  0  0  0  0  0  0
   -3.4366    2.8627    2.3082 H   0  0  0  0  0  0  0  0  0  0  0  0
    0.1871    0.1189    1.8122 C   0  0  0  0  0  0  0  0  0  0  0  0
    1.3541   -0.1171    2.1187 O   0  0  0  0  0  0  0  0  0  0  0  0
   -0.7126    0.5740    2.6926 N   0  0  0  0  0  0  0  0  0  0  0  0
   -1.6464    0.7663    2.3621 H   0  0  0  0  0  0  0  0  0  0  0  0
   -0.4191    0.8310    4.1010 C   0  0  0  0  0  0  0  0  0  0  0  0
    0.4022    1.5452    4.1828 H   0  0  0  0  0  0  0  0  0  0  0  0
   -1.2983    1.2366    4.6035 H   0  0  0  0  0  0  0  0  0  0  0  0
   -0.1204   -0.0980    4.5907 H   0  0  0  0  0  0  0  0  0  0  0  0
  5  6  2  0  0  0  0
  5  7  1  0  0  0  0
  2  3  1  0  0  0  0
  2  4  1  0  0  0  0
  2  5  1  0  0  0  0
  1  2  1  0  0  0  0
 21 22  2  0  0  0  0
 21 23  1  0  0  0  0
 19 20  1  0  0  0  0
 17 18  2  0  0  0  0
 17 19  1  0  0  0  0
 14 15  1  0  0  0  0
 14 16  1  0  0  0  0
 14 17  1  0  0  0  0
 11 12  1  0  0  0  0
 11 13  1  0  0  0  0
 11 14  1  0  0  0  0
  9 10  1  0  0  0  0
  9 11  1  0  0  0  0
  9 21  1  0  0  0  0
  7  8  1  0  0  0  0
  7  9  1  0  0  0  0
 25 26  1  0  0  0  0
 25 27  1  0  0  0  0
 25 28  1  0  0  0  0
 23 24  1  0  0  0  0
 23 25  1  0  0  0  0
M  END
$$$$
default_name
  -OEChem-02102213163D

 28 27  0     1  0  0  0  0  0999 V2000
   -3.2133   -3.5565    1.2809 H   0  0  0  0  0  0  0  0  0  0  0  0
   -3.1873   -2.5755    0.8089 C   0  0  0  0  0  0  0  0  0  0  0  0
   -3.8793   -1.9065    1.3169 H   0  0  0  0  0  0  0  0  0  0  0  0
   -3.4623   -2.6685   -0.2401 H   0  0  0  0  0  0  0  0  0  0  0  0
   -1.7863   -2.0195    0.9119 C   0  0  0  0  0  0  0  0  0  0  0  0
   -0.9073   -2.6615    1.4699 O   0  0  0  0  0  0  0  0  0  0  0  0
   -1.5803   -0.8195    0.3749 N   0  0  0  0  0  0  0  0  0  0  0  0
   -2.3603   -0.3345   -0.0451 H   0  0  0  0  0  0  0  0  0  0  0  0
   -0.2933   -0.1205    0.3719 C   0  0  1  0  0  0  0  0  0  0  0  0
    0.4439   -0.7485   -0.1303 H   0  0  0  0  0  0  0  0  0  0  0  0
   -0.4368    1.1924   -0.4246 C   0  0  0  0  0  0  0  0  0  0  0  0
    0.5247    1.4124   -0.8918 H   0  0  0  0  0  0  0  0  0  0  0  0
   -1.1748    1.0544   -1.2161 H   0  0  0  0  0  0  0  0  0  0  0  0
   -0.8588    2.3986    0.4322 C   0  0  0  0  0  0  0  0  0  0  0  0
   -0.0118    2.7500    1.0214 H   0  0  0  0  0  0  0  0  0  0  0  0
   -1.1959    3.2018   -0.2220 H   0  0  0  0  0  0  0  0  0  0  0  0
   -1.9968    2.0581    1.3891 C   0  0  0  0  0  0  0  0  0  0  0  0
   -2.6095    1.0025    1.4012 O   0  0  0  0  0  0  0  0  0  0  0  0
   -2.3281    3.0260    2.2637 O   0  0  0  0  0  0  0  0  0  0  0  0
   -3.0548    2.6651    2.7745 H   0  0  0  0  0  0  0  0  0  0  0  0
    0.1871    0.1189    1.8122 C   0  0  0  0  0  0  0  0  0  0  0  0
    1.3541   -0.1171    2.1187 O   0  0  0  0  0  0  0  0  0  0  0  0
   -0.7126    0.5740    2.6926 N   0  0  0  0  0  0  0  0  0  0  0  0
   -1.6464    0.7663    2.3621 H   0  0  0  0  0  0  0  0  0  0  0  0
   -0.4191    0.8310    4.1010 C   0  0  0  0  0  0  0  0  0  0  0  0
    0.4022    1.5452    4.1828 H   0  0  0  0  0  0  0  0  0  0  0  0
   -1.2983    1.2366    4.6035 H   0  0  0  0  0  0  0  0  0  0  0  0
   -0.1204   -0.0980    4.5907 H   0  0  0  0  0  0  0  0  0  0  0  0
  5  6  2  0  0  0  0
  5  7  1  0  0  0  0
  2  3  1  0  0  0  0
  2  4  1  0  0  0  0
  2  5  1  0  0  0  0
  1  2  1  0  0  0  0
 21 22  2  0  0  0  0
 21 23  1  0  0  0  0
 19 20  1  0  0  0  0
 17 18  2  0  0  0  0
 17 19  1  0  0  0  0
 14 15  1  0  0  0  0
 14 16  1  0  0  0  0
 14 17  1  0  0  0  0
 11 12  1  0  0  0  0
 11 13  1  0  0  0  0
 11 14  1  0  0  0  0
  9 10  1  0  0  0  0
  9 11  1  0  0  0  0
  9 21  1  0  0  0  0
  7  8  1  0  0  0  0
  7  9  1  0  0  0  0
 25 26  1  0  0  0  0
 25 27  1  0  0  0  0
 25 28  1  0  0  0  0
 23 24  1  0  0  0  0
 23 25  1  0  0  0  0
M  END
$$$$
default_name
  -OEChem-02102213163D

 28 27  0     1  0  0  0  0  0999 V2000
   -3.2133   -3.5565    1.2809 H   0  0  0  0  0  0  0  0  0  0  0  0
   -3.1873   -2.5755    0.8089 C   0  0  0  0  0  0  0  0  0  0  0  0
   -3.8793   -1.9065    1.3169 H   0  0  0  0  0  0  0  0  0  0  0  0
   -3.4623   -2.6685   -0.2401 H   0  0  0  0  0  0  0  0  0  0  0  0
   -1.7863   -2.0195    0.9119 C   0  0  0  0  0  0  0  0  0  0  0  0
   -0.9073   -2.6615    1.4699 O   0  0  0  0  0  0  0  0  0  0  0  0
   -1.5803   -0.8195    0.3749 N   0  0  0  0  0  0  0  0  0  0  0  0
   -2.3603   -0.3345   -0.0451 H   0  0  0  0  0  0  0  0  0  0  0  0
   -0.2933   -0.1205    0.3719 C   0  0  1  0  0  0  0  0  0  0  0  0
    0.4439   -0.7485   -0.1303 H   0  0  0  0  0  0  0  0  0  0  0  0
   -0.4368    1.1924   -0.4246 C   0  0  0  0  0  0  0  0  0  0  0  0
    0.5247    1.4124   -0.8918 H   0  0  0  0  0  0  0  0  0  0  0  0
   -1.1748    1.0544   -1.2161 H   0  0  0  0  0  0  0  0  0  0  0  0
   -0.8588    2.3986    0.4322 C   0  0  0  0  0  0  0  0  0  0  0  0
    0.0248    2.9119    0.8116 H   0  0  0  0  0  0  0  0  0  0  0  0
   -1.4362    3.0890   -0.1815 H   0  0  0  0  0  0  0  0  0  0  0  0
   -1.7202    1.9890    1.6225 C   0  0  0  0  0  0  0  0  0  0  0  0
   -2.1514    0.8645    1.8211 O   0  0  0  0  0  0  0  0  0  0  0  0
   -2.0148    2.9741    2.4912 O   0  0  0  0  0  0  0  0  0  0  0  0
   -2.5629    2.5623    3.1615 H   0  0  0  0  0  0  0  0  0  0  0  0
    0.1871    0.1189    1.8122 C   0  0  0  0  0  0  0  0  0  0  0  0
    1.3541   -0.1171    2.1187 O   0  0  0  0  0  0  0  0  0  0  0  0
   -0.7126    0.5740    2.6926 N   0  0  0  0  0  0  0  0  0  0  0  0
   -1.6464    0.7663    2.3621 H   0  0  0  0  0  0  0  0  0  0  0  0
   -0.4191    0.8310    4.1010 C   0  0  0  0  0  0  0  0  0  0  0  0
    0.4022    1.5452    4.1828 H   0  0  0  0  0  0  0  0  0  0  0  0
   -1.2983    1.2366    4.6035 H   0  0  0  0  0  0  0  0  0  0  0  0
   -0.1204   -0.0980    4.5907 H   0  0  0  0  0  0  0  0  0  0  0  0
  5  6  2  0  0  0  0
  5  7  1  0  0  0  0
  2  3  1  0  0  0  0
  2  4  1  0  0  0  0
  2  5  1  0  0  0  0
  1  2  1  0  0  0  0
 21 22  2  0  0  0  0
 21 23  1  0  0  0  0
 19 20  1  0  0  0  0
 17 18  2  0  0  0  0
 17 19  1  0  0  0  0
 14 15  1  0  0  0  0
 14 16  1  0  0  0  0
 14 17  1  0  0  0  0
 11 12  1  0  0  0  0
 11 13  1  0  0  0  0
 11 14  1  0  0  0  0
  9 10  1  0  0  0  0
  9 11  1  0  0  0  0
  9 21  1  0  0  0  0
  7  8  1  0  0  0  0
  7  9  1  0  0  0  0
 25 26  1  0  0  0  0
 25 27  1  0  0  0  0
 25 28  1  0  0  0  0
 23 24  1  0  0  0  0
 23 25  1  0  0  0  0
M  END
$$$$
default_name
  -OEChem-02102213163D

 28 27  0     1  0  0  0  0  0999 V2000
   -3.2133   -3.5565    1.2809 H   0  0  0  0  0  0  0  0  0  0  0  0
   -3.1873   -2.5755    0.8089 C   0  0  0  0  0  0  0  0  0  0  0  0
   -3.8793   -1.9065    1.3169 H   0  0  0  0  0  0  0  0  0  0  0  0
   -3.4623   -2.6685   -0.2401 H   0  0  0  0  0  0  0  0  0  0  0  0
   -1.7863   -2.0195    0.9119 C   0  0  0  0  0  0  0  0  0  0  0  0
   -0.9073   -2.6615    1.4699 O   0  0  0  0  0  0  0  0  0  0  0  0
   -1.5803   -0.8195    0.3749 N   0  0  0  0  0  0  0  0  0  0  0  0
   -2.3603   -0.3345   -0.0451 H   0  0  0  0  0  0  0  0  0  0  0  0
   -0.2933   -0.1205    0.3719 C   0  0  1  0  0  0  0  0  0  0  0  0
    0.4439   -0.7485   -0.1303 H   0  0  0  0  0  0  0  0  0  0  0  0
   -0.4368    1.1924   -0.4246 C   0  0  0  0  0  0  0  0  0  0  0  0
    0.5247    1.4124   -0.8918 H   0  0  0  0  0  0  0  0  0  0  0  0
   -1.1748    1.0544   -1.2161 H   0  0  0  0  0  0  0  0  0  0  0  0
   -0.8588    2.3986    0.4322 C   0  0  0  0  0  0  0  0  0  0  0  0
   -0.0058    3.0586    0.5900 H   0  0  0  0  0  0  0  0  0  0  0  0
   -1.6439    2.9482   -0.0857 H   0  0  0  0  0  0  0  0  0  0  0  0
   -1.3957    1.9788    1.7968 C   0  0  0  0  0  0  0  0  0  0  0  0
   -1.6037    0.8271    2.1435 O   0  0  0  0  0  0  0  0  0  0  0  0
   -1.6585    2.9852    2.6511 O   0  0  0  0  0  0  0  0  0  0  0  0
   -1.9945    2.5614    3.4428 H   0  0  0  0  0  0  0  0  0  0  0  0
    0.1871    0.1189    1.8122 C   0  0  0  0  0  0  0  0  0  0  0  0
    1.3541   -0.1171    2.1187 O   0  0  0  0  0  0  0  0  0  0  0  0
   -0.7126    0.5740    2.6926 N   0  0  0  0  0  0  0  0  0  0  0  0
   -1.6464    0.7663    2.3621 H   0  0  0  0  0  0  0  0  0  0  0  0
   -0.4191    0.8310    4.1010 C   0  0  0  0  0  0  0  0  0  0  0  0
    0.4022    1.5452    4.1828 H   0  0  0  0  0  0  0  0  0  0  0  0
   -1.2983    1.2366    4.6035 H   0  0  0  0  0  0  0  0  0  0  0  0
   -0.1204   -0.0980    4.5907 H   0  0  0  0  0  0  0  0  0  0  0  0
  5  6  2  0  0  0  0
  5  7  1  0  0  0  0
  2  3  1  0  0  0  0
  2  4  1  0  0  0  0
  2  5  1  0  0  0  0
  1  2  1  0  0  0  0
 21 22  2  0  0  0  0
 21 23  1  0  0  0  0
 19 20  1  0  0  0  0
 17 18  2  0  0  0  0
 17 19  1  0  0  0  0
 14 15  1  0  0  0  0
 14 16  1  0  0  0  0
 14 17  1  0  0  0  0
 11 12  1  0  0  0  0
 11 13  1  0  0  0  0
 11 14  1  0  0  0  0
  9 10  1  0  0  0  0
  9 11  1  0  0  0  0
  9 21  1  0  0  0  0
  7  8  1  0  0  0  0
  7  9  1  0  0  0  0
 25 26  1  0  0  0  0
 25 27  1  0  0  0  0
 25 28  1  0  0  0  0
 23 24  1  0  0  0  0
 23 25  1  0  0  0  0
M  END
$$$$
default_name
  -OEChem-02102213163D

 28 27  0     1  0  0  0  0  0999 V2000
   -3.2133   -3.5565    1.2809 H   0  0  0  0  0  0  0  0  0  0  0  0
   -3.1873   -2.5755    0.8089 C   0  0  0  0  0  0  0  0  0  0  0  0
   -3.8793   -1.9065    1.3169 H   0  0  0  0  0  0  0  0  0  0  0  0
   -3.4623   -2.6685   -0.2401 H   0  0  0  0  0  0  0  0  0  0  0  0
   -1.7863   -2.0195    0.9119 C   0  0  0  0  0  0  0  0  0  0  0  0
   -0.9073   -2.6615    1.4699 O   0  0  0  0  0  0  0  0  0  0  0  0
   -1.5803   -0.8195    0.3749 N   0  0  0  0  0  0  0  0  0  0  0  0
   -2.3603   -0.3345   -0.0451 H   0  0  0  0  0  0  0  0  0  0  0  0
   -0.2933   -0.1205    0.3719 C   0  0  1  0  0  0  0  0  0  0  0  0
    0.4439   -0.7485   -0.1303 H   0  0  0  0  0  0  0  0  0  0  0  0
   -0.4368    1.1924   -0.4246 C   0  0  0  0  0  0  0  0  0  0  0  0
    0.5247    1.4124   -0.8918 H   0  0  0  0  0  0  0  0  0  0  0  0
   -1.1748    1.0544   -1.2161 H   0  0  0  0  0  0  0  0  0  0  0  0
   -0.8588    2.3986    0.4322 C   0  0  0  0  0  0  0  0  0  0  0  0
   -0.1015    3.1802    0.3717 H   0  0  0  0  0  0  0  0  0  0  0  0
   -1.8048    2.7891    0.0590 H   0  0  0  0  0  0  0  0  0  0  0  0
   -1.0455    2.0280    1.9000 C   0  0  0  0  0  0  0  0  0  0  0  0
   -1.0039    0.8928    2.3465 O   0  0  0  0  0  0  0  0  0  0  0  0
   -1.2835    3.0586    2.7324 O   0  0  0  0  0  0  0  0  0  0  0  0
   -1.3882    2.6624    3.5992 H   0  0  0  0  0  0  0  0  0  0  0  0
    0.1871    0.1189    1.8122 C   0  0  0  0  0  0  0  0  0  0  0  0
    1.3541   -0.1171    2.1187 O   0  0  0  0  0  0  0  0  0  0  0  0
   -0.7126    0.5740    2.6926 N   0  0  0  0  0  0  0  0  0  0  0  0
   -1.6464    0.7663    2.3621 H   0  0  0  0  0  0  0  0  0  0  0  0
   -0.4191    0.8310    4.1010 C   0  0  0  0  0  0  0  0  0  0  0  0
    0.4022    1.5452    4.1828 H   0  0  0  0  0  0  0  0  0  0  0  0
   -1.2983    1.2366    4.6035 H   0  0  0  0  0  0  0  0  0  0  0  0
   -0.1204   -0.0980    4.5907 H   0  0  0  0  0  0  0  0  0  0  0  0
  5  6  2  0  0  0  0
  5  7  1  0  0  0  0
  2  3  1  0  0  0  0
  2  4  1  0  0  0  0
  2  5  1  0  0  0  0
  1  2  1  0  0  0  0
 21 22  2  0  0  0  0
 21 23  1  0  0  0  0
 19 20  1  0  0  0  0
 17 18  2  0  0  0  0
 17 19  1  0  0  0  0
 14 15  1  0  0  0  0
 14 16  1  0  0  0  0
 14 17  1  0  0  0  0
 11 12  1  0  0  0  0
 11 13  1  0  0  0  0
 11 14  1  0  0  0  0
  9 10  1  0  0  0  0
  9 11  1  0  0  0  0
  9 21  1  0  0  0  0
  7  8  1  0  0  0  0
  7  9  1  0  0  0  0
 25 26  1  0  0  0  0
 25 27  1  0  0  0  0
 25 28  1  0  0  0  0
 23 24  1  0  0  0  0
 23 25  1  0  0  0  0
M  END
$$$$
default_name
  -OEChem-02102213163D

 28 27  0     1  0  0  0  0  0999 V2000
   -3.2133   -3.5565    1.2809 H   0  0  0  0  0  0  0  0  0  0  0  0
   -3.1873   -2.5755    0.8089 C   0  0  0  0  0  0  0  0  0  0  0  0
   -3.8793   -1.9065    1.3169 H   0  0  0  0  0  0  0  0  0  0  0  0
   -3.4623   -2.6685   -0.2401 H   0  0  0  0  0  0  0  0  0  0  0  0
   -1.7863   -2.0195    0.9119 C   0  0  0  0  0  0  0  0  0  0  0  0
   -0.9073   -2.6615    1.4699 O   0  0  0  0  0  0  0  0  0  0  0  0
   -1.5803   -0.8195    0.3749 N   0  0  0  0  0  0  0  0  0  0  0  0
   -2.3603   -0.3345   -0.0451 H   0  0  0  0  0  0  0  0  0  0  0  0
   -0.2933   -0.1205    0.3719 C   0  0  1  0  0  0  0  0  0  0  0  0
    0.4439   -0.7485   -0.1303 H   0  0  0  0  0  0  0  0  0  0  0  0
   -0.4368    1.1924   -0.4246 C   0  0  0  0  0  0  0  0  0  0  0  0
    0.5247    1.4124   -0.8918 H   0  0  0  0  0  0  0  0  0  0  0  0
   -1.1748    1.0544   -1.2161 H   0  0  0  0  0  0  0  0  0  0  0  0
   -0.8588    2.3986    0.4322 C   0  0  0  0  0  0  0  0  0  0  0  0
   -0.2557    3.2684    0.1716 H   0  0  0  0  0  0  0  0  0  0  0  0
   -1.9080    2.6225    0.2427 H   0  0  0  0  0  0  0  0  0  0  0  0
   -0.6933    2.1334    1.9251 C   0  0  0  0  0  0  0  0  0  0  0  0
   -0.3928    1.0572    2.4162 O   0  0  0  0  0  0  0  0  0  0  0  0
   -0.9154    3.1894    2.7296 O   0  0  0  0  0  0  0  0  0  0  0  0
   -0.7854    2.8585    3.6201 H   0  0  0  0  0  0  0  0  0  0  0  0
    0.1871    0.1189    1.8122 C   0  0  0  0  0  0  0  0  0  0  0  0
    1.3541   -0.1171    2.1187 O   0  0  0  0  0  0  0  0  0  0  0  0
   -0.7126    0.5740    2.6926 N   0  0  0  0  0  0  0  0  0  0  0  0
   -1.6464    0.7663    2.3621 H   0  0  0  0  0  0  0  0  0  0  0  0
   -0.4191    0.8310    4.1010 C   0  0  0  0  0  0  0  0  0  0  0  0
    0.4022    1.5452    4.1828 H   0  0  0  0  0  0  0  0  0  0  0  0
   -1.2983    1.2366    4.6035 H   0  0  0  0  0  0  0  0  0  0  0  0
   -0.1204   -0.0980    4.5907 H   0  0  0  0  0  0  0  0  0  0  0  0
  5  6  2  0  0  0  0
  5  7  1  0  0  0  0
  2  3  1  0  0  0  0
  2  4  1  0  0  0  0
  2  5  1  0  0  0  0
  1  2  1  0  0  0  0
 21 22  2  0  0  0  0
 21 23  1  0  0  0  0
 19 20  1  0  0  0  0
 17 18  2  0  0  0  0
 17 19  1  0  0  0  0
 14 15  1  0  0  0  0
 14 16  1  0  0  0  0
 14 17  1  0  0  0  0
 11 12  1  0  0  0  0
 11 13  1  0  0  0  0
 11 14  1  0  0  0  0
  9 10  1  0  0  0  0
  9 11  1  0  0  0  0
  9 21  1  0  0  0  0
  7  8  1  0  0  0  0
  7  9  1  0  0  0  0
 25 26  1  0  0  0  0
 25 27  1  0  0  0  0
 25 28  1  0  0  0  0
 23 24  1  0  0  0  0
 23 25  1  0  0  0  0
M  END
$$$$
default_name
  -OEChem-02102213163D

 28 27  0     1  0  0  0  0  0999 V2000
   -3.2133   -3.5565    1.2809 H   0  0  0  0  0  0  0  0  0  0  0  0
   -3.1873   -2.5755    0.8089 C   0  0  0  0  0  0  0  0  0  0  0  0
   -3.8793   -1.9065    1.3169 H   0  0  0  0  0  0  0  0  0  0  0  0
   -3.4623   -2.6685   -0.2401 H   0  0  0  0  0  0  0  0  0  0  0  0
   -1.7863   -2.0195    0.9119 C   0  0  0  0  0  0  0  0  0  0  0  0
   -0.9073   -2.6615    1.4699 O   0  0  0  0  0  0  0  0  0  0  0  0
   -1.5803   -0.8195    0.3749 N   0  0  0  0  0  0  0  0  0  0  0  0
   -2.3603   -0.3345   -0.0451 H   0  0  0  0  0  0  0  0  0  0  0  0
   -0.2933   -0.1205    0.3719 C   0  0  1  0  0  0  0  0  0  0  0  0
    0.4439   -0.7485   -0.1303 H   0  0  0  0  0  0  0  0  0  0  0  0
   -0.4368    1.1924   -0.4246 C   0  0  0  0  0  0  0  0  0  0  0  0
    0.5247    1.4124   -0.8918 H   0  0  0  0  0  0  0  0  0  0  0  0
   -1.1748    1.0544   -1.2161 H   0  0  0  0  0  0  0  0  0  0  0  0
   -0.8588    2.3986    0.4322 C   0  0  0  0  0  0  0  0  0  0  0  0
   -0.4580    3.3171    0.0034 H   0  0  0  0  0  0  0  0  0  0  0  0
   -1.9463    2.4597    0.4530 H   0  0  0  0  0  0  0  0  0  0  0  0
   -0.3632    2.2878    1.8705 C   0  0  0  0  0  0  0  0  0  0  0  0
    0.1879    1.3089    2.3479 O   0  0  0  0  0  0  0  0  0  0  0  0
   -0.5792    3.3686    2.6430 O   0  0  0  0  0  0  0  0  0  0  0  0
   -0.2271    3.1363    3.5041 H   0  0  0  0  0  0  0  0  0  0  0  0
    0.1871    0.1189    1.8122 C   0  0  0  0  0  0  0  0  0  0  0  0
    1.3541   -0.1171    2.1187 O   0  0  0  0  0  0  0  0  0  0  0  0
   -0.7126    0.5740    2.6926 N   0  0  0  0  0  0  0  0  0  0  0  0
   -1.6464    0.7663    2.3621 H   0  0  0  0  0  0  0  0  0  0  0  0
   -0.4191    0.8310    4.1010 C   0  0  0  0  0  0  0  0  0  0  0  0
    0.4022    1.5452    4.1828 H   0  0  0  0  0  0  0  0  0  0  0  0
   -1.2983    1.2366    4.6035 H   0  0  0  0  0  0  0  0  0  0  0  0
   -0.1204   -0.0980    4.5907 H   0  0  0  0  0  0  0  0  0  0  0  0
  5  6  2  0  0  0  0
  5  7  1  0  0  0  0
  2  3  1  0  0  0  0
  2  4  1  0  0  0  0
  2  5  1  0  0  0  0
  1  2  1  0  0  0  0
 21 22  2  0  0  0  0
 21 23  1  0  0  0  0
 19 20  1  0  0  0  0
 17 18  2  0  0  0  0
 17 19  1  0  0  0  0
 14 15  1  0  0  0  0
 14 16  1  0  0  0  0
 14 17  1  0  0  0  0
 11 12  1  0  0  0  0
 11 13  1  0  0  0  0
 11 14  1  0  0  0  0
  9 10  1  0  0  0  0
  9 11  1  0  0  0  0
  9 21  1  0  0  0  0
  7  8  1  0  0  0  0
  7  9  1  0  0  0  0
 25 26  1  0  0  0  0
 25 27  1  0  0  0  0
 25 28  1  0  0  0  0
 23 24  1  0  0  0  0
 23 25  1  0  0  0  0
M  END
$$$$
default_name
  -OEChem-02102213163D

 28 27  0     1  0  0  0  0  0999 V2000
   -3.2133   -3.5565    1.2809 H   0  0  0  0  0  0  0  0  0  0  0  0
   -3.1873   -2.5755    0.8089 C   0  0  0  0  0  0  0  0  0  0  0  0
   -3.8793   -1.9065    1.3169 H   0  0  0  0  0  0  0  0  0  0  0  0
   -3.4623   -2.6685   -0.2401 H   0  0  0  0  0  0  0  0  0  0  0  0
   -1.7863   -2.0195    0.9119 C   0  0  0  0  0  0  0  0  0  0  0  0
   -0.9073   -2.6615    1.4699 O   0  0  0  0  0  0  0  0  0  0  0  0
   -1.5803   -0.8195    0.3749 N   0  0  0  0  0  0  0  0  0  0  0  0
   -2.3603   -0.3345   -0.0451 H   0  0  0  0  0  0  0  0  0  0  0  0
   -0.2933   -0.1205    0.3719 C   0  0  1  0  0  0  0  0  0  0  0  0
    0.4439   -0.7485   -0.1303 H   0  0  0  0  0  0  0  0  0  0  0  0
   -0.4368    1.1924   -0.4246 C   0  0  0  0  0  0  0  0  0  0  0  0
    0.5247    1.4124   -0.8918 H   0  0  0  0  0  0  0  0  0  0  0  0
   -1.1748    1.0544   -1.2161 H   0  0  0  0  0  0  0  0  0  0  0  0
   -0.8588    2.3986    0.4322 C   0  0  0  0  0  0  0  0  0  0  0  0
   -0.6945    3.3230   -0.1215 H   0  0  0  0  0  0  0  0  0  0  0  0
   -1.9172    2.3119    0.6753 H   0  0  0  0  0  0  0  0  0  0  0  0
   -0.0777    2.4806    1.7397 C   0  0  0  0  0  0  0  0  0  0  0  0
    0.6987    1.6310    2.1462 O   0  0  0  0  0  0  0  0  0  0  0  0
   -0.2979    3.5840    2.4784 O   0  0  0  0  0  0  0  0  0  0  0  0
    0.2485    3.4769    3.2590 H   0  0  0  0  0  0  0  0  0  0  0  0
    0.1871    0.1189    1.8122 C   0  0  0  0  0  0  0  0  0  0  0  0
    1.3541   -0.1171    2.1187 O   0  0  0  0  0  0  0  0  0  0  0  0
   -0.7126    0.5740    2.6926 N   0  0  0  0  0  0  0  0  0  0  0  0
   -1.6464    0.7663    2.3621 H   0  0  0  0  0  0  0  0  0  0  0  0
   -0.4191    0.8310    4.1010 C   0  0  0  0  0  0  0  0  0  0  0  0
    0.4022    1.5452    4.1828 H   0  0  0  0  0  0  0  0  0  0  0  0
   -1.2983    1.2366    4.6035 H   0  0  0  0  0  0  0  0  0  0  0  0
   -0.1204   -0.0980    4.5907 H   0  0  0  0  0  0  0  0  0  0  0  0
  5  6  2  0  0  0  0
  5  7  1  0  0  0  0
  2  3  1  0  0  0  0
  2  4  1  0  0  0  0
  2  5  1  0  0  0  0
  1  2  1  0  0  0  0
 21 22  2  0  0  0  0
 21 23  1  0  0  0  0
 19 20  1  0  0  0  0
 17 18  2  0  0  0  0
 17 19  1  0  0  0  0
 14 15  1  0  0  0  0
 14 16  1  0  0  0  0
 14 17  1  0  0  0  0
 11 12  1  0  0  0  0
 11 13  1  0  0  0  0
 11 14  1  0  0  0  0
  9 10  1  0  0  0  0
  9 11  1  0  0  0  0
  9 21  1  0  0  0  0
  7  8  1  0  0  0  0
  7  9  1  0  0  0  0
 25 26  1  0  0  0  0
 25 27  1  0  0  0  0
 25 28  1  0  0  0  0
 23 24  1  0  0  0  0
 23 25  1  0  0  0  0
M  END
$$$$
default_name
  -OEChem-02102213163D

 28 27  0     1  0  0  0  0  0999 V2000
   -3.2133   -3.5565    1.2809 H   0  0  0  0  0  0  0  0  0  0  0  0
   -3.1873   -2.5755    0.8089 C   0  0  0  0  0  0  0  0  0  0  0  0
   -3.8793   -1.9065    1.3169 H   0  0  0  0  0  0  0  0  0  0  0  0
   -3.4623   -2.6685   -0.2401 H   0  0  0  0  0  0  0  0  0  0  0  0
   -1.7863   -2.0195    0.9119 C   0  0  0  0  0  0  0  0  0  0  0  0
   -0.9073   -2.6615    1.4699 O   0  0  0  0  0  0  0  0  0  0  0  0
   -1.5803   -0.8195    0.3749 N   0  0  0  0  0  0  0  0  0  0  0  0
   -2.3603   -0.3345   -0.0451 H   0  0  0  0  0  0  0  0  0  0  0  0
   -0.2933   -0.1205    0.3719 C   0  0  1  0  0  0  0  0  0  0  0  0
    0.4439   -0.7485   -0.1303 H   0  0  0  0  0  0  0  0  0  0  0  0
   -0.4368    1.1924   -0.4246 C   0  0  0  0  0  0  0  0  0  0  0  0
    0.5247    1.4124   -0.8918 H   0  0  0  0  0  0  0  0  0  0  0  0
   -1.1748    1.0544   -1.2161 H   0  0  0  0  0  0  0  0  0  0  0  0
   -0.8588    2.3986    0.4322 C   0  0  0  0  0  0  0  0  0  0  0  0
   -0.9492    3.2858   -0.1946 H   0  0  0  0  0  0  0  0  0  0  0  0
   -1.8226    2.1891    0.8947 H   0  0  0  0  0  0  0  0  0  0  0  0
    0.1437    2.6986    1.5418 C   0  0  0  0  0  0  0  0  0  0  0  0
    1.1047    2.0014    1.8248 O   0  0  0  0  0  0  0  0  0  0  0  0
   -0.0906    3.8209    2.2471 O   0  0  0  0  0  0  0  0  0  0  0  0
    0.6091    3.8570    2.9016 H   0  0  0  0  0  0  0  0  0  0  0  0
    0.1871    0.1189    1.8122 C   0  0  0  0  0  0  0  0  0  0  0  0
    1.3541   -0.1171    2.1187 O   0  0  0  0  0  0  0  0  0  0  0  0
   -0.7126    0.5740    2.6926 N   0  0  0  0  0  0  0  0  0  0  0  0
   -1.6464    0.7663    2.3621 H   0  0  0  0  0  0  0  0  0  0  0  0
   -0.4191    0.8310    4.1010 C   0  0  0  0  0  0  0  0  0  0  0  0
    0.4022    1.5452    4.1828 H   0  0  0  0  0  0  0  0  0  0  0  0
   -1.2983    1.2366    4.6035 H   0  0  0  0  0  0  0  0  0  0  0  0
   -0.1204   -0.0980    4.5907 H   0  0  0  0  0  0  0  0  0  0  0  0
  5  6  2  0  0  0  0
  5  7  1  0  0  0  0
  2  3  1  0  0  0  0
  2  4  1  0  0  0  0
  2  5  1  0  0  0  0
  1  2  1  0  0  0  0
 21 22  2  0  0  0  0
 21 23  1  0  0  0  0
 19 20  1  0  0  0  0
 17 18  2  0  0  0  0
 17 19  1  0  0  0  0
 14 15  1  0  0  0  0
 14 16  1  0  0  0  0
 14 17  1  0  0  0  0
 11 12  1  0  0  0  0
 11 13  1  0  0  0  0
 11 14  1  0  0  0  0
  9 10  1  0  0  0  0
  9 11  1  0  0  0  0
  9 21  1  0  0  0  0
  7  8  1  0  0  0  0
  7  9  1  0  0  0  0
 25 26  1  0  0  0  0
 25 27  1  0  0  0  0
 25 28  1  0  0  0  0
 23 24  1  0  0  0  0
 23 25  1  0  0  0  0
M  END
$$$$
default_name
  -OEChem-02102213163D

 28 27  0     1  0  0  0  0  0999 V2000
   -3.2133   -3.5565    1.2809 H   0  0  0  0  0  0  0  0  0  0  0  0
   -3.1873   -2.5755    0.8089 C   0  0  0  0  0  0  0  0  0  0  0  0
   -3.8793   -1.9065    1.3169 H   0  0  0  0  0  0  0  0  0  0  0  0
   -3.4623   -2.6685   -0.2401 H   0  0  0  0  0  0  0  0  0  0  0  0
   -1.7863   -2.0195    0.9119 C   0  0  0  0  0  0  0  0  0  0  0  0
   -0.9073   -2.6615    1.4699 O   0  0  0  0  0  0  0  0  0  0  0  0
   -1.5803   -0.8195    0.3749 N   0  0  0  0  0  0  0  0  0  0  0  0
   -2.3603   -0.3345   -0.0451 H   0  0  0  0  0  0  0  0  0  0  0  0
   -0.2933   -0.1205    0.3719 C   0  0  1  0  0  0  0  0  0  0  0  0
    0.4439   -0.7485   -0.1303 H   0  0  0  0  0  0  0  0  0  0  0  0
   -0.4368    1.1924   -0.4246 C   0  0  0  0  0  0  0  0  0  0  0  0
    0.5247    1.4124   -0.8918 H   0  0  0  0  0  0  0  0  0  0  0  0
   -1.1748    1.0544   -1.2161 H   0  0  0  0  0  0  0  0  0  0  0  0
   -0.8588    2.3986    0.4322 C   0  0  0  0  0  0  0  0  0  0  0  0
   -1.2046    3.2080   -0.2108 H   0  0  0  0  0  0  0  0  0  0  0  0
   -1.6691    2.0998    1.0962 H   0  0  0  0  0  0  0  0  0  0  0  0
    0.2861    2.9272    1.2903 C   0  0  0  0  0  0  0  0  0  0  0  0
    1.3784    2.3948    1.4058 O   0  0  0  0  0  0  0  0  0  0  0  0
    0.0285    4.0632    1.9647 O   0  0  0  0  0  0  0  0  0  0  0  0
    0.8301    4.2507    2.4562 H   0  0  0  0  0  0  0  0  0  0  0  0
    0.1871    0.1189    1.8122 C   0  0  0  0  0  0  0  0  0  0  0  0
    1.3541   -0.1171    2.1187 O   0  0  0  0  0  0  0  0  0  0  0  0
   -0.7126    0.5740    2.6926 N   0  0  0  0  0  0  0  0  0  0  0  0
   -1.6464    0.7663    2.3621 H   0  0  0  0  0  0  0  0  0  0  0  0
   -0.4191    0.8310    4.1010 C   0  0  0  0  0  0  0  0  0  0  0  0
    0.4022    1.5452    4.1828 H   0  0  0  0  0  0  0  0  0  0  0  0
   -1.2983    1.2366    4.6035 H   0  0  0  0  0  0  0  0  0  0  0  0
   -0.1204   -0.0980    4.5907 H   0  0  0  0  0  0  0  0  0  0  0  0
  5  6  2  0  0  0  0
  5  7  1  0  0  0  0
  2  3  1  0  0  0  0
  2  4  1  0  0  0  0
  2  5  1  0  0  0  0
  1  2  1  0  0  0  0
 21 22  2  0  0  0  0
 21 23  1  0  0  0  0
 19 20  1  0  0  0  0
 17 18  2  0  0  0  0
 17 19  1  0  0  0  0
 14 15  1  0  0  0  0
 14 16  1  0  0  0  0
 14 17  1  0  0  0  0
 11 12  1  0  0  0  0
 11 13  1  0  0  0  0
 11 14  1  0  0  0  0
  9 10  1  0  0  0  0
  9 11  1  0  0  0  0
  9 21  1  0  0  0  0
  7  8  1  0  0  0  0
  7  9  1  0  0  0  0
 25 26  1  0  0  0  0
 25 27  1  0  0  0  0
 25 28  1  0  0  0  0
 23 24  1  0  0  0  0
 23 25  1  0  0  0  0
M  END
$$$$
default_name
  -OEChem-02102213163D

 28 27  0     1  0  0  0  0  0999 V2000
   -3.2133   -3.5565    1.2809 H   0  0  0  0  0  0  0  0  0  0  0  0
   -3.1873   -2.5755    0.8089 C   0  0  0  0  0  0  0  0  0  0  0  0
   -3.8793   -1.9065    1.3169 H   0  0  0  0  0  0  0  0  0  0  0  0
   -3.4623   -2.6685   -0.2401 H   0  0  0  0  0  0  0  0  0  0  0  0
   -1.7863   -2.0195    0.9119 C   0  0  0  0  0  0  0  0  0  0  0  0
   -0.9073   -2.6615    1.4699 O   0  0  0  0  0  0  0  0  0  0  0  0
   -1.5803   -0.8195    0.3749 N   0  0  0  0  0  0  0  0  0  0  0  0
   -2.3603   -0.3345   -0.0451 H   0  0  0  0  0  0  0  0  0  0  0  0
   -0.2933   -0.1205    0.3719 C   0  0  1  0  0  0  0  0  0  0  0  0
    0.4439   -0.7485   -0.1303 H   0  0  0  0  0  0  0  0  0  0  0  0
   -0.4368    1.1924   -0.4246 C   0  0  0  0  0  0  0  0  0  0  0  0
    0.5247    1.4124   -0.8918 H   0  0  0  0  0  0  0  0  0  0  0  0
   -1.1748    1.0544   -1.2161 H   0  0  0  0  0  0  0  0  0  0  0  0
   -0.8588    2.3986    0.4322 C   0  0  0  0  0  0  0  0  0  0  0  0
   -1.4435    3.0948   -0.1692 H   0  0  0  0  0  0  0  0  0  0  0  0
   -1.4671    2.0498    1.2660 H   0  0  0  0  0  0  0  0  0  0  0  0
    0.3395    3.1505    1.0022 C   0  0  0  0  0  0  0  0  0  0  0  0
    1.5009    2.7846    0.9175 O   0  0  0  0  0  0  0  0  0  0  0  0
    0.0514    4.2943    1.6506 O   0  0  0  0  0  0  0  0  0  0  0  0
    0.8965    4.6313    1.9532 H   0  0  0  0  0  0  0  0  0  0  0  0
    0.1871    0.1189    1.8122 C   0  0  0  0  0  0  0  0  0  0  0  0
    1.3541   -0.1171    2.1187 O   0  0  0  0  0  0  0  0  0  0  0  0
   -0.7126    0.5740    2.6926 N   0  0  0  0  0  0  0  0  0  0  0  0
   -1.6464    0.7663    2.3621 H   0  0  0  0  0  0  0  0  0  0  0  0
   -0.4191    0.8310    4.1010 C   0  0  0  0  0  0  0  0  0  0  0  0
    0.4022    1.5452    4.1828 H   0  0  0  0  0  0  0  0  0  0  0  0
   -1.2983    1.2366    4.6035 H   0  0  0  0  0  0  0  0  0  0  0  0
   -0.1204   -0.0980    4.5907 H   0  0  0  0  0  0  0  0  0  0  0  0
  5  6  2  0  0  0  0
  5  7  1  0  0  0  0
  2  3  1  0  0  0  0
  2  4  1  0  0  0  0
  2  5  1  0  0  0  0
  1  2  1  0  0  0  0
 21 22  2  0  0  0  0
 21 23  1  0  0  0  0
 19 20  1  0  0  0  0
 17 18  2  0  0  0  0
 17 19  1  0  0  0  0
 14 15  1  0  0  0  0
 14 16  1  0  0  0  0
 14 17  1  0  0  0  0
 11 12  1  0  0  0  0
 11 13  1  0  0  0  0
 11 14  1  0  0  0  0
  9 10  1  0  0  0  0
  9 11  1  0  0  0  0
  9 21  1  0  0  0  0
  7  8  1  0  0  0  0
  7  9  1  0  0  0  0
 25 26  1  0  0  0  0
 25 27  1  0  0  0  0
 25 28  1  0  0  0  0
 23 24  1  0  0  0  0
 23 25  1  0  0  0  0
M  END
$$$$
default_name
  -OEChem-02102213163D

 28 27  0     1  0  0  0  0  0999 V2000
   -3.2133   -3.5565    1.2809 H   0  0  0  0  0  0  0  0  0  0  0  0
   -3.1873   -2.5755    0.8089 C   0  0  0  0  0  0  0  0  0  0  0  0
   -3.8793   -1.9065    1.3169 H   0  0  0  0  0  0  0  0  0  0  0  0
   -3.4623   -2.6685   -0.2401 H   0  0  0  0  0  0  0  0  0  0  0  0
   -1.7863   -2.0195    0.9119 C   0  0  0  0  0  0  0  0  0  0  0  0
   -0.9073   -2.6615    1.4699 O   0  0  0  0  0  0  0  0  0  0  0  0
   -1.5803   -0.8195    0.3749 N   0  0  0  0  0  0  0  0  0  0  0  0
   -2.3603   -0.3345   -0.0451 H   0  0  0  0  0  0  0  0  0  0  0  0
   -0.2933   -0.1205    0.3719 C   0  0  1  0  0  0  0  0  0  0  0  0
    0.4439   -0.7485   -0.1303 H   0  0  0  0  0  0  0  0  0  0  0  0
   -0.4368    1.1924   -0.4246 C   0  0  0  0  0  0  0  0  0  0  0  0
    0.5247    1.4124   -0.8918 H   0  0  0  0  0  0  0  0  0  0  0  0
   -1.1748    1.0544   -1.2161 H   0  0  0  0  0  0  0  0  0  0  0  0
   -0.8588    2.3986    0.4322 C   0  0  0  0  0  0  0  0  0  0  0  0
   -1.6494    2.9540   -0.0725 H   0  0  0  0  0  0  0  0  0  0  0  0
   -1.2302    2.0428    1.3925 H   0  0  0  0  0  0  0  0  0  0  0  0
    0.3006    3.3536    0.6972 C   0  0  0  0  0  0  0  0  0  0  0  0
    1.4640    3.1440    0.3934 O   0  0  0  0  0  0  0  0  0  0  0  0
   -0.0236    4.4986    1.3261 O   0  0  0  0  0  0  0  0  0  0  0  0
    0.8037    4.9728    1.4268 H   0  0  0  0  0  0  0  0  0  0  0  0
    0.1871    0.1189    1.8122 C   0  0  0  0  0  0  0  0  0  0  0  0
    1.3541   -0.1171    2.1187 O   0  0  0  0  0  0  0  0  0  0  0  0
   -0.7126    0.5740    2.6926 N   0  0  0  0  0  0  0  0  0  0  0  0
   -1.6464    0.7663    2.3621 H   0  0  0  0  0  0  0  0  0  0  0  0
   -0.4191    0.8310    4.1010 C   0  0  0  0  0  0  0  0  0  0  0  0
    0.4022    1.5452    4.1828 H   0  0  0  0  0  0  0  0  0  0  0  0
   -1.2983    1.2366    4.6035 H   0  0  0  0  0  0  0  0  0  0  0  0
   -0.1204   -0.0980    4.5907 H   0  0  0  0  0  0  0  0  0  0  0  0
  5  6  2  0  0  0  0
  5  7  1  0  0  0  0
  2  3  1  0  0  0  0
  2  4  1  0  0  0  0
  2  5  1  0  0  0  0
  1  2  1  0  0  0  0
 21 22  2  0  0  0  0
 21 23  1  0  0  0  0
 19 20  1  0  0  0  0
 17 18  2  0  0  0  0
 17 19  1  0  0  0  0
 14 15  1  0  0  0  0
 14 16  1  0  0  0  0
 14 17  1  0  0  0  0
 11 12  1  0  0  0  0
 11 13  1  0  0  0  0
 11 14  1  0  0  0  0
  9 10  1  0  0  0  0
  9 11  1  0  0  0  0
  9 21  1  0  0  0  0
  7  8  1  0  0  0  0
  7  9  1  0  0  0  0
 25 26  1  0  0  0  0
 25 27  1  0  0  0  0
 25 28  1  0  0  0  0
 23 24  1  0  0  0  0
 23 25  1  0  0  0  0
M  END
$$$$
default_name
  -OEChem-02102213163D

 28 27  0     1  0  0  0  0  0999 V2000
   -3.2133   -3.5565    1.2809 H   0  0  0  0  0  0  0  0  0  0  0  0
   -3.1873   -2.5755    0.8089 C   0  0  0  0  0  0  0  0  0  0  0  0
   -3.8793   -1.9065    1.3169 H   0  0  0  0  0  0  0  0  0  0  0  0
   -3.4623   -2.6685   -0.2401 H   0  0  0  0  0  0  0  0  0  0  0  0
   -1.7863   -2.0195    0.9119 C   0  0  0  0  0  0  0  0  0  0  0  0
   -0.9073   -2.6615    1.4699 O   0  0  0  0  0  0  0  0  0  0  0  0
   -1.5803   -0.8195    0.3749 N   0  0  0  0  0  0  0  0  0  0  0  0
   -2.3603   -0.3345   -0.0451 H   0  0  0  0  0  0  0  0  0  0  0  0
   -0.2933   -0.1205    0.3719 C   0  0  1  0  0  0  0  0  0  0  0  0
    0.4439   -0.7485   -0.1303 H   0  0  0  0  0  0  0  0  0  0  0  0
   -0.4368    1.1924   -0.4246 C   0  0  0  0  0  0  0  0  0  0  0  0
    0.5247    1.4124   -0.8918 H   0  0  0  0  0  0  0  0  0  0  0  0
   -1.1748    1.0544   -1.2161 H   0  0  0  0  0  0  0  0  0  0  0  0
   -0.8588    2.3986    0.4322 C   0  0  0  0  0  0  0  0  0  0  0  0
   -1.8084    2.7952    0.0727 H   0  0  0  0  0  0  0  0  0  0  0  0
   -0.9748    2.0791    1.4672 H   0  0  0  0  0  0  0  0  0  0  0  0
    0.1718    3.5224    0.3961 C   0  0  0  0  0  0  0  0  0  0  0  0
    1.2702    3.4487   -0.1310 O   0  0  0  0  0  0  0  0  0  0  0  0
   -0.1913    4.6621    1.0134 O   0  0  0  0  0  0  0  0  0  0  0  0
    0.5580    5.2518    0.9130 H   0  0  0  0  0  0  0  0  0  0  0  0
    0.1871    0.1189    1.8122 C   0  0  0  0  0  0  0  0  0  0  0  0
    1.3541   -0.1171    2.1187 O   0  0  0  0  0  0  0  0  0  0  0  0
   -0.7126    0.5740    2.6926 N   0  0  0  0  0  0  0  0  0  0  0  0
   -1.6464    0.7663    2.3621 H   0  0  0  0  0  0  0  0  0  0  0  0
   -0.4191    0.8310    4.1010 C   0  0  0  0  0  0  0  0  0  0  0  0
    0.4022    1.5452    4.1828 H   0  0  0  0  0  0  0  0  0  0  0  0
   -1.2983    1.2366    4.6035 H   0  0  0  0  0  0  0  0  0  0  0  0
   -0.1204   -0.0980    4.5907 H   0  0  0  0  0  0  0  0  0  0  0  0
  5  6  2  0  0  0  0
  5  7  1  0  0  0  0
  2  3  1  0  0  0  0
  2  4  1  0  0  0  0
  2  5  1  0  0  0  0
  1  2  1  0  0  0  0
 21 22  2  0  0  0  0
 21 23  1  0  0  0  0
 19 20  1  0  0  0  0
 17 18  2  0  0  0  0
 17 19  1  0  0  0  0
 14 15  1  0  0  0  0
 14 16  1  0  0  0  0
 14 17  1  0  0  0  0
 11 12  1  0  0  0  0
 11 13  1  0  0  0  0
 11 14  1  0  0  0  0
  9 10  1  0  0  0  0
  9 11  1  0  0  0  0
  9 21  1  0  0  0  0
  7  8  1  0  0  0  0
  7  9  1  0  0  0  0
 25 26  1  0  0  0  0
 25 27  1  0  0  0  0
 25 28  1  0  0  0  0
 23 24  1  0  0  0  0
 23 25  1  0  0  0  0
M  END
$$$$
default_name
  -OEChem-02102213163D

 28 27  0     1  0  0  0  0  0999 V2000
   -3.2133   -3.5565    1.2809 H   0  0  0  0  0  0  0  0  0  0  0  0
   -3.1873   -2.5755    0.8089 C   0  0  0  0  0  0  0  0  0  0  0  0
   -3.8793   -1.9065    1.3169 H   0  0  0  0  0  0  0  0  0  0  0  0
   -3.4623   -2.6685   -0.2401 H   0  0  0  0  0  0  0  0  0  0  0  0
   -1.7863   -2.0195    0.9119 C   0  0  0  0  0  0  0  0  0  0  0  0
   -0.9073   -2.6615    1.4699 O   0  0  0  0  0  0  0  0  0  0  0  0
   -1.5803   -0.8195    0.3749 N   0  0  0  0  0  0  0  0  0  0  0  0
   -2.3603   -0.3345   -0.0451 H   0  0  0  0  0  0  0  0  0  0  0  0
   -0.2933   -0.1205    0.3719 C   0  0  1  0  0  0  0  0  0  0  0  0
    0.4439   -0.7485   -0.1303 H   0  0  0  0  0  0  0  0  0  0  0  0
   -0.4368    1.1924   -0.4246 C   0  0  0  0  0  0  0  0  0  0  0  0
    0.5247    1.4124   -0.8918 H   0  0  0  0  0  0  0  0  0  0  0  0
   -1.1748    1.0544   -1.2161 H   0  0  0  0  0  0  0  0  0  0  0  0
   -0.8588    2.3986    0.4322 C   0  0  0  0  0  0  0  0  0  0  0  0
   -1.9096    2.6292    0.2565 H   0  0  0  0  0  0  0  0  0  0  0  0
   -0.7182    2.1564    1.4850 H   0  0  0  0  0  0  0  0  0  0  0  0
   -0.0381    3.6456    0.1194 C   0  0  0  0  0  0  0  0  0  0  0  0
    0.9327    3.6778   -0.6197 O   0  0  0  0  0  0  0  0  0  0  0  0
   -0.4403    4.7736    0.7338 O   0  0  0  0  0  0  0  0  0  0  0  0
    0.1762    5.4495    0.4467 H   0  0  0  0  0  0  0  0  0  0  0  0
    0.1871    0.1189    1.8122 C   0  0  0  0  0  0  0  0  0  0  0  0
    1.3541   -0.1171    2.1187 O   0  0  0  0  0  0  0  0  0  0  0  0
   -0.7126    0.5740    2.6926 N   0  0  0  0  0  0  0  0  0  0  0  0
   -1.6464    0.7663    2.3621 H   0  0  0  0  0  0  0  0  0  0  0  0
   -0.4191    0.8310    4.1010 C   0  0  0  0  0  0  0  0  0  0  0  0
    0.4022    1.5452    4.1828 H   0  0  0  0  0  0  0  0  0  0  0  0
   -1.2983    1.2366    4.6035 H   0  0  0  0  0  0  0  0  0  0  0  0
   -0.1204   -0.0980    4.5907 H   0  0  0  0  0  0  0  0  0  0  0  0
  5  6  2  0  0  0  0
  5  7  1  0  0  0  0
  2  3  1  0  0  0  0
  2  4  1  0  0  0  0
  2  5  1  0  0  0  0
  1  2  1  0  0  0  0
 21 22  2  0  0  0  0
 21 23  1  0  0  0  0
 19 20  1  0  0  0  0
 17 18  2  0  0  0  0
 17 19  1  0  0  0  0
 14 15  1  0  0  0  0
 14 16  1  0  0  0  0
 14 17  1  0  0  0  0
 11 12  1  0  0  0  0
 11 13  1  0  0  0  0
 11 14  1  0  0  0  0
  9 10  1  0  0  0  0
  9 11  1  0  0  0  0
  9 21  1  0  0  0  0
  7  8  1  0  0  0  0
  7  9  1  0  0  0  0
 25 26  1  0  0  0  0
 25 27  1  0  0  0  0
 25 28  1  0  0  0  0
 23 24  1  0  0  0  0
 23 25  1  0  0  0  0
M  END
$$$$
default_name
  -OEChem-02102213163D

 28 27  0     1  0  0  0  0  0999 V2000
   -3.2133   -3.5565    1.2809 H   0  0  0  0  0  0  0  0  0  0  0  0
   -3.1873   -2.5755    0.8089 C   0  0  0  0  0  0  0  0  0  0  0  0
   -3.8793   -1.9065    1.3169 H   0  0  0  0  0  0  0  0  0  0  0  0
   -3.4623   -2.6685   -0.2401 H   0  0  0  0  0  0  0  0  0  0  0  0
   -1.7863   -2.0195    0.9119 C   0  0  0  0  0  0  0  0  0  0  0  0
   -0.9073   -2.6615    1.4699 O   0  0  0  0  0  0  0  0  0  0  0  0
   -1.5803   -0.8195    0.3749 N   0  0  0  0  0  0  0  0  0  0  0  0
   -2.3603   -0.3345   -0.0451 H   0  0  0  0  0  0  0  0  0  0  0  0
   -0.2933   -0.1205    0.3719 C   0  0  1  0  0  0  0  0  0  0  0  0
    0.4439   -0.7485   -0.1303 H   0  0  0  0  0  0  0  0  0  0  0  0
   -0.4368    1.1924   -0.4246 C   0  0  0  0  0  0  0  0  0  0  0  0
    0.5247    1.4124   -0.8918 H   0  0  0  0  0  0  0  0  0  0  0  0
   -1.1748    1.0544   -1.2161 H   0  0  0  0  0  0  0  0  0  0  0  0
   -0.8588    2.3986    0.4322 C   0  0  0  0  0  0  0  0  0  0  0  0
   -1.9462    2.4674    0.4664 H   0  0  0  0  0  0  0  0  0  0  0  0
   -0.4778    2.2692    1.4445 H   0  0  0  0  0  0  0  0  0  0  0  0
   -0.3147    3.7146   -0.1141 C   0  0  0  0  0  0  0  0  0  0  0  0
    0.4746    3.8158   -1.0396 O   0  0  0  0  0  0  0  0  0  0  0  0
   -0.7536    4.8256    0.5063 O   0  0  0  0  0  0  0  0  0  0  0  0
   -0.3157    5.5523    0.0597 H   0  0  0  0  0  0  0  0  0  0  0  0
    0.1871    0.1189    1.8122 C   0  0  0  0  0  0  0  0  0  0  0  0
    1.3541   -0.1171    2.1187 O   0  0  0  0  0  0  0  0  0  0  0  0
   -0.7126    0.5740    2.6926 N   0  0  0  0  0  0  0  0  0  0  0  0
   -1.6464    0.7663    2.3621 H   0  0  0  0  0  0  0  0  0  0  0  0
   -0.4191    0.8310    4.1010 C   0  0  0  0  0  0  0  0  0  0  0  0
    0.4022    1.5452    4.1828 H   0  0  0  0  0  0  0  0  0  0  0  0
   -1.2983    1.2366    4.6035 H   0  0  0  0  0  0  0  0  0  0  0  0
   -0.1204   -0.0980    4.5907 H   0  0  0  0  0  0  0  0  0  0  0  0
  5  6  2  0  0  0  0
  5  7  1  0  0  0  0
  2  3  1  0  0  0  0
  2  4  1  0  0  0  0
  2  5  1  0  0  0  0
  1  2  1  0  0  0  0
 21 22  2  0  0  0  0
 21 23  1  0  0  0  0
 19 20  1  0  0  0  0
 17 18  2  0  0  0  0
 17 19  1  0  0  0  0
 14 15  1  0  0  0  0
 14 16  1  0  0  0  0
 14 17  1  0  0  0  0
 11 12  1  0  0  0  0
 11 13  1  0  0  0  0
 11 14  1  0  0  0  0
  9 10  1  0  0  0  0
  9 11  1  0  0  0  0
  9 21  1  0  0  0  0
  7  8  1  0  0  0  0
  7  9  1  0  0  0  0
 25 26  1  0  0  0  0
 25 27  1  0  0  0  0
 25 28  1  0  0  0  0
 23 24  1  0  0  0  0
 23 25  1  0  0  0  0
M  END
$$$$
default_name
  -OEChem-02102213163D

 28 27  0     1  0  0  0  0  0999 V2000
   -3.2133   -3.5565    1.2809 H   0  0  0  0  0  0  0  0  0  0  0  0
   -3.1873   -2.5755    0.8089 C   0  0  0  0  0  0  0  0  0  0  0  0
   -3.8793   -1.9065    1.3169 H   0  0  0  0  0  0  0  0  0  0  0  0
   -3.4623   -2.6685   -0.2401 H   0  0  0  0  0  0  0  0  0  0  0  0
   -1.7863   -2.0195    0.9119 C   0  0  0  0  0  0  0  0  0  0  0  0
   -0.9073   -2.6615    1.4699 O   0  0  0  0  0  0  0  0  0  0  0  0
   -1.5803   -0.8195    0.3749 N   0  0  0  0  0  0  0  0  0  0  0  0
   -2.3603   -0.3345   -0.0451 H   0  0  0  0  0  0  0  0  0  0  0  0
   -0.2933   -0.1205    0.3719 C   0  0  1  0  0  0  0  0  0  0  0  0
    0.4439   -0.7485   -0.1303 H   0  0  0  0  0  0  0  0  0  0  0  0
   -0.4368    1.1924   -0.4246 C   0  0  0  0  0  0  0  0  0  0  0  0
    0.5247    1.4124   -0.8918 H   0  0  0  0  0  0  0  0  0  0  0  0
   -1.1748    1.0544   -1.2161 H   0  0  0  0  0  0  0  0  0  0  0  0
   -0.8588    2.3986    0.4322 C   0  0  0  0  0  0  0  0  0  0  0  0
   -1.9156    2.3206    0.6880 H   0  0  0  0  0  0  0  0  0  0  0  0
   -0.2701    2.4100    1.3487 H   0  0  0  0  0  0  0  0  0  0  0  0
   -0.6392    3.7248   -0.2883 C   0  0  0  0  0  0  0  0  0  0  0  0
   -0.0731    3.8532   -1.3621 O   0  0  0  0  0  0  0  0  0  0  0  0
   -1.1099    4.8144    0.3464 O   0  0  0  0  0  0  0  0  0  0  0  0
   -0.8841    5.5532   -0.2216 H   0  0  0  0  0  0  0  0  0  0  0  0
    0.1871    0.1189    1.8122 C   0  0  0  0  0  0  0  0  0  0  0  0
    1.3541   -0.1171    2.1187 O   0  0  0  0  0  0  0  0  0  0  0  0
   -0.7126    0.5740    2.6926 N   0  0  0  0  0  0  0  0  0  0  0  0
   -1.6464    0.7663    2.3621 H   0  0  0  0  0  0  0  0  0  0  0  0
   -0.4191    0.8310    4.1010 C   0  0  0  0  0  0  0  0  0  0  0  0
    0.4022    1.5452    4.1828 H   0  0  0  0  0  0  0  0  0  0  0  0
   -1.2983    1.2366    4.6035 H   0  0  0  0  0  0  0  0  0  0  0  0
   -0.1204   -0.0980    4.5907 H   0  0  0  0  0  0  0  0  0  0  0  0
  5  6  2  0  0  0  0
  5  7  1  0  0  0  0
  2  3  1  0  0  0  0
  2  4  1  0  0  0  0
  2  5  1  0  0  0  0
  1  2  1  0  0  0  0
 21 22  2  0  0  0  0
 21 23  1  0  0  0  0
 19 20  1  0  0  0  0
 17 18  2  0  0  0  0
 17 19  1  0  0  0  0
 14 15  1  0  0  0  0
 14 16  1  0  0  0  0
 14 17  1  0  0  0  0
 11 12  1  0  0  0  0
 11 13  1  0  0  0  0
 11 14  1  0  0  0  0
  9 10  1  0  0  0  0
  9 11  1  0  0  0  0
  9 21  1  0  0  0  0
  7  8  1  0  0  0  0
  7  9  1  0  0  0  0
 25 26  1  0  0  0  0
 25 27  1  0  0  0  0
 25 28  1  0  0  0  0
 23 24  1  0  0  0  0
 23 25  1  0  0  0  0
M  END
$$$$
default_name
  -OEChem-02102213163D

 28 27  0     1  0  0  0  0  0999 V2000
   -3.2133   -3.5565    1.2809 H   0  0  0  0  0  0  0  0  0  0  0  0
   -3.1873   -2.5755    0.8089 C   0  0  0  0  0  0  0  0  0  0  0  0
   -3.8793   -1.9065    1.3169 H   0  0  0  0  0  0  0  0  0  0  0  0
   -3.4623   -2.6685   -0.2401 H   0  0  0  0  0  0  0  0  0  0  0  0
   -1.7863   -2.0195    0.9119 C   0  0  0  0  0  0  0  0  0  0  0  0
   -0.9073   -2.6615    1.4699 O   0  0  0  0  0  0  0  0  0  0  0  0
   -1.5803   -0.8195    0.3749 N   0  0  0  0  0  0  0  0  0  0  0  0
   -2.3603   -0.3345   -0.0451 H   0  0  0  0  0  0  0  0  0  0  0  0
   -0.2933   -0.1205    0.3719 C   0  0  1  0  0  0  0  0  0  0  0  0
    0.4439   -0.7485   -0.1303 H   0  0  0  0  0  0  0  0  0  0  0  0
   -0.4368    1.1924   -0.4246 C   0  0  0  0  0  0  0  0  0  0  0  0
    0.4174    1.2750   -1.0990 H   0  0  0  0  0  0  0  0  0  0  0  0
   -1.3437    1.1491   -1.0295 H   0  0  0  0  0  0  0  0  0  0  0  0
   -0.4964    2.4526    0.4560 C   0  0  0  0  0  0  0  0  0  0  0  0
   -1.3460    2.3903    1.1362 H   0  0  0  0  0  0  0  0  0  0  0  0
    0.4216    2.5263    1.0379 H   0  0  0  0  0  0  0  0  0  0  0  0
   -0.6382    3.7280   -0.3685 C   0  0  0  0  0  0  0  0  0  0  0  0
   -0.5782    3.7850   -1.5863 O   0  0  0  0  0  0  0  0  0  0  0  0
   -0.8316    4.8569    0.3384 O   0  0  0  0  0  0  0  0  0  0  0  0
   -0.8866    5.5563   -0.3151 H   0  0  0  0  0  0  0  0  0  0  0  0
    0.1871    0.1189    1.8122 C   0  0  0  0  0  0  0  0  0  0  0  0
    1.3541   -0.1171    2.1187 O   0  0  0  0  0  0  0  0  0  0  0  0
   -0.7126    0.5740    2.6926 N   0  0  0  0  0  0  0  0  0  0  0  0
   -1.6464    0.7663    2.3621 H   0  0  0  0  0  0  0  0  0  0  0  0
   -0.4191    0.8310    4.1010 C   0  0  0  0  0  0  0  0  0  0  0  0
    0.4022    1.5452    4.1828 H   0  0  0  0  0  0  0  0  0  0  0  0
   -1.2983    1.2366    4.6035 H   0  0  0  0  0  0  0  0  0  0  0  0
   -0.1204   -0.0980    4.5907 H   0  0  0  0  0  0  0  0  0  0  0  0
  5  6  2  0  0  0  0
  5  7  1  0  0  0  0
  2  3  1  0  0  0  0
  2  4  1  0  0  0  0
  2  5  1  0  0  0  0
  1  2  1  0  0  0  0
 21 22  2  0  0  0  0
 21 23  1  0  0  0  0
 19 20  1  0  0  0  0
 17 18  2  0  0  0  0
 17 19  1  0  0  0  0
 14 15  1  0  0  0  0
 14 16  1  0  0  0  0
 14 17  1  0  0  0  0
 11 12  1  0  0  0  0
 11 13  1  0  0  0  0
 11 14  1  0  0  0  0
  9 10  1  0  0  0  0
  9 11  1  0  0  0  0
  9 21  1  0  0  0  0
  7  8  1  0  0  0  0
  7  9  1  0  0  0  0
 25 26  1  0  0  0  0
 25 27  1  0  0  0  0
 25 28  1  0  0  0  0
 23 24  1  0  0  0  0
 23 25  1  0  0  0  0
M  END
$$$$
default_name
  -OEChem-02102213163D

 28 27  0     1  0  0  0  0  0999 V2000
   -3.2133   -3.5565    1.2809 H   0  0  0  0  0  0  0  0  0  0  0  0
   -3.1873   -2.5755    0.8089 C   0  0  0  0  0  0  0  0  0  0  0  0
   -3.8793   -1.9065    1.3169 H   0  0  0  0  0  0  0  0  0  0  0  0
   -3.4623   -2.6685   -0.2401 H   0  0  0  0  0  0  0  0  0  0  0  0
   -1.7863   -2.0195    0.9119 C   0  0  0  0  0  0  0  0  0  0  0  0
   -0.9073   -2.6615    1.4699 O   0  0  0  0  0  0  0  0  0  0  0  0
   -1.5803   -0.8195    0.3749 N   0  0  0  0  0  0  0  0  0  0  0  0
   -2.3603   -0.3345   -0.0451 H   0  0  0  0  0  0  0  0  0  0  0  0
   -0.2933   -0.1205    0.3719 C   0  0  1  0  0  0  0  0  0  0  0  0
    0.4439   -0.7485   -0.1303 H   0  0  0  0  0  0  0  0  0  0  0  0
   -0.4368    1.1924   -0.4246 C   0  0  0  0  0  0  0  0  0  0  0  0
    0.4174    1.2750   -1.0990 H   0  0  0  0  0  0  0  0  0  0  0  0
   -1.3437    1.1491   -1.0295 H   0  0  0  0  0  0  0  0  0  0  0  0
   -0.4964    2.4526    0.4560 C   0  0  0  0  0  0  0  0  0  0  0  0
   -1.1641    2.2838    1.3010 H   0  0  0  0  0  0  0  0  0  0  0  0
    0.5022    2.6756    0.8297 H   0  0  0  0  0  0  0  0  0  0  0  0
   -0.9979    3.6714   -0.3119 C   0  0  0  0  0  0  0  0  0  0  0  0
   -1.2056    3.7049   -1.5142 O   0  0  0  0  0  0  0  0  0  0  0  0
   -1.2039    4.7776    0.4267 O   0  0  0  0  0  0  0  0  0  0  0  0
   -1.4994    5.4440   -0.1960 H   0  0  0  0  0  0  0  0  0  0  0  0
    0.1871    0.1189    1.8122 C   0  0  0  0  0  0  0  0  0  0  0  0
    1.3541   -0.1171    2.1187 O   0  0  0  0  0  0  0  0  0  0  0  0
   -0.7126    0.5740    2.6926 N   0  0  0  0  0  0  0  0  0  0  0  0
   -1.6464    0.7663    2.3621 H   0  0  0  0  0  0  0  0  0  0  0  0
   -0.4191    0.8310    4.1010 C   0  0  0  0  0  0  0  0  0  0  0  0
    0.4022    1.5452    4.1828 H   0  0  0  0  0  0  0  0  0  0  0  0
   -1.2983    1.2366    4.6035 H   0  0  0  0  0  0  0  0  0  0  0  0
   -0.1204   -0.0980    4.5907 H   0  0  0  0  0  0  0  0  0  0  0  0
  5  6  2  0  0  0  0
  5  7  1  0  0  0  0
  2  3  1  0  0  0  0
  2  4  1  0  0  0  0
  2  5  1  0  0  0  0
  1  2  1  0  0  0  0
 21 22  2  0  0  0  0
 21 23  1  0  0  0  0
 19 20  1  0  0  0  0
 17 18  2  0  0  0  0
 17 19  1  0  0  0  0
 14 15  1  0  0  0  0
 14 16  1  0  0  0  0
 14 17  1  0  0  0  0
 11 12  1  0  0  0  0
 11 13  1  0  0  0  0
 11 14  1  0  0  0  0
  9 10  1  0  0  0  0
  9 11  1  0  0  0  0
  9 21  1  0  0  0  0
  7  8  1  0  0  0  0
  7  9  1  0  0  0  0
 25 26  1  0  0  0  0
 25 27  1  0  0  0  0
 25 28  1  0  0  0  0
 23 24  1  0  0  0  0
 23 25  1  0  0  0  0
M  END
$$$$
default_name
  -OEChem-02102213163D

 28 27  0     1  0  0  0  0  0999 V2000
   -3.2133   -3.5565    1.2809 H   0  0  0  0  0  0  0  0  0  0  0  0
   -3.1873   -2.5755    0.8089 C   0  0  0  0  0  0  0  0  0  0  0  0
   -3.8793   -1.9065    1.3169 H   0  0  0  0  0  0  0  0  0  0  0  0
   -3.4623   -2.6685   -0.2401 H   0  0  0  0  0  0  0  0  0  0  0  0
   -1.7863   -2.0195    0.9119 C   0  0  0  0  0  0  0  0  0  0  0  0
   -0.9073   -2.6615    1.4699 O   0  0  0  0  0  0  0  0  0  0  0  0
   -1.5803   -0.8195    0.3749 N   0  0  0  0  0  0  0  0  0  0  0  0
   -2.3603   -0.3345   -0.0451 H   0  0  0  0  0  0  0  0  0  0  0  0
   -0.2933   -0.1205    0.3719 C   0  0  1  0  0  0  0  0  0  0  0  0
    0.4439   -0.7485   -0.1303 H   0  0  0  0  0  0  0  0  0  0  0  0
   -0.4368    1.1924   -0.4246 C   0  0  0  0  0  0  0  0  0  0  0  0
    0.4174    1.2750   -1.0990 H   0  0  0  0  0  0  0  0  0  0  0  0
   -1.3437    1.1491   -1.0295 H   0  0  0  0  0  0  0  0  0  0  0  0
   -0.4964    2.4526    0.4560 C   0  0  0  0  0  0  0  0  0  0  0  0
   -0.9377    2.2095    1.4226 H   0  0  0  0  0  0  0  0  0  0  0  0
    0.5139    2.8297    0.6100 H   0  0  0  0  0  0  0  0  0  0  0  0
   -1.3249    3.5640   -0.1804 C   0  0  0  0  0  0  0  0  0  0  0  0
   -1.7846    3.5353   -1.3107 O   0  0  0  0  0  0  0  0  0  0  0  0
   -1.5329    4.6467    0.5917 O   0  0  0  0  0  0  0  0  0  0  0  0
   -2.0494    5.2460    0.0500 H   0  0  0  0  0  0  0  0  0  0  0  0
    0.1871    0.1189    1.8122 C   0  0  0  0  0  0  0  0  0  0  0  0
    1.3541   -0.1171    2.1187 O   0  0  0  0  0  0  0  0  0  0  0  0
   -0.7126    0.5740    2.6926 N   0  0  0  0  0  0  0  0  0  0  0  0
   -1.6464    0.7663    2.3621 H   0  0  0  0  0  0  0  0  0  0  0  0
   -0.4191    0.8310    4.1010 C   0  0  0  0  0  0  0  0  0  0  0  0
    0.4022    1.5452    4.1828 H   0  0  0  0  0  0  0  0  0  0  0  0
   -1.2983    1.2366    4.6035 H   0  0  0  0  0  0  0  0  0  0  0  0
   -0.1204   -0.0980    4.5907 H   0  0  0  0  0  0  0  0  0  0  0  0
  5  6  2  0  0  0  0
  5  7  1  0  0  0  0
  2  3  1  0  0  0  0
  2  4  1  0  0  0  0
  2  5  1  0  0  0  0
  1  2  1  0  0  0  0
 21 22  2  0  0  0  0
 21 23  1  0  0  0  0
 19 20  1  0  0  0  0
 17 18  2  0  0  0  0
 17 19  1  0  0  0  0
 14 15  1  0  0  0  0
 14 16  1  0  0  0  0
 14 17  1  0  0  0  0
 11 12  1  0  0  0  0
 11 13  1  0  0  0  0
 11 14  1  0  0  0  0
  9 10  1  0  0  0  0
  9 11  1  0  0  0  0
  9 21  1  0  0  0  0
  7  8  1  0  0  0  0
  7  9  1  0  0  0  0
 25 26  1  0  0  0  0
 25 27  1  0  0  0  0
 25 28  1  0  0  0  0
 23 24  1  0  0  0  0
 23 25  1  0  0  0  0
M  END
$$$$
default_name
  -OEChem-02102213163D

 28 27  0     1  0  0  0  0  0999 V2000
   -3.2133   -3.5565    1.2809 H   0  0  0  0  0  0  0  0  0  0  0  0
   -3.1873   -2.5755    0.8089 C   0  0  0  0  0  0  0  0  0  0  0  0
   -3.8793   -1.9065    1.3169 H   0  0  0  0  0  0  0  0  0  0  0  0
   -3.4623   -2.6685   -0.2401 H   0  0  0  0  0  0  0  0  0  0  0  0
   -1.7863   -2.0195    0.9119 C   0  0  0  0  0  0  0  0  0  0  0  0
   -0.9073   -2.6615    1.4699 O   0  0  0  0  0  0  0  0  0  0  0  0
   -1.5803   -0.8195    0.3749 N   0  0  0  0  0  0  0  0  0  0  0  0
   -2.3603   -0.3345   -0.0451 H   0  0  0  0  0  0  0  0  0  0  0  0
   -0.2933   -0.1205    0.3719 C   0  0  1  0  0  0  0  0  0  0  0  0
    0.4439   -0.7485   -0.1303 H   0  0  0  0  0  0  0  0  0  0  0  0
   -0.4368    1.1924   -0.4246 C   0  0  0  0  0  0  0  0  0  0  0  0
    0.4174    1.2750   -1.0990 H   0  0  0  0  0  0  0  0  0  0  0  0
   -1.3437    1.1491   -1.0295 H   0  0  0  0  0  0  0  0  0  0  0  0
   -0.4964    2.4526    0.4560 C   0  0  0  0  0  0  0  0  0  0  0  0
   -0.6822    2.1724    1.4929 H   0  0  0  0  0  0  0  0  0  0  0  0
    0.4558    2.9781    0.3938 H   0  0  0  0  0  0  0  0  0  0  0  0
   -1.5970    3.4131    0.0171 C   0  0  0  0  0  0  0  0  0  0  0  0
   -2.2755    3.2878   -0.9898 O   0  0  0  0  0  0  0  0  0  0  0  0
   -1.7964    4.4732    0.8221 O   0  0  0  0  0  0  0  0  0  0  0  0
   -2.4991    4.9757    0.4063 H   0  0  0  0  0  0  0  0  0  0  0  0
    0.1871    0.1189    1.8122 C   0  0  0  0  0  0  0  0  0  0  0  0
    1.3541   -0.1171    2.1187 O   0  0  0  0  0  0  0  0  0  0  0  0
   -0.7126    0.5740    2.6926 N   0  0  0  0  0  0  0  0  0  0  0  0
   -1.6464    0.7663    2.3621 H   0  0  0  0  0  0  0  0  0  0  0  0
   -0.4191    0.8310    4.1010 C   0  0  0  0  0  0  0  0  0  0  0  0
    0.4022    1.5452    4.1828 H   0  0  0  0  0  0  0  0  0  0  0  0
   -1.2983    1.2366    4.6035 H   0  0  0  0  0  0  0  0  0  0  0  0
   -0.1204   -0.0980    4.5907 H   0  0  0  0  0  0  0  0  0  0  0  0
  5  6  2  0  0  0  0
  5  7  1  0  0  0  0
  2  3  1  0  0  0  0
  2  4  1  0  0  0  0
  2  5  1  0  0  0  0
  1  2  1  0  0  0  0
 21 22  2  0  0  0  0
 21 23  1  0  0  0  0
 19 20  1  0  0  0  0
 17 18  2  0  0  0  0
 17 19  1  0  0  0  0
 14 15  1  0  0  0  0
 14 16  1  0  0  0  0
 14 17  1  0  0  0  0
 11 12  1  0  0  0  0
 11 13  1  0  0  0  0
 11 14  1  0  0  0  0
  9 10  1  0  0  0  0
  9 11  1  0  0  0  0
  9 21  1  0  0  0  0
  7  8  1  0  0  0  0
  7  9  1  0  0  0  0
 25 26  1  0  0  0  0
 25 27  1  0  0  0  0
 25 28  1  0  0  0  0
 23 24  1  0  0  0  0
 23 25  1  0  0  0  0
M  END
$$$$
default_name
  -OEChem-02102213163D

 28 27  0     1  0  0  0  0  0999 V2000
   -3.2133   -3.5565    1.2809 H   0  0  0  0  0  0  0  0  0  0  0  0
   -3.1873   -2.5755    0.8089 C   0  0  0  0  0  0  0  0  0  0  0  0
   -3.8793   -1.9065    1.3169 H   0  0  0  0  0  0  0  0  0  0  0  0
   -3.4623   -2.6685   -0.2401 H   0  0  0  0  0  0  0  0  0  0  0  0
   -1.7863   -2.0195    0.9119 C   0  0  0  0  0  0  0  0  0  0  0  0
   -0.9073   -2.6615    1.4699 O   0  0  0  0  0  0  0  0  0  0  0  0
   -1.5803   -0.8195    0.3749 N   0  0  0  0  0  0  0  0  0  0  0  0
   -2.3603   -0.3345   -0.0451 H   0  0  0  0  0  0  0  0  0  0  0  0
   -0.2933   -0.1205    0.3719 C   0  0  1  0  0  0  0  0  0  0  0  0
    0.4439   -0.7485   -0.1303 H   0  0  0  0  0  0  0  0  0  0  0  0
   -0.4368    1.1924   -0.4246 C   0  0  0  0  0  0  0  0  0  0  0  0
    0.4174    1.2750   -1.0990 H   0  0  0  0  0  0  0  0  0  0  0  0
   -1.3437    1.1491   -1.0295 H   0  0  0  0  0  0  0  0  0  0  0  0
   -0.4964    2.4526    0.4560 C   0  0  0  0  0  0  0  0  0  0  0  0
   -0.4150    2.1752    1.5070 H   0  0  0  0  0  0  0  0  0  0  0  0
    0.3318    3.1106    0.1957 H   0  0  0  0  0  0  0  0  0  0  0  0
   -1.7956    3.2291    0.2669 C   0  0  0  0  0  0  0  0  0  0  0  0
   -2.6450    2.9792   -0.5732 O   0  0  0  0  0  0  0  0  0  0  0  0
   -1.9764    4.2689    1.1023 O   0  0  0  0  0  0  0  0  0  0  0  0
   -2.8180    4.6516    0.8485 H   0  0  0  0  0  0  0  0  0  0  0  0
    0.1871    0.1189    1.8122 C   0  0  0  0  0  0  0  0  0  0  0  0
    1.3541   -0.1171    2.1187 O   0  0  0  0  0  0  0  0  0  0  0  0
   -0.7126    0.5740    2.6926 N   0  0  0  0  0  0  0  0  0  0  0  0
   -1.6464    0.7663    2.3621 H   0  0  0  0  0  0  0  0  0  0  0  0
   -0.4191    0.8310    4.1010 C   0  0  0  0  0  0  0  0  0  0  0  0
    0.4022    1.5452    4.1828 H   0  0  0  0  0  0  0  0  0  0  0  0
   -1.2983    1.2366    4.6035 H   0  0  0  0  0  0  0  0  0  0  0  0
   -0.1204   -0.0980    4.5907 H   0  0  0  0  0  0  0  0  0  0  0  0
  5  6  2  0  0  0  0
  5  7  1  0  0  0  0
  2  3  1  0  0  0  0
  2  4  1  0  0  0  0
  2  5  1  0  0  0  0
  1  2  1  0  0  0  0
 21 22  2  0  0  0  0
 21 23  1  0  0  0  0
 19 20  1  0  0  0  0
 17 18  2  0  0  0  0
 17 19  1  0  0  0  0
 14 15  1  0  0  0  0
 14 16  1  0  0  0  0
 14 17  1  0  0  0  0
 11 12  1  0  0  0  0
 11 13  1  0  0  0  0
 11 14  1  0  0  0  0
  9 10  1  0  0  0  0
  9 11  1  0  0  0  0
  9 21  1  0  0  0  0
  7  8  1  0  0  0  0
  7  9  1  0  0  0  0
 25 26  1  0  0  0  0
 25 27  1  0  0  0  0
 25 28  1  0  0  0  0
 23 24  1  0  0  0  0
 23 25  1  0  0  0  0
M  END
$$$$
default_name
  -OEChem-02102213163D

 28 27  0     1  0  0  0  0  0999 V2000
   -3.2133   -3.5565    1.2809 H   0  0  0  0  0  0  0  0  0  0  0  0
   -3.1873   -2.5755    0.8089 C   0  0  0  0  0  0  0  0  0  0  0  0
   -3.8793   -1.9065    1.3169 H   0  0  0  0  0  0  0  0  0  0  0  0
   -3.4623   -2.6685   -0.2401 H   0  0  0  0  0  0  0  0  0  0  0  0
   -1.7863   -2.0195    0.9119 C   0  0  0  0  0  0  0  0  0  0  0  0
   -0.9073   -2.6615    1.4699 O   0  0  0  0  0  0  0  0  0  0  0  0
   -1.5803   -0.8195    0.3749 N   0  0  0  0  0  0  0  0  0  0  0  0
   -2.3603   -0.3345   -0.0451 H   0  0  0  0  0  0  0  0  0  0  0  0
   -0.2933   -0.1205    0.3719 C   0  0  1  0  0  0  0  0  0  0  0  0
    0.4439   -0.7485   -0.1303 H   0  0  0  0  0  0  0  0  0  0  0  0
   -0.4368    1.1924   -0.4246 C   0  0  0  0  0  0  0  0  0  0  0  0
    0.4174    1.2750   -1.0990 H   0  0  0  0  0  0  0  0  0  0  0  0
   -1.3437    1.1491   -1.0295 H   0  0  0  0  0  0  0  0  0  0  0  0
   -0.4964    2.4526    0.4560 C   0  0  0  0  0  0  0  0  0  0  0  0
   -0.1544    2.2176    1.4640 H   0  0  0  0  0  0  0  0  0  0  0  0
    0.1505    3.2182    0.0294 H   0  0  0  0  0  0  0  0  0  0  0  0
   -1.9072    3.0244    0.5523 C   0  0  0  0  0  0  0  0  0  0  0  0
   -2.8679    2.6305   -0.0894 O   0  0  0  0  0  0  0  0  0  0  0  0
   -2.0606    4.0477    1.4131 O   0  0  0  0  0  0  0  0  0  0  0  0
   -2.9843    4.2958    1.3465 H   0  0  0  0  0  0  0  0  0  0  0  0
    0.1871    0.1189    1.8122 C   0  0  0  0  0  0  0  0  0  0  0  0
    1.3541   -0.1171    2.1187 O   0  0  0  0  0  0  0  0  0  0  0  0
   -0.7126    0.5740    2.6926 N   0  0  0  0  0  0  0  0  0  0  0  0
   -1.6464    0.7663    2.3621 H   0  0  0  0  0  0  0  0  0  0  0  0
   -0.4191    0.8310    4.1010 C   0  0  0  0  0  0  0  0  0  0  0  0
    0.4022    1.5452    4.1828 H   0  0  0  0  0  0  0  0  0  0  0  0
   -1.2983    1.2366    4.6035 H   0  0  0  0  0  0  0  0  0  0  0  0
   -0.1204   -0.0980    4.5907 H   0  0  0  0  0  0  0  0  0  0  0  0
  5  6  2  0  0  0  0
  5  7  1  0  0  0  0
  2  3  1  0  0  0  0
  2  4  1  0  0  0  0
  2  5  1  0  0  0  0
  1  2  1  0  0  0  0
 21 22  2  0  0  0  0
 21 23  1  0  0  0  0
 19 20  1  0  0  0  0
 17 18  2  0  0  0  0
 17 19  1  0  0  0  0
 14 15  1  0  0  0  0
 14 16  1  0  0  0  0
 14 17  1  0  0  0  0
 11 12  1  0  0  0  0
 11 13  1  0  0  0  0
 11 14  1  0  0  0  0
  9 10  1  0  0  0  0
  9 11  1  0  0  0  0
  9 21  1  0  0  0  0
  7  8  1  0  0  0  0
  7  9  1  0  0  0  0
 25 26  1  0  0  0  0
 25 27  1  0  0  0  0
 25 28  1  0  0  0  0
 23 24  1  0  0  0  0
 23 25  1  0  0  0  0
M  END
$$$$
default_name
  -OEChem-02102213163D

 28 27  0     1  0  0  0  0  0999 V2000
   -3.2133   -3.5565    1.2809 H   0  0  0  0  0  0  0  0  0  0  0  0
   -3.1873   -2.5755    0.8089 C   0  0  0  0  0  0  0  0  0  0  0  0
   -3.8793   -1.9065    1.3169 H   0  0  0  0  0  0  0  0  0  0  0  0
   -3.4623   -2.6685   -0.2401 H   0  0  0  0  0  0  0  0  0  0  0  0
   -1.7863   -2.0195    0.9119 C   0  0  0  0  0  0  0  0  0  0  0  0
   -0.9073   -2.6615    1.4699 O   0  0  0  0  0  0  0  0  0  0  0  0
   -1.5803   -0.8195    0.3749 N   0  0  0  0  0  0  0  0  0  0  0  0
   -2.3603   -0.3345   -0.0451 H   0  0  0  0  0  0  0  0  0  0  0  0
   -0.2933   -0.1205    0.3719 C   0  0  1  0  0  0  0  0  0  0  0  0
    0.4439   -0.7485   -0.1303 H   0  0  0  0  0  0  0  0  0  0  0  0
   -0.4368    1.1924   -0.4246 C   0  0  0  0  0  0  0  0  0  0  0  0
    0.4174    1.2750   -1.0990 H   0  0  0  0  0  0  0  0  0  0  0  0
   -1.3437    1.1491   -1.0295 H   0  0  0  0  0  0  0  0  0  0  0  0
   -0.4964    2.4526    0.4560 C   0  0  0  0  0  0  0  0  0  0  0  0
    0.0819    2.2968    1.3667 H   0  0  0  0  0  0  0  0  0  0  0  0
   -0.0759    3.2937   -0.0939 H   0  0  0  0  0  0  0  0  0  0  0  0
   -1.9242    2.8130    0.8536 C   0  0  0  0  0  0  0  0  0  0  0  0
   -2.9289    2.2656    0.4287 O   0  0  0  0  0  0  0  0  0  0  0  0
   -2.0432    3.8247    1.7334 O   0  0  0  0  0  0  0  0  0  0  0  0
   -2.9866    3.9324    1.8663 H   0  0  0  0  0  0  0  0  0  0  0  0
    0.1871    0.1189    1.8122 C   0  0  0  0  0  0  0  0  0  0  0  0
    1.3541   -0.1171    2.1187 O   0  0  0  0  0  0  0  0  0  0  0  0
   -0.7126    0.5740    2.6926 N   0  0  0  0  0  0  0  0  0  0  0  0
   -1.6464    0.7663    2.3621 H   0  0  0  0  0  0  0  0  0  0  0  0
   -0.4191    0.8310    4.1010 C   0  0  0  0  0  0  0  0  0  0  0  0
    0.4022    1.5452    4.1828 H   0  0  0  0  0  0  0  0  0  0  0  0
   -1.2983    1.2366    4.6035 H   0  0  0  0  0  0  0  0  0  0  0  0
   -0.1204   -0.0980    4.5907 H   0  0  0  0  0  0  0  0  0  0  0  0
  5  6  2  0  0  0  0
  5  7  1  0  0  0  0
  2  3  1  0  0  0  0
  2  4  1  0  0  0  0
  2  5  1  0  0  0  0
  1  2  1  0  0  0  0
 21 22  2  0  0  0  0
 21 23  1  0  0  0  0
 19 20  1  0  0  0  0
 17 18  2  0  0  0  0
 17 19  1  0  0  0  0
 14 15  1  0  0  0  0
 14 16  1  0  0  0  0
 14 17  1  0  0  0  0
 11 12  1  0  0  0  0
 11 13  1  0  0  0  0
 11 14  1  0  0  0  0
  9 10  1  0  0  0  0
  9 11  1  0  0  0  0
  9 21  1  0  0  0  0
  7  8  1  0  0  0  0
  7  9  1  0  0  0  0
 25 26  1  0  0  0  0
 25 27  1  0  0  0  0
 25 28  1  0  0  0  0
 23 24  1  0  0  0  0
 23 25  1  0  0  0  0
M  END
$$$$
default_name
  -OEChem-02102213163D

 28 27  0     1  0  0  0  0  0999 V2000
   -3.2133   -3.5565    1.2809 H   0  0  0  0  0  0  0  0  0  0  0  0
   -3.1873   -2.5755    0.8089 C   0  0  0  0  0  0  0  0  0  0  0  0
   -3.8793   -1.9065    1.3169 H   0  0  0  0  0  0  0  0  0  0  0  0
   -3.4623   -2.6685   -0.2401 H   0  0  0  0  0  0  0  0  0  0  0  0
   -1.7863   -2.0195    0.9119 C   0  0  0  0  0  0  0  0  0  0  0  0
   -0.9073   -2.6615    1.4699 O   0  0  0  0  0  0  0  0  0  0  0  0
   -1.5803   -0.8195    0.3749 N   0  0  0  0  0  0  0  0  0  0  0  0
   -2.3603   -0.3345   -0.0451 H   0  0  0  0  0  0  0  0  0  0  0  0
   -0.2933   -0.1205    0.3719 C   0  0  1  0  0  0  0  0  0  0  0  0
    0.4439   -0.7485   -0.1303 H   0  0  0  0  0  0  0  0  0  0  0  0
   -0.4368    1.1924   -0.4246 C   0  0  0  0  0  0  0  0  0  0  0  0
    0.4174    1.2750   -1.0990 H   0  0  0  0  0  0  0  0  0  0  0  0
   -1.3437    1.1491   -1.0295 H   0  0  0  0  0  0  0  0  0  0  0  0
   -0.4964    2.4526    0.4560 C   0  0  0  0  0  0  0  0  0  0  0  0
    0.2779    2.4073    1.2219 H   0  0  0  0  0  0  0  0  0  0  0  0
   -0.3319    3.3318   -0.1658 H   0  0  0  0  0  0  0  0  0  0  0  0
   -1.8454    2.6094    1.1504 C   0  0  0  0  0  0  0  0  0  0  0  0
   -2.8240    1.9092    0.9457 O   0  0  0  0  0  0  0  0  0  0  0  0
   -1.9255    3.6150    2.0414 O   0  0  0  0  0  0  0  0  0  0  0  0
   -2.8248    3.5863    2.3725 H   0  0  0  0  0  0  0  0  0  0  0  0
    0.1871    0.1189    1.8122 C   0  0  0  0  0  0  0  0  0  0  0  0
    1.3541   -0.1171    2.1187 O   0  0  0  0  0  0  0  0  0  0  0  0
   -0.7126    0.5740    2.6926 N   0  0  0  0  0  0  0  0  0  0  0  0
   -1.6464    0.7663    2.3621 H   0  0  0  0  0  0  0  0  0  0  0  0
   -0.4191    0.8310    4.1010 C   0  0  0  0  0  0  0  0  0  0  0  0
    0.4022    1.5452    4.1828 H   0  0  0  0  0  0  0  0  0  0  0  0
   -1.2983    1.2366    4.6035 H   0  0  0  0  0  0  0  0  0  0  0  0
   -0.1204   -0.0980    4.5907 H   0  0  0  0  0  0  0  0  0  0  0  0
  5  6  2  0  0  0  0
  5  7  1  0  0  0  0
  2  3  1  0  0  0  0
  2  4  1  0  0  0  0
  2  5  1  0  0  0  0
  1  2  1  0  0  0  0
 21 22  2  0  0  0  0
 21 23  1  0  0  0  0
 19 20  1  0  0  0  0
 17 18  2  0  0  0  0
 17 19  1  0  0  0  0
 14 15  1  0  0  0  0
 14 16  1  0  0  0  0
 14 17  1  0  0  0  0
 11 12  1  0  0  0  0
 11 13  1  0  0  0  0
 11 14  1  0  0  0  0
  9 10  1  0  0  0  0
  9 11  1  0  0  0  0
  9 21  1  0  0  0  0
  7  8  1  0  0  0  0
  7  9  1  0  0  0  0
 25 26  1  0  0  0  0
 25 27  1  0  0  0  0
 25 28  1  0  0  0  0
 23 24  1  0  0  0  0
 23 25  1  0  0  0  0
M  END
$$$$
default_name
  -OEChem-02102213163D

 28 27  0     1  0  0  0  0  0999 V2000
   -3.2133   -3.5565    1.2809 H   0  0  0  0  0  0  0  0  0  0  0  0
   -3.1873   -2.5755    0.8089 C   0  0  0  0  0  0  0  0  0  0  0  0
   -3.8793   -1.9065    1.3169 H   0  0  0  0  0  0  0  0  0  0  0  0
   -3.4623   -2.6685   -0.2401 H   0  0  0  0  0  0  0  0  0  0  0  0
   -1.7863   -2.0195    0.9119 C   0  0  0  0  0  0  0  0  0  0  0  0
   -0.9073   -2.6615    1.4699 O   0  0  0  0  0  0  0  0  0  0  0  0
   -1.5803   -0.8195    0.3749 N   0  0  0  0  0  0  0  0  0  0  0  0
   -2.3603   -0.3345   -0.0451 H   0  0  0  0  0  0  0  0  0  0  0  0
   -0.2933   -0.1205    0.3719 C   0  0  1  0  0  0  0  0  0  0  0  0
    0.4439   -0.7485   -0.1303 H   0  0  0  0  0  0  0  0  0  0  0  0
   -0.4368    1.1924   -0.4246 C   0  0  0  0  0  0  0  0  0  0  0  0
    0.4174    1.2750   -1.0990 H   0  0  0  0  0  0  0  0  0  0  0  0
   -1.3437    1.1491   -1.0295 H   0  0  0  0  0  0  0  0  0  0  0  0
   -0.4964    2.4526    0.4560 C   0  0  0  0  0  0  0  0  0  0  0  0
    0.4201    2.5416    1.0394 H   0  0  0  0  0  0  0  0  0  0  0  0
   -0.6000    3.3300   -0.1813 H   0  0  0  0  0  0  0  0  0  0  0  0
   -1.6762    2.4273    1.4224 C   0  0  0  0  0  0  0  0  0  0  0  0
   -2.5603    1.5858    1.4264 O   0  0  0  0  0  0  0  0  0  0  0  0
   -1.7155    3.4331    2.3160 O   0  0  0  0  0  0  0  0  0  0  0  0
   -2.5099    3.2810    2.8307 H   0  0  0  0  0  0  0  0  0  0  0  0
    0.1871    0.1189    1.8122 C   0  0  0  0  0  0  0  0  0  0  0  0
    1.3541   -0.1171    2.1187 O   0  0  0  0  0  0  0  0  0  0  0  0
   -0.7126    0.5740    2.6926 N   0  0  0  0  0  0  0  0  0  0  0  0
   -1.6464    0.7663    2.3621 H   0  0  0  0  0  0  0  0  0  0  0  0
   -0.4191    0.8310    4.1010 C   0  0  0  0  0  0  0  0  0  0  0  0
    0.4022    1.5452    4.1828 H   0  0  0  0  0  0  0  0  0  0  0  0
   -1.2983    1.2366    4.6035 H   0  0  0  0  0  0  0  0  0  0  0  0
   -0.1204   -0.0980    4.5907 H   0  0  0  0  0  0  0  0  0  0  0  0
  5  6  2  0  0  0  0
  5  7  1  0  0  0  0
  2  3  1  0  0  0  0
  2  4  1  0  0  0  0
  2  5  1  0  0  0  0
  1  2  1  0  0  0  0
 21 22  2  0  0  0  0
 21 23  1  0  0  0  0
 19 20  1  0  0  0  0
 17 18  2  0  0  0  0
 17 19  1  0  0  0  0
 14 15  1  0  0  0  0
 14 16  1  0  0  0  0
 14 17  1  0  0  0  0
 11 12  1  0  0  0  0
 11 13  1  0  0  0  0
 11 14  1  0  0  0  0
  9 10  1  0  0  0  0
  9 11  1  0  0  0  0
  9 21  1  0  0  0  0
  7  8  1  0  0  0  0
  7  9  1  0  0  0  0
 25 26  1  0  0  0  0
 25 27  1  0  0  0  0
 25 28  1  0  0  0  0
 23 24  1  0  0  0  0
 23 25  1  0  0  0  0
M  END
$$$$
default_name
  -OEChem-02102213163D

 28 27  0     1  0  0  0  0  0999 V2000
   -3.2133   -3.5565    1.2809 H   0  0  0  0  0  0  0  0  0  0  0  0
   -3.1873   -2.5755    0.8089 C   0  0  0  0  0  0  0  0  0  0  0  0
   -3.8793   -1.9065    1.3169 H   0  0  0  0  0  0  0  0  0  0  0  0
   -3.4623   -2.6685   -0.2401 H   0  0  0  0  0  0  0  0  0  0  0  0
   -1.7863   -2.0195    0.9119 C   0  0  0  0  0  0  0  0  0  0  0  0
   -0.9073   -2.6615    1.4699 O   0  0  0  0  0  0  0  0  0  0  0  0
   -1.5803   -0.8195    0.3749 N   0  0  0  0  0  0  0  0  0  0  0  0
   -2.3603   -0.3345   -0.0451 H   0  0  0  0  0  0  0  0  0  0  0  0
   -0.2933   -0.1205    0.3719 C   0  0  1  0  0  0  0  0  0  0  0  0
    0.4439   -0.7485   -0.1303 H   0  0  0  0  0  0  0  0  0  0  0  0
   -0.4368    1.1924   -0.4246 C   0  0  0  0  0  0  0  0  0  0  0  0
    0.4174    1.2750   -1.0990 H   0  0  0  0  0  0  0  0  0  0  0  0
   -1.3437    1.1491   -1.0295 H   0  0  0  0  0  0  0  0  0  0  0  0
   -0.4964    2.4526    0.4560 C   0  0  0  0  0  0  0  0  0  0  0  0
    0.4988    2.6906    0.8315 H   0  0  0  0  0  0  0  0  0  0  0  0
   -0.8621    3.2883   -0.1395 H   0  0  0  0  0  0  0  0  0  0  0  0
   -1.4282    2.2792    1.6511 C   0  0  0  0  0  0  0  0  0  0  0  0
   -2.1558    1.3172    1.8381 O   0  0  0  0  0  0  0  0  0  0  0  0
   -1.4274    3.2912    2.5385 O   0  0  0  0  0  0  0  0  0  0  0  0
   -2.0634    3.0374    3.2096 H   0  0  0  0  0  0  0  0  0  0  0  0
    0.1871    0.1189    1.8122 C   0  0  0  0  0  0  0  0  0  0  0  0
    1.3541   -0.1171    2.1187 O   0  0  0  0  0  0  0  0  0  0  0  0
   -0.7126    0.5740    2.6926 N   0  0  0  0  0  0  0  0  0  0  0  0
   -1.6464    0.7663    2.3621 H   0  0  0  0  0  0  0  0  0  0  0  0
   -0.4191    0.8310    4.1010 C   0  0  0  0  0  0  0  0  0  0  0  0
    0.4022    1.5452    4.1828 H   0  0  0  0  0  0  0  0  0  0  0  0
   -1.2983    1.2366    4.6035 H   0  0  0  0  0  0  0  0  0  0  0  0
   -0.1204   -0.0980    4.5907 H   0  0  0  0  0  0  0  0  0  0  0  0
  5  6  2  0  0  0  0
  5  7  1  0  0  0  0
  2  3  1  0  0  0  0
  2  4  1  0  0  0  0
  2  5  1  0  0  0  0
  1  2  1  0  0  0  0
 21 22  2  0  0  0  0
 21 23  1  0  0  0  0
 19 20  1  0  0  0  0
 17 18  2  0  0  0  0
 17 19  1  0  0  0  0
 14 15  1  0  0  0  0
 14 16  1  0  0  0  0
 14 17  1  0  0  0  0
 11 12  1  0  0  0  0
 11 13  1  0  0  0  0
 11 14  1  0  0  0  0
  9 10  1  0  0  0  0
  9 11  1  0  0  0  0
  9 21  1  0  0  0  0
  7  8  1  0  0  0  0
  7  9  1  0  0  0  0
 25 26  1  0  0  0  0
 25 27  1  0  0  0  0
 25 28  1  0  0  0  0
 23 24  1  0  0  0  0
 23 25  1  0  0  0  0
M  END
$$$$
default_name
  -OEChem-02102213163D

 28 27  0     1  0  0  0  0  0999 V2000
   -3.2133   -3.5565    1.2809 H   0  0  0  0  0  0  0  0  0  0  0  0
   -3.1873   -2.5755    0.8089 C   0  0  0  0  0  0  0  0  0  0  0  0
   -3.8793   -1.9065    1.3169 H   0  0  0  0  0  0  0  0  0  0  0  0
   -3.4623   -2.6685   -0.2401 H   0  0  0  0  0  0  0  0  0  0  0  0
   -1.7863   -2.0195    0.9119 C   0  0  0  0  0  0  0  0  0  0  0  0
   -0.9073   -2.6615    1.4699 O   0  0  0  0  0  0  0  0  0  0  0  0
   -1.5803   -0.8195    0.3749 N   0  0  0  0  0  0  0  0  0  0  0  0
   -2.3603   -0.3345   -0.0451 H   0  0  0  0  0  0  0  0  0  0  0  0
   -0.2933   -0.1205    0.3719 C   0  0  1  0  0  0  0  0  0  0  0  0
    0.4439   -0.7485   -0.1303 H   0  0  0  0  0  0  0  0  0  0  0  0
   -0.4368    1.1924   -0.4246 C   0  0  0  0  0  0  0  0  0  0  0  0
    0.4174    1.2750   -1.0990 H   0  0  0  0  0  0  0  0  0  0  0  0
   -1.3437    1.1491   -1.0295 H   0  0  0  0  0  0  0  0  0  0  0  0
   -0.4964    2.4526    0.4560 C   0  0  0  0  0  0  0  0  0  0  0  0
    0.5088    2.8440    0.6126 H   0  0  0  0  0  0  0  0  0  0  0  0
   -1.1001    3.2097   -0.0431 H   0  0  0  0  0  0  0  0  0  0  0  0
   -1.1182    2.1752    1.8209 C   0  0  0  0  0  0  0  0  0  0  0  0
   -1.6379    1.1219    2.1527 O   0  0  0  0  0  0  0  0  0  0  0  0
   -1.0810    3.1991    2.6938 O   0  0  0  0  0  0  0  0  0  0  0  0
   -1.5157    2.8720    3.4833 H   0  0  0  0  0  0  0  0  0  0  0  0
    0.1871    0.1189    1.8122 C   0  0  0  0  0  0  0  0  0  0  0  0
    1.3541   -0.1171    2.1187 O   0  0  0  0  0  0  0  0  0  0  0  0
   -0.7126    0.5740    2.6926 N   0  0  0  0  0  0  0  0  0  0  0  0
   -1.6464    0.7663    2.3621 H   0  0  0  0  0  0  0  0  0  0  0  0
   -0.4191    0.8310    4.1010 C   0  0  0  0  0  0  0  0  0  0  0  0
    0.4022    1.5452    4.1828 H   0  0  0  0  0  0  0  0  0  0  0  0
   -1.2983    1.2366    4.6035 H   0  0  0  0  0  0  0  0  0  0  0  0
   -0.1204   -0.0980    4.5907 H   0  0  0  0  0  0  0  0  0  0  0  0
  5  6  2  0  0  0  0
  5  7  1  0  0  0  0
  2  3  1  0  0  0  0
  2  4  1  0  0  0  0
  2  5  1  0  0  0  0
  1  2  1  0  0  0  0
 21 22  2  0  0  0  0
 21 23  1  0  0  0  0
 19 20  1  0  0  0  0
 17 18  2  0  0  0  0
 17 19  1  0  0  0  0
 14 15  1  0  0  0  0
 14 16  1  0  0  0  0
 14 17  1  0  0  0  0
 11 12  1  0  0  0  0
 11 13  1  0  0  0  0
 11 14  1  0  0  0  0
  9 10  1  0  0  0  0
  9 11  1  0  0  0  0
  9 21  1  0  0  0  0
  7  8  1  0  0  0  0
  7  9  1  0  0  0  0
 25 26  1  0  0  0  0
 25 27  1  0  0  0  0
 25 28  1  0  0  0  0
 23 24  1  0  0  0  0
 23 25  1  0  0  0  0
M  END
$$$$
default_name
  -OEChem-02102213163D

 28 27  0     1  0  0  0  0  0999 V2000
   -3.2133   -3.5565    1.2809 H   0  0  0  0  0  0  0  0  0  0  0  0
   -3.1873   -2.5755    0.8089 C   0  0  0  0  0  0  0  0  0  0  0  0
   -3.8793   -1.9065    1.3169 H   0  0  0  0  0  0  0  0  0  0  0  0
   -3.4623   -2.6685   -0.2401 H   0  0  0  0  0  0  0  0  0  0  0  0
   -1.7863   -2.0195    0.9119 C   0  0  0  0  0  0  0  0  0  0  0  0
   -0.9073   -2.6615    1.4699 O   0  0  0  0  0  0  0  0  0  0  0  0
   -1.5803   -0.8195    0.3749 N   0  0  0  0  0  0  0  0  0  0  0  0
   -2.3603   -0.3345   -0.0451 H   0  0  0  0  0  0  0  0  0  0  0  0
   -0.2933   -0.1205    0.3719 C   0  0  1  0  0  0  0  0  0  0  0  0
    0.4439   -0.7485   -0.1303 H   0  0  0  0  0  0  0  0  0  0  0  0
   -0.4368    1.1924   -0.4246 C   0  0  0  0  0  0  0  0  0  0  0  0
    0.4174    1.2750   -1.0990 H   0  0  0  0  0  0  0  0  0  0  0  0
   -1.3437    1.1491   -1.0295 H   0  0  0  0  0  0  0  0  0  0  0  0
   -0.4964    2.4526    0.4560 C   0  0  0  0  0  0  0  0  0  0  0  0
    0.4493    2.9915    0.3975 H   0  0  0  0  0  0  0  0  0  0  0  0
   -1.2980    3.0994    0.1013 H   0  0  0  0  0  0  0  0  0  0  0  0
   -0.7673    2.1224    1.9203 C   0  0  0  0  0  0  0  0  0  0  0  0
   -1.0421    1.0130    2.3488 O   0  0  0  0  0  0  0  0  0  0  0  0
   -0.6998    3.1629    2.7714 O   0  0  0  0  0  0  0  0  0  0  0  0
   -0.9042    2.7961    3.6333 H   0  0  0  0  0  0  0  0  0  0  0  0
    0.1871    0.1189    1.8122 C   0  0  0  0  0  0  0  0  0  0  0  0
    1.3541   -0.1171    2.1187 O   0  0  0  0  0  0  0  0  0  0  0  0
   -0.7126    0.5740    2.6926 N   0  0  0  0  0  0  0  0  0  0  0  0
   -1.6464    0.7663    2.3621 H   0  0  0  0  0  0  0  0  0  0  0  0
   -0.4191    0.8310    4.1010 C   0  0  0  0  0  0  0  0  0  0  0  0
    0.4022    1.5452    4.1828 H   0  0  0  0  0  0  0  0  0  0  0  0
   -1.2983    1.2366    4.6035 H   0  0  0  0  0  0  0  0  0  0  0  0
   -0.1204   -0.0980    4.5907 H   0  0  0  0  0  0  0  0  0  0  0  0
  5  6  2  0  0  0  0
  5  7  1  0  0  0  0
  2  3  1  0  0  0  0
  2  4  1  0  0  0  0
  2  5  1  0  0  0  0
  1  2  1  0  0  0  0
 21 22  2  0  0  0  0
 21 23  1  0  0  0  0
 19 20  1  0  0  0  0
 17 18  2  0  0  0  0
 17 19  1  0  0  0  0
 14 15  1  0  0  0  0
 14 16  1  0  0  0  0
 14 17  1  0  0  0  0
 11 12  1  0  0  0  0
 11 13  1  0  0  0  0
 11 14  1  0  0  0  0
  9 10  1  0  0  0  0
  9 11  1  0  0  0  0
  9 21  1  0  0  0  0
  7  8  1  0  0  0  0
  7  9  1  0  0  0  0
 25 26  1  0  0  0  0
 25 27  1  0  0  0  0
 25 28  1  0  0  0  0
 23 24  1  0  0  0  0
 23 25  1  0  0  0  0
M  END
$$$$
default_name
  -OEChem-02102213163D

 28 27  0     1  0  0  0  0  0999 V2000
   -3.2133   -3.5565    1.2809 H   0  0  0  0  0  0  0  0  0  0  0  0
   -3.1873   -2.5755    0.8089 C   0  0  0  0  0  0  0  0  0  0  0  0
   -3.8793   -1.9065    1.3169 H   0  0  0  0  0  0  0  0  0  0  0  0
   -3.4623   -2.6685   -0.2401 H   0  0  0  0  0  0  0  0  0  0  0  0
   -1.7863   -2.0195    0.9119 C   0  0  0  0  0  0  0  0  0  0  0  0
   -0.9073   -2.6615    1.4699 O   0  0  0  0  0  0  0  0  0  0  0  0
   -1.5803   -0.8195    0.3749 N   0  0  0  0  0  0  0  0  0  0  0  0
   -2.3603   -0.3345   -0.0451 H   0  0  0  0  0  0  0  0  0  0  0  0
   -0.2933   -0.1205    0.3719 C   0  0  1  0  0  0  0  0  0  0  0  0
    0.4439   -0.7485   -0.1303 H   0  0  0  0  0  0  0  0  0  0  0  0
   -0.4368    1.1924   -0.4246 C   0  0  0  0  0  0  0  0  0  0  0  0
    0.4174    1.2750   -1.0990 H   0  0  0  0  0  0  0  0  0  0  0  0
   -1.3437    1.1491   -1.0295 H   0  0  0  0  0  0  0  0  0  0  0  0
   -0.4964    2.4526    0.4560 C   0  0  0  0  0  0  0  0  0  0  0  0
    0.3243    3.1231    0.2008 H   0  0  0  0  0  0  0  0  0  0  0  0
   -1.4422    2.9651    0.2838 H   0  0  0  0  0  0  0  0  0  0  0  0
   -0.3995    2.1244    1.9424 C   0  0  0  0  0  0  0  0  0  0  0  0
   -0.4089    0.9982    2.4130 O   0  0  0  0  0  0  0  0  0  0  0  0
   -0.3098    3.1853    2.7658 O   0  0  0  0  0  0  0  0  0  0  0  0
   -0.2704    2.8150    3.6493 H   0  0  0  0  0  0  0  0  0  0  0  0
    0.1871    0.1189    1.8122 C   0  0  0  0  0  0  0  0  0  0  0  0
    1.3541   -0.1171    2.1187 O   0  0  0  0  0  0  0  0  0  0  0  0
   -0.7126    0.5740    2.6926 N   0  0  0  0  0  0  0  0  0  0  0  0
   -1.6464    0.7663    2.3621 H   0  0  0  0  0  0  0  0  0  0  0  0
   -0.4191    0.8310    4.1010 C   0  0  0  0  0  0  0  0  0  0  0  0
    0.4022    1.5452    4.1828 H   0  0  0  0  0  0  0  0  0  0  0  0
   -1.2983    1.2366    4.6035 H   0  0  0  0  0  0  0  0  0  0  0  0
   -0.1204   -0.0980    4.5907 H   0  0  0  0  0  0  0  0  0  0  0  0
  5  6  2  0  0  0  0
  5  7  1  0  0  0  0
  2  3  1  0  0  0  0
  2  4  1  0  0  0  0
  2  5  1  0  0  0  0
  1  2  1  0  0  0  0
 21 22  2  0  0  0  0
 21 23  1  0  0  0  0
 19 20  1  0  0  0  0
 17 18  2  0  0  0  0
 17 19  1  0  0  0  0
 14 15  1  0  0  0  0
 14 16  1  0  0  0  0
 14 17  1  0  0  0  0
 11 12  1  0  0  0  0
 11 13  1  0  0  0  0
 11 14  1  0  0  0  0
  9 10  1  0  0  0  0
  9 11  1  0  0  0  0
  9 21  1  0  0  0  0
  7  8  1  0  0  0  0
  7  9  1  0  0  0  0
 25 26  1  0  0  0  0
 25 27  1  0  0  0  0
 25 28  1  0  0  0  0
 23 24  1  0  0  0  0
 23 25  1  0  0  0  0
M  END
$$$$
default_name
  -OEChem-02102213163D

 28 27  0     1  0  0  0  0  0999 V2000
   -3.2133   -3.5565    1.2809 H   0  0  0  0  0  0  0  0  0  0  0  0
   -3.1873   -2.5755    0.8089 C   0  0  0  0  0  0  0  0  0  0  0  0
   -3.8793   -1.9065    1.3169 H   0  0  0  0  0  0  0  0  0  0  0  0
   -3.4623   -2.6685   -0.2401 H   0  0  0  0  0  0  0  0  0  0  0  0
   -1.7863   -2.0195    0.9119 C   0  0  0  0  0  0  0  0  0  0  0  0
   -0.9073   -2.6615    1.4699 O   0  0  0  0  0  0  0  0  0  0  0  0
   -1.5803   -0.8195    0.3749 N   0  0  0  0  0  0  0  0  0  0  0  0
   -2.3603   -0.3345   -0.0451 H   0  0  0  0  0  0  0  0  0  0  0  0
   -0.2933   -0.1205    0.3719 C   0  0  1  0  0  0  0  0  0  0  0  0
    0.4439   -0.7485   -0.1303 H   0  0  0  0  0  0  0  0  0  0  0  0
   -0.4368    1.1924   -0.4246 C   0  0  0  0  0  0  0  0  0  0  0  0
    0.4174    1.2750   -1.0990 H   0  0  0  0  0  0  0  0  0  0  0  0
   -1.3437    1.1491   -1.0295 H   0  0  0  0  0  0  0  0  0  0  0  0
   -0.4964    2.4526    0.4560 C   0  0  0  0  0  0  0  0  0  0  0  0
    0.1424    3.2296    0.0360 H   0  0  0  0  0  0  0  0  0  0  0  0
   -1.5229    2.8157    0.4919 H   0  0  0  0  0  0  0  0  0  0  0  0
   -0.0399    2.1810    1.8858 C   0  0  0  0  0  0  0  0  0  0  0  0
    0.2186    1.0783    2.3409 O   0  0  0  0  0  0  0  0  0  0  0  0
    0.0624    3.2646    2.6775 O   0  0  0  0  0  0  0  0  0  0  0  0
    0.3424    2.9272    3.5302 H   0  0  0  0  0  0  0  0  0  0  0  0
    0.1871    0.1189    1.8122 C   0  0  0  0  0  0  0  0  0  0  0  0
    1.3541   -0.1171    2.1187 O   0  0  0  0  0  0  0  0  0  0  0  0
   -0.7126    0.5740    2.6926 N   0  0  0  0  0  0  0  0  0  0  0  0
   -1.6464    0.7663    2.3621 H   0  0  0  0  0  0  0  0  0  0  0  0
   -0.4191    0.8310    4.1010 C   0  0  0  0  0  0  0  0  0  0  0  0
    0.4022    1.5452    4.1828 H   0  0  0  0  0  0  0  0  0  0  0  0
   -1.2983    1.2366    4.6035 H   0  0  0  0  0  0  0  0  0  0  0  0
   -0.1204   -0.0980    4.5907 H   0  0  0  0  0  0  0  0  0  0  0  0
  5  6  2  0  0  0  0
  5  7  1  0  0  0  0
  2  3  1  0  0  0  0
  2  4  1  0  0  0  0
  2  5  1  0  0  0  0
  1  2  1  0  0  0  0
 21 22  2  0  0  0  0
 21 23  1  0  0  0  0
 19 20  1  0  0  0  0
 17 18  2  0  0  0  0
 17 19  1  0  0  0  0
 14 15  1  0  0  0  0
 14 16  1  0  0  0  0
 14 17  1  0  0  0  0
 11 12  1  0  0  0  0
 11 13  1  0  0  0  0
 11 14  1  0  0  0  0
  9 10  1  0  0  0  0
  9 11  1  0  0  0  0
  9 21  1  0  0  0  0
  7  8  1  0  0  0  0
  7  9  1  0  0  0  0
 25 26  1  0  0  0  0
 25 27  1  0  0  0  0
 25 28  1  0  0  0  0
 23 24  1  0  0  0  0
 23 25  1  0  0  0  0
M  END
$$$$
default_name
  -OEChem-02102213163D

 28 27  0     1  0  0  0  0  0999 V2000
   -3.2133   -3.5565    1.2809 H   0  0  0  0  0  0  0  0  0  0  0  0
   -3.1873   -2.5755    0.8089 C   0  0  0  0  0  0  0  0  0  0  0  0
   -3.8793   -1.9065    1.3169 H   0  0  0  0  0  0  0  0  0  0  0  0
   -3.4623   -2.6685   -0.2401 H   0  0  0  0  0  0  0  0  0  0  0  0
   -1.7863   -2.0195    0.9119 C   0  0  0  0  0  0  0  0  0  0  0  0
   -0.9073   -2.6615    1.4699 O   0  0  0  0  0  0  0  0  0  0  0  0
   -1.5803   -0.8195    0.3749 N   0  0  0  0  0  0  0  0  0  0  0  0
   -2.3603   -0.3345   -0.0451 H   0  0  0  0  0  0  0  0  0  0  0  0
   -0.2933   -0.1205    0.3719 C   0  0  1  0  0  0  0  0  0  0  0  0
    0.4439   -0.7485   -0.1303 H   0  0  0  0  0  0  0  0  0  0  0  0
   -0.4368    1.1924   -0.4246 C   0  0  0  0  0  0  0  0  0  0  0  0
    0.4174    1.2750   -1.0990 H   0  0  0  0  0  0  0  0  0  0  0  0
   -1.3437    1.1491   -1.0295 H   0  0  0  0  0  0  0  0  0  0  0  0
   -0.4964    2.4526    0.4560 C   0  0  0  0  0  0  0  0  0  0  0  0
   -0.0840    3.3039   -0.0856 H   0  0  0  0  0  0  0  0  0  0  0  0
   -1.5345    2.6617    0.7116 H   0  0  0  0  0  0  0  0  0  0  0  0
    0.2872    2.2883    1.7543 C   0  0  0  0  0  0  0  0  0  0  0  0
    0.7975    1.2479    2.1375 O   0  0  0  0  0  0  0  0  0  0  0  0
    0.3915    3.3955    2.5125 O   0  0  0  0  0  0  0  0  0  0  0  0
    0.8924    3.1252    3.2841 H   0  0  0  0  0  0  0  0  0  0  0  0
    0.1871    0.1189    1.8122 C   0  0  0  0  0  0  0  0  0  0  0  0
    1.3541   -0.1171    2.1187 O   0  0  0  0  0  0  0  0  0  0  0  0
   -0.7126    0.5740    2.6926 N   0  0  0  0  0  0  0  0  0  0  0  0
   -1.6464    0.7663    2.3621 H   0  0  0  0  0  0  0  0  0  0  0  0
   -0.4191    0.8310    4.1010 C   0  0  0  0  0  0  0  0  0  0  0  0
    0.4022    1.5452    4.1828 H   0  0  0  0  0  0  0  0  0  0  0  0
   -1.2983    1.2366    4.6035 H   0  0  0  0  0  0  0  0  0  0  0  0
   -0.1204   -0.0980    4.5907 H   0  0  0  0  0  0  0  0  0  0  0  0
  5  6  2  0  0  0  0
  5  7  1  0  0  0  0
  2  3  1  0  0  0  0
  2  4  1  0  0  0  0
  2  5  1  0  0  0  0
  1  2  1  0  0  0  0
 21 22  2  0  0  0  0
 21 23  1  0  0  0  0
 19 20  1  0  0  0  0
 17 18  2  0  0  0  0
 17 19  1  0  0  0  0
 14 15  1  0  0  0  0
 14 16  1  0  0  0  0
 14 17  1  0  0  0  0
 11 12  1  0  0  0  0
 11 13  1  0  0  0  0
 11 14  1  0  0  0  0
  9 10  1  0  0  0  0
  9 11  1  0  0  0  0
  9 21  1  0  0  0  0
  7  8  1  0  0  0  0
  7  9  1  0  0  0  0
 25 26  1  0  0  0  0
 25 27  1  0  0  0  0
 25 28  1  0  0  0  0
 23 24  1  0  0  0  0
 23 25  1  0  0  0  0
M  END
$$$$
default_name
  -OEChem-02102213163D

 28 27  0     1  0  0  0  0  0999 V2000
   -3.2133   -3.5565    1.2809 H   0  0  0  0  0  0  0  0  0  0  0  0
   -3.1873   -2.5755    0.8089 C   0  0  0  0  0  0  0  0  0  0  0  0
   -3.8793   -1.9065    1.3169 H   0  0  0  0  0  0  0  0  0  0  0  0
   -3.4623   -2.6685   -0.2401 H   0  0  0  0  0  0  0  0  0  0  0  0
   -1.7863   -2.0195    0.9119 C   0  0  0  0  0  0  0  0  0  0  0  0
   -0.9073   -2.6615    1.4699 O   0  0  0  0  0  0  0  0  0  0  0  0
   -1.5803   -0.8195    0.3749 N   0  0  0  0  0  0  0  0  0  0  0  0
   -2.3603   -0.3345   -0.0451 H   0  0  0  0  0  0  0  0  0  0  0  0
   -0.2933   -0.1205    0.3719 C   0  0  1  0  0  0  0  0  0  0  0  0
    0.4439   -0.7485   -0.1303 H   0  0  0  0  0  0  0  0  0  0  0  0
   -0.4368    1.1924   -0.4246 C   0  0  0  0  0  0  0  0  0  0  0  0
    0.4174    1.2750   -1.0990 H   0  0  0  0  0  0  0  0  0  0  0  0
   -1.3437    1.1491   -1.0295 H   0  0  0  0  0  0  0  0  0  0  0  0
   -0.4964    2.4526    0.4560 C   0  0  0  0  0  0  0  0  0  0  0  0
   -0.3395    3.3409   -0.1559 H   0  0  0  0  0  0  0  0  0  0  0  0
   -1.4764    2.5133    0.9279 H   0  0  0  0  0  0  0  0  0  0  0  0
    0.5592    2.4392    1.5568 C   0  0  0  0  0  0  0  0  0  0  0  0
    1.2884    1.4954    1.8165 O   0  0  0  0  0  0  0  0  0  0  0  0
    0.6550    3.5690    2.2821 O   0  0  0  0  0  0  0  0  0  0  0  0
    1.3421    3.3955    2.9279 H   0  0  0  0  0  0  0  0  0  0  0  0
    0.1871    0.1189    1.8122 C   0  0  0  0  0  0  0  0  0  0  0  0
    1.3541   -0.1171    2.1187 O   0  0  0  0  0  0  0  0  0  0  0  0
   -0.7126    0.5740    2.6926 N   0  0  0  0  0  0  0  0  0  0  0  0
   -1.6464    0.7663    2.3621 H   0  0  0  0  0  0  0  0  0  0  0  0
   -0.4191    0.8310    4.1010 C   0  0  0  0  0  0  0  0  0  0  0  0
    0.4022    1.5452    4.1828 H   0  0  0  0  0  0  0  0  0  0  0  0
   -1.2983    1.2366    4.6035 H   0  0  0  0  0  0  0  0  0  0  0  0
   -0.1204   -0.0980    4.5907 H   0  0  0  0  0  0  0  0  0  0  0  0
  5  6  2  0  0  0  0
  5  7  1  0  0  0  0
  2  3  1  0  0  0  0
  2  4  1  0  0  0  0
  2  5  1  0  0  0  0
  1  2  1  0  0  0  0
 21 22  2  0  0  0  0
 21 23  1  0  0  0  0
 19 20  1  0  0  0  0
 17 18  2  0  0  0  0
 17 19  1  0  0  0  0
 14 15  1  0  0  0  0
 14 16  1  0  0  0  0
 14 17  1  0  0  0  0
 11 12  1  0  0  0  0
 11 13  1  0  0  0  0
 11 14  1  0  0  0  0
  9 10  1  0  0  0  0
  9 11  1  0  0  0  0
  9 21  1  0  0  0  0
  7  8  1  0  0  0  0
  7  9  1  0  0  0  0
 25 26  1  0  0  0  0
 25 27  1  0  0  0  0
 25 28  1  0  0  0  0
 23 24  1  0  0  0  0
 23 25  1  0  0  0  0
M  END
$$$$
default_name
  -OEChem-02102213163D

 28 27  0     1  0  0  0  0  0999 V2000
   -3.2133   -3.5565    1.2809 H   0  0  0  0  0  0  0  0  0  0  0  0
   -3.1873   -2.5755    0.8089 C   0  0  0  0  0  0  0  0  0  0  0  0
   -3.8793   -1.9065    1.3169 H   0  0  0  0  0  0  0  0  0  0  0  0
   -3.4623   -2.6685   -0.2401 H   0  0  0  0  0  0  0  0  0  0  0  0
   -1.7863   -2.0195    0.9119 C   0  0  0  0  0  0  0  0  0  0  0  0
   -0.9073   -2.6615    1.4699 O   0  0  0  0  0  0  0  0  0  0  0  0
   -1.5803   -0.8195    0.3749 N   0  0  0  0  0  0  0  0  0  0  0  0
   -2.3603   -0.3345   -0.0451 H   0  0  0  0  0  0  0  0  0  0  0  0
   -0.2933   -0.1205    0.3719 C   0  0  1  0  0  0  0  0  0  0  0  0
    0.4439   -0.7485   -0.1303 H   0  0  0  0  0  0  0  0  0  0  0  0
   -0.4368    1.1924   -0.4246 C   0  0  0  0  0  0  0  0  0  0  0  0
    0.4174    1.2750   -1.0990 H   0  0  0  0  0  0  0  0  0  0  0  0
   -1.3437    1.1491   -1.0295 H   0  0  0  0  0  0  0  0  0  0  0  0
   -0.4964    2.4526    0.4560 C   0  0  0  0  0  0  0  0  0  0  0  0
   -0.6066    3.3381   -0.1700 H   0  0  0  0  0  0  0  0  0  0  0  0
   -1.3525    2.3808    1.1259 H   0  0  0  0  0  0  0  0  0  0  0  0
    0.7579    2.6232    1.3069 C   0  0  0  0  0  0  0  0  0  0  0  0
    1.6579    1.8040    1.3999 O   0  0  0  0  0  0  0  0  0  0  0  0
    0.8350    3.7733    2.0019 O   0  0  0  0  0  0  0  0  0  0  0  0
    1.6610    3.7196    2.4857 H   0  0  0  0  0  0  0  0  0  0  0  0
    0.1871    0.1189    1.8122 C   0  0  0  0  0  0  0  0  0  0  0  0
    1.3541   -0.1171    2.1187 O   0  0  0  0  0  0  0  0  0  0  0  0
   -0.7126    0.5740    2.6926 N   0  0  0  0  0  0  0  0  0  0  0  0
   -1.6464    0.7663    2.3621 H   0  0  0  0  0  0  0  0  0  0  0  0
   -0.4191    0.8310    4.1010 C   0  0  0  0  0  0  0  0  0  0  0  0
    0.4022    1.5452    4.1828 H   0  0  0  0  0  0  0  0  0  0  0  0
   -1.2983    1.2366    4.6035 H   0  0  0  0  0  0  0  0  0  0  0  0
   -0.1204   -0.0980    4.5907 H   0  0  0  0  0  0  0  0  0  0  0  0
  5  6  2  0  0  0  0
  5  7  1  0  0  0  0
  2  3  1  0  0  0  0
  2  4  1  0  0  0  0
  2  5  1  0  0  0  0
  1  2  1  0  0  0  0
 21 22  2  0  0  0  0
 21 23  1  0  0  0  0
 19 20  1  0  0  0  0
 17 18  2  0  0  0  0
 17 19  1  0  0  0  0
 14 15  1  0  0  0  0
 14 16  1  0  0  0  0
 14 17  1  0  0  0  0
 11 12  1  0  0  0  0
 11 13  1  0  0  0  0
 11 14  1  0  0  0  0
  9 10  1  0  0  0  0
  9 11  1  0  0  0  0
  9 21  1  0  0  0  0
  7  8  1  0  0  0  0
  7  9  1  0  0  0  0
 25 26  1  0  0  0  0
 25 27  1  0  0  0  0
 25 28  1  0  0  0  0
 23 24  1  0  0  0  0
 23 25  1  0  0  0  0
M  END
$$$$
default_name
  -OEChem-02102213163D

 28 27  0     1  0  0  0  0  0999 V2000
   -3.2133   -3.5565    1.2809 H   0  0  0  0  0  0  0  0  0  0  0  0
   -3.1873   -2.5755    0.8089 C   0  0  0  0  0  0  0  0  0  0  0  0
   -3.8793   -1.9065    1.3169 H   0  0  0  0  0  0  0  0  0  0  0  0
   -3.4623   -2.6685   -0.2401 H   0  0  0  0  0  0  0  0  0  0  0  0
   -1.7863   -2.0195    0.9119 C   0  0  0  0  0  0  0  0  0  0  0  0
   -0.9073   -2.6615    1.4699 O   0  0  0  0  0  0  0  0  0  0  0  0
   -1.5803   -0.8195    0.3749 N   0  0  0  0  0  0  0  0  0  0  0  0
   -2.3603   -0.3345   -0.0451 H   0  0  0  0  0  0  0  0  0  0  0  0
   -0.2933   -0.1205    0.3719 C   0  0  1  0  0  0  0  0  0  0  0  0
    0.4439   -0.7485   -0.1303 H   0  0  0  0  0  0  0  0  0  0  0  0
   -0.4368    1.1924   -0.4246 C   0  0  0  0  0  0  0  0  0  0  0  0
    0.4174    1.2750   -1.0990 H   0  0  0  0  0  0  0  0  0  0  0  0
   -1.3437    1.1491   -1.0295 H   0  0  0  0  0  0  0  0  0  0  0  0
   -0.4964    2.4526    0.4560 C   0  0  0  0  0  0  0  0  0  0  0  0
   -0.8673    3.2957   -0.1270 H   0  0  0  0  0  0  0  0  0  0  0  0
   -1.1711    2.2731    1.2923 H   0  0  0  0  0  0  0  0  0  0  0  0
    0.8695    2.8279    1.0216 C   0  0  0  0  0  0  0  0  0  0  0  0
    1.8808    2.1527    0.9161 O   0  0  0  0  0  0  0  0  0  0  0  0
    0.9191    3.9945    1.6911 O   0  0  0  0  0  0  0  0  0  0  0  0
    1.8273    4.0755    1.9877 H   0  0  0  0  0  0  0  0  0  0  0  0
    0.1871    0.1189    1.8122 C   0  0  0  0  0  0  0  0  0  0  0  0
    1.3541   -0.1171    2.1187 O   0  0  0  0  0  0  0  0  0  0  0  0
   -0.7126    0.5740    2.6926 N   0  0  0  0  0  0  0  0  0  0  0  0
   -1.6464    0.7663    2.3621 H   0  0  0  0  0  0  0  0  0  0  0  0
   -0.4191    0.8310    4.1010 C   0  0  0  0  0  0  0  0  0  0  0  0
    0.4022    1.5452    4.1828 H   0  0  0  0  0  0  0  0  0  0  0  0
   -1.2983    1.2366    4.6035 H   0  0  0  0  0  0  0  0  0  0  0  0
   -0.1204   -0.0980    4.5907 H   0  0  0  0  0  0  0  0  0  0  0  0
  5  6  2  0  0  0  0
  5  7  1  0  0  0  0
  2  3  1  0  0  0  0
  2  4  1  0  0  0  0
  2  5  1  0  0  0  0
  1  2  1  0  0  0  0
 21 22  2  0  0  0  0
 21 23  1  0  0  0  0
 19 20  1  0  0  0  0
 17 18  2  0  0  0  0
 17 19  1  0  0  0  0
 14 15  1  0  0  0  0
 14 16  1  0  0  0  0
 14 17  1  0  0  0  0
 11 12  1  0  0  0  0
 11 13  1  0  0  0  0
 11 14  1  0  0  0  0
  9 10  1  0  0  0  0
  9 11  1  0  0  0  0
  9 21  1  0  0  0  0
  7  8  1  0  0  0  0
  7  9  1  0  0  0  0
 25 26  1  0  0  0  0
 25 27  1  0  0  0  0
 25 28  1  0  0  0  0
 23 24  1  0  0  0  0
 23 25  1  0  0  0  0
M  END
$$$$
default_name
  -OEChem-02102213163D

 28 27  0     1  0  0  0  0  0999 V2000
   -3.2133   -3.5565    1.2809 H   0  0  0  0  0  0  0  0  0  0  0  0
   -3.1873   -2.5755    0.8089 C   0  0  0  0  0  0  0  0  0  0  0  0
   -3.8793   -1.9065    1.3169 H   0  0  0  0  0  0  0  0  0  0  0  0
   -3.4623   -2.6685   -0.2401 H   0  0  0  0  0  0  0  0  0  0  0  0
   -1.7863   -2.0195    0.9119 C   0  0  0  0  0  0  0  0  0  0  0  0
   -0.9073   -2.6615    1.4699 O   0  0  0  0  0  0  0  0  0  0  0  0
   -1.5803   -0.8195    0.3749 N   0  0  0  0  0  0  0  0  0  0  0  0
   -2.3603   -0.3345   -0.0451 H   0  0  0  0  0  0  0  0  0  0  0  0
   -0.2933   -0.1205    0.3719 C   0  0  1  0  0  0  0  0  0  0  0  0
    0.4439   -0.7485   -0.1303 H   0  0  0  0  0  0  0  0  0  0  0  0
   -0.4368    1.1924   -0.4246 C   0  0  0  0  0  0  0  0  0  0  0  0
    0.4174    1.2750   -1.0990 H   0  0  0  0  0  0  0  0  0  0  0  0
   -1.3437    1.1491   -1.0295 H   0  0  0  0  0  0  0  0  0  0  0  0
   -0.4964    2.4526    0.4560 C   0  0  0  0  0  0  0  0  0  0  0  0
   -1.1036    3.2166   -0.0297 H   0  0  0  0  0  0  0  0  0  0  0  0
   -0.9447    2.1977    1.4156 H   0  0  0  0  0  0  0  0  0  0  0  0
    0.8865    3.0393    0.7203 C   0  0  0  0  0  0  0  0  0  0  0  0
    1.9419    2.5176    0.3981 O   0  0  0  0  0  0  0  0  0  0  0  0
    0.9018    4.2175    1.3708 O   0  0  0  0  0  0  0  0  0  0  0  0
    1.8296    4.4389    1.4679 H   0  0  0  0  0  0  0  0  0  0  0  0
    0.1871    0.1189    1.8122 C   0  0  0  0  0  0  0  0  0  0  0  0
    1.3541   -0.1171    2.1187 O   0  0  0  0  0  0  0  0  0  0  0  0
   -0.7126    0.5740    2.6926 N   0  0  0  0  0  0  0  0  0  0  0  0
   -1.6464    0.7663    2.3621 H   0  0  0  0  0  0  0  0  0  0  0  0
   -0.4191    0.8310    4.1010 C   0  0  0  0  0  0  0  0  0  0  0  0
    0.4022    1.5452    4.1828 H   0  0  0  0  0  0  0  0  0  0  0  0
   -1.2983    1.2366    4.6035 H   0  0  0  0  0  0  0  0  0  0  0  0
   -0.1204   -0.0980    4.5907 H   0  0  0  0  0  0  0  0  0  0  0  0
  5  6  2  0  0  0  0
  5  7  1  0  0  0  0
  2  3  1  0  0  0  0
  2  4  1  0  0  0  0
  2  5  1  0  0  0  0
  1  2  1  0  0  0  0
 21 22  2  0  0  0  0
 21 23  1  0  0  0  0
 19 20  1  0  0  0  0
 17 18  2  0  0  0  0
 17 19  1  0  0  0  0
 14 15  1  0  0  0  0
 14 16  1  0  0  0  0
 14 17  1  0  0  0  0
 11 12  1  0  0  0  0
 11 13  1  0  0  0  0
 11 14  1  0  0  0  0
  9 10  1  0  0  0  0
  9 11  1  0  0  0  0
  9 21  1  0  0  0  0
  7  8  1  0  0  0  0
  7  9  1  0  0  0  0
 25 26  1  0  0  0  0
 25 27  1  0  0  0  0
 25 28  1  0  0  0  0
 23 24  1  0  0  0  0
 23 25  1  0  0  0  0
M  END
$$$$
default_name
  -OEChem-02102213163D

 28 27  0     1  0  0  0  0  0999 V2000
   -3.2133   -3.5565    1.2809 H   0  0  0  0  0  0  0  0  0  0  0  0
   -3.1873   -2.5755    0.8089 C   0  0  0  0  0  0  0  0  0  0  0  0
   -3.8793   -1.9065    1.3169 H   0  0  0  0  0  0  0  0  0  0  0  0
   -3.4623   -2.6685   -0.2401 H   0  0  0  0  0  0  0  0  0  0  0  0
   -1.7863   -2.0195    0.9119 C   0  0  0  0  0  0  0  0  0  0  0  0
   -0.9073   -2.6615    1.4699 O   0  0  0  0  0  0  0  0  0  0  0  0
   -1.5803   -0.8195    0.3749 N   0  0  0  0  0  0  0  0  0  0  0  0
   -2.3603   -0.3345   -0.0451 H   0  0  0  0  0  0  0  0  0  0  0  0
   -0.2933   -0.1205    0.3719 C   0  0  1  0  0  0  0  0  0  0  0  0
    0.4439   -0.7485   -0.1303 H   0  0  0  0  0  0  0  0  0  0  0  0
   -0.4368    1.1924   -0.4246 C   0  0  0  0  0  0  0  0  0  0  0  0
    0.4174    1.2750   -1.0990 H   0  0  0  0  0  0  0  0  0  0  0  0
   -1.3437    1.1491   -1.0295 H   0  0  0  0  0  0  0  0  0  0  0  0
   -0.4964    2.4526    0.4560 C   0  0  0  0  0  0  0  0  0  0  0  0
   -1.2995    3.1061    0.1151 H   0  0  0  0  0  0  0  0  0  0  0  0
   -0.6887    2.1596    1.4874 H   0  0  0  0  0  0  0  0  0  0  0  0
    0.8077    3.2430    0.4235 C   0  0  0  0  0  0  0  0  0  0  0  0
    1.8370    2.8739   -0.1189 O   0  0  0  0  0  0  0  0  0  0  0  0
    0.7841    4.4272    1.0629 O   0  0  0  0  0  0  0  0  0  0  0  0
    1.6678    4.7850    0.9617 H   0  0  0  0  0  0  0  0  0  0  0  0
    0.1871    0.1189    1.8122 C   0  0  0  0  0  0  0  0  0  0  0  0
    1.3541   -0.1171    2.1187 O   0  0  0  0  0  0  0  0  0  0  0  0
   -0.7126    0.5740    2.6926 N   0  0  0  0  0  0  0  0  0  0  0  0
   -1.6464    0.7663    2.3621 H   0  0  0  0  0  0  0  0  0  0  0  0
   -0.4191    0.8310    4.1010 C   0  0  0  0  0  0  0  0  0  0  0  0
    0.4022    1.5452    4.1828 H   0  0  0  0  0  0  0  0  0  0  0  0
   -1.2983    1.2366    4.6035 H   0  0  0  0  0  0  0  0  0  0  0  0
   -0.1204   -0.0980    4.5907 H   0  0  0  0  0  0  0  0  0  0  0  0
  5  6  2  0  0  0  0
  5  7  1  0  0  0  0
  2  3  1  0  0  0  0
  2  4  1  0  0  0  0
  2  5  1  0  0  0  0
  1  2  1  0  0  0  0
 21 22  2  0  0  0  0
 21 23  1  0  0  0  0
 19 20  1  0  0  0  0
 17 18  2  0  0  0  0
 17 19  1  0  0  0  0
 14 15  1  0  0  0  0
 14 16  1  0  0  0  0
 14 17  1  0  0  0  0
 11 12  1  0  0  0  0
 11 13  1  0  0  0  0
 11 14  1  0  0  0  0
  9 10  1  0  0  0  0
  9 11  1  0  0  0  0
  9 21  1  0  0  0  0
  7  8  1  0  0  0  0
  7  9  1  0  0  0  0
 25 26  1  0  0  0  0
 25 27  1  0  0  0  0
 25 28  1  0  0  0  0
 23 24  1  0  0  0  0
 23 25  1  0  0  0  0
M  END
$$$$
default_name
  -OEChem-02102213163D

 28 27  0     1  0  0  0  0  0999 V2000
   -3.2133   -3.5565    1.2809 H   0  0  0  0  0  0  0  0  0  0  0  0
   -3.1873   -2.5755    0.8089 C   0  0  0  0  0  0  0  0  0  0  0  0
   -3.8793   -1.9065    1.3169 H   0  0  0  0  0  0  0  0  0  0  0  0
   -3.4623   -2.6685   -0.2401 H   0  0  0  0  0  0  0  0  0  0  0  0
   -1.7863   -2.0195    0.9119 C   0  0  0  0  0  0  0  0  0  0  0  0
   -0.9073   -2.6615    1.4699 O   0  0  0  0  0  0  0  0  0  0  0  0
   -1.5803   -0.8195    0.3749 N   0  0  0  0  0  0  0  0  0  0  0  0
   -2.3603   -0.3345   -0.0451 H   0  0  0  0  0  0  0  0  0  0  0  0
   -0.2933   -0.1205    0.3719 C   0  0  1  0  0  0  0  0  0  0  0  0
    0.4439   -0.7485   -0.1303 H   0  0  0  0  0  0  0  0  0  0  0  0
   -0.4368    1.1924   -0.4246 C   0  0  0  0  0  0  0  0  0  0  0  0
    0.4174    1.2750   -1.0990 H   0  0  0  0  0  0  0  0  0  0  0  0
   -1.3437    1.1491   -1.0295 H   0  0  0  0  0  0  0  0  0  0  0  0
   -0.4964    2.4526    0.4560 C   0  0  0  0  0  0  0  0  0  0  0  0
   -1.4418    2.9718    0.2976 H   0  0  0  0  0  0  0  0  0  0  0  0
   -0.4206    2.1614    1.5030 H   0  0  0  0  0  0  0  0  0  0  0  0
    0.6385    3.4250    0.1515 C   0  0  0  0  0  0  0  0  0  0  0  0
    1.5732    3.1974   -0.5997 O   0  0  0  0  0  0  0  0  0  0  0  0
    0.5740    4.6091    0.7883 O   0  0  0  0  0  0  0  0  0  0  0  0
    1.3529    5.0902    0.5035 H   0  0  0  0  0  0  0  0  0  0  0  0
    0.1871    0.1189    1.8122 C   0  0  0  0  0  0  0  0  0  0  0  0
    1.3541   -0.1171    2.1187 O   0  0  0  0  0  0  0  0  0  0  0  0
   -0.7126    0.5740    2.6926 N   0  0  0  0  0  0  0  0  0  0  0  0
   -1.6464    0.7663    2.3621 H   0  0  0  0  0  0  0  0  0  0  0  0
   -0.4191    0.8310    4.1010 C   0  0  0  0  0  0  0  0  0  0  0  0
    0.4022    1.5452    4.1828 H   0  0  0  0  0  0  0  0  0  0  0  0
   -1.2983    1.2366    4.6035 H   0  0  0  0  0  0  0  0  0  0  0  0
   -0.1204   -0.0980    4.5907 H   0  0  0  0  0  0  0  0  0  0  0  0
  5  6  2  0  0  0  0
  5  7  1  0  0  0  0
  2  3  1  0  0  0  0
  2  4  1  0  0  0  0
  2  5  1  0  0  0  0
  1  2  1  0  0  0  0
 21 22  2  0  0  0  0
 21 23  1  0  0  0  0
 19 20  1  0  0  0  0
 17 18  2  0  0  0  0
 17 19  1  0  0  0  0
 14 15  1  0  0  0  0
 14 16  1  0  0  0  0
 14 17  1  0  0  0  0
 11 12  1  0  0  0  0
 11 13  1  0  0  0  0
 11 14  1  0  0  0  0
  9 10  1  0  0  0  0
  9 11  1  0  0  0  0
  9 21  1  0  0  0  0
  7  8  1  0  0  0  0
  7  9  1  0  0  0  0
 25 26  1  0  0  0  0
 25 27  1  0  0  0  0
 25 28  1  0  0  0  0
 23 24  1  0  0  0  0
 23 25  1  0  0  0  0
M  END
$$$$
default_name
  -OEChem-02102213163D

 28 27  0     1  0  0  0  0  0999 V2000
   -3.2133   -3.5565    1.2809 H   0  0  0  0  0  0  0  0  0  0  0  0
   -3.1873   -2.5755    0.8089 C   0  0  0  0  0  0  0  0  0  0  0  0
   -3.8793   -1.9065    1.3169 H   0  0  0  0  0  0  0  0  0  0  0  0
   -3.4623   -2.6685   -0.2401 H   0  0  0  0  0  0  0  0  0  0  0  0
   -1.7863   -2.0195    0.9119 C   0  0  0  0  0  0  0  0  0  0  0  0
   -0.9073   -2.6615    1.4699 O   0  0  0  0  0  0  0  0  0  0  0  0
   -1.5803   -0.8195    0.3749 N   0  0  0  0  0  0  0  0  0  0  0  0
   -2.3603   -0.3345   -0.0451 H   0  0  0  0  0  0  0  0  0  0  0  0
   -0.2933   -0.1205    0.3719 C   0  0  1  0  0  0  0  0  0  0  0  0
    0.4439   -0.7485   -0.1303 H   0  0  0  0  0  0  0  0  0  0  0  0
   -0.4368    1.1924   -0.4246 C   0  0  0  0  0  0  0  0  0  0  0  0
    0.4174    1.2750   -1.0990 H   0  0  0  0  0  0  0  0  0  0  0  0
   -1.3437    1.1491   -1.0295 H   0  0  0  0  0  0  0  0  0  0  0  0
   -0.4964    2.4526    0.4560 C   0  0  0  0  0  0  0  0  0  0  0  0
   -1.5205    2.8228    0.5055 H   0  0  0  0  0  0  0  0  0  0  0  0
   -0.1586    2.2031    1.4611 H   0  0  0  0  0  0  0  0  0  0  0  0
    0.3905    3.5731   -0.0772 C   0  0  0  0  0  0  0  0  0  0  0  0
    1.1687    3.4660   -1.0114 O   0  0  0  0  0  0  0  0  0  0  0  0
    0.2860    4.7510    0.5657 O   0  0  0  0  0  0  0  0  0  0  0  0
    0.9064    5.3339    0.1246 H   0  0  0  0  0  0  0  0  0  0  0  0
    0.1871    0.1189    1.8122 C   0  0  0  0  0  0  0  0  0  0  0  0
    1.3541   -0.1171    2.1187 O   0  0  0  0  0  0  0  0  0  0  0  0
   -0.7126    0.5740    2.6926 N   0  0  0  0  0  0  0  0  0  0  0  0
   -1.6464    0.7663    2.3621 H   0  0  0  0  0  0  0  0  0  0  0  0
   -0.4191    0.8310    4.1010 C   0  0  0  0  0  0  0  0  0  0  0  0
    0.4022    1.5452    4.1828 H   0  0  0  0  0  0  0  0  0  0  0  0
   -1.2983    1.2366    4.6035 H   0  0  0  0  0  0  0  0  0  0  0  0
   -0.1204   -0.0980    4.5907 H   0  0  0  0  0  0  0  0  0  0  0  0
  5  6  2  0  0  0  0
  5  7  1  0  0  0  0
  2  3  1  0  0  0  0
  2  4  1  0  0  0  0
  2  5  1  0  0  0  0
  1  2  1  0  0  0  0
 21 22  2  0  0  0  0
 21 23  1  0  0  0  0
 19 20  1  0  0  0  0
 17 18  2  0  0  0  0
 17 19  1  0  0  0  0
 14 15  1  0  0  0  0
 14 16  1  0  0  0  0
 14 17  1  0  0  0  0
 11 12  1  0  0  0  0
 11 13  1  0  0  0  0
 11 14  1  0  0  0  0
  9 10  1  0  0  0  0
  9 11  1  0  0  0  0
  9 21  1  0  0  0  0
  7  8  1  0  0  0  0
  7  9  1  0  0  0  0
 25 26  1  0  0  0  0
 25 27  1  0  0  0  0
 25 28  1  0  0  0  0
 23 24  1  0  0  0  0
 23 25  1  0  0  0  0
M  END
$$$$
default_name
  -OEChem-02102213163D

 28 27  0     1  0  0  0  0  0999 V2000
   -3.2133   -3.5565    1.2809 H   0  0  0  0  0  0  0  0  0  0  0  0
   -3.1873   -2.5755    0.8089 C   0  0  0  0  0  0  0  0  0  0  0  0
   -3.8793   -1.9065    1.3169 H   0  0  0  0  0  0  0  0  0  0  0  0
   -3.4623   -2.6685   -0.2401 H   0  0  0  0  0  0  0  0  0  0  0  0
   -1.7863   -2.0195    0.9119 C   0  0  0  0  0  0  0  0  0  0  0  0
   -0.9073   -2.6615    1.4699 O   0  0  0  0  0  0  0  0  0  0  0  0
   -1.5803   -0.8195    0.3749 N   0  0  0  0  0  0  0  0  0  0  0  0
   -2.3603   -0.3345   -0.0451 H   0  0  0  0  0  0  0  0  0  0  0  0
   -0.2933   -0.1205    0.3719 C   0  0  1  0  0  0  0  0  0  0  0  0
    0.4439   -0.7485   -0.1303 H   0  0  0  0  0  0  0  0  0  0  0  0
   -0.4368    1.1924   -0.4246 C   0  0  0  0  0  0  0  0  0  0  0  0
    0.4174    1.2750   -1.0990 H   0  0  0  0  0  0  0  0  0  0  0  0
   -1.3437    1.1491   -1.0295 H   0  0  0  0  0  0  0  0  0  0  0  0
   -0.4964    2.4526    0.4560 C   0  0  0  0  0  0  0  0  0  0  0  0
   -1.5305    2.6693    0.7244 H   0  0  0  0  0  0  0  0  0  0  0  0
    0.0795    2.2817    1.3647 H   0  0  0  0  0  0  0  0  0  0  0  0
    0.0804    3.6771   -0.2470 C   0  0  0  0  0  0  0  0  0  0  0  0
    0.6508    3.6613   -1.3260 O   0  0  0  0  0  0  0  0  0  0  0  0
   -0.0604    4.8431    0.4104 O   0  0  0  0  0  0  0  0  0  0  0  0
    0.3587    5.4992   -0.1492 H   0  0  0  0  0  0  0  0  0  0  0  0
    0.1871    0.1189    1.8122 C   0  0  0  0  0  0  0  0  0  0  0  0
    1.3541   -0.1171    2.1187 O   0  0  0  0  0  0  0  0  0  0  0  0
   -0.7126    0.5740    2.6926 N   0  0  0  0  0  0  0  0  0  0  0  0
   -1.6464    0.7663    2.3621 H   0  0  0  0  0  0  0  0  0  0  0  0
   -0.4191    0.8310    4.1010 C   0  0  0  0  0  0  0  0  0  0  0  0
    0.4022    1.5452    4.1828 H   0  0  0  0  0  0  0  0  0  0  0  0
   -1.2983    1.2366    4.6035 H   0  0  0  0  0  0  0  0  0  0  0  0
   -0.1204   -0.0980    4.5907 H   0  0  0  0  0  0  0  0  0  0  0  0
  5  6  2  0  0  0  0
  5  7  1  0  0  0  0
  2  3  1  0  0  0  0
  2  4  1  0  0  0  0
  2  5  1  0  0  0  0
  1  2  1  0  0  0  0
 21 22  2  0  0  0  0
 21 23  1  0  0  0  0
 19 20  1  0  0  0  0
 17 18  2  0  0  0  0
 17 19  1  0  0  0  0
 14 15  1  0  0  0  0
 14 16  1  0  0  0  0
 14 17  1  0  0  0  0
 11 12  1  0  0  0  0
 11 13  1  0  0  0  0
 11 14  1  0  0  0  0
  9 10  1  0  0  0  0
  9 11  1  0  0  0  0
  9 21  1  0  0  0  0
  7  8  1  0  0  0  0
  7  9  1  0  0  0  0
 25 26  1  0  0  0  0
 25 27  1  0  0  0  0
 25 28  1  0  0  0  0
 23 24  1  0  0  0  0
 23 25  1  0  0  0  0
M  END
$$$$
default_name
  -OEChem-02102213163D

 28 27  0     1  0  0  0  0  0999 V2000
   -3.2133   -3.5565    1.2809 H   0  0  0  0  0  0  0  0  0  0  0  0
   -3.1873   -2.5755    0.8089 C   0  0  0  0  0  0  0  0  0  0  0  0
   -3.8793   -1.9065    1.3169 H   0  0  0  0  0  0  0  0  0  0  0  0
   -3.4623   -2.6685   -0.2401 H   0  0  0  0  0  0  0  0  0  0  0  0
   -1.7863   -2.0195    0.9119 C   0  0  0  0  0  0  0  0  0  0  0  0
   -0.9073   -2.6615    1.4699 O   0  0  0  0  0  0  0  0  0  0  0  0
   -1.5803   -0.8195    0.3749 N   0  0  0  0  0  0  0  0  0  0  0  0
   -2.3603   -0.3345   -0.0451 H   0  0  0  0  0  0  0  0  0  0  0  0
   -0.2933   -0.1205    0.3719 C   0  0  1  0  0  0  0  0  0  0  0  0
    0.4439   -0.7485   -0.1303 H   0  0  0  0  0  0  0  0  0  0  0  0
   -0.4368    1.1924   -0.4246 C   0  0  0  0  0  0  0  0  0  0  0  0
    0.4174    1.2750   -1.0990 H   0  0  0  0  0  0  0  0  0  0  0  0
   -1.3437    1.1491   -1.0295 H   0  0  0  0  0  0  0  0  0  0  0  0
   -0.4964    2.4526    0.4560 C   0  0  0  0  0  0  0  0  0  0  0  0
   -1.4709    2.5218    0.9395 H   0  0  0  0  0  0  0  0  0  0  0  0
    0.2774    2.3919    1.2204 H   0  0  0  0  0  0  0  0  0  0  0  0
   -0.2704    3.7299   -0.3464 C   0  0  0  0  0  0  0  0  0  0  0  0
    0.0550    3.7701   -1.5221 O   0  0  0  0  0  0  0  0  0  0  0  0
   -0.4416    4.8793    0.3329 O   0  0  0  0  0  0  0  0  0  0  0  0
   -0.2528    5.5751   -0.2991 H   0  0  0  0  0  0  0  0  0  0  0  0
    0.1871    0.1189    1.8122 C   0  0  0  0  0  0  0  0  0  0  0  0
    1.3541   -0.1171    2.1187 O   0  0  0  0  0  0  0  0  0  0  0  0
   -0.7126    0.5740    2.6926 N   0  0  0  0  0  0  0  0  0  0  0  0
   -1.6464    0.7663    2.3621 H   0  0  0  0  0  0  0  0  0  0  0  0
   -0.4191    0.8310    4.1010 C   0  0  0  0  0  0  0  0  0  0  0  0
    0.4022    1.5452    4.1828 H   0  0  0  0  0  0  0  0  0  0  0  0
   -1.2983    1.2366    4.6035 H   0  0  0  0  0  0  0  0  0  0  0  0
   -0.1204   -0.0980    4.5907 H   0  0  0  0  0  0  0  0  0  0  0  0
  5  6  2  0  0  0  0
  5  7  1  0  0  0  0
  2  3  1  0  0  0  0
  2  4  1  0  0  0  0
  2  5  1  0  0  0  0
  1  2  1  0  0  0  0
 21 22  2  0  0  0  0
 21 23  1  0  0  0  0
 19 20  1  0  0  0  0
 17 18  2  0  0  0  0
 17 19  1  0  0  0  0
 14 15  1  0  0  0  0
 14 16  1  0  0  0  0
 14 17  1  0  0  0  0
 11 12  1  0  0  0  0
 11 13  1  0  0  0  0
 11 14  1  0  0  0  0
  9 10  1  0  0  0  0
  9 11  1  0  0  0  0
  9 21  1  0  0  0  0
  7  8  1  0  0  0  0
  7  9  1  0  0  0  0
 25 26  1  0  0  0  0
 25 27  1  0  0  0  0
 25 28  1  0  0  0  0
 23 24  1  0  0  0  0
 23 25  1  0  0  0  0
M  END
$$$$
default_name
  -OEChem-02102213163D

 28 27  0     1  0  0  0  0  0999 V2000
   -3.2133   -3.5565    1.2809 H   0  0  0  0  0  0  0  0  0  0  0  0
   -3.1873   -2.5755    0.8089 C   0  0  0  0  0  0  0  0  0  0  0  0
   -3.8793   -1.9065    1.3169 H   0  0  0  0  0  0  0  0  0  0  0  0
   -3.4623   -2.6685   -0.2401 H   0  0  0  0  0  0  0  0  0  0  0  0
   -1.7863   -2.0195    0.9119 C   0  0  0  0  0  0  0  0  0  0  0  0
   -0.9073   -2.6615    1.4699 O   0  0  0  0  0  0  0  0  0  0  0  0
   -1.5803   -0.8195    0.3749 N   0  0  0  0  0  0  0  0  0  0  0  0
   -2.3603   -0.3345   -0.0451 H   0  0  0  0  0  0  0  0  0  0  0  0
   -0.2933   -0.1205    0.3719 C   0  0  1  0  0  0  0  0  0  0  0  0
    0.4439   -0.7485   -0.1303 H   0  0  0  0  0  0  0  0  0  0  0  0
   -0.4368    1.1924   -0.4246 C   0  0  0  0  0  0  0  0  0  0  0  0
    0.2496    1.1516   -1.2721 H   0  0  0  0  0  0  0  0  0  0  0  0
   -1.4529    1.2677   -0.8144 H   0  0  0  0  0  0  0  0  0  0  0  0
   -0.1339    2.4569    0.3978 C   0  0  0  0  0  0  0  0  0  0  0  0
   -0.8119    2.5173    1.2492 H   0  0  0  0  0  0  0  0  0  0  0  0
    0.8919    2.4100    0.7616 H   0  0  0  0  0  0  0  0  0  0  0  0
   -0.2869    3.7322   -0.4249 C   0  0  0  0  0  0  0  0  0  0  0  0
   -0.4917    3.7694   -1.6276 O   0  0  0  0  0  0  0  0  0  0  0  0
   -0.1690    4.8833    0.2626 O   0  0  0  0  0  0  0  0  0  0  0  0
   -0.2756    5.5777   -0.3899 H   0  0  0  0  0  0  0  0  0  0  0  0
    0.1871    0.1189    1.8122 C   0  0  0  0  0  0  0  0  0  0  0  0
    1.3541   -0.1171    2.1187 O   0  0  0  0  0  0  0  0  0  0  0  0
   -0.7126    0.5740    2.6926 N   0  0  0  0  0  0  0  0  0  0  0  0
   -1.6464    0.7663    2.3621 H   0  0  0  0  0  0  0  0  0  0  0  0
   -0.4191    0.8310    4.1010 C   0  0  0  0  0  0  0  0  0  0  0  0
    0.4022    1.5452    4.1828 H   0  0  0  0  0  0  0  0  0  0  0  0
   -1.2983    1.2366    4.6035 H   0  0  0  0  0  0  0  0  0  0  0  0
   -0.1204   -0.0980    4.5907 H   0  0  0  0  0  0  0  0  0  0  0  0
  5  6  2  0  0  0  0
  5  7  1  0  0  0  0
  2  3  1  0  0  0  0
  2  4  1  0  0  0  0
  2  5  1  0  0  0  0
  1  2  1  0  0  0  0
 21 22  2  0  0  0  0
 21 23  1  0  0  0  0
 19 20  1  0  0  0  0
 17 18  2  0  0  0  0
 17 19  1  0  0  0  0
 14 15  1  0  0  0  0
 14 16  1  0  0  0  0
 14 17  1  0  0  0  0
 11 12  1  0  0  0  0
 11 13  1  0  0  0  0
 11 14  1  0  0  0  0
  9 10  1  0  0  0  0
  9 11  1  0  0  0  0
  9 21  1  0  0  0  0
  7  8  1  0  0  0  0
  7  9  1  0  0  0  0
 25 26  1  0  0  0  0
 25 27  1  0  0  0  0
 25 28  1  0  0  0  0
 23 24  1  0  0  0  0
 23 25  1  0  0  0  0
M  END
$$$$
default_name
  -OEChem-02102213163D

 28 27  0     1  0  0  0  0  0999 V2000
   -3.2133   -3.5565    1.2809 H   0  0  0  0  0  0  0  0  0  0  0  0
   -3.1873   -2.5755    0.8089 C   0  0  0  0  0  0  0  0  0  0  0  0
   -3.8793   -1.9065    1.3169 H   0  0  0  0  0  0  0  0  0  0  0  0
   -3.4623   -2.6685   -0.2401 H   0  0  0  0  0  0  0  0  0  0  0  0
   -1.7863   -2.0195    0.9119 C   0  0  0  0  0  0  0  0  0  0  0  0
   -0.9073   -2.6615    1.4699 O   0  0  0  0  0  0  0  0  0  0  0  0
   -1.5803   -0.8195    0.3749 N   0  0  0  0  0  0  0  0  0  0  0  0
   -2.3603   -0.3345   -0.0451 H   0  0  0  0  0  0  0  0  0  0  0  0
   -0.2933   -0.1205    0.3719 C   0  0  1  0  0  0  0  0  0  0  0  0
    0.4439   -0.7485   -0.1303 H   0  0  0  0  0  0  0  0  0  0  0  0
   -0.4368    1.1924   -0.4246 C   0  0  0  0  0  0  0  0  0  0  0  0
    0.2496    1.1516   -1.2721 H   0  0  0  0  0  0  0  0  0  0  0  0
   -1.4529    1.2677   -0.8144 H   0  0  0  0  0  0  0  0  0  0  0  0
   -0.1339    2.4569    0.3978 C   0  0  0  0  0  0  0  0  0  0  0  0
   -0.6136    2.3884    1.3743 H   0  0  0  0  0  0  0  0  0  0  0  0
    0.9432    2.5451    0.5351 H   0  0  0  0  0  0  0  0  0  0  0  0
   -0.6292    3.7256   -0.2888 C   0  0  0  0  0  0  0  0  0  0  0  0
   -1.0924    3.7763   -1.4169 O   0  0  0  0  0  0  0  0  0  0  0  0
   -0.5194    4.8563    0.4332 O   0  0  0  0  0  0  0  0  0  0  0  0
   -0.8559    5.5511   -0.1354 H   0  0  0  0  0  0  0  0  0  0  0  0
    0.1871    0.1189    1.8122 C   0  0  0  0  0  0  0  0  0  0  0  0
    1.3541   -0.1171    2.1187 O   0  0  0  0  0  0  0  0  0  0  0  0
   -0.7126    0.5740    2.6926 N   0  0  0  0  0  0  0  0  0  0  0  0
   -1.6464    0.7663    2.3621 H   0  0  0  0  0  0  0  0  0  0  0  0
   -0.4191    0.8310    4.1010 C   0  0  0  0  0  0  0  0  0  0  0  0
    0.4022    1.5452    4.1828 H   0  0  0  0  0  0  0  0  0  0  0  0
   -1.2983    1.2366    4.6035 H   0  0  0  0  0  0  0  0  0  0  0  0
   -0.1204   -0.0980    4.5907 H   0  0  0  0  0  0  0  0  0  0  0  0
  5  6  2  0  0  0  0
  5  7  1  0  0  0  0
  2  3  1  0  0  0  0
  2  4  1  0  0  0  0
  2  5  1  0  0  0  0
  1  2  1  0  0  0  0
 21 22  2  0  0  0  0
 21 23  1  0  0  0  0
 19 20  1  0  0  0  0
 17 18  2  0  0  0  0
 17 19  1  0  0  0  0
 14 15  1  0  0  0  0
 14 16  1  0  0  0  0
 14 17  1  0  0  0  0
 11 12  1  0  0  0  0
 11 13  1  0  0  0  0
 11 14  1  0  0  0  0
  9 10  1  0  0  0  0
  9 11  1  0  0  0  0
  9 21  1  0  0  0  0
  7  8  1  0  0  0  0
  7  9  1  0  0  0  0
 25 26  1  0  0  0  0
 25 27  1  0  0  0  0
 25 28  1  0  0  0  0
 23 24  1  0  0  0  0
 23 25  1  0  0  0  0
M  END
$$$$
default_name
  -OEChem-02102213163D

 28 27  0     1  0  0  0  0  0999 V2000
   -3.2133   -3.5565    1.2809 H   0  0  0  0  0  0  0  0  0  0  0  0
   -3.1873   -2.5755    0.8089 C   0  0  0  0  0  0  0  0  0  0  0  0
   -3.8793   -1.9065    1.3169 H   0  0  0  0  0  0  0  0  0  0  0  0
   -3.4623   -2.6685   -0.2401 H   0  0  0  0  0  0  0  0  0  0  0  0
   -1.7863   -2.0195    0.9119 C   0  0  0  0  0  0  0  0  0  0  0  0
   -0.9073   -2.6615    1.4699 O   0  0  0  0  0  0  0  0  0  0  0  0
   -1.5803   -0.8195    0.3749 N   0  0  0  0  0  0  0  0  0  0  0  0
   -2.3603   -0.3345   -0.0451 H   0  0  0  0  0  0  0  0  0  0  0  0
   -0.2933   -0.1205    0.3719 C   0  0  1  0  0  0  0  0  0  0  0  0
    0.4439   -0.7485   -0.1303 H   0  0  0  0  0  0  0  0  0  0  0  0
   -0.4368    1.1924   -0.4246 C   0  0  0  0  0  0  0  0  0  0  0  0
    0.2496    1.1516   -1.2721 H   0  0  0  0  0  0  0  0  0  0  0  0
   -1.4529    1.2677   -0.8144 H   0  0  0  0  0  0  0  0  0  0  0  0
   -0.1339    2.4569    0.3978 C   0  0  0  0  0  0  0  0  0  0  0  0
   -0.3776    2.2850    1.4463 H   0  0  0  0  0  0  0  0  0  0  0  0
    0.9259    2.6941    0.3123 H   0  0  0  0  0  0  0  0  0  0  0  0
   -0.9301    3.6651   -0.0849 C   0  0  0  0  0  0  0  0  0  0  0  0
   -1.6289    3.6891   -1.0854 O   0  0  0  0  0  0  0  0  0  0  0  0
   -0.8179    4.7730    0.6711 O   0  0  0  0  0  0  0  0  0  0  0  0
   -1.3586    5.4322    0.2325 H   0  0  0  0  0  0  0  0  0  0  0  0
    0.1871    0.1189    1.8122 C   0  0  0  0  0  0  0  0  0  0  0  0
    1.3541   -0.1171    2.1187 O   0  0  0  0  0  0  0  0  0  0  0  0
   -0.7126    0.5740    2.6926 N   0  0  0  0  0  0  0  0  0  0  0  0
   -1.6464    0.7663    2.3621 H   0  0  0  0  0  0  0  0  0  0  0  0
   -0.4191    0.8310    4.1010 C   0  0  0  0  0  0  0  0  0  0  0  0
    0.4022    1.5452    4.1828 H   0  0  0  0  0  0  0  0  0  0  0  0
   -1.2983    1.2366    4.6035 H   0  0  0  0  0  0  0  0  0  0  0  0
   -0.1204   -0.0980    4.5907 H   0  0  0  0  0  0  0  0  0  0  0  0
  5  6  2  0  0  0  0
  5  7  1  0  0  0  0
  2  3  1  0  0  0  0
  2  4  1  0  0  0  0
  2  5  1  0  0  0  0
  1  2  1  0  0  0  0
 21 22  2  0  0  0  0
 21 23  1  0  0  0  0
 19 20  1  0  0  0  0
 17 18  2  0  0  0  0
 17 19  1  0  0  0  0
 14 15  1  0  0  0  0
 14 16  1  0  0  0  0
 14 17  1  0  0  0  0
 11 12  1  0  0  0  0
 11 13  1  0  0  0  0
 11 14  1  0  0  0  0
  9 10  1  0  0  0  0
  9 11  1  0  0  0  0
  9 21  1  0  0  0  0
  7  8  1  0  0  0  0
  7  9  1  0  0  0  0
 25 26  1  0  0  0  0
 25 27  1  0  0  0  0
 25 28  1  0  0  0  0
 23 24  1  0  0  0  0
 23 25  1  0  0  0  0
M  END
$$$$
default_name
  -OEChem-02102213163D

 28 27  0     1  0  0  0  0  0999 V2000
   -3.2133   -3.5565    1.2809 H   0  0  0  0  0  0  0  0  0  0  0  0
   -3.1873   -2.5755    0.8089 C   0  0  0  0  0  0  0  0  0  0  0  0
   -3.8793   -1.9065    1.3169 H   0  0  0  0  0  0  0  0  0  0  0  0
   -3.4623   -2.6685   -0.2401 H   0  0  0  0  0  0  0  0  0  0  0  0
   -1.7863   -2.0195    0.9119 C   0  0  0  0  0  0  0  0  0  0  0  0
   -0.9073   -2.6615    1.4699 O   0  0  0  0  0  0  0  0  0  0  0  0
   -1.5803   -0.8195    0.3749 N   0  0  0  0  0  0  0  0  0  0  0  0
   -2.3603   -0.3345   -0.0451 H   0  0  0  0  0  0  0  0  0  0  0  0
   -0.2933   -0.1205    0.3719 C   0  0  1  0  0  0  0  0  0  0  0  0
    0.4439   -0.7485   -0.1303 H   0  0  0  0  0  0  0  0  0  0  0  0
   -0.4368    1.1924   -0.4246 C   0  0  0  0  0  0  0  0  0  0  0  0
    0.2496    1.1516   -1.2721 H   0  0  0  0  0  0  0  0  0  0  0  0
   -1.4529    1.2677   -0.8144 H   0  0  0  0  0  0  0  0  0  0  0  0
   -0.1339    2.4569    0.3978 C   0  0  0  0  0  0  0  0  0  0  0  0
   -0.1200    2.2142    1.4604 H   0  0  0  0  0  0  0  0  0  0  0  0
    0.8412    2.8470    0.1084 H   0  0  0  0  0  0  0  0  0  0  0  0
   -1.1689    3.5545    0.1730 C   0  0  0  0  0  0  0  0  0  0  0  0
   -2.0644    3.5137   -0.6554 O   0  0  0  0  0  0  0  0  0  0  0  0
   -1.0441    4.6392    0.9602 O   0  0  0  0  0  0  0  0  0  0  0  0
   -1.7495    5.2290    0.6888 H   0  0  0  0  0  0  0  0  0  0  0  0
    0.1871    0.1189    1.8122 C   0  0  0  0  0  0  0  0  0  0  0  0
    1.3541   -0.1171    2.1187 O   0  0  0  0  0  0  0  0  0  0  0  0
   -0.7126    0.5740    2.6926 N   0  0  0  0  0  0  0  0  0  0  0  0
   -1.6464    0.7663    2.3621 H   0  0  0  0  0  0  0  0  0  0  0  0
   -0.4191    0.8310    4.1010 C   0  0  0  0  0  0  0  0  0  0  0  0
    0.4022    1.5452    4.1828 H   0  0  0  0  0  0  0  0  0  0  0  0
   -1.2983    1.2366    4.6035 H   0  0  0  0  0  0  0  0  0  0  0  0
   -0.1204   -0.0980    4.5907 H   0  0  0  0  0  0  0  0  0  0  0  0
  5  6  2  0  0  0  0
  5  7  1  0  0  0  0
  2  3  1  0  0  0  0
  2  4  1  0  0  0  0
  2  5  1  0  0  0  0
  1  2  1  0  0  0  0
 21 22  2  0  0  0  0
 21 23  1  0  0  0  0
 19 20  1  0  0  0  0
 17 18  2  0  0  0  0
 17 19  1  0  0  0  0
 14 15  1  0  0  0  0
 14 16  1  0  0  0  0
 14 17  1  0  0  0  0
 11 12  1  0  0  0  0
 11 13  1  0  0  0  0
 11 14  1  0  0  0  0
  9 10  1  0  0  0  0
  9 11  1  0  0  0  0
  9 21  1  0  0  0  0
  7  8  1  0  0  0  0
  7  9  1  0  0  0  0
 25 26  1  0  0  0  0
 25 27  1  0  0  0  0
 25 28  1  0  0  0  0
 23 24  1  0  0  0  0
 23 25  1  0  0  0  0
M  END
$$$$
default_name
  -OEChem-02102213163D

 28 27  0     1  0  0  0  0  0999 V2000
   -3.2133   -3.5565    1.2809 H   0  0  0  0  0  0  0  0  0  0  0  0
   -3.1873   -2.5755    0.8089 C   0  0  0  0  0  0  0  0  0  0  0  0
   -3.8793   -1.9065    1.3169 H   0  0  0  0  0  0  0  0  0  0  0  0
   -3.4623   -2.6685   -0.2401 H   0  0  0  0  0  0  0  0  0  0  0  0
   -1.7863   -2.0195    0.9119 C   0  0  0  0  0  0  0  0  0  0  0  0
   -0.9073   -2.6615    1.4699 O   0  0  0  0  0  0  0  0  0  0  0  0
   -1.5803   -0.8195    0.3749 N   0  0  0  0  0  0  0  0  0  0  0  0
   -2.3603   -0.3345   -0.0451 H   0  0  0  0  0  0  0  0  0  0  0  0
   -0.2933   -0.1205    0.3719 C   0  0  1  0  0  0  0  0  0  0  0  0
    0.4439   -0.7485   -0.1303 H   0  0  0  0  0  0  0  0  0  0  0  0
   -0.4368    1.1924   -0.4246 C   0  0  0  0  0  0  0  0  0  0  0  0
    0.2496    1.1516   -1.2721 H   0  0  0  0  0  0  0  0  0  0  0  0
   -1.4529    1.2677   -0.8144 H   0  0  0  0  0  0  0  0  0  0  0  0
   -0.1339    2.4569    0.3978 C   0  0  0  0  0  0  0  0  0  0  0  0
    0.1417    2.1806    1.4156 H   0  0  0  0  0  0  0  0  0  0  0  0
    0.6948    2.9934   -0.0628 H   0  0  0  0  0  0  0  0  0  0  0  0
   -1.3294    3.4016    0.4673 C   0  0  0  0  0  0  0  0  0  0  0  0
   -2.3694    3.2622   -0.1564 O   0  0  0  0  0  0  0  0  0  0  0  0
   -1.1825    4.4639    1.2807 O   0  0  0  0  0  0  0  0  0  0  0  0
   -2.0020    4.9555    1.2023 H   0  0  0  0  0  0  0  0  0  0  0  0
    0.1871    0.1189    1.8122 C   0  0  0  0  0  0  0  0  0  0  0  0
    1.3541   -0.1171    2.1187 O   0  0  0  0  0  0  0  0  0  0  0  0
   -0.7126    0.5740    2.6926 N   0  0  0  0  0  0  0  0  0  0  0  0
   -1.6464    0.7663    2.3621 H   0  0  0  0  0  0  0  0  0  0  0  0
   -0.4191    0.8310    4.1010 C   0  0  0  0  0  0  0  0  0  0  0  0
    0.4022    1.5452    4.1828 H   0  0  0  0  0  0  0  0  0  0  0  0
   -1.2983    1.2366    4.6035 H   0  0  0  0  0  0  0  0  0  0  0  0
   -0.1204   -0.0980    4.5907 H   0  0  0  0  0  0  0  0  0  0  0  0
  5  6  2  0  0  0  0
  5  7  1  0  0  0  0
  2  3  1  0  0  0  0
  2  4  1  0  0  0  0
  2  5  1  0  0  0  0
  1  2  1  0  0  0  0
 21 22  2  0  0  0  0
 21 23  1  0  0  0  0
 19 20  1  0  0  0  0
 17 18  2  0  0  0  0
 17 19  1  0  0  0  0
 14 15  1  0  0  0  0
 14 16  1  0  0  0  0
 14 17  1  0  0  0  0
 11 12  1  0  0  0  0
 11 13  1  0  0  0  0
 11 14  1  0  0  0  0
  9 10  1  0  0  0  0
  9 11  1  0  0  0  0
  9 21  1  0  0  0  0
  7  8  1  0  0  0  0
  7  9  1  0  0  0  0
 25 26  1  0  0  0  0
 25 27  1  0  0  0  0
 25 28  1  0  0  0  0
 23 24  1  0  0  0  0
 23 25  1  0  0  0  0
M  END
$$$$
default_name
  -OEChem-02102213163D

 28 27  0     1  0  0  0  0  0999 V2000
   -3.2133   -3.5565    1.2809 H   0  0  0  0  0  0  0  0  0  0  0  0
   -3.1873   -2.5755    0.8089 C   0  0  0  0  0  0  0  0  0  0  0  0
   -3.8793   -1.9065    1.3169 H   0  0  0  0  0  0  0  0  0  0  0  0
   -3.4623   -2.6685   -0.2401 H   0  0  0  0  0  0  0  0  0  0  0  0
   -1.7863   -2.0195    0.9119 C   0  0  0  0  0  0  0  0  0  0  0  0
   -0.9073   -2.6615    1.4699 O   0  0  0  0  0  0  0  0  0  0  0  0
   -1.5803   -0.8195    0.3749 N   0  0  0  0  0  0  0  0  0  0  0  0
   -2.3603   -0.3345   -0.0451 H   0  0  0  0  0  0  0  0  0  0  0  0
   -0.2933   -0.1205    0.3719 C   0  0  1  0  0  0  0  0  0  0  0  0
    0.4439   -0.7485   -0.1303 H   0  0  0  0  0  0  0  0  0  0  0  0
   -0.4368    1.1924   -0.4246 C   0  0  0  0  0  0  0  0  0  0  0  0
    0.2496    1.1516   -1.2721 H   0  0  0  0  0  0  0  0  0  0  0  0
   -1.4529    1.2677   -0.8144 H   0  0  0  0  0  0  0  0  0  0  0  0
   -0.1339    2.4569    0.3978 C   0  0  0  0  0  0  0  0  0  0  0  0
    0.3895    2.1867    1.3150 H   0  0  0  0  0  0  0  0  0  0  0  0
    0.4967    3.1233   -0.1895 H   0  0  0  0  0  0  0  0  0  0  0  0
   -1.4008    3.2166    0.7779 C   0  0  0  0  0  0  0  0  0  0  0  0
   -2.5230    2.9516    0.3777 O   0  0  0  0  0  0  0  0  0  0  0  0
   -1.2239    4.2590    1.6108 O   0  0  0  0  0  0  0  0  0  0  0  0
   -2.0987    4.6302    1.7381 H   0  0  0  0  0  0  0  0  0  0  0  0
    0.1871    0.1189    1.8122 C   0  0  0  0  0  0  0  0  0  0  0  0
    1.3541   -0.1171    2.1187 O   0  0  0  0  0  0  0  0  0  0  0  0
   -0.7126    0.5740    2.6926 N   0  0  0  0  0  0  0  0  0  0  0  0
   -1.6464    0.7663    2.3621 H   0  0  0  0  0  0  0  0  0  0  0  0
   -0.4191    0.8310    4.1010 C   0  0  0  0  0  0  0  0  0  0  0  0
    0.4022    1.5452    4.1828 H   0  0  0  0  0  0  0  0  0  0  0  0
   -1.2983    1.2366    4.6035 H   0  0  0  0  0  0  0  0  0  0  0  0
   -0.1204   -0.0980    4.5907 H   0  0  0  0  0  0  0  0  0  0  0  0
  5  6  2  0  0  0  0
  5  7  1  0  0  0  0
  2  3  1  0  0  0  0
  2  4  1  0  0  0  0
  2  5  1  0  0  0  0
  1  2  1  0  0  0  0
 21 22  2  0  0  0  0
 21 23  1  0  0  0  0
 19 20  1  0  0  0  0
 17 18  2  0  0  0  0
 17 19  1  0  0  0  0
 14 15  1  0  0  0  0
 14 16  1  0  0  0  0
 14 17  1  0  0  0  0
 11 12  1  0  0  0  0
 11 13  1  0  0  0  0
 11 14  1  0  0  0  0
  9 10  1  0  0  0  0
  9 11  1  0  0  0  0
  9 21  1  0  0  0  0
  7  8  1  0  0  0  0
  7  9  1  0  0  0  0
 25 26  1  0  0  0  0
 25 27  1  0  0  0  0
 25 28  1  0  0  0  0
 23 24  1  0  0  0  0
 23 25  1  0  0  0  0
M  END
$$$$
default_name
  -OEChem-02102213163D

 28 27  0     1  0  0  0  0  0999 V2000
   -3.2133   -3.5565    1.2809 H   0  0  0  0  0  0  0  0  0  0  0  0
   -3.1873   -2.5755    0.8089 C   0  0  0  0  0  0  0  0  0  0  0  0
   -3.8793   -1.9065    1.3169 H   0  0  0  0  0  0  0  0  0  0  0  0
   -3.4623   -2.6685   -0.2401 H   0  0  0  0  0  0  0  0  0  0  0  0
   -1.7863   -2.0195    0.9119 C   0  0  0  0  0  0  0  0  0  0  0  0
   -0.9073   -2.6615    1.4699 O   0  0  0  0  0  0  0  0  0  0  0  0
   -1.5803   -0.8195    0.3749 N   0  0  0  0  0  0  0  0  0  0  0  0
   -2.3603   -0.3345   -0.0451 H   0  0  0  0  0  0  0  0  0  0  0  0
   -0.2933   -0.1205    0.3719 C   0  0  1  0  0  0  0  0  0  0  0  0
    0.4439   -0.7485   -0.1303 H   0  0  0  0  0  0  0  0  0  0  0  0
   -0.4368    1.1924   -0.4246 C   0  0  0  0  0  0  0  0  0  0  0  0
    0.2496    1.1516   -1.2721 H   0  0  0  0  0  0  0  0  0  0  0  0
   -1.4529    1.2677   -0.8144 H   0  0  0  0  0  0  0  0  0  0  0  0
   -0.1339    2.4569    0.3978 C   0  0  0  0  0  0  0  0  0  0  0  0
    0.6067    2.2320    1.1654 H   0  0  0  0  0  0  0  0  0  0  0  0
    0.2605    3.2278   -0.2632 H   0  0  0  0  0  0  0  0  0  0  0  0
   -1.3780    3.0123    1.0836 C   0  0  0  0  0  0  0  0  0  0  0  0
   -2.5148    2.6031    0.9104 O   0  0  0  0  0  0  0  0  0  0  0  0
   -1.1652    4.0387    1.9280 O   0  0  0  0  0  0  0  0  0  0  0  0
   -2.0331    4.2752    2.2596 H   0  0  0  0  0  0  0  0  0  0  0  0
    0.1871    0.1189    1.8122 C   0  0  0  0  0  0  0  0  0  0  0  0
    1.3541   -0.1171    2.1187 O   0  0  0  0  0  0  0  0  0  0  0  0
   -0.7126    0.5740    2.6926 N   0  0  0  0  0  0  0  0  0  0  0  0
   -1.6464    0.7663    2.3621 H   0  0  0  0  0  0  0  0  0  0  0  0
   -0.4191    0.8310    4.1010 C   0  0  0  0  0  0  0  0  0  0  0  0
    0.4022    1.5452    4.1828 H   0  0  0  0  0  0  0  0  0  0  0  0
   -1.2983    1.2366    4.6035 H   0  0  0  0  0  0  0  0  0  0  0  0
   -0.1204   -0.0980    4.5907 H   0  0  0  0  0  0  0  0  0  0  0  0
  5  6  2  0  0  0  0
  5  7  1  0  0  0  0
  2  3  1  0  0  0  0
  2  4  1  0  0  0  0
  2  5  1  0  0  0  0
  1  2  1  0  0  0  0
 21 22  2  0  0  0  0
 21 23  1  0  0  0  0
 19 20  1  0  0  0  0
 17 18  2  0  0  0  0
 17 19  1  0  0  0  0
 14 15  1  0  0  0  0
 14 16  1  0  0  0  0
 14 17  1  0  0  0  0
 11 12  1  0  0  0  0
 11 13  1  0  0  0  0
 11 14  1  0  0  0  0
  9 10  1  0  0  0  0
  9 11  1  0  0  0  0
  9 21  1  0  0  0  0
  7  8  1  0  0  0  0
  7  9  1  0  0  0  0
 25 26  1  0  0  0  0
 25 27  1  0  0  0  0
 25 28  1  0  0  0  0
 23 24  1  0  0  0  0
 23 25  1  0  0  0  0
M  END
$$$$
default_name
  -OEChem-02102213163D

 28 27  0     1  0  0  0  0  0999 V2000
   -3.2133   -3.5565    1.2809 H   0  0  0  0  0  0  0  0  0  0  0  0
   -3.1873   -2.5755    0.8089 C   0  0  0  0  0  0  0  0  0  0  0  0
   -3.8793   -1.9065    1.3169 H   0  0  0  0  0  0  0  0  0  0  0  0
   -3.4623   -2.6685   -0.2401 H   0  0  0  0  0  0  0  0  0  0  0  0
   -1.7863   -2.0195    0.9119 C   0  0  0  0  0  0  0  0  0  0  0  0
   -0.9073   -2.6615    1.4699 O   0  0  0  0  0  0  0  0  0  0  0  0
   -1.5803   -0.8195    0.3749 N   0  0  0  0  0  0  0  0  0  0  0  0
   -2.3603   -0.3345   -0.0451 H   0  0  0  0  0  0  0  0  0  0  0  0
   -0.2933   -0.1205    0.3719 C   0  0  1  0  0  0  0  0  0  0  0  0
    0.4439   -0.7485   -0.1303 H   0  0  0  0  0  0  0  0  0  0  0  0
   -0.4368    1.1924   -0.4246 C   0  0  0  0  0  0  0  0  0  0  0  0
    0.2496    1.1516   -1.2721 H   0  0  0  0  0  0  0  0  0  0  0  0
   -1.4529    1.2677   -0.8144 H   0  0  0  0  0  0  0  0  0  0  0  0
   -0.1339    2.4569    0.3978 C   0  0  0  0  0  0  0  0  0  0  0  0
    0.7783    2.3134    0.9770 H   0  0  0  0  0  0  0  0  0  0  0  0
    0.0022    3.2998   -0.2788 H   0  0  0  0  0  0  0  0  0  0  0  0
   -1.2627    2.8025    1.3637 C   0  0  0  0  0  0  0  0  0  0  0  0
   -2.3454    2.2405    1.4055 O   0  0  0  0  0  0  0  0  0  0  0  0
   -1.0106    3.8178    2.2107 O   0  0  0  0  0  0  0  0  0  0  0  0
   -1.8098    3.9149    2.7314 H   0  0  0  0  0  0  0  0  0  0  0  0
    0.1871    0.1189    1.8122 C   0  0  0  0  0  0  0  0  0  0  0  0
    1.3541   -0.1171    2.1187 O   0  0  0  0  0  0  0  0  0  0  0  0
   -0.7126    0.5740    2.6926 N   0  0  0  0  0  0  0  0  0  0  0  0
   -1.6464    0.7663    2.3621 H   0  0  0  0  0  0  0  0  0  0  0  0
   -0.4191    0.8310    4.1010 C   0  0  0  0  0  0  0  0  0  0  0  0
    0.4022    1.5452    4.1828 H   0  0  0  0  0  0  0  0  0  0  0  0
   -1.2983    1.2366    4.6035 H   0  0  0  0  0  0  0  0  0  0  0  0
   -0.1204   -0.0980    4.5907 H   0  0  0  0  0  0  0  0  0  0  0  0
  5  6  2  0  0  0  0
  5  7  1  0  0  0  0
  2  3  1  0  0  0  0
  2  4  1  0  0  0  0
  2  5  1  0  0  0  0
  1  2  1  0  0  0  0
 21 22  2  0  0  0  0
 21 23  1  0  0  0  0
 19 20  1  0  0  0  0
 17 18  2  0  0  0  0
 17 19  1  0  0  0  0
 14 15  1  0  0  0  0
 14 16  1  0  0  0  0
 14 17  1  0  0  0  0
 11 12  1  0  0  0  0
 11 13  1  0  0  0  0
 11 14  1  0  0  0  0
  9 10  1  0  0  0  0
  9 11  1  0  0  0  0
  9 21  1  0  0  0  0
  7  8  1  0  0  0  0
  7  9  1  0  0  0  0
 25 26  1  0  0  0  0
 25 27  1  0  0  0  0
 25 28  1  0  0  0  0
 23 24  1  0  0  0  0
 23 25  1  0  0  0  0
M  END
$$$$
default_name
  -OEChem-02102213163D

 28 27  0     1  0  0  0  0  0999 V2000
   -3.2133   -3.5565    1.2809 H   0  0  0  0  0  0  0  0  0  0  0  0
   -3.1873   -2.5755    0.8089 C   0  0  0  0  0  0  0  0  0  0  0  0
   -3.8793   -1.9065    1.3169 H   0  0  0  0  0  0  0  0  0  0  0  0
   -3.4623   -2.6685   -0.2401 H   0  0  0  0  0  0  0  0  0  0  0  0
   -1.7863   -2.0195    0.9119 C   0  0  0  0  0  0  0  0  0  0  0  0
   -0.9073   -2.6615    1.4699 O   0  0  0  0  0  0  0  0  0  0  0  0
   -1.5803   -0.8195    0.3749 N   0  0  0  0  0  0  0  0  0  0  0  0
   -2.3603   -0.3345   -0.0451 H   0  0  0  0  0  0  0  0  0  0  0  0
   -0.2933   -0.1205    0.3719 C   0  0  1  0  0  0  0  0  0  0  0  0
    0.4439   -0.7485   -0.1303 H   0  0  0  0  0  0  0  0  0  0  0  0
   -0.4368    1.1924   -0.4246 C   0  0  0  0  0  0  0  0  0  0  0  0
    0.2496    1.1516   -1.2721 H   0  0  0  0  0  0  0  0  0  0  0  0
   -1.4529    1.2677   -0.8144 H   0  0  0  0  0  0  0  0  0  0  0  0
   -0.1339    2.4569    0.3978 C   0  0  0  0  0  0  0  0  0  0  0  0
    0.8928    2.4254    0.7627 H   0  0  0  0  0  0  0  0  0  0  0  0
   -0.2606    3.3344   -0.2352 H   0  0  0  0  0  0  0  0  0  0  0  0
   -1.0627    2.6015    1.5991 C   0  0  0  0  0  0  0  0  0  0  0  0
   -2.0262    1.8885    1.8292 O   0  0  0  0  0  0  0  0  0  0  0  0
   -0.7705    3.6114    2.4396 O   0  0  0  0  0  0  0  0  0  0  0  0
   -1.4438    3.5737    3.1212 H   0  0  0  0  0  0  0  0  0  0  0  0
    0.1871    0.1189    1.8122 C   0  0  0  0  0  0  0  0  0  0  0  0
    1.3541   -0.1171    2.1187 O   0  0  0  0  0  0  0  0  0  0  0  0
   -0.7126    0.5740    2.6926 N   0  0  0  0  0  0  0  0  0  0  0  0
   -1.6464    0.7663    2.3621 H   0  0  0  0  0  0  0  0  0  0  0  0
   -0.4191    0.8310    4.1010 C   0  0  0  0  0  0  0  0  0  0  0  0
    0.4022    1.5452    4.1828 H   0  0  0  0  0  0  0  0  0  0  0  0
   -1.2983    1.2366    4.6035 H   0  0  0  0  0  0  0  0  0  0  0  0
   -0.1204   -0.0980    4.5907 H   0  0  0  0  0  0  0  0  0  0  0  0
  5  6  2  0  0  0  0
  5  7  1  0  0  0  0
  2  3  1  0  0  0  0
  2  4  1  0  0  0  0
  2  5  1  0  0  0  0
  1  2  1  0  0  0  0
 21 22  2  0  0  0  0
 21 23  1  0  0  0  0
 19 20  1  0  0  0  0
 17 18  2  0  0  0  0
 17 19  1  0  0  0  0
 14 15  1  0  0  0  0
 14 16  1  0  0  0  0
 14 17  1  0  0  0  0
 11 12  1  0  0  0  0
 11 13  1  0  0  0  0
 11 14  1  0  0  0  0
  9 10  1  0  0  0  0
  9 11  1  0  0  0  0
  9 21  1  0  0  0  0
  7  8  1  0  0  0  0
  7  9  1  0  0  0  0
 25 26  1  0  0  0  0
 25 27  1  0  0  0  0
 25 28  1  0  0  0  0
 23 24  1  0  0  0  0
 23 25  1  0  0  0  0
M  END
$$$$
default_name
  -OEChem-02102213163D

 28 27  0     1  0  0  0  0  0999 V2000
   -3.2133   -3.5565    1.2809 H   0  0  0  0  0  0  0  0  0  0  0  0
   -3.1873   -2.5755    0.8089 C   0  0  0  0  0  0  0  0  0  0  0  0
   -3.8793   -1.9065    1.3169 H   0  0  0  0  0  0  0  0  0  0  0  0
   -3.4623   -2.6685   -0.2401 H   0  0  0  0  0  0  0  0  0  0  0  0
   -1.7863   -2.0195    0.9119 C   0  0  0  0  0  0  0  0  0  0  0  0
   -0.9073   -2.6615    1.4699 O   0  0  0  0  0  0  0  0  0  0  0  0
   -1.5803   -0.8195    0.3749 N   0  0  0  0  0  0  0  0  0  0  0  0
   -2.3603   -0.3345   -0.0451 H   0  0  0  0  0  0  0  0  0  0  0  0
   -0.2933   -0.1205    0.3719 C   0  0  1  0  0  0  0  0  0  0  0  0
    0.4439   -0.7485   -0.1303 H   0  0  0  0  0  0  0  0  0  0  0  0
   -0.4368    1.1924   -0.4246 C   0  0  0  0  0  0  0  0  0  0  0  0
    0.2496    1.1516   -1.2721 H   0  0  0  0  0  0  0  0  0  0  0  0
   -1.4529    1.2677   -0.8144 H   0  0  0  0  0  0  0  0  0  0  0  0
   -0.1339    2.4569    0.3978 C   0  0  0  0  0  0  0  0  0  0  0  0
    0.9423    2.5603    0.5370 H   0  0  0  0  0  0  0  0  0  0  0  0
   -0.5099    3.3292   -0.1355 H   0  0  0  0  0  0  0  0  0  0  0  0
   -0.7916    2.4231    1.7736 C   0  0  0  0  0  0  0  0  0  0  0  0
   -1.5791    1.5710    2.1526 O   0  0  0  0  0  0  0  0  0  0  0  0
   -0.4614    3.4336    2.5991 O   0  0  0  0  0  0  0  0  0  0  0  0
   -0.9602    3.2749    3.4024 H   0  0  0  0  0  0  0  0  0  0  0  0
    0.1871    0.1189    1.8122 C   0  0  0  0  0  0  0  0  0  0  0  0
    1.3541   -0.1171    2.1187 O   0  0  0  0  0  0  0  0  0  0  0  0
   -0.7126    0.5740    2.6926 N   0  0  0  0  0  0  0  0  0  0  0  0
   -1.6464    0.7663    2.3621 H   0  0  0  0  0  0  0  0  0  0  0  0
   -0.4191    0.8310    4.1010 C   0  0  0  0  0  0  0  0  0  0  0  0
    0.4022    1.5452    4.1828 H   0  0  0  0  0  0  0  0  0  0  0  0
   -1.2983    1.2366    4.6035 H   0  0  0  0  0  0  0  0  0  0  0  0
   -0.1204   -0.0980    4.5907 H   0  0  0  0  0  0  0  0  0  0  0  0
  5  6  2  0  0  0  0
  5  7  1  0  0  0  0
  2  3  1  0  0  0  0
  2  4  1  0  0  0  0
  2  5  1  0  0  0  0
  1  2  1  0  0  0  0
 21 22  2  0  0  0  0
 21 23  1  0  0  0  0
 19 20  1  0  0  0  0
 17 18  2  0  0  0  0
 17 19  1  0  0  0  0
 14 15  1  0  0  0  0
 14 16  1  0  0  0  0
 14 17  1  0  0  0  0
 11 12  1  0  0  0  0
 11 13  1  0  0  0  0
 11 14  1  0  0  0  0
  9 10  1  0  0  0  0
  9 11  1  0  0  0  0
  9 21  1  0  0  0  0
  7  8  1  0  0  0  0
  7  9  1  0  0  0  0
 25 26  1  0  0  0  0
 25 27  1  0  0  0  0
 25 28  1  0  0  0  0
 23 24  1  0  0  0  0
 23 25  1  0  0  0  0
M  END
$$$$
default_name
  -OEChem-02102213163D

 28 27  0     1  0  0  0  0  0999 V2000
   -3.2133   -3.5565    1.2809 H   0  0  0  0  0  0  0  0  0  0  0  0
   -3.1873   -2.5755    0.8089 C   0  0  0  0  0  0  0  0  0  0  0  0
   -3.8793   -1.9065    1.3169 H   0  0  0  0  0  0  0  0  0  0  0  0
   -3.4623   -2.6685   -0.2401 H   0  0  0  0  0  0  0  0  0  0  0  0
   -1.7863   -2.0195    0.9119 C   0  0  0  0  0  0  0  0  0  0  0  0
   -0.9073   -2.6615    1.4699 O   0  0  0  0  0  0  0  0  0  0  0  0
   -1.5803   -0.8195    0.3749 N   0  0  0  0  0  0  0  0  0  0  0  0
   -2.3603   -0.3345   -0.0451 H   0  0  0  0  0  0  0  0  0  0  0  0
   -0.2933   -0.1205    0.3719 C   0  0  1  0  0  0  0  0  0  0  0  0
    0.4439   -0.7485   -0.1303 H   0  0  0  0  0  0  0  0  0  0  0  0
   -0.4368    1.1924   -0.4246 C   0  0  0  0  0  0  0  0  0  0  0  0
    0.2496    1.1516   -1.2721 H   0  0  0  0  0  0  0  0  0  0  0  0
   -1.4529    1.2677   -0.8144 H   0  0  0  0  0  0  0  0  0  0  0  0
   -0.1339    2.4569    0.3978 C   0  0  0  0  0  0  0  0  0  0  0  0
    0.9234    2.7090    0.3154 H   0  0  0  0  0  0  0  0  0  0  0  0
   -0.7288    3.2847    0.0136 H   0  0  0  0  0  0  0  0  0  0  0  0
   -0.4680    2.2793    1.8754 C   0  0  0  0  0  0  0  0  0  0  0  0
   -1.0345    1.3098    2.3538 O   0  0  0  0  0  0  0  0  0  0  0  0
   -0.1042    3.2964    2.6784 O   0  0  0  0  0  0  0  0  0  0  0  0
   -0.3919    3.0389    3.5560 H   0  0  0  0  0  0  0  0  0  0  0  0
    0.1871    0.1189    1.8122 C   0  0  0  0  0  0  0  0  0  0  0  0
    1.3541   -0.1171    2.1187 O   0  0  0  0  0  0  0  0  0  0  0  0
   -0.7126    0.5740    2.6926 N   0  0  0  0  0  0  0  0  0  0  0  0
   -1.6464    0.7663    2.3621 H   0  0  0  0  0  0  0  0  0  0  0  0
   -0.4191    0.8310    4.1010 C   0  0  0  0  0  0  0  0  0  0  0  0
    0.4022    1.5452    4.1828 H   0  0  0  0  0  0  0  0  0  0  0  0
   -1.2983    1.2366    4.6035 H   0  0  0  0  0  0  0  0  0  0  0  0
   -0.1204   -0.0980    4.5907 H   0  0  0  0  0  0  0  0  0  0  0  0
  5  6  2  0  0  0  0
  5  7  1  0  0  0  0
  2  3  1  0  0  0  0
  2  4  1  0  0  0  0
  2  5  1  0  0  0  0
  1  2  1  0  0  0  0
 21 22  2  0  0  0  0
 21 23  1  0  0  0  0
 19 20  1  0  0  0  0
 17 18  2  0  0  0  0
 17 19  1  0  0  0  0
 14 15  1  0  0  0  0
 14 16  1  0  0  0  0
 14 17  1  0  0  0  0
 11 12  1  0  0  0  0
 11 13  1  0  0  0  0
 11 14  1  0  0  0  0
  9 10  1  0  0  0  0
  9 11  1  0  0  0  0
  9 21  1  0  0  0  0
  7  8  1  0  0  0  0
  7  9  1  0  0  0  0
 25 26  1  0  0  0  0
 25 27  1  0  0  0  0
 25 28  1  0  0  0  0
 23 24  1  0  0  0  0
 23 25  1  0  0  0  0
M  END
$$$$
default_name
  -OEChem-02102213163D

 28 27  0     1  0  0  0  0  0999 V2000
   -3.2133   -3.5565    1.2809 H   0  0  0  0  0  0  0  0  0  0  0  0
   -3.1873   -2.5755    0.8089 C   0  0  0  0  0  0  0  0  0  0  0  0
   -3.8793   -1.9065    1.3169 H   0  0  0  0  0  0  0  0  0  0  0  0
   -3.4623   -2.6685   -0.2401 H   0  0  0  0  0  0  0  0  0  0  0  0
   -1.7863   -2.0195    0.9119 C   0  0  0  0  0  0  0  0  0  0  0  0
   -0.9073   -2.6615    1.4699 O   0  0  0  0  0  0  0  0  0  0  0  0
   -1.5803   -0.8195    0.3749 N   0  0  0  0  0  0  0  0  0  0  0  0
   -2.3603   -0.3345   -0.0451 H   0  0  0  0  0  0  0  0  0  0  0  0
   -0.2933   -0.1205    0.3719 C   0  0  1  0  0  0  0  0  0  0  0  0
    0.4439   -0.7485   -0.1303 H   0  0  0  0  0  0  0  0  0  0  0  0
   -0.4368    1.1924   -0.4246 C   0  0  0  0  0  0  0  0  0  0  0  0
    0.2496    1.1516   -1.2721 H   0  0  0  0  0  0  0  0  0  0  0  0
   -1.4529    1.2677   -0.8144 H   0  0  0  0  0  0  0  0  0  0  0  0
   -0.1339    2.4569    0.3978 C   0  0  0  0  0  0  0  0  0  0  0  0
    0.8374    2.8613    0.1129 H   0  0  0  0  0  0  0  0  0  0  0  0
   -0.9024    3.2038    0.2020 H   0  0  0  0  0  0  0  0  0  0  0  0
   -0.1139    2.1801    1.8976 C   0  0  0  0  0  0  0  0  0  0  0  0
   -0.4296    1.1225    2.4189 O   0  0  0  0  0  0  0  0  0  0  0  0
    0.2766    3.2094    2.6721 O   0  0  0  0  0  0  0  0  0  0  0  0
    0.2223    2.8817    3.5715 H   0  0  0  0  0  0  0  0  0  0  0  0
    0.1871    0.1189    1.8122 C   0  0  0  0  0  0  0  0  0  0  0  0
    1.3541   -0.1171    2.1187 O   0  0  0  0  0  0  0  0  0  0  0  0
   -0.7126    0.5740    2.6926 N   0  0  0  0  0  0  0  0  0  0  0  0
   -1.6464    0.7663    2.3621 H   0  0  0  0  0  0  0  0  0  0  0  0
   -0.4191    0.8310    4.1010 C   0  0  0  0  0  0  0  0  0  0  0  0
    0.4022    1.5452    4.1828 H   0  0  0  0  0  0  0  0  0  0  0  0
   -1.2983    1.2366    4.6035 H   0  0  0  0  0  0  0  0  0  0  0  0
   -0.1204   -0.0980    4.5907 H   0  0  0  0  0  0  0  0  0  0  0  0
  5  6  2  0  0  0  0
  5  7  1  0  0  0  0
  2  3  1  0  0  0  0
  2  4  1  0  0  0  0
  2  5  1  0  0  0  0
  1  2  1  0  0  0  0
 21 22  2  0  0  0  0
 21 23  1  0  0  0  0
 19 20  1  0  0  0  0
 17 18  2  0  0  0  0
 17 19  1  0  0  0  0
 14 15  1  0  0  0  0
 14 16  1  0  0  0  0
 14 17  1  0  0  0  0
 11 12  1  0  0  0  0
 11 13  1  0  0  0  0
 11 14  1  0  0  0  0
  9 10  1  0  0  0  0
  9 11  1  0  0  0  0
  9 21  1  0  0  0  0
  7  8  1  0  0  0  0
  7  9  1  0  0  0  0
 25 26  1  0  0  0  0
 25 27  1  0  0  0  0
 25 28  1  0  0  0  0
 23 24  1  0  0  0  0
 23 25  1  0  0  0  0
M  END
$$$$
default_name
  -OEChem-02102213163D

 28 27  0     1  0  0  0  0  0999 V2000
   -3.2133   -3.5565    1.2809 H   0  0  0  0  0  0  0  0  0  0  0  0
   -3.1873   -2.5755    0.8089 C   0  0  0  0  0  0  0  0  0  0  0  0
   -3.8793   -1.9065    1.3169 H   0  0  0  0  0  0  0  0  0  0  0  0
   -3.4623   -2.6685   -0.2401 H   0  0  0  0  0  0  0  0  0  0  0  0
   -1.7863   -2.0195    0.9119 C   0  0  0  0  0  0  0  0  0  0  0  0
   -0.9073   -2.6615    1.4699 O   0  0  0  0  0  0  0  0  0  0  0  0
   -1.5803   -0.8195    0.3749 N   0  0  0  0  0  0  0  0  0  0  0  0
   -2.3603   -0.3345   -0.0451 H   0  0  0  0  0  0  0  0  0  0  0  0
   -0.2933   -0.1205    0.3719 C   0  0  1  0  0  0  0  0  0  0  0  0
    0.4439   -0.7485   -0.1303 H   0  0  0  0  0  0  0  0  0  0  0  0
   -0.4368    1.1924   -0.4246 C   0  0  0  0  0  0  0  0  0  0  0  0
    0.2496    1.1516   -1.2721 H   0  0  0  0  0  0  0  0  0  0  0  0
   -1.4529    1.2677   -0.8144 H   0  0  0  0  0  0  0  0  0  0  0  0
   -0.1339    2.4569    0.3978 C   0  0  0  0  0  0  0  0  0  0  0  0
    0.6903    3.0068   -0.0566 H   0  0  0  0  0  0  0  0  0  0  0  0
   -1.0188    3.0920    0.4167 H   0  0  0  0  0  0  0  0  0  0  0  0
    0.2467    2.1321    1.8387 C   0  0  0  0  0  0  0  0  0  0  0  0
    0.1946    1.0220    2.3436 O   0  0  0  0  0  0  0  0  0  0  0  0
    0.6551    3.1783    2.5805 O   0  0  0  0  0  0  0  0  0  0  0  0
    0.8407    2.8141    3.4478 H   0  0  0  0  0  0  0  0  0  0  0  0
    0.1871    0.1189    1.8122 C   0  0  0  0  0  0  0  0  0  0  0  0
    1.3541   -0.1171    2.1187 O   0  0  0  0  0  0  0  0  0  0  0  0
   -0.7126    0.5740    2.6926 N   0  0  0  0  0  0  0  0  0  0  0  0
   -1.6464    0.7663    2.3621 H   0  0  0  0  0  0  0  0  0  0  0  0
   -0.4191    0.8310    4.1010 C   0  0  0  0  0  0  0  0  0  0  0  0
    0.4022    1.5452    4.1828 H   0  0  0  0  0  0  0  0  0  0  0  0
   -1.2983    1.2366    4.6035 H   0  0  0  0  0  0  0  0  0  0  0  0
   -0.1204   -0.0980    4.5907 H   0  0  0  0  0  0  0  0  0  0  0  0
  5  6  2  0  0  0  0
  5  7  1  0  0  0  0
  2  3  1  0  0  0  0
  2  4  1  0  0  0  0
  2  5  1  0  0  0  0
  1  2  1  0  0  0  0
 21 22  2  0  0  0  0
 21 23  1  0  0  0  0
 19 20  1  0  0  0  0
 17 18  2  0  0  0  0
 17 19  1  0  0  0  0
 14 15  1  0  0  0  0
 14 16  1  0  0  0  0
 14 17  1  0  0  0  0
 11 12  1  0  0  0  0
 11 13  1  0  0  0  0
 11 14  1  0  0  0  0
  9 10  1  0  0  0  0
  9 11  1  0  0  0  0
  9 21  1  0  0  0  0
  7  8  1  0  0  0  0
  7  9  1  0  0  0  0
 25 26  1  0  0  0  0
 25 27  1  0  0  0  0
 25 28  1  0  0  0  0
 23 24  1  0  0  0  0
 23 25  1  0  0  0  0
M  END
$$$$
default_name
  -OEChem-02102213163D

 28 27  0     1  0  0  0  0  0999 V2000
   -3.2133   -3.5565    1.2809 H   0  0  0  0  0  0  0  0  0  0  0  0
   -3.1873   -2.5755    0.8089 C   0  0  0  0  0  0  0  0  0  0  0  0
   -3.8793   -1.9065    1.3169 H   0  0  0  0  0  0  0  0  0  0  0  0
   -3.4623   -2.6685   -0.2401 H   0  0  0  0  0  0  0  0  0  0  0  0
   -1.7863   -2.0195    0.9119 C   0  0  0  0  0  0  0  0  0  0  0  0
   -0.9073   -2.6615    1.4699 O   0  0  0  0  0  0  0  0  0  0  0  0
   -1.5803   -0.8195    0.3749 N   0  0  0  0  0  0  0  0  0  0  0  0
   -2.3603   -0.3345   -0.0451 H   0  0  0  0  0  0  0  0  0  0  0  0
   -0.2933   -0.1205    0.3719 C   0  0  1  0  0  0  0  0  0  0  0  0
    0.4439   -0.7485   -0.1303 H   0  0  0  0  0  0  0  0  0  0  0  0
   -0.4368    1.1924   -0.4246 C   0  0  0  0  0  0  0  0  0  0  0  0
    0.2496    1.1516   -1.2721 H   0  0  0  0  0  0  0  0  0  0  0  0
   -1.4529    1.2677   -0.8144 H   0  0  0  0  0  0  0  0  0  0  0  0
   -0.1339    2.4569    0.3978 C   0  0  0  0  0  0  0  0  0  0  0  0
    0.4919    3.1357   -0.1817 H   0  0  0  0  0  0  0  0  0  0  0  0
   -1.0701    2.9570    0.6432 H   0  0  0  0  0  0  0  0  0  0  0  0
    0.5890    2.1386    1.7026 C   0  0  0  0  0  0  0  0  0  0  0  0
    0.7953    1.0151    2.1330 O   0  0  0  0  0  0  0  0  0  0  0  0
    1.0055    3.2053    2.4099 O   0  0  0  0  0  0  0  0  0  0  0  0
    1.4210    2.8407    3.1933 H   0  0  0  0  0  0  0  0  0  0  0  0
    0.1871    0.1189    1.8122 C   0  0  0  0  0  0  0  0  0  0  0  0
    1.3541   -0.1171    2.1187 O   0  0  0  0  0  0  0  0  0  0  0  0
   -0.7126    0.5740    2.6926 N   0  0  0  0  0  0  0  0  0  0  0  0
   -1.6464    0.7663    2.3621 H   0  0  0  0  0  0  0  0  0  0  0  0
   -0.4191    0.8310    4.1010 C   0  0  0  0  0  0  0  0  0  0  0  0
    0.4022    1.5452    4.1828 H   0  0  0  0  0  0  0  0  0  0  0  0
   -1.2983    1.2366    4.6035 H   0  0  0  0  0  0  0  0  0  0  0  0
   -0.1204   -0.0980    4.5907 H   0  0  0  0  0  0  0  0  0  0  0  0
  5  6  2  0  0  0  0
  5  7  1  0  0  0  0
  2  3  1  0  0  0  0
  2  4  1  0  0  0  0
  2  5  1  0  0  0  0
  1  2  1  0  0  0  0
 21 22  2  0  0  0  0
 21 23  1  0  0  0  0
 19 20  1  0  0  0  0
 17 18  2  0  0  0  0
 17 19  1  0  0  0  0
 14 15  1  0  0  0  0
 14 16  1  0  0  0  0
 14 17  1  0  0  0  0
 11 12  1  0  0  0  0
 11 13  1  0  0  0  0
 11 14  1  0  0  0  0
  9 10  1  0  0  0  0
  9 11  1  0  0  0  0
  9 21  1  0  0  0  0
  7  8  1  0  0  0  0
  7  9  1  0  0  0  0
 25 26  1  0  0  0  0
 25 27  1  0  0  0  0
 25 28  1  0  0  0  0
 23 24  1  0  0  0  0
 23 25  1  0  0  0  0
M  END
$$$$
default_name
  -OEChem-02102213163D

 28 27  0     1  0  0  0  0  0999 V2000
   -3.2133   -3.5565    1.2809 H   0  0  0  0  0  0  0  0  0  0  0  0
   -3.1873   -2.5755    0.8089 C   0  0  0  0  0  0  0  0  0  0  0  0
   -3.8793   -1.9065    1.3169 H   0  0  0  0  0  0  0  0  0  0  0  0
   -3.4623   -2.6685   -0.2401 H   0  0  0  0  0  0  0  0  0  0  0  0
   -1.7863   -2.0195    0.9119 C   0  0  0  0  0  0  0  0  0  0  0  0
   -0.9073   -2.6615    1.4699 O   0  0  0  0  0  0  0  0  0  0  0  0
   -1.5803   -0.8195    0.3749 N   0  0  0  0  0  0  0  0  0  0  0  0
   -2.3603   -0.3345   -0.0451 H   0  0  0  0  0  0  0  0  0  0  0  0
   -0.2933   -0.1205    0.3719 C   0  0  1  0  0  0  0  0  0  0  0  0
    0.4439   -0.7485   -0.1303 H   0  0  0  0  0  0  0  0  0  0  0  0
   -0.4368    1.1924   -0.4246 C   0  0  0  0  0  0  0  0  0  0  0  0
    0.2496    1.1516   -1.2721 H   0  0  0  0  0  0  0  0  0  0  0  0
   -1.4529    1.2677   -0.8144 H   0  0  0  0  0  0  0  0  0  0  0  0
   -0.1339    2.4569    0.3978 C   0  0  0  0  0  0  0  0  0  0  0  0
    0.2559    3.2391   -0.2537 H   0  0  0  0  0  0  0  0  0  0  0  0
   -1.0528    2.8079    0.8659 H   0  0  0  0  0  0  0  0  0  0  0  0
    0.8899    2.1992    1.4987 C   0  0  0  0  0  0  0  0  0  0  0  0
    1.3317    1.1023    1.8014 O   0  0  0  0  0  0  0  0  0  0  0  0
    1.3040    3.2886    2.1720 O   0  0  0  0  0  0  0  0  0  0  0  0
    1.9238    2.9596    2.8253 H   0  0  0  0  0  0  0  0  0  0  0  0
    0.1871    0.1189    1.8122 C   0  0  0  0  0  0  0  0  0  0  0  0
    1.3541   -0.1171    2.1187 O   0  0  0  0  0  0  0  0  0  0  0  0
   -0.7126    0.5740    2.6926 N   0  0  0  0  0  0  0  0  0  0  0  0
   -1.6464    0.7663    2.3621 H   0  0  0  0  0  0  0  0  0  0  0  0
   -0.4191    0.8310    4.1010 C   0  0  0  0  0  0  0  0  0  0  0  0
    0.4022    1.5452    4.1828 H   0  0  0  0  0  0  0  0  0  0  0  0
   -1.2983    1.2366    4.6035 H   0  0  0  0  0  0  0  0  0  0  0  0
   -0.1204   -0.0980    4.5907 H   0  0  0  0  0  0  0  0  0  0  0  0
  5  6  2  0  0  0  0
  5  7  1  0  0  0  0
  2  3  1  0  0  0  0
  2  4  1  0  0  0  0
  2  5  1  0  0  0  0
  1  2  1  0  0  0  0
 21 22  2  0  0  0  0
 21 23  1  0  0  0  0
 19 20  1  0  0  0  0
 17 18  2  0  0  0  0
 17 19  1  0  0  0  0
 14 15  1  0  0  0  0
 14 16  1  0  0  0  0
 14 17  1  0  0  0  0
 11 12  1  0  0  0  0
 11 13  1  0  0  0  0
 11 14  1  0  0  0  0
  9 10  1  0  0  0  0
  9 11  1  0  0  0  0
  9 21  1  0  0  0  0
  7  8  1  0  0  0  0
  7  9  1  0  0  0  0
 25 26  1  0  0  0  0
 25 27  1  0  0  0  0
 25 28  1  0  0  0  0
 23 24  1  0  0  0  0
 23 25  1  0  0  0  0
M  END
$$$$
default_name
  -OEChem-02102213163D

 28 27  0     1  0  0  0  0  0999 V2000
   -3.2133   -3.5565    1.2809 H   0  0  0  0  0  0  0  0  0  0  0  0
   -3.1873   -2.5755    0.8089 C   0  0  0  0  0  0  0  0  0  0  0  0
   -3.8793   -1.9065    1.3169 H   0  0  0  0  0  0  0  0  0  0  0  0
   -3.4623   -2.6685   -0.2401 H   0  0  0  0  0  0  0  0  0  0  0  0
   -1.7863   -2.0195    0.9119 C   0  0  0  0  0  0  0  0  0  0  0  0
   -0.9073   -2.6615    1.4699 O   0  0  0  0  0  0  0  0  0  0  0  0
   -1.5803   -0.8195    0.3749 N   0  0  0  0  0  0  0  0  0  0  0  0
   -2.3603   -0.3345   -0.0451 H   0  0  0  0  0  0  0  0  0  0  0  0
   -0.2933   -0.1205    0.3719 C   0  0  1  0  0  0  0  0  0  0  0  0
    0.4439   -0.7485   -0.1303 H   0  0  0  0  0  0  0  0  0  0  0  0
   -0.4368    1.1924   -0.4246 C   0  0  0  0  0  0  0  0  0  0  0  0
    0.2496    1.1516   -1.2721 H   0  0  0  0  0  0  0  0  0  0  0  0
   -1.4529    1.2677   -0.8144 H   0  0  0  0  0  0  0  0  0  0  0  0
   -0.1339    2.4569    0.3978 C   0  0  0  0  0  0  0  0  0  0  0  0
   -0.0017    3.3100   -0.2678 H   0  0  0  0  0  0  0  0  0  0  0  0
   -0.9681    2.6550    1.0699 H   0  0  0  0  0  0  0  0  0  0  0  0
    1.1287    2.3097    1.2408 C   0  0  0  0  0  0  0  0  0  0  0  0
    1.7672    1.2777    1.3714 O   0  0  0  0  0  0  0  0  0  0  0  0
    1.5302    3.4224    1.8829 O   0  0  0  0  0  0  0  0  0  0  0  0
    2.3147    3.1627    2.3691 H   0  0  0  0  0  0  0  0  0  0  0  0
    0.1871    0.1189    1.8122 C   0  0  0  0  0  0  0  0  0  0  0  0
    1.3541   -0.1171    2.1187 O   0  0  0  0  0  0  0  0  0  0  0  0
   -0.7126    0.5740    2.6926 N   0  0  0  0  0  0  0  0  0  0  0  0
   -1.6464    0.7663    2.3621 H   0  0  0  0  0  0  0  0  0  0  0  0
   -0.4191    0.8310    4.1010 C   0  0  0  0  0  0  0  0  0  0  0  0
    0.4022    1.5452    4.1828 H   0  0  0  0  0  0  0  0  0  0  0  0
   -1.2983    1.2366    4.6035 H   0  0  0  0  0  0  0  0  0  0  0  0
   -0.1204   -0.0980    4.5907 H   0  0  0  0  0  0  0  0  0  0  0  0
  5  6  2  0  0  0  0
  5  7  1  0  0  0  0
  2  3  1  0  0  0  0
  2  4  1  0  0  0  0
  2  5  1  0  0  0  0
  1  2  1  0  0  0  0
 21 22  2  0  0  0  0
 21 23  1  0  0  0  0
 19 20  1  0  0  0  0
 17 18  2  0  0  0  0
 17 19  1  0  0  0  0
 14 15  1  0  0  0  0
 14 16  1  0  0  0  0
 14 17  1  0  0  0  0
 11 12  1  0  0  0  0
 11 13  1  0  0  0  0
 11 14  1  0  0  0  0
  9 10  1  0  0  0  0
  9 11  1  0  0  0  0
  9 21  1  0  0  0  0
  7  8  1  0  0  0  0
  7  9  1  0  0  0  0
 25 26  1  0  0  0  0
 25 27  1  0  0  0  0
 25 28  1  0  0  0  0
 23 24  1  0  0  0  0
 23 25  1  0  0  0  0
M  END
$$$$
default_name
  -OEChem-02102213163D

 28 27  0     1  0  0  0  0  0999 V2000
   -3.2133   -3.5565    1.2809 H   0  0  0  0  0  0  0  0  0  0  0  0
   -3.1873   -2.5755    0.8089 C   0  0  0  0  0  0  0  0  0  0  0  0
   -3.8793   -1.9065    1.3169 H   0  0  0  0  0  0  0  0  0  0  0  0
   -3.4623   -2.6685   -0.2401 H   0  0  0  0  0  0  0  0  0  0  0  0
   -1.7863   -2.0195    0.9119 C   0  0  0  0  0  0  0  0  0  0  0  0
   -0.9073   -2.6615    1.4699 O   0  0  0  0  0  0  0  0  0  0  0  0
   -1.5803   -0.8195    0.3749 N   0  0  0  0  0  0  0  0  0  0  0  0
   -2.3603   -0.3345   -0.0451 H   0  0  0  0  0  0  0  0  0  0  0  0
   -0.2933   -0.1205    0.3719 C   0  0  1  0  0  0  0  0  0  0  0  0
    0.4439   -0.7485   -0.1303 H   0  0  0  0  0  0  0  0  0  0  0  0
   -0.4368    1.1924   -0.4246 C   0  0  0  0  0  0  0  0  0  0  0  0
    0.2496    1.1516   -1.2721 H   0  0  0  0  0  0  0  0  0  0  0  0
   -1.4529    1.2677   -0.8144 H   0  0  0  0  0  0  0  0  0  0  0  0
   -0.1339    2.4569    0.3978 C   0  0  0  0  0  0  0  0  0  0  0  0
   -0.2633    3.3435   -0.2230 H   0  0  0  0  0  0  0  0  0  0  0  0
   -0.8217    2.5086    1.2410 H   0  0  0  0  0  0  0  0  0  0  0  0
    1.2892    2.4626    0.9466 C   0  0  0  0  0  0  0  0  0  0  0  0
    2.0722    1.5292    0.8724 O   0  0  0  0  0  0  0  0  0  0  0  0
    1.6686    3.5977    1.5624 O   0  0  0  0  0  0  0  0  0  0  0  0
    2.5671    3.4363    1.8555 H   0  0  0  0  0  0  0  0  0  0  0  0
    0.1871    0.1189    1.8122 C   0  0  0  0  0  0  0  0  0  0  0  0
    1.3541   -0.1171    2.1187 O   0  0  0  0  0  0  0  0  0  0  0  0
   -0.7126    0.5740    2.6926 N   0  0  0  0  0  0  0  0  0  0  0  0
   -1.6464    0.7663    2.3621 H   0  0  0  0  0  0  0  0  0  0  0  0
   -0.4191    0.8310    4.1010 C   0  0  0  0  0  0  0  0  0  0  0  0
    0.4022    1.5452    4.1828 H   0  0  0  0  0  0  0  0  0  0  0  0
   -1.2983    1.2366    4.6035 H   0  0  0  0  0  0  0  0  0  0  0  0
   -0.1204   -0.0980    4.5907 H   0  0  0  0  0  0  0  0  0  0  0  0
  5  6  2  0  0  0  0
  5  7  1  0  0  0  0
  2  3  1  0  0  0  0
  2  4  1  0  0  0  0
  2  5  1  0  0  0  0
  1  2  1  0  0  0  0
 21 22  2  0  0  0  0
 21 23  1  0  0  0  0
 19 20  1  0  0  0  0
 17 18  2  0  0  0  0
 17 19  1  0  0  0  0
 14 15  1  0  0  0  0
 14 16  1  0  0  0  0
 14 17  1  0  0  0  0
 11 12  1  0  0  0  0
 11 13  1  0  0  0  0
 11 14  1  0  0  0  0
  9 10  1  0  0  0  0
  9 11  1  0  0  0  0
  9 21  1  0  0  0  0
  7  8  1  0  0  0  0
  7  9  1  0  0  0  0
 25 26  1  0  0  0  0
 25 27  1  0  0  0  0
 25 28  1  0  0  0  0
 23 24  1  0  0  0  0
 23 25  1  0  0  0  0
M  END
$$$$
default_name
  -OEChem-02102213163D

 28 27  0     1  0  0  0  0  0999 V2000
   -3.2133   -3.5565    1.2809 H   0  0  0  0  0  0  0  0  0  0  0  0
   -3.1873   -2.5755    0.8089 C   0  0  0  0  0  0  0  0  0  0  0  0
   -3.8793   -1.9065    1.3169 H   0  0  0  0  0  0  0  0  0  0  0  0
   -3.4623   -2.6685   -0.2401 H   0  0  0  0  0  0  0  0  0  0  0  0
   -1.7863   -2.0195    0.9119 C   0  0  0  0  0  0  0  0  0  0  0  0
   -0.9073   -2.6615    1.4699 O   0  0  0  0  0  0  0  0  0  0  0  0
   -1.5803   -0.8195    0.3749 N   0  0  0  0  0  0  0  0  0  0  0  0
   -2.3603   -0.3345   -0.0451 H   0  0  0  0  0  0  0  0  0  0  0  0
   -0.2933   -0.1205    0.3719 C   0  0  1  0  0  0  0  0  0  0  0  0
    0.4439   -0.7485   -0.1303 H   0  0  0  0  0  0  0  0  0  0  0  0
   -0.4368    1.1924   -0.4246 C   0  0  0  0  0  0  0  0  0  0  0  0
    0.2496    1.1516   -1.2721 H   0  0  0  0  0  0  0  0  0  0  0  0
   -1.4529    1.2677   -0.8144 H   0  0  0  0  0  0  0  0  0  0  0  0
   -0.1339    2.4569    0.3978 C   0  0  0  0  0  0  0  0  0  0  0  0
   -0.5112    3.3374   -0.1224 H   0  0  0  0  0  0  0  0  0  0  0  0
   -0.6237    2.3787    1.3677 H   0  0  0  0  0  0  0  0  0  0  0  0
    1.3605    2.6476    0.6360 C   0  0  0  0  0  0  0  0  0  0  0  0
    2.2259    1.8398    0.3383 O   0  0  0  0  0  0  0  0  0  0  0  0
    1.7099    3.8026    1.2323 O   0  0  0  0  0  0  0  0  0  0  0  0
    2.6638    3.7616    1.3197 H   0  0  0  0  0  0  0  0  0  0  0  0
    0.1871    0.1189    1.8122 C   0  0  0  0  0  0  0  0  0  0  0  0
    1.3541   -0.1171    2.1187 O   0  0  0  0  0  0  0  0  0  0  0  0
   -0.7126    0.5740    2.6926 N   0  0  0  0  0  0  0  0  0  0  0  0
   -1.6464    0.7663    2.3621 H   0  0  0  0  0  0  0  0  0  0  0  0
   -0.4191    0.8310    4.1010 C   0  0  0  0  0  0  0  0  0  0  0  0
    0.4022    1.5452    4.1828 H   0  0  0  0  0  0  0  0  0  0  0  0
   -1.2983    1.2366    4.6035 H   0  0  0  0  0  0  0  0  0  0  0  0
   -0.1204   -0.0980    4.5907 H   0  0  0  0  0  0  0  0  0  0  0  0
  5  6  2  0  0  0  0
  5  7  1  0  0  0  0
  2  3  1  0  0  0  0
  2  4  1  0  0  0  0
  2  5  1  0  0  0  0
  1  2  1  0  0  0  0
 21 22  2  0  0  0  0
 21 23  1  0  0  0  0
 19 20  1  0  0  0  0
 17 18  2  0  0  0  0
 17 19  1  0  0  0  0
 14 15  1  0  0  0  0
 14 16  1  0  0  0  0
 14 17  1  0  0  0  0
 11 12  1  0  0  0  0
 11 13  1  0  0  0  0
 11 14  1  0  0  0  0
  9 10  1  0  0  0  0
  9 11  1  0  0  0  0
  9 21  1  0  0  0  0
  7  8  1  0  0  0  0
  7  9  1  0  0  0  0
 25 26  1  0  0  0  0
 25 27  1  0  0  0  0
 25 28  1  0  0  0  0
 23 24  1  0  0  0  0
 23 25  1  0  0  0  0
M  END
$$$$
default_name
  -OEChem-02102213163D

 28 27  0     1  0  0  0  0  0999 V2000
   -3.2133   -3.5565    1.2809 H   0  0  0  0  0  0  0  0  0  0  0  0
   -3.1873   -2.5755    0.8089 C   0  0  0  0  0  0  0  0  0  0  0  0
   -3.8793   -1.9065    1.3169 H   0  0  0  0  0  0  0  0  0  0  0  0
   -3.4623   -2.6685   -0.2401 H   0  0  0  0  0  0  0  0  0  0  0  0
   -1.7863   -2.0195    0.9119 C   0  0  0  0  0  0  0  0  0  0  0  0
   -0.9073   -2.6615    1.4699 O   0  0  0  0  0  0  0  0  0  0  0  0
   -1.5803   -0.8195    0.3749 N   0  0  0  0  0  0  0  0  0  0  0  0
   -2.3603   -0.3345   -0.0451 H   0  0  0  0  0  0  0  0  0  0  0  0
   -0.2933   -0.1205    0.3719 C   0  0  1  0  0  0  0  0  0  0  0  0
    0.4439   -0.7485   -0.1303 H   0  0  0  0  0  0  0  0  0  0  0  0
   -0.4368    1.1924   -0.4246 C   0  0  0  0  0  0  0  0  0  0  0  0
    0.2496    1.1516   -1.2721 H   0  0  0  0  0  0  0  0  0  0  0  0
   -1.4529    1.2677   -0.8144 H   0  0  0  0  0  0  0  0  0  0  0  0
   -0.1339    2.4569    0.3978 C   0  0  0  0  0  0  0  0  0  0  0  0
   -0.7283    3.2921    0.0272 H   0  0  0  0  0  0  0  0  0  0  0  0
   -0.3875    2.2742    1.4414 H   0  0  0  0  0  0  0  0  0  0  0  0
    1.3378    2.8519    0.3302 C   0  0  0  0  0  0  0  0  0  0  0  0
    2.2177    2.1883   -0.1944 O   0  0  0  0  0  0  0  0  0  0  0  0
    1.6513    4.0229    0.9151 O   0  0  0  0  0  0  0  0  0  0  0  0
    2.5983    4.1165    0.7982 H   0  0  0  0  0  0  0  0  0  0  0  0
    0.1871    0.1189    1.8122 C   0  0  0  0  0  0  0  0  0  0  0  0
    1.3541   -0.1171    2.1187 O   0  0  0  0  0  0  0  0  0  0  0  0
   -0.7126    0.5740    2.6926 N   0  0  0  0  0  0  0  0  0  0  0  0
   -1.6464    0.7663    2.3621 H   0  0  0  0  0  0  0  0  0  0  0  0
   -0.4191    0.8310    4.1010 C   0  0  0  0  0  0  0  0  0  0  0  0
    0.4022    1.5452    4.1828 H   0  0  0  0  0  0  0  0  0  0  0  0
   -1.2983    1.2366    4.6035 H   0  0  0  0  0  0  0  0  0  0  0  0
   -0.1204   -0.0980    4.5907 H   0  0  0  0  0  0  0  0  0  0  0  0
  5  6  2  0  0  0  0
  5  7  1  0  0  0  0
  2  3  1  0  0  0  0
  2  4  1  0  0  0  0
  2  5  1  0  0  0  0
  1  2  1  0  0  0  0
 21 22  2  0  0  0  0
 21 23  1  0  0  0  0
 19 20  1  0  0  0  0
 17 18  2  0  0  0  0
 17 19  1  0  0  0  0
 14 15  1  0  0  0  0
 14 16  1  0  0  0  0
 14 17  1  0  0  0  0
 11 12  1  0  0  0  0
 11 13  1  0  0  0  0
 11 14  1  0  0  0  0
  9 10  1  0  0  0  0
  9 11  1  0  0  0  0
  9 21  1  0  0  0  0
  7  8  1  0  0  0  0
  7  9  1  0  0  0  0
 25 26  1  0  0  0  0
 25 27  1  0  0  0  0
 25 28  1  0  0  0  0
 23 24  1  0  0  0  0
 23 25  1  0  0  0  0
M  END
$$$$
default_name
  -OEChem-02102213163D

 28 27  0     1  0  0  0  0  0999 V2000
   -3.2133   -3.5565    1.2809 H   0  0  0  0  0  0  0  0  0  0  0  0
   -3.1873   -2.5755    0.8089 C   0  0  0  0  0  0  0  0  0  0  0  0
   -3.8793   -1.9065    1.3169 H   0  0  0  0  0  0  0  0  0  0  0  0
   -3.4623   -2.6685   -0.2401 H   0  0  0  0  0  0  0  0  0  0  0  0
   -1.7863   -2.0195    0.9119 C   0  0  0  0  0  0  0  0  0  0  0  0
   -0.9073   -2.6615    1.4699 O   0  0  0  0  0  0  0  0  0  0  0  0
   -1.5803   -0.8195    0.3749 N   0  0  0  0  0  0  0  0  0  0  0  0
   -2.3603   -0.3345   -0.0451 H   0  0  0  0  0  0  0  0  0  0  0  0
   -0.2933   -0.1205    0.3719 C   0  0  1  0  0  0  0  0  0  0  0  0
    0.4439   -0.7485   -0.1303 H   0  0  0  0  0  0  0  0  0  0  0  0
   -0.4368    1.1924   -0.4246 C   0  0  0  0  0  0  0  0  0  0  0  0
    0.2496    1.1516   -1.2721 H   0  0  0  0  0  0  0  0  0  0  0  0
   -1.4529    1.2677   -0.8144 H   0  0  0  0  0  0  0  0  0  0  0  0
   -0.1339    2.4569    0.3978 C   0  0  0  0  0  0  0  0  0  0  0  0
   -0.9000    3.2107    0.2156 H   0  0  0  0  0  0  0  0  0  0  0  0
   -0.1292    2.2022    1.4570 H   0  0  0  0  0  0  0  0  0  0  0  0
    1.2225    3.0617    0.0501 C   0  0  0  0  0  0  0  0  0  0  0  0
    2.0482    2.5509   -0.6895 O   0  0  0  0  0  0  0  0  0  0  0  0
    1.4966    4.2438    0.6324 O   0  0  0  0  0  0  0  0  0  0  0  0
    2.3749    4.4769    0.3265 H   0  0  0  0  0  0  0  0  0  0  0  0
    0.1871    0.1189    1.8122 C   0  0  0  0  0  0  0  0  0  0  0  0
    1.3541   -0.1171    2.1187 O   0  0  0  0  0  0  0  0  0  0  0  0
   -0.7126    0.5740    2.6926 N   0  0  0  0  0  0  0  0  0  0  0  0
   -1.6464    0.7663    2.3621 H   0  0  0  0  0  0  0  0  0  0  0  0
   -0.4191    0.8310    4.1010 C   0  0  0  0  0  0  0  0  0  0  0  0
    0.4022    1.5452    4.1828 H   0  0  0  0  0  0  0  0  0  0  0  0
   -1.2983    1.2366    4.6035 H   0  0  0  0  0  0  0  0  0  0  0  0
   -0.1204   -0.0980    4.5907 H   0  0  0  0  0  0  0  0  0  0  0  0
  5  6  2  0  0  0  0
  5  7  1  0  0  0  0
  2  3  1  0  0  0  0
  2  4  1  0  0  0  0
  2  5  1  0  0  0  0
  1  2  1  0  0  0  0
 21 22  2  0  0  0  0
 21 23  1  0  0  0  0
 19 20  1  0  0  0  0
 17 18  2  0  0  0  0
 17 19  1  0  0  0  0
 14 15  1  0  0  0  0
 14 16  1  0  0  0  0
 14 17  1  0  0  0  0
 11 12  1  0  0  0  0
 11 13  1  0  0  0  0
 11 14  1  0  0  0  0
  9 10  1  0  0  0  0
  9 11  1  0  0  0  0
  9 21  1  0  0  0  0
  7  8  1  0  0  0  0
  7  9  1  0  0  0  0
 25 26  1  0  0  0  0
 25 27  1  0  0  0  0
 25 28  1  0  0  0  0
 23 24  1  0  0  0  0
 23 25  1  0  0  0  0
M  END
$$$$
default_name
  -OEChem-02102213163D

 28 27  0     1  0  0  0  0  0999 V2000
   -3.2133   -3.5565    1.2809 H   0  0  0  0  0  0  0  0  0  0  0  0
   -3.1873   -2.5755    0.8089 C   0  0  0  0  0  0  0  0  0  0  0  0
   -3.8793   -1.9065    1.3169 H   0  0  0  0  0  0  0  0  0  0  0  0
   -3.4623   -2.6685   -0.2401 H   0  0  0  0  0  0  0  0  0  0  0  0
   -1.7863   -2.0195    0.9119 C   0  0  0  0  0  0  0  0  0  0  0  0
   -0.9073   -2.6615    1.4699 O   0  0  0  0  0  0  0  0  0  0  0  0
   -1.5803   -0.8195    0.3749 N   0  0  0  0  0  0  0  0  0  0  0  0
   -2.3603   -0.3345   -0.0451 H   0  0  0  0  0  0  0  0  0  0  0  0
   -0.2933   -0.1205    0.3719 C   0  0  1  0  0  0  0  0  0  0  0  0
    0.4439   -0.7485   -0.1303 H   0  0  0  0  0  0  0  0  0  0  0  0
   -0.4368    1.1924   -0.4246 C   0  0  0  0  0  0  0  0  0  0  0  0
    0.2496    1.1516   -1.2721 H   0  0  0  0  0  0  0  0  0  0  0  0
   -1.4529    1.2677   -0.8144 H   0  0  0  0  0  0  0  0  0  0  0  0
   -0.1339    2.4569    0.3978 C   0  0  0  0  0  0  0  0  0  0  0  0
   -1.0144    3.0987    0.4299 H   0  0  0  0  0  0  0  0  0  0  0  0
    0.1336    2.1676    1.4134 H   0  0  0  0  0  0  0  0  0  0  0  0
    1.0225    3.2627   -0.1852 C   0  0  0  0  0  0  0  0  0  0  0  0
    1.7291    2.9029   -1.1132 O   0  0  0  0  0  0  0  0  0  0  0  0
    1.2566    4.4502    0.4035 O   0  0  0  0  0  0  0  0  0  0  0  0
    2.0090    4.8181   -0.0633 H   0  0  0  0  0  0  0  0  0  0  0  0
    0.1871    0.1189    1.8122 C   0  0  0  0  0  0  0  0  0  0  0  0
    1.3541   -0.1171    2.1187 O   0  0  0  0  0  0  0  0  0  0  0  0
   -0.7126    0.5740    2.6926 N   0  0  0  0  0  0  0  0  0  0  0  0
   -1.6464    0.7663    2.3621 H   0  0  0  0  0  0  0  0  0  0  0  0
   -0.4191    0.8310    4.1010 C   0  0  0  0  0  0  0  0  0  0  0  0
    0.4022    1.5452    4.1828 H   0  0  0  0  0  0  0  0  0  0  0  0
   -1.2983    1.2366    4.6035 H   0  0  0  0  0  0  0  0  0  0  0  0
   -0.1204   -0.0980    4.5907 H   0  0  0  0  0  0  0  0  0  0  0  0
  5  6  2  0  0  0  0
  5  7  1  0  0  0  0
  2  3  1  0  0  0  0
  2  4  1  0  0  0  0
  2  5  1  0  0  0  0
  1  2  1  0  0  0  0
 21 22  2  0  0  0  0
 21 23  1  0  0  0  0
 19 20  1  0  0  0  0
 17 18  2  0  0  0  0
 17 19  1  0  0  0  0
 14 15  1  0  0  0  0
 14 16  1  0  0  0  0
 14 17  1  0  0  0  0
 11 12  1  0  0  0  0
 11 13  1  0  0  0  0
 11 14  1  0  0  0  0
  9 10  1  0  0  0  0
  9 11  1  0  0  0  0
  9 21  1  0  0  0  0
  7  8  1  0  0  0  0
  7  9  1  0  0  0  0
 25 26  1  0  0  0  0
 25 27  1  0  0  0  0
 25 28  1  0  0  0  0
 23 24  1  0  0  0  0
 23 25  1  0  0  0  0
M  END
$$$$
default_name
  -OEChem-02102213163D

 28 27  0     1  0  0  0  0  0999 V2000
   -3.2133   -3.5565    1.2809 H   0  0  0  0  0  0  0  0  0  0  0  0
   -3.1873   -2.5755    0.8089 C   0  0  0  0  0  0  0  0  0  0  0  0
   -3.8793   -1.9065    1.3169 H   0  0  0  0  0  0  0  0  0  0  0  0
   -3.4623   -2.6685   -0.2401 H   0  0  0  0  0  0  0  0  0  0  0  0
   -1.7863   -2.0195    0.9119 C   0  0  0  0  0  0  0  0  0  0  0  0
   -0.9073   -2.6615    1.4699 O   0  0  0  0  0  0  0  0  0  0  0  0
   -1.5803   -0.8195    0.3749 N   0  0  0  0  0  0  0  0  0  0  0  0
   -2.3603   -0.3345   -0.0451 H   0  0  0  0  0  0  0  0  0  0  0  0
   -0.2933   -0.1205    0.3719 C   0  0  1  0  0  0  0  0  0  0  0  0
    0.4439   -0.7485   -0.1303 H   0  0  0  0  0  0  0  0  0  0  0  0
   -0.4368    1.1924   -0.4246 C   0  0  0  0  0  0  0  0  0  0  0  0
    0.2496    1.1516   -1.2721 H   0  0  0  0  0  0  0  0  0  0  0  0
   -1.4529    1.2677   -0.8144 H   0  0  0  0  0  0  0  0  0  0  0  0
   -0.1339    2.4569    0.3978 C   0  0  0  0  0  0  0  0  0  0  0  0
   -1.0639    2.9638    0.6556 H   0  0  0  0  0  0  0  0  0  0  0  0
    0.3830    2.1728    1.3137 H   0  0  0  0  0  0  0  0  0  0  0  0
    0.7514    3.4411   -0.3598 C   0  0  0  0  0  0  0  0  0  0  0  0
    1.2820    3.2204   -1.4366 O   0  0  0  0  0  0  0  0  0  0  0  0
    0.9475    4.6280    0.2439 O   0  0  0  0  0  0  0  0  0  0  0  0
    1.5254    5.1168   -0.3446 H   0  0  0  0  0  0  0  0  0  0  0  0
    0.1871    0.1189    1.8122 C   0  0  0  0  0  0  0  0  0  0  0  0
    1.3541   -0.1171    2.1187 O   0  0  0  0  0  0  0  0  0  0  0  0
   -0.7126    0.5740    2.6926 N   0  0  0  0  0  0  0  0  0  0  0  0
   -1.6464    0.7663    2.3621 H   0  0  0  0  0  0  0  0  0  0  0  0
   -0.4191    0.8310    4.1010 C   0  0  0  0  0  0  0  0  0  0  0  0
    0.4022    1.5452    4.1828 H   0  0  0  0  0  0  0  0  0  0  0  0
   -1.2983    1.2366    4.6035 H   0  0  0  0  0  0  0  0  0  0  0  0
   -0.1204   -0.0980    4.5907 H   0  0  0  0  0  0  0  0  0  0  0  0
  5  6  2  0  0  0  0
  5  7  1  0  0  0  0
  2  3  1  0  0  0  0
  2  4  1  0  0  0  0
  2  5  1  0  0  0  0
  1  2  1  0  0  0  0
 21 22  2  0  0  0  0
 21 23  1  0  0  0  0
 19 20  1  0  0  0  0
 17 18  2  0  0  0  0
 17 19  1  0  0  0  0
 14 15  1  0  0  0  0
 14 16  1  0  0  0  0
 14 17  1  0  0  0  0
 11 12  1  0  0  0  0
 11 13  1  0  0  0  0
 11 14  1  0  0  0  0
  9 10  1  0  0  0  0
  9 11  1  0  0  0  0
  9 21  1  0  0  0  0
  7  8  1  0  0  0  0
  7  9  1  0  0  0  0
 25 26  1  0  0  0  0
 25 27  1  0  0  0  0
 25 28  1  0  0  0  0
 23 24  1  0  0  0  0
 23 25  1  0  0  0  0
M  END
$$$$
default_name
  -OEChem-02102213163D

 28 27  0     1  0  0  0  0  0999 V2000
   -3.2133   -3.5565    1.2809 H   0  0  0  0  0  0  0  0  0  0  0  0
   -3.1873   -2.5755    0.8089 C   0  0  0  0  0  0  0  0  0  0  0  0
   -3.8793   -1.9065    1.3169 H   0  0  0  0  0  0  0  0  0  0  0  0
   -3.4623   -2.6685   -0.2401 H   0  0  0  0  0  0  0  0  0  0  0  0
   -1.7863   -2.0195    0.9119 C   0  0  0  0  0  0  0  0  0  0  0  0
   -0.9073   -2.6615    1.4699 O   0  0  0  0  0  0  0  0  0  0  0  0
   -1.5803   -0.8195    0.3749 N   0  0  0  0  0  0  0  0  0  0  0  0
   -2.3603   -0.3345   -0.0451 H   0  0  0  0  0  0  0  0  0  0  0  0
   -0.2933   -0.1205    0.3719 C   0  0  1  0  0  0  0  0  0  0  0  0
    0.4439   -0.7485   -0.1303 H   0  0  0  0  0  0  0  0  0  0  0  0
   -0.4368    1.1924   -0.4246 C   0  0  0  0  0  0  0  0  0  0  0  0
    0.2496    1.1516   -1.2721 H   0  0  0  0  0  0  0  0  0  0  0  0
   -1.4529    1.2677   -0.8144 H   0  0  0  0  0  0  0  0  0  0  0  0
   -0.1339    2.4569    0.3978 C   0  0  0  0  0  0  0  0  0  0  0  0
   -1.0451    2.8151    0.8772 H   0  0  0  0  0  0  0  0  0  0  0  0
    0.6019    2.2173    1.1646 H   0  0  0  0  0  0  0  0  0  0  0  0
    0.4278    3.5849   -0.4616 C   0  0  0  0  0  0  0  0  0  0  0  0
    0.7374    3.4816   -1.6378 O   0  0  0  0  0  0  0  0  0  0  0  0
    0.5903    4.7652    0.1647 O   0  0  0  0  0  0  0  0  0  0  0  0
    0.9571    5.3529   -0.4982 H   0  0  0  0  0  0  0  0  0  0  0  0
    0.1871    0.1189    1.8122 C   0  0  0  0  0  0  0  0  0  0  0  0
    1.3541   -0.1171    2.1187 O   0  0  0  0  0  0  0  0  0  0  0  0
   -0.7126    0.5740    2.6926 N   0  0  0  0  0  0  0  0  0  0  0  0
   -1.6464    0.7663    2.3621 H   0  0  0  0  0  0  0  0  0  0  0  0
   -0.4191    0.8310    4.1010 C   0  0  0  0  0  0  0  0  0  0  0  0
    0.4022    1.5452    4.1828 H   0  0  0  0  0  0  0  0  0  0  0  0
   -1.2983    1.2366    4.6035 H   0  0  0  0  0  0  0  0  0  0  0  0
   -0.1204   -0.0980    4.5907 H   0  0  0  0  0  0  0  0  0  0  0  0
  5  6  2  0  0  0  0
  5  7  1  0  0  0  0
  2  3  1  0  0  0  0
  2  4  1  0  0  0  0
  2  5  1  0  0  0  0
  1  2  1  0  0  0  0
 21 22  2  0  0  0  0
 21 23  1  0  0  0  0
 19 20  1  0  0  0  0
 17 18  2  0  0  0  0
 17 19  1  0  0  0  0
 14 15  1  0  0  0  0
 14 16  1  0  0  0  0
 14 17  1  0  0  0  0
 11 12  1  0  0  0  0
 11 13  1  0  0  0  0
 11 14  1  0  0  0  0
  9 10  1  0  0  0  0
  9 11  1  0  0  0  0
  9 21  1  0  0  0  0
  7  8  1  0  0  0  0
  7  9  1  0  0  0  0
 25 26  1  0  0  0  0
 25 27  1  0  0  0  0
 25 28  1  0  0  0  0
 23 24  1  0  0  0  0
 23 25  1  0  0  0  0
M  END
$$$$
default_name
  -OEChem-02102213163D

 28 27  0     1  0  0  0  0  0999 V2000
   -3.2133   -3.5565    1.2809 H   0  0  0  0  0  0  0  0  0  0  0  0
   -3.1873   -2.5755    0.8089 C   0  0  0  0  0  0  0  0  0  0  0  0
   -3.8793   -1.9065    1.3169 H   0  0  0  0  0  0  0  0  0  0  0  0
   -3.4623   -2.6685   -0.2401 H   0  0  0  0  0  0  0  0  0  0  0  0
   -1.7863   -2.0195    0.9119 C   0  0  0  0  0  0  0  0  0  0  0  0
   -0.9073   -2.6615    1.4699 O   0  0  0  0  0  0  0  0  0  0  0  0
   -1.5803   -0.8195    0.3749 N   0  0  0  0  0  0  0  0  0  0  0  0
   -2.3603   -0.3345   -0.0451 H   0  0  0  0  0  0  0  0  0  0  0  0
   -0.2933   -0.1205    0.3719 C   0  0  1  0  0  0  0  0  0  0  0  0
    0.4439   -0.7485   -0.1303 H   0  0  0  0  0  0  0  0  0  0  0  0
   -0.4368    1.1924   -0.4246 C   0  0  0  0  0  0  0  0  0  0  0  0
    0.2496    1.1516   -1.2721 H   0  0  0  0  0  0  0  0  0  0  0  0
   -1.4529    1.2677   -0.8144 H   0  0  0  0  0  0  0  0  0  0  0  0
   -0.1339    2.4569    0.3978 C   0  0  0  0  0  0  0  0  0  0  0  0
   -0.9591    2.6628    1.0797 H   0  0  0  0  0  0  0  0  0  0  0  0
    0.7755    2.2983    0.9763 H   0  0  0  0  0  0  0  0  0  0  0  0
    0.0737    3.6841   -0.4838 C   0  0  0  0  0  0  0  0  0  0  0  0
    0.1324    3.6689   -1.7029 O   0  0  0  0  0  0  0  0  0  0  0  0
    0.2095    4.8522    0.1710 O   0  0  0  0  0  0  0  0  0  0  0  0
    0.3428    5.5100   -0.5137 H   0  0  0  0  0  0  0  0  0  0  0  0
    0.1871    0.1189    1.8122 C   0  0  0  0  0  0  0  0  0  0  0  0
    1.3541   -0.1171    2.1187 O   0  0  0  0  0  0  0  0  0  0  0  0
   -0.7126    0.5740    2.6926 N   0  0  0  0  0  0  0  0  0  0  0  0
   -1.6464    0.7663    2.3621 H   0  0  0  0  0  0  0  0  0  0  0  0
   -0.4191    0.8310    4.1010 C   0  0  0  0  0  0  0  0  0  0  0  0
    0.4022    1.5452    4.1828 H   0  0  0  0  0  0  0  0  0  0  0  0
   -1.2983    1.2366    4.6035 H   0  0  0  0  0  0  0  0  0  0  0  0
   -0.1204   -0.0980    4.5907 H   0  0  0  0  0  0  0  0  0  0  0  0
  5  6  2  0  0  0  0
  5  7  1  0  0  0  0
  2  3  1  0  0  0  0
  2  4  1  0  0  0  0
  2  5  1  0  0  0  0
  1  2  1  0  0  0  0
 21 22  2  0  0  0  0
 21 23  1  0  0  0  0
 19 20  1  0  0  0  0
 17 18  2  0  0  0  0
 17 19  1  0  0  0  0
 14 15  1  0  0  0  0
 14 16  1  0  0  0  0
 14 17  1  0  0  0  0
 11 12  1  0  0  0  0
 11 13  1  0  0  0  0
 11 14  1  0  0  0  0
  9 10  1  0  0  0  0
  9 11  1  0  0  0  0
  9 21  1  0  0  0  0
  7  8  1  0  0  0  0
  7  9  1  0  0  0  0
 25 26  1  0  0  0  0
 25 27  1  0  0  0  0
 25 28  1  0  0  0  0
 23 24  1  0  0  0  0
 23 25  1  0  0  0  0
M  END
$$$$
default_name
  -OEChem-02102213163D

 28 27  0     1  0  0  0  0  0999 V2000
   -3.2133   -3.5565    1.2809 H   0  0  0  0  0  0  0  0  0  0  0  0
   -3.1873   -2.5755    0.8089 C   0  0  0  0  0  0  0  0  0  0  0  0
   -3.8793   -1.9065    1.3169 H   0  0  0  0  0  0  0  0  0  0  0  0
   -3.4623   -2.6685   -0.2401 H   0  0  0  0  0  0  0  0  0  0  0  0
   -1.7863   -2.0195    0.9119 C   0  0  0  0  0  0  0  0  0  0  0  0
   -0.9073   -2.6615    1.4699 O   0  0  0  0  0  0  0  0  0  0  0  0
   -1.5803   -0.8195    0.3749 N   0  0  0  0  0  0  0  0  0  0  0  0
   -2.3603   -0.3345   -0.0451 H   0  0  0  0  0  0  0  0  0  0  0  0
   -0.2933   -0.1205    0.3719 C   0  0  1  0  0  0  0  0  0  0  0  0
    0.4439   -0.7485   -0.1303 H   0  0  0  0  0  0  0  0  0  0  0  0
   -0.4368    1.1924   -0.4246 C   0  0  0  0  0  0  0  0  0  0  0  0
    0.0330    1.0507   -1.3995 H   0  0  0  0  0  0  0  0  0  0  0  0
   -1.4953    1.4020   -0.5854 H   0  0  0  0  0  0  0  0  0  0  0  0
    0.2040    2.4112    0.2617 C   0  0  0  0  0  0  0  0  0  0  0  0
   -0.2542    2.5712    1.2377 H   0  0  0  0  0  0  0  0  0  0  0  0
    1.2697    2.2282    0.3938 H   0  0  0  0  0  0  0  0  0  0  0  0
    0.0406    3.6879   -0.5568 C   0  0  0  0  0  0  0  0  0  0  0  0
   -0.4193    3.7418   -1.6861 O   0  0  0  0  0  0  0  0  0  0  0  0
    0.4579    4.8184    0.0427 O   0  0  0  0  0  0  0  0  0  0  0  0
    0.3010    5.5148   -0.5973 H   0  0  0  0  0  0  0  0  0  0  0  0
    0.1871    0.1189    1.8122 C   0  0  0  0  0  0  0  0  0  0  0  0
    1.3541   -0.1171    2.1187 O   0  0  0  0  0  0  0  0  0  0  0  0
   -0.7126    0.5740    2.6926 N   0  0  0  0  0  0  0  0  0  0  0  0
   -1.6464    0.7663    2.3621 H   0  0  0  0  0  0  0  0  0  0  0  0
   -0.4191    0.8310    4.1010 C   0  0  0  0  0  0  0  0  0  0  0  0
    0.4022    1.5452    4.1828 H   0  0  0  0  0  0  0  0  0  0  0  0
   -1.2983    1.2366    4.6035 H   0  0  0  0  0  0  0  0  0  0  0  0
   -0.1204   -0.0980    4.5907 H   0  0  0  0  0  0  0  0  0  0  0  0
  5  6  2  0  0  0  0
  5  7  1  0  0  0  0
  2  3  1  0  0  0  0
  2  4  1  0  0  0  0
  2  5  1  0  0  0  0
  1  2  1  0  0  0  0
 21 22  2  0  0  0  0
 21 23  1  0  0  0  0
 19 20  1  0  0  0  0
 17 18  2  0  0  0  0
 17 19  1  0  0  0  0
 14 15  1  0  0  0  0
 14 16  1  0  0  0  0
 14 17  1  0  0  0  0
 11 12  1  0  0  0  0
 11 13  1  0  0  0  0
 11 14  1  0  0  0  0
  9 10  1  0  0  0  0
  9 11  1  0  0  0  0
  9 21  1  0  0  0  0
  7  8  1  0  0  0  0
  7  9  1  0  0  0  0
 25 26  1  0  0  0  0
 25 27  1  0  0  0  0
 25 28  1  0  0  0  0
 23 24  1  0  0  0  0
 23 25  1  0  0  0  0
M  END
$$$$
default_name
  -OEChem-02102213163D

 28 27  0     1  0  0  0  0  0999 V2000
   -3.2133   -3.5565    1.2809 H   0  0  0  0  0  0  0  0  0  0  0  0
   -3.1873   -2.5755    0.8089 C   0  0  0  0  0  0  0  0  0  0  0  0
   -3.8793   -1.9065    1.3169 H   0  0  0  0  0  0  0  0  0  0  0  0
   -3.4623   -2.6685   -0.2401 H   0  0  0  0  0  0  0  0  0  0  0  0
   -1.7863   -2.0195    0.9119 C   0  0  0  0  0  0  0  0  0  0  0  0
   -0.9073   -2.6615    1.4699 O   0  0  0  0  0  0  0  0  0  0  0  0
   -1.5803   -0.8195    0.3749 N   0  0  0  0  0  0  0  0  0  0  0  0
   -2.3603   -0.3345   -0.0451 H   0  0  0  0  0  0  0  0  0  0  0  0
   -0.2933   -0.1205    0.3719 C   0  0  1  0  0  0  0  0  0  0  0  0
    0.4439   -0.7485   -0.1303 H   0  0  0  0  0  0  0  0  0  0  0  0
   -0.4368    1.1924   -0.4246 C   0  0  0  0  0  0  0  0  0  0  0  0
    0.0330    1.0507   -1.3995 H   0  0  0  0  0  0  0  0  0  0  0  0
   -1.4953    1.4020   -0.5854 H   0  0  0  0  0  0  0  0  0  0  0  0
    0.2040    2.4112    0.2617 C   0  0  0  0  0  0  0  0  0  0  0  0
   -0.0517    2.4177    1.3213 H   0  0  0  0  0  0  0  0  0  0  0  0
    1.2867    2.3529    0.1565 H   0  0  0  0  0  0  0  0  0  0  0  0
   -0.2608    3.7294   -0.3490 C   0  0  0  0  0  0  0  0  0  0  0  0
   -0.9521    3.8324   -1.3497 O   0  0  0  0  0  0  0  0  0  0  0  0
    0.1536    4.8410    0.2867 O   0  0  0  0  0  0  0  0  0  0  0  0
   -0.2067    5.5700   -0.2212 H   0  0  0  0  0  0  0  0  0  0  0  0
    0.1871    0.1189    1.8122 C   0  0  0  0  0  0  0  0  0  0  0  0
    1.3541   -0.1171    2.1187 O   0  0  0  0  0  0  0  0  0  0  0  0
   -0.7126    0.5740    2.6926 N   0  0  0  0  0  0  0  0  0  0  0  0
   -1.6464    0.7663    2.3621 H   0  0  0  0  0  0  0  0  0  0  0  0
   -0.4191    0.8310    4.1010 C   0  0  0  0  0  0  0  0  0  0  0  0
    0.4022    1.5452    4.1828 H   0  0  0  0  0  0  0  0  0  0  0  0
   -1.2983    1.2366    4.6035 H   0  0  0  0  0  0  0  0  0  0  0  0
   -0.1204   -0.0980    4.5907 H   0  0  0  0  0  0  0  0  0  0  0  0
  5  6  2  0  0  0  0
  5  7  1  0  0  0  0
  2  3  1  0  0  0  0
  2  4  1  0  0  0  0
  2  5  1  0  0  0  0
  1  2  1  0  0  0  0
 21 22  2  0  0  0  0
 21 23  1  0  0  0  0
 19 20  1  0  0  0  0
 17 18  2  0  0  0  0
 17 19  1  0  0  0  0
 14 15  1  0  0  0  0
 14 16  1  0  0  0  0
 14 17  1  0  0  0  0
 11 12  1  0  0  0  0
 11 13  1  0  0  0  0
 11 14  1  0  0  0  0
  9 10  1  0  0  0  0
  9 11  1  0  0  0  0
  9 21  1  0  0  0  0
  7  8  1  0  0  0  0
  7  9  1  0  0  0  0
 25 26  1  0  0  0  0
 25 27  1  0  0  0  0
 25 28  1  0  0  0  0
 23 24  1  0  0  0  0
 23 25  1  0  0  0  0
M  END
$$$$
default_name
  -OEChem-02102213163D

 28 27  0     1  0  0  0  0  0999 V2000
   -3.2133   -3.5565    1.2809 H   0  0  0  0  0  0  0  0  0  0  0  0
   -3.1873   -2.5755    0.8089 C   0  0  0  0  0  0  0  0  0  0  0  0
   -3.8793   -1.9065    1.3169 H   0  0  0  0  0  0  0  0  0  0  0  0
   -3.4623   -2.6685   -0.2401 H   0  0  0  0  0  0  0  0  0  0  0  0
   -1.7863   -2.0195    0.9119 C   0  0  0  0  0  0  0  0  0  0  0  0
   -0.9073   -2.6615    1.4699 O   0  0  0  0  0  0  0  0  0  0  0  0
   -1.5803   -0.8195    0.3749 N   0  0  0  0  0  0  0  0  0  0  0  0
   -2.3603   -0.3345   -0.0451 H   0  0  0  0  0  0  0  0  0  0  0  0
   -0.2933   -0.1205    0.3719 C   0  0  1  0  0  0  0  0  0  0  0  0
    0.4439   -0.7485   -0.1303 H   0  0  0  0  0  0  0  0  0  0  0  0
   -0.4368    1.1924   -0.4246 C   0  0  0  0  0  0  0  0  0  0  0  0
    0.0330    1.0507   -1.3995 H   0  0  0  0  0  0  0  0  0  0  0  0
   -1.4953    1.4020   -0.5854 H   0  0  0  0  0  0  0  0  0  0  0  0
    0.2040    2.4112    0.2617 C   0  0  0  0  0  0  0  0  0  0  0  0
    0.1788    2.2837    1.3440 H   0  0  0  0  0  0  0  0  0  0  0  0
    1.2401    2.5009   -0.0627 H   0  0  0  0  0  0  0  0  0  0  0  0
   -0.5141    3.7122   -0.0821 C   0  0  0  0  0  0  0  0  0  0  0  0
   -1.4083    3.8222   -0.9057 O   0  0  0  0  0  0  0  0  0  0  0  0
   -0.0929    4.8014    0.5872 O   0  0  0  0  0  0  0  0  0  0  0  0
   -0.6264    5.5241    0.2521 H   0  0  0  0  0  0  0  0  0  0  0  0
    0.1871    0.1189    1.8122 C   0  0  0  0  0  0  0  0  0  0  0  0
    1.3541   -0.1171    2.1187 O   0  0  0  0  0  0  0  0  0  0  0  0
   -0.7126    0.5740    2.6926 N   0  0  0  0  0  0  0  0  0  0  0  0
   -1.6464    0.7663    2.3621 H   0  0  0  0  0  0  0  0  0  0  0  0
   -0.4191    0.8310    4.1010 C   0  0  0  0  0  0  0  0  0  0  0  0
    0.4022    1.5452    4.1828 H   0  0  0  0  0  0  0  0  0  0  0  0
   -1.2983    1.2366    4.6035 H   0  0  0  0  0  0  0  0  0  0  0  0
   -0.1204   -0.0980    4.5907 H   0  0  0  0  0  0  0  0  0  0  0  0
  5  6  2  0  0  0  0
  5  7  1  0  0  0  0
  2  3  1  0  0  0  0
  2  4  1  0  0  0  0
  2  5  1  0  0  0  0
  1  2  1  0  0  0  0
 21 22  2  0  0  0  0
 21 23  1  0  0  0  0
 19 20  1  0  0  0  0
 17 18  2  0  0  0  0
 17 19  1  0  0  0  0
 14 15  1  0  0  0  0
 14 16  1  0  0  0  0
 14 17  1  0  0  0  0
 11 12  1  0  0  0  0
 11 13  1  0  0  0  0
 11 14  1  0  0  0  0
  9 10  1  0  0  0  0
  9 11  1  0  0  0  0
  9 21  1  0  0  0  0
  7  8  1  0  0  0  0
  7  9  1  0  0  0  0
 25 26  1  0  0  0  0
 25 27  1  0  0  0  0
 25 28  1  0  0  0  0
 23 24  1  0  0  0  0
 23 25  1  0  0  0  0
M  END
$$$$
default_name
  -OEChem-02102213163D

 28 27  0     1  0  0  0  0  0999 V2000
   -3.2133   -3.5565    1.2809 H   0  0  0  0  0  0  0  0  0  0  0  0
   -3.1873   -2.5755    0.8089 C   0  0  0  0  0  0  0  0  0  0  0  0
   -3.8793   -1.9065    1.3169 H   0  0  0  0  0  0  0  0  0  0  0  0
   -3.4623   -2.6685   -0.2401 H   0  0  0  0  0  0  0  0  0  0  0  0
   -1.7863   -2.0195    0.9119 C   0  0  0  0  0  0  0  0  0  0  0  0
   -0.9073   -2.6615    1.4699 O   0  0  0  0  0  0  0  0  0  0  0  0
   -1.5803   -0.8195    0.3749 N   0  0  0  0  0  0  0  0  0  0  0  0
   -2.3603   -0.3345   -0.0451 H   0  0  0  0  0  0  0  0  0  0  0  0
   -0.2933   -0.1205    0.3719 C   0  0  1  0  0  0  0  0  0  0  0  0
    0.4439   -0.7485   -0.1303 H   0  0  0  0  0  0  0  0  0  0  0  0
   -0.4368    1.1924   -0.4246 C   0  0  0  0  0  0  0  0  0  0  0  0
    0.0330    1.0507   -1.3995 H   0  0  0  0  0  0  0  0  0  0  0  0
   -1.4953    1.4020   -0.5854 H   0  0  0  0  0  0  0  0  0  0  0  0
    0.2040    2.4112    0.2617 C   0  0  0  0  0  0  0  0  0  0  0  0
    0.4216    2.1785    1.3041 H   0  0  0  0  0  0  0  0  0  0  0  0
    1.1330    2.6621   -0.2490 H   0  0  0  0  0  0  0  0  0  0  0  0
   -0.7022    3.6376    0.2259 C   0  0  0  0  0  0  0  0  0  0  0  0
   -1.7566    3.7118   -0.3844 O   0  0  0  0  0  0  0  0  0  0  0  0
   -0.2648    4.7022    0.9238 O   0  0  0  0  0  0  0  0  0  0  0  0
   -0.9294    5.3803    0.7904 H   0  0  0  0  0  0  0  0  0  0  0  0
    0.1871    0.1189    1.8122 C   0  0  0  0  0  0  0  0  0  0  0  0
    1.3541   -0.1171    2.1187 O   0  0  0  0  0  0  0  0  0  0  0  0
   -0.7126    0.5740    2.6926 N   0  0  0  0  0  0  0  0  0  0  0  0
   -1.6464    0.7663    2.3621 H   0  0  0  0  0  0  0  0  0  0  0  0
   -0.4191    0.8310    4.1010 C   0  0  0  0  0  0  0  0  0  0  0  0
    0.4022    1.5452    4.1828 H   0  0  0  0  0  0  0  0  0  0  0  0
   -1.2983    1.2366    4.6035 H   0  0  0  0  0  0  0  0  0  0  0  0
   -0.1204   -0.0980    4.5907 H   0  0  0  0  0  0  0  0  0  0  0  0
  5  6  2  0  0  0  0
  5  7  1  0  0  0  0
  2  3  1  0  0  0  0
  2  4  1  0  0  0  0
  2  5  1  0  0  0  0
  1  2  1  0  0  0  0
 21 22  2  0  0  0  0
 21 23  1  0  0  0  0
 19 20  1  0  0  0  0
 17 18  2  0  0  0  0
 17 19  1  0  0  0  0
 14 15  1  0  0  0  0
 14 16  1  0  0  0  0
 14 17  1  0  0  0  0
 11 12  1  0  0  0  0
 11 13  1  0  0  0  0
 11 14  1  0  0  0  0
  9 10  1  0  0  0  0
  9 11  1  0  0  0  0
  9 21  1  0  0  0  0
  7  8  1  0  0  0  0
  7  9  1  0  0  0  0
 25 26  1  0  0  0  0
 25 27  1  0  0  0  0
 25 28  1  0  0  0  0
 23 24  1  0  0  0  0
 23 25  1  0  0  0  0
M  END
$$$$
default_name
  -OEChem-02102213163D

 28 27  0     1  0  0  0  0  0999 V2000
   -3.2133   -3.5565    1.2809 H   0  0  0  0  0  0  0  0  0  0  0  0
   -3.1873   -2.5755    0.8089 C   0  0  0  0  0  0  0  0  0  0  0  0
   -3.8793   -1.9065    1.3169 H   0  0  0  0  0  0  0  0  0  0  0  0
   -3.4623   -2.6685   -0.2401 H   0  0  0  0  0  0  0  0  0  0  0  0
   -1.7863   -2.0195    0.9119 C   0  0  0  0  0  0  0  0  0  0  0  0
   -0.9073   -2.6615    1.4699 O   0  0  0  0  0  0  0  0  0  0  0  0
   -1.5803   -0.8195    0.3749 N   0  0  0  0  0  0  0  0  0  0  0  0
   -2.3603   -0.3345   -0.0451 H   0  0  0  0  0  0  0  0  0  0  0  0
   -0.2933   -0.1205    0.3719 C   0  0  1  0  0  0  0  0  0  0  0  0
    0.4439   -0.7485   -0.1303 H   0  0  0  0  0  0  0  0  0  0  0  0
   -0.4368    1.1924   -0.4246 C   0  0  0  0  0  0  0  0  0  0  0  0
    0.0330    1.0507   -1.3995 H   0  0  0  0  0  0  0  0  0  0  0  0
   -1.4953    1.4020   -0.5854 H   0  0  0  0  0  0  0  0  0  0  0  0
    0.2040    2.4112    0.2617 C   0  0  0  0  0  0  0  0  0  0  0  0
    0.6600    2.1092    1.2046 H   0  0  0  0  0  0  0  0  0  0  0  0
    0.9728    2.8255   -0.3896 H   0  0  0  0  0  0  0  0  0  0  0  0
   -0.8120    3.5107    0.5539 C   0  0  0  0  0  0  0  0  0  0  0  0
   -1.9735    3.5087    0.1787 O   0  0  0  0  0  0  0  0  0  0  0  0
   -0.3504    4.5504    1.2734 O   0  0  0  0  0  0  0  0  0  0  0  0
   -1.0951    5.1484    1.3570 H   0  0  0  0  0  0  0  0  0  0  0  0
    0.1871    0.1189    1.8122 C   0  0  0  0  0  0  0  0  0  0  0  0
    1.3541   -0.1171    2.1187 O   0  0  0  0  0  0  0  0  0  0  0  0
   -0.7126    0.5740    2.6926 N   0  0  0  0  0  0  0  0  0  0  0  0
   -1.6464    0.7663    2.3621 H   0  0  0  0  0  0  0  0  0  0  0  0
   -0.4191    0.8310    4.1010 C   0  0  0  0  0  0  0  0  0  0  0  0
    0.4022    1.5452    4.1828 H   0  0  0  0  0  0  0  0  0  0  0  0
   -1.2983    1.2366    4.6035 H   0  0  0  0  0  0  0  0  0  0  0  0
   -0.1204   -0.0980    4.5907 H   0  0  0  0  0  0  0  0  0  0  0  0
  5  6  2  0  0  0  0
  5  7  1  0  0  0  0
  2  3  1  0  0  0  0
  2  4  1  0  0  0  0
  2  5  1  0  0  0  0
  1  2  1  0  0  0  0
 21 22  2  0  0  0  0
 21 23  1  0  0  0  0
 19 20  1  0  0  0  0
 17 18  2  0  0  0  0
 17 19  1  0  0  0  0
 14 15  1  0  0  0  0
 14 16  1  0  0  0  0
 14 17  1  0  0  0  0
 11 12  1  0  0  0  0
 11 13  1  0  0  0  0
 11 14  1  0  0  0  0
  9 10  1  0  0  0  0
  9 11  1  0  0  0  0
  9 21  1  0  0  0  0
  7  8  1  0  0  0  0
  7  9  1  0  0  0  0
 25 26  1  0  0  0  0
 25 27  1  0  0  0  0
 25 28  1  0  0  0  0
 23 24  1  0  0  0  0
 23 25  1  0  0  0  0
M  END
$$$$
default_name
  -OEChem-02102213163D

 28 27  0     1  0  0  0  0  0999 V2000
   -3.2133   -3.5565    1.2809 H   0  0  0  0  0  0  0  0  0  0  0  0
   -3.1873   -2.5755    0.8089 C   0  0  0  0  0  0  0  0  0  0  0  0
   -3.8793   -1.9065    1.3169 H   0  0  0  0  0  0  0  0  0  0  0  0
   -3.4623   -2.6685   -0.2401 H   0  0  0  0  0  0  0  0  0  0  0  0
   -1.7863   -2.0195    0.9119 C   0  0  0  0  0  0  0  0  0  0  0  0
   -0.9073   -2.6615    1.4699 O   0  0  0  0  0  0  0  0  0  0  0  0
   -1.5803   -0.8195    0.3749 N   0  0  0  0  0  0  0  0  0  0  0  0
   -2.3603   -0.3345   -0.0451 H   0  0  0  0  0  0  0  0  0  0  0  0
   -0.2933   -0.1205    0.3719 C   0  0  1  0  0  0  0  0  0  0  0  0
    0.4439   -0.7485   -0.1303 H   0  0  0  0  0  0  0  0  0  0  0  0
   -0.4368    1.1924   -0.4246 C   0  0  0  0  0  0  0  0  0  0  0  0
    0.0330    1.0507   -1.3995 H   0  0  0  0  0  0  0  0  0  0  0  0
   -1.4953    1.4020   -0.5854 H   0  0  0  0  0  0  0  0  0  0  0  0
    0.2040    2.4112    0.2617 C   0  0  0  0  0  0  0  0  0  0  0  0
    0.8779    2.0805    1.0520 H   0  0  0  0  0  0  0  0  0  0  0  0
    0.7703    2.9800   -0.4749 H   0  0  0  0  0  0  0  0  0  0  0  0
   -0.8362    3.3400    0.8796 C   0  0  0  0  0  0  0  0  0  0  0  0
   -2.0441    3.2269    0.7452 O   0  0  0  0  0  0  0  0  0  0  0  0
   -0.3439    4.3561    1.6123 O   0  0  0  0  0  0  0  0  0  0  0  0
   -1.1123    4.8442    1.9132 H   0  0  0  0  0  0  0  0  0  0  0  0
    0.1871    0.1189    1.8122 C   0  0  0  0  0  0  0  0  0  0  0  0
    1.3541   -0.1171    2.1187 O   0  0  0  0  0  0  0  0  0  0  0  0
   -0.7126    0.5740    2.6926 N   0  0  0  0  0  0  0  0  0  0  0  0
   -1.6464    0.7663    2.3621 H   0  0  0  0  0  0  0  0  0  0  0  0
   -0.4191    0.8310    4.1010 C   0  0  0  0  0  0  0  0  0  0  0  0
    0.4022    1.5452    4.1828 H   0  0  0  0  0  0  0  0  0  0  0  0
   -1.2983    1.2366    4.6035 H   0  0  0  0  0  0  0  0  0  0  0  0
   -0.1204   -0.0980    4.5907 H   0  0  0  0  0  0  0  0  0  0  0  0
  5  6  2  0  0  0  0
  5  7  1  0  0  0  0
  2  3  1  0  0  0  0
  2  4  1  0  0  0  0
  2  5  1  0  0  0  0
  1  2  1  0  0  0  0
 21 22  2  0  0  0  0
 21 23  1  0  0  0  0
 19 20  1  0  0  0  0
 17 18  2  0  0  0  0
 17 19  1  0  0  0  0
 14 15  1  0  0  0  0
 14 16  1  0  0  0  0
 14 17  1  0  0  0  0
 11 12  1  0  0  0  0
 11 13  1  0  0  0  0
 11 14  1  0  0  0  0
  9 10  1  0  0  0  0
  9 11  1  0  0  0  0
  9 21  1  0  0  0  0
  7  8  1  0  0  0  0
  7  9  1  0  0  0  0
 25 26  1  0  0  0  0
 25 27  1  0  0  0  0
 25 28  1  0  0  0  0
 23 24  1  0  0  0  0
 23 25  1  0  0  0  0
M  END
$$$$
default_name
  -OEChem-02102213163D

 28 27  0     1  0  0  0  0  0999 V2000
   -3.2133   -3.5565    1.2809 H   0  0  0  0  0  0  0  0  0  0  0  0
   -3.1873   -2.5755    0.8089 C   0  0  0  0  0  0  0  0  0  0  0  0
   -3.8793   -1.9065    1.3169 H   0  0  0  0  0  0  0  0  0  0  0  0
   -3.4623   -2.6685   -0.2401 H   0  0  0  0  0  0  0  0  0  0  0  0
   -1.7863   -2.0195    0.9119 C   0  0  0  0  0  0  0  0  0  0  0  0
   -0.9073   -2.6615    1.4699 O   0  0  0  0  0  0  0  0  0  0  0  0
   -1.5803   -0.8195    0.3749 N   0  0  0  0  0  0  0  0  0  0  0  0
   -2.3603   -0.3345   -0.0451 H   0  0  0  0  0  0  0  0  0  0  0  0
   -0.2933   -0.1205    0.3719 C   0  0  1  0  0  0  0  0  0  0  0  0
    0.4439   -0.7485   -0.1303 H   0  0  0  0  0  0  0  0  0  0  0  0
   -0.4368    1.1924   -0.4246 C   0  0  0  0  0  0  0  0  0  0  0  0
    0.0330    1.0507   -1.3995 H   0  0  0  0  0  0  0  0  0  0  0  0
   -1.4953    1.4020   -0.5854 H   0  0  0  0  0  0  0  0  0  0  0  0
    0.2040    2.4112    0.2617 C   0  0  0  0  0  0  0  0  0  0  0  0
    1.0605    2.0944    0.8569 H   0  0  0  0  0  0  0  0  0  0  0  0
    0.5394    3.1151   -0.4992 H   0  0  0  0  0  0  0  0  0  0  0  0
   -0.7731    3.1373    1.1807 C   0  0  0  0  0  0  0  0  0  0  0  0
   -1.9635    2.8854    1.2764 O   0  0  0  0  0  0  0  0  0  0  0  0
   -0.2456    4.1327    1.9173 O   0  0  0  0  0  0  0  0  0  0  0  0
   -0.9797    4.4884    2.4213 H   0  0  0  0  0  0  0  0  0  0  0  0
    0.1871    0.1189    1.8122 C   0  0  0  0  0  0  0  0  0  0  0  0
    1.3541   -0.1171    2.1187 O   0  0  0  0  0  0  0  0  0  0  0  0
   -0.7126    0.5740    2.6926 N   0  0  0  0  0  0  0  0  0  0  0  0
   -1.6464    0.7663    2.3621 H   0  0  0  0  0  0  0  0  0  0  0  0
   -0.4191    0.8310    4.1010 C   0  0  0  0  0  0  0  0  0  0  0  0
    0.4022    1.5452    4.1828 H   0  0  0  0  0  0  0  0  0  0  0  0
   -1.2983    1.2366    4.6035 H   0  0  0  0  0  0  0  0  0  0  0  0
   -0.1204   -0.0980    4.5907 H   0  0  0  0  0  0  0  0  0  0  0  0
  5  6  2  0  0  0  0
  5  7  1  0  0  0  0
  2  3  1  0  0  0  0
  2  4  1  0  0  0  0
  2  5  1  0  0  0  0
  1  2  1  0  0  0  0
 21 22  2  0  0  0  0
 21 23  1  0  0  0  0
 19 20  1  0  0  0  0
 17 18  2  0  0  0  0
 17 19  1  0  0  0  0
 14 15  1  0  0  0  0
 14 16  1  0  0  0  0
 14 17  1  0  0  0  0
 11 12  1  0  0  0  0
 11 13  1  0  0  0  0
 11 14  1  0  0  0  0
  9 10  1  0  0  0  0
  9 11  1  0  0  0  0
  9 21  1  0  0  0  0
  7  8  1  0  0  0  0
  7  9  1  0  0  0  0
 25 26  1  0  0  0  0
 25 27  1  0  0  0  0
 25 28  1  0  0  0  0
 23 24  1  0  0  0  0
 23 25  1  0  0  0  0
M  END
$$$$
default_name
  -OEChem-02102213163D

 28 27  0     1  0  0  0  0  0999 V2000
   -3.2133   -3.5565    1.2809 H   0  0  0  0  0  0  0  0  0  0  0  0
   -3.1873   -2.5755    0.8089 C   0  0  0  0  0  0  0  0  0  0  0  0
   -3.8793   -1.9065    1.3169 H   0  0  0  0  0  0  0  0  0  0  0  0
   -3.4623   -2.6685   -0.2401 H   0  0  0  0  0  0  0  0  0  0  0  0
   -1.7863   -2.0195    0.9119 C   0  0  0  0  0  0  0  0  0  0  0  0
   -0.9073   -2.6615    1.4699 O   0  0  0  0  0  0  0  0  0  0  0  0
   -1.5803   -0.8195    0.3749 N   0  0  0  0  0  0  0  0  0  0  0  0
   -2.3603   -0.3345   -0.0451 H   0  0  0  0  0  0  0  0  0  0  0  0
   -0.2933   -0.1205    0.3719 C   0  0  1  0  0  0  0  0  0  0  0  0
    0.4439   -0.7485   -0.1303 H   0  0  0  0  0  0  0  0  0  0  0  0
   -0.4368    1.1924   -0.4246 C   0  0  0  0  0  0  0  0  0  0  0  0
    0.0330    1.0507   -1.3995 H   0  0  0  0  0  0  0  0  0  0  0  0
   -1.4953    1.4020   -0.5854 H   0  0  0  0  0  0  0  0  0  0  0  0
    0.2040    2.4112    0.2617 C   0  0  0  0  0  0  0  0  0  0  0  0
    1.1952    2.1500    0.6325 H   0  0  0  0  0  0  0  0  0  0  0  0
    0.2958    3.2215   -0.4607 H   0  0  0  0  0  0  0  0  0  0  0  0
   -0.6270    2.9163    1.4368 C   0  0  0  0  0  0  0  0  0  0  0  0
   -1.7374    2.5076    1.7362 O   0  0  0  0  0  0  0  0  0  0  0  0
   -0.0624    3.8953    2.1678 O   0  0  0  0  0  0  0  0  0  0  0  0
   -0.7063    4.1053    2.8464 H   0  0  0  0  0  0  0  0  0  0  0  0
    0.1871    0.1189    1.8122 C   0  0  0  0  0  0  0  0  0  0  0  0
    1.3541   -0.1171    2.1187 O   0  0  0  0  0  0  0  0  0  0  0  0
   -0.7126    0.5740    2.6926 N   0  0  0  0  0  0  0  0  0  0  0  0
   -1.6464    0.7663    2.3621 H   0  0  0  0  0  0  0  0  0  0  0  0
   -0.4191    0.8310    4.1010 C   0  0  0  0  0  0  0  0  0  0  0  0
    0.4022    1.5452    4.1828 H   0  0  0  0  0  0  0  0  0  0  0  0
   -1.2983    1.2366    4.6035 H   0  0  0  0  0  0  0  0  0  0  0  0
   -0.1204   -0.0980    4.5907 H   0  0  0  0  0  0  0  0  0  0  0  0
  5  6  2  0  0  0  0
  5  7  1  0  0  0  0
  2  3  1  0  0  0  0
  2  4  1  0  0  0  0
  2  5  1  0  0  0  0
  1  2  1  0  0  0  0
 21 22  2  0  0  0  0
 21 23  1  0  0  0  0
 19 20  1  0  0  0  0
 17 18  2  0  0  0  0
 17 19  1  0  0  0  0
 14 15  1  0  0  0  0
 14 16  1  0  0  0  0
 14 17  1  0  0  0  0
 11 12  1  0  0  0  0
 11 13  1  0  0  0  0
 11 14  1  0  0  0  0
  9 10  1  0  0  0  0
  9 11  1  0  0  0  0
  9 21  1  0  0  0  0
  7  8  1  0  0  0  0
  7  9  1  0  0  0  0
 25 26  1  0  0  0  0
 25 27  1  0  0  0  0
 25 28  1  0  0  0  0
 23 24  1  0  0  0  0
 23 25  1  0  0  0  0
M  END
$$$$
default_name
  -OEChem-02102213163D

 28 27  0     1  0  0  0  0  0999 V2000
   -3.2133   -3.5565    1.2809 H   0  0  0  0  0  0  0  0  0  0  0  0
   -3.1873   -2.5755    0.8089 C   0  0  0  0  0  0  0  0  0  0  0  0
   -3.8793   -1.9065    1.3169 H   0  0  0  0  0  0  0  0  0  0  0  0
   -3.4623   -2.6685   -0.2401 H   0  0  0  0  0  0  0  0  0  0  0  0
   -1.7863   -2.0195    0.9119 C   0  0  0  0  0  0  0  0  0  0  0  0
   -0.9073   -2.6615    1.4699 O   0  0  0  0  0  0  0  0  0  0  0  0
   -1.5803   -0.8195    0.3749 N   0  0  0  0  0  0  0  0  0  0  0  0
   -2.3603   -0.3345   -0.0451 H   0  0  0  0  0  0  0  0  0  0  0  0
   -0.2933   -0.1205    0.3719 C   0  0  1  0  0  0  0  0  0  0  0  0
    0.4439   -0.7485   -0.1303 H   0  0  0  0  0  0  0  0  0  0  0  0
   -0.4368    1.1924   -0.4246 C   0  0  0  0  0  0  0  0  0  0  0  0
    0.0330    1.0507   -1.3995 H   0  0  0  0  0  0  0  0  0  0  0  0
   -1.4953    1.4020   -0.5854 H   0  0  0  0  0  0  0  0  0  0  0  0
    0.2040    2.4112    0.2617 C   0  0  0  0  0  0  0  0  0  0  0  0
    1.2729    2.2433    0.3941 H   0  0  0  0  0  0  0  0  0  0  0  0
    0.0561    3.2920   -0.3621 H   0  0  0  0  0  0  0  0  0  0  0  0
   -0.4078    2.6921    1.6303 C   0  0  0  0  0  0  0  0  0  0  0  0
   -1.3811    2.1192    2.0933 O   0  0  0  0  0  0  0  0  0  0  0  0
    0.1933    3.6602    2.3466 O   0  0  0  0  0  0  0  0  0  0  0  0
   -0.3109    3.7210    3.1598 H   0  0  0  0  0  0  0  0  0  0  0  0
    0.1871    0.1189    1.8122 C   0  0  0  0  0  0  0  0  0  0  0  0
    1.3541   -0.1171    2.1187 O   0  0  0  0  0  0  0  0  0  0  0  0
   -0.7126    0.5740    2.6926 N   0  0  0  0  0  0  0  0  0  0  0  0
   -1.6464    0.7663    2.3621 H   0  0  0  0  0  0  0  0  0  0  0  0
   -0.4191    0.8310    4.1010 C   0  0  0  0  0  0  0  0  0  0  0  0
    0.4022    1.5452    4.1828 H   0  0  0  0  0  0  0  0  0  0  0  0
   -1.2983    1.2366    4.6035 H   0  0  0  0  0  0  0  0  0  0  0  0
   -0.1204   -0.0980    4.5907 H   0  0  0  0  0  0  0  0  0  0  0  0
  5  6  2  0  0  0  0
  5  7  1  0  0  0  0
  2  3  1  0  0  0  0
  2  4  1  0  0  0  0
  2  5  1  0  0  0  0
  1  2  1  0  0  0  0
 21 22  2  0  0  0  0
 21 23  1  0  0  0  0
 19 20  1  0  0  0  0
 17 18  2  0  0  0  0
 17 19  1  0  0  0  0
 14 15  1  0  0  0  0
 14 16  1  0  0  0  0
 14 17  1  0  0  0  0
 11 12  1  0  0  0  0
 11 13  1  0  0  0  0
 11 14  1  0  0  0  0
  9 10  1  0  0  0  0
  9 11  1  0  0  0  0
  9 21  1  0  0  0  0
  7  8  1  0  0  0  0
  7  9  1  0  0  0  0
 25 26  1  0  0  0  0
 25 27  1  0  0  0  0
 25 28  1  0  0  0  0
 23 24  1  0  0  0  0
 23 25  1  0  0  0  0
M  END
$$$$
default_name
  -OEChem-02102213163D

 28 27  0     1  0  0  0  0  0999 V2000
   -3.2133   -3.5565    1.2809 H   0  0  0  0  0  0  0  0  0  0  0  0
   -3.1873   -2.5755    0.8089 C   0  0  0  0  0  0  0  0  0  0  0  0
   -3.8793   -1.9065    1.3169 H   0  0  0  0  0  0  0  0  0  0  0  0
   -3.4623   -2.6685   -0.2401 H   0  0  0  0  0  0  0  0  0  0  0  0
   -1.7863   -2.0195    0.9119 C   0  0  0  0  0  0  0  0  0  0  0  0
   -0.9073   -2.6615    1.4699 O   0  0  0  0  0  0  0  0  0  0  0  0
   -1.5803   -0.8195    0.3749 N   0  0  0  0  0  0  0  0  0  0  0  0
   -2.3603   -0.3345   -0.0451 H   0  0  0  0  0  0  0  0  0  0  0  0
   -0.2933   -0.1205    0.3719 C   0  0  1  0  0  0  0  0  0  0  0  0
    0.4439   -0.7485   -0.1303 H   0  0  0  0  0  0  0  0  0  0  0  0
   -0.4368    1.1924   -0.4246 C   0  0  0  0  0  0  0  0  0  0  0  0
    0.0330    1.0507   -1.3995 H   0  0  0  0  0  0  0  0  0  0  0  0
   -1.4953    1.4020   -0.5854 H   0  0  0  0  0  0  0  0  0  0  0  0
    0.2040    2.4112    0.2617 C   0  0  0  0  0  0  0  0  0  0  0  0
    1.2883    2.3682    0.1580 H   0  0  0  0  0  0  0  0  0  0  0  0
   -0.1634    3.3218   -0.2101 H   0  0  0  0  0  0  0  0  0  0  0  0
   -0.1306    2.4799    1.7482 C   0  0  0  0  0  0  0  0  0  0  0  0
   -0.9189    1.7467    2.3233 O   0  0  0  0  0  0  0  0  0  0  0  0
    0.5041    3.4434    2.4415 O   0  0  0  0  0  0  0  0  0  0  0  0
    0.1796    3.3616    3.3400 H   0  0  0  0  0  0  0  0  0  0  0  0
    0.1871    0.1189    1.8122 C   0  0  0  0  0  0  0  0  0  0  0  0
    1.3541   -0.1171    2.1187 O   0  0  0  0  0  0  0  0  0  0  0  0
   -0.7126    0.5740    2.6926 N   0  0  0  0  0  0  0  0  0  0  0  0
   -1.6464    0.7663    2.3621 H   0  0  0  0  0  0  0  0  0  0  0  0
   -0.4191    0.8310    4.1010 C   0  0  0  0  0  0  0  0  0  0  0  0
    0.4022    1.5452    4.1828 H   0  0  0  0  0  0  0  0  0  0  0  0
   -1.2983    1.2366    4.6035 H   0  0  0  0  0  0  0  0  0  0  0  0
   -0.1204   -0.0980    4.5907 H   0  0  0  0  0  0  0  0  0  0  0  0
  5  6  2  0  0  0  0
  5  7  1  0  0  0  0
  2  3  1  0  0  0  0
  2  4  1  0  0  0  0
  2  5  1  0  0  0  0
  1  2  1  0  0  0  0
 21 22  2  0  0  0  0
 21 23  1  0  0  0  0
 19 20  1  0  0  0  0
 17 18  2  0  0  0  0
 17 19  1  0  0  0  0
 14 15  1  0  0  0  0
 14 16  1  0  0  0  0
 14 17  1  0  0  0  0
 11 12  1  0  0  0  0
 11 13  1  0  0  0  0
 11 14  1  0  0  0  0
  9 10  1  0  0  0  0
  9 11  1  0  0  0  0
  9 21  1  0  0  0  0
  7  8  1  0  0  0  0
  7  9  1  0  0  0  0
 25 26  1  0  0  0  0
 25 27  1  0  0  0  0
 25 28  1  0  0  0  0
 23 24  1  0  0  0  0
 23 25  1  0  0  0  0
M  END
$$$$
default_name
  -OEChem-02102213163D

 28 27  0     1  0  0  0  0  0999 V2000
   -3.2133   -3.5565    1.2809 H   0  0  0  0  0  0  0  0  0  0  0  0
   -3.1873   -2.5755    0.8089 C   0  0  0  0  0  0  0  0  0  0  0  0
   -3.8793   -1.9065    1.3169 H   0  0  0  0  0  0  0  0  0  0  0  0
   -3.4623   -2.6685   -0.2401 H   0  0  0  0  0  0  0  0  0  0  0  0
   -1.7863   -2.0195    0.9119 C   0  0  0  0  0  0  0  0  0  0  0  0
   -0.9073   -2.6615    1.4699 O   0  0  0  0  0  0  0  0  0  0  0  0
   -1.5803   -0.8195    0.3749 N   0  0  0  0  0  0  0  0  0  0  0  0
   -2.3603   -0.3345   -0.0451 H   0  0  0  0  0  0  0  0  0  0  0  0
   -0.2933   -0.1205    0.3719 C   0  0  1  0  0  0  0  0  0  0  0  0
    0.4439   -0.7485   -0.1303 H   0  0  0  0  0  0  0  0  0  0  0  0
   -0.4368    1.1924   -0.4246 C   0  0  0  0  0  0  0  0  0  0  0  0
    0.0330    1.0507   -1.3995 H   0  0  0  0  0  0  0  0  0  0  0  0
   -1.4953    1.4020   -0.5854 H   0  0  0  0  0  0  0  0  0  0  0  0
    0.2040    2.4112    0.2617 C   0  0  0  0  0  0  0  0  0  0  0  0
    1.2403    2.5160   -0.0597 H   0  0  0  0  0  0  0  0  0  0  0  0
   -0.3477    3.3089   -0.0151 H   0  0  0  0  0  0  0  0  0  0  0  0
    0.1859    2.2943    1.7824 C   0  0  0  0  0  0  0  0  0  0  0  0
   -0.3823    1.4155    2.4105 O   0  0  0  0  0  0  0  0  0  0  0  0
    0.8488    3.2596    2.4460 O   0  0  0  0  0  0  0  0  0  0  0  0
    0.7319    3.0517    3.3747 H   0  0  0  0  0  0  0  0  0  0  0  0
    0.1871    0.1189    1.8122 C   0  0  0  0  0  0  0  0  0  0  0  0
    1.3541   -0.1171    2.1187 O   0  0  0  0  0  0  0  0  0  0  0  0
   -0.7126    0.5740    2.6926 N   0  0  0  0  0  0  0  0  0  0  0  0
   -1.6464    0.7663    2.3621 H   0  0  0  0  0  0  0  0  0  0  0  0
   -0.4191    0.8310    4.1010 C   0  0  0  0  0  0  0  0  0  0  0  0
    0.4022    1.5452    4.1828 H   0  0  0  0  0  0  0  0  0  0  0  0
   -1.2983    1.2366    4.6035 H   0  0  0  0  0  0  0  0  0  0  0  0
   -0.1204   -0.0980    4.5907 H   0  0  0  0  0  0  0  0  0  0  0  0
  5  6  2  0  0  0  0
  5  7  1  0  0  0  0
  2  3  1  0  0  0  0
  2  4  1  0  0  0  0
  2  5  1  0  0  0  0
  1  2  1  0  0  0  0
 21 22  2  0  0  0  0
 21 23  1  0  0  0  0
 19 20  1  0  0  0  0
 17 18  2  0  0  0  0
 17 19  1  0  0  0  0
 14 15  1  0  0  0  0
 14 16  1  0  0  0  0
 14 17  1  0  0  0  0
 11 12  1  0  0  0  0
 11 13  1  0  0  0  0
 11 14  1  0  0  0  0
  9 10  1  0  0  0  0
  9 11  1  0  0  0  0
  9 21  1  0  0  0  0
  7  8  1  0  0  0  0
  7  9  1  0  0  0  0
 25 26  1  0  0  0  0
 25 27  1  0  0  0  0
 25 28  1  0  0  0  0
 23 24  1  0  0  0  0
 23 25  1  0  0  0  0
M  END
$$$$
default_name
  -OEChem-02102213163D

 28 27  0     1  0  0  0  0  0999 V2000
   -3.2133   -3.5565    1.2809 H   0  0  0  0  0  0  0  0  0  0  0  0
   -3.1873   -2.5755    0.8089 C   0  0  0  0  0  0  0  0  0  0  0  0
   -3.8793   -1.9065    1.3169 H   0  0  0  0  0  0  0  0  0  0  0  0
   -3.4623   -2.6685   -0.2401 H   0  0  0  0  0  0  0  0  0  0  0  0
   -1.7863   -2.0195    0.9119 C   0  0  0  0  0  0  0  0  0  0  0  0
   -0.9073   -2.6615    1.4699 O   0  0  0  0  0  0  0  0  0  0  0  0
   -1.5803   -0.8195    0.3749 N   0  0  0  0  0  0  0  0  0  0  0  0
   -2.3603   -0.3345   -0.0451 H   0  0  0  0  0  0  0  0  0  0  0  0
   -0.2933   -0.1205    0.3719 C   0  0  1  0  0  0  0  0  0  0  0  0
    0.4439   -0.7485   -0.1303 H   0  0  0  0  0  0  0  0  0  0  0  0
   -0.4368    1.1924   -0.4246 C   0  0  0  0  0  0  0  0  0  0  0  0
    0.0330    1.0507   -1.3995 H   0  0  0  0  0  0  0  0  0  0  0  0
   -1.4953    1.4020   -0.5854 H   0  0  0  0  0  0  0  0  0  0  0  0
    0.2040    2.4112    0.2617 C   0  0  0  0  0  0  0  0  0  0  0  0
    1.1323    2.6768   -0.2443 H   0  0  0  0  0  0  0  0  0  0  0  0
   -0.4842    3.2541    0.2096 H   0  0  0  0  0  0  0  0  0  0  0  0
    0.5200    2.1479    1.7304 C   0  0  0  0  0  0  0  0  0  0  0  0
    0.1922    1.1480    2.3490 O   0  0  0  0  0  0  0  0  0  0  0  0
    1.2039    3.1214    2.3599 O   0  0  0  0  0  0  0  0  0  0  0  0
    1.3083    2.8124    3.2615 H   0  0  0  0  0  0  0  0  0  0  0  0
    0.1871    0.1189    1.8122 C   0  0  0  0  0  0  0  0  0  0  0  0
    1.3541   -0.1171    2.1187 O   0  0  0  0  0  0  0  0  0  0  0  0
   -0.7126    0.5740    2.6926 N   0  0  0  0  0  0  0  0  0  0  0  0
   -1.6464    0.7663    2.3621 H   0  0  0  0  0  0  0  0  0  0  0  0
   -0.4191    0.8310    4.1010 C   0  0  0  0  0  0  0  0  0  0  0  0
    0.4022    1.5452    4.1828 H   0  0  0  0  0  0  0  0  0  0  0  0
   -1.2983    1.2366    4.6035 H   0  0  0  0  0  0  0  0  0  0  0  0
   -0.1204   -0.0980    4.5907 H   0  0  0  0  0  0  0  0  0  0  0  0
  5  6  2  0  0  0  0
  5  7  1  0  0  0  0
  2  3  1  0  0  0  0
  2  4  1  0  0  0  0
  2  5  1  0  0  0  0
  1  2  1  0  0  0  0
 21 22  2  0  0  0  0
 21 23  1  0  0  0  0
 19 20  1  0  0  0  0
 17 18  2  0  0  0  0
 17 19  1  0  0  0  0
 14 15  1  0  0  0  0
 14 16  1  0  0  0  0
 14 17  1  0  0  0  0
 11 12  1  0  0  0  0
 11 13  1  0  0  0  0
 11 14  1  0  0  0  0
  9 10  1  0  0  0  0
  9 11  1  0  0  0  0
  9 21  1  0  0  0  0
  7  8  1  0  0  0  0
  7  9  1  0  0  0  0
 25 26  1  0  0  0  0
 25 27  1  0  0  0  0
 25 28  1  0  0  0  0
 23 24  1  0  0  0  0
 23 25  1  0  0  0  0
M  END
$$$$
default_name
  -OEChem-02102213163D

 28 27  0     1  0  0  0  0  0999 V2000
   -3.2133   -3.5565    1.2809 H   0  0  0  0  0  0  0  0  0  0  0  0
   -3.1873   -2.5755    0.8089 C   0  0  0  0  0  0  0  0  0  0  0  0
   -3.8793   -1.9065    1.3169 H   0  0  0  0  0  0  0  0  0  0  0  0
   -3.4623   -2.6685   -0.2401 H   0  0  0  0  0  0  0  0  0  0  0  0
   -1.7863   -2.0195    0.9119 C   0  0  0  0  0  0  0  0  0  0  0  0
   -0.9073   -2.6615    1.4699 O   0  0  0  0  0  0  0  0  0  0  0  0
   -1.5803   -0.8195    0.3749 N   0  0  0  0  0  0  0  0  0  0  0  0
   -2.3603   -0.3345   -0.0451 H   0  0  0  0  0  0  0  0  0  0  0  0
   -0.2933   -0.1205    0.3719 C   0  0  1  0  0  0  0  0  0  0  0  0
    0.4439   -0.7485   -0.1303 H   0  0  0  0  0  0  0  0  0  0  0  0
   -0.4368    1.1924   -0.4246 C   0  0  0  0  0  0  0  0  0  0  0  0
    0.0330    1.0507   -1.3995 H   0  0  0  0  0  0  0  0  0  0  0  0
   -1.4953    1.4020   -0.5854 H   0  0  0  0  0  0  0  0  0  0  0  0
    0.2040    2.4112    0.2617 C   0  0  0  0  0  0  0  0  0  0  0  0
    0.9715    2.8395   -0.3831 H   0  0  0  0  0  0  0  0  0  0  0  0
   -0.5636    3.1612    0.4488 H   0  0  0  0  0  0  0  0  0  0  0  0
    0.8490    2.0506    1.5960 C   0  0  0  0  0  0  0  0  0  0  0  0
    0.7653    0.9627    2.1430 O   0  0  0  0  0  0  0  0  0  0  0  0
    1.5453    3.0381    2.1891 O   0  0  0  0  0  0  0  0  0  0  0  0
    1.8694    2.6599    3.0083 H   0  0  0  0  0  0  0  0  0  0  0  0
    0.1871    0.1189    1.8122 C   0  0  0  0  0  0  0  0  0  0  0  0
    1.3541   -0.1171    2.1187 O   0  0  0  0  0  0  0  0  0  0  0  0
   -0.7126    0.5740    2.6926 N   0  0  0  0  0  0  0  0  0  0  0  0
   -1.6464    0.7663    2.3621 H   0  0  0  0  0  0  0  0  0  0  0  0
   -0.4191    0.8310    4.1010 C   0  0  0  0  0  0  0  0  0  0  0  0
    0.4022    1.5452    4.1828 H   0  0  0  0  0  0  0  0  0  0  0  0
   -1.2983    1.2366    4.6035 H   0  0  0  0  0  0  0  0  0  0  0  0
   -0.1204   -0.0980    4.5907 H   0  0  0  0  0  0  0  0  0  0  0  0
  5  6  2  0  0  0  0
  5  7  1  0  0  0  0
  2  3  1  0  0  0  0
  2  4  1  0  0  0  0
  2  5  1  0  0  0  0
  1  2  1  0  0  0  0
 21 22  2  0  0  0  0
 21 23  1  0  0  0  0
 19 20  1  0  0  0  0
 17 18  2  0  0  0  0
 17 19  1  0  0  0  0
 14 15  1  0  0  0  0
 14 16  1  0  0  0  0
 14 17  1  0  0  0  0
 11 12  1  0  0  0  0
 11 13  1  0  0  0  0
 11 14  1  0  0  0  0
  9 10  1  0  0  0  0
  9 11  1  0  0  0  0
  9 21  1  0  0  0  0
  7  8  1  0  0  0  0
  7  9  1  0  0  0  0
 25 26  1  0  0  0  0
 25 27  1  0  0  0  0
 25 28  1  0  0  0  0
 23 24  1  0  0  0  0
 23 25  1  0  0  0  0
M  END
$$$$
default_name
  -OEChem-02102213163D

 28 27  0     1  0  0  0  0  0999 V2000
   -3.2133   -3.5565    1.2809 H   0  0  0  0  0  0  0  0  0  0  0  0
   -3.1873   -2.5755    0.8089 C   0  0  0  0  0  0  0  0  0  0  0  0
   -3.8793   -1.9065    1.3169 H   0  0  0  0  0  0  0  0  0  0  0  0
   -3.4623   -2.6685   -0.2401 H   0  0  0  0  0  0  0  0  0  0  0  0
   -1.7863   -2.0195    0.9119 C   0  0  0  0  0  0  0  0  0  0  0  0
   -0.9073   -2.6615    1.4699 O   0  0  0  0  0  0  0  0  0  0  0  0
   -1.5803   -0.8195    0.3749 N   0  0  0  0  0  0  0  0  0  0  0  0
   -2.3603   -0.3345   -0.0451 H   0  0  0  0  0  0  0  0  0  0  0  0
   -0.2933   -0.1205    0.3719 C   0  0  1  0  0  0  0  0  0  0  0  0
    0.4439   -0.7485   -0.1303 H   0  0  0  0  0  0  0  0  0  0  0  0
   -0.4368    1.1924   -0.4246 C   0  0  0  0  0  0  0  0  0  0  0  0
    0.0330    1.0507   -1.3995 H   0  0  0  0  0  0  0  0  0  0  0  0
   -1.4953    1.4020   -0.5854 H   0  0  0  0  0  0  0  0  0  0  0  0
    0.2040    2.4112    0.2617 C   0  0  0  0  0  0  0  0  0  0  0  0
    0.7690    2.9930   -0.4667 H   0  0  0  0  0  0  0  0  0  0  0  0
   -0.5806    3.0365    0.6861 H   0  0  0  0  0  0  0  0  0  0  0  0
    1.1504    2.0092    1.3882 C   0  0  0  0  0  0  0  0  0  0  0  0
    1.2981    0.8721    1.8066 O   0  0  0  0  0  0  0  0  0  0  0  0
    1.8496    3.0155    1.9451 O   0  0  0  0  0  0  0  0  0  0  0  0
    2.3772    2.6048    2.6322 H   0  0  0  0  0  0  0  0  0  0  0  0
    0.1871    0.1189    1.8122 C   0  0  0  0  0  0  0  0  0  0  0  0
    1.3541   -0.1171    2.1187 O   0  0  0  0  0  0  0  0  0  0  0  0
   -0.7126    0.5740    2.6926 N   0  0  0  0  0  0  0  0  0  0  0  0
   -1.6464    0.7663    2.3621 H   0  0  0  0  0  0  0  0  0  0  0  0
   -0.4191    0.8310    4.1010 C   0  0  0  0  0  0  0  0  0  0  0  0
    0.4022    1.5452    4.1828 H   0  0  0  0  0  0  0  0  0  0  0  0
   -1.2983    1.2366    4.6035 H   0  0  0  0  0  0  0  0  0  0  0  0
   -0.1204   -0.0980    4.5907 H   0  0  0  0  0  0  0  0  0  0  0  0
  5  6  2  0  0  0  0
  5  7  1  0  0  0  0
  2  3  1  0  0  0  0
  2  4  1  0  0  0  0
  2  5  1  0  0  0  0
  1  2  1  0  0  0  0
 21 22  2  0  0  0  0
 21 23  1  0  0  0  0
 19 20  1  0  0  0  0
 17 18  2  0  0  0  0
 17 19  1  0  0  0  0
 14 15  1  0  0  0  0
 14 16  1  0  0  0  0
 14 17  1  0  0  0  0
 11 12  1  0  0  0  0
 11 13  1  0  0  0  0
 11 14  1  0  0  0  0
  9 10  1  0  0  0  0
  9 11  1  0  0  0  0
  9 21  1  0  0  0  0
  7  8  1  0  0  0  0
  7  9  1  0  0  0  0
 25 26  1  0  0  0  0
 25 27  1  0  0  0  0
 25 28  1  0  0  0  0
 23 24  1  0  0  0  0
 23 25  1  0  0  0  0
M  END
$$$$
default_name
  -OEChem-02102213163D

 28 27  0     1  0  0  0  0  0999 V2000
   -3.2133   -3.5565    1.2809 H   0  0  0  0  0  0  0  0  0  0  0  0
   -3.1873   -2.5755    0.8089 C   0  0  0  0  0  0  0  0  0  0  0  0
   -3.8793   -1.9065    1.3169 H   0  0  0  0  0  0  0  0  0  0  0  0
   -3.4623   -2.6685   -0.2401 H   0  0  0  0  0  0  0  0  0  0  0  0
   -1.7863   -2.0195    0.9119 C   0  0  0  0  0  0  0  0  0  0  0  0
   -0.9073   -2.6615    1.4699 O   0  0  0  0  0  0  0  0  0  0  0  0
   -1.5803   -0.8195    0.3749 N   0  0  0  0  0  0  0  0  0  0  0  0
   -2.3603   -0.3345   -0.0451 H   0  0  0  0  0  0  0  0  0  0  0  0
   -0.2933   -0.1205    0.3719 C   0  0  1  0  0  0  0  0  0  0  0  0
    0.4439   -0.7485   -0.1303 H   0  0  0  0  0  0  0  0  0  0  0  0
   -0.4368    1.1924   -0.4246 C   0  0  0  0  0  0  0  0  0  0  0  0
    0.0330    1.0507   -1.3995 H   0  0  0  0  0  0  0  0  0  0  0  0
   -1.4953    1.4020   -0.5854 H   0  0  0  0  0  0  0  0  0  0  0  0
    0.2040    2.4112    0.2617 C   0  0  0  0  0  0  0  0  0  0  0  0
    0.5385    3.1270   -0.4894 H   0  0  0  0  0  0  0  0  0  0  0  0
   -0.5340    2.8885    0.9053 H   0  0  0  0  0  0  0  0  0  0  0  0
    1.4038    2.0263    1.1212 C   0  0  0  0  0  0  0  0  0  0  0  0
    1.7542    0.8823    1.3625 O   0  0  0  0  0  0  0  0  0  0  0  0
    2.0960    3.0552    1.6446 O   0  0  0  0  0  0  0  0  0  0  0  0
    2.7968    2.6507    2.1589 H   0  0  0  0  0  0  0  0  0  0  0  0
    0.1871    0.1189    1.8122 C   0  0  0  0  0  0  0  0  0  0  0  0
    1.3541   -0.1171    2.1187 O   0  0  0  0  0  0  0  0  0  0  0  0
   -0.7126    0.5740    2.6926 N   0  0  0  0  0  0  0  0  0  0  0  0
   -1.6464    0.7663    2.3621 H   0  0  0  0  0  0  0  0  0  0  0  0
   -0.4191    0.8310    4.1010 C   0  0  0  0  0  0  0  0  0  0  0  0
    0.4022    1.5452    4.1828 H   0  0  0  0  0  0  0  0  0  0  0  0
   -1.2983    1.2366    4.6035 H   0  0  0  0  0  0  0  0  0  0  0  0
   -0.1204   -0.0980    4.5907 H   0  0  0  0  0  0  0  0  0  0  0  0
  5  6  2  0  0  0  0
  5  7  1  0  0  0  0
  2  3  1  0  0  0  0
  2  4  1  0  0  0  0
  2  5  1  0  0  0  0
  1  2  1  0  0  0  0
 21 22  2  0  0  0  0
 21 23  1  0  0  0  0
 19 20  1  0  0  0  0
 17 18  2  0  0  0  0
 17 19  1  0  0  0  0
 14 15  1  0  0  0  0
 14 16  1  0  0  0  0
 14 17  1  0  0  0  0
 11 12  1  0  0  0  0
 11 13  1  0  0  0  0
 11 14  1  0  0  0  0
  9 10  1  0  0  0  0
  9 11  1  0  0  0  0
  9 21  1  0  0  0  0
  7  8  1  0  0  0  0
  7  9  1  0  0  0  0
 25 26  1  0  0  0  0
 25 27  1  0  0  0  0
 25 28  1  0  0  0  0
 23 24  1  0  0  0  0
 23 25  1  0  0  0  0
M  END
$$$$
default_name
  -OEChem-02102213163D

 28 27  0     1  0  0  0  0  0999 V2000
   -3.2133   -3.5565    1.2809 H   0  0  0  0  0  0  0  0  0  0  0  0
   -3.1873   -2.5755    0.8089 C   0  0  0  0  0  0  0  0  0  0  0  0
   -3.8793   -1.9065    1.3169 H   0  0  0  0  0  0  0  0  0  0  0  0
   -3.4623   -2.6685   -0.2401 H   0  0  0  0  0  0  0  0  0  0  0  0
   -1.7863   -2.0195    0.9119 C   0  0  0  0  0  0  0  0  0  0  0  0
   -0.9073   -2.6615    1.4699 O   0  0  0  0  0  0  0  0  0  0  0  0
   -1.5803   -0.8195    0.3749 N   0  0  0  0  0  0  0  0  0  0  0  0
   -2.3603   -0.3345   -0.0451 H   0  0  0  0  0  0  0  0  0  0  0  0
   -0.2933   -0.1205    0.3719 C   0  0  1  0  0  0  0  0  0  0  0  0
    0.4439   -0.7485   -0.1303 H   0  0  0  0  0  0  0  0  0  0  0  0
   -0.4368    1.1924   -0.4246 C   0  0  0  0  0  0  0  0  0  0  0  0
    0.0330    1.0507   -1.3995 H   0  0  0  0  0  0  0  0  0  0  0  0
   -1.4953    1.4020   -0.5854 H   0  0  0  0  0  0  0  0  0  0  0  0
    0.2040    2.4112    0.2617 C   0  0  0  0  0  0  0  0  0  0  0  0
    0.2957    3.2322   -0.4496 H   0  0  0  0  0  0  0  0  0  0  0  0
   -0.4269    2.7273    1.0916 H   0  0  0  0  0  0  0  0  0  0  0  0
    1.5918    2.1009    0.8132 C   0  0  0  0  0  0  0  0  0  0  0  0
    2.1026    0.9927    0.8412 O   0  0  0  0  0  0  0  0  0  0  0  0
    2.2680    3.1543    1.3080 O   0  0  0  0  0  0  0  0  0  0  0  0
    3.0999    2.7944    1.6206 H   0  0  0  0  0  0  0  0  0  0  0  0
    0.1871    0.1189    1.8122 C   0  0  0  0  0  0  0  0  0  0  0  0
    1.3541   -0.1171    2.1187 O   0  0  0  0  0  0  0  0  0  0  0  0
   -0.7126    0.5740    2.6926 N   0  0  0  0  0  0  0  0  0  0  0  0
   -1.6464    0.7663    2.3621 H   0  0  0  0  0  0  0  0  0  0  0  0
   -0.4191    0.8310    4.1010 C   0  0  0  0  0  0  0  0  0  0  0  0
    0.4022    1.5452    4.1828 H   0  0  0  0  0  0  0  0  0  0  0  0
   -1.2983    1.2366    4.6035 H   0  0  0  0  0  0  0  0  0  0  0  0
   -0.1204   -0.0980    4.5907 H   0  0  0  0  0  0  0  0  0  0  0  0
  5  6  2  0  0  0  0
  5  7  1  0  0  0  0
  2  3  1  0  0  0  0
  2  4  1  0  0  0  0
  2  5  1  0  0  0  0
  1  2  1  0  0  0  0
 21 22  2  0  0  0  0
 21 23  1  0  0  0  0
 19 20  1  0  0  0  0
 17 18  2  0  0  0  0
 17 19  1  0  0  0  0
 14 15  1  0  0  0  0
 14 16  1  0  0  0  0
 14 17  1  0  0  0  0
 11 12  1  0  0  0  0
 11 13  1  0  0  0  0
 11 14  1  0  0  0  0
  9 10  1  0  0  0  0
  9 11  1  0  0  0  0
  9 21  1  0  0  0  0
  7  8  1  0  0  0  0
  7  9  1  0  0  0  0
 25 26  1  0  0  0  0
 25 27  1  0  0  0  0
 25 28  1  0  0  0  0
 23 24  1  0  0  0  0
 23 25  1  0  0  0  0
M  END
$$$$
default_name
  -OEChem-02102213163D

 28 27  0     1  0  0  0  0  0999 V2000
   -3.2133   -3.5565    1.2809 H   0  0  0  0  0  0  0  0  0  0  0  0
   -3.1873   -2.5755    0.8089 C   0  0  0  0  0  0  0  0  0  0  0  0
   -3.8793   -1.9065    1.3169 H   0  0  0  0  0  0  0  0  0  0  0  0
   -3.4623   -2.6685   -0.2401 H   0  0  0  0  0  0  0  0  0  0  0  0
   -1.7863   -2.0195    0.9119 C   0  0  0  0  0  0  0  0  0  0  0  0
   -0.9073   -2.6615    1.4699 O   0  0  0  0  0  0  0  0  0  0  0  0
   -1.5803   -0.8195    0.3749 N   0  0  0  0  0  0  0  0  0  0  0  0
   -2.3603   -0.3345   -0.0451 H   0  0  0  0  0  0  0  0  0  0  0  0
   -0.2933   -0.1205    0.3719 C   0  0  1  0  0  0  0  0  0  0  0  0
    0.4439   -0.7485   -0.1303 H   0  0  0  0  0  0  0  0  0  0  0  0
   -0.4368    1.1924   -0.4246 C   0  0  0  0  0  0  0  0  0  0  0  0
    0.0330    1.0507   -1.3995 H   0  0  0  0  0  0  0  0  0  0  0  0
   -1.4953    1.4020   -0.5854 H   0  0  0  0  0  0  0  0  0  0  0  0
    0.2040    2.4112    0.2617 C   0  0  0  0  0  0  0  0  0  0  0  0
    0.0573    3.3015   -0.3500 H   0  0  0  0  0  0  0  0  0  0  0  0
   -0.2667    2.5639    1.2322 H   0  0  0  0  0  0  0  0  0  0  0  0
    1.7016    2.2278    0.4852 C   0  0  0  0  0  0  0  0  0  0  0  0
    2.3195    1.1957    0.2782 O   0  0  0  0  0  0  0  0  0  0  0  0
    2.3536    3.3061    0.9584 O   0  0  0  0  0  0  0  0  0  0  0  0
    3.2656    3.0264    1.0540 H   0  0  0  0  0  0  0  0  0  0  0  0
    0.1871    0.1189    1.8122 C   0  0  0  0  0  0  0  0  0  0  0  0
    1.3541   -0.1171    2.1187 O   0  0  0  0  0  0  0  0  0  0  0  0
   -0.7126    0.5740    2.6926 N   0  0  0  0  0  0  0  0  0  0  0  0
   -1.6464    0.7663    2.3621 H   0  0  0  0  0  0  0  0  0  0  0  0
   -0.4191    0.8310    4.1010 C   0  0  0  0  0  0  0  0  0  0  0  0
    0.4022    1.5452    4.1828 H   0  0  0  0  0  0  0  0  0  0  0  0
   -1.2983    1.2366    4.6035 H   0  0  0  0  0  0  0  0  0  0  0  0
   -0.1204   -0.0980    4.5907 H   0  0  0  0  0  0  0  0  0  0  0  0
  5  6  2  0  0  0  0
  5  7  1  0  0  0  0
  2  3  1  0  0  0  0
  2  4  1  0  0  0  0
  2  5  1  0  0  0  0
  1  2  1  0  0  0  0
 21 22  2  0  0  0  0
 21 23  1  0  0  0  0
 19 20  1  0  0  0  0
 17 18  2  0  0  0  0
 17 19  1  0  0  0  0
 14 15  1  0  0  0  0
 14 16  1  0  0  0  0
 14 17  1  0  0  0  0
 11 12  1  0  0  0  0
 11 13  1  0  0  0  0
 11 14  1  0  0  0  0
  9 10  1  0  0  0  0
  9 11  1  0  0  0  0
  9 21  1  0  0  0  0
  7  8  1  0  0  0  0
  7  9  1  0  0  0  0
 25 26  1  0  0  0  0
 25 27  1  0  0  0  0
 25 28  1  0  0  0  0
 23 24  1  0  0  0  0
 23 25  1  0  0  0  0
M  END
$$$$
default_name
  -OEChem-02102213163D

 28 27  0     1  0  0  0  0  0999 V2000
   -3.2133   -3.5565    1.2809 H   0  0  0  0  0  0  0  0  0  0  0  0
   -3.1873   -2.5755    0.8089 C   0  0  0  0  0  0  0  0  0  0  0  0
   -3.8793   -1.9065    1.3169 H   0  0  0  0  0  0  0  0  0  0  0  0
   -3.4623   -2.6685   -0.2401 H   0  0  0  0  0  0  0  0  0  0  0  0
   -1.7863   -2.0195    0.9119 C   0  0  0  0  0  0  0  0  0  0  0  0
   -0.9073   -2.6615    1.4699 O   0  0  0  0  0  0  0  0  0  0  0  0
   -1.5803   -0.8195    0.3749 N   0  0  0  0  0  0  0  0  0  0  0  0
   -2.3603   -0.3345   -0.0451 H   0  0  0  0  0  0  0  0  0  0  0  0
   -0.2933   -0.1205    0.3719 C   0  0  1  0  0  0  0  0  0  0  0  0
    0.4439   -0.7485   -0.1303 H   0  0  0  0  0  0  0  0  0  0  0  0
   -0.4368    1.1924   -0.4246 C   0  0  0  0  0  0  0  0  0  0  0  0
    0.0330    1.0507   -1.3995 H   0  0  0  0  0  0  0  0  0  0  0  0
   -1.4953    1.4020   -0.5854 H   0  0  0  0  0  0  0  0  0  0  0  0
    0.2040    2.4112    0.2617 C   0  0  0  0  0  0  0  0  0  0  0  0
   -0.1607    3.3302   -0.1975 H   0  0  0  0  0  0  0  0  0  0  0  0
   -0.0642    2.4094    1.3175 H   0  0  0  0  0  0  0  0  0  0  0  0
    1.7258    2.3985    0.1596 C   0  0  0  0  0  0  0  0  0  0  0  0
    2.3900    1.4776   -0.2883 O   0  0  0  0  0  0  0  0  0  0  0  0
    2.3470    3.5004    0.6195 O   0  0  0  0  0  0  0  0  0  0  0  0
    3.2828    3.3306    0.4978 H   0  0  0  0  0  0  0  0  0  0  0  0
    0.1871    0.1189    1.8122 C   0  0  0  0  0  0  0  0  0  0  0  0
    1.3541   -0.1171    2.1187 O   0  0  0  0  0  0  0  0  0  0  0  0
   -0.7126    0.5740    2.6926 N   0  0  0  0  0  0  0  0  0  0  0  0
   -1.6464    0.7663    2.3621 H   0  0  0  0  0  0  0  0  0  0  0  0
   -0.4191    0.8310    4.1010 C   0  0  0  0  0  0  0  0  0  0  0  0
    0.4022    1.5452    4.1828 H   0  0  0  0  0  0  0  0  0  0  0  0
   -1.2983    1.2366    4.6035 H   0  0  0  0  0  0  0  0  0  0  0  0
   -0.1204   -0.0980    4.5907 H   0  0  0  0  0  0  0  0  0  0  0  0
  5  6  2  0  0  0  0
  5  7  1  0  0  0  0
  2  3  1  0  0  0  0
  2  4  1  0  0  0  0
  2  5  1  0  0  0  0
  1  2  1  0  0  0  0
 21 22  2  0  0  0  0
 21 23  1  0  0  0  0
 19 20  1  0  0  0  0
 17 18  2  0  0  0  0
 17 19  1  0  0  0  0
 14 15  1  0  0  0  0
 14 16  1  0  0  0  0
 14 17  1  0  0  0  0
 11 12  1  0  0  0  0
 11 13  1  0  0  0  0
 11 14  1  0  0  0  0
  9 10  1  0  0  0  0
  9 11  1  0  0  0  0
  9 21  1  0  0  0  0
  7  8  1  0  0  0  0
  7  9  1  0  0  0  0
 25 26  1  0  0  0  0
 25 27  1  0  0  0  0
 25 28  1  0  0  0  0
 23 24  1  0  0  0  0
 23 25  1  0  0  0  0
M  END
$$$$
default_name
  -OEChem-02102213163D

 28 27  0     1  0  0  0  0  0999 V2000
   -3.2133   -3.5565    1.2809 H   0  0  0  0  0  0  0  0  0  0  0  0
   -3.1873   -2.5755    0.8089 C   0  0  0  0  0  0  0  0  0  0  0  0
   -3.8793   -1.9065    1.3169 H   0  0  0  0  0  0  0  0  0  0  0  0
   -3.4623   -2.6685   -0.2401 H   0  0  0  0  0  0  0  0  0  0  0  0
   -1.7863   -2.0195    0.9119 C   0  0  0  0  0  0  0  0  0  0  0  0
   -0.9073   -2.6615    1.4699 O   0  0  0  0  0  0  0  0  0  0  0  0
   -1.5803   -0.8195    0.3749 N   0  0  0  0  0  0  0  0  0  0  0  0
   -2.3603   -0.3345   -0.0451 H   0  0  0  0  0  0  0  0  0  0  0  0
   -0.2933   -0.1205    0.3719 C   0  0  1  0  0  0  0  0  0  0  0  0
    0.4439   -0.7485   -0.1303 H   0  0  0  0  0  0  0  0  0  0  0  0
   -0.4368    1.1924   -0.4246 C   0  0  0  0  0  0  0  0  0  0  0  0
    0.0330    1.0507   -1.3995 H   0  0  0  0  0  0  0  0  0  0  0  0
   -1.4953    1.4020   -0.5854 H   0  0  0  0  0  0  0  0  0  0  0  0
    0.2040    2.4112    0.2617 C   0  0  0  0  0  0  0  0  0  0  0  0
   -0.3432    3.3163   -0.0024 H   0  0  0  0  0  0  0  0  0  0  0  0
    0.1667    2.2743    1.3418 H   0  0  0  0  0  0  0  0  0  0  0  0
    1.6627    2.6012   -0.1415 C   0  0  0  0  0  0  0  0  0  0  0  0
    2.3095    1.8191   -0.8195 O   0  0  0  0  0  0  0  0  0  0  0  0
    2.2488    3.7238    0.3145 O   0  0  0  0  0  0  0  0  0  0  0  0
    3.1502    3.6864   -0.0102 H   0  0  0  0  0  0  0  0  0  0  0  0
    0.1871    0.1189    1.8122 C   0  0  0  0  0  0  0  0  0  0  0  0
    1.3541   -0.1171    2.1187 O   0  0  0  0  0  0  0  0  0  0  0  0
   -0.7126    0.5740    2.6926 N   0  0  0  0  0  0  0  0  0  0  0  0
   -1.6464    0.7663    2.3621 H   0  0  0  0  0  0  0  0  0  0  0  0
   -0.4191    0.8310    4.1010 C   0  0  0  0  0  0  0  0  0  0  0  0
    0.4022    1.5452    4.1828 H   0  0  0  0  0  0  0  0  0  0  0  0
   -1.2983    1.2366    4.6035 H   0  0  0  0  0  0  0  0  0  0  0  0
   -0.1204   -0.0980    4.5907 H   0  0  0  0  0  0  0  0  0  0  0  0
  5  6  2  0  0  0  0
  5  7  1  0  0  0  0
  2  3  1  0  0  0  0
  2  4  1  0  0  0  0
  2  5  1  0  0  0  0
  1  2  1  0  0  0  0
 21 22  2  0  0  0  0
 21 23  1  0  0  0  0
 19 20  1  0  0  0  0
 17 18  2  0  0  0  0
 17 19  1  0  0  0  0
 14 15  1  0  0  0  0
 14 16  1  0  0  0  0
 14 17  1  0  0  0  0
 11 12  1  0  0  0  0
 11 13  1  0  0  0  0
 11 14  1  0  0  0  0
  9 10  1  0  0  0  0
  9 11  1  0  0  0  0
  9 21  1  0  0  0  0
  7  8  1  0  0  0  0
  7  9  1  0  0  0  0
 25 26  1  0  0  0  0
 25 27  1  0  0  0  0
 25 28  1  0  0  0  0
 23 24  1  0  0  0  0
 23 25  1  0  0  0  0
M  END
$$$$
default_name
  -OEChem-02102213163D

 28 27  0     1  0  0  0  0  0999 V2000
   -3.2133   -3.5565    1.2809 H   0  0  0  0  0  0  0  0  0  0  0  0
   -3.1873   -2.5755    0.8089 C   0  0  0  0  0  0  0  0  0  0  0  0
   -3.8793   -1.9065    1.3169 H   0  0  0  0  0  0  0  0  0  0  0  0
   -3.4623   -2.6685   -0.2401 H   0  0  0  0  0  0  0  0  0  0  0  0
   -1.7863   -2.0195    0.9119 C   0  0  0  0  0  0  0  0  0  0  0  0
   -0.9073   -2.6615    1.4699 O   0  0  0  0  0  0  0  0  0  0  0  0
   -1.5803   -0.8195    0.3749 N   0  0  0  0  0  0  0  0  0  0  0  0
   -2.3603   -0.3345   -0.0451 H   0  0  0  0  0  0  0  0  0  0  0  0
   -0.2933   -0.1205    0.3719 C   0  0  1  0  0  0  0  0  0  0  0  0
    0.4439   -0.7485   -0.1303 H   0  0  0  0  0  0  0  0  0  0  0  0
   -0.4368    1.1924   -0.4246 C   0  0  0  0  0  0  0  0  0  0  0  0
    0.0330    1.0507   -1.3995 H   0  0  0  0  0  0  0  0  0  0  0  0
   -1.4953    1.4020   -0.5854 H   0  0  0  0  0  0  0  0  0  0  0  0
    0.2040    2.4112    0.2617 C   0  0  0  0  0  0  0  0  0  0  0  0
   -0.4779    3.2607    0.2220 H   0  0  0  0  0  0  0  0  0  0  0  0
    0.4103    2.1679    1.3033 H   0  0  0  0  0  0  0  0  0  0  0  0
    1.5166    2.8222   -0.3976 C   0  0  0  0  0  0  0  0  0  0  0  0
    2.0834    2.1969   -1.2793 O   0  0  0  0  0  0  0  0  0  0  0  0
    2.0656    3.9612    0.0640 O   0  0  0  0  0  0  0  0  0  0  0  0
    2.8768    4.0695   -0.4354 H   0  0  0  0  0  0  0  0  0  0  0  0
    0.1871    0.1189    1.8122 C   0  0  0  0  0  0  0  0  0  0  0  0
    1.3541   -0.1171    2.1187 O   0  0  0  0  0  0  0  0  0  0  0  0
   -0.7126    0.5740    2.6926 N   0  0  0  0  0  0  0  0  0  0  0  0
   -1.6464    0.7663    2.3621 H   0  0  0  0  0  0  0  0  0  0  0  0
   -0.4191    0.8310    4.1010 C   0  0  0  0  0  0  0  0  0  0  0  0
    0.4022    1.5452    4.1828 H   0  0  0  0  0  0  0  0  0  0  0  0
   -1.2983    1.2366    4.6035 H   0  0  0  0  0  0  0  0  0  0  0  0
   -0.1204   -0.0980    4.5907 H   0  0  0  0  0  0  0  0  0  0  0  0
  5  6  2  0  0  0  0
  5  7  1  0  0  0  0
  2  3  1  0  0  0  0
  2  4  1  0  0  0  0
  2  5  1  0  0  0  0
  1  2  1  0  0  0  0
 21 22  2  0  0  0  0
 21 23  1  0  0  0  0
 19 20  1  0  0  0  0
 17 18  2  0  0  0  0
 17 19  1  0  0  0  0
 14 15  1  0  0  0  0
 14 16  1  0  0  0  0
 14 17  1  0  0  0  0
 11 12  1  0  0  0  0
 11 13  1  0  0  0  0
 11 14  1  0  0  0  0
  9 10  1  0  0  0  0
  9 11  1  0  0  0  0
  9 21  1  0  0  0  0
  7  8  1  0  0  0  0
  7  9  1  0  0  0  0
 25 26  1  0  0  0  0
 25 27  1  0  0  0  0
 25 28  1  0  0  0  0
 23 24  1  0  0  0  0
 23 25  1  0  0  0  0
M  END
$$$$
default_name
  -OEChem-02102213163D

 28 27  0     1  0  0  0  0  0999 V2000
   -3.2133   -3.5565    1.2809 H   0  0  0  0  0  0  0  0  0  0  0  0
   -3.1873   -2.5755    0.8089 C   0  0  0  0  0  0  0  0  0  0  0  0
   -3.8793   -1.9065    1.3169 H   0  0  0  0  0  0  0  0  0  0  0  0
   -3.4623   -2.6685   -0.2401 H   0  0  0  0  0  0  0  0  0  0  0  0
   -1.7863   -2.0195    0.9119 C   0  0  0  0  0  0  0  0  0  0  0  0
   -0.9073   -2.6615    1.4699 O   0  0  0  0  0  0  0  0  0  0  0  0
   -1.5803   -0.8195    0.3749 N   0  0  0  0  0  0  0  0  0  0  0  0
   -2.3603   -0.3345   -0.0451 H   0  0  0  0  0  0  0  0  0  0  0  0
   -0.2933   -0.1205    0.3719 C   0  0  1  0  0  0  0  0  0  0  0  0
    0.4439   -0.7485   -0.1303 H   0  0  0  0  0  0  0  0  0  0  0  0
   -0.4368    1.1924   -0.4246 C   0  0  0  0  0  0  0  0  0  0  0  0
    0.0330    1.0507   -1.3995 H   0  0  0  0  0  0  0  0  0  0  0  0
   -1.4953    1.4020   -0.5854 H   0  0  0  0  0  0  0  0  0  0  0  0
    0.2040    2.4112    0.2617 C   0  0  0  0  0  0  0  0  0  0  0  0
   -0.5556    3.1674    0.4604 H   0  0  0  0  0  0  0  0  0  0  0  0
    0.6500    2.0974    1.2047 H   0  0  0  0  0  0  0  0  0  0  0  0
    1.2975    3.0465   -0.5912 C   0  0  0  0  0  0  0  0  0  0  0  0
    1.7271    2.5852   -1.6364 O   0  0  0  0  0  0  0  0  0  0  0  0
    1.8099    4.1963   -0.1147 O   0  0  0  0  0  0  0  0  0  0  0  0
    2.4814    4.4538   -0.7488 H   0  0  0  0  0  0  0  0  0  0  0  0
    0.1871    0.1189    1.8122 C   0  0  0  0  0  0  0  0  0  0  0  0
    1.3541   -0.1171    2.1187 O   0  0  0  0  0  0  0  0  0  0  0  0
   -0.7126    0.5740    2.6926 N   0  0  0  0  0  0  0  0  0  0  0  0
   -1.6464    0.7663    2.3621 H   0  0  0  0  0  0  0  0  0  0  0  0
   -0.4191    0.8310    4.1010 C   0  0  0  0  0  0  0  0  0  0  0  0
    0.4022    1.5452    4.1828 H   0  0  0  0  0  0  0  0  0  0  0  0
   -1.2983    1.2366    4.6035 H   0  0  0  0  0  0  0  0  0  0  0  0
   -0.1204   -0.0980    4.5907 H   0  0  0  0  0  0  0  0  0  0  0  0
  5  6  2  0  0  0  0
  5  7  1  0  0  0  0
  2  3  1  0  0  0  0
  2  4  1  0  0  0  0
  2  5  1  0  0  0  0
  1  2  1  0  0  0  0
 21 22  2  0  0  0  0
 21 23  1  0  0  0  0
 19 20  1  0  0  0  0
 17 18  2  0  0  0  0
 17 19  1  0  0  0  0
 14 15  1  0  0  0  0
 14 16  1  0  0  0  0
 14 17  1  0  0  0  0
 11 12  1  0  0  0  0
 11 13  1  0  0  0  0
 11 14  1  0  0  0  0
  9 10  1  0  0  0  0
  9 11  1  0  0  0  0
  9 21  1  0  0  0  0
  7  8  1  0  0  0  0
  7  9  1  0  0  0  0
 25 26  1  0  0  0  0
 25 27  1  0  0  0  0
 25 28  1  0  0  0  0
 23 24  1  0  0  0  0
 23 25  1  0  0  0  0
M  END
$$$$
default_name
  -OEChem-02102213163D

 28 27  0     1  0  0  0  0  0999 V2000
   -3.2133   -3.5565    1.2809 H   0  0  0  0  0  0  0  0  0  0  0  0
   -3.1873   -2.5755    0.8089 C   0  0  0  0  0  0  0  0  0  0  0  0
   -3.8793   -1.9065    1.3169 H   0  0  0  0  0  0  0  0  0  0  0  0
   -3.4623   -2.6685   -0.2401 H   0  0  0  0  0  0  0  0  0  0  0  0
   -1.7863   -2.0195    0.9119 C   0  0  0  0  0  0  0  0  0  0  0  0
   -0.9073   -2.6615    1.4699 O   0  0  0  0  0  0  0  0  0  0  0  0
   -1.5803   -0.8195    0.3749 N   0  0  0  0  0  0  0  0  0  0  0  0
   -2.3603   -0.3345   -0.0451 H   0  0  0  0  0  0  0  0  0  0  0  0
   -0.2933   -0.1205    0.3719 C   0  0  1  0  0  0  0  0  0  0  0  0
    0.4439   -0.7485   -0.1303 H   0  0  0  0  0  0  0  0  0  0  0  0
   -0.4368    1.1924   -0.4246 C   0  0  0  0  0  0  0  0  0  0  0  0
    0.0330    1.0507   -1.3995 H   0  0  0  0  0  0  0  0  0  0  0  0
   -1.4953    1.4020   -0.5854 H   0  0  0  0  0  0  0  0  0  0  0  0
    0.2040    2.4112    0.2617 C   0  0  0  0  0  0  0  0  0  0  0  0
   -0.5710    3.0425    0.6965 H   0  0  0  0  0  0  0  0  0  0  0  0
    0.8695    2.0676    1.0527 H   0  0  0  0  0  0  0  0  0  0  0  0
    1.0202    3.2586   -0.7090 C   0  0  0  0  0  0  0  0  0  0  0  0
    1.2649    2.9578   -1.8664 O   0  0  0  0  0  0  0  0  0  0  0  0
    1.4991    4.4131   -0.2096 O   0  0  0  0  0  0  0  0  0  0  0  0
    1.9908    4.8132   -0.9289 H   0  0  0  0  0  0  0  0  0  0  0  0
    0.1871    0.1189    1.8122 C   0  0  0  0  0  0  0  0  0  0  0  0
    1.3541   -0.1171    2.1187 O   0  0  0  0  0  0  0  0  0  0  0  0
   -0.7126    0.5740    2.6926 N   0  0  0  0  0  0  0  0  0  0  0  0
   -1.6464    0.7663    2.3621 H   0  0  0  0  0  0  0  0  0  0  0  0
   -0.4191    0.8310    4.1010 C   0  0  0  0  0  0  0  0  0  0  0  0
    0.4022    1.5452    4.1828 H   0  0  0  0  0  0  0  0  0  0  0  0
   -1.2983    1.2366    4.6035 H   0  0  0  0  0  0  0  0  0  0  0  0
   -0.1204   -0.0980    4.5907 H   0  0  0  0  0  0  0  0  0  0  0  0
  5  6  2  0  0  0  0
  5  7  1  0  0  0  0
  2  3  1  0  0  0  0
  2  4  1  0  0  0  0
  2  5  1  0  0  0  0
  1  2  1  0  0  0  0
 21 22  2  0  0  0  0
 21 23  1  0  0  0  0
 19 20  1  0  0  0  0
 17 18  2  0  0  0  0
 17 19  1  0  0  0  0
 14 15  1  0  0  0  0
 14 16  1  0  0  0  0
 14 17  1  0  0  0  0
 11 12  1  0  0  0  0
 11 13  1  0  0  0  0
 11 14  1  0  0  0  0
  9 10  1  0  0  0  0
  9 11  1  0  0  0  0
  9 21  1  0  0  0  0
  7  8  1  0  0  0  0
  7  9  1  0  0  0  0
 25 26  1  0  0  0  0
 25 27  1  0  0  0  0
 25 28  1  0  0  0  0
 23 24  1  0  0  0  0
 23 25  1  0  0  0  0
M  END
$$$$
default_name
  -OEChem-02102213163D

 28 27  0     1  0  0  0  0  0999 V2000
   -3.2133   -3.5565    1.2809 H   0  0  0  0  0  0  0  0  0  0  0  0
   -3.1873   -2.5755    0.8089 C   0  0  0  0  0  0  0  0  0  0  0  0
   -3.8793   -1.9065    1.3169 H   0  0  0  0  0  0  0  0  0  0  0  0
   -3.4623   -2.6685   -0.2401 H   0  0  0  0  0  0  0  0  0  0  0  0
   -1.7863   -2.0195    0.9119 C   0  0  0  0  0  0  0  0  0  0  0  0
   -0.9073   -2.6615    1.4699 O   0  0  0  0  0  0  0  0  0  0  0  0
   -1.5803   -0.8195    0.3749 N   0  0  0  0  0  0  0  0  0  0  0  0
   -2.3603   -0.3345   -0.0451 H   0  0  0  0  0  0  0  0  0  0  0  0
   -0.2933   -0.1205    0.3719 C   0  0  1  0  0  0  0  0  0  0  0  0
    0.4439   -0.7485   -0.1303 H   0  0  0  0  0  0  0  0  0  0  0  0
   -0.4368    1.1924   -0.4246 C   0  0  0  0  0  0  0  0  0  0  0  0
    0.0330    1.0507   -1.3995 H   0  0  0  0  0  0  0  0  0  0  0  0
   -1.4953    1.4020   -0.5854 H   0  0  0  0  0  0  0  0  0  0  0  0
    0.2040    2.4112    0.2617 C   0  0  0  0  0  0  0  0  0  0  0  0
   -0.5230    2.8946    0.9143 H   0  0  0  0  0  0  0  0  0  0  0  0
    1.0538    2.0805    0.8577 H   0  0  0  0  0  0  0  0  0  0  0  0
    0.7037    3.4442   -0.7432 C   0  0  0  0  0  0  0  0  0  0  0  0
    0.7283    3.2890   -1.9536 O   0  0  0  0  0  0  0  0  0  0  0  0
    1.1543    4.5969   -0.2142 O   0  0  0  0  0  0  0  0  0  0  0  0
    1.4386    5.1231   -0.9636 H   0  0  0  0  0  0  0  0  0  0  0  0
    0.1871    0.1189    1.8122 C   0  0  0  0  0  0  0  0  0  0  0  0
    1.3541   -0.1171    2.1187 O   0  0  0  0  0  0  0  0  0  0  0  0
   -0.7126    0.5740    2.6926 N   0  0  0  0  0  0  0  0  0  0  0  0
   -1.6464    0.7663    2.3621 H   0  0  0  0  0  0  0  0  0  0  0  0
   -0.4191    0.8310    4.1010 C   0  0  0  0  0  0  0  0  0  0  0  0
    0.4022    1.5452    4.1828 H   0  0  0  0  0  0  0  0  0  0  0  0
   -1.2983    1.2366    4.6035 H   0  0  0  0  0  0  0  0  0  0  0  0
   -0.1204   -0.0980    4.5907 H   0  0  0  0  0  0  0  0  0  0  0  0
  5  6  2  0  0  0  0
  5  7  1  0  0  0  0
  2  3  1  0  0  0  0
  2  4  1  0  0  0  0
  2  5  1  0  0  0  0
  1  2  1  0  0  0  0
 21 22  2  0  0  0  0
 21 23  1  0  0  0  0
 19 20  1  0  0  0  0
 17 18  2  0  0  0  0
 17 19  1  0  0  0  0
 14 15  1  0  0  0  0
 14 16  1  0  0  0  0
 14 17  1  0  0  0  0
 11 12  1  0  0  0  0
 11 13  1  0  0  0  0
 11 14  1  0  0  0  0
  9 10  1  0  0  0  0
  9 11  1  0  0  0  0
  9 21  1  0  0  0  0
  7  8  1  0  0  0  0
  7  9  1  0  0  0  0
 25 26  1  0  0  0  0
 25 27  1  0  0  0  0
 25 28  1  0  0  0  0
 23 24  1  0  0  0  0
 23 25  1  0  0  0  0
M  END
$$$$
default_name
  -OEChem-02102213163D

 28 27  0     1  0  0  0  0  0999 V2000
   -3.2133   -3.5565    1.2809 H   0  0  0  0  0  0  0  0  0  0  0  0
   -3.1873   -2.5755    0.8089 C   0  0  0  0  0  0  0  0  0  0  0  0
   -3.8793   -1.9065    1.3169 H   0  0  0  0  0  0  0  0  0  0  0  0
   -3.4623   -2.6685   -0.2401 H   0  0  0  0  0  0  0  0  0  0  0  0
   -1.7863   -2.0195    0.9119 C   0  0  0  0  0  0  0  0  0  0  0  0
   -0.9073   -2.6615    1.4699 O   0  0  0  0  0  0  0  0  0  0  0  0
   -1.5803   -0.8195    0.3749 N   0  0  0  0  0  0  0  0  0  0  0  0
   -2.3603   -0.3345   -0.0451 H   0  0  0  0  0  0  0  0  0  0  0  0
   -0.2933   -0.1205    0.3719 C   0  0  1  0  0  0  0  0  0  0  0  0
    0.4439   -0.7485   -0.1303 H   0  0  0  0  0  0  0  0  0  0  0  0
   -0.4368    1.1924   -0.4246 C   0  0  0  0  0  0  0  0  0  0  0  0
    0.0330    1.0507   -1.3995 H   0  0  0  0  0  0  0  0  0  0  0  0
   -1.4953    1.4020   -0.5854 H   0  0  0  0  0  0  0  0  0  0  0  0
    0.2040    2.4112    0.2617 C   0  0  0  0  0  0  0  0  0  0  0  0
   -0.4150    2.7339    1.0989 H   0  0  0  0  0  0  0  0  0  0  0  0
    1.1903    2.1353    0.6330 H   0  0  0  0  0  0  0  0  0  0  0  0
    0.3696    3.5906   -0.6913 C   0  0  0  0  0  0  0  0  0  0  0  0
    0.1538    3.5564   -1.8921 O   0  0  0  0  0  0  0  0  0  0  0  0
    0.7992    4.7352   -0.1281 O   0  0  0  0  0  0  0  0  0  0  0  0
    0.8622    5.3624   -0.8505 H   0  0  0  0  0  0  0  0  0  0  0  0
    0.1871    0.1189    1.8122 C   0  0  0  0  0  0  0  0  0  0  0  0
    1.3541   -0.1171    2.1187 O   0  0  0  0  0  0  0  0  0  0  0  0
   -0.7126    0.5740    2.6926 N   0  0  0  0  0  0  0  0  0  0  0  0
   -1.6464    0.7663    2.3621 H   0  0  0  0  0  0  0  0  0  0  0  0
   -0.4191    0.8310    4.1010 C   0  0  0  0  0  0  0  0  0  0  0  0
    0.4022    1.5452    4.1828 H   0  0  0  0  0  0  0  0  0  0  0  0
   -1.2983    1.2366    4.6035 H   0  0  0  0  0  0  0  0  0  0  0  0
   -0.1204   -0.0980    4.5907 H   0  0  0  0  0  0  0  0  0  0  0  0
  5  6  2  0  0  0  0
  5  7  1  0  0  0  0
  2  3  1  0  0  0  0
  2  4  1  0  0  0  0
  2  5  1  0  0  0  0
  1  2  1  0  0  0  0
 21 22  2  0  0  0  0
 21 23  1  0  0  0  0
 19 20  1  0  0  0  0
 17 18  2  0  0  0  0
 17 19  1  0  0  0  0
 14 15  1  0  0  0  0
 14 16  1  0  0  0  0
 14 17  1  0  0  0  0
 11 12  1  0  0  0  0
 11 13  1  0  0  0  0
 11 14  1  0  0  0  0
  9 10  1  0  0  0  0
  9 11  1  0  0  0  0
  9 21  1  0  0  0  0
  7  8  1  0  0  0  0
  7  9  1  0  0  0  0
 25 26  1  0  0  0  0
 25 27  1  0  0  0  0
 25 28  1  0  0  0  0
 23 24  1  0  0  0  0
 23 25  1  0  0  0  0
M  END
$$$$
default_name
  -OEChem-02102213163D

 28 27  0     1  0  0  0  0  0999 V2000
   -3.2133   -3.5565    1.2809 H   0  0  0  0  0  0  0  0  0  0  0  0
   -3.1873   -2.5755    0.8089 C   0  0  0  0  0  0  0  0  0  0  0  0
   -3.8793   -1.9065    1.3169 H   0  0  0  0  0  0  0  0  0  0  0  0
   -3.4623   -2.6685   -0.2401 H   0  0  0  0  0  0  0  0  0  0  0  0
   -1.7863   -2.0195    0.9119 C   0  0  0  0  0  0  0  0  0  0  0  0
   -0.9073   -2.6615    1.4699 O   0  0  0  0  0  0  0  0  0  0  0  0
   -1.5803   -0.8195    0.3749 N   0  0  0  0  0  0  0  0  0  0  0  0
   -2.3603   -0.3345   -0.0451 H   0  0  0  0  0  0  0  0  0  0  0  0
   -0.2933   -0.1205    0.3719 C   0  0  1  0  0  0  0  0  0  0  0  0
    0.4439   -0.7485   -0.1303 H   0  0  0  0  0  0  0  0  0  0  0  0
   -0.4368    1.1924   -0.4246 C   0  0  0  0  0  0  0  0  0  0  0  0
   -0.2178    0.9791   -1.4723 H   0  0  0  0  0  0  0  0  0  0  0  0
   -1.4677    1.5430   -0.3580 H   0  0  0  0  0  0  0  0  0  0  0  0
    0.4943    2.3187    0.0568 C   0  0  0  0  0  0  0  0  0  0  0  0
    0.2891    2.5485    1.1024 H   0  0  0  0  0  0  0  0  0  0  0  0
    1.5294    1.9932   -0.0403 H   0  0  0  0  0  0  0  0  0  0  0  0
    0.3220    3.5982   -0.7554 C   0  0  0  0  0  0  0  0  0  0  0  0
   -0.3660    3.7040   -1.7580 O   0  0  0  0  0  0  0  0  0  0  0  0
    1.0063    4.6666   -0.3062 O   0  0  0  0  0  0  0  0  0  0  0  0
    0.8039    5.3721   -0.9231 H   0  0  0  0  0  0  0  0  0  0  0  0
    0.1871    0.1189    1.8122 C   0  0  0  0  0  0  0  0  0  0  0  0
    1.3541   -0.1171    2.1187 O   0  0  0  0  0  0  0  0  0  0  0  0
   -0.7126    0.5740    2.6926 N   0  0  0  0  0  0  0  0  0  0  0  0
   -1.6464    0.7663    2.3621 H   0  0  0  0  0  0  0  0  0  0  0  0
   -0.4191    0.8310    4.1010 C   0  0  0  0  0  0  0  0  0  0  0  0
    0.4022    1.5452    4.1828 H   0  0  0  0  0  0  0  0  0  0  0  0
   -1.2983    1.2366    4.6035 H   0  0  0  0  0  0  0  0  0  0  0  0
   -0.1204   -0.0980    4.5907 H   0  0  0  0  0  0  0  0  0  0  0  0
  5  6  2  0  0  0  0
  5  7  1  0  0  0  0
  2  3  1  0  0  0  0
  2  4  1  0  0  0  0
  2  5  1  0  0  0  0
  1  2  1  0  0  0  0
 21 22  2  0  0  0  0
 21 23  1  0  0  0  0
 19 20  1  0  0  0  0
 17 18  2  0  0  0  0
 17 19  1  0  0  0  0
 14 15  1  0  0  0  0
 14 16  1  0  0  0  0
 14 17  1  0  0  0  0
 11 12  1  0  0  0  0
 11 13  1  0  0  0  0
 11 14  1  0  0  0  0
  9 10  1  0  0  0  0
  9 11  1  0  0  0  0
  9 21  1  0  0  0  0
  7  8  1  0  0  0  0
  7  9  1  0  0  0  0
 25 26  1  0  0  0  0
 25 27  1  0  0  0  0
 25 28  1  0  0  0  0
 23 24  1  0  0  0  0
 23 25  1  0  0  0  0
M  END
$$$$
default_name
  -OEChem-02102213163D

 28 27  0     1  0  0  0  0  0999 V2000
   -3.2133   -3.5565    1.2809 H   0  0  0  0  0  0  0  0  0  0  0  0
   -3.1873   -2.5755    0.8089 C   0  0  0  0  0  0  0  0  0  0  0  0
   -3.8793   -1.9065    1.3169 H   0  0  0  0  0  0  0  0  0  0  0  0
   -3.4623   -2.6685   -0.2401 H   0  0  0  0  0  0  0  0  0  0  0  0
   -1.7863   -2.0195    0.9119 C   0  0  0  0  0  0  0  0  0  0  0  0
   -0.9073   -2.6615    1.4699 O   0  0  0  0  0  0  0  0  0  0  0  0
   -1.5803   -0.8195    0.3749 N   0  0  0  0  0  0  0  0  0  0  0  0
   -2.3603   -0.3345   -0.0451 H   0  0  0  0  0  0  0  0  0  0  0  0
   -0.2933   -0.1205    0.3719 C   0  0  1  0  0  0  0  0  0  0  0  0
    0.4439   -0.7485   -0.1303 H   0  0  0  0  0  0  0  0  0  0  0  0
   -0.4368    1.1924   -0.4246 C   0  0  0  0  0  0  0  0  0  0  0  0
   -0.2178    0.9791   -1.4723 H   0  0  0  0  0  0  0  0  0  0  0  0
   -1.4677    1.5430   -0.3580 H   0  0  0  0  0  0  0  0  0  0  0  0
    0.4943    2.3187    0.0568 C   0  0  0  0  0  0  0  0  0  0  0  0
    0.4833    2.3695    1.1456 H   0  0  0  0  0  0  0  0  0  0  0  0
    1.5095    2.1123   -0.2802 H   0  0  0  0  0  0  0  0  0  0  0  0
    0.0823    3.6822   -0.4885 C   0  0  0  0  0  0  0  0  0  0  0  0
   -0.7943    3.8695   -1.3170 O   0  0  0  0  0  0  0  0  0  0  0  0
    0.7694    4.7327   -0.0026 O   0  0  0  0  0  0  0  0  0  0  0  0
    0.4040    5.4994   -0.4476 H   0  0  0  0  0  0  0  0  0  0  0  0
    0.1871    0.1189    1.8122 C   0  0  0  0  0  0  0  0  0  0  0  0
    1.3541   -0.1171    2.1187 O   0  0  0  0  0  0  0  0  0  0  0  0
   -0.7126    0.5740    2.6926 N   0  0  0  0  0  0  0  0  0  0  0  0
   -1.6464    0.7663    2.3621 H   0  0  0  0  0  0  0  0  0  0  0  0
   -0.4191    0.8310    4.1010 C   0  0  0  0  0  0  0  0  0  0  0  0
    0.4022    1.5452    4.1828 H   0  0  0  0  0  0  0  0  0  0  0  0
   -1.2983    1.2366    4.6035 H   0  0  0  0  0  0  0  0  0  0  0  0
   -0.1204   -0.0980    4.5907 H   0  0  0  0  0  0  0  0  0  0  0  0
  5  6  2  0  0  0  0
  5  7  1  0  0  0  0
  2  3  1  0  0  0  0
  2  4  1  0  0  0  0
  2  5  1  0  0  0  0
  1  2  1  0  0  0  0
 21 22  2  0  0  0  0
 21 23  1  0  0  0  0
 19 20  1  0  0  0  0
 17 18  2  0  0  0  0
 17 19  1  0  0  0  0
 14 15  1  0  0  0  0
 14 16  1  0  0  0  0
 14 17  1  0  0  0  0
 11 12  1  0  0  0  0
 11 13  1  0  0  0  0
 11 14  1  0  0  0  0
  9 10  1  0  0  0  0
  9 11  1  0  0  0  0
  9 21  1  0  0  0  0
  7  8  1  0  0  0  0
  7  9  1  0  0  0  0
 25 26  1  0  0  0  0
 25 27  1  0  0  0  0
 25 28  1  0  0  0  0
 23 24  1  0  0  0  0
 23 25  1  0  0  0  0
M  END
$$$$
default_name
  -OEChem-02102213163D

 28 27  0     1  0  0  0  0  0999 V2000
   -3.2133   -3.5565    1.2809 H   0  0  0  0  0  0  0  0  0  0  0  0
   -3.1873   -2.5755    0.8089 C   0  0  0  0  0  0  0  0  0  0  0  0
   -3.8793   -1.9065    1.3169 H   0  0  0  0  0  0  0  0  0  0  0  0
   -3.4623   -2.6685   -0.2401 H   0  0  0  0  0  0  0  0  0  0  0  0
   -1.7863   -2.0195    0.9119 C   0  0  0  0  0  0  0  0  0  0  0  0
   -0.9073   -2.6615    1.4699 O   0  0  0  0  0  0  0  0  0  0  0  0
   -1.5803   -0.8195    0.3749 N   0  0  0  0  0  0  0  0  0  0  0  0
   -2.3603   -0.3345   -0.0451 H   0  0  0  0  0  0  0  0  0  0  0  0
   -0.2933   -0.1205    0.3719 C   0  0  1  0  0  0  0  0  0  0  0  0
    0.4439   -0.7485   -0.1303 H   0  0  0  0  0  0  0  0  0  0  0  0
   -0.4368    1.1924   -0.4246 C   0  0  0  0  0  0  0  0  0  0  0  0
   -0.2178    0.9791   -1.4723 H   0  0  0  0  0  0  0  0  0  0  0  0
   -1.4677    1.5430   -0.3580 H   0  0  0  0  0  0  0  0  0  0  0  0
    0.4943    2.3187    0.0568 C   0  0  0  0  0  0  0  0  0  0  0  0
    0.6935    2.2056    1.1225 H   0  0  0  0  0  0  0  0  0  0  0  0
    1.4351    2.2633   -0.4896 H   0  0  0  0  0  0  0  0  0  0  0  0
   -0.1055    3.7022   -0.1721 C   0  0  0  0  0  0  0  0  0  0  0  0
   -1.1378    3.9256   -0.7839 O   0  0  0  0  0  0  0  0  0  0  0  0
    0.5928    4.7298    0.3458 O   0  0  0  0  0  0  0  0  0  0  0  0
    0.0976    5.5155    0.1075 H   0  0  0  0  0  0  0  0  0  0  0  0
    0.1871    0.1189    1.8122 C   0  0  0  0  0  0  0  0  0  0  0  0
    1.3541   -0.1171    2.1187 O   0  0  0  0  0  0  0  0  0  0  0  0
   -0.7126    0.5740    2.6926 N   0  0  0  0  0  0  0  0  0  0  0  0
   -1.6464    0.7663    2.3621 H   0  0  0  0  0  0  0  0  0  0  0  0
   -0.4191    0.8310    4.1010 C   0  0  0  0  0  0  0  0  0  0  0  0
    0.4022    1.5452    4.1828 H   0  0  0  0  0  0  0  0  0  0  0  0
   -1.2983    1.2366    4.6035 H   0  0  0  0  0  0  0  0  0  0  0  0
   -0.1204   -0.0980    4.5907 H   0  0  0  0  0  0  0  0  0  0  0  0
  5  6  2  0  0  0  0
  5  7  1  0  0  0  0
  2  3  1  0  0  0  0
  2  4  1  0  0  0  0
  2  5  1  0  0  0  0
  1  2  1  0  0  0  0
 21 22  2  0  0  0  0
 21 23  1  0  0  0  0
 19 20  1  0  0  0  0
 17 18  2  0  0  0  0
 17 19  1  0  0  0  0
 14 15  1  0  0  0  0
 14 16  1  0  0  0  0
 14 17  1  0  0  0  0
 11 12  1  0  0  0  0
 11 13  1  0  0  0  0
 11 14  1  0  0  0  0
  9 10  1  0  0  0  0
  9 11  1  0  0  0  0
  9 21  1  0  0  0  0
  7  8  1  0  0  0  0
  7  9  1  0  0  0  0
 25 26  1  0  0  0  0
 25 27  1  0  0  0  0
 25 28  1  0  0  0  0
 23 24  1  0  0  0  0
 23 25  1  0  0  0  0
M  END
$$$$
default_name
  -OEChem-02102213163D

 28 27  0     1  0  0  0  0  0999 V2000
   -3.2133   -3.5565    1.2809 H   0  0  0  0  0  0  0  0  0  0  0  0
   -3.1873   -2.5755    0.8089 C   0  0  0  0  0  0  0  0  0  0  0  0
   -3.8793   -1.9065    1.3169 H   0  0  0  0  0  0  0  0  0  0  0  0
   -3.4623   -2.6685   -0.2401 H   0  0  0  0  0  0  0  0  0  0  0  0
   -1.7863   -2.0195    0.9119 C   0  0  0  0  0  0  0  0  0  0  0  0
   -0.9073   -2.6615    1.4699 O   0  0  0  0  0  0  0  0  0  0  0  0
   -1.5803   -0.8195    0.3749 N   0  0  0  0  0  0  0  0  0  0  0  0
   -2.3603   -0.3345   -0.0451 H   0  0  0  0  0  0  0  0  0  0  0  0
   -0.2933   -0.1205    0.3719 C   0  0  1  0  0  0  0  0  0  0  0  0
    0.4439   -0.7485   -0.1303 H   0  0  0  0  0  0  0  0  0  0  0  0
   -0.4368    1.1924   -0.4246 C   0  0  0  0  0  0  0  0  0  0  0  0
   -0.2178    0.9791   -1.4723 H   0  0  0  0  0  0  0  0  0  0  0  0
   -1.4677    1.5430   -0.3580 H   0  0  0  0  0  0  0  0  0  0  0  0
    0.4943    2.3187    0.0568 C   0  0  0  0  0  0  0  0  0  0  0  0
    0.9054    2.0679    1.0347 H   0  0  0  0  0  0  0  0  0  0  0  0
    1.3114    2.4358   -0.6541 H   0  0  0  0  0  0  0  0  0  0  0  0
   -0.2285    3.6568    0.1722 C   0  0  0  0  0  0  0  0  0  0  0  0
   -1.3731    3.8685   -0.1951 O   0  0  0  0  0  0  0  0  0  0  0  0
    0.4884    4.6581    0.7154 O   0  0  0  0  0  0  0  0  0  0  0  0
   -0.0946    5.4192    0.7042 H   0  0  0  0  0  0  0  0  0  0  0  0
    0.1871    0.1189    1.8122 C   0  0  0  0  0  0  0  0  0  0  0  0
    1.3541   -0.1171    2.1187 O   0  0  0  0  0  0  0  0  0  0  0  0
   -0.7126    0.5740    2.6926 N   0  0  0  0  0  0  0  0  0  0  0  0
   -1.6464    0.7663    2.3621 H   0  0  0  0  0  0  0  0  0  0  0  0
   -0.4191    0.8310    4.1010 C   0  0  0  0  0  0  0  0  0  0  0  0
    0.4022    1.5452    4.1828 H   0  0  0  0  0  0  0  0  0  0  0  0
   -1.2983    1.2366    4.6035 H   0  0  0  0  0  0  0  0  0  0  0  0
   -0.1204   -0.0980    4.5907 H   0  0  0  0  0  0  0  0  0  0  0  0
  5  6  2  0  0  0  0
  5  7  1  0  0  0  0
  2  3  1  0  0  0  0
  2  4  1  0  0  0  0
  2  5  1  0  0  0  0
  1  2  1  0  0  0  0
 21 22  2  0  0  0  0
 21 23  1  0  0  0  0
 19 20  1  0  0  0  0
 17 18  2  0  0  0  0
 17 19  1  0  0  0  0
 14 15  1  0  0  0  0
 14 16  1  0  0  0  0
 14 17  1  0  0  0  0
 11 12  1  0  0  0  0
 11 13  1  0  0  0  0
 11 14  1  0  0  0  0
  9 10  1  0  0  0  0
  9 11  1  0  0  0  0
  9 21  1  0  0  0  0
  7  8  1  0  0  0  0
  7  9  1  0  0  0  0
 25 26  1  0  0  0  0
 25 27  1  0  0  0  0
 25 28  1  0  0  0  0
 23 24  1  0  0  0  0
 23 25  1  0  0  0  0
M  END
$$$$
default_name
  -OEChem-02102213163D

 28 27  0     1  0  0  0  0  0999 V2000
   -3.2133   -3.5565    1.2809 H   0  0  0  0  0  0  0  0  0  0  0  0
   -3.1873   -2.5755    0.8089 C   0  0  0  0  0  0  0  0  0  0  0  0
   -3.8793   -1.9065    1.3169 H   0  0  0  0  0  0  0  0  0  0  0  0
   -3.4623   -2.6685   -0.2401 H   0  0  0  0  0  0  0  0  0  0  0  0
   -1.7863   -2.0195    0.9119 C   0  0  0  0  0  0  0  0  0  0  0  0
   -0.9073   -2.6615    1.4699 O   0  0  0  0  0  0  0  0  0  0  0  0
   -1.5803   -0.8195    0.3749 N   0  0  0  0  0  0  0  0  0  0  0  0
   -2.3603   -0.3345   -0.0451 H   0  0  0  0  0  0  0  0  0  0  0  0
   -0.2933   -0.1205    0.3719 C   0  0  1  0  0  0  0  0  0  0  0  0
    0.4439   -0.7485   -0.1303 H   0  0  0  0  0  0  0  0  0  0  0  0
   -0.4368    1.1924   -0.4246 C   0  0  0  0  0  0  0  0  0  0  0  0
   -0.2178    0.9791   -1.4723 H   0  0  0  0  0  0  0  0  0  0  0  0
   -1.4677    1.5430   -0.3580 H   0  0  0  0  0  0  0  0  0  0  0  0
    0.4943    2.3187    0.0568 C   0  0  0  0  0  0  0  0  0  0  0  0
    1.1046    1.9659    0.8882 H   0  0  0  0  0  0  0  0  0  0  0  0
    1.1468    2.6183   -0.7625 H   0  0  0  0  0  0  0  0  0  0  0  0
   -0.2785    3.5490    0.5210 C   0  0  0  0  0  0  0  0  0  0  0  0
   -1.4843    3.7020    0.4092 O   0  0  0  0  0  0  0  0  0  0  0  0
    0.4634    4.5225    1.0809 O   0  0  0  0  0  0  0  0  0  0  0  0
   -0.1593    5.2173    1.3019 H   0  0  0  0  0  0  0  0  0  0  0  0
    0.1871    0.1189    1.8122 C   0  0  0  0  0  0  0  0  0  0  0  0
    1.3541   -0.1171    2.1187 O   0  0  0  0  0  0  0  0  0  0  0  0
   -0.7126    0.5740    2.6926 N   0  0  0  0  0  0  0  0  0  0  0  0
   -1.6464    0.7663    2.3621 H   0  0  0  0  0  0  0  0  0  0  0  0
   -0.4191    0.8310    4.1010 C   0  0  0  0  0  0  0  0  0  0  0  0
    0.4022    1.5452    4.1828 H   0  0  0  0  0  0  0  0  0  0  0  0
   -1.2983    1.2366    4.6035 H   0  0  0  0  0  0  0  0  0  0  0  0
   -0.1204   -0.0980    4.5907 H   0  0  0  0  0  0  0  0  0  0  0  0
  5  6  2  0  0  0  0
  5  7  1  0  0  0  0
  2  3  1  0  0  0  0
  2  4  1  0  0  0  0
  2  5  1  0  0  0  0
  1  2  1  0  0  0  0
 21 22  2  0  0  0  0
 21 23  1  0  0  0  0
 19 20  1  0  0  0  0
 17 18  2  0  0  0  0
 17 19  1  0  0  0  0
 14 15  1  0  0  0  0
 14 16  1  0  0  0  0
 14 17  1  0  0  0  0
 11 12  1  0  0  0  0
 11 13  1  0  0  0  0
 11 14  1  0  0  0  0
  9 10  1  0  0  0  0
  9 11  1  0  0  0  0
  9 21  1  0  0  0  0
  7  8  1  0  0  0  0
  7  9  1  0  0  0  0
 25 26  1  0  0  0  0
 25 27  1  0  0  0  0
 25 28  1  0  0  0  0
 23 24  1  0  0  0  0
 23 25  1  0  0  0  0
M  END
$$$$
default_name
  -OEChem-02102213163D

 28 27  0     1  0  0  0  0  0999 V2000
   -3.2133   -3.5565    1.2809 H   0  0  0  0  0  0  0  0  0  0  0  0
   -3.1873   -2.5755    0.8089 C   0  0  0  0  0  0  0  0  0  0  0  0
   -3.8793   -1.9065    1.3169 H   0  0  0  0  0  0  0  0  0  0  0  0
   -3.4623   -2.6685   -0.2401 H   0  0  0  0  0  0  0  0  0  0  0  0
   -1.7863   -2.0195    0.9119 C   0  0  0  0  0  0  0  0  0  0  0  0
   -0.9073   -2.6615    1.4699 O   0  0  0  0  0  0  0  0  0  0  0  0
   -1.5803   -0.8195    0.3749 N   0  0  0  0  0  0  0  0  0  0  0  0
   -2.3603   -0.3345   -0.0451 H   0  0  0  0  0  0  0  0  0  0  0  0
   -0.2933   -0.1205    0.3719 C   0  0  1  0  0  0  0  0  0  0  0  0
    0.4439   -0.7485   -0.1303 H   0  0  0  0  0  0  0  0  0  0  0  0
   -0.4368    1.1924   -0.4246 C   0  0  0  0  0  0  0  0  0  0  0  0
   -0.2178    0.9791   -1.4723 H   0  0  0  0  0  0  0  0  0  0  0  0
   -1.4677    1.5430   -0.3580 H   0  0  0  0  0  0  0  0  0  0  0  0
    0.4943    2.3187    0.0568 C   0  0  0  0  0  0  0  0  0  0  0  0
    1.2776    1.9063    0.6930 H   0  0  0  0  0  0  0  0  0  0  0  0
    0.9525    2.7982   -0.8074 H   0  0  0  0  0  0  0  0  0  0  0  0
   -0.2519    3.3862    0.8505 C   0  0  0  0  0  0  0  0  0  0  0  0
   -1.4637    3.4376    0.9880 O   0  0  0  0  0  0  0  0  0  0  0  0
    0.5195    4.3323    1.4175 O   0  0  0  0  0  0  0  0  0  0  0  0
   -0.0923    4.9233    1.8599 H   0  0  0  0  0  0  0  0  0  0  0  0
    0.1871    0.1189    1.8122 C   0  0  0  0  0  0  0  0  0  0  0  0
    1.3541   -0.1171    2.1187 O   0  0  0  0  0  0  0  0  0  0  0  0
   -0.7126    0.5740    2.6926 N   0  0  0  0  0  0  0  0  0  0  0  0
   -1.6464    0.7663    2.3621 H   0  0  0  0  0  0  0  0  0  0  0  0
   -0.4191    0.8310    4.1010 C   0  0  0  0  0  0  0  0  0  0  0  0
    0.4022    1.5452    4.1828 H   0  0  0  0  0  0  0  0  0  0  0  0
   -1.2983    1.2366    4.6035 H   0  0  0  0  0  0  0  0  0  0  0  0
   -0.1204   -0.0980    4.5907 H   0  0  0  0  0  0  0  0  0  0  0  0
  5  6  2  0  0  0  0
  5  7  1  0  0  0  0
  2  3  1  0  0  0  0
  2  4  1  0  0  0  0
  2  5  1  0  0  0  0
  1  2  1  0  0  0  0
 21 22  2  0  0  0  0
 21 23  1  0  0  0  0
 19 20  1  0  0  0  0
 17 18  2  0  0  0  0
 17 19  1  0  0  0  0
 14 15  1  0  0  0  0
 14 16  1  0  0  0  0
 14 17  1  0  0  0  0
 11 12  1  0  0  0  0
 11 13  1  0  0  0  0
 11 14  1  0  0  0  0
  9 10  1  0  0  0  0
  9 11  1  0  0  0  0
  9 21  1  0  0  0  0
  7  8  1  0  0  0  0
  7  9  1  0  0  0  0
 25 26  1  0  0  0  0
 25 27  1  0  0  0  0
 25 28  1  0  0  0  0
 23 24  1  0  0  0  0
 23 25  1  0  0  0  0
M  END
$$$$
default_name
  -OEChem-02102213163D

 28 27  0     1  0  0  0  0  0999 V2000
   -3.2133   -3.5565    1.2809 H   0  0  0  0  0  0  0  0  0  0  0  0
   -3.1873   -2.5755    0.8089 C   0  0  0  0  0  0  0  0  0  0  0  0
   -3.8793   -1.9065    1.3169 H   0  0  0  0  0  0  0  0  0  0  0  0
   -3.4623   -2.6685   -0.2401 H   0  0  0  0  0  0  0  0  0  0  0  0
   -1.7863   -2.0195    0.9119 C   0  0  0  0  0  0  0  0  0  0  0  0
   -0.9073   -2.6615    1.4699 O   0  0  0  0  0  0  0  0  0  0  0  0
   -1.5803   -0.8195    0.3749 N   0  0  0  0  0  0  0  0  0  0  0  0
   -2.3603   -0.3345   -0.0451 H   0  0  0  0  0  0  0  0  0  0  0  0
   -0.2933   -0.1205    0.3719 C   0  0  1  0  0  0  0  0  0  0  0  0
    0.4439   -0.7485   -0.1303 H   0  0  0  0  0  0  0  0  0  0  0  0
   -0.4368    1.1924   -0.4246 C   0  0  0  0  0  0  0  0  0  0  0  0
   -0.2178    0.9791   -1.4723 H   0  0  0  0  0  0  0  0  0  0  0  0
   -1.4677    1.5430   -0.3580 H   0  0  0  0  0  0  0  0  0  0  0  0
    0.4943    2.3187    0.0568 C   0  0  0  0  0  0  0  0  0  0  0  0
    1.4125    1.8934    0.4623 H   0  0  0  0  0  0  0  0  0  0  0  0
    0.7417    2.9632   -0.7859 H   0  0  0  0  0  0  0  0  0  0  0  0
   -0.1507    3.1795    1.1382 C   0  0  0  0  0  0  0  0  0  0  0  0
   -1.3127    3.0932    1.5017 O   0  0  0  0  0  0  0  0  0  0  0  0
    0.6528    4.1003    1.7022 O   0  0  0  0  0  0  0  0  0  0  0  0
    0.1020    4.5574    2.3402 H   0  0  0  0  0  0  0  0  0  0  0  0
    0.1871    0.1189    1.8122 C   0  0  0  0  0  0  0  0  0  0  0  0
    1.3541   -0.1171    2.1187 O   0  0  0  0  0  0  0  0  0  0  0  0
   -0.7126    0.5740    2.6926 N   0  0  0  0  0  0  0  0  0  0  0  0
   -1.6464    0.7663    2.3621 H   0  0  0  0  0  0  0  0  0  0  0  0
   -0.4191    0.8310    4.1010 C   0  0  0  0  0  0  0  0  0  0  0  0
    0.4022    1.5452    4.1828 H   0  0  0  0  0  0  0  0  0  0  0  0
   -1.2983    1.2366    4.6035 H   0  0  0  0  0  0  0  0  0  0  0  0
   -0.1204   -0.0980    4.5907 H   0  0  0  0  0  0  0  0  0  0  0  0
  5  6  2  0  0  0  0
  5  7  1  0  0  0  0
  2  3  1  0  0  0  0
  2  4  1  0  0  0  0
  2  5  1  0  0  0  0
  1  2  1  0  0  0  0
 21 22  2  0  0  0  0
 21 23  1  0  0  0  0
 19 20  1  0  0  0  0
 17 18  2  0  0  0  0
 17 19  1  0  0  0  0
 14 15  1  0  0  0  0
 14 16  1  0  0  0  0
 14 17  1  0  0  0  0
 11 12  1  0  0  0  0
 11 13  1  0  0  0  0
 11 14  1  0  0  0  0
  9 10  1  0  0  0  0
  9 11  1  0  0  0  0
  9 21  1  0  0  0  0
  7  8  1  0  0  0  0
  7  9  1  0  0  0  0
 25 26  1  0  0  0  0
 25 27  1  0  0  0  0
 25 28  1  0  0  0  0
 23 24  1  0  0  0  0
 23 25  1  0  0  0  0
M  END
$$$$
default_name
  -OEChem-02102213163D

 28 27  0     1  0  0  0  0  0999 V2000
   -3.2133   -3.5565    1.2809 H   0  0  0  0  0  0  0  0  0  0  0  0
   -3.1873   -2.5755    0.8089 C   0  0  0  0  0  0  0  0  0  0  0  0
   -3.8793   -1.9065    1.3169 H   0  0  0  0  0  0  0  0  0  0  0  0
   -3.4623   -2.6685   -0.2401 H   0  0  0  0  0  0  0  0  0  0  0  0
   -1.7863   -2.0195    0.9119 C   0  0  0  0  0  0  0  0  0  0  0  0
   -0.9073   -2.6615    1.4699 O   0  0  0  0  0  0  0  0  0  0  0  0
   -1.5803   -0.8195    0.3749 N   0  0  0  0  0  0  0  0  0  0  0  0
   -2.3603   -0.3345   -0.0451 H   0  0  0  0  0  0  0  0  0  0  0  0
   -0.2933   -0.1205    0.3719 C   0  0  1  0  0  0  0  0  0  0  0  0
    0.4439   -0.7485   -0.1303 H   0  0  0  0  0  0  0  0  0  0  0  0
   -0.4368    1.1924   -0.4246 C   0  0  0  0  0  0  0  0  0  0  0  0
   -0.2178    0.9791   -1.4723 H   0  0  0  0  0  0  0  0  0  0  0  0
   -1.4677    1.5430   -0.3580 H   0  0  0  0  0  0  0  0  0  0  0  0
    0.4943    2.3187    0.0568 C   0  0  0  0  0  0  0  0  0  0  0  0
    1.5001    1.9280    0.2118 H   0  0  0  0  0  0  0  0  0  0  0  0
    0.5288    3.1022   -0.6992 H   0  0  0  0  0  0  0  0  0  0  0  0
    0.0184    2.9430    1.3645 C   0  0  0  0  0  0  0  0  0  0  0  0
   -1.0416    2.6923    1.9153 O   0  0  0  0  0  0  0  0  0  0  0  0
    0.8543    3.8425    1.9156 O   0  0  0  0  0  0  0  0  0  0  0  0
    0.4103    4.1445    2.7099 H   0  0  0  0  0  0  0  0  0  0  0  0
    0.1871    0.1189    1.8122 C   0  0  0  0  0  0  0  0  0  0  0  0
    1.3541   -0.1171    2.1187 O   0  0  0  0  0  0  0  0  0  0  0  0
   -0.7126    0.5740    2.6926 N   0  0  0  0  0  0  0  0  0  0  0  0
   -1.6464    0.7663    2.3621 H   0  0  0  0  0  0  0  0  0  0  0  0
   -0.4191    0.8310    4.1010 C   0  0  0  0  0  0  0  0  0  0  0  0
    0.4022    1.5452    4.1828 H   0  0  0  0  0  0  0  0  0  0  0  0
   -1.2983    1.2366    4.6035 H   0  0  0  0  0  0  0  0  0  0  0  0
   -0.1204   -0.0980    4.5907 H   0  0  0  0  0  0  0  0  0  0  0  0
  5  6  2  0  0  0  0
  5  7  1  0  0  0  0
  2  3  1  0  0  0  0
  2  4  1  0  0  0  0
  2  5  1  0  0  0  0
  1  2  1  0  0  0  0
 21 22  2  0  0  0  0
 21 23  1  0  0  0  0
 19 20  1  0  0  0  0
 17 18  2  0  0  0  0
 17 19  1  0  0  0  0
 14 15  1  0  0  0  0
 14 16  1  0  0  0  0
 14 17  1  0  0  0  0
 11 12  1  0  0  0  0
 11 13  1  0  0  0  0
 11 14  1  0  0  0  0
  9 10  1  0  0  0  0
  9 11  1  0  0  0  0
  9 21  1  0  0  0  0
  7  8  1  0  0  0  0
  7  9  1  0  0  0  0
 25 26  1  0  0  0  0
 25 27  1  0  0  0  0
 25 28  1  0  0  0  0
 23 24  1  0  0  0  0
 23 25  1  0  0  0  0
M  END
$$$$
default_name
  -OEChem-02102213163D

 28 27  0     1  0  0  0  0  0999 V2000
   -3.2133   -3.5565    1.2809 H   0  0  0  0  0  0  0  0  0  0  0  0
   -3.1873   -2.5755    0.8089 C   0  0  0  0  0  0  0  0  0  0  0  0
   -3.8793   -1.9065    1.3169 H   0  0  0  0  0  0  0  0  0  0  0  0
   -3.4623   -2.6685   -0.2401 H   0  0  0  0  0  0  0  0  0  0  0  0
   -1.7863   -2.0195    0.9119 C   0  0  0  0  0  0  0  0  0  0  0  0
   -0.9073   -2.6615    1.4699 O   0  0  0  0  0  0  0  0  0  0  0  0
   -1.5803   -0.8195    0.3749 N   0  0  0  0  0  0  0  0  0  0  0  0
   -2.3603   -0.3345   -0.0451 H   0  0  0  0  0  0  0  0  0  0  0  0
   -0.2933   -0.1205    0.3719 C   0  0  1  0  0  0  0  0  0  0  0  0
    0.4439   -0.7485   -0.1303 H   0  0  0  0  0  0  0  0  0  0  0  0
   -0.4368    1.1924   -0.4246 C   0  0  0  0  0  0  0  0  0  0  0  0
   -0.2178    0.9791   -1.4723 H   0  0  0  0  0  0  0  0  0  0  0  0
   -1.4677    1.5430   -0.3580 H   0  0  0  0  0  0  0  0  0  0  0  0
    0.4943    2.3187    0.0568 C   0  0  0  0  0  0  0  0  0  0  0  0
    1.5345    2.0078   -0.0412 H   0  0  0  0  0  0  0  0  0  0  0  0
    0.3283    3.2056   -0.5534 H   0  0  0  0  0  0  0  0  0  0  0  0
    0.2437    2.6927    1.5141 C   0  0  0  0  0  0  0  0  0  0  0  0
   -0.6690    2.2622    2.2007 O   0  0  0  0  0  0  0  0  0  0  0  0
    1.1103    3.5764    2.0432 O   0  0  0  0  0  0  0  0  0  0  0  0
    0.8116    3.7127    2.9440 H   0  0  0  0  0  0  0  0  0  0  0  0
    0.1871    0.1189    1.8122 C   0  0  0  0  0  0  0  0  0  0  0  0
    1.3541   -0.1171    2.1187 O   0  0  0  0  0  0  0  0  0  0  0  0
   -0.7126    0.5740    2.6926 N   0  0  0  0  0  0  0  0  0  0  0  0
   -1.6464    0.7663    2.3621 H   0  0  0  0  0  0  0  0  0  0  0  0
   -0.4191    0.8310    4.1010 C   0  0  0  0  0  0  0  0  0  0  0  0
    0.4022    1.5452    4.1828 H   0  0  0  0  0  0  0  0  0  0  0  0
   -1.2983    1.2366    4.6035 H   0  0  0  0  0  0  0  0  0  0  0  0
   -0.1204   -0.0980    4.5907 H   0  0  0  0  0  0  0  0  0  0  0  0
  5  6  2  0  0  0  0
  5  7  1  0  0  0  0
  2  3  1  0  0  0  0
  2  4  1  0  0  0  0
  2  5  1  0  0  0  0
  1  2  1  0  0  0  0
 21 22  2  0  0  0  0
 21 23  1  0  0  0  0
 19 20  1  0  0  0  0
 17 18  2  0  0  0  0
 17 19  1  0  0  0  0
 14 15  1  0  0  0  0
 14 16  1  0  0  0  0
 14 17  1  0  0  0  0
 11 12  1  0  0  0  0
 11 13  1  0  0  0  0
 11 14  1  0  0  0  0
  9 10  1  0  0  0  0
  9 11  1  0  0  0  0
  9 21  1  0  0  0  0
  7  8  1  0  0  0  0
  7  9  1  0  0  0  0
 25 26  1  0  0  0  0
 25 27  1  0  0  0  0
 25 28  1  0  0  0  0
 23 24  1  0  0  0  0
 23 25  1  0  0  0  0
M  END
$$$$
default_name
  -OEChem-02102213163D

 28 27  0     1  0  0  0  0  0999 V2000
   -3.2133   -3.5565    1.2809 H   0  0  0  0  0  0  0  0  0  0  0  0
   -3.1873   -2.5755    0.8089 C   0  0  0  0  0  0  0  0  0  0  0  0
   -3.8793   -1.9065    1.3169 H   0  0  0  0  0  0  0  0  0  0  0  0
   -3.4623   -2.6685   -0.2401 H   0  0  0  0  0  0  0  0  0  0  0  0
   -1.7863   -2.0195    0.9119 C   0  0  0  0  0  0  0  0  0  0  0  0
   -0.9073   -2.6615    1.4699 O   0  0  0  0  0  0  0  0  0  0  0  0
   -1.5803   -0.8195    0.3749 N   0  0  0  0  0  0  0  0  0  0  0  0
   -2.3603   -0.3345   -0.0451 H   0  0  0  0  0  0  0  0  0  0  0  0
   -0.2933   -0.1205    0.3719 C   0  0  1  0  0  0  0  0  0  0  0  0
    0.4439   -0.7485   -0.1303 H   0  0  0  0  0  0  0  0  0  0  0  0
   -0.4368    1.1924   -0.4246 C   0  0  0  0  0  0  0  0  0  0  0  0
   -0.2178    0.9791   -1.4723 H   0  0  0  0  0  0  0  0  0  0  0  0
   -1.4677    1.5430   -0.3580 H   0  0  0  0  0  0  0  0  0  0  0  0
    0.4943    2.3187    0.0568 C   0  0  0  0  0  0  0  0  0  0  0  0
    1.5133    2.1272   -0.2797 H   0  0  0  0  0  0  0  0  0  0  0  0
    0.1539    3.2665   -0.3584 H   0  0  0  0  0  0  0  0  0  0  0  0
    0.5100    2.4459    1.5767 C   0  0  0  0  0  0  0  0  0  0  0  0
   -0.2201    1.8322    2.3384 O   0  0  0  0  0  0  0  0  0  0  0  0
    1.4033    3.3200    2.0762 O   0  0  0  0  0  0  0  0  0  0  0  0
    1.2785    3.2914    3.0264 H   0  0  0  0  0  0  0  0  0  0  0  0
    0.1871    0.1189    1.8122 C   0  0  0  0  0  0  0  0  0  0  0  0
    1.3541   -0.1171    2.1187 O   0  0  0  0  0  0  0  0  0  0  0  0
   -0.7126    0.5740    2.6926 N   0  0  0  0  0  0  0  0  0  0  0  0
   -1.6464    0.7663    2.3621 H   0  0  0  0  0  0  0  0  0  0  0  0
   -0.4191    0.8310    4.1010 C   0  0  0  0  0  0  0  0  0  0  0  0
    0.4022    1.5452    4.1828 H   0  0  0  0  0  0  0  0  0  0  0  0
   -1.2983    1.2366    4.6035 H   0  0  0  0  0  0  0  0  0  0  0  0
   -0.1204   -0.0980    4.5907 H   0  0  0  0  0  0  0  0  0  0  0  0
  5  6  2  0  0  0  0
  5  7  1  0  0  0  0
  2  3  1  0  0  0  0
  2  4  1  0  0  0  0
  2  5  1  0  0  0  0
  1  2  1  0  0  0  0
 21 22  2  0  0  0  0
 21 23  1  0  0  0  0
 19 20  1  0  0  0  0
 17 18  2  0  0  0  0
 17 19  1  0  0  0  0
 14 15  1  0  0  0  0
 14 16  1  0  0  0  0
 14 17  1  0  0  0  0
 11 12  1  0  0  0  0
 11 13  1  0  0  0  0
 11 14  1  0  0  0  0
  9 10  1  0  0  0  0
  9 11  1  0  0  0  0
  9 21  1  0  0  0  0
  7  8  1  0  0  0  0
  7  9  1  0  0  0  0
 25 26  1  0  0  0  0
 25 27  1  0  0  0  0
 25 28  1  0  0  0  0
 23 24  1  0  0  0  0
 23 25  1  0  0  0  0
M  END
$$$$
default_name
  -OEChem-02102213163D

 28 27  0     1  0  0  0  0  0999 V2000
   -3.2133   -3.5565    1.2809 H   0  0  0  0  0  0  0  0  0  0  0  0
   -3.1873   -2.5755    0.8089 C   0  0  0  0  0  0  0  0  0  0  0  0
   -3.8793   -1.9065    1.3169 H   0  0  0  0  0  0  0  0  0  0  0  0
   -3.4623   -2.6685   -0.2401 H   0  0  0  0  0  0  0  0  0  0  0  0
   -1.7863   -2.0195    0.9119 C   0  0  0  0  0  0  0  0  0  0  0  0
   -0.9073   -2.6615    1.4699 O   0  0  0  0  0  0  0  0  0  0  0  0
   -1.5803   -0.8195    0.3749 N   0  0  0  0  0  0  0  0  0  0  0  0
   -2.3603   -0.3345   -0.0451 H   0  0  0  0  0  0  0  0  0  0  0  0
   -0.2933   -0.1205    0.3719 C   0  0  1  0  0  0  0  0  0  0  0  0
    0.4439   -0.7485   -0.1303 H   0  0  0  0  0  0  0  0  0  0  0  0
   -0.4368    1.1924   -0.4246 C   0  0  0  0  0  0  0  0  0  0  0  0
   -0.2178    0.9791   -1.4723 H   0  0  0  0  0  0  0  0  0  0  0  0
   -1.4677    1.5430   -0.3580 H   0  0  0  0  0  0  0  0  0  0  0  0
    0.4943    2.3187    0.0568 C   0  0  0  0  0  0  0  0  0  0  0  0
    1.4380    2.2782   -0.4873 H   0  0  0  0  0  0  0  0  0  0  0  0
    0.0174    3.2806   -0.1275 H   0  0  0  0  0  0  0  0  0  0  0  0
    0.7990    2.2191    1.5480 C   0  0  0  0  0  0  0  0  0  0  0  0
    0.2743    1.4317    2.3190 O   0  0  0  0  0  0  0  0  0  0  0  0
    1.7133    3.0910    2.0124 O   0  0  0  0  0  0  0  0  0  0  0  0
    1.7792    2.9094    2.9516 H   0  0  0  0  0  0  0  0  0  0  0  0
    0.1871    0.1189    1.8122 C   0  0  0  0  0  0  0  0  0  0  0  0
    1.3541   -0.1171    2.1187 O   0  0  0  0  0  0  0  0  0  0  0  0
   -0.7126    0.5740    2.6926 N   0  0  0  0  0  0  0  0  0  0  0  0
   -1.6464    0.7663    2.3621 H   0  0  0  0  0  0  0  0  0  0  0  0
   -0.4191    0.8310    4.1010 C   0  0  0  0  0  0  0  0  0  0  0  0
    0.4022    1.5452    4.1828 H   0  0  0  0  0  0  0  0  0  0  0  0
   -1.2983    1.2366    4.6035 H   0  0  0  0  0  0  0  0  0  0  0  0
   -0.1204   -0.0980    4.5907 H   0  0  0  0  0  0  0  0  0  0  0  0
  5  6  2  0  0  0  0
  5  7  1  0  0  0  0
  2  3  1  0  0  0  0
  2  4  1  0  0  0  0
  2  5  1  0  0  0  0
  1  2  1  0  0  0  0
 21 22  2  0  0  0  0
 21 23  1  0  0  0  0
 19 20  1  0  0  0  0
 17 18  2  0  0  0  0
 17 19  1  0  0  0  0
 14 15  1  0  0  0  0
 14 16  1  0  0  0  0
 14 17  1  0  0  0  0
 11 12  1  0  0  0  0
 11 13  1  0  0  0  0
 11 14  1  0  0  0  0
  9 10  1  0  0  0  0
  9 11  1  0  0  0  0
  9 21  1  0  0  0  0
  7  8  1  0  0  0  0
  7  9  1  0  0  0  0
 25 26  1  0  0  0  0
 25 27  1  0  0  0  0
 25 28  1  0  0  0  0
 23 24  1  0  0  0  0
 23 25  1  0  0  0  0
M  END
$$$$
default_name
  -OEChem-02102213163D

 28 27  0     1  0  0  0  0  0999 V2000
   -3.2133   -3.5565    1.2809 H   0  0  0  0  0  0  0  0  0  0  0  0
   -3.1873   -2.5755    0.8089 C   0  0  0  0  0  0  0  0  0  0  0  0
   -3.8793   -1.9065    1.3169 H   0  0  0  0  0  0  0  0  0  0  0  0
   -3.4623   -2.6685   -0.2401 H   0  0  0  0  0  0  0  0  0  0  0  0
   -1.7863   -2.0195    0.9119 C   0  0  0  0  0  0  0  0  0  0  0  0
   -0.9073   -2.6615    1.4699 O   0  0  0  0  0  0  0  0  0  0  0  0
   -1.5803   -0.8195    0.3749 N   0  0  0  0  0  0  0  0  0  0  0  0
   -2.3603   -0.3345   -0.0451 H   0  0  0  0  0  0  0  0  0  0  0  0
   -0.2933   -0.1205    0.3719 C   0  0  1  0  0  0  0  0  0  0  0  0
    0.4439   -0.7485   -0.1303 H   0  0  0  0  0  0  0  0  0  0  0  0
   -0.4368    1.1924   -0.4246 C   0  0  0  0  0  0  0  0  0  0  0  0
   -0.2178    0.9791   -1.4723 H   0  0  0  0  0  0  0  0  0  0  0  0
   -1.4677    1.5430   -0.3580 H   0  0  0  0  0  0  0  0  0  0  0  0
    0.4943    2.3187    0.0568 C   0  0  0  0  0  0  0  0  0  0  0  0
    1.3137    2.4505   -0.6499 H   0  0  0  0  0  0  0  0  0  0  0  0
   -0.0718    3.2470    0.1236 H   0  0  0  0  0  0  0  0  0  0  0  0
    1.0911    2.0281    1.4300 C   0  0  0  0  0  0  0  0  0  0  0  0
    0.7807    1.0879    2.1439 O   0  0  0  0  0  0  0  0  0  0  0  0
    2.0192    2.9048    1.8562 O   0  0  0  0  0  0  0  0  0  0  0  0
    2.2797    2.5927    2.7246 H   0  0  0  0  0  0  0  0  0  0  0  0
    0.1871    0.1189    1.8122 C   0  0  0  0  0  0  0  0  0  0  0  0
    1.3541   -0.1171    2.1187 O   0  0  0  0  0  0  0  0  0  0  0  0
   -0.7126    0.5740    2.6926 N   0  0  0  0  0  0  0  0  0  0  0  0
   -1.6464    0.7663    2.3621 H   0  0  0  0  0  0  0  0  0  0  0  0
   -0.4191    0.8310    4.1010 C   0  0  0  0  0  0  0  0  0  0  0  0
    0.4022    1.5452    4.1828 H   0  0  0  0  0  0  0  0  0  0  0  0
   -1.2983    1.2366    4.6035 H   0  0  0  0  0  0  0  0  0  0  0  0
   -0.1204   -0.0980    4.5907 H   0  0  0  0  0  0  0  0  0  0  0  0
  5  6  2  0  0  0  0
  5  7  1  0  0  0  0
  2  3  1  0  0  0  0
  2  4  1  0  0  0  0
  2  5  1  0  0  0  0
  1  2  1  0  0  0  0
 21 22  2  0  0  0  0
 21 23  1  0  0  0  0
 19 20  1  0  0  0  0
 17 18  2  0  0  0  0
 17 19  1  0  0  0  0
 14 15  1  0  0  0  0
 14 16  1  0  0  0  0
 14 17  1  0  0  0  0
 11 12  1  0  0  0  0
 11 13  1  0  0  0  0
 11 14  1  0  0  0  0
  9 10  1  0  0  0  0
  9 11  1  0  0  0  0
  9 21  1  0  0  0  0
  7  8  1  0  0  0  0
  7  9  1  0  0  0  0
 25 26  1  0  0  0  0
 25 27  1  0  0  0  0
 25 28  1  0  0  0  0
 23 24  1  0  0  0  0
 23 25  1  0  0  0  0
M  END
$$$$
default_name
  -OEChem-02102213163D

 28 27  0     1  0  0  0  0  0999 V2000
   -3.2133   -3.5565    1.2809 H   0  0  0  0  0  0  0  0  0  0  0  0
   -3.1873   -2.5755    0.8089 C   0  0  0  0  0  0  0  0  0  0  0  0
   -3.8793   -1.9065    1.3169 H   0  0  0  0  0  0  0  0  0  0  0  0
   -3.4623   -2.6685   -0.2401 H   0  0  0  0  0  0  0  0  0  0  0  0
   -1.7863   -2.0195    0.9119 C   0  0  0  0  0  0  0  0  0  0  0  0
   -0.9073   -2.6615    1.4699 O   0  0  0  0  0  0  0  0  0  0  0  0
   -1.5803   -0.8195    0.3749 N   0  0  0  0  0  0  0  0  0  0  0  0
   -2.3603   -0.3345   -0.0451 H   0  0  0  0  0  0  0  0  0  0  0  0
   -0.2933   -0.1205    0.3719 C   0  0  1  0  0  0  0  0  0  0  0  0
    0.4439   -0.7485   -0.1303 H   0  0  0  0  0  0  0  0  0  0  0  0
   -0.4368    1.1924   -0.4246 C   0  0  0  0  0  0  0  0  0  0  0  0
   -0.2178    0.9791   -1.4723 H   0  0  0  0  0  0  0  0  0  0  0  0
   -1.4677    1.5430   -0.3580 H   0  0  0  0  0  0  0  0  0  0  0  0
    0.4943    2.3187    0.0568 C   0  0  0  0  0  0  0  0  0  0  0  0
    1.1489    2.6324   -0.7565 H   0  0  0  0  0  0  0  0  0  0  0  0
   -0.1077    3.1680    0.3778 H   0  0  0  0  0  0  0  0  0  0  0  0
    1.3664    1.8856    1.2308 C   0  0  0  0  0  0  0  0  0  0  0  0
    1.2645    0.8243    1.8250 O   0  0  0  0  0  0  0  0  0  0  0  0
    2.3002    2.7743    1.6183 O   0  0  0  0  0  0  0  0  0  0  0  0
    2.7457    2.3629    2.3609 H   0  0  0  0  0  0  0  0  0  0  0  0
    0.1871    0.1189    1.8122 C   0  0  0  0  0  0  0  0  0  0  0  0
    1.3541   -0.1171    2.1187 O   0  0  0  0  0  0  0  0  0  0  0  0
   -0.7126    0.5740    2.6926 N   0  0  0  0  0  0  0  0  0  0  0  0
   -1.6464    0.7663    2.3621 H   0  0  0  0  0  0  0  0  0  0  0  0
   -0.4191    0.8310    4.1010 C   0  0  0  0  0  0  0  0  0  0  0  0
    0.4022    1.5452    4.1828 H   0  0  0  0  0  0  0  0  0  0  0  0
   -1.2983    1.2366    4.6035 H   0  0  0  0  0  0  0  0  0  0  0  0
   -0.1204   -0.0980    4.5907 H   0  0  0  0  0  0  0  0  0  0  0  0
  5  6  2  0  0  0  0
  5  7  1  0  0  0  0
  2  3  1  0  0  0  0
  2  4  1  0  0  0  0
  2  5  1  0  0  0  0
  1  2  1  0  0  0  0
 21 22  2  0  0  0  0
 21 23  1  0  0  0  0
 19 20  1  0  0  0  0
 17 18  2  0  0  0  0
 17 19  1  0  0  0  0
 14 15  1  0  0  0  0
 14 16  1  0  0  0  0
 14 17  1  0  0  0  0
 11 12  1  0  0  0  0
 11 13  1  0  0  0  0
 11 14  1  0  0  0  0
  9 10  1  0  0  0  0
  9 11  1  0  0  0  0
  9 21  1  0  0  0  0
  7  8  1  0  0  0  0
  7  9  1  0  0  0  0
 25 26  1  0  0  0  0
 25 27  1  0  0  0  0
 25 28  1  0  0  0  0
 23 24  1  0  0  0  0
 23 25  1  0  0  0  0
M  END
$$$$
default_name
  -OEChem-02102213163D

 28 27  0     1  0  0  0  0  0999 V2000
   -3.2133   -3.5565    1.2809 H   0  0  0  0  0  0  0  0  0  0  0  0
   -3.1873   -2.5755    0.8089 C   0  0  0  0  0  0  0  0  0  0  0  0
   -3.8793   -1.9065    1.3169 H   0  0  0  0  0  0  0  0  0  0  0  0
   -3.4623   -2.6685   -0.2401 H   0  0  0  0  0  0  0  0  0  0  0  0
   -1.7863   -2.0195    0.9119 C   0  0  0  0  0  0  0  0  0  0  0  0
   -0.9073   -2.6615    1.4699 O   0  0  0  0  0  0  0  0  0  0  0  0
   -1.5803   -0.8195    0.3749 N   0  0  0  0  0  0  0  0  0  0  0  0
   -2.3603   -0.3345   -0.0451 H   0  0  0  0  0  0  0  0  0  0  0  0
   -0.2933   -0.1205    0.3719 C   0  0  1  0  0  0  0  0  0  0  0  0
    0.4439   -0.7485   -0.1303 H   0  0  0  0  0  0  0  0  0  0  0  0
   -0.4368    1.1924   -0.4246 C   0  0  0  0  0  0  0  0  0  0  0  0
   -0.2178    0.9791   -1.4723 H   0  0  0  0  0  0  0  0  0  0  0  0
   -1.4677    1.5430   -0.3580 H   0  0  0  0  0  0  0  0  0  0  0  0
    0.4943    2.3187    0.0568 C   0  0  0  0  0  0  0  0  0  0  0  0
    0.9547    2.8113   -0.7997 H   0  0  0  0  0  0  0  0  0  0  0  0
   -0.0877    3.0489    0.6178 H   0  0  0  0  0  0  0  0  0  0  0  0
    1.6062    1.8015    0.9639 C   0  0  0  0  0  0  0  0  0  0  0  0
    1.6928    0.6588    1.3839 O   0  0  0  0  0  0  0  0  0  0  0  0
    2.5371    2.7082    1.3147 O   0  0  0  0  0  0  0  0  0  0  0  0
    3.1456    2.2356    1.8853 H   0  0  0  0  0  0  0  0  0  0  0  0
    0.1871    0.1189    1.8122 C   0  0  0  0  0  0  0  0  0  0  0  0
    1.3541   -0.1171    2.1187 O   0  0  0  0  0  0  0  0  0  0  0  0
   -0.7126    0.5740    2.6926 N   0  0  0  0  0  0  0  0  0  0  0  0
   -1.6464    0.7663    2.3621 H   0  0  0  0  0  0  0  0  0  0  0  0
   -0.4191    0.8310    4.1010 C   0  0  0  0  0  0  0  0  0  0  0  0
    0.4022    1.5452    4.1828 H   0  0  0  0  0  0  0  0  0  0  0  0
   -1.2983    1.2366    4.6035 H   0  0  0  0  0  0  0  0  0  0  0  0
   -0.1204   -0.0980    4.5907 H   0  0  0  0  0  0  0  0  0  0  0  0
  5  6  2  0  0  0  0
  5  7  1  0  0  0  0
  2  3  1  0  0  0  0
  2  4  1  0  0  0  0
  2  5  1  0  0  0  0
  1  2  1  0  0  0  0
 21 22  2  0  0  0  0
 21 23  1  0  0  0  0
 19 20  1  0  0  0  0
 17 18  2  0  0  0  0
 17 19  1  0  0  0  0
 14 15  1  0  0  0  0
 14 16  1  0  0  0  0
 14 17  1  0  0  0  0
 11 12  1  0  0  0  0
 11 13  1  0  0  0  0
 11 14  1  0  0  0  0
  9 10  1  0  0  0  0
  9 11  1  0  0  0  0
  9 21  1  0  0  0  0
  7  8  1  0  0  0  0
  7  9  1  0  0  0  0
 25 26  1  0  0  0  0
 25 27  1  0  0  0  0
 25 28  1  0  0  0  0
 23 24  1  0  0  0  0
 23 25  1  0  0  0  0
M  END
$$$$
default_name
  -OEChem-02102213163D

 28 27  0     1  0  0  0  0  0999 V2000
   -3.2133   -3.5565    1.2809 H   0  0  0  0  0  0  0  0  0  0  0  0
   -3.1873   -2.5755    0.8089 C   0  0  0  0  0  0  0  0  0  0  0  0
   -3.8793   -1.9065    1.3169 H   0  0  0  0  0  0  0  0  0  0  0  0
   -3.4623   -2.6685   -0.2401 H   0  0  0  0  0  0  0  0  0  0  0  0
   -1.7863   -2.0195    0.9119 C   0  0  0  0  0  0  0  0  0  0  0  0
   -0.9073   -2.6615    1.4699 O   0  0  0  0  0  0  0  0  0  0  0  0
   -1.5803   -0.8195    0.3749 N   0  0  0  0  0  0  0  0  0  0  0  0
   -2.3603   -0.3345   -0.0451 H   0  0  0  0  0  0  0  0  0  0  0  0
   -0.2933   -0.1205    0.3719 C   0  0  1  0  0  0  0  0  0  0  0  0
    0.4439   -0.7485   -0.1303 H   0  0  0  0  0  0  0  0  0  0  0  0
   -0.4368    1.1924   -0.4246 C   0  0  0  0  0  0  0  0  0  0  0  0
   -0.2178    0.9791   -1.4723 H   0  0  0  0  0  0  0  0  0  0  0  0
   -1.4677    1.5430   -0.3580 H   0  0  0  0  0  0  0  0  0  0  0  0
    0.4943    2.3187    0.0568 C   0  0  0  0  0  0  0  0  0  0  0  0
    0.7445    2.9752   -0.7766 H   0  0  0  0  0  0  0  0  0  0  0  0
   -0.0134    2.8979    0.8271 H   0  0  0  0  0  0  0  0  0  0  0  0
    1.7939    1.7815    0.6475 C   0  0  0  0  0  0  0  0  0  0  0  0
    2.0363    0.6027    0.8509 O   0  0  0  0  0  0  0  0  0  0  0  0
    2.7137    2.7111    0.9663 O   0  0  0  0  0  0  0  0  0  0  0  0
    3.4520    2.2195    1.3303 H   0  0  0  0  0  0  0  0  0  0  0  0
    0.1871    0.1189    1.8122 C   0  0  0  0  0  0  0  0  0  0  0  0
    1.3541   -0.1171    2.1187 O   0  0  0  0  0  0  0  0  0  0  0  0
   -0.7126    0.5740    2.6926 N   0  0  0  0  0  0  0  0  0  0  0  0
   -1.6464    0.7663    2.3621 H   0  0  0  0  0  0  0  0  0  0  0  0
   -0.4191    0.8310    4.1010 C   0  0  0  0  0  0  0  0  0  0  0  0
    0.4022    1.5452    4.1828 H   0  0  0  0  0  0  0  0  0  0  0  0
   -1.2983    1.2366    4.6035 H   0  0  0  0  0  0  0  0  0  0  0  0
   -0.1204   -0.0980    4.5907 H   0  0  0  0  0  0  0  0  0  0  0  0
  5  6  2  0  0  0  0
  5  7  1  0  0  0  0
  2  3  1  0  0  0  0
  2  4  1  0  0  0  0
  2  5  1  0  0  0  0
  1  2  1  0  0  0  0
 21 22  2  0  0  0  0
 21 23  1  0  0  0  0
 19 20  1  0  0  0  0
 17 18  2  0  0  0  0
 17 19  1  0  0  0  0
 14 15  1  0  0  0  0
 14 16  1  0  0  0  0
 14 17  1  0  0  0  0
 11 12  1  0  0  0  0
 11 13  1  0  0  0  0
 11 14  1  0  0  0  0
  9 10  1  0  0  0  0
  9 11  1  0  0  0  0
  9 21  1  0  0  0  0
  7  8  1  0  0  0  0
  7  9  1  0  0  0  0
 25 26  1  0  0  0  0
 25 27  1  0  0  0  0
 25 28  1  0  0  0  0
 23 24  1  0  0  0  0
 23 25  1  0  0  0  0
M  END
$$$$
default_name
  -OEChem-02102213163D

 28 27  0     1  0  0  0  0  0999 V2000
   -3.2133   -3.5565    1.2809 H   0  0  0  0  0  0  0  0  0  0  0  0
   -3.1873   -2.5755    0.8089 C   0  0  0  0  0  0  0  0  0  0  0  0
   -3.8793   -1.9065    1.3169 H   0  0  0  0  0  0  0  0  0  0  0  0
   -3.4623   -2.6685   -0.2401 H   0  0  0  0  0  0  0  0  0  0  0  0
   -1.7863   -2.0195    0.9119 C   0  0  0  0  0  0  0  0  0  0  0  0
   -0.9073   -2.6615    1.4699 O   0  0  0  0  0  0  0  0  0  0  0  0
   -1.5803   -0.8195    0.3749 N   0  0  0  0  0  0  0  0  0  0  0  0
   -2.3603   -0.3345   -0.0451 H   0  0  0  0  0  0  0  0  0  0  0  0
   -0.2933   -0.1205    0.3719 C   0  0  1  0  0  0  0  0  0  0  0  0
    0.4439   -0.7485   -0.1303 H   0  0  0  0  0  0  0  0  0  0  0  0
   -0.4368    1.1924   -0.4246 C   0  0  0  0  0  0  0  0  0  0  0  0
   -0.2178    0.9791   -1.4723 H   0  0  0  0  0  0  0  0  0  0  0  0
   -1.4677    1.5430   -0.3580 H   0  0  0  0  0  0  0  0  0  0  0  0
    0.4943    2.3187    0.0568 C   0  0  0  0  0  0  0  0  0  0  0  0
    0.5326    3.1129   -0.6888 H   0  0  0  0  0  0  0  0  0  0  0  0
    0.1103    2.7254    0.9916 H   0  0  0  0  0  0  0  0  0  0  0  0
    1.9170    1.8270    0.3032 C   0  0  0  0  0  0  0  0  0  0  0  0
    2.2716    0.6598    0.2621 O   0  0  0  0  0  0  0  0  0  0  0  0
    2.8181    2.7828    0.5967 O   0  0  0  0  0  0  0  0  0  0  0  0
    3.6442    2.3157    0.7336 H   0  0  0  0  0  0  0  0  0  0  0  0
    0.1871    0.1189    1.8122 C   0  0  0  0  0  0  0  0  0  0  0  0
    1.3541   -0.1171    2.1187 O   0  0  0  0  0  0  0  0  0  0  0  0
   -0.7126    0.5740    2.6926 N   0  0  0  0  0  0  0  0  0  0  0  0
   -1.6464    0.7663    2.3621 H   0  0  0  0  0  0  0  0  0  0  0  0
   -0.4191    0.8310    4.1010 C   0  0  0  0  0  0  0  0  0  0  0  0
    0.4022    1.5452    4.1828 H   0  0  0  0  0  0  0  0  0  0  0  0
   -1.2983    1.2366    4.6035 H   0  0  0  0  0  0  0  0  0  0  0  0
   -0.1204   -0.0980    4.5907 H   0  0  0  0  0  0  0  0  0  0  0  0
  5  6  2  0  0  0  0
  5  7  1  0  0  0  0
  2  3  1  0  0  0  0
  2  4  1  0  0  0  0
  2  5  1  0  0  0  0
  1  2  1  0  0  0  0
 21 22  2  0  0  0  0
 21 23  1  0  0  0  0
 19 20  1  0  0  0  0
 17 18  2  0  0  0  0
 17 19  1  0  0  0  0
 14 15  1  0  0  0  0
 14 16  1  0  0  0  0
 14 17  1  0  0  0  0
 11 12  1  0  0  0  0
 11 13  1  0  0  0  0
 11 14  1  0  0  0  0
  9 10  1  0  0  0  0
  9 11  1  0  0  0  0
  9 21  1  0  0  0  0
  7  8  1  0  0  0  0
  7  9  1  0  0  0  0
 25 26  1  0  0  0  0
 25 27  1  0  0  0  0
 25 28  1  0  0  0  0
 23 24  1  0  0  0  0
 23 25  1  0  0  0  0
M  END
$$$$
default_name
  -OEChem-02102213163D

 28 27  0     1  0  0  0  0  0999 V2000
   -3.2133   -3.5565    1.2809 H   0  0  0  0  0  0  0  0  0  0  0  0
   -3.1873   -2.5755    0.8089 C   0  0  0  0  0  0  0  0  0  0  0  0
   -3.8793   -1.9065    1.3169 H   0  0  0  0  0  0  0  0  0  0  0  0
   -3.4623   -2.6685   -0.2401 H   0  0  0  0  0  0  0  0  0  0  0  0
   -1.7863   -2.0195    0.9119 C   0  0  0  0  0  0  0  0  0  0  0  0
   -0.9073   -2.6615    1.4699 O   0  0  0  0  0  0  0  0  0  0  0  0
   -1.5803   -0.8195    0.3749 N   0  0  0  0  0  0  0  0  0  0  0  0
   -2.3603   -0.3345   -0.0451 H   0  0  0  0  0  0  0  0  0  0  0  0
   -0.2933   -0.1205    0.3719 C   0  0  1  0  0  0  0  0  0  0  0  0
    0.4439   -0.7485   -0.1303 H   0  0  0  0  0  0  0  0  0  0  0  0
   -0.4368    1.1924   -0.4246 C   0  0  0  0  0  0  0  0  0  0  0  0
   -0.2178    0.9791   -1.4723 H   0  0  0  0  0  0  0  0  0  0  0  0
   -1.4677    1.5430   -0.3580 H   0  0  0  0  0  0  0  0  0  0  0  0
    0.4943    2.3187    0.0568 C   0  0  0  0  0  0  0  0  0  0  0  0
    0.3334    3.2150   -0.5423 H   0  0  0  0  0  0  0  0  0  0  0  0
    0.2750    2.5429    1.1000 H   0  0  0  0  0  0  0  0  0  0  0  0
    1.9670    1.9348   -0.0456 C   0  0  0  0  0  0  0  0  0  0  0  0
    2.3828    0.8262   -0.3422 O   0  0  0  0  0  0  0  0  0  0  0  0
    2.8431    2.9184    0.2311 O   0  0  0  0  0  0  0  0  0  0  0  0
    3.7089    2.5177    0.1358 H   0  0  0  0  0  0  0  0  0  0  0  0
    0.1871    0.1189    1.8122 C   0  0  0  0  0  0  0  0  0  0  0  0
    1.3541   -0.1171    2.1187 O   0  0  0  0  0  0  0  0  0  0  0  0
   -0.7126    0.5740    2.6926 N   0  0  0  0  0  0  0  0  0  0  0  0
   -1.6464    0.7663    2.3621 H   0  0  0  0  0  0  0  0  0  0  0  0
   -0.4191    0.8310    4.1010 C   0  0  0  0  0  0  0  0  0  0  0  0
    0.4022    1.5452    4.1828 H   0  0  0  0  0  0  0  0  0  0  0  0
   -1.2983    1.2366    4.6035 H   0  0  0  0  0  0  0  0  0  0  0  0
   -0.1204   -0.0980    4.5907 H   0  0  0  0  0  0  0  0  0  0  0  0
  5  6  2  0  0  0  0
  5  7  1  0  0  0  0
  2  3  1  0  0  0  0
  2  4  1  0  0  0  0
  2  5  1  0  0  0  0
  1  2  1  0  0  0  0
 21 22  2  0  0  0  0
 21 23  1  0  0  0  0
 19 20  1  0  0  0  0
 17 18  2  0  0  0  0
 17 19  1  0  0  0  0
 14 15  1  0  0  0  0
 14 16  1  0  0  0  0
 14 17  1  0  0  0  0
 11 12  1  0  0  0  0
 11 13  1  0  0  0  0
 11 14  1  0  0  0  0
  9 10  1  0  0  0  0
  9 11  1  0  0  0  0
  9 21  1  0  0  0  0
  7  8  1  0  0  0  0
  7  9  1  0  0  0  0
 25 26  1  0  0  0  0
 25 27  1  0  0  0  0
 25 28  1  0  0  0  0
 23 24  1  0  0  0  0
 23 25  1  0  0  0  0
M  END
$$$$
default_name
  -OEChem-02102213163D

 28 27  0     1  0  0  0  0  0999 V2000
   -3.2133   -3.5565    1.2809 H   0  0  0  0  0  0  0  0  0  0  0  0
   -3.1873   -2.5755    0.8089 C   0  0  0  0  0  0  0  0  0  0  0  0
   -3.8793   -1.9065    1.3169 H   0  0  0  0  0  0  0  0  0  0  0  0
   -3.4623   -2.6685   -0.2401 H   0  0  0  0  0  0  0  0  0  0  0  0
   -1.7863   -2.0195    0.9119 C   0  0  0  0  0  0  0  0  0  0  0  0
   -0.9073   -2.6615    1.4699 O   0  0  0  0  0  0  0  0  0  0  0  0
   -1.5803   -0.8195    0.3749 N   0  0  0  0  0  0  0  0  0  0  0  0
   -2.3603   -0.3345   -0.0451 H   0  0  0  0  0  0  0  0  0  0  0  0
   -0.2933   -0.1205    0.3719 C   0  0  1  0  0  0  0  0  0  0  0  0
    0.4439   -0.7485   -0.1303 H   0  0  0  0  0  0  0  0  0  0  0  0
   -0.4368    1.1924   -0.4246 C   0  0  0  0  0  0  0  0  0  0  0  0
   -0.2178    0.9791   -1.4723 H   0  0  0  0  0  0  0  0  0  0  0  0
   -1.4677    1.5430   -0.3580 H   0  0  0  0  0  0  0  0  0  0  0  0
    0.4943    2.3187    0.0568 C   0  0  0  0  0  0  0  0  0  0  0  0
    0.1604    3.2745   -0.3470 H   0  0  0  0  0  0  0  0  0  0  0  0
    0.4693    2.3630    1.1450 H   0  0  0  0  0  0  0  0  0  0  0  0
    1.9404    2.0976   -0.3750 C   0  0  0  0  0  0  0  0  0  0  0  0
    2.3622    1.0907   -0.9210 O   0  0  0  0  0  0  0  0  0  0  0  0
    2.7870    3.1086   -0.1055 O   0  0  0  0  0  0  0  0  0  0  0  0
    3.6419    2.8117   -0.4222 H   0  0  0  0  0  0  0  0  0  0  0  0
    0.1871    0.1189    1.8122 C   0  0  0  0  0  0  0  0  0  0  0  0
    1.3541   -0.1171    2.1187 O   0  0  0  0  0  0  0  0  0  0  0  0
   -0.7126    0.5740    2.6926 N   0  0  0  0  0  0  0  0  0  0  0  0
   -1.6464    0.7663    2.3621 H   0  0  0  0  0  0  0  0  0  0  0  0
   -0.4191    0.8310    4.1010 C   0  0  0  0  0  0  0  0  0  0  0  0
    0.4022    1.5452    4.1828 H   0  0  0  0  0  0  0  0  0  0  0  0
   -1.2983    1.2366    4.6035 H   0  0  0  0  0  0  0  0  0  0  0  0
   -0.1204   -0.0980    4.5907 H   0  0  0  0  0  0  0  0  0  0  0  0
  5  6  2  0  0  0  0
  5  7  1  0  0  0  0
  2  3  1  0  0  0  0
  2  4  1  0  0  0  0
  2  5  1  0  0  0  0
  1  2  1  0  0  0  0
 21 22  2  0  0  0  0
 21 23  1  0  0  0  0
 19 20  1  0  0  0  0
 17 18  2  0  0  0  0
 17 19  1  0  0  0  0
 14 15  1  0  0  0  0
 14 16  1  0  0  0  0
 14 17  1  0  0  0  0
 11 12  1  0  0  0  0
 11 13  1  0  0  0  0
 11 14  1  0  0  0  0
  9 10  1  0  0  0  0
  9 11  1  0  0  0  0
  9 21  1  0  0  0  0
  7  8  1  0  0  0  0
  7  9  1  0  0  0  0
 25 26  1  0  0  0  0
 25 27  1  0  0  0  0
 25 28  1  0  0  0  0
 23 24  1  0  0  0  0
 23 25  1  0  0  0  0
M  END
$$$$
default_name
  -OEChem-02102213163D

 28 27  0     1  0  0  0  0  0999 V2000
   -3.2133   -3.5565    1.2809 H   0  0  0  0  0  0  0  0  0  0  0  0
   -3.1873   -2.5755    0.8089 C   0  0  0  0  0  0  0  0  0  0  0  0
   -3.8793   -1.9065    1.3169 H   0  0  0  0  0  0  0  0  0  0  0  0
   -3.4623   -2.6685   -0.2401 H   0  0  0  0  0  0  0  0  0  0  0  0
   -1.7863   -2.0195    0.9119 C   0  0  0  0  0  0  0  0  0  0  0  0
   -0.9073   -2.6615    1.4699 O   0  0  0  0  0  0  0  0  0  0  0  0
   -1.5803   -0.8195    0.3749 N   0  0  0  0  0  0  0  0  0  0  0  0
   -2.3603   -0.3345   -0.0451 H   0  0  0  0  0  0  0  0  0  0  0  0
   -0.2933   -0.1205    0.3719 C   0  0  1  0  0  0  0  0  0  0  0  0
    0.4439   -0.7485   -0.1303 H   0  0  0  0  0  0  0  0  0  0  0  0
   -0.4368    1.1924   -0.4246 C   0  0  0  0  0  0  0  0  0  0  0  0
   -0.2178    0.9791   -1.4723 H   0  0  0  0  0  0  0  0  0  0  0  0
   -1.4677    1.5430   -0.3580 H   0  0  0  0  0  0  0  0  0  0  0  0
    0.4943    2.3187    0.0568 C   0  0  0  0  0  0  0  0  0  0  0  0
    0.0255    3.2874   -0.1163 H   0  0  0  0  0  0  0  0  0  0  0  0
    0.6801    2.1980    1.1234 H   0  0  0  0  0  0  0  0  0  0  0  0
    1.8391    2.3043   -0.6627 C   0  0  0  0  0  0  0  0  0  0  0  0
    2.2112    1.4351   -1.4347 O   0  0  0  0  0  0  0  0  0  0  0  0
    2.6537    3.3406   -0.3901 O   0  0  0  0  0  0  0  0  0  0  0  0
    3.4476    3.1776   -0.9024 H   0  0  0  0  0  0  0  0  0  0  0  0
    0.1871    0.1189    1.8122 C   0  0  0  0  0  0  0  0  0  0  0  0
    1.3541   -0.1171    2.1187 O   0  0  0  0  0  0  0  0  0  0  0  0
   -0.7126    0.5740    2.6926 N   0  0  0  0  0  0  0  0  0  0  0  0
   -1.6464    0.7663    2.3621 H   0  0  0  0  0  0  0  0  0  0  0  0
   -0.4191    0.8310    4.1010 C   0  0  0  0  0  0  0  0  0  0  0  0
    0.4022    1.5452    4.1828 H   0  0  0  0  0  0  0  0  0  0  0  0
   -1.2983    1.2366    4.6035 H   0  0  0  0  0  0  0  0  0  0  0  0
   -0.1204   -0.0980    4.5907 H   0  0  0  0  0  0  0  0  0  0  0  0
  5  6  2  0  0  0  0
  5  7  1  0  0  0  0
  2  3  1  0  0  0  0
  2  4  1  0  0  0  0
  2  5  1  0  0  0  0
  1  2  1  0  0  0  0
 21 22  2  0  0  0  0
 21 23  1  0  0  0  0
 19 20  1  0  0  0  0
 17 18  2  0  0  0  0
 17 19  1  0  0  0  0
 14 15  1  0  0  0  0
 14 16  1  0  0  0  0
 14 17  1  0  0  0  0
 11 12  1  0  0  0  0
 11 13  1  0  0  0  0
 11 14  1  0  0  0  0
  9 10  1  0  0  0  0
  9 11  1  0  0  0  0
  9 21  1  0  0  0  0
  7  8  1  0  0  0  0
  7  9  1  0  0  0  0
 25 26  1  0  0  0  0
 25 27  1  0  0  0  0
 25 28  1  0  0  0  0
 23 24  1  0  0  0  0
 23 25  1  0  0  0  0
M  END
$$$$
default_name
  -OEChem-02102213163D

 28 27  0     1  0  0  0  0  0999 V2000
   -3.2133   -3.5565    1.2809 H   0  0  0  0  0  0  0  0  0  0  0  0
   -3.1873   -2.5755    0.8089 C   0  0  0  0  0  0  0  0  0  0  0  0
   -3.8793   -1.9065    1.3169 H   0  0  0  0  0  0  0  0  0  0  0  0
   -3.4623   -2.6685   -0.2401 H   0  0  0  0  0  0  0  0  0  0  0  0
   -1.7863   -2.0195    0.9119 C   0  0  0  0  0  0  0  0  0  0  0  0
   -0.9073   -2.6615    1.4699 O   0  0  0  0  0  0  0  0  0  0  0  0
   -1.5803   -0.8195    0.3749 N   0  0  0  0  0  0  0  0  0  0  0  0
   -2.3603   -0.3345   -0.0451 H   0  0  0  0  0  0  0  0  0  0  0  0
   -0.2933   -0.1205    0.3719 C   0  0  1  0  0  0  0  0  0  0  0  0
    0.4439   -0.7485   -0.1303 H   0  0  0  0  0  0  0  0  0  0  0  0
   -0.4368    1.1924   -0.4246 C   0  0  0  0  0  0  0  0  0  0  0  0
   -0.2178    0.9791   -1.4723 H   0  0  0  0  0  0  0  0  0  0  0  0
   -1.4677    1.5430   -0.3580 H   0  0  0  0  0  0  0  0  0  0  0  0
    0.4943    2.3187    0.0568 C   0  0  0  0  0  0  0  0  0  0  0  0
   -0.0621    3.2528    0.1341 H   0  0  0  0  0  0  0  0  0  0  0  0
    0.8930    2.0590    1.0368 H   0  0  0  0  0  0  0  0  0  0  0  0
    1.6701    2.5408   -0.8891 C   0  0  0  0  0  0  0  0  0  0  0  0
    1.9401    1.8360   -1.8483 O   0  0  0  0  0  0  0  0  0  0  0  0
    2.4521    3.5984   -0.6035 O   0  0  0  0  0  0  0  0  0  0  0  0
    3.1393    3.5905   -1.2721 H   0  0  0  0  0  0  0  0  0  0  0  0
    0.1871    0.1189    1.8122 C   0  0  0  0  0  0  0  0  0  0  0  0
    1.3541   -0.1171    2.1187 O   0  0  0  0  0  0  0  0  0  0  0  0
   -0.7126    0.5740    2.6926 N   0  0  0  0  0  0  0  0  0  0  0  0
   -1.6464    0.7663    2.3621 H   0  0  0  0  0  0  0  0  0  0  0  0
   -0.4191    0.8310    4.1010 C   0  0  0  0  0  0  0  0  0  0  0  0
    0.4022    1.5452    4.1828 H   0  0  0  0  0  0  0  0  0  0  0  0
   -1.2983    1.2366    4.6035 H   0  0  0  0  0  0  0  0  0  0  0  0
   -0.1204   -0.0980    4.5907 H   0  0  0  0  0  0  0  0  0  0  0  0
  5  6  2  0  0  0  0
  5  7  1  0  0  0  0
  2  3  1  0  0  0  0
  2  4  1  0  0  0  0
  2  5  1  0  0  0  0
  1  2  1  0  0  0  0
 21 22  2  0  0  0  0
 21 23  1  0  0  0  0
 19 20  1  0  0  0  0
 17 18  2  0  0  0  0
 17 19  1  0  0  0  0
 14 15  1  0  0  0  0
 14 16  1  0  0  0  0
 14 17  1  0  0  0  0
 11 12  1  0  0  0  0
 11 13  1  0  0  0  0
 11 14  1  0  0  0  0
  9 10  1  0  0  0  0
  9 11  1  0  0  0  0
  9 21  1  0  0  0  0
  7  8  1  0  0  0  0
  7  9  1  0  0  0  0
 25 26  1  0  0  0  0
 25 27  1  0  0  0  0
 25 28  1  0  0  0  0
 23 24  1  0  0  0  0
 23 25  1  0  0  0  0
M  END
$$$$
default_name
  -OEChem-02102213163D

 28 27  0     1  0  0  0  0  0999 V2000
   -3.2133   -3.5565    1.2809 H   0  0  0  0  0  0  0  0  0  0  0  0
   -3.1873   -2.5755    0.8089 C   0  0  0  0  0  0  0  0  0  0  0  0
   -3.8793   -1.9065    1.3169 H   0  0  0  0  0  0  0  0  0  0  0  0
   -3.4623   -2.6685   -0.2401 H   0  0  0  0  0  0  0  0  0  0  0  0
   -1.7863   -2.0195    0.9119 C   0  0  0  0  0  0  0  0  0  0  0  0
   -0.9073   -2.6615    1.4699 O   0  0  0  0  0  0  0  0  0  0  0  0
   -1.5803   -0.8195    0.3749 N   0  0  0  0  0  0  0  0  0  0  0  0
   -2.3603   -0.3345   -0.0451 H   0  0  0  0  0  0  0  0  0  0  0  0
   -0.2933   -0.1205    0.3719 C   0  0  1  0  0  0  0  0  0  0  0  0
    0.4439   -0.7485   -0.1303 H   0  0  0  0  0  0  0  0  0  0  0  0
   -0.4368    1.1924   -0.4246 C   0  0  0  0  0  0  0  0  0  0  0  0
   -0.2178    0.9791   -1.4723 H   0  0  0  0  0  0  0  0  0  0  0  0
   -1.4677    1.5430   -0.3580 H   0  0  0  0  0  0  0  0  0  0  0  0
    0.4943    2.3187    0.0568 C   0  0  0  0  0  0  0  0  0  0  0  0
   -0.0965    3.1731    0.3872 H   0  0  0  0  0  0  0  0  0  0  0  0
    1.0935    1.9556    0.8910 H   0  0  0  0  0  0  0  0  0  0  0  0
    1.4447    2.7911   -1.0387 C   0  0  0  0  0  0  0  0  0  0  0  0
    1.5675    2.2661   -2.1337 O   0  0  0  0  0  0  0  0  0  0  0  0
    2.1962    3.8646   -0.7311 O   0  0  0  0  0  0  0  0  0  0  0  0
    2.7380    4.0223   -1.5062 H   0  0  0  0  0  0  0  0  0  0  0  0
    0.1871    0.1189    1.8122 C   0  0  0  0  0  0  0  0  0  0  0  0
    1.3541   -0.1171    2.1187 O   0  0  0  0  0  0  0  0  0  0  0  0
   -0.7126    0.5740    2.6926 N   0  0  0  0  0  0  0  0  0  0  0  0
   -1.6464    0.7663    2.3621 H   0  0  0  0  0  0  0  0  0  0  0  0
   -0.4191    0.8310    4.1010 C   0  0  0  0  0  0  0  0  0  0  0  0
    0.4022    1.5452    4.1828 H   0  0  0  0  0  0  0  0  0  0  0  0
   -1.2983    1.2366    4.6035 H   0  0  0  0  0  0  0  0  0  0  0  0
   -0.1204   -0.0980    4.5907 H   0  0  0  0  0  0  0  0  0  0  0  0
  5  6  2  0  0  0  0
  5  7  1  0  0  0  0
  2  3  1  0  0  0  0
  2  4  1  0  0  0  0
  2  5  1  0  0  0  0
  1  2  1  0  0  0  0
 21 22  2  0  0  0  0
 21 23  1  0  0  0  0
 19 20  1  0  0  0  0
 17 18  2  0  0  0  0
 17 19  1  0  0  0  0
 14 15  1  0  0  0  0
 14 16  1  0  0  0  0
 14 17  1  0  0  0  0
 11 12  1  0  0  0  0
 11 13  1  0  0  0  0
 11 14  1  0  0  0  0
  9 10  1  0  0  0  0
  9 11  1  0  0  0  0
  9 21  1  0  0  0  0
  7  8  1  0  0  0  0
  7  9  1  0  0  0  0
 25 26  1  0  0  0  0
 25 27  1  0  0  0  0
 25 28  1  0  0  0  0
 23 24  1  0  0  0  0
 23 25  1  0  0  0  0
M  END
$$$$
default_name
  -OEChem-02102213163D

 28 27  0     1  0  0  0  0  0999 V2000
   -3.2133   -3.5565    1.2809 H   0  0  0  0  0  0  0  0  0  0  0  0
   -3.1873   -2.5755    0.8089 C   0  0  0  0  0  0  0  0  0  0  0  0
   -3.8793   -1.9065    1.3169 H   0  0  0  0  0  0  0  0  0  0  0  0
   -3.4623   -2.6685   -0.2401 H   0  0  0  0  0  0  0  0  0  0  0  0
   -1.7863   -2.0195    0.9119 C   0  0  0  0  0  0  0  0  0  0  0  0
   -0.9073   -2.6615    1.4699 O   0  0  0  0  0  0  0  0  0  0  0  0
   -1.5803   -0.8195    0.3749 N   0  0  0  0  0  0  0  0  0  0  0  0
   -2.3603   -0.3345   -0.0451 H   0  0  0  0  0  0  0  0  0  0  0  0
   -0.2933   -0.1205    0.3719 C   0  0  1  0  0  0  0  0  0  0  0  0
    0.4439   -0.7485   -0.1303 H   0  0  0  0  0  0  0  0  0  0  0  0
   -0.4368    1.1924   -0.4246 C   0  0  0  0  0  0  0  0  0  0  0  0
   -0.2178    0.9791   -1.4723 H   0  0  0  0  0  0  0  0  0  0  0  0
   -1.4677    1.5430   -0.3580 H   0  0  0  0  0  0  0  0  0  0  0  0
    0.4943    2.3187    0.0568 C   0  0  0  0  0  0  0  0  0  0  0  0
   -0.0753    3.0536    0.6256 H   0  0  0  0  0  0  0  0  0  0  0  0
    1.2679    1.8947    0.6960 H   0  0  0  0  0  0  0  0  0  0  0  0
    1.1785    3.0379   -1.1012 C   0  0  0  0  0  0  0  0  0  0  0  0
    1.1186    2.6960   -2.2714 O   0  0  0  0  0  0  0  0  0  0  0  0
    1.9032    4.1209   -0.7641 O   0  0  0  0  0  0  0  0  0  0  0  0
    2.2711    4.4436   -1.5886 H   0  0  0  0  0  0  0  0  0  0  0  0
    0.1871    0.1189    1.8122 C   0  0  0  0  0  0  0  0  0  0  0  0
    1.3541   -0.1171    2.1187 O   0  0  0  0  0  0  0  0  0  0  0  0
   -0.7126    0.5740    2.6926 N   0  0  0  0  0  0  0  0  0  0  0  0
   -1.6464    0.7663    2.3621 H   0  0  0  0  0  0  0  0  0  0  0  0
   -0.4191    0.8310    4.1010 C   0  0  0  0  0  0  0  0  0  0  0  0
    0.4022    1.5452    4.1828 H   0  0  0  0  0  0  0  0  0  0  0  0
   -1.2983    1.2366    4.6035 H   0  0  0  0  0  0  0  0  0  0  0  0
   -0.1204   -0.0980    4.5907 H   0  0  0  0  0  0  0  0  0  0  0  0
  5  6  2  0  0  0  0
  5  7  1  0  0  0  0
  2  3  1  0  0  0  0
  2  4  1  0  0  0  0
  2  5  1  0  0  0  0
  1  2  1  0  0  0  0
 21 22  2  0  0  0  0
 21 23  1  0  0  0  0
 19 20  1  0  0  0  0
 17 18  2  0  0  0  0
 17 19  1  0  0  0  0
 14 15  1  0  0  0  0
 14 16  1  0  0  0  0
 14 17  1  0  0  0  0
 11 12  1  0  0  0  0
 11 13  1  0  0  0  0
 11 14  1  0  0  0  0
  9 10  1  0  0  0  0
  9 11  1  0  0  0  0
  9 21  1  0  0  0  0
  7  8  1  0  0  0  0
  7  9  1  0  0  0  0
 25 26  1  0  0  0  0
 25 27  1  0  0  0  0
 25 28  1  0  0  0  0
 23 24  1  0  0  0  0
 23 25  1  0  0  0  0
M  END
$$$$
default_name
  -OEChem-02102213163D

 28 27  0     1  0  0  0  0  0999 V2000
   -3.2133   -3.5565    1.2809 H   0  0  0  0  0  0  0  0  0  0  0  0
   -3.1873   -2.5755    0.8089 C   0  0  0  0  0  0  0  0  0  0  0  0
   -3.8793   -1.9065    1.3169 H   0  0  0  0  0  0  0  0  0  0  0  0
   -3.4623   -2.6685   -0.2401 H   0  0  0  0  0  0  0  0  0  0  0  0
   -1.7863   -2.0195    0.9119 C   0  0  0  0  0  0  0  0  0  0  0  0
   -0.9073   -2.6615    1.4699 O   0  0  0  0  0  0  0  0  0  0  0  0
   -1.5803   -0.8195    0.3749 N   0  0  0  0  0  0  0  0  0  0  0  0
   -2.3603   -0.3345   -0.0451 H   0  0  0  0  0  0  0  0  0  0  0  0
   -0.2933   -0.1205    0.3719 C   0  0  1  0  0  0  0  0  0  0  0  0
    0.4439   -0.7485   -0.1303 H   0  0  0  0  0  0  0  0  0  0  0  0
   -0.4368    1.1924   -0.4246 C   0  0  0  0  0  0  0  0  0  0  0  0
   -0.2178    0.9791   -1.4723 H   0  0  0  0  0  0  0  0  0  0  0  0
   -1.4677    1.5430   -0.3580 H   0  0  0  0  0  0  0  0  0  0  0  0
    0.4943    2.3187    0.0568 C   0  0  0  0  0  0  0  0  0  0  0  0
   -0.0000    2.9026    0.8332 H   0  0  0  0  0  0  0  0  0  0  0  0
    1.4044    1.8806    0.4651 H   0  0  0  0  0  0  0  0  0  0  0  0
    0.8894    3.2646   -1.0726 C   0  0  0  0  0  0  0  0  0  0  0  0
    0.6242    3.0966   -2.2521 O   0  0  0  0  0  0  0  0  0  0  0  0
    1.5932    4.3499   -0.7004 O   0  0  0  0  0  0  0  0  0  0  0  0
    1.7704    4.8256   -1.5138 H   0  0  0  0  0  0  0  0  0  0  0  0
    0.1871    0.1189    1.8122 C   0  0  0  0  0  0  0  0  0  0  0  0
    1.3541   -0.1171    2.1187 O   0  0  0  0  0  0  0  0  0  0  0  0
   -0.7126    0.5740    2.6926 N   0  0  0  0  0  0  0  0  0  0  0  0
   -1.6464    0.7663    2.3621 H   0  0  0  0  0  0  0  0  0  0  0  0
   -0.4191    0.8310    4.1010 C   0  0  0  0  0  0  0  0  0  0  0  0
    0.4022    1.5452    4.1828 H   0  0  0  0  0  0  0  0  0  0  0  0
   -1.2983    1.2366    4.6035 H   0  0  0  0  0  0  0  0  0  0  0  0
   -0.1204   -0.0980    4.5907 H   0  0  0  0  0  0  0  0  0  0  0  0
  5  6  2  0  0  0  0
  5  7  1  0  0  0  0
  2  3  1  0  0  0  0
  2  4  1  0  0  0  0
  2  5  1  0  0  0  0
  1  2  1  0  0  0  0
 21 22  2  0  0  0  0
 21 23  1  0  0  0  0
 19 20  1  0  0  0  0
 17 18  2  0  0  0  0
 17 19  1  0  0  0  0
 14 15  1  0  0  0  0
 14 16  1  0  0  0  0
 14 17  1  0  0  0  0
 11 12  1  0  0  0  0
 11 13  1  0  0  0  0
 11 14  1  0  0  0  0
  9 10  1  0  0  0  0
  9 11  1  0  0  0  0
  9 21  1  0  0  0  0
  7  8  1  0  0  0  0
  7  9  1  0  0  0  0
 25 26  1  0  0  0  0
 25 27  1  0  0  0  0
 25 28  1  0  0  0  0
 23 24  1  0  0  0  0
 23 25  1  0  0  0  0
M  END
$$$$
default_name
  -OEChem-02102213163D

 28 27  0     1  0  0  0  0  0999 V2000
   -3.2133   -3.5565    1.2809 H   0  0  0  0  0  0  0  0  0  0  0  0
   -3.1873   -2.5755    0.8089 C   0  0  0  0  0  0  0  0  0  0  0  0
   -3.8793   -1.9065    1.3169 H   0  0  0  0  0  0  0  0  0  0  0  0
   -3.4623   -2.6685   -0.2401 H   0  0  0  0  0  0  0  0  0  0  0  0
   -1.7863   -2.0195    0.9119 C   0  0  0  0  0  0  0  0  0  0  0  0
   -0.9073   -2.6615    1.4699 O   0  0  0  0  0  0  0  0  0  0  0  0
   -1.5803   -0.8195    0.3749 N   0  0  0  0  0  0  0  0  0  0  0  0
   -2.3603   -0.3345   -0.0451 H   0  0  0  0  0  0  0  0  0  0  0  0
   -0.2933   -0.1205    0.3719 C   0  0  1  0  0  0  0  0  0  0  0  0
    0.4439   -0.7485   -0.1303 H   0  0  0  0  0  0  0  0  0  0  0  0
   -0.4368    1.1924   -0.4246 C   0  0  0  0  0  0  0  0  0  0  0  0
   -0.2178    0.9791   -1.4723 H   0  0  0  0  0  0  0  0  0  0  0  0
   -1.4677    1.5430   -0.3580 H   0  0  0  0  0  0  0  0  0  0  0  0
    0.4943    2.3187    0.0568 C   0  0  0  0  0  0  0  0  0  0  0  0
    0.1243    2.7303    0.9959 H   0  0  0  0  0  0  0  0  0  0  0  0
    1.4936    1.9142    0.2139 H   0  0  0  0  0  0  0  0  0  0  0  0
    0.5973    3.4557   -0.9546 C   0  0  0  0  0  0  0  0  0  0  0  0
    0.1178    3.4403   -2.0769 O   0  0  0  0  0  0  0  0  0  0  0  0
    1.2873    4.5361   -0.5442 O   0  0  0  0  0  0  0  0  0  0  0  0
    1.2699    5.1423   -1.2868 H   0  0  0  0  0  0  0  0  0  0  0  0
    0.1871    0.1189    1.8122 C   0  0  0  0  0  0  0  0  0  0  0  0
    1.3541   -0.1171    2.1187 O   0  0  0  0  0  0  0  0  0  0  0  0
   -0.7126    0.5740    2.6926 N   0  0  0  0  0  0  0  0  0  0  0  0
   -1.6464    0.7663    2.3621 H   0  0  0  0  0  0  0  0  0  0  0  0
   -0.4191    0.8310    4.1010 C   0  0  0  0  0  0  0  0  0  0  0  0
    0.4022    1.5452    4.1828 H   0  0  0  0  0  0  0  0  0  0  0  0
   -1.2983    1.2366    4.6035 H   0  0  0  0  0  0  0  0  0  0  0  0
   -0.1204   -0.0980    4.5907 H   0  0  0  0  0  0  0  0  0  0  0  0
  5  6  2  0  0  0  0
  5  7  1  0  0  0  0
  2  3  1  0  0  0  0
  2  4  1  0  0  0  0
  2  5  1  0  0  0  0
  1  2  1  0  0  0  0
 21 22  2  0  0  0  0
 21 23  1  0  0  0  0
 19 20  1  0  0  0  0
 17 18  2  0  0  0  0
 17 19  1  0  0  0  0
 14 15  1  0  0  0  0
 14 16  1  0  0  0  0
 14 17  1  0  0  0  0
 11 12  1  0  0  0  0
 11 13  1  0  0  0  0
 11 14  1  0  0  0  0
  9 10  1  0  0  0  0
  9 11  1  0  0  0  0
  9 21  1  0  0  0  0
  7  8  1  0  0  0  0
  7  9  1  0  0  0  0
 25 26  1  0  0  0  0
 25 27  1  0  0  0  0
 25 28  1  0  0  0  0
 23 24  1  0  0  0  0
 23 25  1  0  0  0  0
M  END
$$$$
default_name
  -OEChem-02102213163D

 28 27  0     1  0  0  0  0  0999 V2000
   -3.2133   -3.5565    1.2809 H   0  0  0  0  0  0  0  0  0  0  0  0
   -3.1873   -2.5755    0.8089 C   0  0  0  0  0  0  0  0  0  0  0  0
   -3.8793   -1.9065    1.3169 H   0  0  0  0  0  0  0  0  0  0  0  0
   -3.4623   -2.6685   -0.2401 H   0  0  0  0  0  0  0  0  0  0  0  0
   -1.7863   -2.0195    0.9119 C   0  0  0  0  0  0  0  0  0  0  0  0
   -0.9073   -2.6615    1.4699 O   0  0  0  0  0  0  0  0  0  0  0  0
   -1.5803   -0.8195    0.3749 N   0  0  0  0  0  0  0  0  0  0  0  0
   -2.3603   -0.3345   -0.0451 H   0  0  0  0  0  0  0  0  0  0  0  0
   -0.2933   -0.1205    0.3719 C   0  0  1  0  0  0  0  0  0  0  0  0
    0.4439   -0.7485   -0.1303 H   0  0  0  0  0  0  0  0  0  0  0  0
   -0.4368    1.1924   -0.4246 C   0  0  0  0  0  0  0  0  0  0  0  0
   -0.4857    0.9417   -1.4857 H   0  0  0  0  0  0  0  0  0  0  0  0
   -1.3722    1.6809   -0.1479 H   0  0  0  0  0  0  0  0  0  0  0  0
    0.7172    2.1855   -0.2028 C   0  0  0  0  0  0  0  0  0  0  0  0
    0.7812    2.4507    0.8526 H   0  0  0  0  0  0  0  0  0  0  0  0
    1.6532    1.7211   -0.5111 H   0  0  0  0  0  0  0  0  0  0  0  0
    0.5380    3.4691   -1.0070 C   0  0  0  0  0  0  0  0  0  0  0  0
   -0.3354    3.6586   -1.8382 O   0  0  0  0  0  0  0  0  0  0  0  0
    1.4389    4.4383   -0.7604 O   0  0  0  0  0  0  0  0  0  0  0  0
    1.1988    5.1592   -1.3452 H   0  0  0  0  0  0  0  0  0  0  0  0
    0.1871    0.1189    1.8122 C   0  0  0  0  0  0  0  0  0  0  0  0
    1.3541   -0.1171    2.1187 O   0  0  0  0  0  0  0  0  0  0  0  0
   -0.7126    0.5740    2.6926 N   0  0  0  0  0  0  0  0  0  0  0  0
   -1.6464    0.7663    2.3621 H   0  0  0  0  0  0  0  0  0  0  0  0
   -0.4191    0.8310    4.1010 C   0  0  0  0  0  0  0  0  0  0  0  0
    0.4022    1.5452    4.1828 H   0  0  0  0  0  0  0  0  0  0  0  0
   -1.2983    1.2366    4.6035 H   0  0  0  0  0  0  0  0  0  0  0  0
   -0.1204   -0.0980    4.5907 H   0  0  0  0  0  0  0  0  0  0  0  0
  5  6  2  0  0  0  0
  5  7  1  0  0  0  0
  2  3  1  0  0  0  0
  2  4  1  0  0  0  0
  2  5  1  0  0  0  0
  1  2  1  0  0  0  0
 21 22  2  0  0  0  0
 21 23  1  0  0  0  0
 19 20  1  0  0  0  0
 17 18  2  0  0  0  0
 17 19  1  0  0  0  0
 14 15  1  0  0  0  0
 14 16  1  0  0  0  0
 14 17  1  0  0  0  0
 11 12  1  0  0  0  0
 11 13  1  0  0  0  0
 11 14  1  0  0  0  0
  9 10  1  0  0  0  0
  9 11  1  0  0  0  0
  9 21  1  0  0  0  0
  7  8  1  0  0  0  0
  7  9  1  0  0  0  0
 25 26  1  0  0  0  0
 25 27  1  0  0  0  0
 25 28  1  0  0  0  0
 23 24  1  0  0  0  0
 23 25  1  0  0  0  0
M  END
$$$$
default_name
  -OEChem-02102213163D

 28 27  0     1  0  0  0  0  0999 V2000
   -3.2133   -3.5565    1.2809 H   0  0  0  0  0  0  0  0  0  0  0  0
   -3.1873   -2.5755    0.8089 C   0  0  0  0  0  0  0  0  0  0  0  0
   -3.8793   -1.9065    1.3169 H   0  0  0  0  0  0  0  0  0  0  0  0
   -3.4623   -2.6685   -0.2401 H   0  0  0  0  0  0  0  0  0  0  0  0
   -1.7863   -2.0195    0.9119 C   0  0  0  0  0  0  0  0  0  0  0  0
   -0.9073   -2.6615    1.4699 O   0  0  0  0  0  0  0  0  0  0  0  0
   -1.5803   -0.8195    0.3749 N   0  0  0  0  0  0  0  0  0  0  0  0
   -2.3603   -0.3345   -0.0451 H   0  0  0  0  0  0  0  0  0  0  0  0
   -0.2933   -0.1205    0.3719 C   0  0  1  0  0  0  0  0  0  0  0  0
    0.4439   -0.7485   -0.1303 H   0  0  0  0  0  0  0  0  0  0  0  0
   -0.4368    1.1924   -0.4246 C   0  0  0  0  0  0  0  0  0  0  0  0
   -0.4857    0.9417   -1.4857 H   0  0  0  0  0  0  0  0  0  0  0  0
   -1.3722    1.6809   -0.1479 H   0  0  0  0  0  0  0  0  0  0  0  0
    0.7172    2.1855   -0.2028 C   0  0  0  0  0  0  0  0  0  0  0  0
    0.9549    2.2473    0.8592 H   0  0  0  0  0  0  0  0  0  0  0  0
    1.5963    1.8396   -0.7454 H   0  0  0  0  0  0  0  0  0  0  0  0
    0.3767    3.5875   -0.6977 C   0  0  0  0  0  0  0  0  0  0  0  0
   -0.6297    3.8850   -1.3210 O   0  0  0  0  0  0  0  0  0  0  0  0
    1.2860    4.5388   -0.4152 O   0  0  0  0  0  0  0  0  0  0  0  0
    0.9346    5.3441   -0.7991 H   0  0  0  0  0  0  0  0  0  0  0  0
    0.1871    0.1189    1.8122 C   0  0  0  0  0  0  0  0  0  0  0  0
    1.3541   -0.1171    2.1187 O   0  0  0  0  0  0  0  0  0  0  0  0
   -0.7126    0.5740    2.6926 N   0  0  0  0  0  0  0  0  0  0  0  0
   -1.6464    0.7663    2.3621 H   0  0  0  0  0  0  0  0  0  0  0  0
   -0.4191    0.8310    4.1010 C   0  0  0  0  0  0  0  0  0  0  0  0
    0.4022    1.5452    4.1828 H   0  0  0  0  0  0  0  0  0  0  0  0
   -1.2983    1.2366    4.6035 H   0  0  0  0  0  0  0  0  0  0  0  0
   -0.1204   -0.0980    4.5907 H   0  0  0  0  0  0  0  0  0  0  0  0
  5  6  2  0  0  0  0
  5  7  1  0  0  0  0
  2  3  1  0  0  0  0
  2  4  1  0  0  0  0
  2  5  1  0  0  0  0
  1  2  1  0  0  0  0
 21 22  2  0  0  0  0
 21 23  1  0  0  0  0
 19 20  1  0  0  0  0
 17 18  2  0  0  0  0
 17 19  1  0  0  0  0
 14 15  1  0  0  0  0
 14 16  1  0  0  0  0
 14 17  1  0  0  0  0
 11 12  1  0  0  0  0
 11 13  1  0  0  0  0
 11 14  1  0  0  0  0
  9 10  1  0  0  0  0
  9 11  1  0  0  0  0
  9 21  1  0  0  0  0
  7  8  1  0  0  0  0
  7  9  1  0  0  0  0
 25 26  1  0  0  0  0
 25 27  1  0  0  0  0
 25 28  1  0  0  0  0
 23 24  1  0  0  0  0
 23 25  1  0  0  0  0
M  END
$$$$
default_name
  -OEChem-02102213163D

 28 27  0     1  0  0  0  0  0999 V2000
   -3.2133   -3.5565    1.2809 H   0  0  0  0  0  0  0  0  0  0  0  0
   -3.1873   -2.5755    0.8089 C   0  0  0  0  0  0  0  0  0  0  0  0
   -3.8793   -1.9065    1.3169 H   0  0  0  0  0  0  0  0  0  0  0  0
   -3.4623   -2.6685   -0.2401 H   0  0  0  0  0  0  0  0  0  0  0  0
   -1.7863   -2.0195    0.9119 C   0  0  0  0  0  0  0  0  0  0  0  0
   -0.9073   -2.6615    1.4699 O   0  0  0  0  0  0  0  0  0  0  0  0
   -1.5803   -0.8195    0.3749 N   0  0  0  0  0  0  0  0  0  0  0  0
   -2.3603   -0.3345   -0.0451 H   0  0  0  0  0  0  0  0  0  0  0  0
   -0.2933   -0.1205    0.3719 C   0  0  1  0  0  0  0  0  0  0  0  0
    0.4439   -0.7485   -0.1303 H   0  0  0  0  0  0  0  0  0  0  0  0
   -0.4368    1.1924   -0.4246 C   0  0  0  0  0  0  0  0  0  0  0  0
   -0.4857    0.9417   -1.4857 H   0  0  0  0  0  0  0  0  0  0  0  0
   -1.3722    1.6809   -0.1479 H   0  0  0  0  0  0  0  0  0  0  0  0
    0.7172    2.1855   -0.2028 C   0  0  0  0  0  0  0  0  0  0  0  0
    1.1314    2.0561    0.7971 H   0  0  0  0  0  0  0  0  0  0  0  0
    1.4977    1.9973   -0.9391 H   0  0  0  0  0  0  0  0  0  0  0  0
    0.2681    3.6358   -0.3489 C   0  0  0  0  0  0  0  0  0  0  0  0
   -0.8359    3.9923   -0.7284 O   0  0  0  0  0  0  0  0  0  0  0  0
    1.1923    4.5632   -0.0367 O   0  0  0  0  0  0  0  0  0  0  0  0
    0.7638    5.4069   -0.1915 H   0  0  0  0  0  0  0  0  0  0  0  0
    0.1871    0.1189    1.8122 C   0  0  0  0  0  0  0  0  0  0  0  0
    1.3541   -0.1171    2.1187 O   0  0  0  0  0  0  0  0  0  0  0  0
   -0.7126    0.5740    2.6926 N   0  0  0  0  0  0  0  0  0  0  0  0
   -1.6464    0.7663    2.3621 H   0  0  0  0  0  0  0  0  0  0  0  0
   -0.4191    0.8310    4.1010 C   0  0  0  0  0  0  0  0  0  0  0  0
    0.4022    1.5452    4.1828 H   0  0  0  0  0  0  0  0  0  0  0  0
   -1.2983    1.2366    4.6035 H   0  0  0  0  0  0  0  0  0  0  0  0
   -0.1204   -0.0980    4.5907 H   0  0  0  0  0  0  0  0  0  0  0  0
  5  6  2  0  0  0  0
  5  7  1  0  0  0  0
  2  3  1  0  0  0  0
  2  4  1  0  0  0  0
  2  5  1  0  0  0  0
  1  2  1  0  0  0  0
 21 22  2  0  0  0  0
 21 23  1  0  0  0  0
 19 20  1  0  0  0  0
 17 18  2  0  0  0  0
 17 19  1  0  0  0  0
 14 15  1  0  0  0  0
 14 16  1  0  0  0  0
 14 17  1  0  0  0  0
 11 12  1  0  0  0  0
 11 13  1  0  0  0  0
 11 14  1  0  0  0  0
  9 10  1  0  0  0  0
  9 11  1  0  0  0  0
  9 21  1  0  0  0  0
  7  8  1  0  0  0  0
  7  9  1  0  0  0  0
 25 26  1  0  0  0  0
 25 27  1  0  0  0  0
 25 28  1  0  0  0  0
 23 24  1  0  0  0  0
 23 25  1  0  0  0  0
M  END
$$$$
default_name
  -OEChem-02102213163D

 28 27  0     1  0  0  0  0  0999 V2000
   -3.2133   -3.5565    1.2809 H   0  0  0  0  0  0  0  0  0  0  0  0
   -3.1873   -2.5755    0.8089 C   0  0  0  0  0  0  0  0  0  0  0  0
   -3.8793   -1.9065    1.3169 H   0  0  0  0  0  0  0  0  0  0  0  0
   -3.4623   -2.6685   -0.2401 H   0  0  0  0  0  0  0  0  0  0  0  0
   -1.7863   -2.0195    0.9119 C   0  0  0  0  0  0  0  0  0  0  0  0
   -0.9073   -2.6615    1.4699 O   0  0  0  0  0  0  0  0  0  0  0  0
   -1.5803   -0.8195    0.3749 N   0  0  0  0  0  0  0  0  0  0  0  0
   -2.3603   -0.3345   -0.0451 H   0  0  0  0  0  0  0  0  0  0  0  0
   -0.2933   -0.1205    0.3719 C   0  0  1  0  0  0  0  0  0  0  0  0
    0.4439   -0.7485   -0.1303 H   0  0  0  0  0  0  0  0  0  0  0  0
   -0.4368    1.1924   -0.4246 C   0  0  0  0  0  0  0  0  0  0  0  0
   -0.4857    0.9417   -1.4857 H   0  0  0  0  0  0  0  0  0  0  0  0
   -1.3722    1.6809   -0.1479 H   0  0  0  0  0  0  0  0  0  0  0  0
    0.7172    2.1855   -0.2028 C   0  0  0  0  0  0  0  0  0  0  0  0
    1.2987    1.8900    0.6706 H   0  0  0  0  0  0  0  0  0  0  0  0
    1.3643    2.1837   -1.0792 H   0  0  0  0  0  0  0  0  0  0  0  0
    0.2197    3.6107    0.0155 C   0  0  0  0  0  0  0  0  0  0  0  0
   -0.9401    3.9732   -0.1006 O   0  0  0  0  0  0  0  0  0  0  0  0
    1.1641    4.5098    0.3492 O   0  0  0  0  0  0  0  0  0  0  0  0
    0.6980    5.3432    0.4361 H   0  0  0  0  0  0  0  0  0  0  0  0
    0.1871    0.1189    1.8122 C   0  0  0  0  0  0  0  0  0  0  0  0
    1.3541   -0.1171    2.1187 O   0  0  0  0  0  0  0  0  0  0  0  0
   -0.7126    0.5740    2.6926 N   0  0  0  0  0  0  0  0  0  0  0  0
   -1.6464    0.7663    2.3621 H   0  0  0  0  0  0  0  0  0  0  0  0
   -0.4191    0.8310    4.1010 C   0  0  0  0  0  0  0  0  0  0  0  0
    0.4022    1.5452    4.1828 H   0  0  0  0  0  0  0  0  0  0  0  0
   -1.2983    1.2366    4.6035 H   0  0  0  0  0  0  0  0  0  0  0  0
   -0.1204   -0.0980    4.5907 H   0  0  0  0  0  0  0  0  0  0  0  0
  5  6  2  0  0  0  0
  5  7  1  0  0  0  0
  2  3  1  0  0  0  0
  2  4  1  0  0  0  0
  2  5  1  0  0  0  0
  1  2  1  0  0  0  0
 21 22  2  0  0  0  0
 21 23  1  0  0  0  0
 19 20  1  0  0  0  0
 17 18  2  0  0  0  0
 17 19  1  0  0  0  0
 14 15  1  0  0  0  0
 14 16  1  0  0  0  0
 14 17  1  0  0  0  0
 11 12  1  0  0  0  0
 11 13  1  0  0  0  0
 11 14  1  0  0  0  0
  9 10  1  0  0  0  0
  9 11  1  0  0  0  0
  9 21  1  0  0  0  0
  7  8  1  0  0  0  0
  7  9  1  0  0  0  0
 25 26  1  0  0  0  0
 25 27  1  0  0  0  0
 25 28  1  0  0  0  0
 23 24  1  0  0  0  0
 23 25  1  0  0  0  0
M  END
$$$$
default_name
  -OEChem-02102213163D

 28 27  0     1  0  0  0  0  0999 V2000
   -3.2133   -3.5565    1.2809 H   0  0  0  0  0  0  0  0  0  0  0  0
   -3.1873   -2.5755    0.8089 C   0  0  0  0  0  0  0  0  0  0  0  0
   -3.8793   -1.9065    1.3169 H   0  0  0  0  0  0  0  0  0  0  0  0
   -3.4623   -2.6685   -0.2401 H   0  0  0  0  0  0  0  0  0  0  0  0
   -1.7863   -2.0195    0.9119 C   0  0  0  0  0  0  0  0  0  0  0  0
   -0.9073   -2.6615    1.4699 O   0  0  0  0  0  0  0  0  0  0  0  0
   -1.5803   -0.8195    0.3749 N   0  0  0  0  0  0  0  0  0  0  0  0
   -2.3603   -0.3345   -0.0451 H   0  0  0  0  0  0  0  0  0  0  0  0
   -0.2933   -0.1205    0.3719 C   0  0  1  0  0  0  0  0  0  0  0  0
    0.4439   -0.7485   -0.1303 H   0  0  0  0  0  0  0  0  0  0  0  0
   -0.4368    1.1924   -0.4246 C   0  0  0  0  0  0  0  0  0  0  0  0
   -0.4857    0.9417   -1.4857 H   0  0  0  0  0  0  0  0  0  0  0  0
   -1.3722    1.6809   -0.1479 H   0  0  0  0  0  0  0  0  0  0  0  0
    0.7172    2.1855   -0.2028 C   0  0  0  0  0  0  0  0  0  0  0  0
    1.4453    1.7603    0.4881 H   0  0  0  0  0  0  0  0  0  0  0  0
    1.2051    2.3859   -1.1560 H   0  0  0  0  0  0  0  0  0  0  0  0
    0.2347    3.5139    0.3707 C   0  0  0  0  0  0  0  0  0  0  0  0
   -0.9351    3.8289    0.5194 O   0  0  0  0  0  0  0  0  0  0  0  0
    1.2033    4.3822    0.7164 O   0  0  0  0  0  0  0  0  0  0  0  0
    0.7416    5.1574    1.0409 H   0  0  0  0  0  0  0  0  0  0  0  0
    0.1871    0.1189    1.8122 C   0  0  0  0  0  0  0  0  0  0  0  0
    1.3541   -0.1171    2.1187 O   0  0  0  0  0  0  0  0  0  0  0  0
   -0.7126    0.5740    2.6926 N   0  0  0  0  0  0  0  0  0  0  0  0
   -1.6464    0.7663    2.3621 H   0  0  0  0  0  0  0  0  0  0  0  0
   -0.4191    0.8310    4.1010 C   0  0  0  0  0  0  0  0  0  0  0  0
    0.4022    1.5452    4.1828 H   0  0  0  0  0  0  0  0  0  0  0  0
   -1.2983    1.2366    4.6035 H   0  0  0  0  0  0  0  0  0  0  0  0
   -0.1204   -0.0980    4.5907 H   0  0  0  0  0  0  0  0  0  0  0  0
  5  6  2  0  0  0  0
  5  7  1  0  0  0  0
  2  3  1  0  0  0  0
  2  4  1  0  0  0  0
  2  5  1  0  0  0  0
  1  2  1  0  0  0  0
 21 22  2  0  0  0  0
 21 23  1  0  0  0  0
 19 20  1  0  0  0  0
 17 18  2  0  0  0  0
 17 19  1  0  0  0  0
 14 15  1  0  0  0  0
 14 16  1  0  0  0  0
 14 17  1  0  0  0  0
 11 12  1  0  0  0  0
 11 13  1  0  0  0  0
 11 14  1  0  0  0  0
  9 10  1  0  0  0  0
  9 11  1  0  0  0  0
  9 21  1  0  0  0  0
  7  8  1  0  0  0  0
  7  9  1  0  0  0  0
 25 26  1  0  0  0  0
 25 27  1  0  0  0  0
 25 28  1  0  0  0  0
 23 24  1  0  0  0  0
 23 25  1  0  0  0  0
M  END
$$$$
default_name
  -OEChem-02102213163D

 28 27  0     1  0  0  0  0  0999 V2000
   -3.2133   -3.5565    1.2809 H   0  0  0  0  0  0  0  0  0  0  0  0
   -3.1873   -2.5755    0.8089 C   0  0  0  0  0  0  0  0  0  0  0  0
   -3.8793   -1.9065    1.3169 H   0  0  0  0  0  0  0  0  0  0  0  0
   -3.4623   -2.6685   -0.2401 H   0  0  0  0  0  0  0  0  0  0  0  0
   -1.7863   -2.0195    0.9119 C   0  0  0  0  0  0  0  0  0  0  0  0
   -0.9073   -2.6615    1.4699 O   0  0  0  0  0  0  0  0  0  0  0  0
   -1.5803   -0.8195    0.3749 N   0  0  0  0  0  0  0  0  0  0  0  0
   -2.3603   -0.3345   -0.0451 H   0  0  0  0  0  0  0  0  0  0  0  0
   -0.2933   -0.1205    0.3719 C   0  0  1  0  0  0  0  0  0  0  0  0
    0.4439   -0.7485   -0.1303 H   0  0  0  0  0  0  0  0  0  0  0  0
   -0.4368    1.1924   -0.4246 C   0  0  0  0  0  0  0  0  0  0  0  0
   -0.4857    0.9417   -1.4857 H   0  0  0  0  0  0  0  0  0  0  0  0
   -1.3722    1.6809   -0.1479 H   0  0  0  0  0  0  0  0  0  0  0  0
    0.7172    2.1855   -0.2028 C   0  0  0  0  0  0  0  0  0  0  0  0
    1.5612    1.6760    0.2623 H   0  0  0  0  0  0  0  0  0  0  0  0
    1.0309    2.5902   -1.1644 H   0  0  0  0  0  0  0  0  0  0  0  0
    0.3121    3.3520    0.6925 C   0  0  0  0  0  0  0  0  0  0  0  0
   -0.8214    3.5694    1.0895 O   0  0  0  0  0  0  0  0  0  0  0  0
    1.3073    4.1892    1.0397 O   0  0  0  0  0  0  0  0  0  0  0  0
    0.8918    4.8621    1.5818 H   0  0  0  0  0  0  0  0  0  0  0  0
    0.1871    0.1189    1.8122 C   0  0  0  0  0  0  0  0  0  0  0  0
    1.3541   -0.1171    2.1187 O   0  0  0  0  0  0  0  0  0  0  0  0
   -0.7126    0.5740    2.6926 N   0  0  0  0  0  0  0  0  0  0  0  0
   -1.6464    0.7663    2.3621 H   0  0  0  0  0  0  0  0  0  0  0  0
   -0.4191    0.8310    4.1010 C   0  0  0  0  0  0  0  0  0  0  0  0
    0.4022    1.5452    4.1828 H   0  0  0  0  0  0  0  0  0  0  0  0
   -1.2983    1.2366    4.6035 H   0  0  0  0  0  0  0  0  0  0  0  0
   -0.1204   -0.0980    4.5907 H   0  0  0  0  0  0  0  0  0  0  0  0
  5  6  2  0  0  0  0
  5  7  1  0  0  0  0
  2  3  1  0  0  0  0
  2  4  1  0  0  0  0
  2  5  1  0  0  0  0
  1  2  1  0  0  0  0
 21 22  2  0  0  0  0
 21 23  1  0  0  0  0
 19 20  1  0  0  0  0
 17 18  2  0  0  0  0
 17 19  1  0  0  0  0
 14 15  1  0  0  0  0
 14 16  1  0  0  0  0
 14 17  1  0  0  0  0
 11 12  1  0  0  0  0
 11 13  1  0  0  0  0
 11 14  1  0  0  0  0
  9 10  1  0  0  0  0
  9 11  1  0  0  0  0
  9 21  1  0  0  0  0
  7  8  1  0  0  0  0
  7  9  1  0  0  0  0
 25 26  1  0  0  0  0
 25 27  1  0  0  0  0
 25 28  1  0  0  0  0
 23 24  1  0  0  0  0
 23 25  1  0  0  0  0
M  END
$$$$
default_name
  -OEChem-02102213163D

 28 27  0     1  0  0  0  0  0999 V2000
   -3.2133   -3.5565    1.2809 H   0  0  0  0  0  0  0  0  0  0  0  0
   -3.1873   -2.5755    0.8089 C   0  0  0  0  0  0  0  0  0  0  0  0
   -3.8793   -1.9065    1.3169 H   0  0  0  0  0  0  0  0  0  0  0  0
   -3.4623   -2.6685   -0.2401 H   0  0  0  0  0  0  0  0  0  0  0  0
   -1.7863   -2.0195    0.9119 C   0  0  0  0  0  0  0  0  0  0  0  0
   -0.9073   -2.6615    1.4699 O   0  0  0  0  0  0  0  0  0  0  0  0
   -1.5803   -0.8195    0.3749 N   0  0  0  0  0  0  0  0  0  0  0  0
   -2.3603   -0.3345   -0.0451 H   0  0  0  0  0  0  0  0  0  0  0  0
   -0.2933   -0.1205    0.3719 C   0  0  1  0  0  0  0  0  0  0  0  0
    0.4439   -0.7485   -0.1303 H   0  0  0  0  0  0  0  0  0  0  0  0
   -0.4368    1.1924   -0.4246 C   0  0  0  0  0  0  0  0  0  0  0  0
   -0.4857    0.9417   -1.4857 H   0  0  0  0  0  0  0  0  0  0  0  0
   -1.3722    1.6809   -0.1479 H   0  0  0  0  0  0  0  0  0  0  0  0
    0.7172    2.1855   -0.2028 C   0  0  0  0  0  0  0  0  0  0  0  0
    1.6387    1.6428    0.0083 H   0  0  0  0  0  0  0  0  0  0  0  0
    0.8536    2.7826   -1.1037 H   0  0  0  0  0  0  0  0  0  0  0  0
    0.4468    3.1361    0.9590 C   0  0  0  0  0  0  0  0  0  0  0  0
   -0.6066    3.2123    1.5708 O   0  0  0  0  0  0  0  0  0  0  0  0
    1.4689    3.9438    1.2972 O   0  0  0  0  0  0  0  0  0  0  0  0
    1.1382    4.4775    2.0218 H   0  0  0  0  0  0  0  0  0  0  0  0
    0.1871    0.1189    1.8122 C   0  0  0  0  0  0  0  0  0  0  0  0
    1.3541   -0.1171    2.1187 O   0  0  0  0  0  0  0  0  0  0  0  0
   -0.7126    0.5740    2.6926 N   0  0  0  0  0  0  0  0  0  0  0  0
   -1.6464    0.7663    2.3621 H   0  0  0  0  0  0  0  0  0  0  0  0
   -0.4191    0.8310    4.1010 C   0  0  0  0  0  0  0  0  0  0  0  0
    0.4022    1.5452    4.1828 H   0  0  0  0  0  0  0  0  0  0  0  0
   -1.2983    1.2366    4.6035 H   0  0  0  0  0  0  0  0  0  0  0  0
   -0.1204   -0.0980    4.5907 H   0  0  0  0  0  0  0  0  0  0  0  0
  5  6  2  0  0  0  0
  5  7  1  0  0  0  0
  2  3  1  0  0  0  0
  2  4  1  0  0  0  0
  2  5  1  0  0  0  0
  1  2  1  0  0  0  0
 21 22  2  0  0  0  0
 21 23  1  0  0  0  0
 19 20  1  0  0  0  0
 17 18  2  0  0  0  0
 17 19  1  0  0  0  0
 14 15  1  0  0  0  0
 14 16  1  0  0  0  0
 14 17  1  0  0  0  0
 11 12  1  0  0  0  0
 11 13  1  0  0  0  0
 11 14  1  0  0  0  0
  9 10  1  0  0  0  0
  9 11  1  0  0  0  0
  9 21  1  0  0  0  0
  7  8  1  0  0  0  0
  7  9  1  0  0  0  0
 25 26  1  0  0  0  0
 25 27  1  0  0  0  0
 25 28  1  0  0  0  0
 23 24  1  0  0  0  0
 23 25  1  0  0  0  0
M  END
$$$$
default_name
  -OEChem-02102213163D

 28 27  0     1  0  0  0  0  0999 V2000
   -3.2133   -3.5565    1.2809 H   0  0  0  0  0  0  0  0  0  0  0  0
   -3.1873   -2.5755    0.8089 C   0  0  0  0  0  0  0  0  0  0  0  0
   -3.8793   -1.9065    1.3169 H   0  0  0  0  0  0  0  0  0  0  0  0
   -3.4623   -2.6685   -0.2401 H   0  0  0  0  0  0  0  0  0  0  0  0
   -1.7863   -2.0195    0.9119 C   0  0  0  0  0  0  0  0  0  0  0  0
   -0.9073   -2.6615    1.4699 O   0  0  0  0  0  0  0  0  0  0  0  0
   -1.5803   -0.8195    0.3749 N   0  0  0  0  0  0  0  0  0  0  0  0
   -2.3603   -0.3345   -0.0451 H   0  0  0  0  0  0  0  0  0  0  0  0
   -0.2933   -0.1205    0.3719 C   0  0  1  0  0  0  0  0  0  0  0  0
    0.4439   -0.7485   -0.1303 H   0  0  0  0  0  0  0  0  0  0  0  0
   -0.4368    1.1924   -0.4246 C   0  0  0  0  0  0  0  0  0  0  0  0
   -0.4857    0.9417   -1.4857 H   0  0  0  0  0  0  0  0  0  0  0  0
   -1.3722    1.6809   -0.1479 H   0  0  0  0  0  0  0  0  0  0  0  0
    0.7172    2.1855   -0.2028 C   0  0  0  0  0  0  0  0  0  0  0  0
    1.6723    1.6628   -0.2563 H   0  0  0  0  0  0  0  0  0  0  0  0
    0.6853    2.9501   -0.9781 H   0  0  0  0  0  0  0  0  0  0  0  0
    0.6294    2.8807    1.1519 C   0  0  0  0  0  0  0  0  0  0  0  0
   -0.3054    2.7820    1.9305 O   0  0  0  0  0  0  0  0  0  0  0  0
    1.6772    3.6629    1.4713 O   0  0  0  0  0  0  0  0  0  0  0  0
    1.4640    4.0298    2.3311 H   0  0  0  0  0  0  0  0  0  0  0  0
    0.1871    0.1189    1.8122 C   0  0  0  0  0  0  0  0  0  0  0  0
    1.3541   -0.1171    2.1187 O   0  0  0  0  0  0  0  0  0  0  0  0
   -0.7126    0.5740    2.6926 N   0  0  0  0  0  0  0  0  0  0  0  0
   -1.6464    0.7663    2.3621 H   0  0  0  0  0  0  0  0  0  0  0  0
   -0.4191    0.8310    4.1010 C   0  0  0  0  0  0  0  0  0  0  0  0
    0.4022    1.5452    4.1828 H   0  0  0  0  0  0  0  0  0  0  0  0
   -1.2983    1.2366    4.6035 H   0  0  0  0  0  0  0  0  0  0  0  0
   -0.1204   -0.0980    4.5907 H   0  0  0  0  0  0  0  0  0  0  0  0
  5  6  2  0  0  0  0
  5  7  1  0  0  0  0
  2  3  1  0  0  0  0
  2  4  1  0  0  0  0
  2  5  1  0  0  0  0
  1  2  1  0  0  0  0
 21 22  2  0  0  0  0
 21 23  1  0  0  0  0
 19 20  1  0  0  0  0
 17 18  2  0  0  0  0
 17 19  1  0  0  0  0
 14 15  1  0  0  0  0
 14 16  1  0  0  0  0
 14 17  1  0  0  0  0
 11 12  1  0  0  0  0
 11 13  1  0  0  0  0
 11 14  1  0  0  0  0
  9 10  1  0  0  0  0
  9 11  1  0  0  0  0
  9 21  1  0  0  0  0
  7  8  1  0  0  0  0
  7  9  1  0  0  0  0
 25 26  1  0  0  0  0
 25 27  1  0  0  0  0
 25 28  1  0  0  0  0
 23 24  1  0  0  0  0
 23 25  1  0  0  0  0
M  END
$$$$
default_name
  -OEChem-02102213163D

 28 27  0     1  0  0  0  0  0999 V2000
   -3.2133   -3.5565    1.2809 H   0  0  0  0  0  0  0  0  0  0  0  0
   -3.1873   -2.5755    0.8089 C   0  0  0  0  0  0  0  0  0  0  0  0
   -3.8793   -1.9065    1.3169 H   0  0  0  0  0  0  0  0  0  0  0  0
   -3.4623   -2.6685   -0.2401 H   0  0  0  0  0  0  0  0  0  0  0  0
   -1.7863   -2.0195    0.9119 C   0  0  0  0  0  0  0  0  0  0  0  0
   -0.9073   -2.6615    1.4699 O   0  0  0  0  0  0  0  0  0  0  0  0
   -1.5803   -0.8195    0.3749 N   0  0  0  0  0  0  0  0  0  0  0  0
   -2.3603   -0.3345   -0.0451 H   0  0  0  0  0  0  0  0  0  0  0  0
   -0.2933   -0.1205    0.3719 C   0  0  1  0  0  0  0  0  0  0  0  0
    0.4439   -0.7485   -0.1303 H   0  0  0  0  0  0  0  0  0  0  0  0
   -0.4368    1.1924   -0.4246 C   0  0  0  0  0  0  0  0  0  0  0  0
   -0.4857    0.9417   -1.4857 H   0  0  0  0  0  0  0  0  0  0  0  0
   -1.3722    1.6809   -0.1479 H   0  0  0  0  0  0  0  0  0  0  0  0
    0.7172    2.1855   -0.2028 C   0  0  0  0  0  0  0  0  0  0  0  0
    1.6598    1.7348   -0.5137 H   0  0  0  0  0  0  0  0  0  0  0  0
    0.5375    3.0813   -0.7962 H   0  0  0  0  0  0  0  0  0  0  0  0
    0.8475    2.6035    1.2583 C   0  0  0  0  0  0  0  0  0  0  0  0
    0.0617    2.3077    2.1441 O   0  0  0  0  0  0  0  0  0  0  0  0
    1.9180    3.3655    1.5501 O   0  0  0  0  0  0  0  0  0  0  0  0
    1.8472    3.5494    2.4884 H   0  0  0  0  0  0  0  0  0  0  0  0
    0.1871    0.1189    1.8122 C   0  0  0  0  0  0  0  0  0  0  0  0
    1.3541   -0.1171    2.1187 O   0  0  0  0  0  0  0  0  0  0  0  0
   -0.7126    0.5740    2.6926 N   0  0  0  0  0  0  0  0  0  0  0  0
   -1.6464    0.7663    2.3621 H   0  0  0  0  0  0  0  0  0  0  0  0
   -0.4191    0.8310    4.1010 C   0  0  0  0  0  0  0  0  0  0  0  0
    0.4022    1.5452    4.1828 H   0  0  0  0  0  0  0  0  0  0  0  0
   -1.2983    1.2366    4.6035 H   0  0  0  0  0  0  0  0  0  0  0  0
   -0.1204   -0.0980    4.5907 H   0  0  0  0  0  0  0  0  0  0  0  0
  5  6  2  0  0  0  0
  5  7  1  0  0  0  0
  2  3  1  0  0  0  0
  2  4  1  0  0  0  0
  2  5  1  0  0  0  0
  1  2  1  0  0  0  0
 21 22  2  0  0  0  0
 21 23  1  0  0  0  0
 19 20  1  0  0  0  0
 17 18  2  0  0  0  0
 17 19  1  0  0  0  0
 14 15  1  0  0  0  0
 14 16  1  0  0  0  0
 14 17  1  0  0  0  0
 11 12  1  0  0  0  0
 11 13  1  0  0  0  0
 11 14  1  0  0  0  0
  9 10  1  0  0  0  0
  9 11  1  0  0  0  0
  9 21  1  0  0  0  0
  7  8  1  0  0  0  0
  7  9  1  0  0  0  0
 25 26  1  0  0  0  0
 25 27  1  0  0  0  0
 25 28  1  0  0  0  0
 23 24  1  0  0  0  0
 23 25  1  0  0  0  0
M  END
$$$$
default_name
  -OEChem-02102213163D

 28 27  0     1  0  0  0  0  0999 V2000
   -3.2133   -3.5565    1.2809 H   0  0  0  0  0  0  0  0  0  0  0  0
   -3.1873   -2.5755    0.8089 C   0  0  0  0  0  0  0  0  0  0  0  0
   -3.8793   -1.9065    1.3169 H   0  0  0  0  0  0  0  0  0  0  0  0
   -3.4623   -2.6685   -0.2401 H   0  0  0  0  0  0  0  0  0  0  0  0
   -1.7863   -2.0195    0.9119 C   0  0  0  0  0  0  0  0  0  0  0  0
   -0.9073   -2.6615    1.4699 O   0  0  0  0  0  0  0  0  0  0  0  0
   -1.5803   -0.8195    0.3749 N   0  0  0  0  0  0  0  0  0  0  0  0
   -2.3603   -0.3345   -0.0451 H   0  0  0  0  0  0  0  0  0  0  0  0
   -0.2933   -0.1205    0.3719 C   0  0  1  0  0  0  0  0  0  0  0  0
    0.4439   -0.7485   -0.1303 H   0  0  0  0  0  0  0  0  0  0  0  0
   -0.4368    1.1924   -0.4246 C   0  0  0  0  0  0  0  0  0  0  0  0
   -0.4857    0.9417   -1.4857 H   0  0  0  0  0  0  0  0  0  0  0  0
   -1.3722    1.6809   -0.1479 H   0  0  0  0  0  0  0  0  0  0  0  0
    0.7172    2.1855   -0.2028 C   0  0  0  0  0  0  0  0  0  0  0  0
    1.6021    1.8539   -0.7463 H   0  0  0  0  0  0  0  0  0  0  0  0
    0.4202    3.1671   -0.5703 H   0  0  0  0  0  0  0  0  0  0  0  0
    1.0864    2.3232    1.2707 C   0  0  0  0  0  0  0  0  0  0  0  0
    0.4696    1.8218    2.1970 O   0  0  0  0  0  0  0  0  0  0  0  0
    2.1748    3.0719    1.5282 O   0  0  0  0  0  0  0  0  0  0  0  0
    2.2614    3.0692    2.4831 H   0  0  0  0  0  0  0  0  0  0  0  0
    0.1871    0.1189    1.8122 C   0  0  0  0  0  0  0  0  0  0  0  0
    1.3541   -0.1171    2.1187 O   0  0  0  0  0  0  0  0  0  0  0  0
   -0.7126    0.5740    2.6926 N   0  0  0  0  0  0  0  0  0  0  0  0
   -1.6464    0.7663    2.3621 H   0  0  0  0  0  0  0  0  0  0  0  0
   -0.4191    0.8310    4.1010 C   0  0  0  0  0  0  0  0  0  0  0  0
    0.4022    1.5452    4.1828 H   0  0  0  0  0  0  0  0  0  0  0  0
   -1.2983    1.2366    4.6035 H   0  0  0  0  0  0  0  0  0  0  0  0
   -0.1204   -0.0980    4.5907 H   0  0  0  0  0  0  0  0  0  0  0  0
  5  6  2  0  0  0  0
  5  7  1  0  0  0  0
  2  3  1  0  0  0  0
  2  4  1  0  0  0  0
  2  5  1  0  0  0  0
  1  2  1  0  0  0  0
 21 22  2  0  0  0  0
 21 23  1  0  0  0  0
 19 20  1  0  0  0  0
 17 18  2  0  0  0  0
 17 19  1  0  0  0  0
 14 15  1  0  0  0  0
 14 16  1  0  0  0  0
 14 17  1  0  0  0  0
 11 12  1  0  0  0  0
 11 13  1  0  0  0  0
 11 14  1  0  0  0  0
  9 10  1  0  0  0  0
  9 11  1  0  0  0  0
  9 21  1  0  0  0  0
  7  8  1  0  0  0  0
  7  9  1  0  0  0  0
 25 26  1  0  0  0  0
 25 27  1  0  0  0  0
 25 28  1  0  0  0  0
 23 24  1  0  0  0  0
 23 25  1  0  0  0  0
M  END
$$$$
default_name
  -OEChem-02102213163D

 28 27  0     1  0  0  0  0  0999 V2000
   -3.2133   -3.5565    1.2809 H   0  0  0  0  0  0  0  0  0  0  0  0
   -3.1873   -2.5755    0.8089 C   0  0  0  0  0  0  0  0  0  0  0  0
   -3.8793   -1.9065    1.3169 H   0  0  0  0  0  0  0  0  0  0  0  0
   -3.4623   -2.6685   -0.2401 H   0  0  0  0  0  0  0  0  0  0  0  0
   -1.7863   -2.0195    0.9119 C   0  0  0  0  0  0  0  0  0  0  0  0
   -0.9073   -2.6615    1.4699 O   0  0  0  0  0  0  0  0  0  0  0  0
   -1.5803   -0.8195    0.3749 N   0  0  0  0  0  0  0  0  0  0  0  0
   -2.3603   -0.3345   -0.0451 H   0  0  0  0  0  0  0  0  0  0  0  0
   -0.2933   -0.1205    0.3719 C   0  0  1  0  0  0  0  0  0  0  0  0
    0.4439   -0.7485   -0.1303 H   0  0  0  0  0  0  0  0  0  0  0  0
   -0.4368    1.1924   -0.4246 C   0  0  0  0  0  0  0  0  0  0  0  0
   -0.4857    0.9417   -1.4857 H   0  0  0  0  0  0  0  0  0  0  0  0
   -1.3722    1.6809   -0.1479 H   0  0  0  0  0  0  0  0  0  0  0  0
    0.7172    2.1855   -0.2028 C   0  0  0  0  0  0  0  0  0  0  0  0
    1.5030    2.0118   -0.9381 H   0  0  0  0  0  0  0  0  0  0  0  0
    0.3415    3.2018   -0.3158 H   0  0  0  0  0  0  0  0  0  0  0  0
    1.3296    2.0589    1.1884 C   0  0  0  0  0  0  0  0  0  0  0  0
    0.8906    1.3575    2.0856 O   0  0  0  0  0  0  0  0  0  0  0  0
    2.4302    2.8021    1.4072 O   0  0  0  0  0  0  0  0  0  0  0  0
    2.6786    2.6218    2.3155 H   0  0  0  0  0  0  0  0  0  0  0  0
    0.1871    0.1189    1.8122 C   0  0  0  0  0  0  0  0  0  0  0  0
    1.3541   -0.1171    2.1187 O   0  0  0  0  0  0  0  0  0  0  0  0
   -0.7126    0.5740    2.6926 N   0  0  0  0  0  0  0  0  0  0  0  0
   -1.6464    0.7663    2.3621 H   0  0  0  0  0  0  0  0  0  0  0  0
   -0.4191    0.8310    4.1010 C   0  0  0  0  0  0  0  0  0  0  0  0
    0.4022    1.5452    4.1828 H   0  0  0  0  0  0  0  0  0  0  0  0
   -1.2983    1.2366    4.6035 H   0  0  0  0  0  0  0  0  0  0  0  0
   -0.1204   -0.0980    4.5907 H   0  0  0  0  0  0  0  0  0  0  0  0
  5  6  2  0  0  0  0
  5  7  1  0  0  0  0
  2  3  1  0  0  0  0
  2  4  1  0  0  0  0
  2  5  1  0  0  0  0
  1  2  1  0  0  0  0
 21 22  2  0  0  0  0
 21 23  1  0  0  0  0
 19 20  1  0  0  0  0
 17 18  2  0  0  0  0
 17 19  1  0  0  0  0
 14 15  1  0  0  0  0
 14 16  1  0  0  0  0
 14 17  1  0  0  0  0
 11 12  1  0  0  0  0
 11 13  1  0  0  0  0
 11 14  1  0  0  0  0
  9 10  1  0  0  0  0
  9 11  1  0  0  0  0
  9 21  1  0  0  0  0
  7  8  1  0  0  0  0
  7  9  1  0  0  0  0
 25 26  1  0  0  0  0
 25 27  1  0  0  0  0
 25 28  1  0  0  0  0
 23 24  1  0  0  0  0
 23 25  1  0  0  0  0
M  END
$$$$
default_name
  -OEChem-02102213163D

 28 27  0     1  0  0  0  0  0999 V2000
   -3.2133   -3.5565    1.2809 H   0  0  0  0  0  0  0  0  0  0  0  0
   -3.1873   -2.5755    0.8089 C   0  0  0  0  0  0  0  0  0  0  0  0
   -3.8793   -1.9065    1.3169 H   0  0  0  0  0  0  0  0  0  0  0  0
   -3.4623   -2.6685   -0.2401 H   0  0  0  0  0  0  0  0  0  0  0  0
   -1.7863   -2.0195    0.9119 C   0  0  0  0  0  0  0  0  0  0  0  0
   -0.9073   -2.6615    1.4699 O   0  0  0  0  0  0  0  0  0  0  0  0
   -1.5803   -0.8195    0.3749 N   0  0  0  0  0  0  0  0  0  0  0  0
   -2.3603   -0.3345   -0.0451 H   0  0  0  0  0  0  0  0  0  0  0  0
   -0.2933   -0.1205    0.3719 C   0  0  1  0  0  0  0  0  0  0  0  0
    0.4439   -0.7485   -0.1303 H   0  0  0  0  0  0  0  0  0  0  0  0
   -0.4368    1.1924   -0.4246 C   0  0  0  0  0  0  0  0  0  0  0  0
   -0.4857    0.9417   -1.4857 H   0  0  0  0  0  0  0  0  0  0  0  0
   -1.3722    1.6809   -0.1479 H   0  0  0  0  0  0  0  0  0  0  0  0
    0.7172    2.1855   -0.2028 C   0  0  0  0  0  0  0  0  0  0  0  0
    1.3693    2.1980   -1.0762 H   0  0  0  0  0  0  0  0  0  0  0  0
    0.3066    3.1829   -0.0501 H   0  0  0  0  0  0  0  0  0  0  0  0
    1.5606    1.8287    1.0169 C   0  0  0  0  0  0  0  0  0  0  0  0
    1.2960    0.9462    1.8176 O   0  0  0  0  0  0  0  0  0  0  0  0
    2.6668    2.5746    1.1953 O   0  0  0  0  0  0  0  0  0  0  0  0
    3.0703    2.2378    1.9972 H   0  0  0  0  0  0  0  0  0  0  0  0
    0.1871    0.1189    1.8122 C   0  0  0  0  0  0  0  0  0  0  0  0
    1.3541   -0.1171    2.1187 O   0  0  0  0  0  0  0  0  0  0  0  0
   -0.7126    0.5740    2.6926 N   0  0  0  0  0  0  0  0  0  0  0  0
   -1.6464    0.7663    2.3621 H   0  0  0  0  0  0  0  0  0  0  0  0
   -0.4191    0.8310    4.1010 C   0  0  0  0  0  0  0  0  0  0  0  0
    0.4022    1.5452    4.1828 H   0  0  0  0  0  0  0  0  0  0  0  0
   -1.2983    1.2366    4.6035 H   0  0  0  0  0  0  0  0  0  0  0  0
   -0.1204   -0.0980    4.5907 H   0  0  0  0  0  0  0  0  0  0  0  0
  5  6  2  0  0  0  0
  5  7  1  0  0  0  0
  2  3  1  0  0  0  0
  2  4  1  0  0  0  0
  2  5  1  0  0  0  0
  1  2  1  0  0  0  0
 21 22  2  0  0  0  0
 21 23  1  0  0  0  0
 19 20  1  0  0  0  0
 17 18  2  0  0  0  0
 17 19  1  0  0  0  0
 14 15  1  0  0  0  0
 14 16  1  0  0  0  0
 14 17  1  0  0  0  0
 11 12  1  0  0  0  0
 11 13  1  0  0  0  0
 11 14  1  0  0  0  0
  9 10  1  0  0  0  0
  9 11  1  0  0  0  0
  9 21  1  0  0  0  0
  7  8  1  0  0  0  0
  7  9  1  0  0  0  0
 25 26  1  0  0  0  0
 25 27  1  0  0  0  0
 25 28  1  0  0  0  0
 23 24  1  0  0  0  0
 23 25  1  0  0  0  0
M  END
$$$$
default_name
  -OEChem-02102213163D

 28 27  0     1  0  0  0  0  0999 V2000
   -3.2133   -3.5565    1.2809 H   0  0  0  0  0  0  0  0  0  0  0  0
   -3.1873   -2.5755    0.8089 C   0  0  0  0  0  0  0  0  0  0  0  0
   -3.8793   -1.9065    1.3169 H   0  0  0  0  0  0  0  0  0  0  0  0
   -3.4623   -2.6685   -0.2401 H   0  0  0  0  0  0  0  0  0  0  0  0
   -1.7863   -2.0195    0.9119 C   0  0  0  0  0  0  0  0  0  0  0  0
   -0.9073   -2.6615    1.4699 O   0  0  0  0  0  0  0  0  0  0  0  0
   -1.5803   -0.8195    0.3749 N   0  0  0  0  0  0  0  0  0  0  0  0
   -2.3603   -0.3345   -0.0451 H   0  0  0  0  0  0  0  0  0  0  0  0
   -0.2933   -0.1205    0.3719 C   0  0  1  0  0  0  0  0  0  0  0  0
    0.4439   -0.7485   -0.1303 H   0  0  0  0  0  0  0  0  0  0  0  0
   -0.4368    1.1924   -0.4246 C   0  0  0  0  0  0  0  0  0  0  0  0
   -0.4857    0.9417   -1.4857 H   0  0  0  0  0  0  0  0  0  0  0  0
   -1.3722    1.6809   -0.1479 H   0  0  0  0  0  0  0  0  0  0  0  0
    0.7172    2.1855   -0.2028 C   0  0  0  0  0  0  0  0  0  0  0  0
    1.2102    2.3996   -1.1512 H   0  0  0  0  0  0  0  0  0  0  0  0
    0.3181    3.1118    0.2086 H   0  0  0  0  0  0  0  0  0  0  0  0
    1.7638    1.6483    0.7681 C   0  0  0  0  0  0  0  0  0  0  0  0
    1.6582    0.6162    1.4111 O   0  0  0  0  0  0  0  0  0  0  0  0
    2.8683    2.4048    0.9069 O   0  0  0  0  0  0  0  0  0  0  0  0
    3.4098    1.9433    1.5497 H   0  0  0  0  0  0  0  0  0  0  0  0
    0.1871    0.1189    1.8122 C   0  0  0  0  0  0  0  0  0  0  0  0
    1.3541   -0.1171    2.1187 O   0  0  0  0  0  0  0  0  0  0  0  0
   -0.7126    0.5740    2.6926 N   0  0  0  0  0  0  0  0  0  0  0  0
   -1.6464    0.7663    2.3621 H   0  0  0  0  0  0  0  0  0  0  0  0
   -0.4191    0.8310    4.1010 C   0  0  0  0  0  0  0  0  0  0  0  0
    0.4022    1.5452    4.1828 H   0  0  0  0  0  0  0  0  0  0  0  0
   -1.2983    1.2366    4.6035 H   0  0  0  0  0  0  0  0  0  0  0  0
   -0.1204   -0.0980    4.5907 H   0  0  0  0  0  0  0  0  0  0  0  0
  5  6  2  0  0  0  0
  5  7  1  0  0  0  0
  2  3  1  0  0  0  0
  2  4  1  0  0  0  0
  2  5  1  0  0  0  0
  1  2  1  0  0  0  0
 21 22  2  0  0  0  0
 21 23  1  0  0  0  0
 19 20  1  0  0  0  0
 17 18  2  0  0  0  0
 17 19  1  0  0  0  0
 14 15  1  0  0  0  0
 14 16  1  0  0  0  0
 14 17  1  0  0  0  0
 11 12  1  0  0  0  0
 11 13  1  0  0  0  0
 11 14  1  0  0  0  0
  9 10  1  0  0  0  0
  9 11  1  0  0  0  0
  9 21  1  0  0  0  0
  7  8  1  0  0  0  0
  7  9  1  0  0  0  0
 25 26  1  0  0  0  0
 25 27  1  0  0  0  0
 25 28  1  0  0  0  0
 23 24  1  0  0  0  0
 23 25  1  0  0  0  0
M  END
$$$$
default_name
  -OEChem-02102213163D

 28 27  0     1  0  0  0  0  0999 V2000
   -3.2133   -3.5565    1.2809 H   0  0  0  0  0  0  0  0  0  0  0  0
   -3.1873   -2.5755    0.8089 C   0  0  0  0  0  0  0  0  0  0  0  0
   -3.8793   -1.9065    1.3169 H   0  0  0  0  0  0  0  0  0  0  0  0
   -3.4623   -2.6685   -0.2401 H   0  0  0  0  0  0  0  0  0  0  0  0
   -1.7863   -2.0195    0.9119 C   0  0  0  0  0  0  0  0  0  0  0  0
   -0.9073   -2.6615    1.4699 O   0  0  0  0  0  0  0  0  0  0  0  0
   -1.5803   -0.8195    0.3749 N   0  0  0  0  0  0  0  0  0  0  0  0
   -2.3603   -0.3345   -0.0451 H   0  0  0  0  0  0  0  0  0  0  0  0
   -0.2933   -0.1205    0.3719 C   0  0  1  0  0  0  0  0  0  0  0  0
    0.4439   -0.7485   -0.1303 H   0  0  0  0  0  0  0  0  0  0  0  0
   -0.4368    1.1924   -0.4246 C   0  0  0  0  0  0  0  0  0  0  0  0
   -0.4857    0.9417   -1.4857 H   0  0  0  0  0  0  0  0  0  0  0  0
   -1.3722    1.6809   -0.1479 H   0  0  0  0  0  0  0  0  0  0  0  0
    0.7172    2.1855   -0.2028 C   0  0  0  0  0  0  0  0  0  0  0  0
    1.0365    2.6030   -1.1578 H   0  0  0  0  0  0  0  0  0  0  0  0
    0.3750    2.9934    0.4429 H   0  0  0  0  0  0  0  0  0  0  0  0
    1.9251    1.5299    0.4587 C   0  0  0  0  0  0  0  0  0  0  0  0
    1.9524    0.3898    0.8939 O   0  0  0  0  0  0  0  0  0  0  0  0
    3.0212    2.3043    0.5617 O   0  0  0  0  0  0  0  0  0  0  0  0
    3.6739    1.7583    1.0035 H   0  0  0  0  0  0  0  0  0  0  0  0
    0.1871    0.1189    1.8122 C   0  0  0  0  0  0  0  0  0  0  0  0
    1.3541   -0.1171    2.1187 O   0  0  0  0  0  0  0  0  0  0  0  0
   -0.7126    0.5740    2.6926 N   0  0  0  0  0  0  0  0  0  0  0  0
   -1.6464    0.7663    2.3621 H   0  0  0  0  0  0  0  0  0  0  0  0
   -0.4191    0.8310    4.1010 C   0  0  0  0  0  0  0  0  0  0  0  0
    0.4022    1.5452    4.1828 H   0  0  0  0  0  0  0  0  0  0  0  0
   -1.2983    1.2366    4.6035 H   0  0  0  0  0  0  0  0  0  0  0  0
   -0.1204   -0.0980    4.5907 H   0  0  0  0  0  0  0  0  0  0  0  0
  5  6  2  0  0  0  0
  5  7  1  0  0  0  0
  2  3  1  0  0  0  0
  2  4  1  0  0  0  0
  2  5  1  0  0  0  0
  1  2  1  0  0  0  0
 21 22  2  0  0  0  0
 21 23  1  0  0  0  0
 19 20  1  0  0  0  0
 17 18  2  0  0  0  0
 17 19  1  0  0  0  0
 14 15  1  0  0  0  0
 14 16  1  0  0  0  0
 14 17  1  0  0  0  0
 11 12  1  0  0  0  0
 11 13  1  0  0  0  0
 11 14  1  0  0  0  0
  9 10  1  0  0  0  0
  9 11  1  0  0  0  0
  9 21  1  0  0  0  0
  7  8  1  0  0  0  0
  7  9  1  0  0  0  0
 25 26  1  0  0  0  0
 25 27  1  0  0  0  0
 25 28  1  0  0  0  0
 23 24  1  0  0  0  0
 23 25  1  0  0  0  0
M  END
$$$$
default_name
  -OEChem-02102213163D

 28 27  0     1  0  0  0  0  0999 V2000
   -3.2133   -3.5565    1.2809 H   0  0  0  0  0  0  0  0  0  0  0  0
   -3.1873   -2.5755    0.8089 C   0  0  0  0  0  0  0  0  0  0  0  0
   -3.8793   -1.9065    1.3169 H   0  0  0  0  0  0  0  0  0  0  0  0
   -3.4623   -2.6685   -0.2401 H   0  0  0  0  0  0  0  0  0  0  0  0
   -1.7863   -2.0195    0.9119 C   0  0  0  0  0  0  0  0  0  0  0  0
   -0.9073   -2.6615    1.4699 O   0  0  0  0  0  0  0  0  0  0  0  0
   -1.5803   -0.8195    0.3749 N   0  0  0  0  0  0  0  0  0  0  0  0
   -2.3603   -0.3345   -0.0451 H   0  0  0  0  0  0  0  0  0  0  0  0
   -0.2933   -0.1205    0.3719 C   0  0  1  0  0  0  0  0  0  0  0  0
    0.4439   -0.7485   -0.1303 H   0  0  0  0  0  0  0  0  0  0  0  0
   -0.4368    1.1924   -0.4246 C   0  0  0  0  0  0  0  0  0  0  0  0
   -0.4857    0.9417   -1.4857 H   0  0  0  0  0  0  0  0  0  0  0  0
   -1.3722    1.6809   -0.1479 H   0  0  0  0  0  0  0  0  0  0  0  0
    0.7172    2.1855   -0.2028 C   0  0  0  0  0  0  0  0  0  0  0  0
    0.8600    2.7942   -1.0958 H   0  0  0  0  0  0  0  0  0  0  0  0
    0.4735    2.8356    0.6366 H   0  0  0  0  0  0  0  0  0  0  0  0
    2.0337    1.4816    0.1099 C   0  0  0  0  0  0  0  0  0  0  0  0
    2.1586    0.2826    0.3012 O   0  0  0  0  0  0  0  0  0  0  0  0
    3.1149    2.2799    0.1832 O   0  0  0  0  0  0  0  0  0  0  0  0
    3.8447    1.6955    0.3959 H   0  0  0  0  0  0  0  0  0  0  0  0
    0.1871    0.1189    1.8122 C   0  0  0  0  0  0  0  0  0  0  0  0
    1.3541   -0.1171    2.1187 O   0  0  0  0  0  0  0  0  0  0  0  0
   -0.7126    0.5740    2.6926 N   0  0  0  0  0  0  0  0  0  0  0  0
   -1.6464    0.7663    2.3621 H   0  0  0  0  0  0  0  0  0  0  0  0
   -0.4191    0.8310    4.1010 C   0  0  0  0  0  0  0  0  0  0  0  0
    0.4022    1.5452    4.1828 H   0  0  0  0  0  0  0  0  0  0  0  0
   -1.2983    1.2366    4.6035 H   0  0  0  0  0  0  0  0  0  0  0  0
   -0.1204   -0.0980    4.5907 H   0  0  0  0  0  0  0  0  0  0  0  0
  5  6  2  0  0  0  0
  5  7  1  0  0  0  0
  2  3  1  0  0  0  0
  2  4  1  0  0  0  0
  2  5  1  0  0  0  0
  1  2  1  0  0  0  0
 21 22  2  0  0  0  0
 21 23  1  0  0  0  0
 19 20  1  0  0  0  0
 17 18  2  0  0  0  0
 17 19  1  0  0  0  0
 14 15  1  0  0  0  0
 14 16  1  0  0  0  0
 14 17  1  0  0  0  0
 11 12  1  0  0  0  0
 11 13  1  0  0  0  0
 11 14  1  0  0  0  0
  9 10  1  0  0  0  0
  9 11  1  0  0  0  0
  9 21  1  0  0  0  0
  7  8  1  0  0  0  0
  7  9  1  0  0  0  0
 25 26  1  0  0  0  0
 25 27  1  0  0  0  0
 25 28  1  0  0  0  0
 23 24  1  0  0  0  0
 23 25  1  0  0  0  0
M  END
$$$$
default_name
  -OEChem-02102213163D

 28 27  0     1  0  0  0  0  0999 V2000
   -3.2133   -3.5565    1.2809 H   0  0  0  0  0  0  0  0  0  0  0  0
   -3.1873   -2.5755    0.8089 C   0  0  0  0  0  0  0  0  0  0  0  0
   -3.8793   -1.9065    1.3169 H   0  0  0  0  0  0  0  0  0  0  0  0
   -3.4623   -2.6685   -0.2401 H   0  0  0  0  0  0  0  0  0  0  0  0
   -1.7863   -2.0195    0.9119 C   0  0  0  0  0  0  0  0  0  0  0  0
   -0.9073   -2.6615    1.4699 O   0  0  0  0  0  0  0  0  0  0  0  0
   -1.5803   -0.8195    0.3749 N   0  0  0  0  0  0  0  0  0  0  0  0
   -2.3603   -0.3345   -0.0451 H   0  0  0  0  0  0  0  0  0  0  0  0
   -0.2933   -0.1205    0.3719 C   0  0  1  0  0  0  0  0  0  0  0  0
    0.4439   -0.7485   -0.1303 H   0  0  0  0  0  0  0  0  0  0  0  0
   -0.4368    1.1924   -0.4246 C   0  0  0  0  0  0  0  0  0  0  0  0
   -0.4857    0.9417   -1.4857 H   0  0  0  0  0  0  0  0  0  0  0  0
   -1.3722    1.6809   -0.1479 H   0  0  0  0  0  0  0  0  0  0  0  0
    0.7172    2.1855   -0.2028 C   0  0  0  0  0  0  0  0  0  0  0  0
    0.6927    2.9603   -0.9692 H   0  0  0  0  0  0  0  0  0  0  0  0
    0.6070    2.6493    0.7767 H   0  0  0  0  0  0  0  0  0  0  0  0
    2.0821    1.5067   -0.2545 C   0  0  0  0  0  0  0  0  0  0  0  0
    2.2628    0.3017   -0.3265 O   0  0  0  0  0  0  0  0  0  0  0  0
    3.1431    2.3333   -0.2027 O   0  0  0  0  0  0  0  0  0  0  0  0
    3.9105    1.7592   -0.2317 H   0  0  0  0  0  0  0  0  0  0  0  0
    0.1871    0.1189    1.8122 C   0  0  0  0  0  0  0  0  0  0  0  0
    1.3541   -0.1171    2.1187 O   0  0  0  0  0  0  0  0  0  0  0  0
   -0.7126    0.5740    2.6926 N   0  0  0  0  0  0  0  0  0  0  0  0
   -1.6464    0.7663    2.3621 H   0  0  0  0  0  0  0  0  0  0  0  0
   -0.4191    0.8310    4.1010 C   0  0  0  0  0  0  0  0  0  0  0  0
    0.4022    1.5452    4.1828 H   0  0  0  0  0  0  0  0  0  0  0  0
   -1.2983    1.2366    4.6035 H   0  0  0  0  0  0  0  0  0  0  0  0
   -0.1204   -0.0980    4.5907 H   0  0  0  0  0  0  0  0  0  0  0  0
  5  6  2  0  0  0  0
  5  7  1  0  0  0  0
  2  3  1  0  0  0  0
  2  4  1  0  0  0  0
  2  5  1  0  0  0  0
  1  2  1  0  0  0  0
 21 22  2  0  0  0  0
 21 23  1  0  0  0  0
 19 20  1  0  0  0  0
 17 18  2  0  0  0  0
 17 19  1  0  0  0  0
 14 15  1  0  0  0  0
 14 16  1  0  0  0  0
 14 17  1  0  0  0  0
 11 12  1  0  0  0  0
 11 13  1  0  0  0  0
 11 14  1  0  0  0  0
  9 10  1  0  0  0  0
  9 11  1  0  0  0  0
  9 21  1  0  0  0  0
  7  8  1  0  0  0  0
  7  9  1  0  0  0  0
 25 26  1  0  0  0  0
 25 27  1  0  0  0  0
 25 28  1  0  0  0  0
 23 24  1  0  0  0  0
 23 25  1  0  0  0  0
M  END
$$$$
default_name
  -OEChem-02102213163D

 28 27  0     1  0  0  0  0  0999 V2000
   -3.2133   -3.5565    1.2809 H   0  0  0  0  0  0  0  0  0  0  0  0
   -3.1873   -2.5755    0.8089 C   0  0  0  0  0  0  0  0  0  0  0  0
   -3.8793   -1.9065    1.3169 H   0  0  0  0  0  0  0  0  0  0  0  0
   -3.4623   -2.6685   -0.2401 H   0  0  0  0  0  0  0  0  0  0  0  0
   -1.7863   -2.0195    0.9119 C   0  0  0  0  0  0  0  0  0  0  0  0
   -0.9073   -2.6615    1.4699 O   0  0  0  0  0  0  0  0  0  0  0  0
   -1.5803   -0.8195    0.3749 N   0  0  0  0  0  0  0  0  0  0  0  0
   -2.3603   -0.3345   -0.0451 H   0  0  0  0  0  0  0  0  0  0  0  0
   -0.2933   -0.1205    0.3719 C   0  0  1  0  0  0  0  0  0  0  0  0
    0.4439   -0.7485   -0.1303 H   0  0  0  0  0  0  0  0  0  0  0  0
   -0.4368    1.1924   -0.4246 C   0  0  0  0  0  0  0  0  0  0  0  0
   -0.4857    0.9417   -1.4857 H   0  0  0  0  0  0  0  0  0  0  0  0
   -1.3722    1.6809   -0.1479 H   0  0  0  0  0  0  0  0  0  0  0  0
    0.7172    2.1855   -0.2028 C   0  0  0  0  0  0  0  0  0  0  0  0
    0.5461    3.0899   -0.7867 H   0  0  0  0  0  0  0  0  0  0  0  0
    0.7662    2.4470    0.8535 H   0  0  0  0  0  0  0  0  0  0  0  0
    2.0671    1.6035   -0.6097 C   0  0  0  0  0  0  0  0  0  0  0  0
    2.2579    0.4459   -0.9466 O   0  0  0  0  0  0  0  0  0  0  0  0
    3.1039    2.4609   -0.5699 O   0  0  0  0  0  0  0  0  0  0  0  0
    3.8669    1.9450   -0.8365 H   0  0  0  0  0  0  0  0  0  0  0  0
    0.1871    0.1189    1.8122 C   0  0  0  0  0  0  0  0  0  0  0  0
    1.3541   -0.1171    2.1187 O   0  0  0  0  0  0  0  0  0  0  0  0
   -0.7126    0.5740    2.6926 N   0  0  0  0  0  0  0  0  0  0  0  0
   -1.6464    0.7663    2.3621 H   0  0  0  0  0  0  0  0  0  0  0  0
   -0.4191    0.8310    4.1010 C   0  0  0  0  0  0  0  0  0  0  0  0
    0.4022    1.5452    4.1828 H   0  0  0  0  0  0  0  0  0  0  0  0
   -1.2983    1.2366    4.6035 H   0  0  0  0  0  0  0  0  0  0  0  0
   -0.1204   -0.0980    4.5907 H   0  0  0  0  0  0  0  0  0  0  0  0
  5  6  2  0  0  0  0
  5  7  1  0  0  0  0
  2  3  1  0  0  0  0
  2  4  1  0  0  0  0
  2  5  1  0  0  0  0
  1  2  1  0  0  0  0
 21 22  2  0  0  0  0
 21 23  1  0  0  0  0
 19 20  1  0  0  0  0
 17 18  2  0  0  0  0
 17 19  1  0  0  0  0
 14 15  1  0  0  0  0
 14 16  1  0  0  0  0
 14 17  1  0  0  0  0
 11 12  1  0  0  0  0
 11 13  1  0  0  0  0
 11 14  1  0  0  0  0
  9 10  1  0  0  0  0
  9 11  1  0  0  0  0
  9 21  1  0  0  0  0
  7  8  1  0  0  0  0
  7  9  1  0  0  0  0
 25 26  1  0  0  0  0
 25 27  1  0  0  0  0
 25 28  1  0  0  0  0
 23 24  1  0  0  0  0
 23 25  1  0  0  0  0
M  END
$$$$
default_name
  -OEChem-02102213163D

 28 27  0     1  0  0  0  0  0999 V2000
   -3.2133   -3.5565    1.2809 H   0  0  0  0  0  0  0  0  0  0  0  0
   -3.1873   -2.5755    0.8089 C   0  0  0  0  0  0  0  0  0  0  0  0
   -3.8793   -1.9065    1.3169 H   0  0  0  0  0  0  0  0  0  0  0  0
   -3.4623   -2.6685   -0.2401 H   0  0  0  0  0  0  0  0  0  0  0  0
   -1.7863   -2.0195    0.9119 C   0  0  0  0  0  0  0  0  0  0  0  0
   -0.9073   -2.6615    1.4699 O   0  0  0  0  0  0  0  0  0  0  0  0
   -1.5803   -0.8195    0.3749 N   0  0  0  0  0  0  0  0  0  0  0  0
   -2.3603   -0.3345   -0.0451 H   0  0  0  0  0  0  0  0  0  0  0  0
   -0.2933   -0.1205    0.3719 C   0  0  1  0  0  0  0  0  0  0  0  0
    0.4439   -0.7485   -0.1303 H   0  0  0  0  0  0  0  0  0  0  0  0
   -0.4368    1.1924   -0.4246 C   0  0  0  0  0  0  0  0  0  0  0  0
   -0.4857    0.9417   -1.4857 H   0  0  0  0  0  0  0  0  0  0  0  0
   -1.3722    1.6809   -0.1479 H   0  0  0  0  0  0  0  0  0  0  0  0
    0.7172    2.1855   -0.2028 C   0  0  0  0  0  0  0  0  0  0  0  0
    0.4302    3.1743   -0.5609 H   0  0  0  0  0  0  0  0  0  0  0  0
    0.9404    2.2428    0.8619 H   0  0  0  0  0  0  0  0  0  0  0  0
    1.9897    1.7654   -0.9315 C   0  0  0  0  0  0  0  0  0  0  0  0
    2.1441    0.7054   -1.5167 O   0  0  0  0  0  0  0  0  0  0  0  0
    2.9999    2.6539   -0.8932 O   0  0  0  0  0  0  0  0  0  0  0  0
    3.7167    2.2403   -1.3774 H   0  0  0  0  0  0  0  0  0  0  0  0
    0.1871    0.1189    1.8122 C   0  0  0  0  0  0  0  0  0  0  0  0
    1.3541   -0.1171    2.1187 O   0  0  0  0  0  0  0  0  0  0  0  0
   -0.7126    0.5740    2.6926 N   0  0  0  0  0  0  0  0  0  0  0  0
   -1.6464    0.7663    2.3621 H   0  0  0  0  0  0  0  0  0  0  0  0
   -0.4191    0.8310    4.1010 C   0  0  0  0  0  0  0  0  0  0  0  0
    0.4022    1.5452    4.1828 H   0  0  0  0  0  0  0  0  0  0  0  0
   -1.2983    1.2366    4.6035 H   0  0  0  0  0  0  0  0  0  0  0  0
   -0.1204   -0.0980    4.5907 H   0  0  0  0  0  0  0  0  0  0  0  0
  5  6  2  0  0  0  0
  5  7  1  0  0  0  0
  2  3  1  0  0  0  0
  2  4  1  0  0  0  0
  2  5  1  0  0  0  0
  1  2  1  0  0  0  0
 21 22  2  0  0  0  0
 21 23  1  0  0  0  0
 19 20  1  0  0  0  0
 17 18  2  0  0  0  0
 17 19  1  0  0  0  0
 14 15  1  0  0  0  0
 14 16  1  0  0  0  0
 14 17  1  0  0  0  0
 11 12  1  0  0  0  0
 11 13  1  0  0  0  0
 11 14  1  0  0  0  0
  9 10  1  0  0  0  0
  9 11  1  0  0  0  0
  9 21  1  0  0  0  0
  7  8  1  0  0  0  0
  7  9  1  0  0  0  0
 25 26  1  0  0  0  0
 25 27  1  0  0  0  0
 25 28  1  0  0  0  0
 23 24  1  0  0  0  0
 23 25  1  0  0  0  0
M  END
$$$$
default_name
  -OEChem-02102213163D

 28 27  0     1  0  0  0  0  0999 V2000
   -3.2133   -3.5565    1.2809 H   0  0  0  0  0  0  0  0  0  0  0  0
   -3.1873   -2.5755    0.8089 C   0  0  0  0  0  0  0  0  0  0  0  0
   -3.8793   -1.9065    1.3169 H   0  0  0  0  0  0  0  0  0  0  0  0
   -3.4623   -2.6685   -0.2401 H   0  0  0  0  0  0  0  0  0  0  0  0
   -1.7863   -2.0195    0.9119 C   0  0  0  0  0  0  0  0  0  0  0  0
   -0.9073   -2.6615    1.4699 O   0  0  0  0  0  0  0  0  0  0  0  0
   -1.5803   -0.8195    0.3749 N   0  0  0  0  0  0  0  0  0  0  0  0
   -2.3603   -0.3345   -0.0451 H   0  0  0  0  0  0  0  0  0  0  0  0
   -0.2933   -0.1205    0.3719 C   0  0  1  0  0  0  0  0  0  0  0  0
    0.4439   -0.7485   -0.1303 H   0  0  0  0  0  0  0  0  0  0  0  0
   -0.4368    1.1924   -0.4246 C   0  0  0  0  0  0  0  0  0  0  0  0
   -0.4857    0.9417   -1.4857 H   0  0  0  0  0  0  0  0  0  0  0  0
   -1.3722    1.6809   -0.1479 H   0  0  0  0  0  0  0  0  0  0  0  0
    0.7172    2.1855   -0.2028 C   0  0  0  0  0  0  0  0  0  0  0  0
    0.3527    3.2075   -0.3069 H   0  0  0  0  0  0  0  0  0  0  0  0
    1.1177    2.0503    0.8012 H   0  0  0  0  0  0  0  0  0  0  0  0
    1.8550    1.9813   -1.1979 C   0  0  0  0  0  0  0  0  0  0  0  0
    1.9293    1.0625   -1.9980 O   0  0  0  0  0  0  0  0  0  0  0  0
    2.8383    2.8993   -1.1507 O   0  0  0  0  0  0  0  0  0  0  0  0
    3.4703    2.6249   -1.8174 H   0  0  0  0  0  0  0  0  0  0  0  0
    0.1871    0.1189    1.8122 C   0  0  0  0  0  0  0  0  0  0  0  0
    1.3541   -0.1171    2.1187 O   0  0  0  0  0  0  0  0  0  0  0  0
   -0.7126    0.5740    2.6926 N   0  0  0  0  0  0  0  0  0  0  0  0
   -1.6464    0.7663    2.3621 H   0  0  0  0  0  0  0  0  0  0  0  0
   -0.4191    0.8310    4.1010 C   0  0  0  0  0  0  0  0  0  0  0  0
    0.4022    1.5452    4.1828 H   0  0  0  0  0  0  0  0  0  0  0  0
   -1.2983    1.2366    4.6035 H   0  0  0  0  0  0  0  0  0  0  0  0
   -0.1204   -0.0980    4.5907 H   0  0  0  0  0  0  0  0  0  0  0  0
  5  6  2  0  0  0  0
  5  7  1  0  0  0  0
  2  3  1  0  0  0  0
  2  4  1  0  0  0  0
  2  5  1  0  0  0  0
  1  2  1  0  0  0  0
 21 22  2  0  0  0  0
 21 23  1  0  0  0  0
 19 20  1  0  0  0  0
 17 18  2  0  0  0  0
 17 19  1  0  0  0  0
 14 15  1  0  0  0  0
 14 16  1  0  0  0  0
 14 17  1  0  0  0  0
 11 12  1  0  0  0  0
 11 13  1  0  0  0  0
 11 14  1  0  0  0  0
  9 10  1  0  0  0  0
  9 11  1  0  0  0  0
  9 21  1  0  0  0  0
  7  8  1  0  0  0  0
  7  9  1  0  0  0  0
 25 26  1  0  0  0  0
 25 27  1  0  0  0  0
 25 28  1  0  0  0  0
 23 24  1  0  0  0  0
 23 25  1  0  0  0  0
M  END
$$$$
default_name
  -OEChem-02102213163D

 28 27  0     1  0  0  0  0  0999 V2000
   -3.2133   -3.5565    1.2809 H   0  0  0  0  0  0  0  0  0  0  0  0
   -3.1873   -2.5755    0.8089 C   0  0  0  0  0  0  0  0  0  0  0  0
   -3.8793   -1.9065    1.3169 H   0  0  0  0  0  0  0  0  0  0  0  0
   -3.4623   -2.6685   -0.2401 H   0  0  0  0  0  0  0  0  0  0  0  0
   -1.7863   -2.0195    0.9119 C   0  0  0  0  0  0  0  0  0  0  0  0
   -0.9073   -2.6615    1.4699 O   0  0  0  0  0  0  0  0  0  0  0  0
   -1.5803   -0.8195    0.3749 N   0  0  0  0  0  0  0  0  0  0  0  0
   -2.3603   -0.3345   -0.0451 H   0  0  0  0  0  0  0  0  0  0  0  0
   -0.2933   -0.1205    0.3719 C   0  0  1  0  0  0  0  0  0  0  0  0
    0.4439   -0.7485   -0.1303 H   0  0  0  0  0  0  0  0  0  0  0  0
   -0.4368    1.1924   -0.4246 C   0  0  0  0  0  0  0  0  0  0  0  0
   -0.4857    0.9417   -1.4857 H   0  0  0  0  0  0  0  0  0  0  0  0
   -1.3722    1.6809   -0.1479 H   0  0  0  0  0  0  0  0  0  0  0  0
    0.7172    2.1855   -0.2028 C   0  0  0  0  0  0  0  0  0  0  0  0
    0.3191    3.1875   -0.0423 H   0  0  0  0  0  0  0  0  0  0  0  0
    1.2859    1.8828    0.6756 H   0  0  0  0  0  0  0  0  0  0  0  0
    1.6724    2.2366   -1.3909 C   0  0  0  0  0  0  0  0  0  0  0  0
    1.6281    1.4929   -2.3577 O   0  0  0  0  0  0  0  0  0  0  0  0
    2.6300    3.1802   -1.3248 O   0  0  0  0  0  0  0  0  0  0  0  0
    3.1445    3.0726   -2.1266 H   0  0  0  0  0  0  0  0  0  0  0  0
    0.1871    0.1189    1.8122 C   0  0  0  0  0  0  0  0  0  0  0  0
    1.3541   -0.1171    2.1187 O   0  0  0  0  0  0  0  0  0  0  0  0
   -0.7126    0.5740    2.6926 N   0  0  0  0  0  0  0  0  0  0  0  0
   -1.6464    0.7663    2.3621 H   0  0  0  0  0  0  0  0  0  0  0  0
   -0.4191    0.8310    4.1010 C   0  0  0  0  0  0  0  0  0  0  0  0
    0.4022    1.5452    4.1828 H   0  0  0  0  0  0  0  0  0  0  0  0
   -1.2983    1.2366    4.6035 H   0  0  0  0  0  0  0  0  0  0  0  0
   -0.1204   -0.0980    4.5907 H   0  0  0  0  0  0  0  0  0  0  0  0
  5  6  2  0  0  0  0
  5  7  1  0  0  0  0
  2  3  1  0  0  0  0
  2  4  1  0  0  0  0
  2  5  1  0  0  0  0
  1  2  1  0  0  0  0
 21 22  2  0  0  0  0
 21 23  1  0  0  0  0
 19 20  1  0  0  0  0
 17 18  2  0  0  0  0
 17 19  1  0  0  0  0
 14 15  1  0  0  0  0
 14 16  1  0  0  0  0
 14 17  1  0  0  0  0
 11 12  1  0  0  0  0
 11 13  1  0  0  0  0
 11 14  1  0  0  0  0
  9 10  1  0  0  0  0
  9 11  1  0  0  0  0
  9 21  1  0  0  0  0
  7  8  1  0  0  0  0
  7  9  1  0  0  0  0
 25 26  1  0  0  0  0
 25 27  1  0  0  0  0
 25 28  1  0  0  0  0
 23 24  1  0  0  0  0
 23 25  1  0  0  0  0
M  END
$$$$
default_name
  -OEChem-02102213163D

 28 27  0     1  0  0  0  0  0999 V2000
   -3.2133   -3.5565    1.2809 H   0  0  0  0  0  0  0  0  0  0  0  0
   -3.1873   -2.5755    0.8089 C   0  0  0  0  0  0  0  0  0  0  0  0
   -3.8793   -1.9065    1.3169 H   0  0  0  0  0  0  0  0  0  0  0  0
   -3.4623   -2.6685   -0.2401 H   0  0  0  0  0  0  0  0  0  0  0  0
   -1.7863   -2.0195    0.9119 C   0  0  0  0  0  0  0  0  0  0  0  0
   -0.9073   -2.6615    1.4699 O   0  0  0  0  0  0  0  0  0  0  0  0
   -1.5803   -0.8195    0.3749 N   0  0  0  0  0  0  0  0  0  0  0  0
   -2.3603   -0.3345   -0.0451 H   0  0  0  0  0  0  0  0  0  0  0  0
   -0.2933   -0.1205    0.3719 C   0  0  1  0  0  0  0  0  0  0  0  0
    0.4439   -0.7485   -0.1303 H   0  0  0  0  0  0  0  0  0  0  0  0
   -0.4368    1.1924   -0.4246 C   0  0  0  0  0  0  0  0  0  0  0  0
   -0.4857    0.9417   -1.4857 H   0  0  0  0  0  0  0  0  0  0  0  0
   -1.3722    1.6809   -0.1479 H   0  0  0  0  0  0  0  0  0  0  0  0
    0.7172    2.1855   -0.2028 C   0  0  0  0  0  0  0  0  0  0  0  0
    0.3316    3.1155    0.2151 H   0  0  0  0  0  0  0  0  0  0  0  0
    1.4337    1.7517    0.4937 H   0  0  0  0  0  0  0  0  0  0  0  0
    1.4543    2.5139   -1.4972 C   0  0  0  0  0  0  0  0  0  0  0  0
    1.2611    1.9671   -2.5712 O   0  0  0  0  0  0  0  0  0  0  0  0
    2.3892    3.4776   -1.4036 O   0  0  0  0  0  0  0  0  0  0  0  0
    2.7614    3.5530   -2.2840 H   0  0  0  0  0  0  0  0  0  0  0  0
    0.1871    0.1189    1.8122 C   0  0  0  0  0  0  0  0  0  0  0  0
    1.3541   -0.1171    2.1187 O   0  0  0  0  0  0  0  0  0  0  0  0
   -0.7126    0.5740    2.6926 N   0  0  0  0  0  0  0  0  0  0  0  0
   -1.6464    0.7663    2.3621 H   0  0  0  0  0  0  0  0  0  0  0  0
   -0.4191    0.8310    4.1010 C   0  0  0  0  0  0  0  0  0  0  0  0
    0.4022    1.5452    4.1828 H   0  0  0  0  0  0  0  0  0  0  0  0
   -1.2983    1.2366    4.6035 H   0  0  0  0  0  0  0  0  0  0  0  0
   -0.1204   -0.0980    4.5907 H   0  0  0  0  0  0  0  0  0  0  0  0
  5  6  2  0  0  0  0
  5  7  1  0  0  0  0
  2  3  1  0  0  0  0
  2  4  1  0  0  0  0
  2  5  1  0  0  0  0
  1  2  1  0  0  0  0
 21 22  2  0  0  0  0
 21 23  1  0  0  0  0
 19 20  1  0  0  0  0
 17 18  2  0  0  0  0
 17 19  1  0  0  0  0
 14 15  1  0  0  0  0
 14 16  1  0  0  0  0
 14 17  1  0  0  0  0
 11 12  1  0  0  0  0
 11 13  1  0  0  0  0
 11 14  1  0  0  0  0
  9 10  1  0  0  0  0
  9 11  1  0  0  0  0
  9 21  1  0  0  0  0
  7  8  1  0  0  0  0
  7  9  1  0  0  0  0
 25 26  1  0  0  0  0
 25 27  1  0  0  0  0
 25 28  1  0  0  0  0
 23 24  1  0  0  0  0
 23 25  1  0  0  0  0
M  END
$$$$
default_name
  -OEChem-02102213163D

 28 27  0     1  0  0  0  0  0999 V2000
   -3.2133   -3.5565    1.2809 H   0  0  0  0  0  0  0  0  0  0  0  0
   -3.1873   -2.5755    0.8089 C   0  0  0  0  0  0  0  0  0  0  0  0
   -3.8793   -1.9065    1.3169 H   0  0  0  0  0  0  0  0  0  0  0  0
   -3.4623   -2.6685   -0.2401 H   0  0  0  0  0  0  0  0  0  0  0  0
   -1.7863   -2.0195    0.9119 C   0  0  0  0  0  0  0  0  0  0  0  0
   -0.9073   -2.6615    1.4699 O   0  0  0  0  0  0  0  0  0  0  0  0
   -1.5803   -0.8195    0.3749 N   0  0  0  0  0  0  0  0  0  0  0  0
   -2.3603   -0.3345   -0.0451 H   0  0  0  0  0  0  0  0  0  0  0  0
   -0.2933   -0.1205    0.3719 C   0  0  1  0  0  0  0  0  0  0  0  0
    0.4439   -0.7485   -0.1303 H   0  0  0  0  0  0  0  0  0  0  0  0
   -0.4368    1.1924   -0.4246 C   0  0  0  0  0  0  0  0  0  0  0  0
   -0.4857    0.9417   -1.4857 H   0  0  0  0  0  0  0  0  0  0  0  0
   -1.3722    1.6809   -0.1479 H   0  0  0  0  0  0  0  0  0  0  0  0
    0.7172    2.1855   -0.2028 C   0  0  0  0  0  0  0  0  0  0  0  0
    0.3893    2.9964    0.4477 H   0  0  0  0  0  0  0  0  0  0  0  0
    1.5510    1.6659    0.2678 H   0  0  0  0  0  0  0  0  0  0  0  0
    1.2154    2.7942   -1.5096 C   0  0  0  0  0  0  0  0  0  0  0  0
    0.8531    2.4530   -2.6242 O   0  0  0  0  0  0  0  0  0  0  0  0
    2.1323    3.7712   -1.3817 O   0  0  0  0  0  0  0  0  0  0  0  0
    2.3471    4.0332   -2.2787 H   0  0  0  0  0  0  0  0  0  0  0  0
    0.1871    0.1189    1.8122 C   0  0  0  0  0  0  0  0  0  0  0  0
    1.3541   -0.1171    2.1187 O   0  0  0  0  0  0  0  0  0  0  0  0
   -0.7126    0.5740    2.6926 N   0  0  0  0  0  0  0  0  0  0  0  0
   -1.6464    0.7663    2.3621 H   0  0  0  0  0  0  0  0  0  0  0  0
   -0.4191    0.8310    4.1010 C   0  0  0  0  0  0  0  0  0  0  0  0
    0.4022    1.5452    4.1828 H   0  0  0  0  0  0  0  0  0  0  0  0
   -1.2983    1.2366    4.6035 H   0  0  0  0  0  0  0  0  0  0  0  0
   -0.1204   -0.0980    4.5907 H   0  0  0  0  0  0  0  0  0  0  0  0
  5  6  2  0  0  0  0
  5  7  1  0  0  0  0
  2  3  1  0  0  0  0
  2  4  1  0  0  0  0
  2  5  1  0  0  0  0
  1  2  1  0  0  0  0
 21 22  2  0  0  0  0
 21 23  1  0  0  0  0
 19 20  1  0  0  0  0
 17 18  2  0  0  0  0
 17 19  1  0  0  0  0
 14 15  1  0  0  0  0
 14 16  1  0  0  0  0
 14 17  1  0  0  0  0
 11 12  1  0  0  0  0
 11 13  1  0  0  0  0
 11 14  1  0  0  0  0
  9 10  1  0  0  0  0
  9 11  1  0  0  0  0
  9 21  1  0  0  0  0
  7  8  1  0  0  0  0
  7  9  1  0  0  0  0
 25 26  1  0  0  0  0
 25 27  1  0  0  0  0
 25 28  1  0  0  0  0
 23 24  1  0  0  0  0
 23 25  1  0  0  0  0
M  END
$$$$
default_name
  -OEChem-02102213163D

 28 27  0     1  0  0  0  0  0999 V2000
   -3.2133   -3.5565    1.2809 H   0  0  0  0  0  0  0  0  0  0  0  0
   -3.1873   -2.5755    0.8089 C   0  0  0  0  0  0  0  0  0  0  0  0
   -3.8793   -1.9065    1.3169 H   0  0  0  0  0  0  0  0  0  0  0  0
   -3.4623   -2.6685   -0.2401 H   0  0  0  0  0  0  0  0  0  0  0  0
   -1.7863   -2.0195    0.9119 C   0  0  0  0  0  0  0  0  0  0  0  0
   -0.9073   -2.6615    1.4699 O   0  0  0  0  0  0  0  0  0  0  0  0
   -1.5803   -0.8195    0.3749 N   0  0  0  0  0  0  0  0  0  0  0  0
   -2.3603   -0.3345   -0.0451 H   0  0  0  0  0  0  0  0  0  0  0  0
   -0.2933   -0.1205    0.3719 C   0  0  1  0  0  0  0  0  0  0  0  0
    0.4439   -0.7485   -0.1303 H   0  0  0  0  0  0  0  0  0  0  0  0
   -0.4368    1.1924   -0.4246 C   0  0  0  0  0  0  0  0  0  0  0  0
   -0.4857    0.9417   -1.4857 H   0  0  0  0  0  0  0  0  0  0  0  0
   -1.3722    1.6809   -0.1479 H   0  0  0  0  0  0  0  0  0  0  0  0
    0.7172    2.1855   -0.2028 C   0  0  0  0  0  0  0  0  0  0  0  0
    0.4884    2.8384    0.6395 H   0  0  0  0  0  0  0  0  0  0  0  0
    1.6298    1.6312    0.0133 H   0  0  0  0  0  0  0  0  0  0  0  0
    0.9722    3.0585   -1.4273 C   0  0  0  0  0  0  0  0  0  0  0  0
    0.4321    2.9174   -2.5128 O   0  0  0  0  0  0  0  0  0  0  0  0
    1.8770    4.0410   -1.2607 O   0  0  0  0  0  0  0  0  0  0  0  0
    1.9299    4.4806   -2.1111 H   0  0  0  0  0  0  0  0  0  0  0  0
    0.1871    0.1189    1.8122 C   0  0  0  0  0  0  0  0  0  0  0  0
    1.3541   -0.1171    2.1187 O   0  0  0  0  0  0  0  0  0  0  0  0
   -0.7126    0.5740    2.6926 N   0  0  0  0  0  0  0  0  0  0  0  0
   -1.6464    0.7663    2.3621 H   0  0  0  0  0  0  0  0  0  0  0  0
   -0.4191    0.8310    4.1010 C   0  0  0  0  0  0  0  0  0  0  0  0
    0.4022    1.5452    4.1828 H   0  0  0  0  0  0  0  0  0  0  0  0
   -1.2983    1.2366    4.6035 H   0  0  0  0  0  0  0  0  0  0  0  0
   -0.1204   -0.0980    4.5907 H   0  0  0  0  0  0  0  0  0  0  0  0
  5  6  2  0  0  0  0
  5  7  1  0  0  0  0
  2  3  1  0  0  0  0
  2  4  1  0  0  0  0
  2  5  1  0  0  0  0
  1  2  1  0  0  0  0
 21 22  2  0  0  0  0
 21 23  1  0  0  0  0
 19 20  1  0  0  0  0
 17 18  2  0  0  0  0
 17 19  1  0  0  0  0
 14 15  1  0  0  0  0
 14 16  1  0  0  0  0
 14 17  1  0  0  0  0
 11 12  1  0  0  0  0
 11 13  1  0  0  0  0
 11 14  1  0  0  0  0
  9 10  1  0  0  0  0
  9 11  1  0  0  0  0
  9 21  1  0  0  0  0
  7  8  1  0  0  0  0
  7  9  1  0  0  0  0
 25 26  1  0  0  0  0
 25 27  1  0  0  0  0
 25 28  1  0  0  0  0
 23 24  1  0  0  0  0
 23 25  1  0  0  0  0
M  END
$$$$
default_name
  -OEChem-02102213163D

 28 27  0     1  0  0  0  0  0999 V2000
   -3.2133   -3.5565    1.2809 H   0  0  0  0  0  0  0  0  0  0  0  0
   -3.1873   -2.5755    0.8089 C   0  0  0  0  0  0  0  0  0  0  0  0
   -3.8793   -1.9065    1.3169 H   0  0  0  0  0  0  0  0  0  0  0  0
   -3.4623   -2.6685   -0.2401 H   0  0  0  0  0  0  0  0  0  0  0  0
   -1.7863   -2.0195    0.9119 C   0  0  0  0  0  0  0  0  0  0  0  0
   -0.9073   -2.6615    1.4699 O   0  0  0  0  0  0  0  0  0  0  0  0
   -1.5803   -0.8195    0.3749 N   0  0  0  0  0  0  0  0  0  0  0  0
   -2.3603   -0.3345   -0.0451 H   0  0  0  0  0  0  0  0  0  0  0  0
   -0.2933   -0.1205    0.3719 C   0  0  1  0  0  0  0  0  0  0  0  0
    0.4439   -0.7485   -0.1303 H   0  0  0  0  0  0  0  0  0  0  0  0
   -0.4368    1.1924   -0.4246 C   0  0  0  0  0  0  0  0  0  0  0  0
   -0.4857    0.9417   -1.4857 H   0  0  0  0  0  0  0  0  0  0  0  0
   -1.3722    1.6809   -0.1479 H   0  0  0  0  0  0  0  0  0  0  0  0
    0.7172    2.1855   -0.2028 C   0  0  0  0  0  0  0  0  0  0  0  0
    0.6221    2.6523    0.7776 H   0  0  0  0  0  0  0  0  0  0  0  0
    1.6646    1.6500   -0.2523 H   0  0  0  0  0  0  0  0  0  0  0  0
    0.7412    3.2887   -1.2559 C   0  0  0  0  0  0  0  0  0  0  0  0
    0.0267    3.3286   -2.2447 O   0  0  0  0  0  0  0  0  0  0  0  0
    1.6404    4.2685   -1.0488 O   0  0  0  0  0  0  0  0  0  0  0  0
    1.5382    4.8646   -1.7928 H   0  0  0  0  0  0  0  0  0  0  0  0
    0.1871    0.1189    1.8122 C   0  0  0  0  0  0  0  0  0  0  0  0
    1.3541   -0.1171    2.1187 O   0  0  0  0  0  0  0  0  0  0  0  0
   -0.7126    0.5740    2.6926 N   0  0  0  0  0  0  0  0  0  0  0  0
   -1.6464    0.7663    2.3621 H   0  0  0  0  0  0  0  0  0  0  0  0
   -0.4191    0.8310    4.1010 C   0  0  0  0  0  0  0  0  0  0  0  0
    0.4022    1.5452    4.1828 H   0  0  0  0  0  0  0  0  0  0  0  0
   -1.2983    1.2366    4.6035 H   0  0  0  0  0  0  0  0  0  0  0  0
   -0.1204   -0.0980    4.5907 H   0  0  0  0  0  0  0  0  0  0  0  0
  5  6  2  0  0  0  0
  5  7  1  0  0  0  0
  2  3  1  0  0  0  0
  2  4  1  0  0  0  0
  2  5  1  0  0  0  0
  1  2  1  0  0  0  0
 21 22  2  0  0  0  0
 21 23  1  0  0  0  0
 19 20  1  0  0  0  0
 17 18  2  0  0  0  0
 17 19  1  0  0  0  0
 14 15  1  0  0  0  0
 14 16  1  0  0  0  0
 14 17  1  0  0  0  0
 11 12  1  0  0  0  0
 11 13  1  0  0  0  0
 11 14  1  0  0  0  0
  9 10  1  0  0  0  0
  9 11  1  0  0  0  0
  9 21  1  0  0  0  0
  7  8  1  0  0  0  0
  7  9  1  0  0  0  0
 25 26  1  0  0  0  0
 25 27  1  0  0  0  0
 25 28  1  0  0  0  0
 23 24  1  0  0  0  0
 23 25  1  0  0  0  0
M  END
$$$$
